
 OpenBabel03252507143D

 36 37  0  0  1  0  0  0  0  0999 V2000
   34.5360   29.1300   40.0320 O   0  0  0  0  0  0  0  0  0  0  0  0
   35.8030   29.4640   40.7210 P   0  0  1  0  0  0  0  0  0  0  0  0
   35.5580   30.9440   41.5310 O   0  0  0  0  0  0  0  0  0  0  0  0
   35.3150   31.5870   40.8140 H   0  0  0  0  0  0  0  0  0  0  0  0
   36.1500   28.2880   41.9310 O   0  0  0  0  0  0  0  0  0  0  0  0
   37.8200   26.6230   41.9700 C   0  0  0  0  0  0  0  0  0  0  0  0
   37.4460   27.9200   42.2310 C   0  0  0  0  0  0  0  0  0  0  0  0
   38.4010   28.8090   42.7890 C   0  0  0  0  0  0  0  0  0  0  0  0
   39.6360   28.3120   43.0310 N   0  0  0  0  0  0  0  0  0  0  0  0
   39.9610   27.0590   42.7690 C   0  0  0  0  0  0  0  0  0  0  0  0
   39.0370   26.2180   42.2340 N   0  0  0  0  0  0  0  0  0  0  0  0
   36.9430   25.3400   40.0250 C   0  0  0  0  0  0  0  0  0  0  0  0
   37.0860   26.3220   39.2030 O   0  0  0  0  0  0  0  0  0  0  0  0
   37.2850   25.4150   41.4520 N   0  0  0  0  0  0  0  0  0  0  0  0
   38.0430   29.8010   42.9650 H   0  0  0  0  0  0  0  0  0  0  0  0
   40.9500   26.6620   42.9630 H   0  0  0  0  0  0  0  0  0  0  0  0
   36.5410   24.4460   39.5510 H   0  0  0  0  0  0  0  0  0  0  0  0
   37.0830   24.5410   41.9400 H   0  0  0  0  0  0  0  0  0  0  0  0
   37.0850   29.6450   39.7000 O   0  0  0  0  0  0  0  0  0  0  0  0
   37.1060   30.6730   38.8460 C   0  0  2  0  0  0  0  0  0  0  0  0
   37.4190   30.3850   37.4330 C   0  0  0  0  0  0  0  0  0  0  0  0
   37.8640   31.6290   36.7320 C   0  0  0  0  0  0  0  0  0  0  0  0
   39.0860   32.0960   37.1900 O   0  0  0  0  0  0  0  0  0  0  0  0
   39.3180   31.7170   38.4980 C   0  0  0  0  0  0  0  0  0  0  0  0
   38.0540   31.7850   39.3030 C   0  0  1  0  0  0  0  0  0  0  0  0
   36.1060   31.2010   38.8940 H   0  0  0  0  0  0  0  0  0  0  0  0
   36.5530   29.9490   36.8600 H   0  0  0  0  0  0  0  0  0  0  0  0
   38.2320   29.6390   37.2920 H   0  0  0  0  0  0  0  0  0  0  0  0
   37.0940   32.3900   36.5690 H   0  0  0  0  0  0  0  0  0  0  0  0
   38.1040   31.2770   35.6780 H   0  0  0  0  0  0  0  0  0  0  0  0
   39.6760   30.6760   38.5210 H   0  0  0  0  0  0  0  0  0  0  0  0
   40.0910   32.3830   38.9230 H   0  0  0  0  0  0  0  0  0  0  0  0
   38.3760   31.4570   40.3270 H   0  0  0  0  0  0  0  0  0  0  0  0
   37.4460   33.1170   39.4780 C   0  0  0  0  0  2  0  0  0  0  0  0
   38.4910   34.0280   40.1450 C   0  0  0  0  0  2  0  0  0  0  0  0
   38.0220   34.9640   40.4990 H   0  0  0  0  0  0  0  0  0  0  0  0
  2  1  2  6  0  0  0
  2  3  1  0  0  0  0
  2  5  1  0  0  0  0
  4  3  1  0  0  0  0
  5  7  1  0  0  0  0
  6  7  2  0  0  0  0
  6 11  1  0  0  0  0
  7  8  1  0  0  0  0
  8 15  1  0  0  0  0
  8  9  2  0  0  0  0
 10 16  1  0  0  0  0
 10  9  1  0  0  0  0
 11 10  2  0  0  0  0
 12 14  1  0  0  0  0
 13 12  2  0  0  0  0
 14 18  1  0  0  0  0
 14  6  1  0  0  0  0
 17 12  1  0  0  0  0
 19  2  1  0  0  0  0
 20 26  1  1  0  0  0
 20 25  1  0  0  0  0
 20 19  1  0  0  0  0
 21 20  1  0  0  0  0
 22 23  1  0  0  0  0
 22 21  1  0  0  0  0
 23 24  1  0  0  0  0
 24 31  1  0  0  0  0
 24 32  1  0  0  0  0
 24 25  1  0  0  0  0
 25 34  1  0  0  0  0
 25 33  1  1  0  0  0
 27 21  1  0  0  0  0
 28 21  1  0  0  0  0
 29 22  1  0  0  0  0
 30 22  1  0  0  0  0
 34 35  1  0  0  0  0
 35 36  1  0  0  0  0
M  END
>  <minimizedAffinity>
-5.33397961

$$$$

 OpenBabel03252507143D

 36 37  0  0  1  0  0  0  0  0999 V2000
   38.0980   30.2770   41.7980 O   0  0  0  0  0  0  0  0  0  0  0  0
   36.8980   29.7650   41.0990 P   0  0  1  0  0  0  0  0  0  0  0  0
   35.6170   30.8300   41.4580 O   0  0  0  0  0  0  0  0  0  0  0  0
   35.5380   30.8070   42.4470 H   0  0  0  0  0  0  0  0  0  0  0  0
   37.1310   29.8250   39.3940 O   0  0  0  0  0  0  0  0  0  0  0  0
   38.4330   31.4600   38.3000 C   0  0  0  0  0  0  0  0  0  0  0  0
   38.3400   30.2000   38.8420 C   0  0  0  0  0  0  0  0  0  0  0  0
   39.4790   29.3550   38.8080 C   0  0  0  0  0  0  0  0  0  0  0  0
   40.5990   29.8530   38.2360 N   0  0  0  0  0  0  0  0  0  0  0  0
   40.6540   31.0700   37.7250 C   0  0  0  0  0  0  0  0  0  0  0  0
   39.5550   31.8690   37.7630 N   0  0  0  0  0  0  0  0  0  0  0  0
   37.2260   33.4190   39.2490 C   0  0  0  0  0  0  0  0  0  0  0  0
   37.5250   33.1230   40.4670 O   0  0  0  0  0  0  0  0  0  0  0  0
   37.6420   32.6190   38.0900 N   0  0  0  0  0  0  0  0  0  0  0  0
   39.3360   28.3890   39.2470 H   0  0  0  0  0  0  0  0  0  0  0  0
   41.5500   31.4680   37.2670 H   0  0  0  0  0  0  0  0  0  0  0  0
   36.6310   34.3280   39.1680 H   0  0  0  0  0  0  0  0  0  0  0  0
   37.2930   33.0070   37.2120 H   0  0  0  0  0  0  0  0  0  0  0  0
   36.4530   28.2490   41.5720 O   0  0  0  0  0  0  0  0  0  0  0  0
   37.2260   27.2070   41.2530 C   0  0  2  0  0  0  0  0  0  0  0  0
   36.7980   26.3530   40.1280 C   0  0  0  0  0  0  0  0  0  0  0  0
   37.4680   25.0180   40.2010 C   0  0  0  0  0  0  0  0  0  0  0  0
   37.0490   24.2640   41.2860 O   0  0  0  0  0  0  0  0  0  0  0  0
   36.6150   25.0660   42.3240 C   0  0  0  0  0  0  0  0  0  0  0  0
   37.4790   26.2860   42.4500 C   0  0  1  0  0  0  0  0  0  0  0  0
   38.2710   27.5850   41.0410 H   0  0  0  0  0  0  0  0  0  0  0  0
   37.0140   26.8000   39.1170 H   0  0  0  0  0  0  0  0  0  0  0  0
   35.7050   26.1540   40.1020 H   0  0  0  0  0  0  0  0  0  0  0  0
   38.5450   25.0090   40.0010 H   0  0  0  0  0  0  0  0  0  0  0  0
   37.0400   24.4490   39.3150 H   0  0  0  0  0  0  0  0  0  0  0  0
   35.5860   25.4010   42.1240 H   0  0  0  0  0  0  0  0  0  0  0  0
   36.6350   24.4710   43.2560 H   0  0  0  0  0  0  0  0  0  0  0  0
   37.0250   26.8410   43.3130 H   0  0  0  0  0  0  0  0  0  0  0  0
   38.8930   26.0680   42.8080 C   0  0  0  0  0  2  0  0  0  0  0  0
   39.4300   27.3730   43.4200 C   0  0  0  0  0  2  0  0  0  0  0  0
   40.5320   27.3390   43.5010 H   0  0  0  0  0  0  0  0  0  0  0  0
  2  3  1  0  0  0  0
  2 19  1  0  0  0  0
  2  1  2  1  0  0  0
  3  4  1  0  0  0  0
  5  2  1  0  0  0  0
  6  7  1  0  0  0  0
  7  5  1  0  0  0  0
  8  7  2  0  0  0  0
  8 15  1  0  0  0  0
  9  8  1  0  0  0  0
 10 11  1  0  0  0  0
 10  9  2  0  0  0  0
 11  6  2  0  0  0  0
 12 13  2  0  0  0  0
 14  6  1  0  0  0  0
 14 12  1  0  0  0  0
 16 10  1  0  0  0  0
 17 12  1  0  0  0  0
 18 14  1  0  0  0  0
 20 26  1  6  0  0  0
 20 19  1  0  0  0  0
 20 25  1  0  0  0  0
 21 22  1  0  0  0  0
 21 20  1  0  0  0  0
 22 23  1  0  0  0  0
 23 24  1  0  0  0  0
 24 25  1  0  0  0  0
 24 32  1  0  0  0  0
 25 34  1  0  0  0  0
 25 33  1  1  0  0  0
 27 21  1  0  0  0  0
 28 21  1  0  0  0  0
 29 22  1  0  0  0  0
 30 22  1  0  0  0  0
 31 24  1  0  0  0  0
 34 35  1  0  0  0  0
 35 36  1  0  0  0  0
M  END
>  <minimizedAffinity>
-5.3238163

$$$$

 OpenBabel03252507143D

 36 37  0  0  1  0  0  0  0  0999 V2000
   38.9180   29.1400   41.7620 O   0  0  0  0  0  0  0  0  0  0  0  0
   37.4630   29.0230   42.0080 P   0  0  1  0  0  0  0  0  0  0  0  0
   37.2180   29.2490   43.6790 O   0  0  0  0  0  0  0  0  0  0  0  0
   37.7520   28.5330   44.1130 H   0  0  0  0  0  0  0  0  0  0  0  0
   36.6200   30.2930   41.2060 O   0  0  0  0  0  0  0  0  0  0  0  0
   37.1460   31.8570   39.5200 C   0  0  0  0  0  0  0  0  0  0  0  0
   36.8260   30.5650   39.8680 C   0  0  0  0  0  0  0  0  0  0  0  0
   36.7260   29.5870   38.8460 C   0  0  0  0  0  0  0  0  0  0  0  0
   36.9550   29.9950   37.5770 N   0  0  0  0  0  0  0  0  0  0  0  0
   37.2600   31.2460   37.2790 C   0  0  0  0  0  0  0  0  0  0  0  0
   37.3540   32.1740   38.2670 N   0  0  0  0  0  0  0  0  0  0  0  0
   38.5350   33.3300   40.9690 C   0  0  0  0  0  0  0  0  0  0  0  0
   39.3960   32.4070   41.2300 O   0  0  0  0  0  0  0  0  0  0  0  0
   37.3570   33.1280   40.1160 N   0  0  0  0  0  0  0  0  0  0  0  0
   36.4740   28.6050   39.1880 H   0  0  0  0  0  0  0  0  0  0  0  0
   37.4440   31.5730   36.2630 H   0  0  0  0  0  0  0  0  0  0  0  0
   38.7720   34.2780   41.4500 H   0  0  0  0  0  0  0  0  0  0  0  0
   36.7860   33.9720   40.0460 H   0  0  0  0  0  0  0  0  0  0  0  0
   36.8370   27.5550   41.5920 O   0  0  0  0  0  0  0  0  0  0  0  0
   37.6570   26.5840   41.1770 C   0  0  2  0  0  0  0  0  0  0  0  0
   37.6310   26.2300   39.7440 C   0  0  0  0  0  0  0  0  0  0  0  0
   38.2130   24.8690   39.5310 C   0  0  0  0  0  0  0  0  0  0  0  0
   37.4320   23.8600   40.0720 O   0  0  0  0  0  0  0  0  0  0  0  0
   36.6780   24.3160   41.1370 C   0  0  0  0  0  0  0  0  0  0  0  0
   37.4640   25.2870   41.9670 C   0  0  1  0  0  0  0  0  0  0  0  0
   38.7160   26.8610   41.4610 H   0  0  0  0  0  0  0  0  0  0  0  0
   38.1910   26.9580   39.0920 H   0  0  0  0  0  0  0  0  0  0  0  0
   36.6120   26.2080   39.3020 H   0  0  0  0  0  0  0  0  0  0  0  0
   39.2920   24.7770   39.6950 H   0  0  0  0  0  0  0  0  0  0  0  0
   38.1090   24.7000   38.4120 H   0  0  0  0  0  0  0  0  0  0  0  0
   35.7880   24.8400   40.7580 H   0  0  0  0  0  0  0  0  0  0  0  0
   36.3650   23.4450   41.7410 H   0  0  0  0  0  0  0  0  0  0  0  0
   36.7480   25.5750   42.7820 H   0  0  0  0  0  0  0  0  0  0  0  0
   38.6630   24.7640   42.6480 C   0  0  0  0  0  2  0  0  0  0  0  0
   39.4740   25.9670   43.1630 C   0  0  0  0  0  2  0  0  0  0  0  0
   40.4820   25.6470   43.4840 H   0  0  0  0  0  0  0  0  0  0  0  0
  2  1  2  6  0  0  0
  2  3  1  0  0  0  0
  3  4  1  0  0  0  0
  5  2  1  0  0  0  0
  6  7  1  0  0  0  0
  6 14  1  0  0  0  0
  7  5  1  0  0  0  0
  8 15  1  0  0  0  0
  8  7  2  0  0  0  0
  9  8  1  0  0  0  0
 10  9  2  0  0  0  0
 10 11  1  0  0  0  0
 11  6  2  0  0  0  0
 12 13  2  0  0  0  0
 12 17  1  0  0  0  0
 14 12  1  0  0  0  0
 16 10  1  0  0  0  0
 18 14  1  0  0  0  0
 19  2  1  0  0  0  0
 20 26  1  1  0  0  0
 20 19  1  0  0  0  0
 20 25  1  0  0  0  0
 21 20  1  0  0  0  0
 22 29  1  0  0  0  0
 22 21  1  0  0  0  0
 22 23  1  0  0  0  0
 23 24  1  0  0  0  0
 24 32  1  0  0  0  0
 24 25  1  0  0  0  0
 25 34  1  0  0  0  0
 25 33  1  1  0  0  0
 27 21  1  0  0  0  0
 28 21  1  0  0  0  0
 30 22  1  0  0  0  0
 31 24  1  0  0  0  0
 34 35  1  0  0  0  0
 35 36  1  0  0  0  0
M  END
>  <minimizedAffinity>
-5.28615141

$$$$

 OpenBabel03252507143D

 36 37  0  0  1  0  0  0  0  0999 V2000
   35.8610   28.4680   41.3480 O   0  0  0  0  0  0  0  0  0  0  0  0
   36.9930   29.3070   41.8010 P   0  0  1  0  0  0  0  0  0  0  0  0
   36.9670   29.3060   43.5050 O   0  0  0  0  0  0  0  0  0  0  0  0
   36.0780   29.6780   43.7440 H   0  0  0  0  0  0  0  0  0  0  0  0
   38.4890   28.5960   41.3270 O   0  0  0  0  0  0  0  0  0  0  0  0
   38.5960   26.4310   42.2560 C   0  0  0  0  0  0  0  0  0  0  0  0
   39.1440   27.6860   42.1320 C   0  0  0  0  0  0  0  0  0  0  0  0
   40.3430   27.9810   42.8290 C   0  0  0  0  0  0  0  0  0  0  0  0
   40.8770   26.9920   43.5820 N   0  0  0  0  0  0  0  0  0  0  0  0
   40.3240   25.7960   43.6790 C   0  0  0  0  0  0  0  0  0  0  0  0
   39.1750   25.5260   43.0060 N   0  0  0  0  0  0  0  0  0  0  0  0
   37.4110   25.2940   40.3850 C   0  0  0  0  0  0  0  0  0  0  0  0
   38.2970   25.6220   39.5090 O   0  0  0  0  0  0  0  0  0  0  0  0
   37.4850   25.6740   41.8020 N   0  0  0  0  0  0  0  0  0  0  0  0
   40.7130   28.9750   42.6870 H   0  0  0  0  0  0  0  0  0  0  0  0
   40.7510   25.0050   44.2820 H   0  0  0  0  0  0  0  0  0  0  0  0
   36.5980   24.7040   39.9640 H   0  0  0  0  0  0  0  0  0  0  0  0
   36.6790   25.3360   42.3310 H   0  0  0  0  0  0  0  0  0  0  0  0
   36.9050   30.8720   41.2870 O   0  0  0  0  0  0  0  0  0  0  0  0
   37.8610   31.3570   40.4890 C   0  0  2  0  0  0  0  0  0  0  0  0
   39.0040   32.0410   41.1240 C   0  0  0  0  0  0  0  0  0  0  0  0
   39.7080   32.9120   40.1330 C   0  0  0  0  0  0  0  0  0  0  0  0
   38.9400   33.9920   39.7260 O   0  0  0  0  0  0  0  0  0  0  0  0
   37.5880   33.7210   39.8260 C   0  0  0  0  0  0  0  0  0  0  0  0
   37.3000   32.3050   39.4250 C   0  0  1  0  0  0  0  0  0  0  0  0
   38.2560   30.5130   39.8470 H   0  0  0  0  0  0  0  0  0  0  0  0
   39.7590   31.3340   41.5700 H   0  0  0  0  0  0  0  0  0  0  0  0
   38.7220   32.6980   41.9750 H   0  0  0  0  0  0  0  0  0  0  0  0
   40.2580   32.3930   39.3420 H   0  0  0  0  0  0  0  0  0  0  0  0
   40.5350   33.4020   40.7400 H   0  0  0  0  0  0  0  0  0  0  0  0
   37.2650   33.8490   40.8690 H   0  0  0  0  0  0  0  0  0  0  0  0
   37.0420   34.4320   39.1790 H   0  0  0  0  0  0  0  0  0  0  0  0
   36.1880   32.2180   39.5500 H   0  0  0  0  0  0  0  0  0  0  0  0
   37.5790   31.9380   38.0240 C   0  0  0  0  0  2  0  0  0  0  0  0
   37.5000   30.4050   37.9140 C   0  0  0  0  0  2  0  0  0  0  0  0
   37.9140   30.0630   36.9480 H   0  0  0  0  0  0  0  0  0  0  0  0
  2  1  2  6  0  0  0
  2  3  1  0  0  0  0
  3  4  1  0  0  0  0
  5  2  1  0  0  0  0
  5  7  1  0  0  0  0
  6 11  1  0  0  0  0
  7  6  2  0  0  0  0
  7  8  1  0  0  0  0
  8  9  2  0  0  0  0
  9 10  1  0  0  0  0
 10 16  1  0  0  0  0
 11 10  2  0  0  0  0
 12 14  1  0  0  0  0
 13 12  2  0  0  0  0
 14  6  1  0  0  0  0
 14 18  1  0  0  0  0
 15  8  1  0  0  0  0
 17 12  1  0  0  0  0
 19  2  1  0  0  0  0
 20 26  1  6  0  0  0
 20 21  1  0  0  0  0
 20 19  1  0  0  0  0
 21 27  1  0  0  0  0
 21 28  1  0  0  0  0
 22 30  1  0  0  0  0
 22 21  1  0  0  0  0
 23 24  1  0  0  0  0
 23 22  1  0  0  0  0
 24 31  1  0  0  0  0
 25 33  1  1  0  0  0
 25 24  1  0  0  0  0
 25 20  1  0  0  0  0
 29 22  1  0  0  0  0
 32 24  1  0  0  0  0
 34 25  1  0  0  0  0
 35 34  1  0  0  0  0
 36 35  1  0  0  0  0
M  END
>  <minimizedAffinity>
-5.27819252

$$$$

 OpenBabel03252507143D

 36 37  0  0  1  0  0  0  0  0999 V2000
   39.2600   30.1940   42.9030 O   0  0  0  0  0  0  0  0  0  0  0  0
   38.0590   29.5180   42.3620 P   0  0  1  0  0  0  0  0  0  0  0  0
   37.0200   29.2140   43.6790 O   0  0  0  0  0  0  0  0  0  0  0  0
   37.5520   28.6450   44.2940 H   0  0  0  0  0  0  0  0  0  0  0  0
   37.2130   30.5720   41.2940 O   0  0  0  0  0  0  0  0  0  0  0  0
   36.8570   30.4300   38.9670 C   0  0  0  0  0  0  0  0  0  0  0  0
   36.4670   30.0860   40.2400 C   0  0  0  0  0  0  0  0  0  0  0  0
   35.3280   29.2560   40.4050 C   0  0  0  0  0  0  0  0  0  0  0  0
   34.6920   28.8510   39.2810 N   0  0  0  0  0  0  0  0  0  0  0  0
   35.0950   29.2020   38.0730 C   0  0  0  0  0  0  0  0  0  0  0  0
   36.1880   29.9970   37.9280 N   0  0  0  0  0  0  0  0  0  0  0  0
   39.2470   30.7150   38.3300 C   0  0  0  0  0  0  0  0  0  0  0  0
   39.6290   29.6520   38.9500 O   0  0  0  0  0  0  0  0  0  0  0  0
   37.8560   31.1850   38.2980 N   0  0  0  0  0  0  0  0  0  0  0  0
   35.0810   29.0280   41.4210 H   0  0  0  0  0  0  0  0  0  0  0  0
   34.5870   28.8780   37.1740 H   0  0  0  0  0  0  0  0  0  0  0  0
   40.0660   31.2310   37.8300 H   0  0  0  0  0  0  0  0  0  0  0  0
   37.7570   32.0540   37.7710 H   0  0  0  0  0  0  0  0  0  0  0  0
   38.3850   28.0800   41.6240 O   0  0  0  0  0  0  0  0  0  0  0  0
   38.4580   26.9660   42.3580 C   0  0  2  0  0  0  0  0  0  0  0  0
   39.7260   26.6880   43.0600 C   0  0  0  0  0  0  0  0  0  0  0  0
   39.8170   25.2400   43.4220 C   0  0  0  0  0  0  0  0  0  0  0  0
   39.9360   24.4150   42.3150 O   0  0  0  0  0  0  0  0  0  0  0  0
   39.3680   24.9870   41.1920 C   0  0  0  0  0  0  0  0  0  0  0  0
   38.1060   25.7150   41.5470 C   0  0  1  0  0  0  0  0  0  0  0  0
   37.6200   26.9800   43.1180 H   0  0  0  0  0  0  0  0  0  0  0  0
   39.8620   27.2950   43.9990 H   0  0  0  0  0  0  0  0  0  0  0  0
   40.6340   26.9190   42.4620 H   0  0  0  0  0  0  0  0  0  0  0  0
   39.1290   24.8960   44.2020 H   0  0  0  0  0  0  0  0  0  0  0  0
   40.8350   25.1470   43.9200 H   0  0  0  0  0  0  0  0  0  0  0  0
   40.0680   25.7160   40.7580 H   0  0  0  0  0  0  0  0  0  0  0  0
   39.1670   24.1860   40.4570 H   0  0  0  0  0  0  0  0  0  0  0  0
   37.7540   26.1250   40.5640 H   0  0  0  0  0  0  0  0  0  0  0  0
   36.9910   24.9030   42.0700 C   0  0  0  0  0  2  0  0  0  0  0  0
   36.5060   23.9840   40.9340 C   0  0  0  0  0  2  0  0  0  0  0  0
   35.5400   23.5170   41.1990 H   0  0  0  0  0  0  0  0  0  0  0  0
  2  1  2  1  0  0  0
  2  3  1  0  0  0  0
  3  4  1  0  0  0  0
  5  2  1  0  0  0  0
  6  7  1  0  0  0  0
  7  8  2  0  0  0  0
  7  5  1  0  0  0  0
  8 15  1  0  0  0  0
  9  8  1  0  0  0  0
 10  9  2  0  0  0  0
 11 10  1  0  0  0  0
 11  6  2  0  0  0  0
 12 13  2  0  0  0  0
 14 12  1  0  0  0  0
 14  6  1  0  0  0  0
 16 10  1  0  0  0  0
 17 12  1  0  0  0  0
 18 14  1  0  0  0  0
 19 20  1  0  0  0  0
 19  2  1  0  0  0  0
 20 21  1  0  0  0  0
 20 26  1  1  0  0  0
 21 22  1  0  0  0  0
 21 27  1  0  0  0  0
 22 30  1  0  0  0  0
 22 29  1  0  0  0  0
 23 22  1  0  0  0  0
 24 25  1  0  0  0  0
 24 23  1  0  0  0  0
 25 33  1  6  0  0  0
 25 34  1  0  0  0  0
 25 20  1  0  0  0  0
 28 21  1  0  0  0  0
 31 24  1  0  0  0  0
 32 24  1  0  0  0  0
 35 36  1  0  0  0  0
 35 34  1  0  0  0  0
M  END
>  <minimizedAffinity>
-5.24491596

$$$$

 OpenBabel03252507143D

 36 37  0  0  1  0  0  0  0  0999 V2000
   39.1350   28.3020   43.2290 O   0  0  0  0  0  0  0  0  0  0  0  0
   37.9930   28.4610   42.3010 P   0  0  1  0  0  0  0  0  0  0  0  0
   36.9020   29.5480   43.0310 O   0  0  0  0  0  0  0  0  0  0  0  0
   36.6560   29.1190   43.8920 H   0  0  0  0  0  0  0  0  0  0  0  0
   38.5160   29.1930   40.8330 O   0  0  0  0  0  0  0  0  0  0  0  0
   37.2480   30.7510   39.5970 C   0  0  0  0  0  0  0  0  0  0  0  0
   38.2220   30.5090   40.5360 C   0  0  0  0  0  0  0  0  0  0  0  0
   38.8710   31.6120   41.1480 C   0  0  0  0  0  0  0  0  0  0  0  0
   38.4810   32.8480   40.7610 N   0  0  0  0  0  0  0  0  0  0  0  0
   37.5410   33.0440   39.8550 C   0  0  0  0  0  0  0  0  0  0  0  0
   36.9270   31.9790   39.2750 N   0  0  0  0  0  0  0  0  0  0  0  0
   35.2440   29.2960   39.3390 C   0  0  0  0  0  0  0  0  0  0  0  0
   35.0340   29.2140   40.6070 O   0  0  0  0  0  0  0  0  0  0  0  0
   36.3550   30.0510   38.7440 N   0  0  0  0  0  0  0  0  0  0  0  0
   39.6180   31.3510   41.8690 H   0  0  0  0  0  0  0  0  0  0  0  0
   37.2290   34.0340   39.5450 H   0  0  0  0  0  0  0  0  0  0  0  0
   34.5110   28.7450   38.7510 H   0  0  0  0  0  0  0  0  0  0  0  0
   36.3640   29.9800   37.7250 H   0  0  0  0  0  0  0  0  0  0  0  0
   37.1880   27.0540   41.9950 O   0  0  0  0  0  0  0  0  0  0  0  0
   37.7120   26.1690   41.1420 C   0  0  2  0  0  0  0  0  0  0  0  0
   37.1570   26.1220   39.7750 C   0  0  0  0  0  0  0  0  0  0  0  0
   37.4900   24.8200   39.1200 C   0  0  0  0  0  0  0  0  0  0  0  0
   36.8480   23.7420   39.7090 O   0  0  0  0  0  0  0  0  0  0  0  0
   36.5590   23.9870   41.0380 C   0  0  0  0  0  0  0  0  0  0  0  0
   37.6770   24.7420   41.6940 C   0  0  1  0  0  0  0  0  0  0  0  0
   38.8260   26.3520   41.0720 H   0  0  0  0  0  0  0  0  0  0  0  0
   37.5250   26.9540   39.1110 H   0  0  0  0  0  0  0  0  0  0  0  0
   36.0500   26.2200   39.7330 H   0  0  0  0  0  0  0  0  0  0  0  0
   38.5440   24.6660   38.8650 H   0  0  0  0  0  0  0  0  0  0  0  0
   36.9880   24.8900   38.1020 H   0  0  0  0  0  0  0  0  0  0  0  0
   35.6490   24.6020   41.1080 H   0  0  0  0  0  0  0  0  0  0  0  0
   36.3890   23.0170   41.5420 H   0  0  0  0  0  0  0  0  0  0  0  0
   37.3200   24.8730   42.7500 H   0  0  0  0  0  0  0  0  0  0  0  0
   38.9790   24.0560   41.7900 C   0  0  0  0  0  2  0  0  0  0  0  0
   39.6700   24.5360   43.0780 C   0  0  0  0  0  2  0  0  0  0  0  0
   40.7320   24.2270   43.0870 H   0  0  0  0  0  0  0  0  0  0  0  0
  2  3  1  0  0  0  0
  2  1  2  1  0  0  0
  3  4  1  0  0  0  0
  5  2  1  0  0  0  0
  6  7  1  0  0  0  0
  7  5  1  0  0  0  0
  7  8  2  0  0  0  0
  8 15  1  0  0  0  0
  9  8  1  0  0  0  0
 10  9  2  0  0  0  0
 11  6  2  0  0  0  0
 11 10  1  0  0  0  0
 12 13  2  0  0  0  0
 14 12  1  0  0  0  0
 14  6  1  0  0  0  0
 16 10  1  0  0  0  0
 17 12  1  0  0  0  0
 18 14  1  0  0  0  0
 19  2  1  0  0  0  0
 20 26  1  6  0  0  0
 20 25  1  0  0  0  0
 20 19  1  0  0  0  0
 21 20  1  0  0  0  0
 22 23  1  0  0  0  0
 22 21  1  0  0  0  0
 23 24  1  0  0  0  0
 24 31  1  0  0  0  0
 24 32  1  0  0  0  0
 24 25  1  0  0  0  0
 25 34  1  0  0  0  0
 25 33  1  1  0  0  0
 27 21  1  0  0  0  0
 28 21  1  0  0  0  0
 29 22  1  0  0  0  0
 30 22  1  0  0  0  0
 34 35  1  0  0  0  0
 35 36  1  0  0  0  0
M  END
>  <minimizedAffinity>
-5.15974426

$$$$

 OpenBabel03252507143D

 36 37  0  0  1  0  0  0  0  0999 V2000
   38.6100   30.0080   42.8610 O   0  0  0  0  0  0  0  0  0  0  0  0
   37.5600   29.1040   42.3390 P   0  0  1  0  0  0  0  0  0  0  0  0
   36.6640   28.5510   43.6790 O   0  0  0  0  0  0  0  0  0  0  0  0
   37.3290   28.0930   44.2570 H   0  0  0  0  0  0  0  0  0  0  0  0
   36.4660   29.9790   41.3370 O   0  0  0  0  0  0  0  0  0  0  0  0
   37.1020   29.8930   39.0680 C   0  0  0  0  0  0  0  0  0  0  0  0
   36.8940   30.6400   40.2030 C   0  0  0  0  0  0  0  0  0  0  0  0
   37.1280   32.0380   40.1540 C   0  0  0  0  0  0  0  0  0  0  0  0
   37.5450   32.5520   38.9750 N   0  0  0  0  0  0  0  0  0  0  0  0
   37.7350   31.8040   37.9020 C   0  0  0  0  0  0  0  0  0  0  0  0
   37.5070   30.4660   37.9620 N   0  0  0  0  0  0  0  0  0  0  0  0
   35.7020   27.9160   38.4900 C   0  0  0  0  0  0  0  0  0  0  0  0
   34.5950   28.5050   38.7860 O   0  0  0  0  0  0  0  0  0  0  0  0
   37.0220   28.5500   38.6140 N   0  0  0  0  0  0  0  0  0  0  0  0
   36.9470   32.5560   41.0730 H   0  0  0  0  0  0  0  0  0  0  0  0
   38.0690   32.2160   36.9580 H   0  0  0  0  0  0  0  0  0  0  0  0
   35.5590   26.8960   38.1360 H   0  0  0  0  0  0  0  0  0  0  0  0
   37.7770   27.9170   38.3480 H   0  0  0  0  0  0  0  0  0  0  0  0
   38.1550   27.7890   41.5410 O   0  0  0  0  0  0  0  0  0  0  0  0
   38.5250   26.7100   42.2370 C   0  0  2  0  0  0  0  0  0  0  0  0
   39.6230   26.8650   43.2120 C   0  0  0  0  0  0  0  0  0  0  0  0
   40.2210   25.5340   43.5410 C   0  0  0  0  0  0  0  0  0  0  0  0
   40.8910   24.9660   42.4690 O   0  0  0  0  0  0  0  0  0  0  0  0
   40.3820   25.4050   41.2610 C   0  0  0  0  0  0  0  0  0  0  0  0
   38.8890   25.5320   41.3290 C   0  0  1  0  0  0  0  0  0  0  0  0
   37.6180   26.3010   42.7770 H   0  0  0  0  0  0  0  0  0  0  0  0
   39.3030   27.3550   44.1750 H   0  0  0  0  0  0  0  0  0  0  0  0
   40.4580   27.5040   42.8540 H   0  0  0  0  0  0  0  0  0  0  0  0
   39.5910   24.8550   44.1240 H   0  0  0  0  0  0  0  0  0  0  0  0
   41.0620   25.7850   44.2630 H   0  0  0  0  0  0  0  0  0  0  0  0
   40.7950   26.3980   41.0280 H   0  0  0  0  0  0  0  0  0  0  0  0
   40.6810   24.6870   40.4760 H   0  0  0  0  0  0  0  0  0  0  0  0
   38.6090   25.8910   40.3030 H   0  0  0  0  0  0  0  0  0  0  0  0
   38.1230   24.2910   41.5460 C   0  0  0  0  0  2  0  0  0  0  0  0
   36.7520   24.6790   42.1280 C   0  0  0  0  0  2  0  0  0  0  0  0
   36.2270   23.7860   42.5130 H   0  0  0  0  0  0  0  0  0  0  0  0
  2  1  2  1  0  0  0
  2  3  1  0  0  0  0
  3  4  1  0  0  0  0
  5  2  1  0  0  0  0
  6  7  1  0  0  0  0
  7  5  1  0  0  0  0
  8  7  2  0  0  0  0
  8 15  1  0  0  0  0
  9  8  1  0  0  0  0
 10 11  1  0  0  0  0
 10  9  2  0  0  0  0
 11  6  2  0  0  0  0
 12 14  1  0  0  0  0
 12 13  2  0  0  0  0
 14  6  1  0  0  0  0
 16 10  1  0  0  0  0
 17 12  1  0  0  0  0
 18 14  1  0  0  0  0
 19 20  1  0  0  0  0
 19  2  1  0  0  0  0
 20 26  1  1  0  0  0
 20 21  1  0  0  0  0
 21 22  1  0  0  0  0
 21 27  1  0  0  0  0
 22 29  1  0  0  0  0
 22 30  1  0  0  0  0
 23 22  1  0  0  0  0
 24 25  1  0  0  0  0
 24 23  1  0  0  0  0
 25 33  1  6  0  0  0
 25 34  1  0  0  0  0
 25 20  1  0  0  0  0
 28 21  1  0  0  0  0
 31 24  1  0  0  0  0
 32 24  1  0  0  0  0
 34 35  1  0  0  0  0
 35 36  1  0  0  0  0
M  END
>  <minimizedAffinity>
-5.04652643

$$$$

 OpenBabel03252507143D

 36 37  0  0  1  0  0  0  0  0999 V2000
   38.4990   29.6140   43.4020 O   0  0  0  0  0  0  0  0  0  0  0  0
   38.1870   29.3760   41.9750 P   0  0  1  0  0  0  0  0  0  0  0  0
   36.4980   29.5280   41.8000 O   0  0  0  0  0  0  0  0  0  0  0  0
   36.1180   28.8410   42.4090 H   0  0  0  0  0  0  0  0  0  0  0  0
   38.8990   30.6020   40.9970 O   0  0  0  0  0  0  0  0  0  0  0  0
   37.8190   32.0650   39.4960 C   0  0  0  0  0  0  0  0  0  0  0  0
   38.4460   30.8620   39.7200 C   0  0  0  0  0  0  0  0  0  0  0  0
   38.5960   29.9570   38.6380 C   0  0  0  0  0  0  0  0  0  0  0  0
   38.1050   30.3440   37.4380 N   0  0  0  0  0  0  0  0  0  0  0  0
   37.5070   31.5080   37.2580 C   0  0  0  0  0  0  0  0  0  0  0  0
   37.3700   32.3670   38.3030 N   0  0  0  0  0  0  0  0  0  0  0  0
   38.4830   34.1610   40.6650 C   0  0  0  0  0  0  0  0  0  0  0  0
   39.7440   33.9520   40.5060 O   0  0  0  0  0  0  0  0  0  0  0  0
   37.4390   33.2440   40.1880 N   0  0  0  0  0  0  0  0  0  0  0  0
   39.0930   29.0420   38.8830 H   0  0  0  0  0  0  0  0  0  0  0  0
   37.1140   31.8180   36.2980 H   0  0  0  0  0  0  0  0  0  0  0  0
   38.2700   35.0900   41.1910 H   0  0  0  0  0  0  0  0  0  0  0  0
   36.5020   33.5750   40.4260 H   0  0  0  0  0  0  0  0  0  0  0  0
   38.6250   27.8790   41.4410 O   0  0  0  0  0  0  0  0  0  0  0  0
   37.7010   26.9170   41.3490 C   0  0  2  0  0  0  0  0  0  0  0  0
   37.4640   26.0760   42.5380 C   0  0  0  0  0  0  0  0  0  0  0  0
   36.7900   24.7980   42.1490 C   0  0  0  0  0  0  0  0  0  0  0  0
   37.6030   23.9710   41.3900 O   0  0  0  0  0  0  0  0  0  0  0  0
   38.5480   24.6930   40.6870 C   0  0  0  0  0  0  0  0  0  0  0  0
   37.9630   25.9740   40.1710 C   0  0  1  0  0  0  0  0  0  0  0  0
   36.7200   27.3890   41.0400 H   0  0  0  0  0  0  0  0  0  0  0  0
   36.8370   26.5790   43.3270 H   0  0  0  0  0  0  0  0  0  0  0  0
   38.3910   25.7880   43.0800 H   0  0  0  0  0  0  0  0  0  0  0  0
   35.7520   24.8870   41.8120 H   0  0  0  0  0  0  0  0  0  0  0  0
   36.6940   24.2320   43.1290 H   0  0  0  0  0  0  0  0  0  0  0  0
   39.3850   24.9490   41.3540 H   0  0  0  0  0  0  0  0  0  0  0  0
   38.9180   24.0660   39.8550 H   0  0  0  0  0  0  0  0  0  0  0  0
   38.8200   26.4550   39.6300 H   0  0  0  0  0  0  0  0  0  0  0  0
   36.8740   25.8600   39.1830 C   0  0  0  0  0  2  0  0  0  0  0  0
   36.1740   27.2270   39.0940 C   0  0  0  0  0  2  0  0  0  0  0  0
   35.2210   27.1400   38.5400 H   0  0  0  0  0  0  0  0  0  0  0  0
  2  1  2  1  0  0  0
  3  2  1  0  0  0  0
  3  4  1  0  0  0  0
  5  2  1  0  0  0  0
  6  7  1  0  0  0  0
  6 14  1  0  0  0  0
  7  5  1  0  0  0  0
  8 15  1  0  0  0  0
  8  7  2  0  0  0  0
  9  8  1  0  0  0  0
 10  9  2  0  0  0  0
 10 11  1  0  0  0  0
 11  6  2  0  0  0  0
 12 17  1  0  0  0  0
 13 12  2  0  0  0  0
 14 18  1  0  0  0  0
 14 12  1  0  0  0  0
 16 10  1  0  0  0  0
 19  2  1  0  0  0  0
 20 26  1  6  0  0  0
 20 19  1  0  0  0  0
 20 21  1  0  0  0  0
 21 28  1  0  0  0  0
 21 27  1  0  0  0  0
 22 21  1  0  0  0  0
 22 30  1  0  0  0  0
 23 22  1  0  0  0  0
 24 31  1  0  0  0  0
 24 23  1  0  0  0  0
 25 33  1  6  0  0  0
 25 24  1  0  0  0  0
 25 20  1  0  0  0  0
 29 22  1  0  0  0  0
 32 24  1  0  0  0  0
 34 25  1  0  0  0  0
 35 34  1  0  0  0  0
 36 35  1  0  0  0  0
M  END
>  <minimizedAffinity>
-5.02125597

$$$$

 OpenBabel03252507143D

 36 37  0  0  1  0  0  0  0  0999 V2000
   36.1950   29.4730   41.1130 O   0  0  0  0  0  0  0  0  0  0  0  0
   37.4760   29.4890   41.8550 P   0  0  1  0  0  0  0  0  0  0  0  0
   37.1190   29.1150   43.4790 O   0  0  0  0  0  0  0  0  0  0  0  0
   36.4850   29.8220   43.7680 H   0  0  0  0  0  0  0  0  0  0  0  0
   38.5150   28.2440   41.2750 O   0  0  0  0  0  0  0  0  0  0  0  0
   37.2820   26.3030   40.7490 C   0  0  0  0  0  0  0  0  0  0  0  0
   38.2500   26.9110   41.5150 C   0  0  0  0  0  0  0  0  0  0  0  0
   38.9210   26.1450   42.5020 C   0  0  0  0  0  0  0  0  0  0  0  0
   38.5590   24.8470   42.6270 N   0  0  0  0  0  0  0  0  0  0  0  0
   37.6240   24.2960   41.8740 C   0  0  0  0  0  0  0  0  0  0  0  0
   36.9890   25.0400   40.9310 N   0  0  0  0  0  0  0  0  0  0  0  0
   36.9030   26.8860   38.3590 C   0  0  0  0  0  0  0  0  0  0  0  0
   38.1590   26.9020   38.0730 O   0  0  0  0  0  0  0  0  0  0  0  0
   36.3750   26.6000   39.6990 N   0  0  0  0  0  0  0  0  0  0  0  0
   39.6600   26.6800   43.0600 H   0  0  0  0  0  0  0  0  0  0  0  0
   37.3350   23.2570   41.9740 H   0  0  0  0  0  0  0  0  0  0  0  0
   36.2710   27.1090   37.5000 H   0  0  0  0  0  0  0  0  0  0  0  0
   35.3550   26.6530   39.7280 H   0  0  0  0  0  0  0  0  0  0  0  0
   38.2430   30.9490   41.8220 O   0  0  0  0  0  0  0  0  0  0  0  0
   38.6380   31.4580   40.6510 C   0  0  2  0  0  0  0  0  0  0  0  0
   40.0870   31.6360   40.4340 C   0  0  0  0  0  0  0  0  0  0  0  0
   40.3330   32.6180   39.3330 C   0  0  0  0  0  0  0  0  0  0  0  0
   39.9490   33.9070   39.6650 O   0  0  0  0  0  0  0  0  0  0  0  0
   38.9390   33.9090   40.6090 C   0  0  0  0  0  0  0  0  0  0  0  0
   37.9650   32.7990   40.3470 C   0  0  1  0  0  0  0  0  0  0  0  0
   38.2250   30.8100   39.8190 H   0  0  0  0  0  0  0  0  0  0  0  0
   40.6240   30.6800   40.1800 H   0  0  0  0  0  0  0  0  0  0  0  0
   40.6330   32.0200   41.3230 H   0  0  0  0  0  0  0  0  0  0  0  0
   40.0650   32.2850   38.3240 H   0  0  0  0  0  0  0  0  0  0  0  0
   41.4660   32.6940   39.2840 H   0  0  0  0  0  0  0  0  0  0  0  0
   39.3710   33.7510   41.6080 H   0  0  0  0  0  0  0  0  0  0  0  0
   38.4340   34.8920   40.5760 H   0  0  0  0  0  0  0  0  0  0  0  0
   37.2110   32.9120   41.1700 H   0  0  0  0  0  0  0  0  0  0  0  0
   37.2010   32.8650   39.0870 C   0  0  0  0  0  2  0  0  0  0  0  0
   37.0420   31.4300   38.5570 C   0  0  0  0  0  2  0  0  0  0  0  0
   36.6750   31.4390   37.5150 H   0  0  0  0  0  0  0  0  0  0  0  0
  2  1  2  6  0  0  0
  2  3  1  0  0  0  0
  3  4  1  0  0  0  0
  5  7  1  0  0  0  0
  5  2  1  0  0  0  0
  6 11  2  0  0  0  0
  6  7  1  0  0  0  0
  7  8  2  0  0  0  0
  8  9  1  0  0  0  0
  8 15  1  0  0  0  0
 10 16  1  0  0  0  0
 10  9  2  0  0  0  0
 11 10  1  0  0  0  0
 12 14  1  0  0  0  0
 13 12  2  0  0  0  0
 14 18  1  0  0  0  0
 14  6  1  0  0  0  0
 17 12  1  0  0  0  0
 19  2  1  0  0  0  0
 20 26  1  6  0  0  0
 20 19  1  0  0  0  0
 21 20  1  0  0  0  0
 21 28  1  0  0  0  0
 22 23  1  0  0  0  0
 22 21  1  0  0  0  0
 23 24  1  0  0  0  0
 24 31  1  0  0  0  0
 25 24  1  0  0  0  0
 25 20  1  0  0  0  0
 25 33  1  1  0  0  0
 27 21  1  0  0  0  0
 29 22  1  0  0  0  0
 30 22  1  0  0  0  0
 32 24  1  0  0  0  0
 34 25  1  0  0  0  0
 35 34  1  0  0  0  0
 36 35  1  0  0  0  0
M  END
>  <minimizedAffinity>
-4.95319414

$$$$
