
 OpenBabel03242513073D

 35 38  0  0  0  0  0  0  0  0999 V2000
   45.9600   33.1770   41.6480 C   0  0  0  0  0  0  0  0  0  0  0  0
   47.1160   33.8750   41.3210 C   0  0  0  0  0  0  0  0  0  0  0  0
   48.0990   33.9590   42.2950 C   0  0  0  0  0  0  0  0  0  0  0  0
   47.8590   33.3540   43.4920 N   0  0  0  0  0  0  0  0  0  0  0  0
   46.7530   32.6890   43.7940 C   0  0  0  0  0  0  0  0  0  0  0  0
   45.7830   32.5950   42.8610 N   0  0  0  0  0  0  0  0  0  0  0  0
   45.1850   33.1040   40.8960 H   0  0  0  0  0  0  0  0  0  0  0  0
   46.9230   30.7780   45.3060 C   0  0  0  0  0  0  0  0  0  0  0  0
   46.5980   32.0830   45.0960 C   0  0  0  0  0  0  0  0  0  0  0  0
   46.0960   32.9100   46.1210 C   0  0  0  0  0  0  0  0  0  0  0  0
   45.9180   32.3980   47.4020 C   0  0  0  0  0  0  0  0  0  0  0  0
   45.4760   32.8760   48.5920 N   0  0  0  0  0  0  0  0  0  0  0  0
   45.5450   31.8390   49.4990 C   0  0  0  0  0  0  0  0  0  0  0  0
   46.0210   30.7680   48.8500 N   0  0  0  0  0  0  0  0  0  0  0  0
   46.2590   31.0790   47.5660 C   0  0  0  0  0  0  0  0  0  0  0  0
   46.7520   30.2450   46.5820 C   0  0  0  0  0  0  0  0  0  0  0  0
   47.3060   30.1280   44.5460 H   0  0  0  0  0  0  0  0  0  0  0  0
   45.8360   33.9530   45.9590 H   0  0  0  0  0  0  0  0  0  0  0  0
   45.1750   33.8820   48.6280 H   0  0  0  0  0  0  0  0  0  0  0  0
   45.2050   32.1450   50.4820 H   0  0  0  0  0  0  0  0  0  0  0  0
   47.0050   29.2080   46.7730 H   0  0  0  0  0  0  0  0  0  0  0  0
   49.3530   34.6910   42.0050 C   0  0  0  0  0  0  0  0  0  0  0  0
   49.0810   35.8290   41.2110 F   0  0  0  0  0  0  0  0  0  0  0  0
   49.9080   35.1690   43.1710 F   0  0  0  0  0  0  0  0  0  0  0  0
   50.1950   33.8580   41.3460 F   0  0  0  0  0  0  0  0  0  0  0  0
   47.2360   34.4310   40.1030 O   0  0  0  0  0  0  0  0  0  0  0  0
   47.3790   33.7080   38.9560 C   0  0  0  0  0  0  0  0  0  0  0  0
   48.3770   34.3850   38.2380 C   0  0  0  0  0  0  0  0  0  0  0  0
   48.5250   33.3660   36.6990 S   0  0  0  0  0  0  0  0  0  0  0  0
   47.2010   32.1870   37.2950 C   0  0  0  0  0  0  0  0  0  0  0  0
   46.9690   32.6600   38.2690 N   0  0  0  0  0  0  0  0  0  0  0  0
   49.0780   35.2370   38.2140 H   0  0  0  0  0  0  0  0  0  0  0  0
   46.7900   31.0270   36.4620 C   0  0  0  0  0  0  0  0  0  0  0  0
   46.9710   31.3930   35.0260 C   0  0  0  0  0  0  0  0  0  0  0  0
   47.9390   31.8700   34.8170 H   0  0  0  0  0  0  0  0  0  0  0  0
  1  6  1  0  0  0  0
  2  1  2  0  0  0  0
  2  3  1  0  0  0  0
  3  4  2  0  0  0  0
  4  5  1  0  0  0  0
  5  9  1  0  0  0  0
  6  5  2  0  0  0  0
  7  1  1  0  0  0  0
  8 16  1  0  0  0  0
  9  8  2  0  0  0  0
  9 10  1  0  0  0  0
 10 11  2  0  0  0  0
 11 15  1  0  0  0  0
 11 12  1  0  0  0  0
 12 19  1  0  0  0  0
 12 13  1  0  0  0  0
 13 20  1  0  0  0  0
 14 13  2  0  0  0  0
 15 14  1  0  0  0  0
 16 21  1  0  0  0  0
 16 15  2  0  0  0  0
 17  8  1  0  0  0  0
 18 10  1  0  0  0  0
 22  3  1  0  0  0  0
 22 24  1  0  0  0  0
 23 22  1  0  0  0  0
 25 22  1  0  0  0  0
 26  2  1  0  0  0  0
 27 26  1  0  0  0  0
 28 27  2  0  0  0  0
 29 30  1  0  0  0  0
 29 28  1  0  0  0  0
 30 31  2  0  0  0  0
 31 27  1  0  0  0  0
 32 28  1  0  0  0  0
 33 30  1  0  0  0  0
 34 33  1  0  0  0  0
 35 34  1  0  0  0  0
M  END
>  <minimizedAffinity>
-5.94508076

>  <minimizedRMSD>
0.0179901216

$$$$
