
 OpenBabel03242515383D

 30 32  0  0  0  0  0  0  0  0999 V2000
   42.3500   35.5350   41.4460 S   0  0  0  0  0  0  0  0  0  0  0  0
   40.0030   34.9220   40.2900 C   0  0  0  0  0  0  0  0  0  0  0  0
   40.9930   34.4140   41.1110 C   0  0  0  0  0  0  0  0  0  0  0  0
   40.9020   33.1460   41.6080 C   0  0  0  0  0  0  0  0  0  0  0  0
   39.8370   32.3170   41.3250 C   0  0  0  0  0  0  0  0  0  0  0  0
   38.8310   32.8250   40.4920 C   0  0  0  0  0  0  0  0  0  0  0  0
   38.8960   34.1140   39.9710 C   0  0  0  0  0  0  0  0  0  0  0  0
   37.8590   31.8120   40.3450 O   0  0  0  0  0  0  0  0  0  0  0  0
   38.1270   30.8730   41.3510 C   0  0  0  0  0  0  0  0  0  0  0  0
   39.4890   31.0210   41.6780 O   0  0  0  0  0  0  0  0  0  0  0  0
   40.0040   35.8970   39.8670 H   0  0  0  0  0  0  0  0  0  0  0  0
   41.7070   32.7990   42.2480 H   0  0  0  0  0  0  0  0  0  0  0  0
   38.1150   34.5040   39.3270 H   0  0  0  0  0  0  0  0  0  0  0  0
   37.4820   31.0080   42.2280 H   0  0  0  0  0  0  0  0  0  0  0  0
   37.9390   29.8560   40.9540 H   0  0  0  0  0  0  0  0  0  0  0  0
   43.9230   34.7730   40.9710 C   0  0  0  0  0  0  0  0  0  0  0  0
   43.8620   33.8800   39.9090 C   0  0  0  0  0  0  0  0  0  0  0  0
   45.0720   33.2900   39.5410 C   0  0  0  0  0  0  0  0  0  0  0  0
   46.2070   33.6040   40.2120 N   0  0  0  0  0  0  0  0  0  0  0  0
   46.2190   34.4690   41.2270 C   0  0  0  0  0  0  0  0  0  0  0  0
   45.0720   35.0470   41.5990 N   0  0  0  0  0  0  0  0  0  0  0  0
   42.9350   33.6570   39.4020 H   0  0  0  0  0  0  0  0  0  0  0  0
   47.3330   34.8240   41.9400 O   0  0  0  0  0  0  0  0  0  0  0  0
   48.5260   35.0940   41.2570 C   0  0  0  0  0  0  0  0  0  0  0  0
   49.4810   34.1290   41.4770 F   0  0  0  0  0  0  0  0  0  0  0  0
   48.1700   35.2210   39.9170 F   0  0  0  0  0  0  0  0  0  0  0  0
   49.0170   36.2990   41.7550 F   0  0  0  0  0  0  0  0  0  0  0  0
   45.0240   32.3340   38.4090 C   0  0  0  0  0  0  0  0  0  0  0  0
   45.4390   32.9880   37.1200 C   0  0  0  0  0  0  0  0  0  0  0  0
   44.6040   33.6090   36.7450 H   0  0  0  0  0  0  0  0  0  0  0  0
  2  3  1  0  0  0  0
  3  1  1  0  0  0  0
  3  4  2  0  0  0  0
  4 12  1  0  0  0  0
  5  4  1  0  0  0  0
  5 10  1  0  0  0  0
  6  5  2  0  0  0  0
  7  2  2  0  0  0  0
  7  6  1  0  0  0  0
  8  6  1  0  0  0  0
  8  9  1  0  0  0  0
  9 10  1  0  0  0  0
  9 14  1  0  0  0  0
 11  2  1  0  0  0  0
 13  7  1  0  0  0  0
 15  9  1  0  0  0  0
 16  1  1  0  0  0  0
 16 21  1  0  0  0  0
 17 16  2  0  0  0  0
 18 17  1  0  0  0  0
 18 19  2  0  0  0  0
 19 20  1  0  0  0  0
 20 21  2  0  0  0  0
 20 23  1  0  0  0  0
 22 17  1  0  0  0  0
 24 25  1  0  0  0  0
 24 27  1  0  0  0  0
 24 23  1  0  0  0  0
 26 24  1  0  0  0  0
 28 18  1  0  0  0  0
 29 28  1  0  0  0  0
 30 29  1  0  0  0  0
M  END
>  <minimizedAffinity>
-5.64777708

>  <minimizedRMSD>
0.125826001

$$$$
