
     RDKit          3D

 38 39  0  0  0  0  0  0  0  0999 V2000
   46.1829   32.0826   45.4353 C   0  0  0  0  0  0  0  0  0  0  0  0
   45.7592   32.0256   49.1305 C   0  0  0  0  0  0  0  0  0  0  0  0
   46.0506   32.4935   47.8421 C   0  0  0  0  0  0  0  0  0  0  0  0
   45.8835   31.6117   46.7888 C   0  0  0  0  0  0  0  0  0  0  0  0
   45.4469   30.3426   47.0602 N   0  0  0  0  0  0  0  0  0  0  0  0
   45.1761   29.9283   48.3174 C   0  0  0  0  0  0  0  0  0  0  0  0
   45.3364   30.7762   49.3344 N   0  0  0  0  0  0  0  0  0  0  0  0
   46.5457   33.3996   45.4109 O   0  0  0  0  0  0  0  0  0  0  0  0
   44.6368   35.1736   45.2606 O   0  0  0  0  0  0  0  0  0  0  0  0
   45.4514   34.2400   44.4201 P   0  0  2  0  0  0  0  0  0  0  0  0
   44.5117   33.0668   43.6766 O   0  0  0  0  0  0  0  0  0  0  0  0
   46.3502   35.1218   43.3038 O   0  0  0  0  0  0  0  0  0  0  0  0
   47.1038   34.2569   42.5292 C   0  0  1  0  0  0  0  0  0  0  0  0
   46.9528   34.4697   41.0474 C   0  0  0  0  0  0  0  0  0  0  0  0
   48.1183   33.6678   40.5043 C   0  0  0  0  0  0  0  0  0  0  0  0
   49.1698   33.6736   41.5920 C   0  0  0  0  0  0  0  0  0  0  0  0
   48.5970   34.5237   42.7094 C   0  0  1  0  0  0  0  0  0  0  0  0
   45.3914   31.7475   44.7827 H   0  0  0  0  0  0  0  0  0  0  0  0
   47.1068   31.5119   45.1192 H   0  0  0  0  0  0  0  0  0  0  0  0
   45.8691   32.6655   49.9989 H   0  0  0  0  0  0  0  0  0  0  0  0
   46.3916   33.5254   47.7491 H   0  0  0  0  0  0  0  0  0  0  0  0
   44.8474   28.8940   48.2919 H   0  0  0  0  0  0  0  0  0  0  0  0
   44.4468   33.1922   42.6994 H   0  0  0  0  0  0  0  0  0  0  0  0
   46.9551   33.1923   42.7976 H   0  0  0  0  0  0  0  0  0  0  0  0
   47.0109   35.5299   40.7998 H   0  0  0  0  0  0  0  0  0  0  0  0
   45.9975   33.9958   40.6802 H   0  0  0  0  0  0  0  0  0  0  0  0
   48.5174   34.1259   39.5843 H   0  0  0  0  0  0  0  0  0  0  0  0
   47.8285   32.6286   40.2207 H   0  0  0  0  0  0  0  0  0  0  0  0
   49.3708   32.6355   41.9257 H   0  0  0  0  0  0  0  0  0  0  0  0
   50.1341   34.0970   41.1975 H   0  0  0  0  0  0  0  0  0  0  0  0
   48.9374   34.1536   43.6807 H   0  0  0  0  0  0  0  0  0  0  0  0
   48.9632   35.9722   42.5701 C   0  0  0  0  0  0  0  0  0  0  0  0
   50.1819   36.2185   43.4563 C   0  0  0  0  0  0  0  0  0  0  0  0
   49.9957   37.0267   44.2020 H   0  0  0  0  0  0  0  0  0  0  0  0
   48.1311   36.5607   43.0037 H   0  0  0  0  0  0  0  0  0  0  0  0
   49.1172   36.3051   41.5455 H   0  0  0  0  0  0  0  0  0  0  0  0
   51.0693   36.5436   42.8831 H   0  0  0  0  0  0  0  0  0  0  0  0
   50.4358   35.3265   44.0632 H   0  0  0  0  0  0  0  0  0  0  0  0
  1  4  1  0
  2  7  2  0
  3  2  1  0
  4  5  1  0
  4  3  2  0
  5  6  2  0
  6  7  1  0
  8  1  1  0
 10  9  2  0
 10  8  1  1
 11 10  1  0
 12 10  1  0
 13 17  1  0
 13 12  1  0
 14 13  1  0
 15 14  1  0
 15 16  1  0
 16 17  1  0
  1 18  1  0
  1 19  1  0
  2 20  1  0
  3 21  1  0
  6 22  1  0
 11 23  1  0
 13 24  1  6
 14 25  1  0
 14 26  1  0
 15 27  1  0
 15 28  1  0
 16 29  1  0
 16 30  1  0
 17 31  1  1
 32 33  1  0
 33 34  1  0
 32 35  1  0
 32 36  1  0
 33 37  1  0
 33 38  1  0
 17 32  1  0
M  ISO  8  18   8  19   8  20  14  21  14  22  14  23   3  24  13  25  13
M  ISO  7  26  13  27  13  28  13  29  13  30  13  31  13  34   8
M  END
>  <DihAtoms>  (1) 
12,16,31,32

>  <DihDeg>  (1) 
179.99992261975945

$$$$
