
 OpenBabel03242521473D

 41 43  0  0  1  0  0  0  0  0999 V2000
   38.6050   33.4000   39.9260 C   0  0  0  0  0  0  0  0  0  0  0  0
   39.8080   32.8520   39.4590 C   0  0  0  0  0  0  0  0  0  0  0  0
   40.9330   33.6840   39.3160 C   0  0  0  0  0  0  0  0  0  0  0  0
   40.7940   34.9570   39.6350 N   0  0  0  0  0  0  0  0  0  0  0  0
   39.6220   35.4740   40.0870 C   0  0  0  0  0  0  0  0  0  0  0  0
   38.5240   34.6990   40.2350 N   0  0  0  0  0  0  0  0  0  0  0  0
   39.7750   31.8020   39.2390 H   0  0  0  0  0  0  0  0  0  0  0  0
   39.5930   36.5400   40.3290 H   0  0  0  0  0  0  0  0  0  0  0  0
   42.3160   32.9920   37.3660 C   0  0  2  0  0  0  0  0  0  0  0  0
   42.1320   33.0300   38.8270 C   0  0  2  0  0  0  0  0  0  0  0  0
   42.2140   31.6320   39.1650 O   0  0  0  0  0  0  0  0  0  0  0  0
   43.4170   31.3020   38.5420 C   0  0  0  0  0  0  0  0  0  0  0  0
   43.6100   32.1430   37.3270 C   0  0  1  0  0  0  0  0  0  0  0  0
   41.5350   32.3360   36.8900 H   0  0  0  0  0  0  0  0  0  0  0  0
   43.0370   33.4410   39.3440 H   0  0  0  0  0  0  0  0  0  0  0  0
   43.3280   30.2360   38.2220 H   0  0  0  0  0  0  0  0  0  0  0  0
   44.3000   31.4150   39.2110 H   0  0  0  0  0  0  0  0  0  0  0  0
   44.4770   32.8150   37.3810 H   0  0  0  0  0  0  0  0  0  0  0  0
   42.4220   34.1890   36.7490 O   0  0  0  0  0  0  0  0  0  0  0  0
   42.0960   34.1670   35.8080 H   0  0  0  0  0  0  0  0  0  0  0  0
   43.6390   31.4370   36.1200 O   0  0  0  0  0  0  0  0  0  0  0  0
   42.7860   30.9460   35.9980 H   0  0  0  0  0  0  0  0  0  0  0  0
   37.4060   32.4900   40.0650 C   0  0  0  0  0  0  0  0  0  0  0  0
   36.6160   33.0160   40.6200 H   0  0  0  0  0  0  0  0  0  0  0  0
   37.1250   32.1640   39.0470 H   0  0  0  0  0  0  0  0  0  0  0  0
   37.0730   30.2700   41.3520 C   0  0  0  0  0  0  0  0  0  0  0  0
   35.8420   30.3340   41.1310 O   0  0  0  0  0  0  0  0  0  0  0  0
   37.8590   31.3220   40.7960 N   0  0  0  0  0  0  0  0  0  0  0  0
   38.8980   31.2720   40.9130 H   0  0  0  0  0  0  0  0  0  0  0  0
   37.7230   29.2110   42.1240 C   0  0  0  0  0  0  0  0  0  0  0  0
   36.9770   28.2520   42.7250 C   0  0  0  0  0  0  0  0  0  0  0  0
   37.6820   27.2850   43.4380 C   0  0  0  0  0  0  0  0  0  0  0  0
   39.0600   27.2470   43.5680 C   0  0  0  0  0  0  0  0  0  0  0  0
   39.7320   28.2640   42.9220 C   0  0  0  0  0  0  0  0  0  0  0  0
   39.0870   29.2050   42.2310 N   0  0  0  0  0  0  0  0  0  0  0  0
   35.9130   28.2430   42.6510 H   0  0  0  0  0  0  0  0  0  0  0  0
   37.0680   26.5100   43.9220 H   0  0  0  0  0  0  0  0  0  0  0  0
   39.5300   26.4590   44.1420 H   0  0  0  0  0  0  0  0  0  0  0  0
   41.2210   28.3000   43.0090 C   0  0  0  0  0  2  0  0  0  0  0  0
   41.7410   27.3460   44.0500 C   0  0  0  0  0  2  0  0  0  0  0  0
   42.6820   26.8520   43.6970 H   0  0  0  0  0  0  0  0  0  0  0  0
  1 23  1  0  0  0  0
  1  6  1  0  0  0  0
  2  1  2  0  0  0  0
  3  2  1  0  0  0  0
  3  4  2  0  0  0  0
  4  5  1  0  0  0  0
  5  6  2  0  0  0  0
  5  8  1  0  0  0  0
  7  2  1  0  0  0  0
  9 14  1  6  0  0  0
  9 10  1  0  0  0  0
 10 11  1  0  0  0  0
 10  3  1  0  0  0  0
 10 15  1  1  0  0  0
 12 11  1  0  0  0  0
 12 17  1  0  0  0  0
 13  9  1  0  0  0  0
 13 18  1  1  0  0  0
 13 12  1  0  0  0  0
 16 12  1  0  0  0  0
 19  9  1  0  0  0  0
 20 19  1  0  0  0  0
 21 13  1  0  0  0  0
 22 21  1  0  0  0  0
 23 24  1  0  0  0  0
 23 28  1  0  0  0  0
 25 23  1  0  0  0  0
 26 30  1  0  0  0  0
 27 26  2  0  0  0  0
 28 29  1  0  0  0  0
 28 26  1  0  0  0  0
 30 35  2  0  0  0  0
 30 31  1  0  0  0  0
 31 32  2  0  0  0  0
 32 33  1  0  0  0  0
 32 37  1  0  0  0  0
 33 38  1  0  0  0  0
 34 39  1  0  0  0  0
 34 33  2  0  0  0  0
 35 34  1  0  0  0  0
 36 31  1  0  0  0  0
 39 40  1  0  0  0  0
 41 40  1  0  0  0  0
M  END
>  <minimizedAffinity>
-6.71539211

$$$$

 OpenBabel03242521473D

 41 43  0  0  1  0  0  0  0  0999 V2000
   38.5360   33.4120   39.8950 C   0  0  0  0  0  0  0  0  0  0  0  0
   39.7330   32.8450   39.4370 C   0  0  0  0  0  0  0  0  0  0  0  0
   40.8690   33.6600   39.2890 C   0  0  0  0  0  0  0  0  0  0  0  0
   40.7460   34.9380   39.5960 N   0  0  0  0  0  0  0  0  0  0  0  0
   39.5790   35.4740   40.0400 C   0  0  0  0  0  0  0  0  0  0  0  0
   38.4710   34.7140   40.1910 N   0  0  0  0  0  0  0  0  0  0  0  0
   39.6880   31.7930   39.2260 H   0  0  0  0  0  0  0  0  0  0  0  0
   39.5630   36.5430   40.2720 H   0  0  0  0  0  0  0  0  0  0  0  0
   42.2720   32.9710   37.3520 C   0  0  2  0  0  0  0  0  0  0  0  0
   42.0610   32.9860   38.8100 C   0  0  2  0  0  0  0  0  0  0  0  0
   42.1040   31.5810   39.1230 O   0  0  0  0  0  0  0  0  0  0  0  0
   43.3100   31.2330   38.5160 C   0  0  0  0  0  0  0  0  0  0  0  0
   43.5460   32.0910   37.3220 C   0  0  1  0  0  0  0  0  0  0  0  0
   41.4850   32.3430   36.8500 H   0  0  0  0  0  0  0  0  0  0  0  0
   42.9660   33.3660   39.3520 H   0  0  0  0  0  0  0  0  0  0  0  0
   43.2010   30.1750   38.1750 H   0  0  0  0  0  0  0  0  0  0  0  0
   44.1820   31.3120   39.2040 H   0  0  0  0  0  0  0  0  0  0  0  0
   44.4280   32.7420   37.4040 H   0  0  0  0  0  0  0  0  0  0  0  0
   42.4180   34.1760   36.7610 O   0  0  0  0  0  0  0  0  0  0  0  0
   42.1100   34.1790   35.8130 H   0  0  0  0  0  0  0  0  0  0  0  0
   43.5800   31.4070   36.1010 O   0  0  0  0  0  0  0  0  0  0  0  0
   42.7190   30.9400   35.9550 H   0  0  0  0  0  0  0  0  0  0  0  0
   37.3250   32.5190   40.0370 C   0  0  0  0  0  0  0  0  0  0  0  0
   36.5740   33.0260   40.6610 H   0  0  0  0  0  0  0  0  0  0  0  0
   36.9880   32.2610   39.0170 H   0  0  0  0  0  0  0  0  0  0  0  0
   37.0050   30.2170   41.1760 C   0  0  0  0  0  0  0  0  0  0  0  0
   35.7700   30.3050   40.9920 O   0  0  0  0  0  0  0  0  0  0  0  0
   37.7870   31.2990   40.6730 N   0  0  0  0  0  0  0  0  0  0  0  0
   38.8270   31.2340   40.7600 H   0  0  0  0  0  0  0  0  0  0  0  0
   37.6660   29.1030   41.8550 C   0  0  0  0  0  0  0  0  0  0  0  0
   38.8070   29.3130   42.5570 C   0  0  0  0  0  0  0  0  0  0  0  0
   39.3650   28.1940   43.1700 C   0  0  0  0  0  0  0  0  0  0  0  0
   38.8400   26.9140   43.1070 C   0  0  0  0  0  0  0  0  0  0  0  0
   37.6780   26.8000   42.3710 C   0  0  0  0  0  0  0  0  0  0  0  0
   37.1180   27.8520   41.7720 N   0  0  0  0  0  0  0  0  0  0  0  0
   39.2460   30.2830   42.6320 H   0  0  0  0  0  0  0  0  0  0  0  0
   40.2900   28.3760   43.7370 H   0  0  0  0  0  0  0  0  0  0  0  0
   39.3370   26.0970   43.6130 H   0  0  0  0  0  0  0  0  0  0  0  0
   37.0420   25.4550   42.2510 C   0  0  0  0  0  2  0  0  0  0  0  0
   36.9580   25.0050   40.8170 C   0  0  0  0  0  2  0  0  0  0  0  0
   37.1660   23.9070   40.7360 H   0  0  0  0  0  0  0  0  0  0  0  0
  1 23  1  0  0  0  0
  1  6  1  0  0  0  0
  2  1  2  0  0  0  0
  3  2  1  0  0  0  0
  3  4  2  0  0  0  0
  4  5  1  0  0  0  0
  5  6  2  0  0  0  0
  5  8  1  0  0  0  0
  7  2  1  0  0  0  0
  9 14  1  6  0  0  0
  9 10  1  0  0  0  0
 10 11  1  0  0  0  0
 10  3  1  0  0  0  0
 10 15  1  1  0  0  0
 12 11  1  0  0  0  0
 12 17  1  0  0  0  0
 13  9  1  0  0  0  0
 13 18  1  1  0  0  0
 13 12  1  0  0  0  0
 16 12  1  0  0  0  0
 19  9  1  0  0  0  0
 20 19  1  0  0  0  0
 21 13  1  0  0  0  0
 22 21  1  0  0  0  0
 23 24  1  0  0  0  0
 23 28  1  0  0  0  0
 25 23  1  0  0  0  0
 26 30  1  0  0  0  0
 27 26  2  0  0  0  0
 28 29  1  0  0  0  0
 28 26  1  0  0  0  0
 30 31  1  0  0  0  0
 31 36  1  0  0  0  0
 31 32  2  0  0  0  0
 32 37  1  0  0  0  0
 33 32  1  0  0  0  0
 33 38  1  0  0  0  0
 34 33  2  0  0  0  0
 35 30  2  0  0  0  0
 35 34  1  0  0  0  0
 39 34  1  0  0  0  0
 40 39  1  0  0  0  0
 41 40  1  0  0  0  0
M  END
>  <minimizedAffinity>
-6.67795944

$$$$

 OpenBabel03242521473D

 41 43  0  0  1  0  0  0  0  0999 V2000
   39.0030   33.0460   39.6760 C   0  0  0  0  0  0  0  0  0  0  0  0
   40.4000   32.9630   39.7510 C   0  0  0  0  0  0  0  0  0  0  0  0
   41.1260   34.0500   40.2680 C   0  0  0  0  0  0  0  0  0  0  0  0
   40.4430   35.1080   40.6630 N   0  0  0  0  0  0  0  0  0  0  0  0
   39.0880   35.1730   40.5850 C   0  0  0  0  0  0  0  0  0  0  0  0
   38.3630   34.1430   40.0920 N   0  0  0  0  0  0  0  0  0  0  0  0
   40.8230   32.0430   39.3930 H   0  0  0  0  0  0  0  0  0  0  0  0
   38.5990   36.0870   40.9350 H   0  0  0  0  0  0  0  0  0  0  0  0
   43.3160   34.7550   41.2190 C   0  0  2  0  0  0  0  0  0  0  0  0
   42.5660   33.8750   40.3060 C   0  0  2  0  0  0  0  0  0  0  0  0
   43.2210   34.1360   39.0500 O   0  0  0  0  0  0  0  0  0  0  0  0
   44.5480   33.9230   39.4180 C   0  0  0  0  0  0  0  0  0  0  0  0
   44.7460   34.2920   40.8480 C   0  0  1  0  0  0  0  0  0  0  0  0
   43.2650   35.8210   40.8640 H   0  0  0  0  0  0  0  0  0  0  0  0
   42.8210   32.7970   40.4740 H   0  0  0  0  0  0  0  0  0  0  0  0
   45.1670   34.6070   38.7890 H   0  0  0  0  0  0  0  0  0  0  0  0
   44.8810   32.8720   39.2610 H   0  0  0  0  0  0  0  0  0  0  0  0
   45.0250   33.4480   41.4950 H   0  0  0  0  0  0  0  0  0  0  0  0
   43.0210   34.6390   42.5320 O   0  0  0  0  0  0  0  0  0  0  0  0
   43.1690   35.4860   43.0350 H   0  0  0  0  0  0  0  0  0  0  0  0
   45.6250   35.3580   41.0660 O   0  0  0  0  0  0  0  0  0  0  0  0
   45.2910   36.1680   40.6030 H   0  0  0  0  0  0  0  0  0  0  0  0
   38.2430   31.8690   39.1080 C   0  0  0  0  0  0  0  0  0  0  0  0
   37.1830   32.1430   38.9980 H   0  0  0  0  0  0  0  0  0  0  0  0
   38.7500   31.5740   38.1710 H   0  0  0  0  0  0  0  0  0  0  0  0
   37.4870   30.3590   41.0690 C   0  0  0  0  0  0  0  0  0  0  0  0
   36.3910   30.9630   41.1040 O   0  0  0  0  0  0  0  0  0  0  0  0
   38.3980   30.7820   40.0580 N   0  0  0  0  0  0  0  0  0  0  0  0
   39.3020   30.2640   39.9630 H   0  0  0  0  0  0  0  0  0  0  0  0
   37.8680   29.2800   41.9800 C   0  0  0  0  0  0  0  0  0  0  0  0
   36.9140   28.5210   42.5740 C   0  0  0  0  0  0  0  0  0  0  0  0
   37.3700   27.5180   43.4260 C   0  0  0  0  0  0  0  0  0  0  0  0
   38.7030   27.2560   43.6960 C   0  0  0  0  0  0  0  0  0  0  0  0
   39.5990   28.0800   43.0450 C   0  0  0  0  0  0  0  0  0  0  0  0
   39.1950   29.0500   42.2230 N   0  0  0  0  0  0  0  0  0  0  0  0
   35.8760   28.6880   42.3950 H   0  0  0  0  0  0  0  0  0  0  0  0
   36.5890   26.9080   43.9020 H   0  0  0  0  0  0  0  0  0  0  0  0
   38.9740   26.4550   44.3720 H   0  0  0  0  0  0  0  0  0  0  0  0
   41.0580   27.8670   43.2780 C   0  0  0  0  0  2  0  0  0  0  0  0
   41.3140   26.6710   44.1540 C   0  0  0  0  0  2  0  0  0  0  0  0
   42.2160   26.1090   43.8010 H   0  0  0  0  0  0  0  0  0  0  0  0
  1  2  2  0  0  0  0
  1  6  1  0  0  0  0
  2  3  1  0  0  0  0
  3 10  1  0  0  0  0
  3  4  2  0  0  0  0
  5  4  1  0  0  0  0
  5  8  1  0  0  0  0
  6  5  2  0  0  0  0
  7  2  1  0  0  0  0
  9 14  1  6  0  0  0
  9 19  1  0  0  0  0
 10 15  1  1  0  0  0
 10  9  1  0  0  0  0
 11 12  1  0  0  0  0
 11 10  1  0  0  0  0
 12 13  1  0  0  0  0
 13 21  1  0  0  0  0
 13  9  1  0  0  0  0
 13 18  1  1  0  0  0
 16 12  1  0  0  0  0
 17 12  1  0  0  0  0
 19 20  1  0  0  0  0
 22 21  1  0  0  0  0
 23  1  1  0  0  0  0
 23 28  1  0  0  0  0
 24 23  1  0  0  0  0
 25 23  1  0  0  0  0
 26 27  2  0  0  0  0
 26 30  1  0  0  0  0
 28 26  1  0  0  0  0
 29 28  1  0  0  0  0
 30 35  2  0  0  0  0
 30 31  1  0  0  0  0
 31 32  2  0  0  0  0
 32 33  1  0  0  0  0
 32 37  1  0  0  0  0
 33 38  1  0  0  0  0
 34 39  1  0  0  0  0
 34 33  2  0  0  0  0
 35 34  1  0  0  0  0
 36 31  1  0  0  0  0
 39 40  1  0  0  0  0
 41 40  1  0  0  0  0
M  END
>  <minimizedAffinity>
-6.46841717

$$$$

 OpenBabel03242521473D

 41 43  0  0  1  0  0  0  0  0999 V2000
   37.1110   30.5820   40.2480 C   0  0  0  0  0  0  0  0  0  0  0  0
   37.7080   31.8410   40.3930 C   0  0  0  0  0  0  0  0  0  0  0  0
   38.4370   32.3840   39.3200 C   0  0  0  0  0  0  0  0  0  0  0  0
   38.5210   31.6660   38.2150 N   0  0  0  0  0  0  0  0  0  0  0  0
   37.9360   30.4470   38.0900 C   0  0  0  0  0  0  0  0  0  0  0  0
   37.2290   29.9000   39.1040 N   0  0  0  0  0  0  0  0  0  0  0  0
   37.5570   32.3110   41.3460 H   0  0  0  0  0  0  0  0  0  0  0  0
   38.0550   29.9170   37.1400 H   0  0  0  0  0  0  0  0  0  0  0  0
   40.4750   33.8120   39.3750 C   0  0  2  0  0  0  0  0  0  0  0  0
   39.0190   33.6910   39.5600 C   0  0  2  0  0  0  0  0  0  0  0  0
   38.8600   34.1620   40.9120 O   0  0  0  0  0  0  0  0  0  0  0  0
   39.5330   35.3790   40.8270 C   0  0  0  0  0  0  0  0  0  0  0  0
   40.6350   35.2830   39.8290 C   0  0  1  0  0  0  0  0  0  0  0  0
   41.0200   33.2150   40.1580 H   0  0  0  0  0  0  0  0  0  0  0  0
   38.4650   34.4750   38.9810 H   0  0  0  0  0  0  0  0  0  0  0  0
   39.9830   35.5650   41.8320 H   0  0  0  0  0  0  0  0  0  0  0  0
   38.8660   36.2290   40.5570 H   0  0  0  0  0  0  0  0  0  0  0  0
   40.5090   35.9390   38.9560 H   0  0  0  0  0  0  0  0  0  0  0  0
   40.9380   33.5630   38.1310 O   0  0  0  0  0  0  0  0  0  0  0  0
   41.8710   33.2130   38.1300 H   0  0  0  0  0  0  0  0  0  0  0  0
   41.9220   35.4450   40.3540 O   0  0  0  0  0  0  0  0  0  0  0  0
   42.0940   34.7510   41.0400 H   0  0  0  0  0  0  0  0  0  0  0  0
   36.3390   30.0140   41.4180 C   0  0  0  0  0  0  0  0  0  0  0  0
   36.3670   30.7310   42.2510 H   0  0  0  0  0  0  0  0  0  0  0  0
   35.3270   29.7640   41.0500 H   0  0  0  0  0  0  0  0  0  0  0  0
   38.0720   28.5820   42.7000 C   0  0  0  0  0  0  0  0  0  0  0  0
   38.4550   29.6050   43.3120 O   0  0  0  0  0  0  0  0  0  0  0  0
   36.9970   28.7730   41.7810 N   0  0  0  0  0  0  0  0  0  0  0  0
   36.6150   27.9310   41.2930 H   0  0  0  0  0  0  0  0  0  0  0  0
   38.6480   27.2490   42.8710 C   0  0  0  0  0  0  0  0  0  0  0  0
   39.7350   27.0740   43.6630 C   0  0  0  0  0  0  0  0  0  0  0  0
   40.2140   25.7700   43.7660 C   0  0  0  0  0  0  0  0  0  0  0  0
   39.6640   24.6720   43.1250 C   0  0  0  0  0  0  0  0  0  0  0  0
   38.5610   24.9500   42.3430 C   0  0  0  0  0  0  0  0  0  0  0  0
   38.0770   26.1870   42.2240 N   0  0  0  0  0  0  0  0  0  0  0  0
   40.1910   27.8910   44.1740 H   0  0  0  0  0  0  0  0  0  0  0  0
   41.0960   25.6380   44.4110 H   0  0  0  0  0  0  0  0  0  0  0  0
   40.0980   23.6900   43.2590 H   0  0  0  0  0  0  0  0  0  0  0  0
   37.9030   23.8240   41.6170 C   0  0  0  0  0  2  0  0  0  0  0  0
   36.5450   24.2140   41.1000 C   0  0  0  0  0  2  0  0  0  0  0  0
   36.3660   23.7690   40.0880 H   0  0  0  0  0  0  0  0  0  0  0  0
  1  2  1  0  0  0  0
  1 23  1  0  0  0  0
  2  7  1  0  0  0  0
  3 10  1  0  0  0  0
  3  2  2  0  0  0  0
  4  3  1  0  0  0  0
  5  4  2  0  0  0  0
  5  6  1  0  0  0  0
  6  1  2  0  0  0  0
  8  5  1  0  0  0  0
  9 10  1  0  0  0  0
  9 13  1  0  0  0  0
  9 14  1  1  0  0  0
 10 15  1  6  0  0  0
 10 11  1  0  0  0  0
 12 11  1  0  0  0  0
 12 16  1  0  0  0  0
 13 18  1  6  0  0  0
 13 21  1  0  0  0  0
 13 12  1  0  0  0  0
 17 12  1  0  0  0  0
 19  9  1  0  0  0  0
 20 19  1  0  0  0  0
 21 22  1  0  0  0  0
 23 28  1  0  0  0  0
 23 24  1  0  0  0  0
 25 23  1  0  0  0  0
 26 30  1  0  0  0  0
 26 27  2  0  0  0  0
 28 26  1  0  0  0  0
 29 28  1  0  0  0  0
 30 31  1  0  0  0  0
 31 32  2  0  0  0  0
 31 36  1  0  0  0  0
 32 37  1  0  0  0  0
 33 38  1  0  0  0  0
 33 32  1  0  0  0  0
 34 33  2  0  0  0  0
 35 34  1  0  0  0  0
 35 30  2  0  0  0  0
 39 34  1  0  0  0  0
 40 39  1  0  0  0  0
 41 40  1  0  0  0  0
M  END
>  <minimizedAffinity>
-6.39037657

$$$$

 OpenBabel03242521473D

 41 43  0  0  1  0  0  0  0  0999 V2000
   38.7490   30.9290   41.2290 C   0  0  0  0  0  0  0  0  0  0  0  0
   39.7680   31.5930   40.5310 C   0  0  0  0  0  0  0  0  0  0  0  0
   39.4280   32.6060   39.6170 C   0  0  0  0  0  0  0  0  0  0  0  0
   38.1470   32.8820   39.4630 N   0  0  0  0  0  0  0  0  0  0  0  0
   37.1710   32.2320   40.1470 C   0  0  0  0  0  0  0  0  0  0  0  0
   37.4670   31.2530   41.0320 N   0  0  0  0  0  0  0  0  0  0  0  0
   40.7650   31.2630   40.7570 H   0  0  0  0  0  0  0  0  0  0  0  0
   36.1330   32.5230   39.9600 H   0  0  0  0  0  0  0  0  0  0  0  0
   41.0210   32.5930   37.7040 C   0  0  2  0  0  0  0  0  0  0  0  0
   40.5470   33.2360   38.9420 C   0  0  2  0  0  0  0  0  0  0  0  0
   41.7550   33.2770   39.7260 O   0  0  0  0  0  0  0  0  0  0  0  0
   42.6160   33.8870   38.8150 C   0  0  0  0  0  0  0  0  0  0  0  0
   42.2310   33.5160   37.4240 C   0  0  1  0  0  0  0  0  0  0  0  0
   41.4780   31.5910   37.9340 H   0  0  0  0  0  0  0  0  0  0  0  0
   40.3420   34.3260   38.7850 H   0  0  0  0  0  0  0  0  0  0  0  0
   43.6350   33.4800   39.0190 H   0  0  0  0  0  0  0  0  0  0  0  0
   42.6340   34.9960   38.9080 H   0  0  0  0  0  0  0  0  0  0  0  0
   41.8970   34.3640   36.8100 H   0  0  0  0  0  0  0  0  0  0  0  0
   40.1300   32.5270   36.6910 O   0  0  0  0  0  0  0  0  0  0  0  0
   40.2850   31.7450   36.0930 H   0  0  0  0  0  0  0  0  0  0  0  0
   43.1940   32.7810   36.7230 O   0  0  0  0  0  0  0  0  0  0  0  0
   43.3860   31.9360   37.2030 H   0  0  0  0  0  0  0  0  0  0  0  0
   39.1370   29.8370   42.2000 C   0  0  0  0  0  0  0  0  0  0  0  0
   40.2330   29.7790   42.2590 H   0  0  0  0  0  0  0  0  0  0  0  0
   38.6280   30.0560   43.1570 H   0  0  0  0  0  0  0  0  0  0  0  0
   37.5160   27.8200   42.2080 C   0  0  0  0  0  0  0  0  0  0  0  0
   36.9510   28.2860   43.2230 O   0  0  0  0  0  0  0  0  0  0  0  0
   38.5810   28.6040   41.6750 N   0  0  0  0  0  0  0  0  0  0  0  0
   39.0400   28.2730   40.7960 H   0  0  0  0  0  0  0  0  0  0  0  0
   37.1530   26.5590   41.5620 C   0  0  0  0  0  0  0  0  0  0  0  0
   37.1750   25.4020   42.2690 C   0  0  0  0  0  0  0  0  0  0  0  0
   36.8150   24.2510   41.5720 C   0  0  0  0  0  0  0  0  0  0  0  0
   36.4480   24.2170   40.2370 C   0  0  0  0  0  0  0  0  0  0  0  0
   36.4570   25.4430   39.6020 C   0  0  0  0  0  0  0  0  0  0  0  0
   36.7960   26.5640   40.2420 N   0  0  0  0  0  0  0  0  0  0  0  0
   37.4510   25.3820   43.2990 H   0  0  0  0  0  0  0  0  0  0  0  0
   36.8350   23.3180   42.1540 H   0  0  0  0  0  0  0  0  0  0  0  0
   36.1820   23.2780   39.7700 H   0  0  0  0  0  0  0  0  0  0  0  0
   36.0730   25.5000   38.1610 C   0  0  0  0  0  2  0  0  0  0  0  0
   35.3980   26.8000   37.8160 C   0  0  0  0  0  2  0  0  0  0  0  0
   35.7230   27.1550   36.8050 H   0  0  0  0  0  0  0  0  0  0  0  0
  1 23  1  0  0  0  0
  2  7  1  0  0  0  0
  2  1  2  0  0  0  0
  3  2  1  0  0  0  0
  4  3  2  0  0  0  0
  4  5  1  0  0  0  0
  5  6  2  0  0  0  0
  6  1  1  0  0  0  0
  8  5  1  0  0  0  0
  9 14  1  1  0  0  0
  9 10  1  0  0  0  0
 10 15  1  6  0  0  0
 10  3  1  0  0  0  0
 10 11  1  0  0  0  0
 12 17  1  0  0  0  0
 12 16  1  0  0  0  0
 12 11  1  0  0  0  0
 13 18  1  6  0  0  0
 13  9  1  0  0  0  0
 13 12  1  0  0  0  0
 19  9  1  0  0  0  0
 20 19  1  0  0  0  0
 21 22  1  0  0  0  0
 21 13  1  0  0  0  0
 23 24  1  0  0  0  0
 23 25  1  0  0  0  0
 26 27  2  0  0  0  0
 28 23  1  0  0  0  0
 28 26  1  0  0  0  0
 29 28  1  0  0  0  0
 30 26  1  0  0  0  0
 30 31  1  0  0  0  0
 31 36  1  0  0  0  0
 32 37  1  0  0  0  0
 32 31  2  0  0  0  0
 33 32  1  0  0  0  0
 34 33  2  0  0  0  0
 34 35  1  0  0  0  0
 35 30  2  0  0  0  0
 38 33  1  0  0  0  0
 39 34  1  0  0  0  0
 40 39  1  0  0  0  0
 41 40  1  0  0  0  0
M  END
>  <minimizedAffinity>
-6.16363955

$$$$

 OpenBabel03242521473D

 41 43  0  0  1  0  0  0  0  0999 V2000
   36.9350   29.1100   41.7200 C   0  0  0  0  0  0  0  0  0  0  0  0
   36.7010   27.7820   41.3370 C   0  0  0  0  0  0  0  0  0  0  0  0
   37.4030   26.7470   41.9800 C   0  0  0  0  0  0  0  0  0  0  0  0
   38.2580   27.0870   42.9260 N   0  0  0  0  0  0  0  0  0  0  0  0
   38.4730   28.3780   43.2870 C   0  0  0  0  0  0  0  0  0  0  0  0
   37.8130   29.3940   42.6870 N   0  0  0  0  0  0  0  0  0  0  0  0
   35.9780   27.6540   40.5530 H   0  0  0  0  0  0  0  0  0  0  0  0
   39.1990   28.5730   44.0820 H   0  0  0  0  0  0  0  0  0  0  0  0
   38.1990   24.4300   41.5410 C   0  0  2  0  0  0  0  0  0  0  0  0
   37.0960   25.4060   41.5180 C   0  0  2  0  0  0  0  0  0  0  0  0
   36.6830   25.3430   40.1390 O   0  0  0  0  0  0  0  0  0  0  0  0
   36.5050   23.9680   40.0010 C   0  0  0  0  0  0  0  0  0  0  0  0
   37.4540   23.2390   40.8890 C   0  0  1  0  0  0  0  0  0  0  0  0
   38.9870   24.7130   40.7900 H   0  0  0  0  0  0  0  0  0  0  0  0
   36.1880   25.0130   42.0440 H   0  0  0  0  0  0  0  0  0  0  0  0
   36.7530   23.7190   38.9410 H   0  0  0  0  0  0  0  0  0  0  0  0
   35.4650   23.6380   40.2260 H   0  0  0  0  0  0  0  0  0  0  0  0
   36.9670   22.6500   41.6790 H   0  0  0  0  0  0  0  0  0  0  0  0
   38.7240   24.1560   42.7540 O   0  0  0  0  0  0  0  0  0  0  0  0
   39.6830   23.8890   42.7070 H   0  0  0  0  0  0  0  0  0  0  0  0
   38.3920   22.4430   40.2230 O   0  0  0  0  0  0  0  0  0  0  0  0
   38.9390   23.0060   39.6170 H   0  0  0  0  0  0  0  0  0  0  0  0
   36.1760   30.2070   41.0090 C   0  0  0  0  0  0  0  0  0  0  0  0
   35.8360   29.8360   40.0310 H   0  0  0  0  0  0  0  0  0  0  0  0
   35.3700   30.5400   41.6880 H   0  0  0  0  0  0  0  0  0  0  0  0
   37.4800   31.9780   39.6440 C   0  0  0  0  0  0  0  0  0  0  0  0
   36.8900   31.6020   38.6050 O   0  0  0  0  0  0  0  0  0  0  0  0
   37.1040   31.3110   40.8470 N   0  0  0  0  0  0  0  0  0  0  0  0
   37.5360   31.6360   41.7430 H   0  0  0  0  0  0  0  0  0  0  0  0
   38.4970   33.0280   39.6860 C   0  0  0  0  0  0  0  0  0  0  0  0
   38.1960   34.2470   40.1970 C   0  0  0  0  0  0  0  0  0  0  0  0
   39.2280   35.1830   40.1960 C   0  0  0  0  0  0  0  0  0  0  0  0
   40.5060   34.9510   39.7170 C   0  0  0  0  0  0  0  0  0  0  0  0
   40.7160   33.6820   39.2170 C   0  0  0  0  0  0  0  0  0  0  0  0
   39.7500   32.7620   39.2040 N   0  0  0  0  0  0  0  0  0  0  0  0
   37.2250   34.4690   40.5770 H   0  0  0  0  0  0  0  0  0  0  0  0
   38.9740   36.1690   40.6140 H   0  0  0  0  0  0  0  0  0  0  0  0
   41.2510   35.7350   39.7530 H   0  0  0  0  0  0  0  0  0  0  0  0
   42.0670   33.3440   38.6800 C   0  0  0  0  0  2  0  0  0  0  0  0
   42.5220   34.3430   37.6500 C   0  0  0  0  0  2  0  0  0  0  0  0
   43.6180   34.5470   37.7580 H   0  0  0  0  0  0  0  0  0  0  0  0
  1  6  1  0  0  0  0
  2  1  2  0  0  0  0
  2  3  1  0  0  0  0
  3  4  2  0  0  0  0
  4  5  1  0  0  0  0
  5  8  1  0  0  0  0
  6  5  2  0  0  0  0
  7  2  1  0  0  0  0
  9 14  1  6  0  0  0
  9 19  1  0  0  0  0
 10  9  1  0  0  0  0
 10  3  1  0  0  0  0
 10 15  1  1  0  0  0
 11 10  1  0  0  0  0
 12 11  1  0  0  0  0
 12 17  1  0  0  0  0
 12 13  1  0  0  0  0
 13  9  1  0  0  0  0
 13 18  1  1  0  0  0
 16 12  1  0  0  0  0
 20 19  1  0  0  0  0
 21 13  1  0  0  0  0
 22 21  1  0  0  0  0
 23 25  1  0  0  0  0
 23  1  1  0  0  0  0
 24 23  1  0  0  0  0
 26 30  1  0  0  0  0
 26 28  1  0  0  0  0
 27 26  2  0  0  0  0
 28 23  1  0  0  0  0
 28 29  1  0  0  0  0
 30 31  1  0  0  0  0
 31 36  1  0  0  0  0
 32 31  2  0  0  0  0
 32 37  1  0  0  0  0
 33 38  1  0  0  0  0
 33 32  1  0  0  0  0
 34 33  2  0  0  0  0
 35 34  1  0  0  0  0
 35 30  2  0  0  0  0
 39 34  1  0  0  0  0
 40 41  1  0  0  0  0
 40 39  1  0  0  0  0
M  END
>  <minimizedAffinity>
-6.14869165

$$$$

 OpenBabel03242521473D

 41 43  0  0  1  0  0  0  0  0999 V2000
   36.1640   29.8290   39.4570 C   0  0  0  0  0  0  0  0  0  0  0  0
   37.1490   30.8090   39.6450 C   0  0  0  0  0  0  0  0  0  0  0  0
   37.8250   31.3270   38.5260 C   0  0  0  0  0  0  0  0  0  0  0  0
   37.4900   30.8570   37.3390 N   0  0  0  0  0  0  0  0  0  0  0  0
   36.5330   29.9090   37.1730 C   0  0  0  0  0  0  0  0  0  0  0  0
   35.8660   29.3910   38.2300 N   0  0  0  0  0  0  0  0  0  0  0  0
   37.3180   31.0970   40.6660 H   0  0  0  0  0  0  0  0  0  0  0  0
   36.3150   29.5740   36.1540 H   0  0  0  0  0  0  0  0  0  0  0  0
   40.1060   32.2260   38.0950 C   0  0  2  0  0  0  0  0  0  0  0  0
   38.8270   32.3360   38.8170 C   0  0  2  0  0  0  0  0  0  0  0  0
   39.2690   32.3420   40.1880 O   0  0  0  0  0  0  0  0  0  0  0  0
   40.2200   33.3610   40.1320 C   0  0  0  0  0  0  0  0  0  0  0  0
   40.8510   33.3950   38.7830 C   0  0  1  0  0  0  0  0  0  0  0  0
   40.6630   31.3050   38.4240 H   0  0  0  0  0  0  0  0  0  0  0  0
   38.3860   33.3610   38.7170 H   0  0  0  0  0  0  0  0  0  0  0  0
   41.0060   33.1040   40.8830 H   0  0  0  0  0  0  0  0  0  0  0  0
   39.7970   34.3640   40.3660 H   0  0  0  0  0  0  0  0  0  0  0  0
   40.6580   34.3190   38.2210 H   0  0  0  0  0  0  0  0  0  0  0  0
   40.0400   32.3280   36.7500 O   0  0  0  0  0  0  0  0  0  0  0  0
   40.7660   31.8240   36.2890 H   0  0  0  0  0  0  0  0  0  0  0  0
   42.2220   33.1160   38.7670 O   0  0  0  0  0  0  0  0  0  0  0  0
   42.3840   32.2110   39.1380 H   0  0  0  0  0  0  0  0  0  0  0  0
   35.4570   29.2790   40.6740 C   0  0  0  0  0  0  0  0  0  0  0  0
   35.4470   30.0450   41.4630 H   0  0  0  0  0  0  0  0  0  0  0  0
   34.4590   28.9350   40.3440 H   0  0  0  0  0  0  0  0  0  0  0  0
   37.1420   28.0080   42.1710 C   0  0  0  0  0  0  0  0  0  0  0  0
   37.2830   29.0350   42.8730 O   0  0  0  0  0  0  0  0  0  0  0  0
   36.2100   28.1140   41.0960 N   0  0  0  0  0  0  0  0  0  0  0  0
   36.0260   27.2590   40.5220 H   0  0  0  0  0  0  0  0  0  0  0  0
   37.8580   26.7510   42.3860 C   0  0  0  0  0  0  0  0  0  0  0  0
   37.2840   25.5730   42.0410 C   0  0  0  0  0  0  0  0  0  0  0  0
   38.0400   24.4280   42.2830 C   0  0  0  0  0  0  0  0  0  0  0  0
   39.3070   24.4210   42.8410 C   0  0  0  0  0  0  0  0  0  0  0  0
   39.8070   25.6670   43.1590 C   0  0  0  0  0  0  0  0  0  0  0  0
   39.1090   26.7830   42.9400 N   0  0  0  0  0  0  0  0  0  0  0  0
   36.3100   25.5320   41.6080 H   0  0  0  0  0  0  0  0  0  0  0  0
   37.5650   23.4770   41.9990 H   0  0  0  0  0  0  0  0  0  0  0  0
   39.8270   23.4850   42.9960 H   0  0  0  0  0  0  0  0  0  0  0  0
   41.1690   25.7530   43.7650 C   0  0  0  0  0  2  0  0  0  0  0  0
   41.5420   27.1730   44.0970 C   0  0  0  0  0  2  0  0  0  0  0  0
   42.1020   27.2160   45.0660 H   0  0  0  0  0  0  0  0  0  0  0  0
  1  2  1  0  0  0  0
  1 23  1  0  0  0  0
  2  7  1  0  0  0  0
  3 10  1  0  0  0  0
  3  2  2  0  0  0  0
  4  3  1  0  0  0  0
  5  4  2  0  0  0  0
  5  6  1  0  0  0  0
  6  1  2  0  0  0  0
  8  5  1  0  0  0  0
  9 14  1  1  0  0  0
  9 13  1  0  0  0  0
  9 10  1  0  0  0  0
 10 15  1  6  0  0  0
 10 11  1  0  0  0  0
 12 11  1  0  0  0  0
 12 17  1  0  0  0  0
 12 16  1  0  0  0  0
 13 18  1  6  0  0  0
 13 12  1  0  0  0  0
 19  9  1  0  0  0  0
 20 19  1  0  0  0  0
 21 13  1  0  0  0  0
 21 22  1  0  0  0  0
 23 28  1  0  0  0  0
 23 24  1  0  0  0  0
 25 23  1  0  0  0  0
 26 30  1  0  0  0  0
 26 27  2  0  0  0  0
 28 26  1  0  0  0  0
 29 28  1  0  0  0  0
 30 35  1  0  0  0  0
 31 32  1  0  0  0  0
 31 30  2  0  0  0  0
 32 33  2  0  0  0  0
 33 38  1  0  0  0  0
 33 34  1  0  0  0  0
 34 39  1  0  0  0  0
 35 34  2  0  0  0  0
 36 31  1  0  0  0  0
 37 32  1  0  0  0  0
 39 40  1  0  0  0  0
 40 41  1  0  0  0  0
M  END
>  <minimizedAffinity>
-6.14619637

$$$$

 OpenBabel03242521473D

 41 43  0  0  1  0  0  0  0  0999 V2000
   38.0410   32.5320   39.2280 C   0  0  0  0  0  0  0  0  0  0  0  0
   39.3730   32.3190   38.8450 C   0  0  0  0  0  0  0  0  0  0  0  0
   40.3570   33.2430   39.2370 C   0  0  0  0  0  0  0  0  0  0  0  0
   39.9680   34.2790   39.9570 N   0  0  0  0  0  0  0  0  0  0  0  0
   38.6740   34.4720   40.3210 C   0  0  0  0  0  0  0  0  0  0  0  0
   37.7060   33.6000   39.9580 N   0  0  0  0  0  0  0  0  0  0  0  0
   39.5430   31.4340   38.2610 H   0  0  0  0  0  0  0  0  0  0  0  0
   38.4370   35.3570   40.9180 H   0  0  0  0  0  0  0  0  0  0  0  0
   42.6800   34.0450   38.8390 C   0  0  2  0  0  0  0  0  0  0  0  0
   41.7060   32.9410   38.7960 C   0  0  2  0  0  0  0  0  0  0  0  0
   41.7920   32.5330   37.4170 O   0  0  0  0  0  0  0  0  0  0  0  0
   43.1700   32.3580   37.3010 C   0  0  0  0  0  0  0  0  0  0  0  0
   43.8820   33.3050   38.2040 C   0  0  1  0  0  0  0  0  0  0  0  0
   42.4070   34.8360   38.0860 H   0  0  0  0  0  0  0  0  0  0  0  0
   42.0930   32.0320   39.3250 H   0  0  0  0  0  0  0  0  0  0  0  0
   43.4350   32.6100   36.2460 H   0  0  0  0  0  0  0  0  0  0  0  0
   43.4980   31.3180   37.5270 H   0  0  0  0  0  0  0  0  0  0  0  0
   44.4590   32.8160   39.0010 H   0  0  0  0  0  0  0  0  0  0  0  0
   42.9330   34.5670   40.0580 O   0  0  0  0  0  0  0  0  0  0  0  0
   43.1980   35.5260   40.0190 H   0  0  0  0  0  0  0  0  0  0  0  0
   44.6870   34.2470   37.5540 O   0  0  0  0  0  0  0  0  0  0  0  0
   44.1330   34.7950   36.9410 H   0  0  0  0  0  0  0  0  0  0  0  0
   36.9980   31.5300   38.7880 C   0  0  0  0  0  0  0  0  0  0  0  0
   35.9970   31.9600   38.9420 H   0  0  0  0  0  0  0  0  0  0  0  0
   37.2310   31.2530   37.7430 H   0  0  0  0  0  0  0  0  0  0  0  0
   36.7130   29.0270   39.3780 C   0  0  0  0  0  0  0  0  0  0  0  0
   36.1100   28.8470   38.2950 O   0  0  0  0  0  0  0  0  0  0  0  0
   37.1860   30.3520   39.6120 N   0  0  0  0  0  0  0  0  0  0  0  0
   37.7420   30.5260   40.4810 H   0  0  0  0  0  0  0  0  0  0  0  0
   36.9500   27.9860   40.3780 C   0  0  0  0  0  0  0  0  0  0  0  0
   36.9470   26.6800   40.0160 C   0  0  0  0  0  0  0  0  0  0  0  0
   37.1810   25.7600   41.0350 C   0  0  0  0  0  0  0  0  0  0  0  0
   37.4080   26.0910   42.3610 C   0  0  0  0  0  0  0  0  0  0  0  0
   37.3900   27.4440   42.6330 C   0  0  0  0  0  0  0  0  0  0  0  0
   37.1700   28.3500   41.6790 N   0  0  0  0  0  0  0  0  0  0  0  0
   36.7770   26.3810   39.0060 H   0  0  0  0  0  0  0  0  0  0  0  0
   37.1780   24.7030   40.7310 H   0  0  0  0  0  0  0  0  0  0  0  0
   37.5810   25.3130   43.0930 H   0  0  0  0  0  0  0  0  0  0  0  0
   37.6270   27.8900   44.0370 C   0  0  0  0  0  2  0  0  0  0  0  0
   36.3380   28.0190   44.8040 C   0  0  0  0  0  2  0  0  0  0  0  0
   36.4700   27.6650   45.8580 H   0  0  0  0  0  0  0  0  0  0  0  0
  1  6  1  0  0  0  0
  2  1  2  0  0  0  0
  2  3  1  0  0  0  0
  3  4  2  0  0  0  0
  4  5  1  0  0  0  0
  5  8  1  0  0  0  0
  6  5  2  0  0  0  0
  7  2  1  0  0  0  0
  9 14  1  6  0  0  0
  9 19  1  0  0  0  0
 10  9  1  0  0  0  0
 10  3  1  0  0  0  0
 10 15  1  1  0  0  0
 11 10  1  0  0  0  0
 12 11  1  0  0  0  0
 12 17  1  0  0  0  0
 12 13  1  0  0  0  0
 13  9  1  0  0  0  0
 13 18  1  1  0  0  0
 16 12  1  0  0  0  0
 20 19  1  0  0  0  0
 21 13  1  0  0  0  0
 22 21  1  0  0  0  0
 23 24  1  0  0  0  0
 23  1  1  0  0  0  0
 23 28  1  0  0  0  0
 25 23  1  0  0  0  0
 26 28  1  0  0  0  0
 26 30  1  0  0  0  0
 27 26  2  0  0  0  0
 28 29  1  0  0  0  0
 30 35  1  0  0  0  0
 31 30  2  0  0  0  0
 31 32  1  0  0  0  0
 32 33  2  0  0  0  0
 33 34  1  0  0  0  0
 33 38  1  0  0  0  0
 34 39  1  0  0  0  0
 35 34  2  0  0  0  0
 36 31  1  0  0  0  0
 37 32  1  0  0  0  0
 39 40  1  0  0  0  0
 40 41  1  0  0  0  0
M  END
>  <minimizedAffinity>
-6.05744696

$$$$

 OpenBabel03242521473D

 41 43  0  0  1  0  0  0  0  0999 V2000
   36.7110   30.5600   39.8760 C   0  0  0  0  0  0  0  0  0  0  0  0
   36.2600   29.6480   38.9120 C   0  0  0  0  0  0  0  0  0  0  0  0
   36.5950   29.8520   37.5620 C   0  0  0  0  0  0  0  0  0  0  0  0
   37.3290   30.9090   37.2690 N   0  0  0  0  0  0  0  0  0  0  0  0
   37.7600   31.7840   38.2140 C   0  0  0  0  0  0  0  0  0  0  0  0
   37.4540   31.6140   39.5200 N   0  0  0  0  0  0  0  0  0  0  0  0
   35.6720   28.8350   39.2940 H   0  0  0  0  0  0  0  0  0  0  0  0
   38.3650   32.6350   37.8860 H   0  0  0  0  0  0  0  0  0  0  0  0
   36.7770   28.7390   35.3430 C   0  0  2  0  0  0  0  0  0  0  0  0
   36.0840   28.8580   36.6370 C   0  0  2  0  0  0  0  0  0  0  0  0
   34.7260   29.0940   36.2170 O   0  0  0  0  0  0  0  0  0  0  0  0
   34.5550   28.0240   35.3390 C   0  0  0  0  0  0  0  0  0  0  0  0
   35.8520   27.6830   34.6920 C   0  0  1  0  0  0  0  0  0  0  0  0
   36.6190   29.6680   34.7280 H   0  0  0  0  0  0  0  0  0  0  0  0
   35.9930   27.8640   37.1470 H   0  0  0  0  0  0  0  0  0  0  0  0
   33.8470   28.3720   34.5480 H   0  0  0  0  0  0  0  0  0  0  0  0
   34.1400   27.1170   35.8330 H   0  0  0  0  0  0  0  0  0  0  0  0
   36.2270   26.6800   34.9410 H   0  0  0  0  0  0  0  0  0  0  0  0
   38.0770   28.3770   35.3970 O   0  0  0  0  0  0  0  0  0  0  0  0
   38.6070   28.7320   34.6310 H   0  0  0  0  0  0  0  0  0  0  0  0
   35.8850   27.8630   33.3040 O   0  0  0  0  0  0  0  0  0  0  0  0
   35.6940   28.8100   33.0850 H   0  0  0  0  0  0  0  0  0  0  0  0
   36.3320   30.3260   41.3210 C   0  0  0  0  0  0  0  0  0  0  0  0
   36.7300   31.1470   41.9360 H   0  0  0  0  0  0  0  0  0  0  0  0
   35.2340   30.2060   41.3550 H   0  0  0  0  0  0  0  0  0  0  0  0
   38.0700   28.8370   42.5290 C   0  0  0  0  0  0  0  0  0  0  0  0
   38.5850   29.8600   43.0350 O   0  0  0  0  0  0  0  0  0  0  0  0
   36.9290   29.0600   41.7020 N   0  0  0  0  0  0  0  0  0  0  0  0
   36.4400   28.2250   41.3070 H   0  0  0  0  0  0  0  0  0  0  0  0
   38.5600   27.4740   42.7330 C   0  0  0  0  0  0  0  0  0  0  0  0
   39.6420   27.2500   43.5190 C   0  0  0  0  0  0  0  0  0  0  0  0
   40.0360   25.9210   43.6550 C   0  0  0  0  0  0  0  0  0  0  0  0
   39.4080   24.8440   43.0510 C   0  0  0  0  0  0  0  0  0  0  0  0
   38.3180   25.1720   42.2710 C   0  0  0  0  0  0  0  0  0  0  0  0
   37.9140   26.4350   42.1200 N   0  0  0  0  0  0  0  0  0  0  0  0
   40.1550   28.0490   44.0030 H   0  0  0  0  0  0  0  0  0  0  0  0
   40.9140   25.7500   44.2950 H   0  0  0  0  0  0  0  0  0  0  0  0
   39.7790   23.8400   43.2080 H   0  0  0  0  0  0  0  0  0  0  0  0
   37.5800   24.0720   41.5830 C   0  0  0  0  0  2  0  0  0  0  0  0
   36.6520   24.6020   40.5220 C   0  0  0  0  0  2  0  0  0  0  0  0
   36.6550   23.9310   39.6260 H   0  0  0  0  0  0  0  0  0  0  0  0
  1 23  1  0  0  0  0
  2  7  1  0  0  0  0
  2  1  2  0  0  0  0
  3  2  1  0  0  0  0
  4  3  2  0  0  0  0
  4  5  1  0  0  0  0
  5  6  2  0  0  0  0
  6  1  1  0  0  0  0
  8  5  1  0  0  0  0
  9 14  1  6  0  0  0
  9 19  1  0  0  0  0
  9 10  1  0  0  0  0
 10 15  1  1  0  0  0
 10  3  1  0  0  0  0
 11 10  1  0  0  0  0
 12 17  1  0  0  0  0
 12 11  1  0  0  0  0
 13 18  1  1  0  0  0
 13 12  1  0  0  0  0
 13  9  1  0  0  0  0
 16 12  1  0  0  0  0
 20 19  1  0  0  0  0
 21 13  1  0  0  0  0
 22 21  1  0  0  0  0
 23 25  1  0  0  0  0
 23 28  1  0  0  0  0
 23 24  1  0  0  0  0
 26 30  1  0  0  0  0
 26 27  2  0  0  0  0
 28 26  1  0  0  0  0
 29 28  1  0  0  0  0
 30 31  1  0  0  0  0
 31 32  2  0  0  0  0
 31 36  1  0  0  0  0
 32 37  1  0  0  0  0
 33 38  1  0  0  0  0
 33 32  1  0  0  0  0
 34 33  2  0  0  0  0
 35 34  1  0  0  0  0
 35 30  2  0  0  0  0
 39 34  1  0  0  0  0
 40 39  1  0  0  0  0
 41 40  1  0  0  0  0
M  END
>  <minimizedAffinity>
-5.92123842

$$$$
