
 OpenBabel03252509333D

 34 35  0  0  1  0  0  0  0  0999 V2000
   44.6440   35.0530   45.4780 O   0  0  0  0  0  0  0  0  0  0  0  0
   45.5070   34.0860   44.7280 P   0  0  2  0  0  0  0  0  0  0  0  0
   44.6380   32.7830   44.1310 O   0  0  0  0  0  0  0  0  0  0  0  0
   44.5550   32.7970   43.1470 H   0  0  0  0  0  0  0  0  0  0  0  0
   46.6630   33.4280   45.7850 O   0  0  0  0  0  0  0  0  0  0  0  0
   46.5770   32.0660   45.7260 C   0  0  0  0  0  0  0  0  0  0  0  0
   46.0520   31.6110   44.8990 H   0  0  0  0  0  0  0  0  0  0  0  0
   47.6450   31.7010   45.6520 H   0  0  0  0  0  0  0  0  0  0  0  0
   45.5550   31.6960   49.2830 C   0  0  0  0  0  0  0  0  0  0  0  0
   46.0580   32.2660   48.1070 C   0  0  0  0  0  0  0  0  0  0  0  0
   46.0560   31.4850   46.9650 C   0  0  0  0  0  0  0  0  0  0  0  0
   45.5690   30.2080   47.0460 N   0  0  0  0  0  0  0  0  0  0  0  0
   45.0930   29.6910   48.2010 C   0  0  0  0  0  0  0  0  0  0  0  0
   45.0930   30.4430   49.3020 N   0  0  0  0  0  0  0  0  0  0  0  0
   45.5280   32.2540   50.2130 H   0  0  0  0  0  0  0  0  0  0  0  0
   46.4190   33.2940   48.1640 H   0  0  0  0  0  0  0  0  0  0  0  0
   44.7630   28.6720   48.0290 H   0  0  0  0  0  0  0  0  0  0  0  0
   46.3370   34.8970   43.5100 O   0  0  0  0  0  0  0  0  0  0  0  0
   46.4860   34.0610   42.4150 C   0  0  1  0  0  0  0  0  0  0  0  0
   45.6770   34.4720   41.2140 C   0  0  0  0  0  0  0  0  0  0  0  0
   46.3020   33.6270   40.1230 C   0  0  0  0  0  0  0  0  0  0  0  0
   47.7340   33.3870   40.5510 C   0  0  0  0  0  0  0  0  0  0  0  0
   47.9030   34.1460   41.8530 C   0  0  1  0  0  0  0  0  0  0  0  0
   46.3230   32.9920   42.6610 H   0  0  0  0  0  0  0  0  0  0  0  0
   45.7710   35.5430   41.0330 H   0  0  0  0  0  0  0  0  0  0  0  0
   44.6040   34.1510   41.3380 H   0  0  0  0  0  0  0  0  0  0  0  0
   46.2760   34.1520   39.1540 H   0  0  0  0  0  0  0  0  0  0  0  0
   45.7570   32.6680   39.9600 H   0  0  0  0  0  0  0  0  0  0  0  0
   47.9090   32.3000   40.6830 H   0  0  0  0  0  0  0  0  0  0  0  0
   48.4420   33.7530   39.7590 H   0  0  0  0  0  0  0  0  0  0  0  0
   48.6060   33.6240   42.5090 H   0  0  0  0  0  0  0  0  0  0  0  0
   48.3740   35.5530   41.6360 C   0  0  0  0  0  2  0  0  0  0  0  0
   48.9990   35.6130   40.2450 C   0  0  0  0  0  2  0  0  0  0  0  0
   50.0530   35.9750   40.2780 H   0  0  0  0  0  0  0  0  0  0  0  0
  2  1  2  1  0  0  0
  2  5  1  0  0  0  0
  3  2  1  0  0  0  0
  4  3  1  0  0  0  0
  6  5  1  0  0  0  0
  6 11  1  0  0  0  0
  7  6  1  0  0  0  0
  8  6  1  0  0  0  0
  9 14  1  0  0  0  0
  9 15  1  0  0  0  0
 10 16  1  0  0  0  0
 10  9  2  0  0  0  0
 11 12  2  0  0  0  0
 11 10  1  0  0  0  0
 12 13  1  0  0  0  0
 13 14  2  0  0  0  0
 17 13  1  0  0  0  0
 18  2  1  0  0  0  0
 19 24  1  1  0  0  0
 19 18  1  0  0  0  0
 20 26  1  0  0  0  0
 20 19  1  0  0  0  0
 21 22  1  0  0  0  0
 21 20  1  0  0  0  0
 22 29  1  0  0  0  0
 22 23  1  0  0  0  0
 23 19  1  0  0  0  0
 23 31  1  1  0  0  0
 25 20  1  0  0  0  0
 27 21  1  0  0  0  0
 28 21  1  0  0  0  0
 30 22  1  0  0  0  0
 32 23  1  0  0  0  0
 33 34  1  0  0  0  0
 33 32  1  0  0  0  0
M  END
>  <minimizedAffinity>
-4.80603838

>  <minimizedRMSD>
0.90703702

$$$$
