
 OpenBabel03252507133D

 36 37  0  0  1  0  0  0  0  0999 V2000
   50.3110   34.8190   42.6840 O   0  0  0  0  0  0  0  0  0  0  0  0
   49.0860   34.5830   41.8870 P   0  0  1  0  0  0  0  0  0  0  0  0
   49.0160   35.8050   40.7020 O   0  0  0  0  0  0  0  0  0  0  0  0
   48.9970   36.6550   41.2150 H   0  0  0  0  0  0  0  0  0  0  0  0
   49.2020   33.0830   41.0480 O   0  0  0  0  0  0  0  0  0  0  0  0
   49.6590   31.3080   42.5320 C   0  0  0  0  0  0  0  0  0  0  0  0
   50.0560   32.0830   41.4680 C   0  0  0  0  0  0  0  0  0  0  0  0
   51.3100   31.8200   40.8600 C   0  0  0  0  0  0  0  0  0  0  0  0
   52.0440   30.8070   41.3760 N   0  0  0  0  0  0  0  0  0  0  0  0
   51.6320   30.0820   42.4000 C   0  0  0  0  0  0  0  0  0  0  0  0
   50.4280   30.3440   42.9740 N   0  0  0  0  0  0  0  0  0  0  0  0
   47.2800   30.6910   42.9270 C   0  0  0  0  0  0  0  0  0  0  0  0
   47.0580   30.4050   41.6910 O   0  0  0  0  0  0  0  0  0  0  0  0
   48.5730   31.1660   43.4350 N   0  0  0  0  0  0  0  0  0  0  0  0
   51.5550   32.4610   40.0390 H   0  0  0  0  0  0  0  0  0  0  0  0
   52.2190   29.2720   42.8120 H   0  0  0  0  0  0  0  0  0  0  0  0
   46.4050   30.5440   43.5590 H   0  0  0  0  0  0  0  0  0  0  0  0
   48.5440   31.3560   44.4390 H   0  0  0  0  0  0  0  0  0  0  0  0
   47.6970   34.6480   42.7740 O   0  0  0  0  0  0  0  0  0  0  0  0
   46.5500   34.9850   42.1760 C   0  0  2  0  0  0  0  0  0  0  0  0
   45.5650   35.7520   42.9630 C   0  0  0  0  0  0  0  0  0  0  0  0
   44.2050   35.6370   42.3520 C   0  0  0  0  0  0  0  0  0  0  0  0
   43.6820   34.3560   42.4390 O   0  0  0  0  0  0  0  0  0  0  0  0
   44.6810   33.4030   42.4990 C   0  0  0  0  0  0  0  0  0  0  0  0
   45.8210   33.7700   41.5960 C   0  0  1  0  0  0  0  0  0  0  0  0
   46.7920   35.5670   41.2360 H   0  0  0  0  0  0  0  0  0  0  0  0
   45.8180   36.8450   43.0570 H   0  0  0  0  0  0  0  0  0  0  0  0
   45.4650   35.4110   44.0170 H   0  0  0  0  0  0  0  0  0  0  0  0
   44.0650   36.1450   41.3920 H   0  0  0  0  0  0  0  0  0  0  0  0
   43.5390   36.2320   43.0550 H   0  0  0  0  0  0  0  0  0  0  0  0
   45.0700   33.3440   43.5270 H   0  0  0  0  0  0  0  0  0  0  0  0
   44.2490   32.4270   42.2110 H   0  0  0  0  0  0  0  0  0  0  0  0
   46.5500   32.9290   41.7380 H   0  0  0  0  0  0  0  0  0  0  0  0
   45.5370   33.8200   40.1500 C   0  0  0  0  0  0  0  0  0  0  0  0
   44.9170   32.4710   39.7460 C   0  0  0  0  0  0  0  0  0  0  0  0
   44.8890   32.3700   38.6450 H   0  0  0  0  0  0  0  0  0  0  0  0
  2  1  2  1  0  0  0
  2 19  1  0  0  0  0
  3  4  1  0  0  0  0
  3  2  1  0  0  0  0
  5  7  1  0  0  0  0
  5  2  1  0  0  0  0
  6 11  1  0  0  0  0
  6 14  1  0  0  0  0
  7  6  2  0  0  0  0
  8  9  2  0  0  0  0
  8  7  1  0  0  0  0
  9 10  1  0  0  0  0
 10 16  1  0  0  0  0
 10 11  2  0  0  0  0
 12 14  1  0  0  0  0
 12 17  1  0  0  0  0
 13 12  2  0  0  0  0
 14 18  1  0  0  0  0
 15  8  1  0  0  0  0
 20 26  1  6  0  0  0
 20 19  1  0  0  0  0
 20 21  1  0  0  0  0
 21 27  1  0  0  0  0
 21 28  1  0  0  0  0
 22 23  1  0  0  0  0
 22 21  1  0  0  0  0
 22 30  1  0  0  0  0
 23 24  1  0  0  0  0
 24 31  1  0  0  0  0
 25 33  1  1  0  0  0
 25 20  1  0  0  0  0
 25 24  1  0  0  0  0
 29 22  1  0  0  0  0
 32 24  1  0  0  0  0
 34 25  1  0  0  0  0
 35 34  1  0  0  0  0
 36 35  1  0  0  0  0
M  END
>  <minimizedAffinity>
-4.21330976

>  <minimizedRMSD>
0.853045762

$$$$
