
 OpenBabel03252509333D

 34 35  0  0  1  0  0  0  0  0999 V2000
   44.6460   35.0510   45.4820 O   0  0  0  0  0  0  0  0  0  0  0  0
   45.5090   34.0850   44.7310 P   0  0  2  0  0  0  0  0  0  0  0  0
   44.6390   32.7820   44.1350 O   0  0  0  0  0  0  0  0  0  0  0  0
   44.5550   32.7970   43.1500 H   0  0  0  0  0  0  0  0  0  0  0  0
   46.6680   33.4270   45.7850 O   0  0  0  0  0  0  0  0  0  0  0  0
   46.5810   32.0650   45.7250 C   0  0  0  0  0  0  0  0  0  0  0  0
   46.0570   31.6100   44.8980 H   0  0  0  0  0  0  0  0  0  0  0  0
   47.6500   31.7000   45.6530 H   0  0  0  0  0  0  0  0  0  0  0  0
   45.5590   31.6950   49.2820 C   0  0  0  0  0  0  0  0  0  0  0  0
   46.0630   32.2650   48.1060 C   0  0  0  0  0  0  0  0  0  0  0  0
   46.0590   31.4850   46.9640 C   0  0  0  0  0  0  0  0  0  0  0  0
   45.5690   30.2090   47.0450 N   0  0  0  0  0  0  0  0  0  0  0  0
   45.0920   29.6930   48.1980 C   0  0  0  0  0  0  0  0  0  0  0  0
   45.0930   30.4430   49.3010 N   0  0  0  0  0  0  0  0  0  0  0  0
   45.5330   32.2530   50.2120 H   0  0  0  0  0  0  0  0  0  0  0  0
   46.4260   33.2920   48.1640 H   0  0  0  0  0  0  0  0  0  0  0  0
   44.7590   28.6740   48.0270 H   0  0  0  0  0  0  0  0  0  0  0  0
   46.3350   34.8970   43.5100 O   0  0  0  0  0  0  0  0  0  0  0  0
   46.4850   34.0610   42.4160 C   0  0  1  0  0  0  0  0  0  0  0  0
   45.6770   34.4730   41.2150 C   0  0  0  0  0  0  0  0  0  0  0  0
   46.3020   33.6270   40.1240 C   0  0  0  0  0  0  0  0  0  0  0  0
   47.7340   33.3870   40.5530 C   0  0  0  0  0  0  0  0  0  0  0  0
   47.9020   34.1460   41.8550 C   0  0  1  0  0  0  0  0  0  0  0  0
   46.3220   32.9930   42.6620 H   0  0  0  0  0  0  0  0  0  0  0  0
   45.7700   35.5430   41.0330 H   0  0  0  0  0  0  0  0  0  0  0  0
   44.6030   34.1510   41.3380 H   0  0  0  0  0  0  0  0  0  0  0  0
   46.2770   34.1520   39.1550 H   0  0  0  0  0  0  0  0  0  0  0  0
   45.7580   32.6680   39.9610 H   0  0  0  0  0  0  0  0  0  0  0  0
   47.9090   32.3000   40.6850 H   0  0  0  0  0  0  0  0  0  0  0  0
   48.4420   33.7530   39.7610 H   0  0  0  0  0  0  0  0  0  0  0  0
   48.6050   33.6240   42.5110 H   0  0  0  0  0  0  0  0  0  0  0  0
   48.3730   35.5540   41.6380 C   0  0  0  0  0  2  0  0  0  0  0  0
   48.9990   35.6130   40.2460 C   0  0  0  0  0  2  0  0  0  0  0  0
   50.0530   35.9750   40.2810 H   0  0  0  0  0  0  0  0  0  0  0  0
  2  1  2  1  0  0  0
  2  5  1  0  0  0  0
  3  2  1  0  0  0  0
  4  3  1  0  0  0  0
  6  5  1  0  0  0  0
  6 11  1  0  0  0  0
  7  6  1  0  0  0  0
  8  6  1  0  0  0  0
  9 14  1  0  0  0  0
  9 15  1  0  0  0  0
 10 16  1  0  0  0  0
 10  9  2  0  0  0  0
 11 12  2  0  0  0  0
 11 10  1  0  0  0  0
 12 13  1  0  0  0  0
 13 14  2  0  0  0  0
 17 13  1  0  0  0  0
 18  2  1  0  0  0  0
 19 24  1  1  0  0  0
 19 18  1  0  0  0  0
 20 26  1  0  0  0  0
 20 19  1  0  0  0  0
 21 22  1  0  0  0  0
 21 20  1  0  0  0  0
 22 29  1  0  0  0  0
 22 23  1  0  0  0  0
 23 19  1  0  0  0  0
 23 31  1  1  0  0  0
 25 20  1  0  0  0  0
 27 21  1  0  0  0  0
 28 21  1  0  0  0  0
 30 22  1  0  0  0  0
 32 23  1  0  0  0  0
 33 34  1  0  0  0  0
 33 32  1  0  0  0  0
M  END
>  <minimizedAffinity>
-4.8057518

>  <minimizedRMSD>
0.942509472

$$$$
