REMARK  Name = 
REMARK  7 active torsions:
REMARK  status: ('A' for Active; 'I' for Inactive)
REMARK    1  A    between atoms: P_2  and  O_3
REMARK    2  A    between atoms: P_2  and  O_4
REMARK    3  A    between atoms: P_2  and  O_14
REMARK    4  A    between atoms: O_4  and  C_6
REMARK    5  A    between atoms: O_14  and  C_15
REMARK    6  A    between atoms: C_20  and  C_34
REMARK    7  A    between atoms: C_34  and  C_35
REMARK                            x       y       z     vdW  Elec       q    Type
REMARK                         _______ _______ _______ _____ _____    ______ ____
ROOT
ATOM      1  O   UNL     1      50.225  34.908  42.699  0.00  0.00    +0.000 OA
ATOM      2  P   UNL     1      49.058  34.618  41.836  0.00  0.00    +0.000 P 
ENDROOT
BRANCH   2   3
ATOM      3  O   UNL     1      48.962  35.872  40.686  0.00  0.00    +0.000 OA
ATOM      4  H   UNL     1      48.861  36.701  41.223  0.00  0.00    +0.000 HD
ENDBRANCH   2   3
BRANCH   2   5
ATOM      5  O   UNL     1      49.314  33.158  40.959  0.00  0.00    +0.000 OA
BRANCH   5   7
ATOM      6  C   UNL     1      49.531  31.439  42.559  0.00  0.00    +0.000 A 
ATOM      7  C   UNL     1      50.055  32.119  41.485  0.00  0.00    +0.000 A 
ATOM      8  C   UNL     1      51.318  31.723  40.975  0.00  0.00    +0.000 A 
ATOM      9  N   UNL     1      51.933  30.686  41.589  0.00  0.00    +0.000 NA
ATOM     10  C   UNL     1      51.400  30.055  42.620  0.00  0.00    +0.000 A 
ATOM     11  N   UNL     1      50.189  30.444  43.099  0.00  0.00    +0.000 NA
ATOM     12  C   UNL     1      47.089  31.036  42.828  0.00  0.00    +0.000 C 
ATOM     13  O   UNL     1      46.921  30.699  41.596  0.00  0.00    +0.000 OA
ATOM     14  N   UNL     1      48.384  31.435  43.395  0.00  0.00    +0.000 N 
ATOM     15  H   UNL     1      51.665  32.295  40.140  0.00  0.00    +0.000 HD
ATOM     16  H   UNL     1      51.892  29.225  43.111  0.00  0.00    +0.000 HD
ATOM     17  H   UNL     1      46.168  30.995  43.408  0.00  0.00    +0.000 HD
ATOM     18  H   UNL     1      48.309  31.683  44.383  0.00  0.00    +0.000 HD
ENDBRANCH   5   7
ENDBRANCH   2   5
BRANCH   2  19
ATOM     19  O   UNL     1      47.627  34.562  42.654  0.00  0.00    +0.000 OA
BRANCH  19  20
ATOM     20  C   UNL     1      46.539  35.121  42.115  0.00  0.00    +0.000 C 
ATOM     21  C   UNL     1      45.488  35.602  43.033  0.00  0.00    +0.000 C 
ATOM     22  C   UNL     1      44.188  35.748  42.308  0.00  0.00    +0.000 C 
ATOM     23  O   UNL     1      43.658  34.533  41.904  0.00  0.00    +0.000 OA
ATOM     24  C   UNL     1      44.646  33.585  41.715  0.00  0.00    +0.000 C 
ATOM     25  C   UNL     1      45.863  34.203  41.093  0.00  0.00    +0.000 C 
ATOM     26  H   UNL     1      46.865  35.982  41.457  0.00  0.00    +0.000 HD
ATOM     27  H   UNL     1      45.733  36.588  43.519  0.00  0.00    +0.000 HD
ATOM     28  H   UNL     1      45.293  34.924  43.892  0.00  0.00    +0.000 HD
ATOM     29  H   UNL     1      44.136  36.559  41.574  0.00  0.00    +0.000 HD
ATOM     30  H   UNL     1      43.463  36.087  43.115  0.00  0.00    +0.000 HD
ATOM     31  H   UNL     1      44.941  33.164  42.688  0.00  0.00    +0.000 HD
ATOM     32  H   UNL     1      44.240  32.782  41.073  0.00  0.00    +0.000 HD
ATOM     33  H   UNL     1      46.575  33.341  40.997  0.00  0.00    +0.000 HD
BRANCH  25  34
ATOM     34  C   UNL     1      45.710  34.755  39.734  0.00  0.00    +0.000 C 
BRANCH  34  35
ATOM     35  C   UNL     1      46.469  33.832  38.765  0.00  0.00    +0.000 C 
ATOM     36  H   UNL     1      46.574  34.312  37.773  0.00  0.00    +0.000 HD
ENDBRANCH  34  35
ENDBRANCH  25  34
ENDBRANCH  19  20
ENDBRANCH   2  19
TORSDOF 7
