
 OpenBabel03252502353D

 34 35  0  0  1  0  0  0  0  0999 V2000
   38.4840   31.6180   40.9150 C   0  0  2  0  0  0  0  0  0  0  0  0
   37.7300   32.6870   40.1060 C   0  0  0  0  0  0  0  0  0  0  0  0
   38.4690   33.9880   40.4180 C   0  0  0  0  0  0  0  0  0  0  0  0
   39.7750   33.8600   39.6730 C   0  0  0  0  0  0  0  0  0  0  0  0
   40.5810   32.7280   40.1980 C   0  0  0  0  0  0  0  0  0  0  0  0
   39.8410   31.4300   40.3360 C   0  0  1  0  0  0  0  0  0  0  0  0
   38.5100   32.0490   41.9470 H   0  0  0  0  0  0  0  0  0  0  0  0
   37.7180   32.4590   39.0370 H   0  0  0  0  0  0  0  0  0  0  0  0
   36.7230   32.7760   40.5570 H   0  0  0  0  0  0  0  0  0  0  0  0
   37.8980   34.8600   40.0910 H   0  0  0  0  0  0  0  0  0  0  0  0
   38.6980   33.9740   41.4990 H   0  0  0  0  0  0  0  0  0  0  0  0
   40.3920   34.7700   39.7290 H   0  0  0  0  0  0  0  0  0  0  0  0
   39.5040   33.6500   38.6030 H   0  0  0  0  0  0  0  0  0  0  0  0
   41.4680   32.5840   39.5290 H   0  0  0  0  0  0  0  0  0  0  0  0
   40.9990   33.0210   41.1830 H   0  0  0  0  0  0  0  0  0  0  0  0
   39.6950   31.0450   39.3030 H   0  0  0  0  0  0  0  0  0  0  0  0
   36.8870   28.3430   41.8160 C   0  0  0  0  0  0  0  0  0  0  0  0
   37.7330   29.4590   41.9230 C   0  0  0  0  0  0  0  0  0  0  0  0
   37.6500   30.4260   40.9030 C   0  0  0  0  0  0  0  0  0  0  0  0
   36.7660   30.2150   39.8950 N   0  0  0  0  0  0  0  0  0  0  0  0
   35.9710   29.1420   39.8160 C   0  0  0  0  0  0  0  0  0  0  0  0
   36.0410   28.2050   40.7900 N   0  0  0  0  0  0  0  0  0  0  0  0
   38.4250   29.5920   42.7430 H   0  0  0  0  0  0  0  0  0  0  0  0
   36.9900   27.3280   42.9090 C   0  0  0  0  0  0  0  0  0  0  0  0
   38.1230   27.5240   43.6740 F   0  0  0  0  0  0  0  0  0  0  0  0
   35.8250   27.3920   43.6750 F   0  0  0  0  0  0  0  0  0  0  0  0
   36.9840   26.0510   42.3580 F   0  0  0  0  0  0  0  0  0  0  0  0
   35.0210   28.9570   38.6900 C   0  0  0  0  0  0  0  0  0  0  0  0
   35.3290   29.7530   37.6320 F   0  0  0  0  0  0  0  0  0  0  0  0
   33.7060   29.2060   39.1450 F   0  0  0  0  0  0  0  0  0  0  0  0
   34.9750   27.6430   38.2940 F   0  0  0  0  0  0  0  0  0  0  0  0
   40.6910   30.4860   41.1050 C   0  0  0  0  0  2  0  0  0  0  0  0
   41.1590   31.1210   42.4080 C   0  0  0  0  0  2  0  0  0  0  0  0
   41.9290   30.4960   42.9030 H   0  0  0  0  0  0  0  0  0  0  0  0
  1  7  1  1  0  0  0
  2  3  1  0  0  0  0
  2  9  1  0  0  0  0
  2  1  1  0  0  0  0
  3 11  1  0  0  0  0
  4 12  1  0  0  0  0
  4  5  1  0  0  0  0
  4  3  1  0  0  0  0
  5  6  1  0  0  0  0
  5 15  1  0  0  0  0
  6 16  1  6  0  0  0
  6  1  1  0  0  0  0
  6 32  1  0  0  0  0
  8  2  1  0  0  0  0
 10  3  1  0  0  0  0
 13  4  1  0  0  0  0
 14  5  1  0  0  0  0
 17 18  1  0  0  0  0
 17 24  1  0  0  0  0
 18 23  1  0  0  0  0
 19  1  1  0  0  0  0
 19 18  2  0  0  0  0
 20 19  1  0  0  0  0
 21 20  2  0  0  0  0
 21 22  1  0  0  0  0
 22 17  2  0  0  0  0
 24 25  1  0  0  0  0
 24 26  1  0  0  0  0
 27 24  1  0  0  0  0
 28 30  1  0  0  0  0
 28 21  1  0  0  0  0
 29 28  1  0  0  0  0
 31 28  1  0  0  0  0
 32 33  1  0  0  0  0
 33 34  1  0  0  0  0
M  END
>  <minimizedAffinity>
-5.6292634

$$$$

 OpenBabel03252502353D

 34 35  0  0  1  0  0  0  0  0999 V2000
   35.4160   29.5080   37.9550 C   0  0  2  0  0  0  0  0  0  0  0  0
   34.1080   28.9240   38.5170 C   0  0  0  0  0  0  0  0  0  0  0  0
   33.1900   28.8160   37.3010 C   0  0  0  0  0  0  0  0  0  0  0  0
   33.7600   27.6640   36.5080 C   0  0  0  0  0  0  0  0  0  0  0  0
   35.1320   27.9720   36.0310 C   0  0  0  0  0  0  0  0  0  0  0  0
   36.0680   28.4980   37.0790 C   0  0  1  0  0  0  0  0  0  0  0  0
   35.0710   30.4120   37.3920 H   0  0  0  0  0  0  0  0  0  0  0  0
   34.2670   27.9620   39.0090 H   0  0  0  0  0  0  0  0  0  0  0  0
   33.6720   29.6990   39.1770 H   0  0  0  0  0  0  0  0  0  0  0  0
   32.1540   28.6320   37.5970 H   0  0  0  0  0  0  0  0  0  0  0  0
   33.3360   29.7350   36.7050 H   0  0  0  0  0  0  0  0  0  0  0  0
   33.1470   27.4010   35.6320 H   0  0  0  0  0  0  0  0  0  0  0  0
   33.8060   26.7930   37.2150 H   0  0  0  0  0  0  0  0  0  0  0  0
   35.5650   27.0460   35.5750 H   0  0  0  0  0  0  0  0  0  0  0  0
   35.0600   28.7040   35.2000 H   0  0  0  0  0  0  0  0  0  0  0  0
   36.3240   27.6330   37.7290 H   0  0  0  0  0  0  0  0  0  0  0  0
   37.1980   29.5590   41.2580 C   0  0  0  0  0  0  0  0  0  0  0  0
   36.4170   29.0630   40.2000 C   0  0  0  0  0  0  0  0  0  0  0  0
   36.2110   29.9200   39.1010 C   0  0  0  0  0  0  0  0  0  0  0  0
   36.7750   31.1530   39.1410 N   0  0  0  0  0  0  0  0  0  0  0  0
   37.5150   31.6010   40.1620 C   0  0  0  0  0  0  0  0  0  0  0  0
   37.7210   30.7880   41.2240 N   0  0  0  0  0  0  0  0  0  0  0  0
   35.9850   28.0730   40.2060 H   0  0  0  0  0  0  0  0  0  0  0  0
   37.4050   28.6330   42.4140 C   0  0  0  0  0  0  0  0  0  0  0  0
   37.7910   29.3210   43.5480 F   0  0  0  0  0  0  0  0  0  0  0  0
   36.2250   27.9150   42.6150 F   0  0  0  0  0  0  0  0  0  0  0  0
   38.3530   27.6740   42.0750 F   0  0  0  0  0  0  0  0  0  0  0  0
   38.1080   32.9620   40.1560 C   0  0  0  0  0  0  0  0  0  0  0  0
   38.6410   33.2880   41.3630 F   0  0  0  0  0  0  0  0  0  0  0  0
   37.1220   33.8980   39.7690 F   0  0  0  0  0  0  0  0  0  0  0  0
   39.0600   33.0810   39.1730 F   0  0  0  0  0  0  0  0  0  0  0  0
   37.2930   28.9970   36.4050 C   0  0  0  0  0  2  0  0  0  0  0  0
   38.2650   27.8560   36.1400 C   0  0  0  0  0  2  0  0  0  0  0  0
   39.2480   28.2390   35.7990 H   0  0  0  0  0  0  0  0  0  0  0  0
  1  7  1  6  0  0  0
  1  2  1  0  0  0  0
  1 19  1  0  0  0  0
  2  8  1  0  0  0  0
  2  9  1  0  0  0  0
  3 10  1  0  0  0  0
  3  2  1  0  0  0  0
  4 13  1  0  0  0  0
  4  3  1  0  0  0  0
  5  4  1  0  0  0  0
  5  6  1  0  0  0  0
  6 16  1  1  0  0  0
  6  1  1  0  0  0  0
 11  3  1  0  0  0  0
 12  4  1  0  0  0  0
 14  5  1  0  0  0  0
 15  5  1  0  0  0  0
 17 24  1  0  0  0  0
 18 23  1  0  0  0  0
 18 17  2  0  0  0  0
 19 20  2  0  0  0  0
 19 18  1  0  0  0  0
 20 21  1  0  0  0  0
 21 22  2  0  0  0  0
 22 17  1  0  0  0  0
 24 26  1  0  0  0  0
 24 25  1  0  0  0  0
 27 24  1  0  0  0  0
 28 21  1  0  0  0  0
 28 29  1  0  0  0  0
 30 28  1  0  0  0  0
 31 28  1  0  0  0  0
 32  6  1  0  0  0  0
 33 32  1  0  0  0  0
 34 33  1  0  0  0  0
M  END
>  <minimizedAffinity>
-5.42775249

$$$$

 OpenBabel03252502353D

 34 35  0  0  1  0  0  0  0  0999 V2000
   35.5050   29.1560   38.0490 C   0  0  2  0  0  0  0  0  0  0  0  0
   34.0640   28.9640   38.5520 C   0  0  0  0  0  0  0  0  0  0  0  0
   33.2540   28.7000   37.2830 C   0  0  0  0  0  0  0  0  0  0  0  0
   33.6560   27.3040   36.8710 C   0  0  0  0  0  0  0  0  0  0  0  0
   35.0990   27.2440   36.5250 C   0  0  0  0  0  0  0  0  0  0  0  0
   36.0220   27.8590   37.5350 C   0  0  1  0  0  0  0  0  0  0  0  0
   35.3960   29.9270   37.2470 H   0  0  0  0  0  0  0  0  0  0  0  0
   33.9870   28.1480   39.2750 H   0  0  0  0  0  0  0  0  0  0  0  0
   33.7310   29.9440   38.9440 H   0  0  0  0  0  0  0  0  0  0  0  0
   32.1800   28.7740   37.4710 H   0  0  0  0  0  0  0  0  0  0  0  0
   33.6300   29.3960   36.5120 H   0  0  0  0  0  0  0  0  0  0  0  0
   33.0840   26.9300   36.0080 H   0  0  0  0  0  0  0  0  0  0  0  0
   33.4670   26.6500   37.7650 H   0  0  0  0  0  0  0  0  0  0  0  0
   35.3810   26.1720   36.3640 H   0  0  0  0  0  0  0  0  0  0  0  0
   35.2460   27.7370   35.5420 H   0  0  0  0  0  0  0  0  0  0  0  0
   36.0460   27.1610   38.4000 H   0  0  0  0  0  0  0  0  0  0  0  0
   37.5150   31.4490   40.2380 C   0  0  0  0  0  0  0  0  0  0  0  0
   36.7990   31.0100   39.1120 C   0  0  0  0  0  0  0  0  0  0  0  0
   36.2600   29.7100   39.1620 C   0  0  0  0  0  0  0  0  0  0  0  0
   36.4690   28.9770   40.2850 N   0  0  0  0  0  0  0  0  0  0  0  0
   37.1560   29.4190   41.3450 C   0  0  0  0  0  0  0  0  0  0  0  0
   37.6780   30.6670   41.3100 N   0  0  0  0  0  0  0  0  0  0  0  0
   36.6530   31.6250   38.2350 H   0  0  0  0  0  0  0  0  0  0  0  0
   38.0770   32.8330   40.1650 C   0  0  0  0  0  0  0  0  0  0  0  0
   38.6710   33.2000   41.3560 F   0  0  0  0  0  0  0  0  0  0  0  0
   38.9740   32.8830   39.0960 F   0  0  0  0  0  0  0  0  0  0  0  0
   37.0670   33.7260   39.8240 F   0  0  0  0  0  0  0  0  0  0  0  0
   37.3570   28.5750   42.5500 C   0  0  0  0  0  0  0  0  0  0  0  0
   37.7280   29.3130   43.6300 F   0  0  0  0  0  0  0  0  0  0  0  0
   38.3180   27.5790   42.2640 F   0  0  0  0  0  0  0  0  0  0  0  0
   36.2270   27.8500   42.8390 F   0  0  0  0  0  0  0  0  0  0  0  0
   37.3760   27.9550   36.9340 C   0  0  0  0  0  2  0  0  0  0  0  0
   37.2940   28.4480   35.4950 C   0  0  0  0  0  2  0  0  0  0  0  0
   38.2740   28.3570   34.9850 H   0  0  0  0  0  0  0  0  0  0  0  0
  1  7  1  6  0  0  0
  1  2  1  0  0  0  0
  1 19  1  0  0  0  0
  2  9  1  0  0  0  0
  2  8  1  0  0  0  0
  3 10  1  0  0  0  0
  3  2  1  0  0  0  0
  4  3  1  0  0  0  0
  4 13  1  0  0  0  0
  5  4  1  0  0  0  0
  5  6  1  0  0  0  0
  6  1  1  0  0  0  0
  6 16  1  1  0  0  0
 11  3  1  0  0  0  0
 12  4  1  0  0  0  0
 14  5  1  0  0  0  0
 15  5  1  0  0  0  0
 17 22  1  0  0  0  0
 18 19  1  0  0  0  0
 18 17  2  0  0  0  0
 19 20  2  0  0  0  0
 20 21  1  0  0  0  0
 21 28  1  0  0  0  0
 22 21  2  0  0  0  0
 23 18  1  0  0  0  0
 24 17  1  0  0  0  0
 24 25  1  0  0  0  0
 26 24  1  0  0  0  0
 27 24  1  0  0  0  0
 28 31  1  0  0  0  0
 28 29  1  0  0  0  0
 30 28  1  0  0  0  0
 32  6  1  0  0  0  0
 33 32  1  0  0  0  0
 34 33  1  0  0  0  0
M  END
>  <minimizedAffinity>
-5.34652901

$$$$

 OpenBabel03252502353D

 34 35  0  0  1  0  0  0  0  0999 V2000
   36.8450   28.4170   38.1150 C   0  0  2  0  0  0  0  0  0  0  0  0
   38.0580   28.7300   37.2220 C   0  0  0  0  0  0  0  0  0  0  0  0
   37.6690   28.1770   35.8510 C   0  0  0  0  0  0  0  0  0  0  0  0
   36.6210   29.1410   35.3470 C   0  0  0  0  0  0  0  0  0  0  0  0
   35.4180   29.1220   36.2160 C   0  0  0  0  0  0  0  0  0  0  0  0
   35.6910   29.2500   37.6860 C   0  0  1  0  0  0  0  0  0  0  0  0
   36.6770   27.3240   37.9450 H   0  0  0  0  0  0  0  0  0  0  0  0
   38.2810   29.7990   37.1940 H   0  0  0  0  0  0  0  0  0  0  0  0
   38.8950   28.1070   37.5920 H   0  0  0  0  0  0  0  0  0  0  0  0
   38.5310   28.1270   35.1810 H   0  0  0  0  0  0  0  0  0  0  0  0
   37.1730   27.2060   36.0260 H   0  0  0  0  0  0  0  0  0  0  0  0
   36.3000   28.9230   34.3170 H   0  0  0  0  0  0  0  0  0  0  0  0
   37.0900   30.1600   35.3920 H   0  0  0  0  0  0  0  0  0  0  0  0
   34.7320   29.9450   35.8900 H   0  0  0  0  0  0  0  0  0  0  0  0
   34.8600   28.1820   36.0260 H   0  0  0  0  0  0  0  0  0  0  0  0
   35.9840   30.3100   37.8560 H   0  0  0  0  0  0  0  0  0  0  0  0
   37.4820   28.0020   41.7920 C   0  0  0  0  0  0  0  0  0  0  0  0
   37.0290   27.6900   40.4980 C   0  0  0  0  0  0  0  0  0  0  0  0
   37.2750   28.6380   39.4870 C   0  0  0  0  0  0  0  0  0  0  0  0
   37.9260   29.7790   39.8290 N   0  0  0  0  0  0  0  0  0  0  0  0
   38.3470   30.0520   41.0690 C   0  0  0  0  0  0  0  0  0  0  0  0
   38.1170   29.1490   42.0500 N   0  0  0  0  0  0  0  0  0  0  0  0
   36.5130   26.7690   40.2660 H   0  0  0  0  0  0  0  0  0  0  0  0
   37.2110   26.9810   42.8500 C   0  0  0  0  0  0  0  0  0  0  0  0
   38.3030   26.8110   43.6780 F   0  0  0  0  0  0  0  0  0  0  0  0
   36.0750   27.3780   43.5580 F   0  0  0  0  0  0  0  0  0  0  0  0
   36.8560   25.7770   42.2520 F   0  0  0  0  0  0  0  0  0  0  0  0
   39.0550   31.3180   41.3910 C   0  0  0  0  0  0  0  0  0  0  0  0
   38.2750   32.4070   41.1610 F   0  0  0  0  0  0  0  0  0  0  0  0
   40.2520   31.3840   40.6410 F   0  0  0  0  0  0  0  0  0  0  0  0
   39.4960   31.3190   42.6910 F   0  0  0  0  0  0  0  0  0  0  0  0
   34.4360   28.9550   38.4230 C   0  0  0  0  0  2  0  0  0  0  0  0
   33.2460   28.9320   37.4730 C   0  0  0  0  0  2  0  0  0  0  0  0
   32.2900   28.8860   38.0320 H   0  0  0  0  0  0  0  0  0  0  0  0
  1  7  1  6  0  0  0
  1 19  1  0  0  0  0
  2  9  1  0  0  0  0
  2  1  1  0  0  0  0
  3 11  1  0  0  0  0
  3  2  1  0  0  0  0
  4 13  1  0  0  0  0
  4  3  1  0  0  0  0
  4  5  1  0  0  0  0
  5  6  1  0  0  0  0
  6 16  1  1  0  0  0
  6  1  1  0  0  0  0
  6 32  1  0  0  0  0
  8  2  1  0  0  0  0
 10  3  1  0  0  0  0
 12  4  1  0  0  0  0
 14  5  1  0  0  0  0
 15  5  1  0  0  0  0
 17 22  1  0  0  0  0
 17 24  1  0  0  0  0
 18 17  2  0  0  0  0
 19 20  2  0  0  0  0
 19 18  1  0  0  0  0
 20 21  1  0  0  0  0
 21 28  1  0  0  0  0
 21 22  2  0  0  0  0
 23 18  1  0  0  0  0
 24 26  1  0  0  0  0
 24 25  1  0  0  0  0
 27 24  1  0  0  0  0
 28 31  1  0  0  0  0
 29 28  1  0  0  0  0
 30 28  1  0  0  0  0
 33 34  1  0  0  0  0
 33 32  1  0  0  0  0
M  END
>  <minimizedAffinity>
-5.33334732

$$$$

 OpenBabel03252502353D

 34 35  0  0  1  0  0  0  0  0999 V2000
   37.8050   26.9420   40.7240 C   0  0  2  0  0  0  0  0  0  0  0  0
   38.1070   25.8930   39.6400 C   0  0  0  0  0  0  0  0  0  0  0  0
   39.0900   24.9330   40.3080 C   0  0  0  0  0  0  0  0  0  0  0  0
   38.2450   24.1640   41.2960 C   0  0  0  0  0  0  0  0  0  0  0  0
   37.6920   25.0650   42.3380 C   0  0  0  0  0  0  0  0  0  0  0  0
   37.0270   26.3060   41.8200 C   0  0  1  0  0  0  0  0  0  0  0  0
   38.8230   27.2720   41.0510 H   0  0  0  0  0  0  0  0  0  0  0  0
   37.2010   25.3890   39.2940 H   0  0  0  0  0  0  0  0  0  0  0  0
   38.6640   26.4140   38.8390 H   0  0  0  0  0  0  0  0  0  0  0  0
   39.5630   24.2720   39.5770 H   0  0  0  0  0  0  0  0  0  0  0  0
   39.8000   25.5510   40.8860 H   0  0  0  0  0  0  0  0  0  0  0  0
   38.8030   23.3610   41.8020 H   0  0  0  0  0  0  0  0  0  0  0  0
   37.3980   23.7250   40.7040 H   0  0  0  0  0  0  0  0  0  0  0  0
   36.9650   24.4830   42.9600 H   0  0  0  0  0  0  0  0  0  0  0  0
   38.5110   25.3470   43.0320 H   0  0  0  0  0  0  0  0  0  0  0  0
   36.0620   25.9780   41.3760 H   0  0  0  0  0  0  0  0  0  0  0  0
   35.3380   28.9740   38.7560 C   0  0  0  0  0  0  0  0  0  0  0  0
   35.9110   27.8470   39.3700 C   0  0  0  0  0  0  0  0  0  0  0  0
   37.1250   28.0410   40.0570 C   0  0  0  0  0  0  0  0  0  0  0  0
   37.6520   29.2910   40.0780 N   0  0  0  0  0  0  0  0  0  0  0  0
   37.0850   30.3480   39.4850 C   0  0  0  0  0  0  0  0  0  0  0  0
   35.9180   30.1750   38.8210 N   0  0  0  0  0  0  0  0  0  0  0  0
   35.4590   26.8660   39.3310 H   0  0  0  0  0  0  0  0  0  0  0  0
   34.0490   28.7460   38.0320 C   0  0  0  0  0  0  0  0  0  0  0  0
   32.9690   29.1770   38.7770 F   0  0  0  0  0  0  0  0  0  0  0  0
   34.1230   29.3920   36.7970 F   0  0  0  0  0  0  0  0  0  0  0  0
   33.9250   27.3960   37.7210 F   0  0  0  0  0  0  0  0  0  0  0  0
   37.7050   31.6960   39.5370 C   0  0  0  0  0  0  0  0  0  0  0  0
   39.0620   31.6330   39.4830 F   0  0  0  0  0  0  0  0  0  0  0  0
   37.2750   32.3610   40.7080 F   0  0  0  0  0  0  0  0  0  0  0  0
   37.2300   32.4970   38.5270 F   0  0  0  0  0  0  0  0  0  0  0  0
   36.7660   27.2110   42.9680 C   0  0  0  0  0  2  0  0  0  0  0  0
   38.0700   27.6060   43.6500 C   0  0  0  0  0  2  0  0  0  0  0  0
   37.8760   28.1350   44.6050 H   0  0  0  0  0  0  0  0  0  0  0  0
  1  7  1  1  0  0  0
  1  6  1  0  0  0  0
  2  3  1  0  0  0  0
  2  1  1  0  0  0  0
  3 11  1  0  0  0  0
  3  4  1  0  0  0  0
  4 12  1  0  0  0  0
  4  5  1  0  0  0  0
  5 14  1  0  0  0  0
  5 15  1  0  0  0  0
  6 16  1  6  0  0  0
  6  5  1  0  0  0  0
  6 32  1  0  0  0  0
  8  2  1  0  0  0  0
  9  2  1  0  0  0  0
 10  3  1  0  0  0  0
 13  4  1  0  0  0  0
 17 22  2  0  0  0  0
 17 18  1  0  0  0  0
 18 19  2  0  0  0  0
 19 20  1  0  0  0  0
 19  1  1  0  0  0  0
 21 28  1  0  0  0  0
 21 20  2  0  0  0  0
 22 21  1  0  0  0  0
 23 18  1  0  0  0  0
 24 17  1  0  0  0  0
 24 25  1  0  0  0  0
 26 24  1  0  0  0  0
 27 24  1  0  0  0  0
 28 30  1  0  0  0  0
 29 28  1  0  0  0  0
 31 28  1  0  0  0  0
 32 33  1  0  0  0  0
 33 34  1  0  0  0  0
M  END
>  <minimizedAffinity>
-5.3236599

$$$$

 OpenBabel03252502353D

 34 35  0  0  1  0  0  0  0  0999 V2000
   38.6120   31.3900   40.6770 C   0  0  2  0  0  0  0  0  0  0  0  0
   37.7970   32.6550   40.3560 C   0  0  0  0  0  0  0  0  0  0  0  0
   38.7450   33.8080   40.6820 C   0  0  0  0  0  0  0  0  0  0  0  0
   39.7670   33.7730   39.5710 C   0  0  0  0  0  0  0  0  0  0  0  0
   40.5430   32.5080   39.5990 C   0  0  0  0  0  0  0  0  0  0  0  0
   39.7200   31.2570   39.6940 C   0  0  1  0  0  0  0  0  0  0  0  0
   38.9760   31.5780   41.7170 H   0  0  0  0  0  0  0  0  0  0  0  0
   37.4590   32.6730   39.3170 H   0  0  0  0  0  0  0  0  0  0  0  0
   36.9740   32.6990   41.0950 H   0  0  0  0  0  0  0  0  0  0  0  0
   38.2160   34.7630   40.7190 H   0  0  0  0  0  0  0  0  0  0  0  0
   39.2640   33.5400   41.6210 H   0  0  0  0  0  0  0  0  0  0  0  0
   40.4800   34.6110   39.6190 H   0  0  0  0  0  0  0  0  0  0  0  0
   39.1840   33.8240   38.6120 H   0  0  0  0  0  0  0  0  0  0  0  0
   41.1840   32.4650   38.6810 H   0  0  0  0  0  0  0  0  0  0  0  0
   41.2520   32.5480   40.4510 H   0  0  0  0  0  0  0  0  0  0  0  0
   39.2450   31.1220   38.6970 H   0  0  0  0  0  0  0  0  0  0  0  0
   35.8480   29.0220   39.7590 C   0  0  0  0  0  0  0  0  0  0  0  0
   36.7140   30.1240   39.6590 C   0  0  0  0  0  0  0  0  0  0  0  0
   37.6700   30.2820   40.6810 C   0  0  0  0  0  0  0  0  0  0  0  0
   37.6880   29.3660   41.6820 N   0  0  0  0  0  0  0  0  0  0  0  0
   36.8510   28.3250   41.7540 C   0  0  0  0  0  0  0  0  0  0  0  0
   35.9270   28.1620   40.7780 N   0  0  0  0  0  0  0  0  0  0  0  0
   36.6680   30.8320   38.8440 H   0  0  0  0  0  0  0  0  0  0  0  0
   34.8410   28.8730   38.6630 C   0  0  0  0  0  0  0  0  0  0  0  0
   33.5640   29.1460   39.1110 F   0  0  0  0  0  0  0  0  0  0  0  0
   35.2150   29.7080   37.6100 F   0  0  0  0  0  0  0  0  0  0  0  0
   34.9130   27.5860   38.1400 F   0  0  0  0  0  0  0  0  0  0  0  0
   36.9120   27.3520   42.8740 C   0  0  0  0  0  0  0  0  0  0  0  0
   35.8200   27.4370   43.6800 F   0  0  0  0  0  0  0  0  0  0  0  0
   38.1010   27.5640   43.6090 F   0  0  0  0  0  0  0  0  0  0  0  0
   37.0540   26.0690   42.4060 F   0  0  0  0  0  0  0  0  0  0  0  0
   40.6300   30.1180   39.9730 C   0  0  0  0  0  2  0  0  0  0  0  0
   41.8750   30.5910   40.7110 C   0  0  0  0  0  2  0  0  0  0  0  0
   42.6350   29.7860   40.7690 H   0  0  0  0  0  0  0  0  0  0  0  0
  1 19  1  0  0  0  0
  1  7  1  1  0  0  0
  2  1  1  0  0  0  0
  2  3  1  0  0  0  0
  2  9  1  0  0  0  0
  3 10  1  0  0  0  0
  3 11  1  0  0  0  0
  4  5  1  0  0  0  0
  4 12  1  0  0  0  0
  4  3  1  0  0  0  0
  5  6  1  0  0  0  0
  5 15  1  0  0  0  0
  6 16  1  6  0  0  0
  6 32  1  0  0  0  0
  6  1  1  0  0  0  0
  8  2  1  0  0  0  0
 13  4  1  0  0  0  0
 14  5  1  0  0  0  0
 17 22  1  0  0  0  0
 18 17  2  0  0  0  0
 18 19  1  0  0  0  0
 19 20  2  0  0  0  0
 20 21  1  0  0  0  0
 21 28  1  0  0  0  0
 22 21  2  0  0  0  0
 23 18  1  0  0  0  0
 24 25  1  0  0  0  0
 24 17  1  0  0  0  0
 26 24  1  0  0  0  0
 27 24  1  0  0  0  0
 28 30  1  0  0  0  0
 28 29  1  0  0  0  0
 31 28  1  0  0  0  0
 32 33  1  0  0  0  0
 33 34  1  0  0  0  0
M  END
>  <minimizedAffinity>
-5.31247663

$$$$

 OpenBabel03252502353D

 34 35  0  0  1  0  0  0  0  0999 V2000
   37.7710   26.9690   40.7190 C   0  0  2  0  0  0  0  0  0  0  0  0
   38.0070   25.9150   39.6230 C   0  0  0  0  0  0  0  0  0  0  0  0
   38.9400   24.8960   40.2750 C   0  0  0  0  0  0  0  0  0  0  0  0
   38.0590   24.1660   41.2610 C   0  0  0  0  0  0  0  0  0  0  0  0
   37.5630   25.0860   42.3160 C   0  0  0  0  0  0  0  0  0  0  0  0
   36.9650   26.3670   41.8140 C   0  0  1  0  0  0  0  0  0  0  0  0
   38.8080   27.2390   41.0420 H   0  0  0  0  0  0  0  0  0  0  0  0
   37.0730   25.4670   39.2780 H   0  0  0  0  0  0  0  0  0  0  0  0
   38.5880   26.4130   38.8230 H   0  0  0  0  0  0  0  0  0  0  0  0
   39.3700   24.2170   39.5350 H   0  0  0  0  0  0  0  0  0  0  0  0
   39.6860   25.4680   40.8550 H   0  0  0  0  0  0  0  0  0  0  0  0
   38.5730   23.3280   41.7570 H   0  0  0  0  0  0  0  0  0  0  0  0
   37.1850   23.7810   40.6710 H   0  0  0  0  0  0  0  0  0  0  0  0
   36.8080   24.5390   42.9370 H   0  0  0  0  0  0  0  0  0  0  0  0
   38.4010   25.3150   43.0060 H   0  0  0  0  0  0  0  0  0  0  0  0
   35.9800   26.0980   41.3720 H   0  0  0  0  0  0  0  0  0  0  0  0
   37.0600   30.4230   39.4320 C   0  0  0  0  0  0  0  0  0  0  0  0
   37.7450   29.3860   40.0890 C   0  0  0  0  0  0  0  0  0  0  0  0
   37.1490   28.1110   40.0670 C   0  0  0  0  0  0  0  0  0  0  0  0
   35.9650   27.9730   39.4190 N   0  0  0  0  0  0  0  0  0  0  0  0
   35.3330   28.9770   38.8000 C   0  0  0  0  0  0  0  0  0  0  0  0
   35.8950   30.2080   38.8140 N   0  0  0  0  0  0  0  0  0  0  0  0
   38.6880   29.5370   40.5940 H   0  0  0  0  0  0  0  0  0  0  0  0
   37.7110   31.7690   39.4660 C   0  0  0  0  0  0  0  0  0  0  0  0
   39.0850   31.6680   39.3830 F   0  0  0  0  0  0  0  0  0  0  0  0
   37.1790   32.5370   38.4290 F   0  0  0  0  0  0  0  0  0  0  0  0
   37.3370   32.4340   40.6300 F   0  0  0  0  0  0  0  0  0  0  0  0
   34.0360   28.7720   38.1060 C   0  0  0  0  0  0  0  0  0  0  0  0
   32.9830   29.1500   38.8770 F   0  0  0  0  0  0  0  0  0  0  0  0
   33.9230   27.4150   37.7250 F   0  0  0  0  0  0  0  0  0  0  0  0
   34.0080   29.4410   36.9070 F   0  0  0  0  0  0  0  0  0  0  0  0
   36.7620   27.2740   42.9720 C   0  0  0  0  0  2  0  0  0  0  0  0
   38.0830   27.5510   43.6770 C   0  0  0  0  0  2  0  0  0  0  0  0
   37.9190   28.0810   44.6380 H   0  0  0  0  0  0  0  0  0  0  0  0
  1  7  1  1  0  0  0
  1  6  1  0  0  0  0
  2  3  1  0  0  0  0
  2  1  1  0  0  0  0
  3 11  1  0  0  0  0
  3  4  1  0  0  0  0
  4 12  1  0  0  0  0
  4  5  1  0  0  0  0
  5 14  1  0  0  0  0
  5 15  1  0  0  0  0
  6 16  1  6  0  0  0
  6  5  1  0  0  0  0
  6 32  1  0  0  0  0
  8  2  1  0  0  0  0
  9  2  1  0  0  0  0
 10  3  1  0  0  0  0
 13  4  1  0  0  0  0
 17 24  1  0  0  0  0
 17 18  1  0  0  0  0
 18 23  1  0  0  0  0
 19 18  2  0  0  0  0
 19  1  1  0  0  0  0
 20 19  1  0  0  0  0
 21 22  1  0  0  0  0
 21 20  2  0  0  0  0
 22 17  2  0  0  0  0
 24 27  1  0  0  0  0
 25 24  1  0  0  0  0
 26 24  1  0  0  0  0
 28 21  1  0  0  0  0
 28 29  1  0  0  0  0
 30 28  1  0  0  0  0
 31 28  1  0  0  0  0
 32 33  1  0  0  0  0
 33 34  1  0  0  0  0
M  END
>  <minimizedAffinity>
-5.28685141

$$$$

 OpenBabel03252502353D

 34 35  0  0  1  0  0  0  0  0999 V2000
   38.4880   26.8910   42.4000 C   0  0  2  0  0  0  0  0  0  0  0  0
   39.9990   27.0920   42.6120 C   0  0  0  0  0  0  0  0  0  0  0  0
   40.3730   26.0550   43.6700 C   0  0  0  0  0  0  0  0  0  0  0  0
   40.3080   24.7370   42.9350 C   0  0  0  0  0  0  0  0  0  0  0  0
   38.9270   24.4530   42.4700 C   0  0  0  0  0  0  0  0  0  0  0  0
   38.2560   25.5780   41.7400 C   0  0  1  0  0  0  0  0  0  0  0  0
   38.0760   26.9320   43.4390 H   0  0  0  0  0  0  0  0  0  0  0  0
   40.5640   26.9660   41.6850 H   0  0  0  0  0  0  0  0  0  0  0  0
   40.1240   28.0860   43.0830 H   0  0  0  0  0  0  0  0  0  0  0  0
   41.3680   26.2420   44.0810 H   0  0  0  0  0  0  0  0  0  0  0  0
   39.5630   26.0570   44.4220 H   0  0  0  0  0  0  0  0  0  0  0  0
   40.6400   23.8860   43.5510 H   0  0  0  0  0  0  0  0  0  0  0  0
   40.9790   24.8460   42.0420 H   0  0  0  0  0  0  0  0  0  0  0  0
   38.9530   23.5450   41.8160 H   0  0  0  0  0  0  0  0  0  0  0  0
   38.3110   24.1640   43.3480 H   0  0  0  0  0  0  0  0  0  0  0  0
   38.7430   25.6350   40.7420 H   0  0  0  0  0  0  0  0  0  0  0  0
   38.1320   30.3380   40.9570 C   0  0  0  0  0  0  0  0  0  0  0  0
   38.6660   29.2900   41.7270 C   0  0  0  0  0  0  0  0  0  0  0  0
   38.0210   28.0410   41.6420 C   0  0  0  0  0  0  0  0  0  0  0  0
   36.9390   27.9370   40.8300 N   0  0  0  0  0  0  0  0  0  0  0  0
   36.4500   28.9510   40.1080 C   0  0  0  0  0  0  0  0  0  0  0  0
   37.0610   30.1570   40.1800 N   0  0  0  0  0  0  0  0  0  0  0  0
   39.5310   29.4130   42.3620 H   0  0  0  0  0  0  0  0  0  0  0  0
   38.8320   31.6550   41.0610 C   0  0  0  0  0  0  0  0  0  0  0  0
   37.9380   32.7070   41.0050 F   0  0  0  0  0  0  0  0  0  0  0  0
   39.5740   31.6630   42.2430 F   0  0  0  0  0  0  0  0  0  0  0  0
   39.7770   31.7590   40.0460 F   0  0  0  0  0  0  0  0  0  0  0  0
   35.2600   28.7840   39.2350 C   0  0  0  0  0  0  0  0  0  0  0  0
   35.1370   27.5090   38.7830 F   0  0  0  0  0  0  0  0  0  0  0  0
   35.3420   29.6970   38.1580 F   0  0  0  0  0  0  0  0  0  0  0  0
   34.1130   29.1670   39.8870 F   0  0  0  0  0  0  0  0  0  0  0  0
   36.8190   25.2410   41.5770 C   0  0  0  0  0  2  0  0  0  0  0  0
   36.6140   24.3260   40.3760 C   0  0  0  0  0  2  0  0  0  0  0  0
   35.5370   24.2100   40.1420 H   0  0  0  0  0  0  0  0  0  0  0  0
  1  2  1  0  0  0  0
  1  7  1  1  0  0  0
  2  9  1  0  0  0  0
  2  3  1  0  0  0  0
  3 10  1  0  0  0  0
  3 11  1  0  0  0  0
  4 12  1  0  0  0  0
  4  3  1  0  0  0  0
  5  4  1  0  0  0  0
  5 15  1  0  0  0  0
  6 16  1  6  0  0  0
  6  1  1  0  0  0  0
  6  5  1  0  0  0  0
  8  2  1  0  0  0  0
 13  4  1  0  0  0  0
 14  5  1  0  0  0  0
 17 24  1  0  0  0  0
 17 18  1  0  0  0  0
 18 23  1  0  0  0  0
 19 18  2  0  0  0  0
 19  1  1  0  0  0  0
 20 19  1  0  0  0  0
 21 22  1  0  0  0  0
 21 20  2  0  0  0  0
 22 17  2  0  0  0  0
 24 26  1  0  0  0  0
 25 24  1  0  0  0  0
 27 24  1  0  0  0  0
 28 31  1  0  0  0  0
 28 21  1  0  0  0  0
 29 28  1  0  0  0  0
 30 28  1  0  0  0  0
 32  6  1  0  0  0  0
 33 32  1  0  0  0  0
 34 33  1  0  0  0  0
M  END
>  <minimizedAffinity>
-5.23575783

$$$$

 OpenBabel03252502353D

 34 35  0  0  1  0  0  0  0  0999 V2000
   37.0090   27.8890   41.2970 C   0  0  2  0  0  0  0  0  0  0  0  0
   37.3370   28.9040   42.4050 C   0  0  0  0  0  0  0  0  0  0  0  0
   37.4060   28.0630   43.6790 C   0  0  0  0  0  0  0  0  0  0  0  0
   38.6940   27.2860   43.5410 C   0  0  0  0  0  0  0  0  0  0  0  0
   38.6390   26.3670   42.3760 C   0  0  0  0  0  0  0  0  0  0  0  0
   38.1760   26.9900   41.0930 C   0  0  1  0  0  0  0  0  0  0  0  0
   36.1130   27.3520   41.7000 H   0  0  0  0  0  0  0  0  0  0  0  0
   38.2690   29.4410   42.2070 H   0  0  0  0  0  0  0  0  0  0  0  0
   36.4530   29.5630   42.5060 H   0  0  0  0  0  0  0  0  0  0  0  0
   37.4050   28.6910   44.5740 H   0  0  0  0  0  0  0  0  0  0  0  0
   36.5730   27.3390   43.6310 H   0  0  0  0  0  0  0  0  0  0  0  0
   38.9320   26.6890   44.4340 H   0  0  0  0  0  0  0  0  0  0  0  0
   39.4990   28.0490   43.3670 H   0  0  0  0  0  0  0  0  0  0  0  0
   39.6550   25.9200   42.2300 H   0  0  0  0  0  0  0  0  0  0  0  0
   37.9770   25.5130   42.6320 H   0  0  0  0  0  0  0  0  0  0  0  0
   39.0120   27.6320   40.7400 H   0  0  0  0  0  0  0  0  0  0  0  0
   36.9240   30.4640   38.5670 C   0  0  0  0  0  0  0  0  0  0  0  0
   37.3780   29.7810   39.7080 C   0  0  0  0  0  0  0  0  0  0  0  0
   36.6290   28.6640   40.1260 C   0  0  0  0  0  0  0  0  0  0  0  0
   35.5300   28.3280   39.4050 N   0  0  0  0  0  0  0  0  0  0  0  0
   35.1190   28.9960   38.3210 C   0  0  0  0  0  0  0  0  0  0  0  0
   35.8300   30.0710   37.9080 N   0  0  0  0  0  0  0  0  0  0  0  0
   38.2600   30.0800   40.2560 H   0  0  0  0  0  0  0  0  0  0  0  0
   37.7330   31.6460   38.1390 C   0  0  0  0  0  0  0  0  0  0  0  0
   39.0390   31.5490   38.5790 F   0  0  0  0  0  0  0  0  0  0  0  0
   37.6560   31.7480   36.7490 F   0  0  0  0  0  0  0  0  0  0  0  0
   37.1400   32.8100   38.6160 F   0  0  0  0  0  0  0  0  0  0  0  0
   33.9060   28.5870   37.5670 C   0  0  0  0  0  0  0  0  0  0  0  0
   33.7660   27.2360   37.5260 F   0  0  0  0  0  0  0  0  0  0  0  0
   33.9650   29.1290   36.2630 F   0  0  0  0  0  0  0  0  0  0  0  0
   32.7780   29.1620   38.0980 F   0  0  0  0  0  0  0  0  0  0  0  0
   37.9270   25.9070   40.1090 C   0  0  0  0  0  2  0  0  0  0  0  0
   36.8330   24.9690   40.6040 C   0  0  0  0  0  2  0  0  0  0  0  0
   36.7620   24.0660   39.9650 H   0  0  0  0  0  0  0  0  0  0  0  0
  1  7  1  1  0  0  0
  1  2  1  0  0  0  0
  2  9  1  0  0  0  0
  2  3  1  0  0  0  0
  3 10  1  0  0  0  0
  4  3  1  0  0  0  0
  4 12  1  0  0  0  0
  5 15  1  0  0  0  0
  5  4  1  0  0  0  0
  6 16  1  6  0  0  0
  6  1  1  0  0  0  0
  6  5  1  0  0  0  0
  8  2  1  0  0  0  0
 11  3  1  0  0  0  0
 13  4  1  0  0  0  0
 14  5  1  0  0  0  0
 17 18  1  0  0  0  0
 18 19  2  0  0  0  0
 18 23  1  0  0  0  0
 19  1  1  0  0  0  0
 20 19  1  0  0  0  0
 21 20  2  0  0  0  0
 22 21  1  0  0  0  0
 22 17  2  0  0  0  0
 24 17  1  0  0  0  0
 24 25  1  0  0  0  0
 24 27  1  0  0  0  0
 26 24  1  0  0  0  0
 28 31  1  0  0  0  0
 28 21  1  0  0  0  0
 29 28  1  0  0  0  0
 30 28  1  0  0  0  0
 32 33  1  0  0  0  0
 32  6  1  0  0  0  0
 34 33  1  0  0  0  0
M  END
>  <minimizedAffinity>
-5.22277451

$$$$
