REMARK  Name = 
REMARK  4 active torsions:
REMARK  status: ('A' for Active; 'I' for Inactive)
REMARK    1  A    between atoms: C_2  and  N_10
REMARK    2  A    between atoms: C_3  and  C_7
REMARK    3  A    between atoms: C_9  and  C_22
REMARK    4  A    between atoms: C_20  and  C_21
REMARK                            x       y       z     vdW  Elec       q    Type
REMARK                         _______ _______ _______ _____ _____    ______ ____
ROOT
ATOM      1  C   UNL     1      46.540  34.971  41.936  0.00  0.00    +0.000 C 
ATOM      2  C   UNL     1      48.059  35.274  41.927  0.00  0.00    +0.000 C 
ATOM      3  C   UNL     1      47.393  33.974  41.403  0.00  0.00    +0.000 C 
ATOM      4  H   UNL     1      45.947  35.683  41.339  0.00  0.00    +0.000 HD
ATOM      5  H   UNL     1      48.631  35.204  42.845  0.00  0.00    +0.000 HD
ATOM      6  H   UNL     1      48.350  36.012  41.158  0.00  0.00    +0.000 HD
ATOM      7  H   UNL     1      47.678  33.073  41.984  0.00  0.00    +0.000 HD
ENDROOT
BRANCH   1  10
ATOM      8  C   UNL     1      44.619  35.468  45.126  0.00  0.00    +0.000 A 
ATOM      9  C   UNL     1      45.097  35.712  43.813  0.00  0.00    +0.000 A 
ATOM     10  C   UNL     1      46.042  34.830  43.362  0.00  0.00    +0.000 A 
ATOM     11  N   UNL     1      46.494  33.782  44.140  0.00  0.00    +0.000 NA
ATOM     12  C   UNL     1      46.014  33.588  45.382  0.00  0.00    +0.000 A 
ATOM     13  N   UNL     1      45.073  34.432  45.879  0.00  0.00    +0.000 NA
ATOM     14  H   UNL     1      43.869  36.163  45.490  0.00  0.00    +0.000 HD
ATOM     15  H   UNL     1      46.341  32.781  46.020  0.00  0.00    +0.000 HD
BRANCH   9  16
ATOM     16  N   UNL     1      44.652  36.811  43.021  0.00  0.00    +0.000 N 
ATOM     17  H   UNL     1      43.862  36.892  42.374  0.00  0.00    +0.000 HD
ATOM     18  H   UNL     1      45.341  37.567  43.252  0.00  0.00    +0.000 HD
ENDBRANCH   9  16
ENDBRANCH   1  10
BRANCH   3  20
ATOM     19  C   UNL     1      46.943  32.600  39.352  0.00  0.00    +0.000 A 
ATOM     20  C   UNL     1      47.496  33.723  39.937  0.00  0.00    +0.000 A 
ATOM     21  C   UNL     1      48.177  34.670  39.172  0.00  0.00    +0.000 A 
ATOM     22  H   UNL     1      48.630  35.574  39.592  0.00  0.00    +0.000 HD
ATOM     23  C   UNL     1      48.297  34.476  37.796  0.00  0.00    +0.000 A 
ATOM     24  H   UNL     1      48.826  35.202  37.170  0.00  0.00    +0.000 HD
ATOM     25  C   UNL     1      47.736  33.345  37.234  0.00  0.00    +0.000 A 
ATOM     26  C   UNL     1      47.056  32.393  37.977  0.00  0.00    +0.000 A 
BRANCH  19  28
ATOM     27  N   UNL     1      45.684  30.852  40.803  0.00  0.00    +0.000 NA
ATOM     28  C   UNL     1      46.248  31.640  40.155  0.00  0.00    +0.000 C 
ENDBRANCH  19  28
ENDBRANCH   3  20
TORSDOF 4
