
 OpenBabel03252509083D

 42 45  0  0  0  0  0  0  0  0999 V2000
   47.5180   31.7890   39.0020 C   0  0  0  0  0  0  0  0  0  0  0  0
   47.1190   33.0920   38.9820 C   0  0  0  0  0  0  0  0  0  0  0  0
   47.7970   34.0020   38.1900 C   0  0  0  0  0  0  0  0  0  0  0  0
   48.8630   33.6150   37.4260 C   0  0  0  0  0  0  0  0  0  0  0  0
   49.3040   32.2990   37.4160 C   0  0  0  0  0  0  0  0  0  0  0  0
   48.6090   31.3940   38.2190 C   0  0  0  0  0  0  0  0  0  0  0  0
   47.4970   35.0410   38.1580 H   0  0  0  0  0  0  0  0  0  0  0  0
   49.4220   34.2680   36.7980 H   0  0  0  0  0  0  0  0  0  0  0  0
   50.1190   31.9130   36.8550 H   0  0  0  0  0  0  0  0  0  0  0  0
   48.9240   30.3610   38.2360 H   0  0  0  0  0  0  0  0  0  0  0  0
   45.3300   35.4580   43.2100 Cl  0  0  0  0  0  0  0  0  0  0  0  0
   45.1470   34.6690   41.6620 C   0  0  0  0  0  0  0  0  0  0  0  0
   46.2260   34.2170   40.9740 C   0  0  0  0  0  0  0  0  0  0  0  0
   45.9910   33.6150   39.7490 C   0  0  0  0  0  0  0  0  0  0  0  0
   44.7340   33.4850   39.2520 C   0  0  0  0  0  0  0  0  0  0  0  0
   43.6540   33.9340   39.9350 C   0  0  0  0  0  0  0  0  0  0  0  0
   43.8740   34.5340   41.1570 C   0  0  0  0  0  0  0  0  0  0  0  0
   44.6000   33.0070   38.2800 H   0  0  0  0  0  0  0  0  0  0  0  0
   42.6600   33.8170   39.5160 H   0  0  0  0  0  0  0  0  0  0  0  0
   42.9970   34.8890   41.6950 H   0  0  0  0  0  0  0  0  0  0  0  0
   49.5670   35.7270   41.9270 C   0  0  0  0  0  0  0  0  0  0  0  0
   48.2900   35.5670   41.3800 C   0  0  0  0  0  0  0  0  0  0  0  0
   47.5620   34.3970   41.5390 C   0  0  0  0  0  0  0  0  0  0  0  0
   48.1820   33.4520   42.2510 N   0  0  0  0  0  0  0  0  0  0  0  0
   49.4040   33.5920   42.7800 C   0  0  0  0  0  0  0  0  0  0  0  0
   50.0920   34.7210   42.6200 N   0  0  0  0  0  0  0  0  0  0  0  0
   50.1010   36.6550   41.7780 H   0  0  0  0  0  0  0  0  0  0  0  0
   47.8680   36.3850   40.8190 H   0  0  0  0  0  0  0  0  0  0  0  0
   49.6920   32.6840   43.3160 H   0  0  0  0  0  0  0  0  0  0  0  0
   46.7820   30.6410   40.0020 S   0  0  0  0  0  0  0  0  0  0  0  0
   47.1810   29.2250   39.4630 O   0  0  0  0  0  0  0  0  0  0  0  0
   47.4490   30.7040   41.3440 O   0  0  0  0  0  0  0  0  0  0  0  0
   44.2970   30.5450   41.2580 C   0  0  0  0  0  0  0  0  0  0  0  0
   45.0930   30.3480   40.1030 C   0  0  0  0  0  0  0  0  0  0  0  0
   44.2940   29.8860   39.0660 C   0  0  0  0  0  0  0  0  0  0  0  0
   44.7530   29.7030   38.1050 H   0  0  0  0  0  0  0  0  0  0  0  0
   42.9400   29.6330   39.0850 C   0  0  0  0  0  0  0  0  0  0  0  0
   42.4050   29.2730   38.2180 H   0  0  0  0  0  0  0  0  0  0  0  0
   42.3050   29.8730   40.2840 C   0  0  0  0  0  0  0  0  0  0  0  0
   42.9460   30.3340   41.4110 C   0  0  0  0  0  0  0  0  0  0  0  0
   45.5320   31.5230   43.3750 N   0  0  0  0  0  0  0  0  0  0  0  0
   44.9770   31.0880   42.4330 C   0  0  0  0  0  0  0  0  0  0  0  0
  1 30  1  0  0  0  0
  2  1  1  0  0  0  0
  2 14  1  0  0  0  0
  3  2  2  0  0  0  0
  4  3  1  0  0  0  0
  5  4  2  0  0  0  0
  5  6  1  0  0  0  0
  6 10  1  0  0  0  0
  6  1  2  0  0  0  0
  7  3  1  0  0  0  0
  8  4  1  0  0  0  0
  9  5  1  0  0  0  0
 12 11  1  0  0  0  0
 13 23  1  0  0  0  0
 13 12  2  0  0  0  0
 14 13  1  0  0  0  0
 15 14  2  0  0  0  0
 15 16  1  0  0  0  0
 16 17  2  0  0  0  0
 17 12  1  0  0  0  0
 17 20  1  0  0  0  0
 18 15  1  0  0  0  0
 19 16  1  0  0  0  0
 21 26  1  0  0  0  0
 22 23  1  0  0  0  0
 22 21  2  0  0  0  0
 23 24  2  0  0  0  0
 24 25  1  0  0  0  0
 25 29  1  0  0  0  0
 26 25  2  0  0  0  0
 27 21  1  0  0  0  0
 28 22  1  0  0  0  0
 30 34  1  0  0  0  0
 30 32  2  0  0  0  0
 31 30  2  0  0  0  0
 33 40  1  0  0  0  0
 33 42  1  0  0  0  0
 34 33  2  0  0  0  0
 35 37  2  0  0  0  0
 35 34  1  0  0  0  0
 36 35  1  0  0  0  0
 37 39  1  0  0  0  0
 38 37  1  0  0  0  0
 39 40  2  0  0  0  0
 42 41  3  0  0  0  0
M  END
>  <minimizedAffinity>
-4.54121017

>  <minimizedRMSD>
1.13529658

$$$$
