REMARK  Name = 
REMARK  4 active torsions:
REMARK  status: ('A' for Active; 'I' for Inactive)
REMARK    1  A    between atoms: C_1  and  C_7
REMARK    2  A    between atoms: C_11  and  C_13
REMARK    3  A    between atoms: N_16  and  C_35
REMARK    4  A    between atoms: C_33  and  C_34
REMARK                            x       y       z     vdW  Elec       q    Type
REMARK                         _______ _______ _______ _____ _____    ______ ____
ROOT
ATOM      1  C   UNL     1      47.868  33.701  42.890  0.00  0.00    +0.000 A 
ATOM      2  C   UNL     1      48.584  34.900  42.713  0.00  0.00    +0.000 A 
ATOM      3  C   UNL     1      49.949  34.862  42.384  0.00  0.00    +0.000 A 
ATOM      4  N   UNL     1      50.500  33.614  42.255  0.00  0.00    +0.000 NA
ATOM      5  C   UNL     1      49.774  32.467  42.434  0.00  0.00    +0.000 A 
ATOM      6  N   UNL     1      48.487  32.527  42.745  0.00  0.00    +0.000 NA
ATOM      7  H   UNL     1      48.232  35.914  42.795  0.00  0.00    +0.000 HD
ATOM      8  H   UNL     1      50.557  35.729  42.234  0.00  0.00    +0.000 HD
ENDROOT
BRANCH   1   9
ATOM      9  C   UNL     1      46.446  33.866  43.239  0.00  0.00    +0.000 C 
ATOM     10  C   UNL     1      45.748  34.869  42.435  0.00  0.00    +0.000 C 
ATOM     11  C   UNL     1      45.338  36.082  43.189  0.00  0.00    +0.000 C 
ATOM     12  C   UNL     1      44.543  35.770  44.444  0.00  0.00    +0.000 C 
ATOM     13  C   UNL     1      44.990  34.518  45.160  0.00  0.00    +0.000 C 
ATOM     14  C   UNL     1      46.404  34.147  44.752  0.00  0.00    +0.000 C 
ATOM     15  H   UNL     1      45.966  32.846  43.157  0.00  0.00    +0.000 HD
ATOM     16  H   UNL     1      46.307  35.191  41.550  0.00  0.00    +0.000 HD
ATOM     17  H   UNL     1      44.803  34.411  42.019  0.00  0.00    +0.000 HD
ATOM     18  H   UNL     1      44.615  36.646  42.528  0.00  0.00    +0.000 HD
ATOM     19  H   UNL     1      46.111  36.801  43.445  0.00  0.00    +0.000 HD
ATOM     20  H   UNL     1      43.443  35.748  44.230  0.00  0.00    +0.000 HD
ATOM     21  H   UNL     1      44.674  36.599  45.171  0.00  0.00    +0.000 HD
ATOM     22  H   UNL     1      44.307  33.677  44.864  0.00  0.00    +0.000 HD
ATOM     23  H   UNL     1      44.954  34.583  46.254  0.00  0.00    +0.000 HD
ATOM     24  H   UNL     1      47.079  34.998  44.914  0.00  0.00    +0.000 HD
ATOM     25  H   UNL     1      46.718  33.246  45.293  0.00  0.00    +0.000 HD
ENDBRANCH   1   9
BRANCH   5  26
ATOM     26  C   UNL     1      50.528  31.226  42.264  0.00  0.00    +0.000 A 
ATOM     27  N   UNL     1      51.576  31.251  41.411  0.00  0.00    +0.000 NA
ATOM     28  C   UNL     1      52.152  30.039  41.379  0.00  0.00    +0.000 A 
ATOM     29  N   UNL     1      51.440  29.253  42.233  0.00  0.00    +0.000 N 
ATOM     30  N   UNL     1      50.443  29.977  42.778  0.00  0.00    +0.000 NA
ATOM     31  H   UNL     1      53.009  29.673  40.821  0.00  0.00    +0.000 HD
BRANCH  29  33
ATOM     32  C   UNL     1      52.720  27.104  42.394  0.00  0.00    +0.000 A 
ATOM     33  C   UNL     1      51.597  27.884  42.596  0.00  0.00    +0.000 A 
ATOM     34  C   UNL     1      50.467  27.335  43.213  0.00  0.00    +0.000 A 
ATOM     35  H   UNL     1      49.549  27.907  43.399  0.00  0.00    +0.000 HD
ATOM     36  C   UNL     1      50.440  26.018  43.632  0.00  0.00    +0.000 A 
ATOM     37  H   UNL     1      49.557  25.609  44.108  0.00  0.00    +0.000 HD
ATOM     38  C   UNL     1      51.589  25.268  43.410  0.00  0.00    +0.000 A 
ATOM     39  C   UNL     1      52.718  25.782  42.804  0.00  0.00    +0.000 A 
BRANCH  32  41
ATOM     40  N   UNL     1      54.740  28.247  41.255  0.00  0.00    +0.000 NA
ATOM     41  C   UNL     1      53.818  27.734  41.764  0.00  0.00    +0.000 C 
ENDBRANCH  32  41
ENDBRANCH  29  33
ENDBRANCH   5  26
TORSDOF 4
