
 OpenBabel03252507483D

 38 40  0  0  0  0  0  0  0  0999 V2000
   36.7470   31.7920   40.2770 C   0  0  0  0  0  0  0  0  0  0  0  0
   35.7430   32.2730   40.3260 H   0  0  0  0  0  0  0  0  0  0  0  0
   36.9590   31.1430   41.1520 H   0  0  0  0  0  0  0  0  0  0  0  0
   36.8020   31.0640   39.0050 C   0  0  0  0  0  0  0  0  0  0  0  0
   36.2510   29.7920   39.0100 C   0  0  0  0  0  0  0  0  0  0  0  0
   36.2680   29.0120   37.8490 C   0  0  0  0  0  0  0  0  0  0  0  0
   36.8420   29.5560   36.7330 N   0  0  0  0  0  0  0  0  0  0  0  0
   37.3680   30.8050   36.7760 C   0  0  0  0  0  0  0  0  0  0  0  0
   37.3380   31.5240   37.8940 N   0  0  0  0  0  0  0  0  0  0  0  0
   35.8320   28.0300   37.8900 H   0  0  0  0  0  0  0  0  0  0  0  0
   37.8270   31.2560   35.9080 H   0  0  0  0  0  0  0  0  0  0  0  0
   35.5140   29.0850   40.4930 S   0  0  0  0  0  0  0  0  0  0  0  0
   37.2420   26.9280   41.3050 C   0  0  0  0  0  0  0  0  0  0  0  0
   36.7120   28.1870   41.4550 C   0  0  0  0  0  0  0  0  0  0  0  0
   37.1460   28.9500   42.5470 C   0  0  0  0  0  0  0  0  0  0  0  0
   36.8350   29.9610   42.8210 H   0  0  0  0  0  0  0  0  0  0  0  0
   38.0810   28.4660   43.4580 C   0  0  0  0  0  0  0  0  0  0  0  0
   38.4510   28.9960   44.3060 H   0  0  0  0  0  0  0  0  0  0  0  0
   38.6040   27.1840   43.2810 C   0  0  0  0  0  3  0  0  0  0  0  0
   38.1640   26.4580   42.2060 C   0  0  0  0  0  3  0  0  0  0  0  0
   36.3180   25.6440   39.2690 N   0  0  0  0  0  0  0  0  0  0  0  0
   36.7380   26.2130   40.1900 C   0  0  0  0  0  0  0  0  0  0  0  0
   37.7440   32.9190   40.3600 C   0  0  0  0  0  0  0  0  0  0  0  0
   37.4880   33.5880   41.2120 H   0  0  0  0  0  0  0  0  0  0  0  0
   37.6960   33.5560   39.4450 H   0  0  0  0  0  0  0  0  0  0  0  0
   39.1590   32.4700   40.4940 C   0  0  0  0  0  0  0  0  0  0  0  0
   39.5430   31.6910   41.6290 C   0  0  0  0  0  0  0  0  0  0  0  0
   41.3320   31.4000   41.3390 S   0  0  0  0  0  0  0  0  0  0  0  0
   41.2550   32.3930   39.7140 C   0  0  0  0  0  0  0  0  0  0  0  0
   40.1560   32.6960   39.6850 N   0  0  0  0  0  0  0  0  0  0  0  0
   38.9030   31.3680   42.4460 H   0  0  0  0  0  0  0  0  0  0  0  0
   42.3640   32.5960   38.8920 O   0  0  0  0  0  0  0  0  0  0  0  0
   42.8600   31.5130   36.5290 O   0  0  0  0  0  0  0  0  0  0  0  0
   42.1040   32.6370   37.2200 P   0  0  0  0  0  0  0  0  0  0  0  0
   40.4520   32.4340   36.9430 O   0  0  0  0  0  0  0  0  0  0  0  0
   40.2680   31.4600   37.0330 H   0  0  0  0  0  0  0  0  0  0  0  0
   42.5690   34.1540   36.6100 O   0  0  0  0  0  0  0  0  0  0  0  0
   43.5540   34.2460   36.6160 H   0  0  0  0  0  0  0  0  0  0  0  0
  1  2  1  0  0  0  0
  1 23  1  0  0  0  0
  1  3  1  0  0  0  0
  4  5  1  0  0  0  0
  4  1  1  0  0  0  0
  5 12  1  0  0  0  0
  6 10  1  0  0  0  0
  6  5  2  0  0  0  0
  7  8  2  0  0  0  0
  7  6  1  0  0  0  0
  8  9  1  0  0  0  0
  9  4  2  0  0  0  0
 11  8  1  0  0  0  0
 12 14  1  0  0  0  0
 13 14  2  0  0  0  0
 13 20  1  0  0  0  0
 14 15  1  0  0  0  0
 15 16  1  0  0  0  0
 15 17  2  0  0  0  0
 17 18  1  0  0  0  0
 19 17  1  0  0  0  0
 20 19  2  0  0  0  0
 21 22  3  0  0  0  0
 22 13  1  0  0  0  0
 23 26  1  0  0  0  0
 23 24  1  0  0  0  0
 25 23  1  0  0  0  0
 26 27  2  0  0  0  0
 27 31  1  0  0  0  0
 28 27  1  0  0  0  0
 29 28  1  0  0  0  0
 30 29  2  0  0  0  0
 30 26  1  0  0  0  0
 32 29  1  0  0  0  0
 33 34  2  0  0  0  0
 34 32  1  0  0  0  0
 35 36  1  0  0  0  0
 35 34  1  0  0  0  0
 37 38  1  0  0  0  0
 37 34  1  0  0  0  0
M  END
>  <minimizedAffinity>
-6.16069794

$$$$

 OpenBabel03252507483D

 38 40  0  0  0  0  0  0  0  0999 V2000
   35.2050   29.1050   39.0060 C   0  0  0  0  0  0  0  0  0  0  0  0
   35.6050   28.5590   39.8910 H   0  0  0  0  0  0  0  0  0  0  0  0
   34.2490   29.6270   39.2160 H   0  0  0  0  0  0  0  0  0  0  0  0
   36.2640   30.0170   38.5620 C   0  0  0  0  0  0  0  0  0  0  0  0
   36.8920   30.7480   39.5590 C   0  0  0  0  0  0  0  0  0  0  0  0
   37.9060   31.6560   39.2340 C   0  0  0  0  0  0  0  0  0  0  0  0
   38.2390   31.7830   37.9140 N   0  0  0  0  0  0  0  0  0  0  0  0
   37.5970   31.0460   36.9740 C   0  0  0  0  0  0  0  0  0  0  0  0
   36.6360   30.1910   37.3110 N   0  0  0  0  0  0  0  0  0  0  0  0
   38.3700   32.2060   40.0330 H   0  0  0  0  0  0  0  0  0  0  0  0
   37.8410   31.1290   35.9260 H   0  0  0  0  0  0  0  0  0  0  0  0
   36.4280   30.5800   41.2910 S   0  0  0  0  0  0  0  0  0  0  0  0
   38.6100   29.2090   42.5780 C   0  0  0  0  0  0  0  0  0  0  0  0
   37.3280   29.2660   42.0840 C   0  0  0  0  0  0  0  0  0  0  0  0
   36.5390   28.1130   42.1850 C   0  0  0  0  0  0  0  0  0  0  0  0
   35.5080   27.9790   41.8480 H   0  0  0  0  0  0  0  0  0  0  0  0
   37.0180   26.9410   42.7640 C   0  0  0  0  0  0  0  0  0  0  0  0
   36.4690   26.0340   42.8710 H   0  0  0  0  0  0  0  0  0  0  0  0
   38.3240   26.9100   43.2590 C   0  0  0  0  0  3  0  0  0  0  0  0
   39.0750   28.0500   43.1480 C   0  0  0  0  0  3  0  0  0  0  0  0
   39.9740   31.3780   42.2920 N   0  0  0  0  0  0  0  0  0  0  0  0
   39.3500   30.4060   42.4200 C   0  0  0  0  0  0  0  0  0  0  0  0
   34.8690   28.0440   37.9890 C   0  0  0  0  0  0  0  0  0  0  0  0
   34.7830   27.0540   38.4900 H   0  0  0  0  0  0  0  0  0  0  0  0
   35.6930   27.9390   37.2430 H   0  0  0  0  0  0  0  0  0  0  0  0
   33.6250   28.3160   37.2150 C   0  0  0  0  0  0  0  0  0  0  0  0
   33.3490   27.5520   36.0400 C   0  0  0  0  0  0  0  0  0  0  0  0
   31.7510   28.2480   35.4640 S   0  0  0  0  0  0  0  0  0  0  0  0
   31.7290   29.4690   36.9290 C   0  0  0  0  0  0  0  0  0  0  0  0
   32.6990   29.2000   37.4640 N   0  0  0  0  0  0  0  0  0  0  0  0
   33.9610   26.7580   35.6190 H   0  0  0  0  0  0  0  0  0  0  0  0
   30.7010   30.3900   37.1360 O   0  0  0  0  0  0  0  0  0  0  0  0
   28.7040   29.1390   38.3390 O   0  0  0  0  0  0  0  0  0  0  0  0
   29.7610   30.2150   38.5330 P   0  0  0  0  0  0  0  0  0  0  0  0
   30.7830   29.7540   39.7950 O   0  0  0  0  0  0  0  0  0  0  0  0
   30.9490   28.7800   39.6820 H   0  0  0  0  0  0  0  0  0  0  0  0
   29.0520   31.7070   38.9310 O   0  0  0  0  0  0  0  0  0  0  0  0
   28.3350   31.9360   38.2900 H   0  0  0  0  0  0  0  0  0  0  0  0
  1  3  1  0  0  0  0
  1  2  1  0  0  0  0
  4  1  1  0  0  0  0
  4  5  1  0  0  0  0
  5 12  1  0  0  0  0
  6  5  2  0  0  0  0
  6 10  1  0  0  0  0
  7  6  1  0  0  0  0
  8  9  1  0  0  0  0
  8  7  2  0  0  0  0
  9  4  2  0  0  0  0
 11  8  1  0  0  0  0
 12 14  1  0  0  0  0
 13 20  1  0  0  0  0
 14 15  1  0  0  0  0
 14 13  2  0  0  0  0
 15 17  2  0  0  0  0
 16 15  1  0  0  0  0
 17 18  1  0  0  0  0
 17 19  1  0  0  0  0
 20 19  2  0  0  0  0
 21 22  3  0  0  0  0
 22 13  1  0  0  0  0
 23 24  1  0  0  0  0
 23  1  1  0  0  0  0
 25 23  1  0  0  0  0
 26 30  1  0  0  0  0
 26 23  1  0  0  0  0
 27 26  2  0  0  0  0
 28 27  1  0  0  0  0
 28 29  1  0  0  0  0
 29 32  1  0  0  0  0
 29 30  2  0  0  0  0
 31 27  1  0  0  0  0
 32 34  1  0  0  0  0
 33 34  2  0  0  0  0
 34 37  1  0  0  0  0
 34 35  1  0  0  0  0
 36 35  1  0  0  0  0
 38 37  1  0  0  0  0
M  END
>  <minimizedAffinity>
-5.86040878

$$$$

 OpenBabel03252507483D

 38 40  0  0  0  0  0  0  0  0999 V2000
   37.5160   29.6340   38.0370 C   0  0  0  0  0  0  0  0  0  0  0  0
   38.1690   29.2630   38.8610 H   0  0  0  0  0  0  0  0  0  0  0  0
   38.0820   29.8910   37.1180 H   0  0  0  0  0  0  0  0  0  0  0  0
   36.5020   28.5990   37.8080 C   0  0  0  0  0  0  0  0  0  0  0  0
   36.7500   27.3670   38.3950 C   0  0  0  0  0  0  0  0  0  0  0  0
   35.8490   26.3110   38.2230 C   0  0  0  0  0  0  0  0  0  0  0  0
   34.7360   26.5490   37.4640 N   0  0  0  0  0  0  0  0  0  0  0  0
   34.5360   27.7710   36.9110 C   0  0  0  0  0  0  0  0  0  0  0  0
   35.4100   28.7570   37.0900 N   0  0  0  0  0  0  0  0  0  0  0  0
   36.0740   25.3700   38.6920 H   0  0  0  0  0  0  0  0  0  0  0  0
   33.6660   27.9830   36.3080 H   0  0  0  0  0  0  0  0  0  0  0  0
   38.2290   27.0670   39.3770 S   0  0  0  0  0  0  0  0  0  0  0  0
   38.7860   28.6450   41.7210 C   0  0  0  0  0  0  0  0  0  0  0  0
   38.0590   27.7050   41.0290 C   0  0  0  0  0  0  0  0  0  0  0  0
   36.9830   27.0980   41.6880 C   0  0  0  0  0  0  0  0  0  0  0  0
   36.3030   26.3370   41.2960 H   0  0  0  0  0  0  0  0  0  0  0  0
   36.6450   27.4230   42.9990 C   0  0  0  0  0  0  0  0  0  0  0  0
   35.8400   26.9980   43.5540 H   0  0  0  0  0  0  0  0  0  0  0  0
   37.3990   28.3810   43.6800 C   0  0  0  0  0  3  0  0  0  0  0  0
   38.4460   28.9600   43.0130 C   0  0  0  0  0  3  0  0  0  0  0  0
   40.7480   29.6680   40.3990 N   0  0  0  0  0  0  0  0  0  0  0  0
   39.8690   29.1970   40.9930 C   0  0  0  0  0  0  0  0  0  0  0  0
   36.9360   30.9350   38.5290 C   0  0  0  0  0  0  0  0  0  0  0  0
   36.0580   30.7340   39.1830 H   0  0  0  0  0  0  0  0  0  0  0  0
   36.5500   31.5410   37.6750 H   0  0  0  0  0  0  0  0  0  0  0  0
   37.9080   31.7960   39.2590 C   0  0  0  0  0  0  0  0  0  0  0  0
   37.7090   32.0550   40.6510 C   0  0  0  0  0  0  0  0  0  0  0  0
   39.1310   33.1350   41.0750 S   0  0  0  0  0  0  0  0  0  0  0  0
   39.7600   33.0520   39.2770 C   0  0  0  0  0  0  0  0  0  0  0  0
   38.9740   32.3840   38.7920 N   0  0  0  0  0  0  0  0  0  0  0  0
   36.8990   31.6840   41.2740 H   0  0  0  0  0  0  0  0  0  0  0  0
   40.9130   33.7070   38.8430 O   0  0  0  0  0  0  0  0  0  0  0  0
   42.8410   32.0080   38.2140 O   0  0  0  0  0  0  0  0  0  0  0  0
   41.8220   32.9680   37.6220 P   0  0  0  0  0  0  0  0  0  0  0  0
   40.7630   32.0990   36.6360 O   0  0  0  0  0  0  0  0  0  0  0  0
   40.5620   31.2500   37.1170 H   0  0  0  0  0  0  0  0  0  0  0  0
   42.5800   34.1600   36.6770 O   0  0  0  0  0  0  0  0  0  0  0  0
   43.3170   34.5890   37.1800 H   0  0  0  0  0  0  0  0  0  0  0  0
  1 23  1  0  0  0  0
  1  2  1  0  0  0  0
  3  1  1  0  0  0  0
  4  1  1  0  0  0  0
  4  5  1  0  0  0  0
  5 12  1  0  0  0  0
  6  5  2  0  0  0  0
  6 10  1  0  0  0  0
  7  6  1  0  0  0  0
  8  9  1  0  0  0  0
  8  7  2  0  0  0  0
  9  4  2  0  0  0  0
 11  8  1  0  0  0  0
 12 14  1  0  0  0  0
 13 20  1  0  0  0  0
 14 15  1  0  0  0  0
 14 13  2  0  0  0  0
 15 17  2  0  0  0  0
 16 15  1  0  0  0  0
 17 18  1  0  0  0  0
 17 19  1  0  0  0  0
 20 19  2  0  0  0  0
 21 22  3  0  0  0  0
 22 13  1  0  0  0  0
 23 24  1  0  0  0  0
 23 26  1  0  0  0  0
 25 23  1  0  0  0  0
 26 27  2  0  0  0  0
 27 28  1  0  0  0  0
 27 31  1  0  0  0  0
 29 28  1  0  0  0  0
 30 26  1  0  0  0  0
 30 29  2  0  0  0  0
 32 29  1  0  0  0  0
 34 33  2  0  0  0  0
 34 32  1  0  0  0  0
 35 36  1  0  0  0  0
 35 34  1  0  0  0  0
 37 38  1  0  0  0  0
 37 34  1  0  0  0  0
M  END
>  <minimizedAffinity>
-5.62932444

$$$$

 OpenBabel03252507483D

 38 40  0  0  0  0  0  0  0  0999 V2000
   36.3400   29.5940   40.3900 C   0  0  0  0  0  0  0  0  0  0  0  0
   35.2450   29.8020   40.3940 H   0  0  0  0  0  0  0  0  0  0  0  0
   36.8610   30.0020   41.2800 H   0  0  0  0  0  0  0  0  0  0  0  0
   36.4900   28.1410   40.2610 C   0  0  0  0  0  0  0  0  0  0  0  0
   37.0100   27.4850   41.3660 C   0  0  0  0  0  0  0  0  0  0  0  0
   37.2040   26.1000   41.3360 C   0  0  0  0  0  0  0  0  0  0  0  0
   36.8630   25.4400   40.1870 N   0  0  0  0  0  0  0  0  0  0  0  0
   36.3570   26.1250   39.1310 C   0  0  0  0  0  0  0  0  0  0  0  0
   36.1840   27.4420   39.1880 N   0  0  0  0  0  0  0  0  0  0  0  0
   37.6090   25.6250   42.2110 H   0  0  0  0  0  0  0  0  0  0  0  0
   36.0820   25.6270   38.2140 H   0  0  0  0  0  0  0  0  0  0  0  0
   37.4690   28.3720   42.8640 S   0  0  0  0  0  0  0  0  0  0  0  0
   40.3170   28.0290   43.1190 C   0  0  0  0  0  0  0  0  0  0  0  0
   39.1980   28.7890   42.8740 C   0  0  0  0  0  0  0  0  0  0  0  0
   39.3840   30.1460   42.5800 C   0  0  0  0  0  0  0  0  0  0  0  0
   38.6170   30.8930   42.3620 H   0  0  0  0  0  0  0  0  0  0  0  0
   40.6510   30.7220   42.5330 C   0  0  0  0  0  0  0  0  0  0  0  0
   40.8580   31.7450   42.3150 H   0  0  0  0  0  0  0  0  0  0  0  0
   41.7710   29.9270   42.7850 C   0  0  0  0  0  3  0  0  0  0  0  0
   41.5620   28.6040   43.0700 C   0  0  0  0  0  3  0  0  0  0  0  0
   39.8400   25.5570   43.6760 N   0  0  0  0  0  0  0  0  0  0  0  0
   40.0450   26.6730   43.4290 C   0  0  0  0  0  0  0  0  0  0  0  0
   36.8960   30.3550   39.2140 C   0  0  0  0  0  0  0  0  0  0  0  0
   36.0630   30.7630   38.5990 H   0  0  0  0  0  0  0  0  0  0  0  0
   37.4700   29.6750   38.5400 H   0  0  0  0  0  0  0  0  0  0  0  0
   37.8200   31.4630   39.5890 C   0  0  0  0  0  0  0  0  0  0  0  0
   37.3460   32.5170   40.4300 C   0  0  0  0  0  0  0  0  0  0  0  0
   38.8160   33.6030   40.5940 S   0  0  0  0  0  0  0  0  0  0  0  0
   39.8340   32.4330   39.4850 C   0  0  0  0  0  0  0  0  0  0  0  0
   39.0670   31.6240   39.2450 N   0  0  0  0  0  0  0  0  0  0  0  0
   36.3490   32.6170   40.8510 H   0  0  0  0  0  0  0  0  0  0  0  0
   41.1690   32.6670   39.1550 O   0  0  0  0  0  0  0  0  0  0  0  0
   42.3400   33.8810   37.1160 O   0  0  0  0  0  0  0  0  0  0  0  0
   41.5930   32.6190   37.5170 P   0  0  0  0  0  0  0  0  0  0  0  0
   42.6030   31.2880   37.2780 O   0  0  0  0  0  0  0  0  0  0  0  0
   43.5080   31.5600   37.5910 H   0  0  0  0  0  0  0  0  0  0  0  0
   40.1940   32.4090   36.5750 O   0  0  0  0  0  0  0  0  0  0  0  0
   39.6490   33.2340   36.5690 H   0  0  0  0  0  0  0  0  0  0  0  0
  1  2  1  0  0  0  0
  1  3  1  0  0  0  0
  4  1  1  0  0  0  0
  4  5  1  0  0  0  0
  5 12  1  0  0  0  0
  6  5  2  0  0  0  0
  6 10  1  0  0  0  0
  7  6  1  0  0  0  0
  8  9  1  0  0  0  0
  8  7  2  0  0  0  0
  9  4  2  0  0  0  0
 11  8  1  0  0  0  0
 12 14  1  0  0  0  0
 13 22  1  0  0  0  0
 14 13  2  0  0  0  0
 15 14  1  0  0  0  0
 16 15  1  0  0  0  0
 17 15  2  0  0  0  0
 17 19  1  0  0  0  0
 18 17  1  0  0  0  0
 19 20  2  0  0  0  0
 20 13  1  0  0  0  0
 22 21  3  0  0  0  0
 23 26  1  0  0  0  0
 23  1  1  0  0  0  0
 24 23  1  0  0  0  0
 25 23  1  0  0  0  0
 26 27  2  0  0  0  0
 27 28  1  0  0  0  0
 27 31  1  0  0  0  0
 29 28  1  0  0  0  0
 30 29  2  0  0  0  0
 30 26  1  0  0  0  0
 32 29  1  0  0  0  0
 33 34  2  0  0  0  0
 34 32  1  0  0  0  0
 35 34  1  0  0  0  0
 35 36  1  0  0  0  0
 37 34  1  0  0  0  0
 38 37  1  0  0  0  0
M  END
>  <minimizedAffinity>
-5.53376722

$$$$

 OpenBabel03252507483D

 38 40  0  0  0  0  0  0  0  0999 V2000
   36.7610   27.1590   42.1560 C   0  0  0  0  0  0  0  0  0  0  0  0
   36.7210   27.9510   41.3730 H   0  0  0  0  0  0  0  0  0  0  0  0
   35.7960   27.0260   42.6860 H   0  0  0  0  0  0  0  0  0  0  0  0
   37.2170   25.9340   41.4910 C   0  0  0  0  0  0  0  0  0  0  0  0
   37.6310   26.0770   40.1750 C   0  0  0  0  0  0  0  0  0  0  0  0
   38.0710   24.9640   39.4500 C   0  0  0  0  0  0  0  0  0  0  0  0
   38.0720   23.7550   40.0910 N   0  0  0  0  0  0  0  0  0  0  0  0
   37.6590   23.6650   41.3790 C   0  0  0  0  0  0  0  0  0  0  0  0
   37.2450   24.7400   42.0440 N   0  0  0  0  0  0  0  0  0  0  0  0
   38.3840   25.1120   38.4330 H   0  0  0  0  0  0  0  0  0  0  0  0
   37.6500   22.7220   41.9050 H   0  0  0  0  0  0  0  0  0  0  0  0
   37.6070   27.6730   39.3430 S   0  0  0  0  0  0  0  0  0  0  0  0
   35.7540   27.5060   37.1440 C   0  0  0  0  0  0  0  0  0  0  0  0
   36.1080   27.9030   38.4110 C   0  0  0  0  0  0  0  0  0  0  0  0
   35.1680   28.6300   39.1530 C   0  0  0  0  0  0  0  0  0  0  0  0
   35.2770   29.0240   40.1660 H   0  0  0  0  0  0  0  0  0  0  0  0
   33.9130   28.9480   38.6400 C   0  0  0  0  0  0  0  0  0  0  0  0
   33.1560   29.4960   39.1530 H   0  0  0  0  0  0  0  0  0  0  0  0
   33.5780   28.5310   37.3500 C   0  0  0  0  0  3  0  0  0  0  0  0
   34.5150   27.8220   36.6460 C   0  0  0  0  0  3  0  0  0  0  0  0
   37.5820   26.2080   35.8690 N   0  0  0  0  0  0  0  0  0  0  0  0
   36.7650   26.7940   36.4520 C   0  0  0  0  0  0  0  0  0  0  0  0
   37.7260   27.6630   43.1990 C   0  0  0  0  0  0  0  0  0  0  0  0
   38.3330   26.8170   43.5920 H   0  0  0  0  0  0  0  0  0  0  0  0
   37.1760   28.0800   44.0750 H   0  0  0  0  0  0  0  0  0  0  0  0
   38.6360   28.7390   42.7140 C   0  0  0  0  0  0  0  0  0  0  0  0
   40.0490   28.5800   42.8570 C   0  0  0  0  0  0  0  0  0  0  0  0
   40.7120   30.1300   42.1310 S   0  0  0  0  0  0  0  0  0  0  0  0
   38.9450   30.7380   41.7550 C   0  0  0  0  0  0  0  0  0  0  0  0
   38.3180   29.8710   42.1490 N   0  0  0  0  0  0  0  0  0  0  0  0
   40.5700   27.7310   43.2940 H   0  0  0  0  0  0  0  0  0  0  0  0
   38.6750   31.9630   41.1450 O   0  0  0  0  0  0  0  0  0  0  0  0
   37.4530   31.3020   38.8930 O   0  0  0  0  0  0  0  0  0  0  0  0
   37.2810   32.0740   40.1910 P   0  0  0  0  0  0  0  0  0  0  0  0
   36.0000   31.4000   41.0590 O   0  0  0  0  0  0  0  0  0  0  0  0
   36.0860   30.4130   40.9690 H   0  0  0  0  0  0  0  0  0  0  0  0
   36.9260   33.7080   39.8910 O   0  0  0  0  0  0  0  0  0  0  0  0
   37.5790   34.0970   39.2560 H   0  0  0  0  0  0  0  0  0  0  0  0
  1  3  1  0  0  0  0
  1 23  1  0  0  0  0
  2  1  1  0  0  0  0
  4  9  1  0  0  0  0
  4  1  1  0  0  0  0
  5  4  2  0  0  0  0
  6  7  2  0  0  0  0
  6  5  1  0  0  0  0
  7  8  1  0  0  0  0
  8 11  1  0  0  0  0
  8  9  2  0  0  0  0
 10  6  1  0  0  0  0
 12  5  1  0  0  0  0
 13 14  1  0  0  0  0
 14 15  2  0  0  0  0
 14 12  1  0  0  0  0
 15 16  1  0  0  0  0
 17 18  1  0  0  0  0
 17 15  1  0  0  0  0
 19 17  2  0  0  0  0
 20 13  2  0  0  0  0
 20 19  1  0  0  0  0
 21 22  3  0  0  0  0
 22 13  1  0  0  0  0
 23 24  1  0  0  0  0
 23 25  1  0  0  0  0
 26 27  2  0  0  0  0
 26 23  1  0  0  0  0
 27 31  1  0  0  0  0
 28 27  1  0  0  0  0
 29 28  1  0  0  0  0
 29 30  2  0  0  0  0
 30 26  1  0  0  0  0
 32 29  1  0  0  0  0
 33 34  2  0  0  0  0
 34 35  1  0  0  0  0
 34 32  1  0  0  0  0
 36 35  1  0  0  0  0
 37 34  1  0  0  0  0
 38 37  1  0  0  0  0
M  END
>  <minimizedAffinity>
-5.52575159

$$$$

 OpenBabel03252507483D

 38 40  0  0  0  0  0  0  0  0999 V2000
   37.0710   30.3370   39.3880 C   0  0  0  0  0  0  0  0  0  0  0  0
   35.9680   30.2640   39.5310 H   0  0  0  0  0  0  0  0  0  0  0  0
   37.6270   30.4320   40.3430 H   0  0  0  0  0  0  0  0  0  0  0  0
   37.4720   29.1580   38.6130 C   0  0  0  0  0  0  0  0  0  0  0  0
   37.4130   27.9450   39.2810 C   0  0  0  0  0  0  0  0  0  0  0  0
   37.7890   26.7640   38.6320 C   0  0  0  0  0  0  0  0  0  0  0  0
   38.2080   26.8640   37.3340 N   0  0  0  0  0  0  0  0  0  0  0  0
   38.2490   28.0740   36.7210 C   0  0  0  0  0  0  0  0  0  0  0  0
   37.8860   29.1800   37.3630 N   0  0  0  0  0  0  0  0  0  0  0  0
   37.7300   25.8420   39.1810 H   0  0  0  0  0  0  0  0  0  0  0  0
   38.5770   28.1780   35.6980 H   0  0  0  0  0  0  0  0  0  0  0  0
   36.8740   27.8340   40.9960 S   0  0  0  0  0  0  0  0  0  0  0  0
   39.1640   27.9890   42.7360 C   0  0  0  0  0  0  0  0  0  0  0  0
   38.1910   27.2900   42.0620 C   0  0  0  0  0  0  0  0  0  0  0  0
   38.1850   25.8950   42.1880 C   0  0  0  0  0  0  0  0  0  0  0  0
   37.4930   25.1860   41.7260 H   0  0  0  0  0  0  0  0  0  0  0  0
   39.1240   25.2220   42.9660 C   0  0  0  0  0  0  0  0  0  0  0  0
   39.1720   24.1660   43.1020 H   0  0  0  0  0  0  0  0  0  0  0  0
   40.1010   25.9570   43.6410 C   0  0  0  0  0  3  0  0  0  0  0  0
   40.0850   27.3190   43.5020 C   0  0  0  0  0  3  0  0  0  0  0  0
   39.0900   30.5400   42.3680 N   0  0  0  0  0  0  0  0  0  0  0  0
   39.1160   29.3920   42.5410 C   0  0  0  0  0  0  0  0  0  0  0  0
   37.3030   31.6350   38.6570 C   0  0  0  0  0  0  0  0  0  0  0  0
   36.3700   32.2420   38.6600 H   0  0  0  0  0  0  0  0  0  0  0  0
   37.5420   31.4450   37.5830 H   0  0  0  0  0  0  0  0  0  0  0  0
   38.4230   32.4500   39.2060 C   0  0  0  0  0  0  0  0  0  0  0  0
   38.1450   33.4590   40.1790 C   0  0  0  0  0  0  0  0  0  0  0  0
   39.8050   34.1600   40.5270 S   0  0  0  0  0  0  0  0  0  0  0  0
   40.6020   32.9560   39.2820 C   0  0  0  0  0  0  0  0  0  0  0  0
   39.6920   32.3760   38.9130 N   0  0  0  0  0  0  0  0  0  0  0  0
   37.1730   33.7190   40.5900 H   0  0  0  0  0  0  0  0  0  0  0  0
   41.9710   32.9310   39.0170 O   0  0  0  0  0  0  0  0  0  0  0  0
   43.7920   31.9480   37.3670 O   0  0  0  0  0  0  0  0  0  0  0  0
   42.4550   32.6710   37.4160 P   0  0  0  0  0  0  0  0  0  0  0  0
   41.2880   31.7090   36.6680 O   0  0  0  0  0  0  0  0  0  0  0  0
   41.4620   30.7740   36.9610 H   0  0  0  0  0  0  0  0  0  0  0  0
   42.5320   34.1580   36.5970 O   0  0  0  0  0  0  0  0  0  0  0  0
   43.3070   34.6890   36.9090 H   0  0  0  0  0  0  0  0  0  0  0  0
  1  2  1  0  0  0  0
  1  3  1  0  0  0  0
  4  5  1  0  0  0  0
  4  1  1  0  0  0  0
  5 12  1  0  0  0  0
  6 10  1  0  0  0  0
  6  5  2  0  0  0  0
  7  6  1  0  0  0  0
  8  7  2  0  0  0  0
  8  9  1  0  0  0  0
  9  4  2  0  0  0  0
 11  8  1  0  0  0  0
 12 14  1  0  0  0  0
 13 20  1  0  0  0  0
 14 15  1  0  0  0  0
 14 13  2  0  0  0  0
 15 17  2  0  0  0  0
 16 15  1  0  0  0  0
 17 18  1  0  0  0  0
 17 19  1  0  0  0  0
 20 19  2  0  0  0  0
 21 22  3  0  0  0  0
 22 13  1  0  0  0  0
 23 24  1  0  0  0  0
 23 26  1  0  0  0  0
 23  1  1  0  0  0  0
 25 23  1  0  0  0  0
 26 27  2  0  0  0  0
 27 28  1  0  0  0  0
 27 31  1  0  0  0  0
 29 28  1  0  0  0  0
 30 26  1  0  0  0  0
 30 29  2  0  0  0  0
 32 29  1  0  0  0  0
 33 34  2  0  0  0  0
 34 32  1  0  0  0  0
 35 36  1  0  0  0  0
 35 34  1  0  0  0  0
 37 38  1  0  0  0  0
 37 34  1  0  0  0  0
M  END
>  <minimizedAffinity>
-5.52261639

$$$$

 OpenBabel03252507483D

 38 40  0  0  0  0  0  0  0  0999 V2000
   36.7800   27.3620   42.1810 C   0  0  0  0  0  0  0  0  0  0  0  0
   36.8610   28.1100   41.3590 H   0  0  0  0  0  0  0  0  0  0  0  0
   35.7480   27.2640   42.5770 H   0  0  0  0  0  0  0  0  0  0  0  0
   37.3070   26.0990   41.6530 C   0  0  0  0  0  0  0  0  0  0  0  0
   37.7630   26.1330   40.3450 C   0  0  0  0  0  0  0  0  0  0  0  0
   38.2720   24.9750   39.7460 C   0  0  0  0  0  0  0  0  0  0  0  0
   38.2970   23.8340   40.5010 N   0  0  0  0  0  0  0  0  0  0  0  0
   37.8400   23.8500   41.7780 C   0  0  0  0  0  0  0  0  0  0  0  0
   37.3610   24.9650   42.3210 N   0  0  0  0  0  0  0  0  0  0  0  0
   38.6170   25.0380   38.7300 H   0  0  0  0  0  0  0  0  0  0  0  0
   37.8480   22.9620   42.3920 H   0  0  0  0  0  0  0  0  0  0  0  0
   37.7080   27.6390   39.3610 S   0  0  0  0  0  0  0  0  0  0  0  0
   35.1290   28.8280   38.8810 C   0  0  0  0  0  0  0  0  0  0  0  0
   36.1020   27.8890   38.6360 C   0  0  0  0  0  0  0  0  0  0  0  0
   35.8430   26.9220   37.6570 C   0  0  0  0  0  0  0  0  0  0  0  0
   36.4950   26.1060   37.3350 H   0  0  0  0  0  0  0  0  0  0  0  0
   34.6460   26.8970   36.9460 C   0  0  0  0  0  0  0  0  0  0  0  0
   34.3900   26.1900   36.1910 H   0  0  0  0  0  0  0  0  0  0  0  0
   33.6740   27.8630   37.2140 C   0  0  0  0  0  3  0  0  0  0  0  0
   33.9520   28.7980   38.1750 C   0  0  0  0  0  3  0  0  0  0  0  0
   35.7450   30.5100   40.7360 N   0  0  0  0  0  0  0  0  0  0  0  0
   35.4580   29.7580   39.8980 C   0  0  0  0  0  0  0  0  0  0  0  0
   37.5960   27.9170   43.3200 C   0  0  0  0  0  0  0  0  0  0  0  0
   37.9870   27.0830   43.9450 H   0  0  0  0  0  0  0  0  0  0  0  0
   36.9590   28.5350   43.9960 H   0  0  0  0  0  0  0  0  0  0  0  0
   38.7290   28.7840   42.8890 C   0  0  0  0  0  0  0  0  0  0  0  0
   40.0530   28.2480   42.8650 C   0  0  0  0  0  0  0  0  0  0  0  0
   41.0600   29.6680   42.2830 S   0  0  0  0  0  0  0  0  0  0  0  0
   39.5000   30.7580   42.1710 C   0  0  0  0  0  0  0  0  0  0  0  0
   38.6900   30.0320   42.5100 N   0  0  0  0  0  0  0  0  0  0  0  0
   40.3540   27.2390   43.1340 H   0  0  0  0  0  0  0  0  0  0  0  0
   39.5300   32.0900   41.7550 O   0  0  0  0  0  0  0  0  0  0  0  0
   39.6470   33.4360   39.4790 O   0  0  0  0  0  0  0  0  0  0  0  0
   38.7900   32.4680   40.2800 P   0  0  0  0  0  0  0  0  0  0  0  0
   38.6190   31.0370   39.4010 O   0  0  0  0  0  0  0  0  0  0  0  0
   39.5090   30.8430   39.0010 H   0  0  0  0  0  0  0  0  0  0  0  0
   37.2440   33.1110   40.5680 O   0  0  0  0  0  0  0  0  0  0  0  0
   37.3100   34.0230   40.9460 H   0  0  0  0  0  0  0  0  0  0  0  0
  1  3  1  0  0  0  0
  1 23  1  0  0  0  0
  2  1  1  0  0  0  0
  4  1  1  0  0  0  0
  4  9  1  0  0  0  0
  5  4  2  0  0  0  0
  6  5  1  0  0  0  0
  6  7  2  0  0  0  0
  7  8  1  0  0  0  0
  8  9  2  0  0  0  0
  8 11  1  0  0  0  0
 10  6  1  0  0  0  0
 12  5  1  0  0  0  0
 13 22  1  0  0  0  0
 14 13  1  0  0  0  0
 14 12  1  0  0  0  0
 15 14  2  0  0  0  0
 16 15  1  0  0  0  0
 17 19  2  0  0  0  0
 17 15  1  0  0  0  0
 18 17  1  0  0  0  0
 19 20  1  0  0  0  0
 20 13  2  0  0  0  0
 22 21  3  0  0  0  0
 23 24  1  0  0  0  0
 23 25  1  0  0  0  0
 26 23  1  0  0  0  0
 27 26  2  0  0  0  0
 27 31  1  0  0  0  0
 28 27  1  0  0  0  0
 29 28  1  0  0  0  0
 29 30  2  0  0  0  0
 30 26  1  0  0  0  0
 32 29  1  0  0  0  0
 33 34  2  0  0  0  0
 34 37  1  0  0  0  0
 34 32  1  0  0  0  0
 35 34  1  0  0  0  0
 36 35  1  0  0  0  0
 37 38  1  0  0  0  0
M  END
>  <minimizedAffinity>
-5.3865819

$$$$

 OpenBabel03252507483D

 38 40  0  0  0  0  0  0  0  0999 V2000
   38.9430   26.1510   38.5640 C   0  0  0  0  0  0  0  0  0  0  0  0
   39.2310   25.1130   38.2790 H   0  0  0  0  0  0  0  0  0  0  0  0
   38.2920   26.1900   39.4620 H   0  0  0  0  0  0  0  0  0  0  0  0
   40.1930   26.9000   38.7370 C   0  0  0  0  0  0  0  0  0  0  0  0
   40.8130   26.7660   39.9700 C   0  0  0  0  0  0  0  0  0  0  0  0
   42.0030   27.4510   40.2370 C   0  0  0  0  0  0  0  0  0  0  0  0
   42.5120   28.2420   39.2440 N   0  0  0  0  0  0  0  0  0  0  0  0
   41.8690   28.3410   38.0530 C   0  0  0  0  0  0  0  0  0  0  0  0
   40.7390   27.6780   37.8270 N   0  0  0  0  0  0  0  0  0  0  0  0
   42.4560   27.3240   41.2030 H   0  0  0  0  0  0  0  0  0  0  0  0
   42.2510   28.9600   37.2550 H   0  0  0  0  0  0  0  0  0  0  0  0
   40.1200   25.7340   41.2720 S   0  0  0  0  0  0  0  0  0  0  0  0
   37.5060   26.2380   42.3710 C   0  0  0  0  0  0  0  0  0  0  0  0
   38.8210   26.5730   42.1510 C   0  0  0  0  0  0  0  0  0  0  0  0
   39.2810   27.7860   42.6800 C   0  0  0  0  0  0  0  0  0  0  0  0
   40.2860   28.2090   42.6030 H   0  0  0  0  0  0  0  0  0  0  0  0
   38.4500   28.6340   43.4070 C   0  0  0  0  0  0  0  0  0  0  0  0
   38.7400   29.5660   43.8350 H   0  0  0  0  0  0  0  0  0  0  0  0
   37.1190   28.2680   43.6180 C   0  0  0  0  0  3  0  0  0  0  0  0
   36.6940   27.0780   43.0900 C   0  0  0  0  0  3  0  0  0  0  0  0
   36.8010   24.0050   41.2920 N   0  0  0  0  0  0  0  0  0  0  0  0
   37.1120   25.0080   41.7870 C   0  0  0  0  0  0  0  0  0  0  0  0
   38.0950   26.6660   37.4290 C   0  0  0  0  0  0  0  0  0  0  0  0
   37.6110   25.8130   36.9030 H   0  0  0  0  0  0  0  0  0  0  0  0
   38.7280   27.1780   36.6660 H   0  0  0  0  0  0  0  0  0  0  0  0
   37.0520   27.6440   37.8460 C   0  0  0  0  0  0  0  0  0  0  0  0
   35.6970   27.2100   37.9840 C   0  0  0  0  0  0  0  0  0  0  0  0
   34.8260   28.7410   38.4990 S   0  0  0  0  0  0  0  0  0  0  0  0
   36.4610   29.7200   38.4390 C   0  0  0  0  0  0  0  0  0  0  0  0
   37.1980   28.9120   38.1180 N   0  0  0  0  0  0  0  0  0  0  0  0
   35.3140   26.2070   37.8160 H   0  0  0  0  0  0  0  0  0  0  0  0
   36.5460   31.0790   38.7440 O   0  0  0  0  0  0  0  0  0  0  0  0
   38.2530   30.8840   40.7570 O   0  0  0  0  0  0  0  0  0  0  0  0
   36.9280   31.5020   40.3380 P   0  0  0  0  0  0  0  0  0  0  0  0
   37.0620   33.1820   40.4140 O   0  0  0  0  0  0  0  0  0  0  0  0
   37.9590   33.4110   40.0490 H   0  0  0  0  0  0  0  0  0  0  0  0
   35.6710   31.0150   41.3720 O   0  0  0  0  0  0  0  0  0  0  0  0
   35.6610   30.0300   41.4720 H   0  0  0  0  0  0  0  0  0  0  0  0
  1  4  1  0  0  0  0
  1  3  1  0  0  0  0
  2  1  1  0  0  0  0
  4  5  1  0  0  0  0
  5  6  2  0  0  0  0
  5 12  1  0  0  0  0
  6 10  1  0  0  0  0
  7  6  1  0  0  0  0
  8  7  2  0  0  0  0
  9  8  1  0  0  0  0
  9  4  2  0  0  0  0
 11  8  1  0  0  0  0
 12 14  1  0  0  0  0
 13 20  1  0  0  0  0
 14 13  2  0  0  0  0
 14 15  1  0  0  0  0
 15 17  2  0  0  0  0
 16 15  1  0  0  0  0
 17 19  1  0  0  0  0
 17 18  1  0  0  0  0
 20 19  2  0  0  0  0
 21 22  3  0  0  0  0
 22 13  1  0  0  0  0
 23 26  1  0  0  0  0
 23  1  1  0  0  0  0
 24 23  1  0  0  0  0
 25 23  1  0  0  0  0
 26 27  2  0  0  0  0
 26 30  1  0  0  0  0
 27 28  1  0  0  0  0
 29 28  1  0  0  0  0
 29 32  1  0  0  0  0
 30 29  2  0  0  0  0
 31 27  1  0  0  0  0
 32 34  1  0  0  0  0
 34 35  1  0  0  0  0
 34 33  2  0  0  0  0
 34 37  1  0  0  0  0
 36 35  1  0  0  0  0
 37 38  1  0  0  0  0
M  END
>  <minimizedAffinity>
-5.37117386

$$$$

 OpenBabel03252507483D

 38 40  0  0  0  0  0  0  0  0999 V2000
   37.8530   30.7410   38.6270 C   0  0  0  0  0  0  0  0  0  0  0  0
   37.9120   31.5200   37.8330 H   0  0  0  0  0  0  0  0  0  0  0  0
   37.9330   31.1600   39.6520 H   0  0  0  0  0  0  0  0  0  0  0  0
   36.5990   30.0120   38.4090 C   0  0  0  0  0  0  0  0  0  0  0  0
   35.7970   29.8380   39.5260 C   0  0  0  0  0  0  0  0  0  0  0  0
   34.5870   29.1450   39.4230 C   0  0  0  0  0  0  0  0  0  0  0  0
   34.2430   28.6580   38.1910 N   0  0  0  0  0  0  0  0  0  0  0  0
   35.0600   28.8530   37.1270 C   0  0  0  0  0  0  0  0  0  0  0  0
   36.2050   29.5160   37.2550 N   0  0  0  0  0  0  0  0  0  0  0  0
   33.9900   29.0290   40.3090 H   0  0  0  0  0  0  0  0  0  0  0  0
   34.8100   28.4780   36.1460 H   0  0  0  0  0  0  0  0  0  0  0  0
   36.2740   30.4720   41.1420 S   0  0  0  0  0  0  0  0  0  0  0  0
   38.6050   29.3900   42.4430 C   0  0  0  0  0  0  0  0  0  0  0  0
   37.2980   29.3140   42.0230 C   0  0  0  0  0  0  0  0  0  0  0  0
   36.5920   28.1360   42.3000 C   0  0  0  0  0  0  0  0  0  0  0  0
   35.5560   27.9030   42.0420 H   0  0  0  0  0  0  0  0  0  0  0  0
   37.1770   27.0690   42.9770 C   0  0  0  0  0  0  0  0  0  0  0  0
   36.6950   26.1500   43.2170 H   0  0  0  0  0  0  0  0  0  0  0  0
   38.5060   27.1730   43.3930 C   0  0  0  0  0  3  0  0  0  0  0  0
   39.1740   28.3350   43.1110 C   0  0  0  0  0  3  0  0  0  0  0  0
   39.7900   31.5920   41.8130 N   0  0  0  0  0  0  0  0  0  0  0  0
   39.2560   30.6030   42.1070 C   0  0  0  0  0  0  0  0  0  0  0  0
   39.0790   29.8810   38.4490 C   0  0  0  0  0  0  0  0  0  0  0  0
   38.8760   29.0860   37.6970 H   0  0  0  0  0  0  0  0  0  0  0  0
   39.3280   29.3490   39.3980 H   0  0  0  0  0  0  0  0  0  0  0  0
   40.2990   30.6380   38.0510 C   0  0  0  0  0  0  0  0  0  0  0  0
   40.1990   32.0370   37.7800 C   0  0  0  0  0  0  0  0  0  0  0  0
   41.9220   32.4940   37.3430 S   0  0  0  0  0  0  0  0  0  0  0  0
   42.4910   30.6940   37.6040 C   0  0  0  0  0  0  0  0  0  0  0  0
   41.5140   30.1880   37.9030 N   0  0  0  0  0  0  0  0  0  0  0  0
   39.3030   32.6500   37.8300 H   0  0  0  0  0  0  0  0  0  0  0  0
   43.8120   30.2800   37.4290 O   0  0  0  0  0  0  0  0  0  0  0  0
   43.1880   29.8930   34.8860 O   0  0  0  0  0  0  0  0  0  0  0  0
   44.3590   30.0540   35.8430 P   0  0  0  0  0  0  0  0  0  0  0  0
   45.2440   31.4200   35.3960 O   0  0  0  0  0  0  0  0  0  0  0  0
   44.5790   32.1210   35.1570 H   0  0  0  0  0  0  0  0  0  0  0  0
   45.3890   28.7030   35.7840 O   0  0  0  0  0  0  0  0  0  0  0  0
   44.8730   27.8650   35.8900 H   0  0  0  0  0  0  0  0  0  0  0  0
  1  3  1  0  0  0  0
  2  1  1  0  0  0  0
  4  1  1  0  0  0  0
  4  5  1  0  0  0  0
  5 12  1  0  0  0  0
  6  5  2  0  0  0  0
  6 10  1  0  0  0  0
  7  6  1  0  0  0  0
  8  9  1  0  0  0  0
  8  7  2  0  0  0  0
  9  4  2  0  0  0  0
 11  8  1  0  0  0  0
 12 14  1  0  0  0  0
 13 20  1  0  0  0  0
 14 15  1  0  0  0  0
 14 13  2  0  0  0  0
 15 17  2  0  0  0  0
 16 15  1  0  0  0  0
 17 18  1  0  0  0  0
 17 19  1  0  0  0  0
 20 19  2  0  0  0  0
 21 22  3  0  0  0  0
 22 13  1  0  0  0  0
 23  1  1  0  0  0  0
 23 25  1  0  0  0  0
 24 23  1  0  0  0  0
 26 23  1  0  0  0  0
 27 31  1  0  0  0  0
 27 26  2  0  0  0  0
 28 29  1  0  0  0  0
 28 27  1  0  0  0  0
 29 30  2  0  0  0  0
 30 26  1  0  0  0  0
 32 29  1  0  0  0  0
 33 34  2  0  0  0  0
 34 32  1  0  0  0  0
 35 34  1  0  0  0  0
 36 35  1  0  0  0  0
 37 34  1  0  0  0  0
 37 38  1  0  0  0  0
M  END
>  <minimizedAffinity>
-5.34394932

$$$$
