
     RDKit          3D

 44 47  0  0  0  0  0  0  0  0999 V2000
   47.0689   34.5552   42.1235 C   0  0  0  0  0  0  0  0  0  0  0  0
   48.1686   35.3045   41.7767 C   0  0  0  0  0  0  0  0  0  0  0  0
   48.6394   35.3215   40.4789 C   0  0  0  0  0  0  0  0  0  0  0  0
   48.0202   34.5796   39.4652 C   0  0  0  0  0  0  0  0  0  0  0  0
   48.5540   34.6648   38.2431 N   0  0  0  0  0  0  0  0  0  0  0  0
   47.9607   33.9440   37.2337 C   0  0  0  0  0  0  0  0  0  0  0  0
   46.8495   33.1809   37.5624 C   0  0  0  0  0  0  0  0  0  0  0  0
   46.3115   33.1030   38.8242 C   0  0  0  0  0  0  0  0  0  0  0  0
   46.9172   33.8309   39.8243 C   0  0  0  0  0  0  0  0  0  0  0  0
   46.4344   33.8064   41.1273 C   0  0  0  0  0  0  0  0  0  0  0  0
   45.3913   35.2387   43.8497 C   0  0  0  0  0  0  0  0  0  0  0  0
   46.4454   34.4228   43.4196 C   0  0  0  0  0  0  0  0  0  0  0  0
   46.9359   33.4104   44.2928 C   0  0  0  0  0  0  0  0  0  0  0  0
   46.3399   33.3005   45.5046 N   0  0  0  0  0  0  0  0  0  0  0  0
   45.3275   34.0973   45.8956 C   0  0  0  0  0  0  0  0  0  0  0  0
   44.8752   35.0416   45.0723 N   0  0  0  0  0  0  0  0  0  0  0  0
   44.9101   36.2387   42.9852 N   0  0  0  0  0  0  0  0  0  0  0  0
   44.7412   33.8890   47.2589 C   0  0  0  0  0  0  0  0  0  0  0  0
   45.3352   32.5931   47.8500 C   0  0  0  0  0  0  0  0  0  0  0  0
   48.6135   35.8587   42.5922 H   0  0  0  0  0  0  0  0  0  0  0  0
   49.5062   35.9219   40.2409 H   0  0  0  0  0  0  0  0  0  0  0  0
   48.3352   33.9615   36.2188 H   0  0  0  0  0  0  0  0  0  0  0  0
   46.3484   32.5959   36.7969 H   0  0  0  0  0  0  0  0  0  0  0  0
   45.4401   32.4967   39.0512 H   0  0  0  0  0  0  0  0  0  0  0  0
   45.5655   33.1837   41.2832 H   0  0  0  0  0  0  0  0  0  0  0  0
   47.7437   32.7721   43.9859 H   0  0  0  0  0  0  0  0  0  0  0  0
   45.6194   36.8030   42.4608 H   0  0  0  0  0  0  0  0  0  0  0  0
   43.8775   36.3658   42.9105 H   0  0  0  0  0  0  0  0  0  0  0  0
   45.1700   34.7075   47.8916 H   0  0  0  0  0  0  0  0  0  0  0  0
   43.6535   33.8582   47.2733 H   0  0  0  0  0  0  0  0  0  0  0  0
   46.4355   32.7266   47.9930 H   0  0  0  0  0  0  0  0  0  0  0  0
   45.0871   31.7539   47.2030 H   0  0  0  0  0  0  0  0  0  0  0  0
   41.9424   31.5028   47.3404 N   0  0  0  0  0  0  0  0  0  0  0  0
   42.6088   31.7365   48.2645 C   0  0  0  0  0  0  0  0  0  0  0  0
   43.4342   32.0025   49.4062 C   0  0  0  0  0  0  0  0  0  0  0  0
   44.7340   32.4108   49.1999 C   0  0  0  0  0  0  0  0  0  0  0  0
   45.5011   32.6590   50.3238 C   0  0  0  0  0  0  0  0  0  0  0  0
   46.5344   32.9842   50.1568 H   0  0  0  0  0  0  0  0  0  0  0  0
   45.0948   32.5387   51.6344 C   0  0  0  0  0  0  0  0  0  0  0  0
   45.7868   32.7606   52.4363 H   0  0  0  0  0  0  0  0  0  0  0  0
   43.7886   32.1282   51.7980 C   0  0  0  0  0  0  0  0  0  0  0  0
   42.9604   31.8609   50.7152 C   0  0  0  0  0  0  0  0  0  0  0  0
   43.4304   32.0208   52.8234 H   0  0  0  0  0  0  0  0  0  0  0  0
   41.9396   31.5402   50.8880 H   0  0  0  0  0  0  0  0  0  0  0  0
  1 12  1  0
  2  1  2  0
  3  2  1  0
  4  9  1  0
  4  3  2  0
  5  4  1  0
  6  7  1  0
  6  5  2  0
  7  8  2  0
  8  9  1  0
  9 10  2  0
 10  1  1  0
 11 16  2  0
 12 11  1  0
 12 13  2  0
 13 14  1  0
 14 15  2  0
 15 18  1  0
 16 15  1  0
 17 11  1  0
 18 19  1  0
  2 20  1  0
  3 21  1  0
  6 22  1  0
  7 23  1  0
  8 24  1  0
 10 25  1  0
 13 26  1  0
 17 27  1  0
 17 28  1  0
 18 29  1  0
 18 30  1  0
 19 31  1  0
 19 32  1  0
 33 34  3  0
 34 35  1  0
 35 36  2  0
 36 37  1  0
 37 38  1  0
 37 39  2  0
 39 40  1  0
 39 41  1  0
 41 42  2  0
 42 35  1  0
 41 43  1  0
 42 44  1  0
 19 36  1  0
M  ISO  8  20  14  21  14  22  14  23  14  24  14  25  14  26  14  29   8
M  ISO  5  30   8  31   8  32   8  38  15  40  16
M  END
>  <DihAtoms>  (1) 
17,18,35,34

>  <DihDeg>  (1) 
-76.02881678638899

$$$$
