
 OpenBabel03252507223D

 48 51  0  0  1  0  0  0  0  0999 V2000
   47.4520   33.5940   42.8090 C   0  0  0  0  0  0  0  0  0  0  0  0
   48.5830   33.5380   43.4190 O   0  0  0  0  0  0  0  0  0  0  0  0
   47.1630   32.9000   41.5760 N   0  0  0  0  0  0  0  0  0  0  0  0
   45.9850   32.1710   41.1700 C   0  0  0  0  0  0  0  0  0  0  0  0
   45.5300   32.7090   39.8070 C   0  0  0  0  0  0  0  0  0  0  0  0
   46.5770   32.4380   38.7650 C   0  0  0  0  0  0  0  0  0  0  0  0
   47.8780   32.0590   39.4350 C   0  0  0  0  0  0  0  0  0  0  0  0
   48.2230   32.9830   40.5770 C   0  0  2  0  0  0  0  0  0  0  0  0
   45.1320   32.3560   41.8810 H   0  0  0  0  0  0  0  0  0  0  0  0
   46.1610   31.0880   41.0350 H   0  0  0  0  0  0  0  0  0  0  0  0
   45.3390   33.8040   39.9300 H   0  0  0  0  0  0  0  0  0  0  0  0
   44.5890   32.1830   39.5550 H   0  0  0  0  0  0  0  0  0  0  0  0
   46.7670   33.4000   38.2410 H   0  0  0  0  0  0  0  0  0  0  0  0
   46.2790   31.6200   38.0990 H   0  0  0  0  0  0  0  0  0  0  0  0
   48.7240   32.0280   38.7370 H   0  0  0  0  0  0  0  0  0  0  0  0
   47.7760   30.9890   39.7950 H   0  0  0  0  0  0  0  0  0  0  0  0
   48.1970   34.0080   40.1900 H   0  0  0  0  0  0  0  0  0  0  0  0
   46.0800   35.6070   42.7650 C   0  0  0  0  0  0  0  0  0  0  0  0
   46.4270   34.4010   43.4020 C   0  0  0  0  0  0  0  0  0  0  0  0
   45.7810   34.0320   44.5730 C   0  0  0  0  0  0  0  0  0  0  0  0
   44.8320   34.8660   45.0500 N   0  0  0  0  0  0  0  0  0  0  0  0
   44.4810   36.0230   44.4600 C   0  0  0  0  0  0  0  0  0  0  0  0
   45.1200   36.3800   43.3120 N   0  0  0  0  0  0  0  0  0  0  0  0
   46.5740   35.9150   41.8520 H   0  0  0  0  0  0  0  0  0  0  0  0
   43.7120   36.6740   44.8780 H   0  0  0  0  0  0  0  0  0  0  0  0
   46.1570   32.7830   45.2110 C   0  0  0  0  0  0  0  0  0  0  0  0
   45.7280   31.5980   44.6930 C   0  0  0  0  0  0  0  0  0  0  0  0
   46.1020   30.4410   45.3240 C   0  0  0  0  0  0  0  0  0  0  0  0
   46.8940   30.4140   46.4620 C   0  0  0  0  0  0  0  0  0  0  0  0
   47.2950   31.6500   46.9390 C   0  0  0  0  0  0  0  0  0  0  0  0
   46.9170   32.7620   46.3050 N   0  0  0  0  0  0  0  0  0  0  0  0
   45.1130   31.4760   43.8180 H   0  0  0  0  0  0  0  0  0  0  0  0
   45.7710   29.4680   44.9240 H   0  0  0  0  0  0  0  0  0  0  0  0
   47.1750   29.4890   46.9420 H   0  0  0  0  0  0  0  0  0  0  0  0
   47.9160   31.6550   47.8210 H   0  0  0  0  0  0  0  0  0  0  0  0
   49.5850   32.7150   41.0740 C   0  0  0  0  0  0  0  0  0  0  0  0
   50.1280   33.6600   40.7150 H   0  0  0  0  0  0  0  0  0  0  0  0
   49.7240   32.8940   42.1890 H   0  0  0  0  0  0  0  0  0  0  0  0
   50.5440   30.4380   41.3270 C   0  0  0  0  0  0  0  0  0  0  0  0
   50.3830   31.6240   40.5690 C   0  0  0  0  0  0  0  0  0  0  0  0
   51.1460   31.5020   39.4040 C   0  0  0  0  0  0  0  0  0  0  0  0
   51.1640   32.3510   38.7380 H   0  0  0  0  0  0  0  0  0  0  0  0
   51.9220   30.4910   38.9850 C   0  0  0  0  0  0  0  0  0  0  0  0
   52.4660   30.5450   38.0370 H   0  0  0  0  0  0  0  0  0  0  0  0
   52.0390   29.3650   39.7600 C   0  0  0  0  0  3  0  0  0  0  0  0
   51.3370   29.3500   40.9460 C   0  0  0  0  0  3  0  0  0  0  0  0
   49.2140   30.2240   43.5860 N   0  0  0  0  0  0  0  0  0  0  0  0
   49.8180   30.3150   42.5760 C   0  0  0  0  0  0  0  0  0  0  0  0
  1 19  1  0  0  0  0
  1  2  2  0  0  0  0
  3  1  1  0  0  0  0
  4  3  1  0  0  0  0
  4  9  1  0  0  0  0
  5 11  1  0  0  0  0
  5  4  1  0  0  0  0
  6  7  1  0  0  0  0
  6  5  1  0  0  0  0
  7 16  1  0  0  0  0
  7  8  1  0  0  0  0
  8 17  1  6  0  0  0
  8 36  1  0  0  0  0
  8  3  1  0  0  0  0
 10  4  1  0  0  0  0
 12  5  1  0  0  0  0
 13  6  1  0  0  0  0
 14  6  1  0  0  0  0
 15  7  1  0  0  0  0
 18 23  2  0  0  0  0
 18 19  1  0  0  0  0
 19 20  2  0  0  0  0
 20 21  1  0  0  0  0
 20 26  1  0  0  0  0
 22 25  1  0  0  0  0
 22 21  2  0  0  0  0
 23 22  1  0  0  0  0
 24 18  1  0  0  0  0
 26 31  1  0  0  0  0
 27 26  2  0  0  0  0
 27 28  1  0  0  0  0
 28 29  2  0  0  0  0
 29 30  1  0  0  0  0
 29 34  1  0  0  0  0
 30 35  1  0  0  0  0
 31 30  2  0  0  0  0
 32 27  1  0  0  0  0
 33 28  1  0  0  0  0
 36 38  1  0  0  0  0
 37 36  1  0  0  0  0
 39 48  1  0  0  0  0
 40 36  1  0  0  0  0
 40 39  2  0  0  0  0
 41 40  1  0  0  0  0
 42 41  1  0  0  0  0
 43 41  2  0  0  0  0
 43 45  1  0  0  0  0
 44 43  1  0  0  0  0
 45 46  2  0  0  0  0
 46 39  1  0  0  0  0
 48 47  3  0  0  0  0
M  END
>  <minimizedAffinity>
-4.90706825

>  <minimizedRMSD>
1.34781981

$$$$
