
 OpenBabel03252503273D

 26 27  0  0  0  0  0  0  0  0999 V2000
   43.8570   35.3710   42.2590 C   0  0  0  0  0  0  0  0  0  0  0  0
   45.0090   35.1460   41.4950 C   0  0  0  0  0  0  0  0  0  0  0  0
   46.2020   34.9400   42.2140 C   0  0  0  0  0  0  0  0  0  0  0  0
   46.1380   34.9720   43.5700 N   0  0  0  0  0  0  0  0  0  0  0  0
   45.0140   35.1870   44.2610 C   0  0  0  0  0  0  0  0  0  0  0  0
   43.8640   35.3910   43.5990 N   0  0  0  0  0  0  0  0  0  0  0  0
   42.0520   34.3900   41.1160 C   0  0  0  0  0  0  0  0  0  0  0  0
   42.7190   33.3170   41.2630 O   0  0  0  0  0  0  0  0  0  0  0  0
   42.6030   35.5950   41.6160 N   0  0  0  0  0  0  0  0  0  0  0  0
   44.9900   35.1270   40.4350 H   0  0  0  0  0  0  0  0  0  0  0  0
   44.9750   35.1970   45.3510 H   0  0  0  0  0  0  0  0  0  0  0  0
   42.0080   36.4390   41.4390 H   0  0  0  0  0  0  0  0  0  0  0  0
   40.4230   34.6140   39.1620 C   0  0  0  0  0  0  0  0  0  0  0  0
   40.7700   34.1770   40.4290 C   0  0  0  0  0  0  0  0  0  0  0  0
   39.8760   33.4670   41.2040 C   0  0  0  0  0  0  0  0  0  0  0  0
   40.0390   33.0800   42.2030 H   0  0  0  0  0  0  0  0  0  0  0  0
   38.6030   33.1920   40.6870 C   0  0  0  0  0  0  0  0  0  0  0  0
   37.8620   32.6430   41.2360 H   0  0  0  0  0  0  0  0  0  0  0  0
   38.2430   33.6230   39.4250 C   0  0  0  0  0  3  0  0  0  0  0  0
   39.1560   34.3290   38.6780 C   0  0  0  0  0  3  0  0  0  0  0  0
   42.2310   35.9420   37.8440 N   0  0  0  0  0  0  0  0  0  0  0  0
   41.4270   35.3490   38.4420 C   0  0  0  0  0  0  0  0  0  0  0  0
   47.3910   34.7090   41.4040 C   0  0  0  0  0  0  0  0  0  0  0  0
   48.0770   33.6030   41.8900 F   0  0  0  0  0  0  0  0  0  0  0  0
   48.2390   35.7860   41.5970 F   0  0  0  0  0  0  0  0  0  0  0  0
   47.1130   34.4680   40.0920 F   0  0  0  0  0  0  0  0  0  0  0  0
  1  6  1  0  0  0  0
  2  3  1  0  0  0  0
  2  1  2  0  0  0  0
  3  4  2  0  0  0  0
  4  5  1  0  0  0  0
  5 11  1  0  0  0  0
  6  5  2  0  0  0  0
  7  8  2  0  0  0  0
  7  9  1  0  0  0  0
  9  1  1  0  0  0  0
 10  2  1  0  0  0  0
 12  9  1  0  0  0  0
 13 14  1  0  0  0  0
 14  7  1  0  0  0  0
 14 15  2  0  0  0  0
 15 16  1  0  0  0  0
 17 15  1  0  0  0  0
 17 18  1  0  0  0  0
 19 17  2  0  0  0  0
 20 13  2  0  0  0  0
 20 19  1  0  0  0  0
 21 22  3  0  0  0  0
 22 13  1  0  0  0  0
 23 25  1  0  0  0  0
 23 24  1  0  0  0  0
 23  3  1  0  0  0  0
 26 23  1  0  0  0  0
M  END
>  <minimizedAffinity>
-6.27641916

>  <minimizedRMSD>
2.43472672

$$$$
