
     RDKit          3D

 39 42  0  0  0  0  0  0  0  0999 V2000
   39.9670   34.8723   40.2317 C   0  0  0  0  0  0  0  0  0  0  0  0
   40.9799   34.4000   41.0526 C   0  0  0  0  0  0  0  0  0  0  0  0
   40.9129   33.1338   41.5779 C   0  0  0  0  0  0  0  0  0  0  0  0
   39.8512   32.2867   41.3173 C   0  0  0  0  0  0  0  0  0  0  0  0
   38.8224   32.7682   40.4829 C   0  0  0  0  0  0  0  0  0  0  0  0
   38.8824   34.0401   39.9506 C   0  0  0  0  0  0  0  0  0  0  0  0
   37.8689   31.7437   40.3670 O   0  0  0  0  0  0  0  0  0  0  0  0
   38.1465   30.8355   41.4156 C   0  0  0  0  0  0  0  0  0  0  0  0
   39.5259   30.9850   41.7027 O   0  0  0  0  0  0  0  0  0  0  0  0
   42.3232   35.5191   41.3626 S   0  0  0  0  0  0  0  0  0  0  0  0
   43.9101   34.7556   40.9438 C   0  0  0  0  0  0  0  0  0  0  0  0
   43.8745   33.8132   39.9459 C   0  0  0  0  0  0  0  0  0  0  0  0
   45.0675   33.1970   39.5772 C   0  0  0  0  0  0  0  0  0  0  0  0
   46.1947   33.5760   40.2418 N   0  0  0  0  0  0  0  0  0  0  0  0
   46.1981   34.4989   41.2130 C   0  0  0  0  0  0  0  0  0  0  0  0
   45.0525   35.0633   41.5359 N   0  0  0  0  0  0  0  0  0  0  0  0
   47.3194   34.8999   41.8998 O   0  0  0  0  0  0  0  0  0  0  0  0
   48.5359   35.0342   41.2304 C   0  0  0  0  0  0  0  0  0  0  0  0
   49.3570   33.9594   41.3801 F   0  0  0  0  0  0  0  0  0  0  0  0
   48.1909   35.2905   39.8894 F   0  0  0  0  0  0  0  0  0  0  0  0
   49.1799   36.1447   41.7727 F   0  0  0  0  0  0  0  0  0  0  0  0
   39.9430   35.8526   39.7792 H   0  0  0  0  0  0  0  0  0  0  0  0
   41.7260   32.7886   42.2216 H   0  0  0  0  0  0  0  0  0  0  0  0
   38.0809   34.4009   39.3069 H   0  0  0  0  0  0  0  0  0  0  0  0
   37.5902   31.0323   42.3340 H   0  0  0  0  0  0  0  0  0  0  0  0
   37.9278   29.7974   41.1038 H   0  0  0  0  0  0  0  0  0  0  0  0
   42.9753   33.5274   39.4730 H   0  0  0  0  0  0  0  0  0  0  0  0
   42.3588   33.1513   37.0114 N   0  0  0  0  0  0  0  0  0  0  0  0
   43.3180   32.5496   37.2554 C   0  0  0  0  0  0  0  0  0  0  0  0
   44.5058   31.8113   37.5320 C   0  0  0  0  0  0  0  0  0  0  0  0
   45.2667   32.1672   38.6000 C   0  0  0  0  0  0  0  0  0  0  0  0
   46.4214   31.3842   38.6819 C   0  0  0  0  0  0  0  0  0  0  0  0
   47.1486   31.5328   39.4780 H   0  0  0  0  0  0  0  0  0  0  0  0
   46.7594   30.3855   37.8145 C   0  0  0  0  0  0  0  0  0  0  0  0
   47.6655   29.8075   37.9223 H   0  0  0  0  0  0  0  0  0  0  0  0
   45.9369   30.0819   36.7578 C   0  0  0  0  0  0  0  0  0  0  0  0
   44.8016   30.8138   36.6312 C   0  0  0  0  0  0  0  0  0  0  0  0
   46.1980   29.2976   36.0741 H   0  0  0  0  0  0  0  0  0  0  0  0
   44.1563   30.5697   35.7950 H   0  0  0  0  0  0  0  0  0  0  0  0
  1  2  2  0
  2 10  1  0
  2  3  1  0
  4  3  2  0
  4  9  1  0
  5  4  1  0
  6  1  1  0
  6  5  2  0
  7  5  1  0
  7  8  1  0
  8  9  1  0
 11 10  1  0
 11 16  1  0
 12 11  2  0
 13 12  1  0
 13 14  2  0
 14 15  1  0
 15 16  2  0
 15 17  1  0
 18 19  1  0
 18 21  1  0
 18 17  1  0
 20 18  1  0
  1 22  1  0
  3 23  1  0
  6 24  1  0
  8 25  1  0
  8 26  1  0
 12 27  1  0
 28 29  3  0
 29 30  1  0
 30 31  2  0
 31 32  1  0
 32 33  1  0
 32 34  2  0
 34 35  1  0
 34 36  1  0
 36 37  2  0
 37 30  1  0
 36 38  1  0
 37 39  1  0
 13 31  1  0
M  ISO  8  22  14  23  14  24  14  25  13  26  13  27  14  33  15  35  16
M  END
>  <DihAtoms>  (1) 
11,12,30,29

>  <DihDeg>  (1) 
22.496414076758615

$$$$
