
     RDKit          3D

 30 32  0  0  0  0  0  0  0  0999 V2000
   44.6191   35.4682   45.1262 C   0  0  0  0  0  0  0  0  0  0  0  0
   45.0967   35.7119   43.8127 C   0  0  0  0  0  0  0  0  0  0  0  0
   46.0424   34.8297   43.3618 C   0  0  0  0  0  0  0  0  0  0  0  0
   46.4943   33.7821   44.1396 N   0  0  0  0  0  0  0  0  0  0  0  0
   46.0137   33.5877   45.3818 C   0  0  0  0  0  0  0  0  0  0  0  0
   45.0730   34.4318   45.8786 N   0  0  0  0  0  0  0  0  0  0  0  0
   46.5403   34.9709   41.9357 C   0  0  1  0  0  0  0  0  0  0  0  0
   48.0591   35.2739   41.9268 C   0  0  0  0  0  0  0  0  0  0  0  0
   47.3927   33.9739   41.4034 C   0  0  2  0  0  0  0  0  0  0  0  0
   44.6516   36.8109   43.0213 N   0  0  0  0  0  0  0  0  0  0  0  0
   43.8689   36.1626   45.4899 H   0  0  0  0  0  0  0  0  0  0  0  0
   46.3412   32.7806   46.0201 H   0  0  0  0  0  0  0  0  0  0  0  0
   45.9475   35.6829   41.3385 H   0  0  0  0  0  0  0  0  0  0  0  0
   48.6311   35.2038   42.8454 H   0  0  0  0  0  0  0  0  0  0  0  0
   48.3503   36.0116   41.1576 H   0  0  0  0  0  0  0  0  0  0  0  0
   47.6782   33.0734   41.9845 H   0  0  0  0  0  0  0  0  0  0  0  0
   43.8625   36.8920   42.3743 H   0  0  0  0  0  0  0  0  0  0  0  0
   45.3409   37.5667   43.2519 H   0  0  0  0  0  0  0  0  0  0  0  0
   44.9764   31.3978   40.6597 N   0  0  0  0  0  0  0  0  0  0  0  0
   45.7514   32.0244   40.0540 C   0  0  0  0  0  0  0  0  0  0  0  0
   46.7028   32.7853   39.3036 C   0  0  0  0  0  0  0  0  0  0  0  0
   47.4958   33.7228   39.9373 C   0  0  0  0  0  0  0  0  0  0  0  0
   48.4294   34.4747   39.2231 C   0  0  0  0  0  0  0  0  0  0  0  0
   49.0779   35.2273   39.6825 H   0  0  0  0  0  0  0  0  0  0  0  0
   48.5597   34.2727   37.8494 C   0  0  0  0  0  0  0  0  0  0  0  0
   49.2836   34.8480   37.2629 H   0  0  0  0  0  0  0  0  0  0  0  0
   47.7559   33.3298   37.2378 C   0  0  0  0  0  0  0  0  0  0  0  0
   46.8229   32.5731   37.9300 C   0  0  0  0  0  0  0  0  0  0  0  0
   47.8763   33.1943   36.1806 H   0  0  0  0  0  0  0  0  0  0  0  0
   46.2292   31.8568   37.3960 H   0  0  0  0  0  0  0  0  0  0  0  0
  1  6  2  0
  2  1  1  0
  3  2  2  0
  3  4  1  0
  4  5  2  0
  5  6  1  0
  7  3  1  0
  8  7  1  0
  9  8  1  0
  9  7  1  0
 10  2  1  0
  1 11  1  0
  5 12  1  0
  7 13  1  6
  8 14  1  0
  8 15  1  0
  9 16  1  1
 10 17  1  0
 10 18  1  0
 19 20  3  0
 20 21  1  0
 21 22  2  0
 22 23  1  0
 23 24  1  0
 23 25  2  0
 25 26  1  0
 25 27  1  0
 27 28  2  0
 28 21  1  0
 27 29  1  0
 28 30  1  0
  9 22  1  0
M  ISO  8  11  14  12  14  13  13  14  13  15  13  16  13  24  15  26  16
M  END
>  <DihAtoms>  (1) 
7,8,21,20

>  <DihDeg>  (1) 
90.009850936756

$$$$
