
 OpenBabel03242519243D

 41 44  0  0  0  0  0  0  0  0999 V2000
   47.8480   33.6330   42.9010 C   0  0  0  0  0  0  0  0  0  0  0  0
   48.5920   34.8090   42.6940 C   0  0  0  0  0  0  0  0  0  0  0  0
   49.9570   34.7310   42.3710 C   0  0  0  0  0  0  0  0  0  0  0  0
   50.4800   33.4670   42.2790 N   0  0  0  0  0  0  0  0  0  0  0  0
   49.7270   32.3430   42.4870 C   0  0  0  0  0  0  0  0  0  0  0  0
   48.4400   32.4410   42.7910 N   0  0  0  0  0  0  0  0  0  0  0  0
   48.2640   35.8330   42.7460 H   0  0  0  0  0  0  0  0  0  0  0  0
   50.5860   35.5790   42.2000 H   0  0  0  0  0  0  0  0  0  0  0  0
   46.4290   33.8400   43.2390 C   0  0  0  0  0  0  0  0  0  0  0  0
   45.7680   34.8640   42.4310 C   0  0  0  0  0  0  0  0  0  0  0  0
   45.3890   36.0880   43.1830 C   0  0  0  0  0  0  0  0  0  0  0  0
   44.5750   35.8000   44.4310 C   0  0  0  0  0  0  0  0  0  0  0  0
   44.9790   34.5350   45.1500 C   0  0  0  0  0  0  0  0  0  0  0  0
   46.3840   34.1210   44.7520 C   0  0  0  0  0  0  0  0  0  0  0  0
   45.9190   32.8350   43.1530 H   0  0  0  0  0  0  0  0  0  0  0  0
   46.3430   35.1700   41.5500 H   0  0  0  0  0  0  0  0  0  0  0  0
   44.8130   34.4350   42.0070 H   0  0  0  0  0  0  0  0  0  0  0  0
   44.6880   36.6740   42.5160 H   0  0  0  0  0  0  0  0  0  0  0  0
   46.1810   36.7840   43.4450 H   0  0  0  0  0  0  0  0  0  0  0  0
   43.4770   35.8110   44.2090 H   0  0  0  0  0  0  0  0  0  0  0  0
   44.7250   36.6240   45.1600 H   0  0  0  0  0  0  0  0  0  0  0  0
   44.2730   33.7150   44.8480 H   0  0  0  0  0  0  0  0  0  0  0  0
   44.9370   34.6000   46.2430 H   0  0  0  0  0  0  0  0  0  0  0  0
   47.0830   34.9520   44.9200 H   0  0  0  0  0  0  0  0  0  0  0  0
   46.6670   33.2110   45.2950 H   0  0  0  0  0  0  0  0  0  0  0  0
   50.4520   31.0800   42.3550 C   0  0  0  0  0  0  0  0  0  0  0  0
   50.5270   30.5360   41.1200 N   0  0  0  0  0  0  0  0  0  0  0  0
   51.2250   29.3920   41.1800 C   0  0  0  0  0  0  0  0  0  0  0  0
   51.5880   29.2310   42.4830 N   0  0  0  0  0  0  0  0  0  0  0  0
   51.1150   30.2640   43.2070 N   0  0  0  0  0  0  0  0  0  0  0  0
   51.4950   28.6810   40.4040 H   0  0  0  0  0  0  0  0  0  0  0  0
   53.7080   28.0410   43.0900 C   0  0  0  0  0  0  0  0  0  0  0  0
   52.3360   28.2030   43.1260 C   0  0  0  0  0  0  0  0  0  0  0  0
   51.5460   27.3010   43.8470 C   0  0  0  0  0  0  0  0  0  0  0  0
   50.4530   27.3810   43.9110 H   0  0  0  0  0  0  0  0  0  0  0  0
   52.1030   26.2400   44.5340 C   0  0  0  0  0  0  0  0  0  0  0  0
   51.4760   25.5510   45.0880 H   0  0  0  0  0  0  0  0  0  0  0  0
   53.4850   26.1130   44.4730 C   0  0  0  0  0  3  0  0  0  0  0  0
   54.2910   26.9860   43.7690 C   0  0  0  0  0  3  0  0  0  0  0  0
   55.0510   29.7820   41.7300 N   0  0  0  0  0  0  0  0  0  0  0  0
   54.4340   28.9950   42.3380 C   0  0  0  0  0  0  0  0  0  0  0  0
  1  9  1  0  0  0  0
  2  7  1  0  0  0  0
  2  1  2  0  0  0  0
  3  2  1  0  0  0  0
  4  3  2  0  0  0  0
  4  5  1  0  0  0  0
  5  6  2  0  0  0  0
  6  1  1  0  0  0  0
  8  3  1  0  0  0  0
  9 14  1  0  0  0  0
 10 11  1  0  0  0  0
 10  9  1  0  0  0  0
 11 19  1  0  0  0  0
 11 12  1  0  0  0  0
 12 13  1  0  0  0  0
 12 21  1  0  0  0  0
 13 23  1  0  0  0  0
 14 24  1  0  0  0  0
 14 13  1  0  0  0  0
 14 25  1  0  0  0  0
 15  9  1  0  0  0  0
 16 10  1  0  0  0  0
 17 10  1  0  0  0  0
 18 11  1  0  0  0  0
 20 12  1  0  0  0  0
 22 13  1  0  0  0  0
 26  5  1  0  0  0  0
 26 30  2  0  0  0  0
 27 28  2  0  0  0  0
 27 26  1  0  0  0  0
 28 29  1  0  0  0  0
 29 33  1  0  0  0  0
 29 30  1  0  0  0  0
 31 28  1  0  0  0  0
 32 33  2  0  0  0  0
 32 39  1  0  0  0  0
 33 34  1  0  0  0  0
 34 35  1  0  0  0  0
 34 36  2  0  0  0  0
 36 37  1  0  0  0  0
 38 36  1  0  0  0  0
 39 38  2  0  0  0  0
 40 41  3  0  0  0  0
 41 32  1  0  0  0  0
M  END
>  <minimizedAffinity>
-4.17105532

>  <minimizedRMSD>
1.12797546

$$$$
