
 OpenBabel03252507223D

 48 51  0  0  1  0  0  0  0  0999 V2000
   46.8090   33.8970   42.4350 C   0  0  0  0  0  0  0  0  0  0  0  0
   48.0500   33.7480   42.7400 O   0  0  0  0  0  0  0  0  0  0  0  0
   46.2080   33.3870   41.2260 N   0  0  0  0  0  0  0  0  0  0  0  0
   44.9380   32.7300   41.0200 C   0  0  0  0  0  0  0  0  0  0  0  0
   44.1950   33.4590   39.8930 C   0  0  0  0  0  0  0  0  0  0  0  0
   44.9520   33.3330   38.6030 C   0  0  0  0  0  0  0  0  0  0  0  0
   46.3590   32.8540   38.8810 C   0  0  0  0  0  0  0  0  0  0  0  0
   47.0030   33.6040   40.0210 C   0  0  2  0  0  0  0  0  0  0  0  0
   44.2880   32.8180   41.9340 H   0  0  0  0  0  0  0  0  0  0  0  0
   45.0330   31.6760   40.7000 H   0  0  0  0  0  0  0  0  0  0  0  0
   44.0830   34.5270   40.2070 H   0  0  0  0  0  0  0  0  0  0  0  0
   43.2010   32.9800   39.8070 H   0  0  0  0  0  0  0  0  0  0  0  0
   45.0500   34.3580   38.1850 H   0  0  0  0  0  0  0  0  0  0  0  0
   44.4710   32.6190   37.9230 H   0  0  0  0  0  0  0  0  0  0  0  0
   47.0120   32.9170   38.0010 H   0  0  0  0  0  0  0  0  0  0  0  0
   46.3020   31.7440   39.1050 H   0  0  0  0  0  0  0  0  0  0  0  0
   46.9270   34.6740   39.7940 H   0  0  0  0  0  0  0  0  0  0  0  0
   45.5890   35.9230   43.0190 C   0  0  0  0  0  0  0  0  0  0  0  0
   45.9890   34.6180   43.3620 C   0  0  0  0  0  0  0  0  0  0  0  0
   45.5880   34.0730   44.5720 C   0  0  0  0  0  0  0  0  0  0  0  0
   44.8170   34.8380   45.3750 N   0  0  0  0  0  0  0  0  0  0  0  0
   44.4210   36.0870   45.0710 C   0  0  0  0  0  0  0  0  0  0  0  0
   44.8200   36.6170   43.8810 N   0  0  0  0  0  0  0  0  0  0  0  0
   45.8950   36.3690   42.0800 H   0  0  0  0  0  0  0  0  0  0  0  0
   43.8030   36.6780   45.7480 H   0  0  0  0  0  0  0  0  0  0  0  0
   46.0130   32.7250   44.9030 C   0  0  0  0  0  0  0  0  0  0  0  0
   45.4210   31.6560   44.2980 C   0  0  0  0  0  0  0  0  0  0  0  0
   45.8480   30.3990   44.6370 C   0  0  0  0  0  0  0  0  0  0  0  0
   46.8500   30.1590   45.5650 C   0  0  0  0  0  0  0  0  0  0  0  0
   47.4090   31.2850   46.1450 C   0  0  0  0  0  0  0  0  0  0  0  0
   46.9750   32.4980   45.7960 N   0  0  0  0  0  0  0  0  0  0  0  0
   44.6360   31.7020   43.5620 H   0  0  0  0  0  0  0  0  0  0  0  0
   45.3880   29.5190   44.1610 H   0  0  0  0  0  0  0  0  0  0  0  0
   47.1680   29.1590   45.8160 H   0  0  0  0  0  0  0  0  0  0  0  0
   48.1950   31.1240   46.8660 H   0  0  0  0  0  0  0  0  0  0  0  0
   48.4310   33.2600   40.1340 C   0  0  0  0  0  0  0  0  0  0  0  0
   48.8580   33.8470   39.2450 H   0  0  0  0  0  0  0  0  0  0  0  0
   48.9900   33.8220   40.9490 H   0  0  0  0  0  0  0  0  0  0  0  0
   50.0970   31.4720   40.5770 C   0  0  0  0  0  0  0  0  0  0  0  0
   48.9110   31.9120   39.9420 C   0  0  0  0  0  0  0  0  0  0  0  0
   48.4330   30.8690   39.1420 C   0  0  0  0  0  0  0  0  0  0  0  0
   47.5510   31.0660   38.5510 H   0  0  0  0  0  0  0  0  0  0  0  0
   48.9340   29.6390   38.9430 C   0  0  0  0  0  0  0  0  0  0  0  0
   48.4390   28.9250   38.2760 H   0  0  0  0  0  0  0  0  0  0  0  0
   50.0840   29.2680   39.5870 C   0  0  0  0  0  3  0  0  0  0  0  0
   50.6680   30.2050   40.4120 C   0  0  0  0  0  3  0  0  0  0  0  0
   51.2940   33.1230   42.2390 N   0  0  0  0  0  0  0  0  0  0  0  0
   50.7670   32.3780   41.4910 C   0  0  0  0  0  0  0  0  0  0  0  0
  1  2  2  0  0  0  0
  1 19  1  0  0  0  0
  3  1  1  0  0  0  0
  4  3  1  0  0  0  0
  4  9  1  0  0  0  0
  5 11  1  0  0  0  0
  5  4  1  0  0  0  0
  6  7  1  0  0  0  0
  6  5  1  0  0  0  0
  7 16  1  0  0  0  0
  7  8  1  0  0  0  0
  8 17  1  6  0  0  0
  8 36  1  0  0  0  0
  8  3  1  0  0  0  0
 10  4  1  0  0  0  0
 12  5  1  0  0  0  0
 13  6  1  0  0  0  0
 14  6  1  0  0  0  0
 15  7  1  0  0  0  0
 18 19  2  0  0  0  0
 18 23  1  0  0  0  0
 19 20  1  0  0  0  0
 20 26  1  0  0  0  0
 20 21  2  0  0  0  0
 22 21  1  0  0  0  0
 22 25  1  0  0  0  0
 23 22  2  0  0  0  0
 24 18  1  0  0  0  0
 26 31  1  0  0  0  0
 27 28  1  0  0  0  0
 27 26  2  0  0  0  0
 28 29  2  0  0  0  0
 29 34  1  0  0  0  0
 29 30  1  0  0  0  0
 30 35  1  0  0  0  0
 31 30  2  0  0  0  0
 32 27  1  0  0  0  0
 33 28  1  0  0  0  0
 36 38  1  0  0  0  0
 37 36  1  0  0  0  0
 39 48  1  0  0  0  0
 40 36  1  0  0  0  0
 40 39  2  0  0  0  0
 41 40  1  0  0  0  0
 42 41  1  0  0  0  0
 43 41  2  0  0  0  0
 43 45  1  0  0  0  0
 44 43  1  0  0  0  0
 45 46  2  0  0  0  0
 46 39  1  0  0  0  0
 48 47  3  0  0  0  0
M  END
>  <minimizedAffinity>
-4.78480053

>  <minimizedRMSD>
1.35595322

$$$$
