
 OpenBabel03252507463D

 38 40  0  0  0  0  0  0  0  0999 V2000
   47.1920   34.4310   40.8630 C   0  0  0  0  0  0  0  0  0  0  0  0
   47.3670   35.2800   40.1620 H   0  0  0  0  0  0  0  0  0  0  0  0
   46.5790   33.6200   40.4180 H   0  0  0  0  0  0  0  0  0  0  0  0
   48.5140   33.9690   41.2990 C   0  0  0  0  0  0  0  0  0  0  0  0
   48.9100   32.7290   40.8220 C   0  0  0  0  0  0  0  0  0  0  0  0
   50.1490   32.1950   41.1930 C   0  0  0  0  0  0  0  0  0  0  0  0
   50.9320   32.9410   42.0310 N   0  0  0  0  0  0  0  0  0  0  0  0
   50.5010   34.1490   42.4710 C   0  0  0  0  0  0  0  0  0  0  0  0
   49.3190   34.6320   42.1030 N   0  0  0  0  0  0  0  0  0  0  0  0
   50.4230   31.2310   40.8040 H   0  0  0  0  0  0  0  0  0  0  0  0
   51.1010   34.7550   43.1340 H   0  0  0  0  0  0  0  0  0  0  0  0
   47.8590   31.7530   39.7330 S   0  0  0  0  0  0  0  0  0  0  0  0
   49.0240   32.1140   37.1220 C   0  0  0  0  0  0  0  0  0  0  0  0
   48.6910   31.3460   38.2140 C   0  0  0  0  0  0  0  0  0  0  0  0
   49.0330   29.9880   38.1840 C   0  0  0  0  0  0  0  0  0  0  0  0
   48.8490   29.2360   38.9540 H   0  0  0  0  0  0  0  0  0  0  0  0
   49.6900   29.4180   37.0960 C   0  0  0  0  0  0  0  0  0  0  0  0
   49.9760   28.3950   37.0120 H   0  0  0  0  0  0  0  0  0  0  0  0
   50.0170   30.2210   36.0010 C   0  0  0  0  0  3  0  0  0  0  0  0
   49.6700   31.5450   36.0550 C   0  0  0  0  0  3  0  0  0  0  0  0
   48.2910   34.5810   37.2830 N   0  0  0  0  0  0  0  0  0  0  0  0
   48.6240   33.4690   37.2210 C   0  0  0  0  0  0  0  0  0  0  0  0
   46.3590   34.9940   41.9860 C   0  0  0  0  0  0  0  0  0  0  0  0
   46.6630   36.0440   42.1930 H   0  0  0  0  0  0  0  0  0  0  0  0
   46.5410   34.4300   42.9320 H   0  0  0  0  0  0  0  0  0  0  0  0
   44.8900   34.9450   41.7360 C   0  0  0  0  0  0  0  0  0  0  0  0
   43.9930   35.4520   42.7260 C   0  0  0  0  0  0  0  0  0  0  0  0
   42.3460   35.1720   41.9690 S   0  0  0  0  0  0  0  0  0  0  0  0
   43.1600   34.4070   40.4240 C   0  0  0  0  0  0  0  0  0  0  0  0
   44.2660   34.4810   40.6900 N   0  0  0  0  0  0  0  0  0  0  0  0
   44.2600   35.8910   43.6850 H   0  0  0  0  0  0  0  0  0  0  0  0
   42.4280   33.9300   39.3350 O   0  0  0  0  0  0  0  0  0  0  0  0
   40.4530   34.3560   37.6270 O   0  0  0  0  0  0  0  0  0  0  0  0
   41.5340   35.0530   38.4390 P   0  0  0  0  0  0  0  0  0  0  0  0
   40.8000   36.1190   39.5210 O   0  0  0  0  0  0  0  0  0  0  0  0
   40.0030   35.6480   39.8850 H   0  0  0  0  0  0  0  0  0  0  0  0
   42.5790   35.9400   37.4340 O   0  0  0  0  0  0  0  0  0  0  0  0
   42.9110   35.3770   36.6910 H   0  0  0  0  0  0  0  0  0  0  0  0
  1  4  1  0  0  0  0
  1 23  1  0  0  0  0
  2  1  1  0  0  0  0
  3  1  1  0  0  0  0
  4  9  1  0  0  0  0
  5  6  1  0  0  0  0
  5  4  2  0  0  0  0
  6  7  2  0  0  0  0
  7  8  1  0  0  0  0
  8 11  1  0  0  0  0
  9  8  2  0  0  0  0
 10  6  1  0  0  0  0
 12  5  1  0  0  0  0
 13 22  1  0  0  0  0
 13 14  1  0  0  0  0
 14 12  1  0  0  0  0
 15 14  2  0  0  0  0
 15 16  1  0  0  0  0
 17 15  1  0  0  0  0
 18 17  1  0  0  0  0
 19 20  1  0  0  0  0
 19 17  2  0  0  0  0
 20 13  2  0  0  0  0
 22 21  3  0  0  0  0
 23 24  1  0  0  0  0
 23 25  1  0  0  0  0
 26 23  1  0  0  0  0
 26 27  2  0  0  0  0
 27 31  1  0  0  0  0
 28 27  1  0  0  0  0
 29 30  2  0  0  0  0
 29 28  1  0  0  0  0
 30 26  1  0  0  0  0
 32 29  1  0  0  0  0
 33 34  2  0  0  0  0
 34 32  1  0  0  0  0
 34 35  1  0  0  0  0
 35 36  1  0  0  0  0
 37 34  1  0  0  0  0
 38 37  1  0  0  0  0
M  END
>  <minimizedAffinity>
-4.93780804

>  <minimizedRMSD>
0.941112876

$$$$
