
 OpenBabel03252508033D

 43 46  0  0  1  0  0  0  0  0999 V2000
   41.3510   33.2780   41.2220 C   0  0  0  0  0  0  0  0  0  0  0  0
   42.4840   34.0410   41.2260 C   0  0  0  0  0  0  0  0  0  0  0  0
   42.3460   35.4270   41.0100 C   0  0  0  0  0  0  0  0  0  0  0  0
   41.1350   36.0420   40.7990 C   0  0  0  0  0  0  0  0  0  0  0  0
   40.0020   35.2690   40.7980 C   0  0  0  0  0  0  0  0  0  0  0  0
   40.1290   33.9270   41.0050 C   0  0  0  0  0  0  0  0  0  0  0  0
   43.1830   36.1110   40.9860 H   0  0  0  0  0  0  0  0  0  0  0  0
   41.0290   37.0820   40.6370 H   0  0  0  0  0  0  0  0  0  0  0  0
   39.0340   35.6740   40.6420 H   0  0  0  0  0  0  0  0  0  0  0  0
   39.2140   33.3130   41.0020 H   0  0  0  0  0  0  0  0  0  0  0  0
   41.3640   31.6300   41.5650 S   0  0  0  0  0  0  0  0  0  0  0  0
   39.8910   31.4340   42.0450 O   0  0  0  0  0  0  0  0  0  0  0  0
   42.2370   31.2760   42.7080 O   0  0  0  0  0  0  0  0  0  0  0  0
   40.8140   29.0900   41.2440 C   0  0  0  0  0  0  0  0  0  0  0  0
   41.1200   30.2990   40.5610 C   0  0  0  0  0  0  0  0  0  0  0  0
   41.0830   30.0970   39.1840 C   0  0  0  0  0  0  0  0  0  0  0  0
   41.2760   31.0610   38.6740 H   0  0  0  0  0  0  0  0  0  0  0  0
   40.8180   28.9840   38.4190 C   0  0  0  0  0  0  0  0  0  0  0  0
   40.8520   29.0730   37.3510 H   0  0  0  0  0  0  0  0  0  0  0  0
   40.5510   27.9400   39.2320 C   0  0  0  0  0  3  0  0  0  0  0  0
   40.5290   27.9130   40.5970 C   0  0  0  0  0  3  0  0  0  0  0  0
   40.7490   28.9140   43.8540 N   0  0  0  0  0  0  0  0  0  0  0  0
   40.7810   29.0040   42.7000 C   0  0  0  0  0  0  0  0  0  0  0  0
   43.8090   33.4880   41.4410 C   0  0  0  0  0  0  0  0  0  0  0  0
   44.4200   32.7510   40.6100 O   0  0  0  0  0  0  0  0  0  0  0  0
   44.3820   33.8620   42.7100 C   0  0  0  0  0  0  0  0  0  0  0  0
   44.3270   35.2640   43.0240 C   0  0  0  0  0  0  0  0  0  0  0  0
   44.8660   35.6490   44.2420 C   0  0  0  0  0  0  0  0  0  0  0  0
   45.4020   34.6940   45.0460 N   0  0  0  0  0  0  0  0  0  0  0  0
   45.4280   33.3680   44.6960 C   0  0  0  0  0  0  0  0  0  0  0  0
   44.9290   33.0030   43.5650 N   0  0  0  0  0  0  0  0  0  0  0  0
   43.9270   36.0690   42.4500 H   0  0  0  0  0  0  0  0  0  0  0  0
   44.8830   36.6570   44.5850 H   0  0  0  0  0  0  0  0  0  0  0  0
   46.0220   32.3990   45.6410 C   0  0  1  0  0  0  0  0  0  0  0  0
   46.9450   32.9040   46.7240 C   0  0  0  0  0  0  0  0  0  0  0  0
   45.5330   32.5120   47.0330 C   0  0  1  0  0  0  0  0  0  0  0  0
   46.1640   31.3770   45.2570 H   0  0  0  0  0  0  0  0  0  0  0  0
   47.2610   33.9540   46.6390 H   0  0  0  0  0  0  0  0  0  0  0  0
   47.7520   32.1910   47.0550 H   0  0  0  0  0  0  0  0  0  0  0  0
   45.4000   31.6160   47.6690 H   0  0  0  0  0  0  0  0  0  0  0  0
   44.7150   33.6430   47.4330 N   0  0  0  0  0  0  0  0  0  0  0  0
   45.2070   34.2100   48.1500 H   0  0  0  0  0  0  0  0  0  0  0  0
   43.8140   33.2610   47.8330 H   0  0  0  0  0  0  0  0  0  0  0  0
  1  2  1  0  0  0  0
  1 11  1  0  0  0  0
  2 24  1  0  0  0  0
  3  2  2  0  0  0  0
  4  3  1  0  0  0  0
  5  4  2  0  0  0  0
  5  6  1  0  0  0  0
  6  1  2  0  0  0  0
  7  3  1  0  0  0  0
  8  4  1  0  0  0  0
  9  5  1  0  0  0  0
 10  6  1  0  0  0  0
 11 12  2  0  0  0  0
 11 13  2  0  0  0  0
 14 23  1  0  0  0  0
 15 14  2  0  0  0  0
 15 11  1  0  0  0  0
 16 15  1  0  0  0  0
 17 16  1  0  0  0  0
 18 16  2  0  0  0  0
 18 20  1  0  0  0  0
 19 18  1  0  0  0  0
 20 21  2  0  0  0  0
 21 14  1  0  0  0  0
 23 22  3  0  0  0  0
 24 26  1  0  0  0  0
 25 24  2  0  0  0  0
 26 27  2  0  0  0  0
 26 31  1  0  0  0  0
 27 28  1  0  0  0  0
 28 33  1  0  0  0  0
 28 29  2  0  0  0  0
 30 29  1  0  0  0  0
 30 34  1  0  0  0  0
 31 30  2  0  0  0  0
 32 27  1  0  0  0  0
 34 37  1  6  0  0  0
 34 35  1  0  0  0  0
 34 36  1  0  0  0  0
 35 36  1  0  0  0  0
 35 39  1  0  0  0  0
 36 41  1  0  0  0  0
 36 40  1  1  0  0  0
 38 35  1  0  0  0  0
 41 43  1  0  0  0  0
 41 42  1  0  0  0  0
M  END
>  <minimizedAffinity>
-5.63140011

>  <minimizedRMSD>
3.2844131

$$$$
