REMARK  Name = 
REMARK  6 active torsions:
REMARK  status: ('A' for Active; 'I' for Inactive)
REMARK    1  A    between atoms: C_2  and  S_10
REMARK    2  A    between atoms: S_10  and  C_11
REMARK    3  A    between atoms: C_13  and  C_31
REMARK    4  A    between atoms: C_15  and  O_17
REMARK    5  A    between atoms: O_17  and  C_18
REMARK    6  A    between atoms: C_29  and  C_30
REMARK                            x       y       z     vdW  Elec       q    Type
REMARK                         _______ _______ _______ _____ _____    ______ ____
ROOT
ATOM      1  C   UNL     1      43.910  34.756  40.944  0.00  0.00    +0.000 A 
ATOM      2  C   UNL     1      43.874  33.813  39.946  0.00  0.00    +0.000 A 
ATOM      3  C   UNL     1      45.068  33.197  39.577  0.00  0.00    +0.000 A 
ATOM      4  N   UNL     1      46.195  33.576  40.242  0.00  0.00    +0.000 NA
ATOM      5  C   UNL     1      46.198  34.499  41.213  0.00  0.00    +0.000 A 
ATOM      6  N   UNL     1      45.053  35.063  41.536  0.00  0.00    +0.000 NA
ATOM      7  H   UNL     1      42.975  33.527  39.473  0.00  0.00    +0.000 HD
ENDROOT
BRANCH   3   9
ATOM      8  C   UNL     1      45.667  32.252  37.304  0.00  0.00    +0.000 A 
ATOM      9  C   UNL     1      45.267  32.167  38.600  0.00  0.00    +0.000 A 
ATOM     10  C   UNL     1      45.062  30.838  38.980  0.00  0.00    +0.000 A 
ATOM     11  H   UNL     1      44.739  30.583  39.988  0.00  0.00    +0.000 HD
ATOM     12  C   UNL     1      45.233  29.752  38.171  0.00  0.00    +0.000 A 
ATOM     13  H   UNL     1      45.061  28.742  38.514  0.00  0.00    +0.000 HD
ATOM     14  C   UNL     1      45.639  29.918  36.870  0.00  0.00    +0.000 A 
ATOM     15  C   UNL     1      45.853  31.190  36.450  0.00  0.00    +0.000 A 
BRANCH   8  17
ATOM     16  N   UNL     1      46.261  34.565  36.317  0.00  0.00    +0.000 NA
ATOM     17  C   UNL     1      45.985  33.532  36.764  0.00  0.00    +0.000 C 
ENDBRANCH   8  17
ENDBRANCH   3   9
BRANCH   1  18
ATOM     18  S   UNL     1      42.323  35.519  41.363  0.00  0.00    +0.000 S 
BRANCH  18  20
ATOM     19  C   UNL     1      39.967  34.872  40.232  0.00  0.00    +0.000 A 
ATOM     20  C   UNL     1      40.980  34.400  41.053  0.00  0.00    +0.000 A 
ATOM     21  C   UNL     1      40.913  33.134  41.578  0.00  0.00    +0.000 A 
ATOM     22  C   UNL     1      39.851  32.287  41.317  0.00  0.00    +0.000 A 
ATOM     23  C   UNL     1      38.822  32.768  40.483  0.00  0.00    +0.000 A 
ATOM     24  C   UNL     1      38.882  34.040  39.951  0.00  0.00    +0.000 A 
ATOM     25  O   UNL     1      37.869  31.744  40.367  0.00  0.00    +0.000 OA
ATOM     26  C   UNL     1      38.147  30.835  41.416  0.00  0.00    +0.000 C 
ATOM     27  O   UNL     1      39.526  30.985  41.703  0.00  0.00    +0.000 OA
ATOM     28  H   UNL     1      39.943  35.853  39.779  0.00  0.00    +0.000 HD
ATOM     29  H   UNL     1      41.726  32.789  42.222  0.00  0.00    +0.000 HD
ATOM     30  H   UNL     1      38.081  34.401  39.307  0.00  0.00    +0.000 HD
ATOM     31  H   UNL     1      37.590  31.032  42.334  0.00  0.00    +0.000 HD
ATOM     32  H   UNL     1      37.928  29.797  41.104  0.00  0.00    +0.000 HD
ENDBRANCH  18  20
ENDBRANCH   1  18
BRANCH   5  33
ATOM     33  O   UNL     1      47.319  34.900  41.900  0.00  0.00    +0.000 OA
BRANCH  33  34
ATOM     34  C   UNL     1      48.536  35.034  41.230  0.00  0.00    +0.000 C 
ATOM     35  F   UNL     1      49.357  33.959  41.380  0.00  0.00    +0.000 F 
ATOM     36  F   UNL     1      48.191  35.291  39.889  0.00  0.00    +0.000 F 
ATOM     37  F   UNL     1      49.180  36.145  41.773  0.00  0.00    +0.000 F 
ENDBRANCH  33  34
ENDBRANCH   5  33
TORSDOF 6
