
 OpenBabel03252505433D

 43 46  0  0  1  0  0  0  0  0999 V2000
   42.8190   34.3700   39.6690 C   0  0  0  0  0  0  0  0  0  0  0  0
   41.8360   35.2470   39.2680 C   0  0  0  0  0  0  0  0  0  0  0  0
   40.8210   34.8920   38.4200 C   0  0  0  0  0  0  0  0  0  0  0  0
   40.7920   33.6280   37.9620 N   0  0  0  0  0  0  0  0  0  0  0  0
   41.7560   32.7460   38.3480 C   0  0  0  0  0  0  0  0  0  0  0  0
   42.7550   33.0990   39.1860 N   0  0  0  0  0  0  0  0  0  0  0  0
   41.8990   36.2620   39.6630 H   0  0  0  0  0  0  0  0  0  0  0  0
   40.0770   35.6250   38.1390 H   0  0  0  0  0  0  0  0  0  0  0  0
   43.8480   34.2850   41.9160 C   0  0  1  0  0  0  0  0  0  0  0  0
   43.5600   35.8070   41.6750 C   0  0  0  0  0  0  0  0  0  0  0  0
   43.9380   34.8080   40.5860 C   0  0  2  0  0  0  0  0  0  0  0  0
   42.9140   33.7670   42.2680 H   0  0  0  0  0  0  0  0  0  0  0  0
   44.3560   36.4930   41.9750 H   0  0  0  0  0  0  0  0  0  0  0  0
   42.5240   36.1380   41.6850 H   0  0  0  0  0  0  0  0  0  0  0  0
   44.8330   35.0550   40.0190 H   0  0  0  0  0  0  0  0  0  0  0  0
   45.0170   34.0350   42.7880 C   0  0  0  0  0  0  0  0  0  0  0  0
   46.2940   34.2850   42.2590 C   0  0  0  0  0  0  0  0  0  0  0  0
   47.4040   34.0580   43.0630 C   0  0  0  0  0  0  0  0  0  0  0  0
   47.1920   33.6010   44.3270 N   0  0  0  0  0  0  0  0  0  0  0  0
   45.9660   33.3730   44.7990 C   0  0  0  0  0  0  0  0  0  0  0  0
   44.9060   33.5970   44.0150 N   0  0  0  0  0  0  0  0  0  0  0  0
   46.4580   34.6430   41.2690 H   0  0  0  0  0  0  0  0  0  0  0  0
   48.4260   34.2230   42.7410 H   0  0  0  0  0  0  0  0  0  0  0  0
   45.9420   32.8750   46.2170 C   0  0  0  0  0  0  0  0  0  0  0  0
   45.0320   33.5810   46.9840 F   0  0  0  0  0  0  0  0  0  0  0  0
   47.2080   33.1170   46.8020 F   0  0  0  0  0  0  0  0  0  0  0  0
   45.7620   31.5210   46.2270 F   0  0  0  0  0  0  0  0  0  0  0  0
   41.7920   31.3290   37.8660 C   0  0  0  0  0  0  0  0  0  0  0  0
   42.0830   30.6500   38.6930 H   0  0  0  0  0  0  0  0  0  0  0  0
   40.7860   30.9850   37.5180 H   0  0  0  0  0  0  0  0  0  0  0  0
   42.8320   31.1840   36.7760 C   0  0  0  0  0  0  0  0  0  0  0  0
   43.0550   32.2100   36.4070 H   0  0  0  0  0  0  0  0  0  0  0  0
   42.4030   30.6210   35.9390 H   0  0  0  0  0  0  0  0  0  0  0  0
   45.2310   30.8460   36.5850 C   0  0  0  0  0  0  0  0  0  0  0  0
   44.0880   30.5850   37.2960 C   0  0  0  0  0  0  0  0  0  0  0  0
   44.1940   29.7990   38.4220 C   0  0  0  0  0  0  0  0  0  0  0  0
   43.2720   29.6160   38.9530 H   0  0  0  0  0  0  0  0  0  0  0  0
   45.4060   29.2850   38.8330 C   0  0  0  0  0  0  0  0  0  0  0  0
   45.4810   28.6720   39.7160 H   0  0  0  0  0  0  0  0  0  0  0  0
   46.5080   29.5890   38.0730 C   0  0  0  0  0  3  0  0  0  0  0  0
   46.4940   30.3670   36.9320 C   0  0  0  0  0  3  0  0  0  0  0  0
   45.1820   32.3240   34.4160 N   0  0  0  0  0  0  0  0  0  0  0  0
   45.1930   31.6680   35.3860 C   0  0  0  0  0  0  0  0  0  0  0  0
  1 11  1  0  0  0  0
  2  7  1  0  0  0  0
  2  1  1  0  0  0  0
  3  2  2  0  0  0  0
  4  5  2  0  0  0  0
  4  3  1  0  0  0  0
  5  6  1  0  0  0  0
  6  1  2  0  0  0  0
  8  3  1  0  0  0  0
  9 12  1  1  0  0  0
  9 16  1  0  0  0  0
 10 14  1  0  0  0  0
 10  9  1  0  0  0  0
 10 13  1  0  0  0  0
 11 15  1  6  0  0  0
 11 10  1  0  0  0  0
 11  9  1  0  0  0  0
 16 21  1  0  0  0  0
 17 16  2  0  0  0  0
 17 18  1  0  0  0  0
 18 19  2  0  0  0  0
 19 20  1  0  0  0  0
 20 24  1  0  0  0  0
 21 20  2  0  0  0  0
 22 17  1  0  0  0  0
 23 18  1  0  0  0  0
 24 27  1  0  0  0  0
 24 26  1  0  0  0  0
 24 25  1  0  0  0  0
 28  5  1  0  0  0  0
 28 29  1  0  0  0  0
 30 28  1  0  0  0  0
 31 35  1  0  0  0  0
 31 28  1  0  0  0  0
 32 31  1  0  0  0  0
 33 31  1  0  0  0  0
 34 41  2  0  0  0  0
 34 35  1  0  0  0  0
 35 36  2  0  0  0  0
 36 38  1  0  0  0  0
 36 37  1  0  0  0  0
 38 39  1  0  0  0  0
 40 38  2  0  0  0  0
 41 40  1  0  0  0  0
 42 43  3  0  0  0  0
 43 34  1  0  0  0  0
M  END
>  <minimizedAffinity>
-4.93322325

>  <minimizedRMSD>
5.4675703

$$$$
