
     RDKit          3D

 44 48  0  0  0  0  0  0  0  0999 V2000
   45.5039   35.3326   42.7951 O   0  0  0  0  0  0  0  0  0  0  0  0
   44.5893   35.0087   41.7986 C   0  0  0  0  0  0  0  0  0  0  0  0
   44.7964   34.2013   40.7077 C   0  0  0  0  0  0  0  0  0  0  0  0
   43.7758   33.9813   39.8069 C   0  0  0  0  0  0  0  0  0  0  0  0
   42.5224   34.5488   39.9532 C   0  0  0  0  0  0  0  0  0  0  0  0
   41.5864   34.2941   39.0481 N   0  0  0  0  0  0  0  0  0  0  0  0
   40.3502   34.8309   39.1580 C   0  0  0  0  0  0  0  0  0  0  0  0
   40.0992   35.6527   40.2459 C   0  0  0  0  0  0  0  0  0  0  0  0
   41.0852   35.9236   41.2033 C   0  0  0  0  0  0  0  0  0  0  0  0
   42.3346   35.3577   41.0572 C   0  0  0  0  0  0  0  0  0  0  0  0
   43.3529   35.5987   41.9879 C   0  0  0  0  0  0  0  0  0  0  0  0
   44.9196   34.8553   45.1426 C   0  0  0  0  0  0  0  0  0  0  0  0
   45.6577   34.6386   43.9816 C   0  0  0  0  0  0  0  0  0  0  0  0
   46.6476   33.6286   44.0083 C   0  0  0  0  0  0  0  0  0  0  0  0
   46.8196   32.9358   45.1518 N   0  0  0  0  0  0  0  0  0  0  0  0
   46.0872   33.1688   46.2641 C   0  0  0  0  0  0  0  0  0  0  0  0
   45.1337   34.1410   46.2397 N   0  0  0  0  0  0  0  0  0  0  0  0
   46.2332   32.4499   47.5226 C   0  0  0  0  0  0  0  0  0  0  0  0
   45.1291   31.9489   48.2078 C   0  0  0  0  0  0  0  0  0  0  0  0
   45.6028   31.3267   49.3524 C   0  0  0  0  0  0  0  0  0  0  0  0
   46.9447   31.4575   49.3416 N   0  0  0  0  0  0  0  0  0  0  0  0
   47.2875   32.1275   48.2447 N   0  0  0  0  0  0  0  0  0  0  0  0
   45.7926   33.7731   40.6256 H   0  0  0  0  0  0  0  0  0  0  0  0
   43.9737   33.3346   38.9511 H   0  0  0  0  0  0  0  0  0  0  0  0
   39.5705   34.6338   38.4267 H   0  0  0  0  0  0  0  0  0  0  0  0
   39.1519   36.1219   40.4166 H   0  0  0  0  0  0  0  0  0  0  0  0
   40.8934   36.5674   42.0583 H   0  0  0  0  0  0  0  0  0  0  0  0
   43.0861   36.2475   42.8083 H   0  0  0  0  0  0  0  0  0  0  0  0
   44.1646   35.6360   45.0992 H   0  0  0  0  0  0  0  0  0  0  0  0
   47.2580   33.4001   43.1567 H   0  0  0  0  0  0  0  0  0  0  0  0
   44.0484   31.9690   48.0009 H   0  0  0  0  0  0  0  0  0  0  0  0
   45.0744   30.8188   50.1412 H   0  0  0  0  0  0  0  0  0  0  0  0
   49.7266   33.5402   48.6732 N   0  0  0  0  0  0  0  0  0  0  0  0
   49.5005   32.6525   49.4008 C   0  0  0  0  0  0  0  0  0  0  0  0
   49.2219   31.5795   50.3125 C   0  0  0  0  0  0  0  0  0  0  0  0
   47.9553   31.0239   50.2475 C   0  0  0  0  0  0  0  0  0  0  0  0
   47.6294   29.9759   51.1123 C   0  0  0  0  0  0  0  0  0  0  0  0
   46.6612   29.4900   51.1223 H   0  0  0  0  0  0  0  0  0  0  0  0
   48.5840   29.5158   52.0172 C   0  0  0  0  0  0  0  0  0  0  0  0
   48.3749   28.7023   52.7095 H   0  0  0  0  0  0  0  0  0  0  0  0
   49.8685   30.0664   52.0956 C   0  0  0  0  0  0  0  0  0  0  0  0
   50.1664   31.1138   51.2180 C   0  0  0  0  0  0  0  0  0  0  0  0
   50.5887   29.6874   52.8093 H   0  0  0  0  0  0  0  0  0  0  0  0
   51.1646   31.5689   51.2524 H   0  0  0  0  0  0  0  0  0  0  0  0
  1 13  1  0
  2 11  1  0
  2  1  1  0
  3  2  2  0
  4  5  2  0
  4  3  1  0
  5 10  1  0
  6  7  2  0
  6  5  1  0
  7  8  1  0
  8  9  2  0
 10  9  1  0
 10 11  2  0
 12 17  2  0
 13 14  2  0
 13 12  1  0
 14 15  1  0
 15 16  2  0
 16 18  1  0
 17 16  1  0
 18 19  1  0
 18 22  2  0
 19 20  2  0
 21 20  1  0
 22 21  1  0
  3 23  1  0
  4 24  1  0
  7 25  1  0
  8 26  1  0
  9 27  1  0
 11 28  1  0
 12 29  1  0
 14 30  1  0
 19 31  1  0
 20 32  1  0
 33 34  3  0
 34 35  1  0
 35 36  2  0
 36 37  1  0
 37 38  1  0
 37 39  2  0
 39 40  1  0
 39 41  1  0
 41 42  2  0
 42 35  1  0
 41 43  1  0
 42 44  1  0
 21 36  1  0
M  ISO  8  23  14  24  14  25  14  26  14  27  14  28  14  29  14  30  14
M  ISO  4  31  14  32  14  38  15  40  16
M  END
>  <DihAtoms>  (1) 
19,20,35,34

>  <DihDeg>  (1) 
95.87856271202381

$$$$
