
 OpenBabel03242519253D

 41 44  0  0  0  0  0  0  0  0999 V2000
   47.9130   33.7840   42.8880 C   0  0  0  0  0  0  0  0  0  0  0  0
   48.5860   34.9990   42.6600 C   0  0  0  0  0  0  0  0  0  0  0  0
   49.9540   34.9960   42.3440 C   0  0  0  0  0  0  0  0  0  0  0  0
   50.5520   33.7650   42.2780 N   0  0  0  0  0  0  0  0  0  0  0  0
   49.8670   32.6020   42.5050 C   0  0  0  0  0  0  0  0  0  0  0  0
   48.5760   32.6280   42.8030 N   0  0  0  0  0  0  0  0  0  0  0  0
   48.1960   36.0020   42.6920 H   0  0  0  0  0  0  0  0  0  0  0  0
   50.5310   35.8770   42.1580 H   0  0  0  0  0  0  0  0  0  0  0  0
   46.4820   33.9120   43.2180 C   0  0  0  0  0  0  0  0  0  0  0  0
   45.7760   34.9170   42.4240 C   0  0  0  0  0  0  0  0  0  0  0  0
   45.3290   36.1050   43.1970 C   0  0  0  0  0  0  0  0  0  0  0  0
   44.5220   35.7500   44.4330 C   0  0  0  0  0  0  0  0  0  0  0  0
   44.9840   34.4920   45.1290 C   0  0  0  0  0  0  0  0  0  0  0  0
   46.4110   34.1600   44.7360 C   0  0  0  0  0  0  0  0  0  0  0  0
   46.0250   32.8840   43.1070 H   0  0  0  0  0  0  0  0  0  0  0  0
   46.3410   35.2700   41.5550 H   0  0  0  0  0  0  0  0  0  0  0  0
   44.8470   34.4490   41.9840 H   0  0  0  0  0  0  0  0  0  0  0  0
   44.6040   36.6680   42.5370 H   0  0  0  0  0  0  0  0  0  0  0  0
   46.0830   36.8340   43.4810 H   0  0  0  0  0  0  0  0  0  0  0  0
   43.4260   35.7100   44.2010 H   0  0  0  0  0  0  0  0  0  0  0  0
   44.6240   36.5660   45.1790 H   0  0  0  0  0  0  0  0  0  0  0  0
   44.3230   33.6440   44.8050 H   0  0  0  0  0  0  0  0  0  0  0  0
   44.9300   34.5330   46.2240 H   0  0  0  0  0  0  0  0  0  0  0  0
   47.0660   35.0210   44.9260 H   0  0  0  0  0  0  0  0  0  0  0  0
   46.7360   33.2540   45.2620 H   0  0  0  0  0  0  0  0  0  0  0  0
   50.6680   31.3830   42.3990 C   0  0  0  0  0  0  0  0  0  0  0  0
   51.5180   31.2900   41.3520 N   0  0  0  0  0  0  0  0  0  0  0  0
   52.1700   30.1190   41.4120 C   0  0  0  0  0  0  0  0  0  0  0  0
   51.7090   29.4780   42.5220 N   0  0  0  0  0  0  0  0  0  0  0  0
   50.7870   30.2500   43.1300 N   0  0  0  0  0  0  0  0  0  0  0  0
   52.9240   29.6900   40.7580 H   0  0  0  0  0  0  0  0  0  0  0  0
   51.4510   26.9990   42.7740 C   0  0  0  0  0  0  0  0  0  0  0  0
   52.0430   28.2100   43.0770 C   0  0  0  0  0  0  0  0  0  0  0  0
   53.0800   28.2640   44.0160 C   0  0  0  0  0  0  0  0  0  0  0  0
   53.5870   29.1970   44.2940 H   0  0  0  0  0  0  0  0  0  0  0  0
   53.5360   27.1280   44.6560 C   0  0  0  0  0  0  0  0  0  0  0  0
   54.3410   27.1890   45.3810 H   0  0  0  0  0  0  0  0  0  0  0  0
   52.9140   25.9310   44.3250 C   0  0  0  0  0  3  0  0  0  0  0  0
   51.8890   25.8460   43.4030 C   0  0  0  0  0  3  0  0  0  0  0  0
   49.5560   27.0370   41.0160 N   0  0  0  0  0  0  0  0  0  0  0  0
   50.4100   27.0290   41.8160 C   0  0  0  0  0  0  0  0  0  0  0  0
  1  9  1  0  0  0  0
  2  7  1  0  0  0  0
  2  1  2  0  0  0  0
  3  2  1  0  0  0  0
  4  3  2  0  0  0  0
  4  5  1  0  0  0  0
  5  6  2  0  0  0  0
  6  1  1  0  0  0  0
  8  3  1  0  0  0  0
  9 14  1  0  0  0  0
 10 11  1  0  0  0  0
 10  9  1  0  0  0  0
 11 19  1  0  0  0  0
 11 12  1  0  0  0  0
 12 13  1  0  0  0  0
 12 21  1  0  0  0  0
 13 23  1  0  0  0  0
 14 24  1  0  0  0  0
 14 13  1  0  0  0  0
 14 25  1  0  0  0  0
 15  9  1  0  0  0  0
 16 10  1  0  0  0  0
 17 10  1  0  0  0  0
 18 11  1  0  0  0  0
 20 12  1  0  0  0  0
 22 13  1  0  0  0  0
 26  5  1  0  0  0  0
 26 30  2  0  0  0  0
 27 28  2  0  0  0  0
 27 26  1  0  0  0  0
 28 29  1  0  0  0  0
 29 33  1  0  0  0  0
 29 30  1  0  0  0  0
 31 28  1  0  0  0  0
 32 33  2  0  0  0  0
 32 39  1  0  0  0  0
 33 34  1  0  0  0  0
 34 35  1  0  0  0  0
 34 36  2  0  0  0  0
 36 37  1  0  0  0  0
 38 36  1  0  0  0  0
 39 38  2  0  0  0  0
 40 41  3  0  0  0  0
 41 32  1  0  0  0  0
M  END
>  <minimizedAffinity>
-4.02520752

>  <minimizedRMSD>
1.22389889

$$$$
