
 OpenBabel03242511073D

 28 30  0  0  1  0  0  0  0  0999 V2000
   37.8750   27.5470   42.6460 C   0  0  1  0  0  0  0  0  0  0  0  0
   36.7870   27.5760   43.6800 C   0  0  0  0  0  0  0  0  0  0  0  0
   37.4720   28.8580   43.1690 C   0  0  2  0  0  0  0  0  0  0  0  0
   37.5660   27.2800   41.6090 H   0  0  0  0  0  0  0  0  0  0  0  0
   37.0850   27.1490   44.6380 H   0  0  0  0  0  0  0  0  0  0  0  0
   35.7600   27.3620   43.3230 H   0  0  0  0  0  0  0  0  0  0  0  0
   38.0910   29.3190   43.9910 H   0  0  0  0  0  0  0  0  0  0  0  0
   41.4440   27.3130   43.6150 C   0  0  0  0  0  0  0  0  0  0  0  0
   41.6560   25.8900   43.5750 C   0  0  0  0  0  0  0  0  0  0  0  0
   40.5490   25.0550   43.2210 C   0  0  0  0  0  0  0  0  0  0  0  0
   39.3720   25.6280   42.9450 N   0  0  0  0  0  0  0  0  0  0  0  0
   39.2080   26.9780   42.9930 C   0  0  0  0  0  0  0  0  0  0  0  0
   40.2270   27.8010   43.3220 N   0  0  0  0  0  0  0  0  0  0  0  0
   42.3060   27.9050   43.8870 H   0  0  0  0  0  0  0  0  0  0  0  0
   42.6190   25.4930   43.8060 H   0  0  0  0  0  0  0  0  0  0  0  0
   40.7400   23.9900   43.2010 H   0  0  0  0  0  0  0  0  0  0  0  0
   36.6400   29.7670   42.4550 N   0  0  0  0  0  0  0  0  0  0  0  0
   36.2200   30.5190   43.0510 H   0  0  0  0  0  0  0  0  0  0  0  0
   37.0760   30.5050   40.1790 C   0  0  0  0  0  0  0  0  0  0  0  0
   36.3480   29.7360   41.0630 C   0  0  0  0  0  0  0  0  0  0  0  0
   35.3350   28.9330   40.5860 C   0  0  0  0  0  0  0  0  0  0  0  0
   34.7280   28.3100   41.2090 H   0  0  0  0  0  0  0  0  0  0  0  0
   35.0340   28.8870   39.2370 C   0  0  0  0  0  0  0  0  0  0  0  0
   34.2610   28.2870   38.7910 H   0  0  0  0  0  0  0  0  0  0  0  0
   35.8070   29.6870   38.4010 C   0  0  0  0  0  3  0  0  0  0  0  0
   36.8260   30.5020   38.8220 C   0  0  0  0  0  3  0  0  0  0  0  0
   38.9720   31.9730   41.1830 N   0  0  0  0  0  0  0  0  0  0  0  0
   38.1270   31.3260   40.7370 C   0  0  0  0  0  0  0  0  0  0  0  0
  1  4  1  6  0  0  0
  1 12  1  0  0  0  0
  1  3  1  0  0  0  0
  1  2  1  0  0  0  0
  2  5  1  0  0  0  0
  3  2  1  0  0  0  0
  3  7  1  1  0  0  0
  6  2  1  0  0  0  0
  8 14  1  0  0  0  0
  9  8  1  0  0  0  0
  9 15  1  0  0  0  0
 10  9  2  0  0  0  0
 11 12  2  0  0  0  0
 11 10  1  0  0  0  0
 12 13  1  0  0  0  0
 13  8  2  0  0  0  0
 16 10  1  0  0  0  0
 17 18  1  0  0  0  0
 17  3  1  0  0  0  0
 19 28  1  0  0  0  0
 19 20  1  0  0  0  0
 20 17  1  0  0  0  0
 21 20  2  0  0  0  0
 21 22  1  0  0  0  0
 23 21  1  0  0  0  0
 24 23  1  0  0  0  0
 25 26  1  0  0  0  0
 25 23  2  0  0  0  0
 26 19  2  0  0  0  0
 28 27  3  0  0  0  0
M  END
>  <minimizedAffinity>
-5.15527916

$$$$

 OpenBabel03242511073D

 28 30  0  0  1  0  0  0  0  0999 V2000
   36.9900   30.2630   39.4790 C   0  0  1  0  0  0  0  0  0  0  0  0
   36.8830   31.6760   39.9740 C   0  0  0  0  0  0  0  0  0  0  0  0
   36.1760   30.5010   40.6760 C   0  0  2  0  0  0  0  0  0  0  0  0
   37.9790   29.7670   39.6090 H   0  0  0  0  0  0  0  0  0  0  0  0
   36.3160   32.3290   39.3090 H   0  0  0  0  0  0  0  0  0  0  0  0
   37.7850   32.1000   40.4580 H   0  0  0  0  0  0  0  0  0  0  0  0
   35.0590   30.5940   40.5540 H   0  0  0  0  0  0  0  0  0  0  0  0
   34.5200   28.9360   37.0560 C   0  0  0  0  0  0  0  0  0  0  0  0
   35.2040   29.1470   35.8080 C   0  0  0  0  0  0  0  0  0  0  0  0
   36.5010   29.7530   35.8460 C   0  0  0  0  0  0  0  0  0  0  0  0
   37.0170   30.0950   37.0320 N   0  0  0  0  0  0  0  0  0  0  0  0
   36.3410   29.8810   38.1940 C   0  0  0  0  0  0  0  0  0  0  0  0
   35.1150   29.3120   38.2010 N   0  0  0  0  0  0  0  0  0  0  0  0
   33.5440   28.4770   36.9810 H   0  0  0  0  0  0  0  0  0  0  0  0
   34.7400   28.8520   34.8950 H   0  0  0  0  0  0  0  0  0  0  0  0
   36.9890   29.8980   34.8920 H   0  0  0  0  0  0  0  0  0  0  0  0
   36.6180   30.2090   41.9980 N   0  0  0  0  0  0  0  0  0  0  0  0
   36.4120   30.9640   42.6940 H   0  0  0  0  0  0  0  0  0  0  0  0
   38.6330   29.0540   42.7210 C   0  0  0  0  0  0  0  0  0  0  0  0
   37.2860   29.0270   42.4270 C   0  0  0  0  0  0  0  0  0  0  0  0
   36.5890   27.8450   42.5530 C   0  0  0  0  0  0  0  0  0  0  0  0
   35.5440   27.7470   42.3440 H   0  0  0  0  0  0  0  0  0  0  0  0
   37.2170   26.6850   42.9690 C   0  0  0  0  0  0  0  0  0  0  0  0
   36.7410   25.7290   43.0910 H   0  0  0  0  0  0  0  0  0  0  0  0
   38.5760   26.7820   43.2500 C   0  0  0  0  0  3  0  0  0  0  0  0
   39.3170   27.9310   43.1410 C   0  0  0  0  0  3  0  0  0  0  0  0
   39.8450   31.3370   42.4460 N   0  0  0  0  0  0  0  0  0  0  0  0
   39.3110   30.3220   42.5710 C   0  0  0  0  0  0  0  0  0  0  0  0
  1  4  1  1  0  0  0
  1  2  1  0  0  0  0
  1  3  1  0  0  0  0
  2  6  1  0  0  0  0
  2  3  1  0  0  0  0
  3  7  1  6  0  0  0
  3 17  1  0  0  0  0
  5  2  1  0  0  0  0
  8 13  1  0  0  0  0
  9 10  1  0  0  0  0
  9  8  2  0  0  0  0
 10 11  2  0  0  0  0
 11 12  1  0  0  0  0
 12 13  2  0  0  0  0
 12  1  1  0  0  0  0
 14  8  1  0  0  0  0
 15  9  1  0  0  0  0
 16 10  1  0  0  0  0
 17 20  1  0  0  0  0
 17 18  1  0  0  0  0
 19 26  1  0  0  0  0
 20 21  1  0  0  0  0
 20 19  2  0  0  0  0
 21 23  2  0  0  0  0
 22 21  1  0  0  0  0
 23 24  1  0  0  0  0
 23 25  1  0  0  0  0
 26 25  2  0  0  0  0
 27 28  3  0  0  0  0
 28 19  1  0  0  0  0
M  END
>  <minimizedAffinity>
-5.03312445

$$$$

 OpenBabel03242511073D

 28 30  0  0  1  0  0  0  0  0999 V2000
   36.9240   27.2330   42.5810 C   0  0  1  0  0  0  0  0  0  0  0  0
   36.6590   28.2230   43.6790 C   0  0  0  0  0  0  0  0  0  0  0  0
   37.1620   28.6510   42.2870 C   0  0  2  0  0  0  0  0  0  0  0  0
   36.0300   26.7480   42.1270 H   0  0  0  0  0  0  0  0  0  0  0  0
   37.3630   28.1510   44.5090 H   0  0  0  0  0  0  0  0  0  0  0  0
   35.5970   28.4150   43.9260 H   0  0  0  0  0  0  0  0  0  0  0  0
   38.2170   29.0430   42.3600 H   0  0  0  0  0  0  0  0  0  0  0  0
   40.1660   25.7650   43.6120 C   0  0  0  0  0  0  0  0  0  0  0  0
   40.1810   24.5450   42.8490 C   0  0  0  0  0  0  0  0  0  0  0  0
   39.0590   24.2660   42.0060 C   0  0  0  0  0  0  0  0  0  0  0  0
   38.0500   25.1440   41.9640 N   0  0  0  0  0  0  0  0  0  0  0  0
   38.0700   26.2890   42.7000 C   0  0  0  0  0  0  0  0  0  0  0  0
   39.1100   26.5890   43.5080 N   0  0  0  0  0  0  0  0  0  0  0  0
   41.0330   25.9360   44.2360 H   0  0  0  0  0  0  0  0  0  0  0  0
   41.0150   23.8850   42.9260 H   0  0  0  0  0  0  0  0  0  0  0  0
   39.0990   23.3410   41.4450 H   0  0  0  0  0  0  0  0  0  0  0  0
   36.2700   29.4560   41.5230 N   0  0  0  0  0  0  0  0  0  0  0  0
   35.2680   29.3850   41.8210 H   0  0  0  0  0  0  0  0  0  0  0  0
   36.6160   29.8310   39.1440 C   0  0  0  0  0  0  0  0  0  0  0  0
   36.6160   30.3100   40.4380 C   0  0  0  0  0  0  0  0  0  0  0  0
   36.9520   31.6260   40.6720 C   0  0  0  0  0  0  0  0  0  0  0  0
   36.9740   32.0680   41.6460 H   0  0  0  0  0  0  0  0  0  0  0  0
   37.2910   32.4730   39.6330 C   0  0  0  0  0  0  0  0  0  0  0  0
   37.5630   33.5080   39.7370 H   0  0  0  0  0  0  0  0  0  0  0  0
   37.2710   31.9260   38.3540 C   0  0  0  0  0  3  0  0  0  0  0  0
   36.9440   30.6250   38.0650 C   0  0  0  0  0  3  0  0  0  0  0  0
   35.9650   27.3350   38.8230 N   0  0  0  0  0  0  0  0  0  0  0  0
   36.2540   28.4430   38.9600 C   0  0  0  0  0  0  0  0  0  0  0  0
  1  4  1  6  0  0  0
  1 12  1  0  0  0  0
  1  2  1  0  0  0  0
  2  6  1  0  0  0  0
  2  5  1  0  0  0  0
  3  7  1  6  0  0  0
  3  1  1  0  0  0  0
  3  2  1  0  0  0  0
  8 14  1  0  0  0  0
  9 15  1  0  0  0  0
  9  8  2  0  0  0  0
 10  9  1  0  0  0  0
 11 10  2  0  0  0  0
 11 12  1  0  0  0  0
 12 13  2  0  0  0  0
 13  8  1  0  0  0  0
 16 10  1  0  0  0  0
 17 18  1  0  0  0  0
 17  3  1  0  0  0  0
 19 20  1  0  0  0  0
 20 21  2  0  0  0  0
 20 17  1  0  0  0  0
 21 22  1  0  0  0  0
 23 24  1  0  0  0  0
 23 21  1  0  0  0  0
 25 23  2  0  0  0  0
 26 25  1  0  0  0  0
 26 19  2  0  0  0  0
 27 28  3  0  0  0  0
 28 19  1  0  0  0  0
M  END
>  <minimizedAffinity>
-4.96049166

$$$$

 OpenBabel03242511073D

 28 30  0  0  1  0  0  0  0  0999 V2000
   37.3050   27.8050   42.7180 C   0  0  1  0  0  0  0  0  0  0  0  0
   37.6060   28.9640   43.6240 C   0  0  0  0  0  0  0  0  0  0  0  0
   37.8140   29.0350   42.0990 C   0  0  2  0  0  0  0  0  0  0  0  0
   36.2300   27.5550   42.5760 H   0  0  0  0  0  0  0  0  0  0  0  0
   38.4620   28.7960   44.2790 H   0  0  0  0  0  0  0  0  0  0  0  0
   36.7340   29.4970   44.0510 H   0  0  0  0  0  0  0  0  0  0  0  0
   38.9140   29.0990   41.8610 H   0  0  0  0  0  0  0  0  0  0  0  0
   38.5520   24.3670   42.1220 C   0  0  0  0  0  0  0  0  0  0  0  0
   39.7300   24.3450   42.9470 C   0  0  0  0  0  0  0  0  0  0  0  0
   40.0610   25.5300   43.6790 C   0  0  0  0  0  0  0  0  0  0  0  0
   39.2660   26.6000   43.5650 N   0  0  0  0  0  0  0  0  0  0  0  0
   38.1580   26.5850   42.7740 C   0  0  0  0  0  0  0  0  0  0  0  0
   37.8120   25.4870   42.0670 N   0  0  0  0  0  0  0  0  0  0  0  0
   38.3400   23.4520   41.5870 H   0  0  0  0  0  0  0  0  0  0  0  0
   40.3240   23.4600   42.9970 H   0  0  0  0  0  0  0  0  0  0  0  0
   40.9530   25.4820   44.2910 H   0  0  0  0  0  0  0  0  0  0  0  0
   36.9890   29.9620   41.3990 N   0  0  0  0  0  0  0  0  0  0  0  0
   36.8950   30.8910   41.8730 H   0  0  0  0  0  0  0  0  0  0  0  0
   36.8820   30.1390   38.9760 C   0  0  0  0  0  0  0  0  0  0  0  0
   36.3150   29.7360   40.1670 C   0  0  0  0  0  0  0  0  0  0  0  0
   35.0880   29.1090   40.1540 C   0  0  0  0  0  0  0  0  0  0  0  0
   34.5860   28.7680   41.0350 H   0  0  0  0  0  0  0  0  0  0  0  0
   34.4150   28.8780   38.9680 C   0  0  0  0  0  0  0  0  0  0  0  0
   33.4580   28.3960   38.8780 H   0  0  0  0  0  0  0  0  0  0  0  0
   35.0440   29.3100   37.8040 C   0  0  0  0  0  3  0  0  0  0  0  0
   36.2630   29.9370   37.7600 C   0  0  0  0  0  3  0  0  0  0  0  0
   39.1960   31.3160   39.1210 N   0  0  0  0  0  0  0  0  0  0  0  0
   38.1710   30.7900   39.0520 C   0  0  0  0  0  0  0  0  0  0  0  0
  1  4  1  6  0  0  0
  1 12  1  0  0  0  0
  1  2  1  0  0  0  0
  2  6  1  0  0  0  0
  2  5  1  0  0  0  0
  3  7  1  6  0  0  0
  3  1  1  0  0  0  0
  3  2  1  0  0  0  0
  8  9  1  0  0  0  0
  9 15  1  0  0  0  0
  9 10  2  0  0  0  0
 10 16  1  0  0  0  0
 11 10  1  0  0  0  0
 12 11  2  0  0  0  0
 13  8  2  0  0  0  0
 13 12  1  0  0  0  0
 14  8  1  0  0  0  0
 17 18  1  0  0  0  0
 17  3  1  0  0  0  0
 19 28  1  0  0  0  0
 19 20  1  0  0  0  0
 20 17  1  0  0  0  0
 21 20  2  0  0  0  0
 21 22  1  0  0  0  0
 23 21  1  0  0  0  0
 24 23  1  0  0  0  0
 25 23  2  0  0  0  0
 26 25  1  0  0  0  0
 26 19  2  0  0  0  0
 28 27  3  0  0  0  0
M  END
>  <minimizedAffinity>
-4.84430742

$$$$

 OpenBabel03242511073D

 28 30  0  0  1  0  0  0  0  0999 V2000
   36.9890   27.0440   42.3520 C   0  0  1  0  0  0  0  0  0  0  0  0
   37.4950   27.5330   43.6780 C   0  0  0  0  0  0  0  0  0  0  0  0
   37.7420   28.3030   42.3660 C   0  0  2  0  0  0  0  0  0  0  0  0
   35.8880   27.0950   42.1930 H   0  0  0  0  0  0  0  0  0  0  0  0
   38.2880   26.9130   44.0980 H   0  0  0  0  0  0  0  0  0  0  0  0
   36.7370   27.9370   44.3780 H   0  0  0  0  0  0  0  0  0  0  0  0
   38.8380   28.2740   42.1020 H   0  0  0  0  0  0  0  0  0  0  0  0
   37.3660   23.5730   41.1080 C   0  0  0  0  0  0  0  0  0  0  0  0
   38.7330   23.5790   40.6600 C   0  0  0  0  0  0  0  0  0  0  0  0
   39.4800   24.7930   40.7950 C   0  0  0  0  0  0  0  0  0  0  0  0
   38.8790   25.8630   41.3290 N   0  0  0  0  0  0  0  0  0  0  0  0
   37.5830   25.8210   41.7420 C   0  0  0  0  0  0  0  0  0  0  0  0
   36.8440   24.6960   41.6310 N   0  0  0  0  0  0  0  0  0  0  0  0
   36.8390   22.6370   40.9870 H   0  0  0  0  0  0  0  0  0  0  0  0
   39.1560   22.6930   40.2430 H   0  0  0  0  0  0  0  0  0  0  0  0
   40.5050   24.7650   40.4490 H   0  0  0  0  0  0  0  0  0  0  0  0
   37.1310   29.5860   42.2710 N   0  0  0  0  0  0  0  0  0  0  0  0
   36.3830   29.7560   42.9850 H   0  0  0  0  0  0  0  0  0  0  0  0
   36.6570   30.7830   40.2080 C   0  0  0  0  0  0  0  0  0  0  0  0
   37.4410   30.6060   41.3290 C   0  0  0  0  0  0  0  0  0  0  0  0
   38.5290   31.4270   41.5300 C   0  0  0  0  0  0  0  0  0  0  0  0
   39.1820   31.3510   42.3740 H   0  0  0  0  0  0  0  0  0  0  0  0
   38.8490   32.4250   40.6270 C   0  0  0  0  0  0  0  0  0  0  0  0
   39.6780   33.1020   40.7160 H   0  0  0  0  0  0  0  0  0  0  0  0
   38.0160   32.5490   39.5190 C   0  0  0  0  0  3  0  0  0  0  0  0
   36.9220   31.7600   39.2700 C   0  0  0  0  0  3  0  0  0  0  0  0
   34.6340   29.1730   39.9280 N   0  0  0  0  0  0  0  0  0  0  0  0
   35.5290   29.8920   40.0500 C   0  0  0  0  0  0  0  0  0  0  0  0
  1  4  1  6  0  0  0
  1  3  1  0  0  0  0
  1  2  1  0  0  0  0
  2  5  1  0  0  0  0
  2  6  1  0  0  0  0
  3  7  1  6  0  0  0
  3  2  1  0  0  0  0
  8 13  1  0  0  0  0
  9 10  1  0  0  0  0
  9  8  2  0  0  0  0
 10 11  2  0  0  0  0
 11 12  1  0  0  0  0
 12  1  1  0  0  0  0
 13 12  2  0  0  0  0
 14  8  1  0  0  0  0
 15  9  1  0  0  0  0
 16 10  1  0  0  0  0
 17  3  1  0  0  0  0
 17 18  1  0  0  0  0
 19 20  1  0  0  0  0
 20 21  2  0  0  0  0
 20 17  1  0  0  0  0
 21 22  1  0  0  0  0
 23 24  1  0  0  0  0
 23 21  1  0  0  0  0
 25 23  2  0  0  0  0
 26 25  1  0  0  0  0
 26 19  2  0  0  0  0
 27 28  3  0  0  0  0
 28 19  1  0  0  0  0
M  END
>  <minimizedAffinity>
-4.6243906

$$$$

 OpenBabel03242511073D

 28 30  0  0  1  0  0  0  0  0999 V2000
   36.1440   28.3750   39.4900 C   0  0  1  0  0  0  0  0  0  0  0  0
   34.8660   29.0620   39.1060 C   0  0  0  0  0  0  0  0  0  0  0  0
   35.3610   28.9960   40.5630 C   0  0  2  0  0  0  0  0  0  0  0  0
   37.0880   28.8750   39.1740 H   0  0  0  0  0  0  0  0  0  0  0  0
   34.0870   28.3760   38.7690 H   0  0  0  0  0  0  0  0  0  0  0  0
   34.9640   30.0260   38.5700 H   0  0  0  0  0  0  0  0  0  0  0  0
   34.6770   28.3410   41.1760 H   0  0  0  0  0  0  0  0  0  0  0  0
   35.7910   24.9110   38.2190 C   0  0  0  0  0  0  0  0  0  0  0  0
   36.3960   24.1560   39.2840 C   0  0  0  0  0  0  0  0  0  0  0  0
   36.9170   24.8740   40.4070 C   0  0  0  0  0  0  0  0  0  0  0  0
   36.8200   26.2090   40.4190 N   0  0  0  0  0  0  0  0  0  0  0  0
   36.2410   26.8910   39.3940 C   0  0  0  0  0  0  0  0  0  0  0  0
   35.7380   26.2510   38.3160 N   0  0  0  0  0  0  0  0  0  0  0  0
   35.4120   24.3290   37.3910 H   0  0  0  0  0  0  0  0  0  0  0  0
   36.4430   23.0920   39.2160 H   0  0  0  0  0  0  0  0  0  0  0  0
   37.3660   24.2770   41.1910 H   0  0  0  0  0  0  0  0  0  0  0  0
   35.7000   30.2430   41.1630 N   0  0  0  0  0  0  0  0  0  0  0  0
   34.9660   30.6200   41.8090 H   0  0  0  0  0  0  0  0  0  0  0  0
   38.0500   30.6450   41.6450 C   0  0  0  0  0  0  0  0  0  0  0  0
   36.8990   30.9820   40.9630 C   0  0  0  0  0  0  0  0  0  0  0  0
   36.9210   32.0420   40.0820 C   0  0  0  0  0  0  0  0  0  0  0  0
   36.0700   32.3620   39.5180 H   0  0  0  0  0  0  0  0  0  0  0  0
   38.0750   32.7740   39.8720 C   0  0  0  0  0  0  0  0  0  0  0  0
   38.1690   33.6100   39.2030 H   0  0  0  0  0  0  0  0  0  0  0  0
   39.1990   32.3800   40.5920 C   0  0  0  0  0  3  0  0  0  0  0  0
   39.2330   31.3350   41.4790 C   0  0  0  0  0  3  0  0  0  0  0  0
   37.9010   28.6230   43.2720 N   0  0  0  0  0  0  0  0  0  0  0  0
   37.9670   29.5240   42.5550 C   0  0  0  0  0  0  0  0  0  0  0  0
  1  4  1  6  0  0  0
  1  3  1  0  0  0  0
  2  1  1  0  0  0  0
  2  3  1  0  0  0  0
  3 17  1  0  0  0  0
  3  7  1  1  0  0  0
  5  2  1  0  0  0  0
  6  2  1  0  0  0  0
  8 13  2  0  0  0  0
  8  9  1  0  0  0  0
  9 10  2  0  0  0  0
 10 11  1  0  0  0  0
 10 16  1  0  0  0  0
 12  1  1  0  0  0  0
 12 11  2  0  0  0  0
 13 12  1  0  0  0  0
 14  8  1  0  0  0  0
 15  9  1  0  0  0  0
 17 18  1  0  0  0  0
 19 28  1  0  0  0  0
 20 17  1  0  0  0  0
 20 19  2  0  0  0  0
 21 20  1  0  0  0  0
 22 21  1  0  0  0  0
 23 21  2  0  0  0  0
 23 25  1  0  0  0  0
 24 23  1  0  0  0  0
 25 26  2  0  0  0  0
 26 19  1  0  0  0  0
 28 27  3  0  0  0  0
M  END
>  <minimizedAffinity>
-4.61663914

$$$$

 OpenBabel03242511073D

 28 30  0  0  1  0  0  0  0  0999 V2000
   37.1320   30.3680   39.8530 C   0  0  1  0  0  0  0  0  0  0  0  0
   36.7690   31.7160   40.4070 C   0  0  0  0  0  0  0  0  0  0  0  0
   36.4610   30.4060   41.1570 C   0  0  2  0  0  0  0  0  0  0  0  0
   38.2180   30.1190   39.8310 H   0  0  0  0  0  0  0  0  0  0  0  0
   35.9770   32.2180   39.8480 H   0  0  0  0  0  0  0  0  0  0  0  0
   37.6060   32.3400   40.7790 H   0  0  0  0  0  0  0  0  0  0  0  0
   35.3470   30.2320   41.1920 H   0  0  0  0  0  0  0  0  0  0  0  0
   36.3300   29.5360   36.3320 C   0  0  0  0  0  0  0  0  0  0  0  0
   35.0400   28.9150   36.4740 C   0  0  0  0  0  0  0  0  0  0  0  0
   34.4920   28.7970   37.7910 C   0  0  0  0  0  0  0  0  0  0  0  0
   35.1980   29.2650   38.8270 N   0  0  0  0  0  0  0  0  0  0  0  0
   36.4160   29.8460   38.6560 C   0  0  0  0  0  0  0  0  0  0  0  0
   36.9690   29.9770   37.4300 N   0  0  0  0  0  0  0  0  0  0  0  0
   36.7060   29.6040   35.3210 H   0  0  0  0  0  0  0  0  0  0  0  0
   34.5260   28.5620   35.6090 H   0  0  0  0  0  0  0  0  0  0  0  0
   33.5200   28.3260   37.8650 H   0  0  0  0  0  0  0  0  0  0  0  0
   37.1400   30.2240   42.3970 N   0  0  0  0  0  0  0  0  0  0  0  0
   36.6420   30.6360   43.2210 H   0  0  0  0  0  0  0  0  0  0  0  0
   38.4130   28.2750   43.1020 C   0  0  0  0  0  0  0  0  0  0  0  0
   38.3820   29.5570   42.5930 C   0  0  0  0  0  0  0  0  0  0  0  0
   39.5640   30.1880   42.2740 C   0  0  0  0  0  0  0  0  0  0  0  0
   39.6190   31.1790   41.8750 H   0  0  0  0  0  0  0  0  0  0  0  0
   40.7820   29.5590   42.4560 C   0  0  0  0  0  0  0  0  0  0  0  0
   41.7430   29.9850   42.2310 H   0  0  0  0  0  0  0  0  0  0  0  0
   40.7420   28.2670   42.9730 C   0  0  0  0  0  3  0  0  0  0  0  0
   39.5950   27.5930   43.3060 C   0  0  0  0  0  3  0  0  0  0  0  0
   36.1310   27.1710   43.6780 N   0  0  0  0  0  0  0  0  0  0  0  0
   37.1420   27.6640   43.4180 C   0  0  0  0  0  0  0  0  0  0  0  0
  1  4  1  1  0  0  0
  1  2  1  0  0  0  0
  1  3  1  0  0  0  0
  2  6  1  0  0  0  0
  2  3  1  0  0  0  0
  3  7  1  6  0  0  0
  3 17  1  0  0  0  0
  5  2  1  0  0  0  0
  8  9  2  0  0  0  0
  8 13  1  0  0  0  0
  9 10  1  0  0  0  0
 10 16  1  0  0  0  0
 10 11  2  0  0  0  0
 12 11  1  0  0  0  0
 12  1  1  0  0  0  0
 13 12  2  0  0  0  0
 14  8  1  0  0  0  0
 15  9  1  0  0  0  0
 17 20  1  0  0  0  0
 17 18  1  0  0  0  0
 19 26  1  0  0  0  0
 19 28  1  0  0  0  0
 20 19  2  0  0  0  0
 21 23  2  0  0  0  0
 21 20  1  0  0  0  0
 22 21  1  0  0  0  0
 23 25  1  0  0  0  0
 24 23  1  0  0  0  0
 25 26  2  0  0  0  0
 28 27  3  0  0  0  0
M  END
>  <minimizedAffinity>
-4.61413431

$$$$

 OpenBabel03242511073D

 28 30  0  0  1  0  0  0  0  0999 V2000
   38.7360   30.2790   41.2690 C   0  0  1  0  0  0  0  0  0  0  0  0
   38.7970   29.7930   42.6880 C   0  0  0  0  0  0  0  0  0  0  0  0
   37.4660   30.1280   41.9880 C   0  0  2  0  0  0  0  0  0  0  0  0
   38.9820   29.5330   40.4800 H   0  0  0  0  0  0  0  0  0  0  0  0
   39.2420   30.5130   43.3770 H   0  0  0  0  0  0  0  0  0  0  0  0
   39.0490   28.7240   42.8340 H   0  0  0  0  0  0  0  0  0  0  0  0
   37.0030   31.0440   42.4550 H   0  0  0  0  0  0  0  0  0  0  0  0
   41.0690   33.0810   40.6060 C   0  0  0  0  0  0  0  0  0  0  0  0
   40.1530   34.1610   40.3570 C   0  0  0  0  0  0  0  0  0  0  0  0
   38.7500   33.8810   40.4180 C   0  0  0  0  0  0  0  0  0  0  0  0
   38.3550   32.6340   40.7020 N   0  0  0  0  0  0  0  0  0  0  0  0
   39.2510   31.6360   40.9320 C   0  0  0  0  0  0  0  0  0  0  0  0
   40.5820   31.8590   40.8830 N   0  0  0  0  0  0  0  0  0  0  0  0
   42.1180   33.3360   40.5490 H   0  0  0  0  0  0  0  0  0  0  0  0
   40.5300   35.1340   40.1360 H   0  0  0  0  0  0  0  0  0  0  0  0
   38.0860   34.7130   40.2260 H   0  0  0  0  0  0  0  0  0  0  0  0
   36.5750   29.0350   41.7890 N   0  0  0  0  0  0  0  0  0  0  0  0
   36.3060   28.5370   42.6700 H   0  0  0  0  0  0  0  0  0  0  0  0
   36.5210   27.4340   39.9580 C   0  0  0  0  0  0  0  0  0  0  0  0
   36.0460   28.5880   40.5450 C   0  0  0  0  0  0  0  0  0  0  0  0
   35.0510   29.3060   39.9180 C   0  0  0  0  0  0  0  0  0  0  0  0
   34.6330   30.2090   40.3120 H   0  0  0  0  0  0  0  0  0  0  0  0
   34.5220   28.8910   38.7100 C   0  0  0  0  0  0  0  0  0  0  0  0
   33.7470   29.3960   38.1630 H   0  0  0  0  0  0  0  0  0  0  0  0
   35.0470   27.7180   38.1730 C   0  0  0  0  0  3  0  0  0  0  0  0
   36.0350   26.9660   38.7550 C   0  0  0  0  0  3  0  0  0  0  0  0
   38.3950   26.1460   41.2190 N   0  0  0  0  0  0  0  0  0  0  0  0
   37.5640   26.7220   40.6630 C   0  0  0  0  0  0  0  0  0  0  0  0
  1  4  1  6  0  0  0
  1  3  1  0  0  0  0
  1  2  1  0  0  0  0
  2  6  1  0  0  0  0
  2  5  1  0  0  0  0
  3  7  1  1  0  0  0
  3  2  1  0  0  0  0
  8 13  1  0  0  0  0
  9 10  1  0  0  0  0
  9  8  2  0  0  0  0
 10 11  2  0  0  0  0
 11 12  1  0  0  0  0
 12  1  1  0  0  0  0
 13 12  2  0  0  0  0
 14  8  1  0  0  0  0
 15  9  1  0  0  0  0
 16 10  1  0  0  0  0
 17  3  1  0  0  0  0
 17 18  1  0  0  0  0
 19 20  1  0  0  0  0
 19 28  1  0  0  0  0
 20 17  1  0  0  0  0
 21 22  1  0  0  0  0
 21 20  2  0  0  0  0
 23 21  1  0  0  0  0
 24 23  1  0  0  0  0
 25 23  2  0  0  0  0
 25 26  1  0  0  0  0
 26 19  2  0  0  0  0
 28 27  3  0  0  0  0
M  END
>  <minimizedAffinity>
-4.46076202

$$$$

 OpenBabel03242511073D

 28 30  0  0  1  0  0  0  0  0999 V2000
   40.0060   30.2790   41.3590 C   0  0  1  0  0  0  0  0  0  0  0  0
   40.1860   31.0090   42.6580 C   0  0  0  0  0  0  0  0  0  0  0  0
   38.8020   30.5690   42.1450 C   0  0  2  0  0  0  0  0  0  0  0  0
   40.3700   29.2260   41.3280 H   0  0  0  0  0  0  0  0  0  0  0  0
   40.5040   32.0450   42.5350 H   0  0  0  0  0  0  0  0  0  0  0  0
   40.6360   30.4330   43.4910 H   0  0  0  0  0  0  0  0  0  0  0  0
   38.1870   31.4730   41.8680 H   0  0  0  0  0  0  0  0  0  0  0  0
   40.5080   33.0040   38.8980 C   0  0  0  0  0  0  0  0  0  0  0  0
   40.6560   32.2590   37.6760 C   0  0  0  0  0  0  0  0  0  0  0  0
   40.5860   30.8310   37.7460 C   0  0  0  0  0  0  0  0  0  0  0  0
   40.3880   30.2540   38.9370 N   0  0  0  0  0  0  0  0  0  0  0  0
   40.2520   30.9900   40.0730 C   0  0  0  0  0  0  0  0  0  0  0  0
   40.3130   32.3390   40.0500 N   0  0  0  0  0  0  0  0  0  0  0  0
   40.5680   34.0780   38.8000 H   0  0  0  0  0  0  0  0  0  0  0  0
   40.8120   32.7780   36.7570 H   0  0  0  0  0  0  0  0  0  0  0  0
   40.7010   30.3000   36.8100 H   0  0  0  0  0  0  0  0  0  0  0  0
   38.1250   29.5960   42.9350 N   0  0  0  0  0  0  0  0  0  0  0  0
   37.5430   30.0010   43.7060 H   0  0  0  0  0  0  0  0  0  0  0  0
   37.2450   27.5410   41.9770 C   0  0  0  0  0  0  0  0  0  0  0  0
   38.1750   28.1840   42.7670 C   0  0  0  0  0  0  0  0  0  0  0  0
   39.1560   27.4460   43.3930 C   0  0  0  0  0  0  0  0  0  0  0  0
   39.9110   27.8740   44.0200 H   0  0  0  0  0  0  0  0  0  0  0  0
   39.2240   26.0730   43.2440 C   0  0  0  0  0  0  0  0  0  0  0  0
   39.9580   25.4330   43.6990 H   0  0  0  0  0  0  0  0  0  0  0  0
   38.2550   25.4890   42.4330 C   0  0  0  0  0  3  0  0  0  0  0  0
   37.2590   26.1740   41.7870 C   0  0  0  0  0  3  0  0  0  0  0  0
   35.4300   29.0180   40.8440 N   0  0  0  0  0  0  0  0  0  0  0  0
   36.2400   28.3660   41.3450 C   0  0  0  0  0  0  0  0  0  0  0  0
  1  4  1  1  0  0  0
  1  3  1  0  0  0  0
  1  2  1  0  0  0  0
  2  6  1  0  0  0  0
  3  7  1  6  0  0  0
  3  2  1  0  0  0  0
  3 17  1  0  0  0  0
  5  2  1  0  0  0  0
  8 13  1  0  0  0  0
  9 10  1  0  0  0  0
  9  8  2  0  0  0  0
 10 11  2  0  0  0  0
 11 12  1  0  0  0  0
 12  1  1  0  0  0  0
 13 12  2  0  0  0  0
 14  8  1  0  0  0  0
 15  9  1  0  0  0  0
 16 10  1  0  0  0  0
 17 18  1  0  0  0  0
 19 20  1  0  0  0  0
 20 17  1  0  0  0  0
 20 21  2  0  0  0  0
 21 22  1  0  0  0  0
 23 21  1  0  0  0  0
 23 24  1  0  0  0  0
 25 23  2  0  0  0  0
 26 19  2  0  0  0  0
 26 25  1  0  0  0  0
 27 28  3  0  0  0  0
 28 19  1  0  0  0  0
M  END
>  <minimizedAffinity>
-4.44247913

$$$$
