
 OpenBabel03242512013D

 48 51  0  0  1  0  0  0  0  0999 V2000
   46.8370   34.0080   42.5410 C   0  0  2  0  0  0  0  0  0  0  0  0
   48.3020   34.2790   42.7110 C   0  0  0  0  0  0  0  0  0  0  0  0
   48.8100   35.2800   41.7460 C   0  0  0  0  0  0  0  0  0  0  0  0
   48.5280   34.8830   40.3040 C   0  0  0  0  0  0  0  0  0  0  0  0
   47.1630   34.3070   40.0970 C   0  0  0  0  0  0  0  0  0  0  0  0
   46.2440   34.5140   41.2780 C   0  0  1  0  0  0  0  0  0  0  0  0
   46.7160   32.8800   42.5480 H   0  0  0  0  0  0  0  0  0  0  0  0
   48.8940   33.3540   42.5640 H   0  0  0  0  0  0  0  0  0  0  0  0
   48.5270   34.6300   43.7310 H   0  0  0  0  0  0  0  0  0  0  0  0
   49.8960   35.4110   41.8450 H   0  0  0  0  0  0  0  0  0  0  0  0
   48.3340   36.2650   41.9140 H   0  0  0  0  0  0  0  0  0  0  0  0
   48.7540   35.7530   39.6860 H   0  0  0  0  0  0  0  0  0  0  0  0
   49.2790   34.0740   40.0720 H   0  0  0  0  0  0  0  0  0  0  0  0
   46.7150   34.8510   39.2340 H   0  0  0  0  0  0  0  0  0  0  0  0
   47.2040   33.2300   39.7860 H   0  0  0  0  0  0  0  0  0  0  0  0
   45.9600   35.5760   41.2490 H   0  0  0  0  0  0  0  0  0  0  0  0
   46.0360   34.4530   43.6980 C   0  0  0  0  0  0  0  0  0  0  0  0
   45.3990   35.6640   43.4920 C   0  0  0  0  0  0  0  0  0  0  0  0
   44.5920   36.2110   44.5040 C   0  0  0  0  0  0  0  0  0  0  0  0
   44.5040   35.4520   45.6770 N   0  0  0  0  0  0  0  0  0  0  0  0
   45.1450   34.2780   45.8290 C   0  0  0  0  0  0  0  0  0  0  0  0
   45.9100   33.7880   44.8300 N   0  0  0  0  0  0  0  0  0  0  0  0
   45.3460   36.3870   42.6930 H   0  0  0  0  0  0  0  0  0  0  0  0
   44.0310   37.1070   44.5390 H   0  0  0  0  0  0  0  0  0  0  0  0
   45.0050   33.7760   46.7810 H   0  0  0  0  0  0  0  0  0  0  0  0
   44.9830   33.7360   41.0130 C   0  0  2  0  0  0  0  0  0  0  0  0
   44.6310   33.4180   39.5730 C   0  0  0  0  0  0  0  0  0  0  0  0
   43.8240   34.3880   40.3430 C   0  0  1  0  0  0  0  0  0  0  0  0
   44.8220   32.8600   41.6730 H   0  0  0  0  0  0  0  0  0  0  0  0
   44.1490   32.4560   39.3120 H   0  0  0  0  0  0  0  0  0  0  0  0
   45.2350   33.8490   38.7440 H   0  0  0  0  0  0  0  0  0  0  0  0
   43.9720   35.4750   40.1480 H   0  0  0  0  0  0  0  0  0  0  0  0
   42.5160   34.0500   40.9870 C   0  0  0  0  0  0  0  0  0  0  0  0
   42.6720   34.0890   42.0870 H   0  0  0  0  0  0  0  0  0  0  0  0
   42.2310   33.0050   40.7750 H   0  0  0  0  0  0  0  0  0  0  0  0
   41.4150   35.0290   40.6710 C   0  0  0  0  0  0  0  0  0  0  0  0
   41.8480   35.8440   40.0660 H   0  0  0  0  0  0  0  0  0  0  0  0
   41.0310   35.4940   41.5900 H   0  0  0  0  0  0  0  0  0  0  0  0
   40.1840   34.7680   38.6170 C   0  0  0  0  0  0  0  0  0  0  0  0
   40.2720   34.4400   39.9610 C   0  0  0  0  0  0  0  0  0  0  0  0
   39.3030   33.6080   40.5140 C   0  0  0  0  0  0  0  0  0  0  0  0
   39.4210   33.3840   41.5660 H   0  0  0  0  0  0  0  0  0  0  0  0
   38.2610   33.1130   39.7220 C   0  0  0  0  0  0  0  0  0  0  0  0
   37.5250   32.4690   40.1830 H   0  0  0  0  0  0  0  0  0  0  0  0
   38.2340   33.4790   38.3930 C   0  0  0  0  0  0  0  0  0  0  0  0
   39.1640   34.3000   37.7910 C   0  0  0  0  0  0  0  0  0  0  0  0
   41.9260   36.3150   37.4360 N   0  0  0  0  0  0  0  0  0  0  0  0
   41.1580   35.6330   37.9690 C   0  0  0  0  0  0  0  0  0  0  0  0
  1  7  1  6  0  0  0
  1  2  1  0  0  0  0
  1 17  1  0  0  0  0
  2  9  1  0  0  0  0
  3 10  1  0  0  0  0
  3 11  1  0  0  0  0
  3  2  1  0  0  0  0
  4  3  1  0  0  0  0
  5  4  1  0  0  0  0
  5  6  1  0  0  0  0
  6 16  1  1  0  0  0
  6  1  1  0  0  0  0
  8  2  1  0  0  0  0
 12  4  1  0  0  0  0
 13  4  1  0  0  0  0
 14  5  1  0  0  0  0
 15  5  1  0  0  0  0
 17 22  1  0  0  0  0
 18 17  2  0  0  0  0
 18 19  1  0  0  0  0
 19 24  1  0  0  0  0
 19 20  2  0  0  0  0
 20 21  1  0  0  0  0
 21 25  1  0  0  0  0
 22 21  2  0  0  0  0
 23 18  1  0  0  0  0
 26  6  1  0  0  0  0
 26 29  1  1  0  0  0
 27 28  1  0  0  0  0
 27 26  1  0  0  0  0
 28 32  1  6  0  0  0
 28 33  1  0  0  0  0
 28 26  1  0  0  0  0
 30 27  1  0  0  0  0
 31 27  1  0  0  0  0
 33 34  1  0  0  0  0
 35 33  1  0  0  0  0
 36 33  1  0  0  0  0
 36 38  1  0  0  0  0
 37 36  1  0  0  0  0
 39 40  1  0  0  0  0
 40 41  2  0  0  0  0
 40 36  1  0  0  0  0
 41 42  1  0  0  0  0
 43 44  1  0  0  0  0
 43 41  1  0  0  0  0
 45 43  2  0  0  0  0
 46 45  1  0  0  0  0
 46 39  2  0  0  0  0
 47 48  3  0  0  0  0
 48 39  1  0  0  0  0
M  END
>  <minimizedAffinity>
-7.26284552

>  <minimizedRMSD>
2.68347311

$$$$
