
     RDKit          3D

 45 48  0  0  0  0  0  0  0  0999 V2000
   43.9666   34.6412   42.3702 C   0  0  1  0  0  0  0  0  0  0  0  0
   44.1552   36.1248   41.9014 C   0  0  0  0  0  0  0  0  0  0  0  0
   44.0034   34.9293   40.9673 C   0  0  2  0  0  0  0  0  0  0  0  0
   45.1156   34.1125   43.1363 C   0  0  0  0  0  0  0  0  0  0  0  0
   46.3609   34.0481   42.4894 C   0  0  0  0  0  0  0  0  0  0  0  0
   47.4533   33.5558   43.1918 C   0  0  0  0  0  0  0  0  0  0  0  0
   47.2564   33.1592   44.4794 N   0  0  0  0  0  0  0  0  0  0  0  0
   46.0604   33.2333   45.0654 C   0  0  0  0  0  0  0  0  0  0  0  0
   45.0176   33.7097   44.3757 N   0  0  0  0  0  0  0  0  0  0  0  0
   46.0489   32.7514   46.4877 C   0  0  0  0  0  0  0  0  0  0  0  0
   45.0873   33.4071   47.2353 F   0  0  0  0  0  0  0  0  0  0  0  0
   47.2890   33.0768   47.0862 F   0  0  0  0  0  0  0  0  0  0  0  0
   45.9527   31.3876   46.5119 F   0  0  0  0  0  0  0  0  0  0  0  0
   42.6679   34.7949   40.2707 C   0  0  0  0  0  0  0  0  0  0  0  0
   42.4945   35.2038   38.9670 C   0  0  0  0  0  0  0  0  0  0  0  0
   41.3076   35.0759   38.2968 C   0  0  0  0  0  0  0  0  0  0  0  0
   40.2698   34.5244   38.9494 N   0  0  0  0  0  0  0  0  0  0  0  0
   40.4216   34.1133   40.2392 C   0  0  0  0  0  0  0  0  0  0  0  0
   41.5944   34.2418   40.8978 N   0  0  0  0  0  0  0  0  0  0  0  0
   39.3131   33.4776   41.0194 C   0  0  0  0  0  0  0  0  0  0  0  0
   38.4149   32.6926   40.0865 C   0  0  0  0  0  0  0  0  0  0  0  0
   42.9860   34.5283   42.9085 H   0  0  0  0  0  0  0  0  0  0  0  0
   45.1690   36.5243   41.9869 H   0  0  0  0  0  0  0  0  0  0  0  0
   43.3002   36.7939   41.9688 H   0  0  0  0  0  0  0  0  0  0  0  0
   44.8237   34.7766   40.2696 H   0  0  0  0  0  0  0  0  0  0  0  0
   46.5135   34.3595   41.4806 H   0  0  0  0  0  0  0  0  0  0  0  0
   48.4510   33.4686   42.7763 H   0  0  0  0  0  0  0  0  0  0  0  0
   43.3644   35.6459   38.4771 H   0  0  0  0  0  0  0  0  0  0  0  0
   41.2319   35.4164   37.2730 H   0  0  0  0  0  0  0  0  0  0  0  0
   39.7254   32.7640   41.7602 H   0  0  0  0  0  0  0  0  0  0  0  0
   38.7316   34.2351   41.6032 H   0  0  0  0  0  0  0  0  0  0  0  0
   39.0451   31.8998   39.6268 H   0  0  0  0  0  0  0  0  0  0  0  0
   38.0708   33.3479   39.2776 H   0  0  0  0  0  0  0  0  0  0  0  0
   38.3903   29.5202   38.6116 N   0  0  0  0  0  0  0  0  0  0  0  0
   37.7816   30.0590   39.4551 C   0  0  0  0  0  0  0  0  0  0  0  0
   37.0179   30.7451   40.4855 C   0  0  0  0  0  0  0  0  0  0  0  0
   37.2992   32.0440   40.8223 C   0  0  0  0  0  0  0  0  0  0  0  0
   36.5368   32.6353   41.8053 C   0  0  0  0  0  0  0  0  0  0  0  0
   36.7899   33.6585   42.0413 H   0  0  0  0  0  0  0  0  0  0  0  0
   35.5198   31.9523   42.4386 C   0  0  0  0  0  0  0  0  0  0  0  0
   34.9280   32.4224   43.2076 H   0  0  0  0  0  0  0  0  0  0  0  0
   35.2958   30.6559   42.0498 C   0  0  0  0  0  0  0  0  0  0  0  0
   36.0085   29.9849   41.0760 C   0  0  0  0  0  0  0  0  0  0  0  0
   34.5023   30.1015   42.5349 H   0  0  0  0  0  0  0  0  0  0  0  0
   35.8220   28.9656   40.7800 H   0  0  0  0  0  0  0  0  0  0  0  0
  1  4  1  0
  2  1  1  0
  3  2  1  0
  3  1  1  0
  4  9  1  0
  5  4  2  0
  5  6  1  0
  6  7  2  0
  7  8  1  0
  8 10  1  0
  9  8  2  0
 10 13  1  0
 10 12  1  0
 10 11  1  0
 14 19  1  0
 14  3  1  0
 15 14  2  0
 16 17  2  0
 16 15  1  0
 17 18  1  0
 18 19  2  0
 18 20  1  0
 21 20  1  0
  1 22  1  6
  2 23  1  0
  2 24  1  0
  3 25  1  6
  5 26  1  0
  6 27  1  0
 15 28  1  0
 16 29  1  0
 20 30  1  0
 20 31  1  0
 21 32  1  0
 21 33  1  0
 34 35  3  0
 35 36  1  0
 36 37  2  0
 37 38  1  0
 38 39  1  0
 38 40  2  0
 40 41  1  0
 40 42  1  0
 42 43  2  0
 43 36  1  0
 42 44  1  0
 43 45  1  0
 21 37  1  0
M  ISO  8  22  13  23  13  24  13  25  13  26  14  27  14  28  14  29  14
M  ISO  6  30   8  31   8  32   8  33   8  39  15  41  16
M  END
>  <DihAtoms>  (1) 
19,20,36,35

>  <DihDeg>  (1) 
-76.15999971361441

$$$$
