
 OpenBabel03252509083D

 42 45  0  0  0  0  0  0  0  0999 V2000
   47.5910   31.8270   38.9160 C   0  0  0  0  0  0  0  0  0  0  0  0
   47.1610   33.1200   38.9300 C   0  0  0  0  0  0  0  0  0  0  0  0
   47.8060   34.0640   38.1500 C   0  0  0  0  0  0  0  0  0  0  0  0
   48.8720   33.7210   37.3660 C   0  0  0  0  0  0  0  0  0  0  0  0
   49.3460   32.4170   37.3210 C   0  0  0  0  0  0  0  0  0  0  0  0
   48.6830   31.4770   38.1120 C   0  0  0  0  0  0  0  0  0  0  0  0
   47.4800   35.0950   38.1460 H   0  0  0  0  0  0  0  0  0  0  0  0
   49.4070   34.4010   36.7470 H   0  0  0  0  0  0  0  0  0  0  0  0
   50.1630   32.0640   36.7430 H   0  0  0  0  0  0  0  0  0  0  0  0
   49.0240   30.4520   38.1020 H   0  0  0  0  0  0  0  0  0  0  0  0
   45.3610   35.3160   43.2440 Cl  0  0  0  0  0  0  0  0  0  0  0  0
   45.1810   34.5740   41.6730 C   0  0  0  0  0  0  0  0  0  0  0  0
   46.2620   34.1640   40.9630 C   0  0  0  0  0  0  0  0  0  0  0  0
   46.0290   33.5980   39.7210 C   0  0  0  0  0  0  0  0  0  0  0  0
   44.7710   33.4600   39.2290 C   0  0  0  0  0  0  0  0  0  0  0  0
   43.6880   33.8680   39.9340 C   0  0  0  0  0  0  0  0  0  0  0  0
   43.9070   34.4310   41.1730 C   0  0  0  0  0  0  0  0  0  0  0  0
   44.6380   33.0110   38.2440 H   0  0  0  0  0  0  0  0  0  0  0  0
   42.6940   33.7460   39.5180 H   0  0  0  0  0  0  0  0  0  0  0  0
   43.0280   34.7530   41.7290 H   0  0  0  0  0  0  0  0  0  0  0  0
   49.5850   35.7010   41.9360 C   0  0  0  0  0  0  0  0  0  0  0  0
   48.3080   35.5360   41.3930 C   0  0  0  0  0  0  0  0  0  0  0  0
   47.5990   34.3500   41.5250 C   0  0  0  0  0  0  0  0  0  0  0  0
   48.2400   33.3960   42.2060 N   0  0  0  0  0  0  0  0  0  0  0  0
   49.4630   33.5410   42.7310 C   0  0  0  0  0  0  0  0  0  0  0  0
   50.1310   34.6850   42.5980 N   0  0  0  0  0  0  0  0  0  0  0  0
   50.1030   36.6420   41.8100 H   0  0  0  0  0  0  0  0  0  0  0  0
   47.8680   36.3620   40.8580 H   0  0  0  0  0  0  0  0  0  0  0  0
   49.7690   32.6230   43.2390 H   0  0  0  0  0  0  0  0  0  0  0  0
   46.8960   30.6390   39.8990 S   0  0  0  0  0  0  0  0  0  0  0  0
   47.3160   29.2450   39.3180 O   0  0  0  0  0  0  0  0  0  0  0  0
   47.5840   30.6830   41.2310 O   0  0  0  0  0  0  0  0  0  0  0  0
   44.3470   30.0770   38.9250 C   0  0  0  0  0  0  0  0  0  0  0  0
   45.2160   30.3080   40.0190 C   0  0  0  0  0  0  0  0  0  0  0  0
   44.4970   30.2210   41.2050 C   0  0  0  0  0  0  0  0  0  0  0  0
   45.0250   30.3560   42.1360 H   0  0  0  0  0  0  0  0  0  0  0  0
   43.1540   29.9590   41.3660 C   0  0  0  0  0  0  0  0  0  0  0  0
   42.6850   29.9120   42.3380 H   0  0  0  0  0  0  0  0  0  0  0  0
   42.4420   29.7580   40.2040 C   0  0  0  0  0  3  0  0  0  0  0  0
   42.9980   29.8060   38.9470 C   0  0  0  0  0  3  0  0  0  0  0  0
   45.4590   30.0800   36.5310 N   0  0  0  0  0  0  0  0  0  0  0  0
   44.9590   30.0760   37.5980 C   0  0  0  0  0  0  0  0  0  0  0  0
  1  2  1  0  0  0  0
  1 30  1  0  0  0  0
  2 14  1  0  0  0  0
  3  2  2  0  0  0  0
  4  3  1  0  0  0  0
  5  4  2  0  0  0  0
  5  6  1  0  0  0  0
  6  1  2  0  0  0  0
  7  3  1  0  0  0  0
  8  4  1  0  0  0  0
  9  5  1  0  0  0  0
 10  6  1  0  0  0  0
 12 11  1  0  0  0  0
 13 23  1  0  0  0  0
 13 12  2  0  0  0  0
 14 13  1  0  0  0  0
 15 14  2  0  0  0  0
 15 16  1  0  0  0  0
 16 17  2  0  0  0  0
 17 12  1  0  0  0  0
 17 20  1  0  0  0  0
 18 15  1  0  0  0  0
 19 16  1  0  0  0  0
 21 26  1  0  0  0  0
 22 23  1  0  0  0  0
 22 21  2  0  0  0  0
 23 24  2  0  0  0  0
 24 25  1  0  0  0  0
 25 29  1  0  0  0  0
 26 25  2  0  0  0  0
 27 21  1  0  0  0  0
 28 22  1  0  0  0  0
 30 34  1  0  0  0  0
 30 32  2  0  0  0  0
 31 30  2  0  0  0  0
 33 40  2  0  0  0  0
 33 34  1  0  0  0  0
 34 35  2  0  0  0  0
 35 37  1  0  0  0  0
 35 36  1  0  0  0  0
 37 38  1  0  0  0  0
 39 37  2  0  0  0  0
 40 39  1  0  0  0  0
 41 42  3  0  0  0  0
 42 33  1  0  0  0  0
M  END
>  <minimizedAffinity>
-4.4951129

>  <minimizedRMSD>
1.36529231

$$$$
