
 OpenBabel03242518023D

 38 40  0  0  0  0  0  0  0  0999 V2000
   46.5480   31.2820   46.2230 C   0  0  0  0  0  0  0  0  0  0  0  0
   45.5240   31.5390   46.5380 H   0  0  0  0  0  0  0  0  0  0  0  0
   46.4210   30.3190   45.6450 H   0  0  0  0  0  0  0  0  0  0  0  0
   47.3260   31.5730   48.5630 C   0  0  0  0  0  0  0  0  0  0  0  0
   47.4870   30.9920   47.2930 C   0  0  0  0  0  0  0  0  0  0  0  0
   48.5890   30.1420   47.1480 C   0  0  0  0  0  0  0  0  0  0  0  0
   49.4100   29.9330   48.2020 N   0  0  0  0  0  0  0  0  0  0  0  0
   49.2180   30.5080   49.3960 C   0  0  0  0  0  0  0  0  0  0  0  0
   48.1840   31.3190   49.5680 N   0  0  0  0  0  0  0  0  0  0  0  0
   46.5120   32.2470   48.7960 H   0  0  0  0  0  0  0  0  0  0  0  0
   48.7070   29.7000   46.1730 H   0  0  0  0  0  0  0  0  0  0  0  0
   50.9980   31.2370   50.9330 C   0  0  0  0  0  0  0  0  0  0  0  0
   50.1490   30.2320   50.4870 C   0  0  0  0  0  0  0  0  0  0  0  0
   50.1710   28.9640   51.0640 C   0  0  0  0  0  0  0  0  0  0  0  0
   49.5090   28.1820   50.7150 H   0  0  0  0  0  0  0  0  0  0  0  0
   51.0340   28.6550   52.0980 C   0  0  0  0  0  0  0  0  0  0  0  0
   51.0580   27.6780   52.5490 H   0  0  0  0  0  0  0  0  0  0  0  0
   51.8560   29.6860   52.5040 C   0  0  0  0  0  3  0  0  0  0  0  0
   51.8790   30.9550   51.9730 C   0  0  0  0  0  3  0  0  0  0  0  0
   50.9390   33.5770   49.8590 N   0  0  0  0  0  0  0  0  0  0  0  0
   50.9720   32.5310   50.3390 C   0  0  0  0  0  0  0  0  0  0  0  0
   47.1910   32.3100   45.3150 C   0  0  0  0  0  0  0  0  0  0  0  0
   47.5680   31.7990   44.4020 H   0  0  0  0  0  0  0  0  0  0  0  0
   48.1330   32.7370   45.7730 H   0  0  0  0  0  0  0  0  0  0  0  0
   46.4900   34.1090   43.7960 C   0  0  0  0  0  0  0  0  0  0  0  0
   46.3500   33.4750   45.0180 C   0  0  0  0  0  0  0  0  0  0  0  0
   45.4610   33.8740   45.9790 C   0  0  0  0  0  0  0  0  0  0  0  0
   44.6620   34.9700   45.7100 C   0  0  0  0  0  0  0  0  0  0  0  0
   44.7260   35.6600   44.5370 C   0  0  0  0  0  0  0  0  0  0  0  0
   45.6570   35.1910   43.6090 C   0  0  0  0  0  0  0  0  0  0  0  0
   45.3020   33.4380   46.9330 H   0  0  0  0  0  0  0  0  0  0  0  0
   43.9330   35.3440   46.4280 H   0  0  0  0  0  0  0  0  0  0  0  0
   44.1260   36.5180   44.2820 H   0  0  0  0  0  0  0  0  0  0  0  0
   45.7210   35.7310   42.6660 H   0  0  0  0  0  0  0  0  0  0  0  0
   47.6070   33.6350   42.5480 S   0  0  0  0  0  0  0  0  0  0  0  0
   49.0160   34.0870   42.8270 O   0  0  0  0  0  0  0  0  0  0  0  0
   47.2270   34.3390   41.2620 O   0  0  0  0  0  0  0  0  0  0  0  0
   47.5480   32.3000   42.2390 H   0  0  0  0  0  0  0  0  0  0  0  0
  1  2  1  0  0  0  0
  1  5  1  0  0  0  0
  3  1  1  0  0  0  0
  4 10  1  0  0  0  0
  4  9  1  0  0  0  0
  5  4  2  0  0  0  0
  6  5  1  0  0  0  0
  6  7  2  0  0  0  0
  7  8  1  0  0  0  0
  8  9  2  0  0  0  0
  8 13  1  0  0  0  0
 11  6  1  0  0  0  0
 12 19  1  0  0  0  0
 13 12  2  0  0  0  0
 13 14  1  0  0  0  0
 14 16  2  0  0  0  0
 15 14  1  0  0  0  0
 16 18  1  0  0  0  0
 16 17  1  0  0  0  0
 19 18  2  0  0  0  0
 20 21  3  0  0  0  0
 21 12  1  0  0  0  0
 22 24  1  0  0  0  0
 22  1  1  0  0  0  0
 23 22  1  0  0  0  0
 25 26  1  0  0  0  0
 26 22  1  0  0  0  0
 26 27  2  0  0  0  0
 27 31  1  0  0  0  0
 28 27  1  0  0  0  0
 28 32  1  0  0  0  0
 29 28  2  0  0  0  0
 30 25  2  0  0  0  0
 30 29  1  0  0  0  0
 33 29  1  0  0  0  0
 34 30  1  0  0  0  0
 35 36  2  0  0  0  0
 35 25  1  0  0  0  0
 37 35  2  0  0  0  0
 38 35  1  0  0  0  0
M  END
>  <minimizedAffinity>
-5.40267467

>  <minimizedRMSD>
0.76591599

$$$$
