
 OpenBabel03242517283D

 41 43  0  0  1  0  0  0  0  0999 V2000
   44.9940   34.6590   44.9480 C   0  0  0  0  0  0  0  0  0  0  0  0
   45.8960   34.6000   43.8470 C   0  0  0  0  0  0  0  0  0  0  0  0
   46.9990   33.7320   43.9570 C   0  0  0  0  0  0  0  0  0  0  0  0
   47.1450   33.0050   45.0910 N   0  0  0  0  0  0  0  0  0  0  0  0
   46.2790   33.0800   46.1150 C   0  0  0  0  0  0  0  0  0  0  0  0
   45.2210   33.9050   46.0240 N   0  0  0  0  0  0  0  0  0  0  0  0
   46.4980   32.2950   47.2540 N   0  0  0  0  0  0  0  0  0  0  0  0
   47.7190   32.4330   47.9970 C   0  0  0  0  0  0  0  0  0  0  0  0
   47.9970   31.2840   48.9170 C   0  0  0  0  0  0  0  0  0  0  0  0
   46.8580   30.6560   49.4910 N   0  0  0  0  0  0  0  0  0  0  0  0
   45.6100   31.2920   49.1660 C   0  0  0  0  0  0  0  0  0  0  0  0
   45.4730   31.3480   47.6660 C   0  0  2  0  0  0  0  0  0  0  0  0
   44.1490   35.3270   44.8590 H   0  0  0  0  0  0  0  0  0  0  0  0
   45.7890   35.1680   42.9520 H   0  0  0  0  0  0  0  0  0  0  0  0
   47.7280   33.6390   43.1480 H   0  0  0  0  0  0  0  0  0  0  0  0
   47.7730   33.4100   48.5490 H   0  0  0  0  0  0  0  0  0  0  0  0
   48.5500   32.4680   47.2570 H   0  0  0  0  0  0  0  0  0  0  0  0
   48.6320   30.5080   48.4400 H   0  0  0  0  0  0  0  0  0  0  0  0
   48.6060   31.6940   49.7670 H   0  0  0  0  0  0  0  0  0  0  0  0
   46.8390   29.6320   49.5050 H   0  0  0  0  0  0  0  0  0  0  0  0
   44.7920   30.6900   49.6060 H   0  0  0  0  0  0  0  0  0  0  0  0
   45.5840   32.3180   49.5520 H   0  0  0  0  0  0  0  0  0  0  0  0
   44.4890   31.8020   47.4360 H   0  0  0  0  0  0  0  0  0  0  0  0
   45.6560   30.0080   47.0330 C   0  0  0  0  0  0  0  0  0  0  0  0
   45.3370   30.0490   45.9790 H   0  0  0  0  0  0  0  0  0  0  0  0
   46.7210   29.7170   47.1690 H   0  0  0  0  0  0  0  0  0  0  0  0
   44.8360   29.0170   47.8270 C   0  0  0  0  0  3  0  0  0  0  0  0
   45.1260   27.7330   47.8300 C   0  0  0  0  0  3  0  0  0  0  0  0
   44.3640   26.6920   48.5850 C   0  0  0  0  0  0  0  0  0  0  0  0
   43.5260   27.1080   49.1590 H   0  0  0  0  0  0  0  0  0  0  0  0
   45.0610   26.0990   49.2140 H   0  0  0  0  0  0  0  0  0  0  0  0
   44.3700   24.5570   47.2050 C   0  0  0  0  0  0  0  0  0  0  0  0
   43.8080   25.7700   47.5560 C   0  0  0  0  0  0  0  0  0  0  0  0
   42.6360   26.1210   46.8750 C   0  0  0  0  0  0  0  0  0  0  0  0
   42.1940   27.0780   47.1520 H   0  0  0  0  0  0  0  0  0  0  0  0
   42.0170   25.3610   45.9030 C   0  0  0  0  0  0  0  0  0  0  0  0
   41.1180   25.7440   45.4550 H   0  0  0  0  0  0  0  0  0  0  0  0
   42.6100   24.1600   45.5850 C   0  0  0  0  0  3  0  0  0  0  0  0
   43.7600   23.7740   46.2240 C   0  0  0  0  0  3  0  0  0  0  0  0
   46.5270   23.8210   48.4120 N   0  0  0  0  0  0  0  0  0  0  0  0
   45.5610   24.1550   47.8670 C   0  0  0  0  0  0  0  0  0  0  0  0
  1  6  1  0  0  0  0
  2  3  1  0  0  0  0
  2  1  2  0  0  0  0
  3  4  2  0  0  0  0
  4  5  1  0  0  0  0
  5  7  1  0  0  0  0
  6  5  2  0  0  0  0
  7 12  1  0  0  0  0
  7  8  1  0  0  0  0
  8 16  1  0  0  0  0
  8  9  1  0  0  0  0
  9 10  1  0  0  0  0
  9 19  1  0  0  0  0
 10 20  1  0  0  0  0
 11 10  1  0  0  0  0
 11 22  1  0  0  0  0
 11 21  1  0  0  0  0
 12 23  1  6  0  0  0
 12 11  1  0  0  0  0
 13  1  1  0  0  0  0
 14  2  1  0  0  0  0
 15  3  1  0  0  0  0
 17  8  1  0  0  0  0
 18  9  1  0  0  0  0
 24 26  1  0  0  0  0
 24 12  1  0  0  0  0
 24 27  1  0  0  0  0
 25 24  1  0  0  0  0
 27 28  2  0  0  0  0
 28 29  1  0  0  0  0
 29 30  1  0  0  0  0
 29 31  1  0  0  0  0
 32 33  1  0  0  0  0
 32 41  1  0  0  0  0
 33 29  1  0  0  0  0
 34 35  1  0  0  0  0
 34 33  2  0  0  0  0
 36 34  1  0  0  0  0
 37 36  1  0  0  0  0
 38 36  2  0  0  0  0
 38 39  1  0  0  0  0
 39 32  2  0  0  0  0
 41 40  3  0  0  0  0
M  END
>  <minimizedAffinity>
-5.71024084

>  <minimizedRMSD>
0.641930103

$$$$
