
 OpenBabel03252503163D

 37 40  0  0  0  0  0  0  0  0999 V2000
   44.3460   34.0070   40.4560 C   0  0  0  0  0  0  0  0  0  0  0  0
   42.9970   34.1690   40.7080 C   0  0  0  0  0  0  0  0  0  0  0  0
   42.3690   33.6090   39.6600 N   0  0  0  0  0  0  0  0  0  0  0  0
   43.2980   33.1270   38.8030 C   0  0  0  0  0  0  0  0  0  0  0  0
   44.5280   33.3730   39.2960 N   0  0  0  0  0  0  0  0  0  0  0  0
   43.1570   32.4470   37.5510 N   0  0  0  0  0  0  0  0  0  0  0  0
   42.5390   34.6330   41.5480 H   0  0  0  0  0  0  0  0  0  0  0  0
   42.4340   32.9490   37.0000 H   0  0  0  0  0  0  0  0  0  0  0  0
   43.7320   31.6020   37.3280 H   0  0  0  0  0  0  0  0  0  0  0  0
   40.4080   34.4140   38.5610 C   0  0  0  0  0  0  0  0  0  0  0  0
   40.9900   33.4890   39.3940 C   0  0  0  0  0  0  0  0  0  0  0  0
   40.1680   32.5050   39.9090 C   0  0  0  0  0  0  0  0  0  0  0  0
   40.6280   31.7850   40.5590 H   0  0  0  0  0  0  0  0  0  0  0  0
   38.8200   32.4400   39.6090 C   0  0  0  0  0  0  0  0  0  0  0  0
   38.1790   31.6580   40.0220 H   0  0  0  0  0  0  0  0  0  0  0  0
   38.2250   33.3710   38.7690 C   0  0  0  0  0  3  0  0  0  0  0  0
   39.0640   34.3480   38.2630 C   0  0  0  0  0  3  0  0  0  0  0  0
   41.7920   36.3330   37.5160 N   0  0  0  0  0  0  0  0  0  0  0  0
   41.1730   35.4740   37.9750 C   0  0  0  0  0  0  0  0  0  0  0  0
   45.4750   34.4720   41.3450 C   0  0  0  0  0  0  0  0  0  0  0  0
   46.6520   34.6900   40.9390 O   0  0  0  0  0  0  0  0  0  0  0  0
   44.8570   35.9620   43.1840 C   0  0  0  0  0  0  0  0  0  0  0  0
   45.2530   34.6910   42.7370 C   0  0  0  0  0  0  0  0  0  0  0  0
   45.3950   33.7370   43.7250 C   0  0  0  0  0  0  0  0  0  0  0  0
   45.1760   33.9900   45.0180 N   0  0  0  0  0  0  0  0  0  0  0  0
   44.7920   35.2430   45.4020 C   0  0  0  0  0  0  0  0  0  0  0  0
   44.6360   36.2180   44.4740 N   0  0  0  0  0  0  0  0  0  0  0  0
   44.7120   36.7920   42.5010 H   0  0  0  0  0  0  0  0  0  0  0  0
   44.6260   35.3950   46.4630 H   0  0  0  0  0  0  0  0  0  0  0  0
   45.7970   32.4340   43.3450 C   0  0  0  0  0  0  0  0  0  0  0  0
   46.9820   31.7830   43.2000 C   0  0  0  0  0  0  0  0  0  0  0  0
   47.0900   30.5280   42.8220 C   0  0  0  0  0  0  0  0  0  0  0  0
   45.9250   29.8920   42.5740 C   0  0  0  0  0  0  0  0  0  0  0  0
   44.6390   31.1550   42.9020 S   0  0  0  0  0  0  0  0  0  0  0  0
   47.8550   32.4270   43.4370 H   0  0  0  0  0  0  0  0  0  0  0  0
   48.0170   29.9830   42.6980 H   0  0  0  0  0  0  0  0  0  0  0  0
   45.8050   28.7590   42.2230 H   0  0  0  0  0  0  0  0  0  0  0  0
  1  2  2  0  0  0  0
  1 20  1  0  0  0  0
  2  7  1  0  0  0  0
  3  2  1  0  0  0  0
  4  5  2  0  0  0  0
  4  3  1  0  0  0  0
  5  1  1  0  0  0  0
  6  4  1  0  0  0  0
  8  6  1  0  0  0  0
  9  6  1  0  0  0  0
 10 11  1  0  0  0  0
 11  3  1  0  0  0  0
 11 12  2  0  0  0  0
 12 13  1  0  0  0  0
 14 12  1  0  0  0  0
 14 15  1  0  0  0  0
 16 14  2  0  0  0  0
 17 10  2  0  0  0  0
 17 16  1  0  0  0  0
 18 19  3  0  0  0  0
 19 10  1  0  0  0  0
 20 23  1  0  0  0  0
 21 20  2  0  0  0  0
 22 27  1  0  0  0  0
 23 22  2  0  0  0  0
 23 24  1  0  0  0  0
 24 25  2  0  0  0  0
 25 26  1  0  0  0  0
 26 29  1  0  0  0  0
 27 26  2  0  0  0  0
 28 22  1  0  0  0  0
 30 24  1  0  0  0  0
 31 30  2  0  0  0  0
 31 35  1  0  0  0  0
 32 31  1  0  0  0  0
 33 32  2  0  0  0  0
 33 34  1  0  0  0  0
 34 30  1  0  0  0  0
 36 32  1  0  0  0  0
 37 33  1  0  0  0  0
M  END
>  <minimizedAffinity>
-6.07916498

>  <minimizedRMSD>
1.89772642

$$$$
