
 OpenBabel03242517283D

 41 43  0  0  1  0  0  0  0  0999 V2000
   45.0120   34.6160   44.9360 C   0  0  0  0  0  0  0  0  0  0  0  0
   45.9180   34.5560   43.8390 C   0  0  0  0  0  0  0  0  0  0  0  0
   47.0240   33.6930   43.9550 C   0  0  0  0  0  0  0  0  0  0  0  0
   47.1690   32.9710   45.0920 N   0  0  0  0  0  0  0  0  0  0  0  0
   46.3000   33.0460   46.1130 C   0  0  0  0  0  0  0  0  0  0  0  0
   45.2390   33.8670   46.0160 N   0  0  0  0  0  0  0  0  0  0  0  0
   46.5190   32.2670   47.2560 N   0  0  0  0  0  0  0  0  0  0  0  0
   47.7360   32.4120   48.0020 C   0  0  0  0  0  0  0  0  0  0  0  0
   48.0160   31.2690   48.9280 C   0  0  0  0  0  0  0  0  0  0  0  0
   46.8790   30.6380   49.5000 N   0  0  0  0  0  0  0  0  0  0  0  0
   45.6290   31.2680   49.1690 C   0  0  0  0  0  0  0  0  0  0  0  0
   45.4960   31.3170   47.6680 C   0  0  2  0  0  0  0  0  0  0  0  0
   44.1650   35.2800   44.8430 H   0  0  0  0  0  0  0  0  0  0  0  0
   45.8110   35.1210   42.9410 H   0  0  0  0  0  0  0  0  0  0  0  0
   47.7560   33.6000   43.1490 H   0  0  0  0  0  0  0  0  0  0  0  0
   47.7850   33.3920   48.5510 H   0  0  0  0  0  0  0  0  0  0  0  0
   48.5690   32.4480   47.2640 H   0  0  0  0  0  0  0  0  0  0  0  0
   48.6570   30.4930   48.4560 H   0  0  0  0  0  0  0  0  0  0  0  0
   48.6210   31.6840   49.7780 H   0  0  0  0  0  0  0  0  0  0  0  0
   46.8630   29.6140   49.5190 H   0  0  0  0  0  0  0  0  0  0  0  0
   44.8120   30.6640   49.6090 H   0  0  0  0  0  0  0  0  0  0  0  0
   45.5980   32.2950   49.5510 H   0  0  0  0  0  0  0  0  0  0  0  0
   44.5110   31.7670   47.4340 H   0  0  0  0  0  0  0  0  0  0  0  0
   45.6870   29.9760   47.0410 C   0  0  0  0  0  0  0  0  0  0  0  0
   45.5000   30.0430   45.9570 H   0  0  0  0  0  0  0  0  0  0  0  0
   46.7110   29.6280   47.3010 H   0  0  0  0  0  0  0  0  0  0  0  0
   44.7270   29.0210   47.7140 C   0  0  0  0  0  3  0  0  0  0  0  0
   45.0510   27.7640   47.9340 C   0  0  0  0  0  3  0  0  0  0  0  0
   44.1590   26.7600   48.5900 C   0  0  0  0  0  0  0  0  0  0  0  0
   43.0970   27.0270   48.5300 H   0  0  0  0  0  0  0  0  0  0  0  0
   44.4970   26.5820   49.6330 H   0  0  0  0  0  0  0  0  0  0  0  0
   43.4880   24.9970   46.8860 C   0  0  0  0  0  0  0  0  0  0  0  0
   44.3600   25.4880   47.8400 C   0  0  0  0  0  0  0  0  0  0  0  0
   45.4960   24.7090   48.0910 C   0  0  0  0  0  0  0  0  0  0  0  0
   46.1810   25.0980   48.8440 H   0  0  0  0  0  0  0  0  0  0  0  0
   45.8010   23.5150   47.4690 C   0  0  0  0  0  0  0  0  0  0  0  0
   46.7070   23.0130   47.7520 H   0  0  0  0  0  0  0  0  0  0  0  0
   44.9070   23.0620   46.5250 C   0  0  0  0  0  3  0  0  0  0  0  0
   43.7790   23.7910   46.2460 C   0  0  0  0  0  3  0  0  0  0  0  0
   41.3710   26.3670   46.3490 N   0  0  0  0  0  0  0  0  0  0  0  0
   42.3190   25.7500   46.5950 C   0  0  0  0  0  0  0  0  0  0  0  0
  1  6  1  0  0  0  0
  2  3  1  0  0  0  0
  2  1  2  0  0  0  0
  3  4  2  0  0  0  0
  4  5  1  0  0  0  0
  5  7  1  0  0  0  0
  6  5  2  0  0  0  0
  7 12  1  0  0  0  0
  7  8  1  0  0  0  0
  8 16  1  0  0  0  0
  8  9  1  0  0  0  0
  9 10  1  0  0  0  0
  9 19  1  0  0  0  0
 10 20  1  0  0  0  0
 11 10  1  0  0  0  0
 11 22  1  0  0  0  0
 11 21  1  0  0  0  0
 12 23  1  6  0  0  0
 12 11  1  0  0  0  0
 13  1  1  0  0  0  0
 14  2  1  0  0  0  0
 15  3  1  0  0  0  0
 17  8  1  0  0  0  0
 18  9  1  0  0  0  0
 24 26  1  0  0  0  0
 24 12  1  0  0  0  0
 24 27  1  0  0  0  0
 25 24  1  0  0  0  0
 27 28  2  0  0  0  0
 28 29  1  0  0  0  0
 29 31  1  0  0  0  0
 30 29  1  0  0  0  0
 32 33  1  0  0  0  0
 33 34  2  0  0  0  0
 33 29  1  0  0  0  0
 34 35  1  0  0  0  0
 36 37  1  0  0  0  0
 36 34  1  0  0  0  0
 38 36  2  0  0  0  0
 39 38  1  0  0  0  0
 39 32  2  0  0  0  0
 40 41  3  0  0  0  0
 41 32  1  0  0  0  0
M  END
>  <minimizedAffinity>
-5.51032352

>  <minimizedRMSD>
1.15775645

$$$$
