
 OpenBabel03242518153D

 33 35  0  0  0  0  0  0  0  0999 V2000
   46.3350   30.0400   43.7110 C   0  0  0  0  0  0  0  0  0  0  0  0
   45.0680   30.6400   43.5380 C   0  0  0  0  0  0  0  0  0  0  0  0
   43.9520   29.8870   43.4170 C   0  0  0  0  0  0  0  0  0  0  0  0
   44.1080   28.4660   43.4690 C   0  0  0  0  0  0  0  0  0  0  0  0
   45.8900   28.2100   43.6960 S   0  0  0  0  0  0  0  0  0  0  0  0
   45.1420   31.6890   43.5240 H   0  0  0  0  0  0  0  0  0  0  0  0
   42.9790   30.3320   43.2850 H   0  0  0  0  0  0  0  0  0  0  0  0
   47.6770   30.4690   43.8810 C   0  0  0  0  0  0  0  0  0  0  0  0
   48.2190   29.7440   44.5310 H   0  0  0  0  0  0  0  0  0  0  0  0
   47.6610   31.4070   44.5200 H   0  0  0  0  0  0  0  0  0  0  0  0
   48.4780   30.7170   42.6690 C   0  0  0  0  0  0  0  0  0  0  0  0
   49.2760   29.9560   42.5350 H   0  0  0  0  0  0  0  0  0  0  0  0
   47.8050   30.6020   41.7740 H   0  0  0  0  0  0  0  0  0  0  0  0
   48.9810   32.0850   42.6390 C   0  0  0  0  0  0  0  0  0  0  0  0
   50.3080   32.3350   42.3660 C   0  0  0  0  0  0  0  0  0  0  0  0
   50.7420   33.6670   42.3520 C   0  0  0  0  0  0  0  0  0  0  0  0
   49.8330   34.6230   42.6050 N   0  0  0  0  0  0  0  0  0  0  0  0
   48.5380   34.3400   42.8680 C   0  0  0  0  0  0  0  0  0  0  0  0
   48.1340   33.0970   42.8820 N   0  0  0  0  0  0  0  0  0  0  0  0
   50.9610   31.4920   42.1750 H   0  0  0  0  0  0  0  0  0  0  0  0
   51.7850   33.8160   42.1350 H   0  0  0  0  0  0  0  0  0  0  0  0
   47.9290   35.2130   43.0510 H   0  0  0  0  0  0  0  0  0  0  0  0
   43.1860   27.5640   43.3750 O   0  0  0  0  0  0  0  0  0  0  0  0
   41.2980   27.4330   44.9340 C   0  0  0  0  0  0  0  0  0  0  0  0
   42.5410   27.0380   44.4850 C   0  0  0  0  0  0  0  0  0  0  0  0
   43.1980   26.0420   45.1890 C   0  0  0  0  0  0  0  0  0  0  0  0
   44.1810   25.6970   44.8720 H   0  0  0  0  0  0  0  0  0  0  0  0
   42.6340   25.4570   46.3100 C   0  0  0  0  0  0  0  0  0  0  0  0
   43.1750   24.6780   46.8400 H   0  0  0  0  0  0  0  0  0  0  0  0
   41.3900   25.8440   46.7680 C   0  0  0  0  0  0  0  0  0  0  0  0
   40.7560   26.8270   46.0640 C   0  0  0  0  0  0  0  0  0  0  0  0
   40.0450   29.3170   43.6460 N   0  0  0  0  0  0  0  0  0  0  0  0
   40.6090   28.4650   44.2160 C   0  0  0  0  0  0  0  0  0  0  0  0
  1  8  1  0  0  0  0
  2  1  2  0  0  0  0
  3  4  2  0  0  0  0
  3  2  1  0  0  0  0
  4  5  1  0  0  0  0
  5  1  1  0  0  0  0
  6  2  1  0  0  0  0
  7  3  1  0  0  0  0
  8 10  1  0  0  0  0
  8  9  1  0  0  0  0
 11  8  1  0  0  0  0
 12 11  1  0  0  0  0
 13 11  1  0  0  0  0
 14 11  1  0  0  0  0
 14 19  1  0  0  0  0
 15 14  2  0  0  0  0
 16 15  1  0  0  0  0
 16 17  2  0  0  0  0
 17 18  1  0  0  0  0
 18 19  2  0  0  0  0
 18 22  1  0  0  0  0
 20 15  1  0  0  0  0
 21 16  1  0  0  0  0
 23  4  1  0  0  0  0
 23 25  1  0  0  0  0
 24 31  1  0  0  0  0
 25 24  2  0  0  0  0
 25 26  1  0  0  0  0
 26 28  2  0  0  0  0
 27 26  1  0  0  0  0
 28 30  1  0  0  0  0
 28 29  1  0  0  0  0
 31 30  2  0  0  0  0
 32 33  3  0  0  0  0
 33 24  1  0  0  0  0
M  END
>  <minimizedAffinity>
-3.43577623

>  <minimizedRMSD>
9.99120522

$$$$
