
 OpenBabel03242515393D

 37 40  0  0  0  0  0  0  0  0999 V2000
   44.1750   34.7260   41.2640 C   0  0  0  0  0  0  0  0  0  0  0  0
   44.1620   33.5730   40.5180 C   0  0  0  0  0  0  0  0  0  0  0  0
   45.3720   32.9210   40.2900 C   0  0  0  0  0  0  0  0  0  0  0  0
   46.4910   33.4790   40.8320 N   0  0  0  0  0  0  0  0  0  0  0  0
   46.4710   34.6050   41.5570 C   0  0  0  0  0  0  0  0  0  0  0  0
   45.3110   35.1970   41.7520 N   0  0  0  0  0  0  0  0  0  0  0  0
   43.2700   33.1580   40.1370 H   0  0  0  0  0  0  0  0  0  0  0  0
   45.6790   31.4560   38.2470 C   0  0  0  0  0  0  0  0  0  0  0  0
   45.5970   31.6950   39.5820 C   0  0  0  0  0  0  0  0  0  0  0  0
   45.8000   30.5270   40.3200 C   0  0  0  0  0  0  0  0  0  0  0  0
   45.7700   30.5340   41.4080 H   0  0  0  0  0  0  0  0  0  0  0  0
   46.0480   29.2930   39.7900 C   0  0  0  0  0  0  0  0  0  0  0  0
   46.1990   28.4180   40.4050 H   0  0  0  0  0  0  0  0  0  0  0  0
   46.1150   29.1280   38.4280 C   0  0  0  0  0  3  0  0  0  0  0  0
   45.9250   30.2330   37.6650 C   0  0  0  0  0  3  0  0  0  0  0  0
   45.4810   33.4330   36.5960 N   0  0  0  0  0  0  0  0  0  0  0  0
   45.5600   32.5490   37.3410 C   0  0  0  0  0  0  0  0  0  0  0  0
   42.5680   35.5220   41.5110 S   0  0  0  0  0  0  0  0  0  0  0  0
   40.5860   34.8520   39.8150 C   0  0  0  0  0  0  0  0  0  0  0  0
   41.2480   34.4640   40.9710 C   0  0  0  0  0  0  0  0  0  0  0  0
   40.8740   33.3220   41.6320 C   0  0  0  0  0  0  0  0  0  0  0  0
   39.8400   32.5200   41.1850 C   0  0  0  0  0  0  0  0  0  0  0  0
   39.1680   32.9150   40.0110 C   0  0  0  0  0  0  0  0  0  0  0  0
   39.5370   34.0630   39.3400 C   0  0  0  0  0  0  0  0  0  0  0  0
   38.1720   31.9580   39.7600 O   0  0  0  0  0  0  0  0  0  0  0  0
   38.0160   31.2350   40.9670 C   0  0  0  0  0  0  0  0  0  0  0  0
   39.2580   31.3350   41.6410 O   0  0  0  0  0  0  0  0  0  0  0  0
   40.8170   35.7350   39.2360 H   0  0  0  0  0  0  0  0  0  0  0  0
   41.4140   33.0410   42.5400 H   0  0  0  0  0  0  0  0  0  0  0  0
   39.0110   34.3590   38.4330 H   0  0  0  0  0  0  0  0  0  0  0  0
   37.2430   31.6340   41.6270 H   0  0  0  0  0  0  0  0  0  0  0  0
   37.7730   30.1770   40.7610 H   0  0  0  0  0  0  0  0  0  0  0  0
   47.5830   35.1890   42.1160 O   0  0  0  0  0  0  0  0  0  0  0  0
   48.7510   35.3240   41.3640 C   0  0  0  0  0  0  0  0  0  0  0  0
   49.6670   34.3470   41.6070 F   0  0  0  0  0  0  0  0  0  0  0  0
   48.3220   35.3660   40.0230 F   0  0  0  0  0  0  0  0  0  0  0  0
   49.3230   36.5460   41.7150 F   0  0  0  0  0  0  0  0  0  0  0  0
  1 18  1  0  0  0  0
  1  6  1  0  0  0  0
  2  1  2  0  0  0  0
  3  2  1  0  0  0  0
  3  4  2  0  0  0  0
  4  5  1  0  0  0  0
  5  6  2  0  0  0  0
  5 33  1  0  0  0  0
  7  2  1  0  0  0  0
  8  9  1  0  0  0  0
  9  3  1  0  0  0  0
  9 10  2  0  0  0  0
 10 11  1  0  0  0  0
 12 10  1  0  0  0  0
 12 13  1  0  0  0  0
 14 12  2  0  0  0  0
 15  8  2  0  0  0  0
 15 14  1  0  0  0  0
 16 17  3  0  0  0  0
 17  8  1  0  0  0  0
 19 20  1  0  0  0  0
 20 18  1  0  0  0  0
 20 21  2  0  0  0  0
 21 29  1  0  0  0  0
 22 21  1  0  0  0  0
 22 27  1  0  0  0  0
 23 22  2  0  0  0  0
 24 19  2  0  0  0  0
 24 23  1  0  0  0  0
 25 23  1  0  0  0  0
 25 26  1  0  0  0  0
 26 31  1  0  0  0  0
 26 27  1  0  0  0  0
 28 19  1  0  0  0  0
 30 24  1  0  0  0  0
 32 26  1  0  0  0  0
 34 35  1  0  0  0  0
 34 37  1  0  0  0  0
 34 33  1  0  0  0  0
 36 34  1  0  0  0  0
M  END
>  <minimizedAffinity>
-5.58747625

>  <minimizedRMSD>
0.885159791

$$$$
