
 OpenBabel03242515413D

 37 40  0  0  0  0  0  0  0  0999 V2000
   35.3120   28.1620   36.7380 C   0  0  0  0  0  0  0  0  0  0  0  0
   35.3530   27.3280   37.8290 C   0  0  0  0  0  0  0  0  0  0  0  0
   36.4110   27.4660   38.7250 C   0  0  0  0  0  0  0  0  0  0  0  0
   37.3350   28.4300   38.4530 N   0  0  0  0  0  0  0  0  0  0  0  0
   37.2670   29.2290   37.3800 C   0  0  0  0  0  0  0  0  0  0  0  0
   36.2550   29.0710   36.5520 N   0  0  0  0  0  0  0  0  0  0  0  0
   34.6020   26.6110   38.0190 H   0  0  0  0  0  0  0  0  0  0  0  0
   36.8080   27.1950   41.2120 C   0  0  0  0  0  0  0  0  0  0  0  0
   36.6400   26.7440   39.9420 C   0  0  0  0  0  0  0  0  0  0  0  0
   36.6810   25.3480   39.8910 C   0  0  0  0  0  0  0  0  0  0  0  0
   36.5620   24.8140   38.9500 H   0  0  0  0  0  0  0  0  0  0  0  0
   36.8670   24.5260   40.9650 C   0  0  0  0  0  0  0  0  0  0  0  0
   36.8900   23.4490   40.8720 H   0  0  0  0  0  0  0  0  0  0  0  0
   37.0310   25.0570   42.2200 C   0  0  0  0  0  3  0  0  0  0  0  0
   36.9990   26.4090   42.3250 C   0  0  0  0  0  3  0  0  0  0  0  0
   36.6810   29.7330   41.6800 N   0  0  0  0  0  0  0  0  0  0  0  0
   36.7310   28.5960   41.4610 C   0  0  0  0  0  0  0  0  0  0  0  0
   33.9140   27.9180   35.6140 S   0  0  0  0  0  0  0  0  0  0  0  0
   32.3920   29.9760   34.7790 C   0  0  0  0  0  0  0  0  0  0  0  0
   32.6730   29.1630   35.8660 C   0  0  0  0  0  0  0  0  0  0  0  0
   32.0100   29.3410   37.0540 C   0  0  0  0  0  0  0  0  0  0  0  0
   31.0480   30.3220   37.2180 C   0  0  0  0  0  0  0  0  0  0  0  0
   30.7640   31.1480   36.1120 C   0  0  0  0  0  0  0  0  0  0  0  0
   31.4260   30.9750   34.9140 C   0  0  0  0  0  0  0  0  0  0  0  0
   29.7700   32.0530   36.5150 O   0  0  0  0  0  0  0  0  0  0  0  0
   29.7540   32.0070   37.9300 C   0  0  0  0  0  0  0  0  0  0  0  0
   30.2360   30.7220   38.2810 O   0  0  0  0  0  0  0  0  0  0  0  0
   32.8670   29.9020   33.8110 H   0  0  0  0  0  0  0  0  0  0  0  0
   32.2520   28.6850   37.8950 H   0  0  0  0  0  0  0  0  0  0  0  0
   31.1980   31.6190   34.0650 H   0  0  0  0  0  0  0  0  0  0  0  0
   30.3990   32.7480   38.4060 H   0  0  0  0  0  0  0  0  0  0  0  0
   28.7280   32.1540   38.3160 H   0  0  0  0  0  0  0  0  0  0  0  0
   38.1840   30.2090   37.0810 O   0  0  0  0  0  0  0  0  0  0  0  0
   37.9000   31.5420   37.3790 C   0  0  0  0  0  0  0  0  0  0  0  0
   36.8880   31.6930   38.2750 F   0  0  0  0  0  0  0  0  0  0  0  0
   39.1220   32.0890   37.8180 F   0  0  0  0  0  0  0  0  0  0  0  0
   37.5120   32.1520   36.1860 F   0  0  0  0  0  0  0  0  0  0  0  0
  1  2  1  0  0  0  0
  2  7  1  0  0  0  0
  2  3  2  0  0  0  0
  3  9  1  0  0  0  0
  4  3  1  0  0  0  0
  5  4  2  0  0  0  0
  6  1  2  0  0  0  0
  6  5  1  0  0  0  0
  8 17  1  0  0  0  0
  8 15  1  0  0  0  0
  9  8  2  0  0  0  0
 10  9  1  0  0  0  0
 10 12  2  0  0  0  0
 11 10  1  0  0  0  0
 12 14  1  0  0  0  0
 13 12  1  0  0  0  0
 14 15  2  0  0  0  0
 17 16  3  0  0  0  0
 18 20  1  0  0  0  0
 18  1  1  0  0  0  0
 19 24  2  0  0  0  0
 19 20  1  0  0  0  0
 20 21  2  0  0  0  0
 21 22  1  0  0  0  0
 21 29  1  0  0  0  0
 22 27  1  0  0  0  0
 23 25  1  0  0  0  0
 23 22  2  0  0  0  0
 24 23  1  0  0  0  0
 25 26  1  0  0  0  0
 26 27  1  0  0  0  0
 26 32  1  0  0  0  0
 26 31  1  0  0  0  0
 28 19  1  0  0  0  0
 30 24  1  0  0  0  0
 33 34  1  0  0  0  0
 33  5  1  0  0  0  0
 34 36  1  0  0  0  0
 34 35  1  0  0  0  0
 37 34  1  0  0  0  0
M  END
>  <minimizedAffinity>
-6.06162405

$$$$

 OpenBabel03242515413D

 37 40  0  0  0  0  0  0  0  0999 V2000
   36.5490   28.6590   41.6540 C   0  0  0  0  0  0  0  0  0  0  0  0
   35.9170   28.2400   40.5090 C   0  0  0  0  0  0  0  0  0  0  0  0
   35.7480   29.1590   39.4750 C   0  0  0  0  0  0  0  0  0  0  0  0
   36.2300   30.4170   39.6760 N   0  0  0  0  0  0  0  0  0  0  0  0
   36.8440   30.7960   40.8050 C   0  0  0  0  0  0  0  0  0  0  0  0
   36.9860   29.9040   41.7630 N   0  0  0  0  0  0  0  0  0  0  0  0
   35.5810   27.2480   40.3820 H   0  0  0  0  0  0  0  0  0  0  0  0
   35.7440   28.6970   36.9840 C   0  0  0  0  0  0  0  0  0  0  0  0
   35.1590   28.9410   38.1860 C   0  0  0  0  0  0  0  0  0  0  0  0
   33.7660   28.9390   38.0810 C   0  0  0  0  0  0  0  0  0  0  0  0
   33.1340   29.1180   38.9490 H   0  0  0  0  0  0  0  0  0  0  0  0
   33.0630   28.7240   36.9300 C   0  0  0  0  0  0  0  0  0  0  0  0
   31.9830   28.7330   36.9010 H   0  0  0  0  0  0  0  0  0  0  0  0
   33.7260   28.4850   35.7520 C   0  0  0  0  0  3  0  0  0  0  0  0
   35.0820   28.4750   35.8000 C   0  0  0  0  0  3  0  0  0  0  0  0
   38.3180   28.5010   36.8720 N   0  0  0  0  0  0  0  0  0  0  0  0
   37.1640   28.5990   36.9170 C   0  0  0  0  0  0  0  0  0  0  0  0
   36.7240   27.4150   42.9570 S   0  0  0  0  0  0  0  0  0  0  0  0
   38.4030   25.3580   42.5090 C   0  0  0  0  0  0  0  0  0  0  0  0
   38.3410   26.6810   42.9190 C   0  0  0  0  0  0  0  0  0  0  0  0
   39.4850   27.3520   43.2690 C   0  0  0  0  0  0  0  0  0  0  0  0
   40.7300   26.7500   43.2290 C   0  0  0  0  0  0  0  0  0  0  0  0
   40.7920   25.4060   42.8130 C   0  0  0  0  0  0  0  0  0  0  0  0
   39.6450   24.7230   42.4590 C   0  0  0  0  0  0  0  0  0  0  0  0
   42.1410   25.0200   42.8540 O   0  0  0  0  0  0  0  0  0  0  0  0
   42.7980   25.9940   43.6430 C   0  0  0  0  0  0  0  0  0  0  0  0
   42.0270   27.1760   43.5200 O   0  0  0  0  0  0  0  0  0  0  0  0
   37.5520   24.7590   42.2170 H   0  0  0  0  0  0  0  0  0  0  0  0
   39.4050   28.3950   43.5890 H   0  0  0  0  0  0  0  0  0  0  0  0
   39.7050   23.6840   42.1380 H   0  0  0  0  0  0  0  0  0  0  0  0
   42.8580   25.7410   44.7030 H   0  0  0  0  0  0  0  0  0  0  0  0
   43.8280   26.1650   43.2770 H   0  0  0  0  0  0  0  0  0  0  0  0
   37.3410   32.0570   41.0330 O   0  0  0  0  0  0  0  0  0  0  0  0
   38.2440   32.6240   40.1340 C   0  0  0  0  0  0  0  0  0  0  0  0
   39.0830   31.7150   39.5650 F   0  0  0  0  0  0  0  0  0  0  0  0
   37.4480   33.3120   39.1980 F   0  0  0  0  0  0  0  0  0  0  0  0
   39.0200   33.5320   40.8530 F   0  0  0  0  0  0  0  0  0  0  0  0
  1  6  1  0  0  0  0
  1 18  1  0  0  0  0
  2  1  2  0  0  0  0
  3  4  2  0  0  0  0
  3  2  1  0  0  0  0
  4  5  1  0  0  0  0
  5 33  1  0  0  0  0
  5  6  2  0  0  0  0
  7  2  1  0  0  0  0
  8  9  1  0  0  0  0
  9  3  1  0  0  0  0
 10  9  2  0  0  0  0
 10 11  1  0  0  0  0
 12 10  1  0  0  0  0
 13 12  1  0  0  0  0
 14 15  1  0  0  0  0
 14 12  2  0  0  0  0
 15  8  2  0  0  0  0
 16 17  3  0  0  0  0
 17  8  1  0  0  0  0
 19 20  1  0  0  0  0
 20 18  1  0  0  0  0
 20 21  2  0  0  0  0
 21 29  1  0  0  0  0
 22 21  1  0  0  0  0
 22 27  1  0  0  0  0
 23 25  1  0  0  0  0
 23 22  2  0  0  0  0
 24 19  2  0  0  0  0
 24 23  1  0  0  0  0
 25 26  1  0  0  0  0
 26 31  1  0  0  0  0
 27 26  1  0  0  0  0
 28 19  1  0  0  0  0
 30 24  1  0  0  0  0
 32 26  1  0  0  0  0
 34 37  1  0  0  0  0
 34 33  1  0  0  0  0
 35 34  1  0  0  0  0
 36 34  1  0  0  0  0
M  END
>  <minimizedAffinity>
-5.92700529

$$$$

 OpenBabel03242515413D

 37 40  0  0  0  0  0  0  0  0999 V2000
   35.8140   28.7830   37.9220 C   0  0  0  0  0  0  0  0  0  0  0  0
   36.2450   28.0340   38.9900 C   0  0  0  0  0  0  0  0  0  0  0  0
   37.0750   28.6430   39.9290 C   0  0  0  0  0  0  0  0  0  0  0  0
   37.3990   29.9490   39.7200 N   0  0  0  0  0  0  0  0  0  0  0  0
   36.9610   30.6540   38.6680 C   0  0  0  0  0  0  0  0  0  0  0  0
   36.1800   30.0480   37.7980 N   0  0  0  0  0  0  0  0  0  0  0  0
   35.9500   27.0310   39.1310 H   0  0  0  0  0  0  0  0  0  0  0  0
   38.7750   27.4080   41.3460 C   0  0  0  0  0  0  0  0  0  0  0  0
   37.6120   28.0780   41.1330 C   0  0  0  0  0  0  0  0  0  0  0  0
   36.8900   28.2280   42.3200 C   0  0  0  0  0  0  0  0  0  0  0  0
   35.9310   28.7430   42.3350 H   0  0  0  0  0  0  0  0  0  0  0  0
   37.2810   27.7670   43.5430 C   0  0  0  0  0  0  0  0  0  0  0  0
   36.6850   27.9090   44.4330 H   0  0  0  0  0  0  0  0  0  0  0  0
   38.4720   27.0970   43.6800 C   0  0  0  0  0  3  0  0  0  0  0  0
   39.2130   26.9250   42.5560 C   0  0  0  0  0  3  0  0  0  0  0  0
   40.3990   27.0880   39.3620 N   0  0  0  0  0  0  0  0  0  0  0  0
   39.6710   27.2200   40.2540 C   0  0  0  0  0  0  0  0  0  0  0  0
   34.7460   27.9230   36.7390 S   0  0  0  0  0  0  0  0  0  0  0  0
   33.1310   29.2630   35.0530 C   0  0  0  0  0  0  0  0  0  0  0  0
   33.2990   28.8850   36.3770 C   0  0  0  0  0  0  0  0  0  0  0  0
   32.3770   29.2530   37.3250 C   0  0  0  0  0  0  0  0  0  0  0  0
   31.2600   30.0040   37.0090 C   0  0  0  0  0  0  0  0  0  0  0  0
   31.0900   30.3880   35.6630 C   0  0  0  0  0  0  0  0  0  0  0  0
   32.0120   30.0220   34.7040 C   0  0  0  0  0  0  0  0  0  0  0  0
   29.9020   31.1320   35.5910 O   0  0  0  0  0  0  0  0  0  0  0  0
   29.5920   31.4980   36.9220 C   0  0  0  0  0  0  0  0  0  0  0  0
   30.1860   30.5090   37.7440 O   0  0  0  0  0  0  0  0  0  0  0  0
   33.8070   29.0160   34.2470 H   0  0  0  0  0  0  0  0  0  0  0  0
   32.5360   28.9400   38.3600 H   0  0  0  0  0  0  0  0  0  0  0  0
   31.8710   30.3240   33.6670 H   0  0  0  0  0  0  0  0  0  0  0  0
   29.9930   32.4680   37.2210 H   0  0  0  0  0  0  0  0  0  0  0  0
   28.4970   31.5230   37.0780 H   0  0  0  0  0  0  0  0  0  0  0  0
   37.2720   31.9720   38.4320 O   0  0  0  0  0  0  0  0  0  0  0  0
   37.4620   32.8450   39.5040 C   0  0  0  0  0  0  0  0  0  0  0  0
   36.8910   32.4140   40.6610 F   0  0  0  0  0  0  0  0  0  0  0  0
   38.8580   33.0120   39.5980 F   0  0  0  0  0  0  0  0  0  0  0  0
   36.8650   34.0550   39.1550 F   0  0  0  0  0  0  0  0  0  0  0  0
  1  2  1  0  0  0  0
  2  7  1  0  0  0  0
  2  3  2  0  0  0  0
  3  9  1  0  0  0  0
  4  3  1  0  0  0  0
  5  4  2  0  0  0  0
  6  1  2  0  0  0  0
  6  5  1  0  0  0  0
  8 15  1  0  0  0  0
  9  8  2  0  0  0  0
  9 10  1  0  0  0  0
 10 11  1  0  0  0  0
 10 12  2  0  0  0  0
 12 14  1  0  0  0  0
 12 13  1  0  0  0  0
 15 14  2  0  0  0  0
 16 17  3  0  0  0  0
 17  8  1  0  0  0  0
 18  1  1  0  0  0  0
 19 20  1  0  0  0  0
 20 18  1  0  0  0  0
 20 21  2  0  0  0  0
 21 29  1  0  0  0  0
 22 21  1  0  0  0  0
 22 27  1  0  0  0  0
 23 22  2  0  0  0  0
 24 19  2  0  0  0  0
 24 23  1  0  0  0  0
 25 23  1  0  0  0  0
 25 26  1  0  0  0  0
 26 32  1  0  0  0  0
 26 31  1  0  0  0  0
 26 27  1  0  0  0  0
 28 19  1  0  0  0  0
 30 24  1  0  0  0  0
 33  5  1  0  0  0  0
 33 34  1  0  0  0  0
 34 36  1  0  0  0  0
 34 35  1  0  0  0  0
 37 34  1  0  0  0  0
M  END
>  <minimizedAffinity>
-5.8826642

$$$$

 OpenBabel03242515413D

 37 40  0  0  0  0  0  0  0  0999 V2000
   35.3940   28.2710   37.0040 C   0  0  0  0  0  0  0  0  0  0  0  0
   35.4020   27.5830   38.1930 C   0  0  0  0  0  0  0  0  0  0  0  0
   36.4390   27.8280   39.0910 C   0  0  0  0  0  0  0  0  0  0  0  0
   37.3770   28.7450   38.7230 N   0  0  0  0  0  0  0  0  0  0  0  0
   37.3410   29.4020   37.5560 C   0  0  0  0  0  0  0  0  0  0  0  0
   36.3490   29.1450   36.7290 N   0  0  0  0  0  0  0  0  0  0  0  0
   34.6410   26.8990   38.4530 H   0  0  0  0  0  0  0  0  0  0  0  0
   37.0380   26.0200   40.7620 C   0  0  0  0  0  0  0  0  0  0  0  0
   36.6320   27.2640   40.3950 C   0  0  0  0  0  0  0  0  0  0  0  0
   36.4120   28.0750   41.5120 C   0  0  0  0  0  0  0  0  0  0  0  0
   36.0820   29.1070   41.4040 H   0  0  0  0  0  0  0  0  0  0  0  0
   36.5760   27.6880   42.8100 C   0  0  0  0  0  0  0  0  0  0  0  0
   36.3920   28.3540   43.6400 H   0  0  0  0  0  0  0  0  0  0  0  0
   36.9890   26.4110   43.1030 C   0  0  0  0  0  3  0  0  0  0  0  0
   37.2180   25.5830   42.0530 C   0  0  0  0  0  3  0  0  0  0  0  0
   37.6620   24.3160   38.9230 N   0  0  0  0  0  0  0  0  0  0  0  0
   37.3710   25.0770   39.7460 C   0  0  0  0  0  0  0  0  0  0  0  0
   34.0230   27.8940   35.8860 S   0  0  0  0  0  0  0  0  0  0  0  0
   32.4470   29.8300   34.8770 C   0  0  0  0  0  0  0  0  0  0  0  0
   32.7370   29.1100   36.0260 C   0  0  0  0  0  0  0  0  0  0  0  0
   32.0470   29.3520   37.1880 C   0  0  0  0  0  0  0  0  0  0  0  0
   31.0510   30.3080   37.2640 C   0  0  0  0  0  0  0  0  0  0  0  0
   30.7580   31.0400   36.0960 C   0  0  0  0  0  0  0  0  0  0  0  0
   31.4460   30.8020   34.9230 C   0  0  0  0  0  0  0  0  0  0  0  0
   29.7270   31.9370   36.4160 O   0  0  0  0  0  0  0  0  0  0  0  0
   29.6890   31.9950   37.8300 C   0  0  0  0  0  0  0  0  0  0  0  0
   30.2070   30.7570   38.2820 O   0  0  0  0  0  0  0  0  0  0  0  0
   32.9410   29.7020   33.9240 H   0  0  0  0  0  0  0  0  0  0  0  0
   32.2980   28.7690   38.0780 H   0  0  0  0  0  0  0  0  0  0  0  0
   31.2110   31.3740   34.0260 H   0  0  0  0  0  0  0  0  0  0  0  0
   30.3000   32.7910   38.2590 H   0  0  0  0  0  0  0  0  0  0  0  0
   28.6520   32.1340   38.1890 H   0  0  0  0  0  0  0  0  0  0  0  0
   38.2740   30.3310   37.1590 O   0  0  0  0  0  0  0  0  0  0  0  0
   38.0280   31.6910   37.3540 C   0  0  0  0  0  0  0  0  0  0  0  0
   37.0320   31.9380   38.2470 F   0  0  0  0  0  0  0  0  0  0  0  0
   39.2690   32.2370   37.7350 F   0  0  0  0  0  0  0  0  0  0  0  0
   37.6400   32.2160   36.1220 F   0  0  0  0  0  0  0  0  0  0  0  0
  1  2  1  0  0  0  0
  2  7  1  0  0  0  0
  2  3  2  0  0  0  0
  3  9  1  0  0  0  0
  4  3  1  0  0  0  0
  5  4  2  0  0  0  0
  6  1  2  0  0  0  0
  6  5  1  0  0  0  0
  8 15  1  0  0  0  0
  9  8  2  0  0  0  0
  9 10  1  0  0  0  0
 10 12  2  0  0  0  0
 11 10  1  0  0  0  0
 12 14  1  0  0  0  0
 12 13  1  0  0  0  0
 15 14  2  0  0  0  0
 16 17  3  0  0  0  0
 17  8  1  0  0  0  0
 18 20  1  0  0  0  0
 18  1  1  0  0  0  0
 19 24  2  0  0  0  0
 19 20  1  0  0  0  0
 20 21  2  0  0  0  0
 21 22  1  0  0  0  0
 21 29  1  0  0  0  0
 22 27  1  0  0  0  0
 23 25  1  0  0  0  0
 23 22  2  0  0  0  0
 24 23  1  0  0  0  0
 25 26  1  0  0  0  0
 26 32  1  0  0  0  0
 26 31  1  0  0  0  0
 26 27  1  0  0  0  0
 28 19  1  0  0  0  0
 30 24  1  0  0  0  0
 33 34  1  0  0  0  0
 33  5  1  0  0  0  0
 34 36  1  0  0  0  0
 34 35  1  0  0  0  0
 37 34  1  0  0  0  0
M  END
>  <minimizedAffinity>
-5.81504822

$$$$

 OpenBabel03242515413D

 37 40  0  0  0  0  0  0  0  0999 V2000
   35.8880   28.8320   38.5280 C   0  0  0  0  0  0  0  0  0  0  0  0
   36.6150   29.9930   38.4290 C   0  0  0  0  0  0  0  0  0  0  0  0
   37.1890   30.5130   39.5870 C   0  0  0  0  0  0  0  0  0  0  0  0
   36.9870   29.8230   40.7450 N   0  0  0  0  0  0  0  0  0  0  0  0
   36.2730   28.6920   40.8090 C   0  0  0  0  0  0  0  0  0  0  0  0
   35.7430   28.2280   39.6970 N   0  0  0  0  0  0  0  0  0  0  0  0
   36.7710   30.4830   37.5080 H   0  0  0  0  0  0  0  0  0  0  0  0
   39.3670   31.8020   39.6930 C   0  0  0  0  0  0  0  0  0  0  0  0
   38.0140   31.6770   39.7200 C   0  0  0  0  0  0  0  0  0  0  0  0
   37.3940   32.9200   39.8770 C   0  0  0  0  0  0  0  0  0  0  0  0
   36.3100   33.0080   39.9190 H   0  0  0  0  0  0  0  0  0  0  0  0
   38.0440   34.1150   39.9930 C   0  0  0  0  0  0  0  0  0  0  0  0
   37.5170   35.0510   40.1130 H   0  0  0  0  0  0  0  0  0  0  0  0
   39.4150   34.1610   39.9580 C   0  0  0  0  0  3  0  0  0  0  0  0
   40.0670   32.9810   39.8060 C   0  0  0  0  0  3  0  0  0  0  0  0
   40.8030   29.6940   39.2770 N   0  0  0  0  0  0  0  0  0  0  0  0
   40.1620   30.6390   39.4750 C   0  0  0  0  0  0  0  0  0  0  0  0
   35.1660   28.2220   36.9840 S   0  0  0  0  0  0  0  0  0  0  0  0
   33.3120   29.2950   35.3530 C   0  0  0  0  0  0  0  0  0  0  0  0
   33.5930   28.9840   36.6750 C   0  0  0  0  0  0  0  0  0  0  0  0
   32.6810   29.2640   37.6610 C   0  0  0  0  0  0  0  0  0  0  0  0
   31.4630   29.8590   37.3860 C   0  0  0  0  0  0  0  0  0  0  0  0
   31.1790   30.1760   36.0430 C   0  0  0  0  0  0  0  0  0  0  0  0
   32.0910   29.8970   35.0450 C   0  0  0  0  0  0  0  0  0  0  0  0
   29.9050   30.7630   36.0150 O   0  0  0  0  0  0  0  0  0  0  0  0
   29.6180   31.1310   37.3520 C   0  0  0  0  0  0  0  0  0  0  0  0
   30.3720   30.2500   38.1660 O   0  0  0  0  0  0  0  0  0  0  0  0
   33.9730   29.1080   34.5190 H   0  0  0  0  0  0  0  0  0  0  0  0
   32.9290   29.0070   38.6940 H   0  0  0  0  0  0  0  0  0  0  0  0
   31.8610   30.1460   34.0100 H   0  0  0  0  0  0  0  0  0  0  0  0
   29.9080   32.1520   37.6040 H   0  0  0  0  0  0  0  0  0  0  0  0
   28.5380   31.0240   37.5640 H   0  0  0  0  0  0  0  0  0  0  0  0
   36.0540   27.9760   41.9620 O   0  0  0  0  0  0  0  0  0  0  0  0
   37.0940   27.2430   42.5350 C   0  0  0  0  0  0  0  0  0  0  0  0
   38.1260   27.0090   41.6800 F   0  0  0  0  0  0  0  0  0  0  0  0
   37.4710   27.9720   43.6800 F   0  0  0  0  0  0  0  0  0  0  0  0
   36.5630   26.0110   42.9150 F   0  0  0  0  0  0  0  0  0  0  0  0
  1  6  1  0  0  0  0
  2  1  2  0  0  0  0
  2  3  1  0  0  0  0
  3  9  1  0  0  0  0
  3  4  2  0  0  0  0
  4  5  1  0  0  0  0
  5 33  1  0  0  0  0
  6  5  2  0  0  0  0
  7  2  1  0  0  0  0
  8  9  2  0  0  0  0
  8 15  1  0  0  0  0
  9 10  1  0  0  0  0
 10 11  1  0  0  0  0
 10 12  2  0  0  0  0
 12 13  1  0  0  0  0
 14 12  1  0  0  0  0
 15 14  2  0  0  0  0
 16 17  3  0  0  0  0
 17  8  1  0  0  0  0
 18  1  1  0  0  0  0
 19 20  1  0  0  0  0
 20 18  1  0  0  0  0
 20 21  2  0  0  0  0
 21 29  1  0  0  0  0
 22 21  1  0  0  0  0
 22 27  1  0  0  0  0
 23 22  2  0  0  0  0
 24 19  2  0  0  0  0
 24 23  1  0  0  0  0
 25 23  1  0  0  0  0
 25 26  1  0  0  0  0
 26 32  1  0  0  0  0
 26 31  1  0  0  0  0
 26 27  1  0  0  0  0
 28 19  1  0  0  0  0
 30 24  1  0  0  0  0
 33 34  1  0  0  0  0
 34 37  1  0  0  0  0
 34 36  1  0  0  0  0
 35 34  1  0  0  0  0
M  END
>  <minimizedAffinity>
-5.80879116

$$$$

 OpenBabel03242515413D

 37 40  0  0  0  0  0  0  0  0999 V2000
   37.0080   30.5010   39.2680 C   0  0  0  0  0  0  0  0  0  0  0  0
   37.0770   29.4470   40.1460 C   0  0  0  0  0  0  0  0  0  0  0  0
   36.7980   28.1690   39.6660 C   0  0  0  0  0  0  0  0  0  0  0  0
   36.4790   28.0570   38.3460 N   0  0  0  0  0  0  0  0  0  0  0  0
   36.4210   29.1040   37.5140 C   0  0  0  0  0  0  0  0  0  0  0  0
   36.6880   30.2980   38.0000 N   0  0  0  0  0  0  0  0  0  0  0  0
   37.3550   29.5730   41.1560 H   0  0  0  0  0  0  0  0  0  0  0  0
   37.0890   26.6770   41.6930 C   0  0  0  0  0  0  0  0  0  0  0  0
   36.8450   26.9270   40.3790 C   0  0  0  0  0  0  0  0  0  0  0  0
   36.5790   25.7460   39.6810 C   0  0  0  0  0  0  0  0  0  0  0  0
   36.3610   25.7580   38.6140 H   0  0  0  0  0  0  0  0  0  0  0  0
   36.5640   24.4950   40.2260 C   0  0  0  0  0  0  0  0  0  0  0  0
   36.3520   23.6110   39.6410 H   0  0  0  0  0  0  0  0  0  0  0  0
   36.8220   24.3220   41.5630 C   0  0  0  0  0  3  0  0  0  0  0  0
   37.0850   25.4370   42.2880 C   0  0  0  0  0  3  0  0  0  0  0  0
   37.4900   28.6600   43.3010 N   0  0  0  0  0  0  0  0  0  0  0  0
   37.3170   27.7760   42.5720 C   0  0  0  0  0  0  0  0  0  0  0  0
   37.3740   32.1310   39.9650 S   0  0  0  0  0  0  0  0  0  0  0  0
   39.5900   32.2490   38.4410 C   0  0  0  0  0  0  0  0  0  0  0  0
   39.0700   32.5750   39.6850 C   0  0  0  0  0  0  0  0  0  0  0  0
   39.8520   33.2040   40.6200 C   0  0  0  0  0  0  0  0  0  0  0  0
   41.1710   33.5360   40.3690 C   0  0  0  0  0  0  0  0  0  0  0  0
   41.6990   33.2030   39.1050 C   0  0  0  0  0  0  0  0  0  0  0  0
   40.9190   32.5700   38.1590 C   0  0  0  0  0  0  0  0  0  0  0  0
   43.0350   33.6330   39.0870 O   0  0  0  0  0  0  0  0  0  0  0  0
   43.3880   33.8600   40.4400 C   0  0  0  0  0  0  0  0  0  0  0  0
   42.1770   34.1600   41.1100 O   0  0  0  0  0  0  0  0  0  0  0  0
   39.0430   31.7550   37.6510 H   0  0  0  0  0  0  0  0  0  0  0  0
   39.4150   33.4490   41.5910 H   0  0  0  0  0  0  0  0  0  0  0  0
   41.3370   32.3190   37.1860 H   0  0  0  0  0  0  0  0  0  0  0  0
   43.8390   32.9960   40.9320 H   0  0  0  0  0  0  0  0  0  0  0  0
   44.0960   34.7050   40.5240 H   0  0  0  0  0  0  0  0  0  0  0  0
   36.1010   29.0200   36.1800 O   0  0  0  0  0  0  0  0  0  0  0  0
   36.9550   28.3530   35.3000 C   0  0  0  0  0  0  0  0  0  0  0  0
   36.6790   27.0250   35.1810 F   0  0  0  0  0  0  0  0  0  0  0  0
   36.8520   29.0560   34.0840 F   0  0  0  0  0  0  0  0  0  0  0  0
   38.2460   28.4790   35.8100 F   0  0  0  0  0  0  0  0  0  0  0  0
  1 18  1  0  0  0  0
  1  2  1  0  0  0  0
  2  7  1  0  0  0  0
  3  2  2  0  0  0  0
  3  9  1  0  0  0  0
  4  3  1  0  0  0  0
  5  6  1  0  0  0  0
  5  4  2  0  0  0  0
  6  1  2  0  0  0  0
  8 15  1  0  0  0  0
  8 17  1  0  0  0  0
  9  8  2  0  0  0  0
 10 12  2  0  0  0  0
 10  9  1  0  0  0  0
 11 10  1  0  0  0  0
 12 14  1  0  0  0  0
 13 12  1  0  0  0  0
 14 15  2  0  0  0  0
 17 16  3  0  0  0  0
 19 20  1  0  0  0  0
 20 18  1  0  0  0  0
 20 21  2  0  0  0  0
 21 29  1  0  0  0  0
 22 21  1  0  0  0  0
 22 27  1  0  0  0  0
 23 22  2  0  0  0  0
 24 19  2  0  0  0  0
 24 23  1  0  0  0  0
 25 23  1  0  0  0  0
 25 26  1  0  0  0  0
 26 32  1  0  0  0  0
 26 31  1  0  0  0  0
 26 27  1  0  0  0  0
 28 19  1  0  0  0  0
 30 24  1  0  0  0  0
 33  5  1  0  0  0  0
 34 37  1  0  0  0  0
 34 33  1  0  0  0  0
 35 34  1  0  0  0  0
 36 34  1  0  0  0  0
M  END
>  <minimizedAffinity>
-5.79285145

$$$$

 OpenBabel03242515413D

 37 40  0  0  0  0  0  0  0  0999 V2000
   38.0270   29.0790   41.0440 C   0  0  0  0  0  0  0  0  0  0  0  0
   37.1710   29.4730   40.0450 C   0  0  0  0  0  0  0  0  0  0  0  0
   36.5090   28.4870   39.3160 C   0  0  0  0  0  0  0  0  0  0  0  0
   36.7590   27.1910   39.6530 N   0  0  0  0  0  0  0  0  0  0  0  0
   37.6000   26.8370   40.6340 C   0  0  0  0  0  0  0  0  0  0  0  0
   38.2110   27.7940   41.3020 N   0  0  0  0  0  0  0  0  0  0  0  0
   36.9830   30.4890   39.8320 H   0  0  0  0  0  0  0  0  0  0  0  0
   35.7110   28.6410   36.9170 C   0  0  0  0  0  0  0  0  0  0  0  0
   35.5490   28.6580   38.2660 C   0  0  0  0  0  0  0  0  0  0  0  0
   34.2080   28.8480   38.6110 C   0  0  0  0  0  0  0  0  0  0  0  0
   33.8940   28.8870   39.6530 H   0  0  0  0  0  0  0  0  0  0  0  0
   33.1810   29.0020   37.7260 C   0  0  0  0  0  0  0  0  0  0  0  0
   32.1590   29.1470   38.0450 H   0  0  0  0  0  0  0  0  0  0  0  0
   33.4240   28.9750   36.3750 C   0  0  0  0  0  3  0  0  0  0  0  0
   34.7100   28.7920   35.9850 C   0  0  0  0  0  3  0  0  0  0  0  0
   38.0630   28.2080   35.9380 N   0  0  0  0  0  0  0  0  0  0  0  0
   37.0090   28.3920   36.3820 C   0  0  0  0  0  0  0  0  0  0  0  0
   38.8570   30.4140   41.9410 S   0  0  0  0  0  0  0  0  0  0  0  0
   39.1760   32.8490   40.8380 C   0  0  0  0  0  0  0  0  0  0  0  0
   39.6400   31.5420   40.8160 C   0  0  0  0  0  0  0  0  0  0  0  0
   40.6490   31.1800   39.9600 C   0  0  0  0  0  0  0  0  0  0  0  0
   41.2370   32.0850   39.0950 C   0  0  0  0  0  0  0  0  0  0  0  0
   40.7640   33.4120   39.1170 C   0  0  0  0  0  0  0  0  0  0  0  0
   39.7500   33.7850   39.9760 C   0  0  0  0  0  0  0  0  0  0  0  0
   41.5040   34.1320   38.1660 O   0  0  0  0  0  0  0  0  0  0  0  0
   42.1230   33.1630   37.3410 C   0  0  0  0  0  0  0  0  0  0  0  0
   42.2530   32.0010   38.1400 O   0  0  0  0  0  0  0  0  0  0  0  0
   38.3870   33.2160   41.4800 H   0  0  0  0  0  0  0  0  0  0  0  0
   40.9950   30.1430   39.9640 H   0  0  0  0  0  0  0  0  0  0  0  0
   39.3930   34.8140   39.9850 H   0  0  0  0  0  0  0  0  0  0  0  0
   41.5430   32.8980   36.4550 H   0  0  0  0  0  0  0  0  0  0  0  0
   43.1160   33.5130   37.0030 H   0  0  0  0  0  0  0  0  0  0  0  0
   37.8720   25.5390   40.9950 O   0  0  0  0  0  0  0  0  0  0  0  0
   37.0610   24.8910   41.9280 C   0  0  0  0  0  0  0  0  0  0  0  0
   36.4730   25.7400   42.8150 F   0  0  0  0  0  0  0  0  0  0  0  0
   36.1360   24.1540   41.1630 F   0  0  0  0  0  0  0  0  0  0  0  0
   37.8800   24.0210   42.6450 F   0  0  0  0  0  0  0  0  0  0  0  0
  1  6  1  0  0  0  0
  1 18  1  0  0  0  0
  2  1  2  0  0  0  0
  3  4  2  0  0  0  0
  3  2  1  0  0  0  0
  4  5  1  0  0  0  0
  5 33  1  0  0  0  0
  5  6  2  0  0  0  0
  7  2  1  0  0  0  0
  8  9  1  0  0  0  0
  9 10  2  0  0  0  0
  9  3  1  0  0  0  0
 10 11  1  0  0  0  0
 12 13  1  0  0  0  0
 12 10  1  0  0  0  0
 14 12  2  0  0  0  0
 15 14  1  0  0  0  0
 15  8  2  0  0  0  0
 16 17  3  0  0  0  0
 17  8  1  0  0  0  0
 19 28  1  0  0  0  0
 20 19  1  0  0  0  0
 20 18  1  0  0  0  0
 21 29  1  0  0  0  0
 21 20  2  0  0  0  0
 22 23  2  0  0  0  0
 22 21  1  0  0  0  0
 23 24  1  0  0  0  0
 24 30  1  0  0  0  0
 24 19  2  0  0  0  0
 25 23  1  0  0  0  0
 26 27  1  0  0  0  0
 26 25  1  0  0  0  0
 27 22  1  0  0  0  0
 31 26  1  0  0  0  0
 32 26  1  0  0  0  0
 33 34  1  0  0  0  0
 34 37  1  0  0  0  0
 34 35  1  0  0  0  0
 36 34  1  0  0  0  0
M  END
>  <minimizedAffinity>
-5.73491764

$$$$

 OpenBabel03242515413D

 37 40  0  0  0  0  0  0  0  0999 V2000
   36.4010   29.4720   37.2360 C   0  0  0  0  0  0  0  0  0  0  0  0
   36.9290   28.7770   38.2970 C   0  0  0  0  0  0  0  0  0  0  0  0
   36.1760   27.7430   38.8490 C   0  0  0  0  0  0  0  0  0  0  0  0
   34.9600   27.4920   38.2880 N   0  0  0  0  0  0  0  0  0  0  0  0
   34.4720   28.1870   37.2520 C   0  0  0  0  0  0  0  0  0  0  0  0
   35.2090   29.1590   36.7560 N   0  0  0  0  0  0  0  0  0  0  0  0
   37.8880   28.9850   38.6850 H   0  0  0  0  0  0  0  0  0  0  0  0
   36.9120   27.1430   41.1980 C   0  0  0  0  0  0  0  0  0  0  0  0
   36.5340   26.8630   39.9220 C   0  0  0  0  0  0  0  0  0  0  0  0
   36.4810   25.4850   39.7010 C   0  0  0  0  0  0  0  0  0  0  0  0
   36.1950   25.0790   38.7320 H   0  0  0  0  0  0  0  0  0  0  0  0
   36.7690   24.5260   40.6300 C   0  0  0  0  0  0  0  0  0  0  0  0
   36.7130   23.4700   40.4080 H   0  0  0  0  0  0  0  0  0  0  0  0
   37.1460   24.8870   41.9000 C   0  0  0  0  0  3  0  0  0  0  0  0
   37.2120   26.2150   42.1670 C   0  0  0  0  0  3  0  0  0  0  0  0
   36.9880   29.6160   41.9440 N   0  0  0  0  0  0  0  0  0  0  0  0
   36.9570   28.5040   41.6200 C   0  0  0  0  0  0  0  0  0  0  0  0
   37.4330   30.8050   36.5780 S   0  0  0  0  0  0  0  0  0  0  0  0
   37.1790   32.4530   38.6910 C   0  0  0  0  0  0  0  0  0  0  0  0
   38.1010   31.7970   37.8900 C   0  0  0  0  0  0  0  0  0  0  0  0
   39.4460   31.9320   38.1280 C   0  0  0  0  0  0  0  0  0  0  0  0
   39.9330   32.7140   39.1600 C   0  0  0  0  0  0  0  0  0  0  0  0
   38.9950   33.3810   39.9730 C   0  0  0  0  0  0  0  0  0  0  0  0
   37.6410   33.2500   39.7400 C   0  0  0  0  0  0  0  0  0  0  0  0
   39.7190   34.1010   40.9360 O   0  0  0  0  0  0  0  0  0  0  0  0
   41.0490   34.1610   40.4560 C   0  0  0  0  0  0  0  0  0  0  0  0
   41.2120   33.0270   39.6240 O   0  0  0  0  0  0  0  0  0  0  0  0
   36.1060   32.4010   38.5720 H   0  0  0  0  0  0  0  0  0  0  0  0
   40.1490   31.4030   37.4800 H   0  0  0  0  0  0  0  0  0  0  0  0
   36.9250   33.7700   40.3760 H   0  0  0  0  0  0  0  0  0  0  0  0
   41.2670   35.0490   39.8600 H   0  0  0  0  0  0  0  0  0  0  0  0
   41.7700   34.1320   41.2940 H   0  0  0  0  0  0  0  0  0  0  0  0
   33.2500   27.9560   36.6680 O   0  0  0  0  0  0  0  0  0  0  0  0
   32.2510   28.9290   36.7320 C   0  0  0  0  0  0  0  0  0  0  0  0
   32.4560   29.9710   35.8820 F   0  0  0  0  0  0  0  0  0  0  0  0
   31.0480   28.2370   36.4890 F   0  0  0  0  0  0  0  0  0  0  0  0
   32.2520   29.4290   38.0340 F   0  0  0  0  0  0  0  0  0  0  0  0
  1  2  1  0  0  0  0
  2  7  1  0  0  0  0
  2  3  2  0  0  0  0
  3  9  1  0  0  0  0
  4  3  1  0  0  0  0
  5  4  2  0  0  0  0
  6  1  2  0  0  0  0
  6  5  1  0  0  0  0
  8 17  1  0  0  0  0
  8 15  1  0  0  0  0
  9  8  2  0  0  0  0
 10  9  1  0  0  0  0
 10 12  2  0  0  0  0
 11 10  1  0  0  0  0
 12 14  1  0  0  0  0
 13 12  1  0  0  0  0
 14 15  2  0  0  0  0
 17 16  3  0  0  0  0
 18  1  1  0  0  0  0
 18 20  1  0  0  0  0
 19 24  1  0  0  0  0
 20 21  1  0  0  0  0
 20 19  2  0  0  0  0
 21 22  2  0  0  0  0
 22 27  1  0  0  0  0
 22 23  1  0  0  0  0
 23 25  1  0  0  0  0
 24 23  2  0  0  0  0
 24 30  1  0  0  0  0
 26 25  1  0  0  0  0
 26 32  1  0  0  0  0
 27 26  1  0  0  0  0
 28 19  1  0  0  0  0
 29 21  1  0  0  0  0
 31 26  1  0  0  0  0
 33 34  1  0  0  0  0
 33  5  1  0  0  0  0
 34 37  1  0  0  0  0
 35 34  1  0  0  0  0
 36 34  1  0  0  0  0
M  END
>  <minimizedAffinity>
-5.73367214

$$$$

 OpenBabel03242515413D

 37 40  0  0  0  0  0  0  0  0999 V2000
   37.5820   29.9560   41.5770 C   0  0  0  0  0  0  0  0  0  0  0  0
   38.6480   30.8130   41.4450 C   0  0  0  0  0  0  0  0  0  0  0  0
   39.8410   30.4850   42.0850 C   0  0  0  0  0  0  0  0  0  0  0  0
   39.8650   29.3240   42.7990 N   0  0  0  0  0  0  0  0  0  0  0  0
   38.8090   28.5080   42.9070 C   0  0  0  0  0  0  0  0  0  0  0  0
   37.6960   28.8490   42.2920 N   0  0  0  0  0  0  0  0  0  0  0  0
   38.5970   31.6900   40.8610 H   0  0  0  0  0  0  0  0  0  0  0  0
   41.5980   32.0320   41.1170 C   0  0  0  0  0  0  0  0  0  0  0  0
   41.0840   31.1980   42.0590 C   0  0  0  0  0  0  0  0  0  0  0  0
   41.9410   31.0860   43.1570 C   0  0  0  0  0  0  0  0  0  0  0  0
   41.6870   30.4570   44.0090 H   0  0  0  0  0  0  0  0  0  0  0  0
   43.1430   31.7200   43.2860 C   0  0  0  0  0  0  0  0  0  0  0  0
   43.7700   31.6000   44.1570 H   0  0  0  0  0  0  0  0  0  0  0  0
   43.5970   32.5480   42.2890 C   0  0  0  0  0  3  0  0  0  0  0  0
   42.8010   32.6920   41.2000 C   0  0  0  0  0  3  0  0  0  0  0  0
   40.1840   32.5300   39.0120 N   0  0  0  0  0  0  0  0  0  0  0  0
   40.8260   32.3140   39.9530 C   0  0  0  0  0  0  0  0  0  0  0  0
   36.0640   30.4530   40.7250 S   0  0  0  0  0  0  0  0  0  0  0  0
   37.1160   30.7930   38.2710 C   0  0  0  0  0  0  0  0  0  0  0  0
   36.1620   30.0890   38.9900 C   0  0  0  0  0  0  0  0  0  0  0  0
   35.3580   29.1720   38.3620 C   0  0  0  0  0  0  0  0  0  0  0  0
   35.4600   28.9130   37.0070 C   0  0  0  0  0  0  0  0  0  0  0  0
   36.4290   29.6290   36.2770 C   0  0  0  0  0  0  0  0  0  0  0  0
   37.2420   30.5530   36.9010 C   0  0  0  0  0  0  0  0  0  0  0  0
   36.3430   29.2010   34.9430 O   0  0  0  0  0  0  0  0  0  0  0  0
   35.0990   28.5370   34.8280 C   0  0  0  0  0  0  0  0  0  0  0  0
   34.7930   28.0590   36.1260 O   0  0  0  0  0  0  0  0  0  0  0  0
   37.7870   31.5300   38.6870 H   0  0  0  0  0  0  0  0  0  0  0  0
   34.6150   28.6320   38.9550 H   0  0  0  0  0  0  0  0  0  0  0  0
   37.9880   31.1010   36.3260 H   0  0  0  0  0  0  0  0  0  0  0  0
   34.2790   29.1820   34.5060 H   0  0  0  0  0  0  0  0  0  0  0  0
   35.1670   27.6960   34.1130 H   0  0  0  0  0  0  0  0  0  0  0  0
   38.8060   27.3320   43.6200 O   0  0  0  0  0  0  0  0  0  0  0  0
   38.9800   26.1160   42.9580 C   0  0  0  0  0  0  0  0  0  0  0  0
   39.6880   25.2040   43.6800 F   0  0  0  0  0  0  0  0  0  0  0  0
   37.6800   25.6840   42.6330 F   0  0  0  0  0  0  0  0  0  0  0  0
   39.6930   26.3860   41.7910 F   0  0  0  0  0  0  0  0  0  0  0  0
  1  6  1  0  0  0  0
  2  1  2  0  0  0  0
  2  3  1  0  0  0  0
  3  4  2  0  0  0  0
  4  5  1  0  0  0  0
  5 33  1  0  0  0  0
  6  5  2  0  0  0  0
  7  2  1  0  0  0  0
  8 15  2  0  0  0  0
  8  9  1  0  0  0  0
  9  3  1  0  0  0  0
  9 10  2  0  0  0  0
 10 12  1  0  0  0  0
 10 11  1  0  0  0  0
 12 13  1  0  0  0  0
 14 12  2  0  0  0  0
 15 14  1  0  0  0  0
 16 17  3  0  0  0  0
 17  8  1  0  0  0  0
 18  1  1  0  0  0  0
 19 28  1  0  0  0  0
 19 20  1  0  0  0  0
 20 18  1  0  0  0  0
 21 29  1  0  0  0  0
 21 20  2  0  0  0  0
 22 21  1  0  0  0  0
 23 24  1  0  0  0  0
 23 22  2  0  0  0  0
 24 19  2  0  0  0  0
 25 23  1  0  0  0  0
 26 25  1  0  0  0  0
 26 27  1  0  0  0  0
 27 22  1  0  0  0  0
 30 24  1  0  0  0  0
 31 26  1  0  0  0  0
 32 26  1  0  0  0  0
 34 33  1  0  0  0  0
 34 35  1  0  0  0  0
 36 34  1  0  0  0  0
 37 34  1  0  0  0  0
M  END
>  <minimizedAffinity>
-5.55903912

$$$$
