REMARK  Name = 
REMARK  5 active torsions:
REMARK  status: ('A' for Active; 'I' for Inactive)
REMARK    1  A    between atoms: C_1  and  C_12
REMARK    2  A    between atoms: C_15  and  C_18
REMARK    3  A    between atoms: C_18  and  C_19
REMARK    4  A    between atoms: C_19  and  C_36
REMARK    5  A    between atoms: C_34  and  C_35
REMARK                            x       y       z     vdW  Elec       q    Type
REMARK                         _______ _______ _______ _____ _____    ______ ____
ROOT
ATOM      1  C   UNL     1      45.391  35.239  43.850  0.00  0.00    +0.000 A 
ATOM      2  C   UNL     1      46.445  34.423  43.420  0.00  0.00    +0.000 A 
ATOM      3  C   UNL     1      46.936  33.410  44.293  0.00  0.00    +0.000 A 
ATOM      4  N   UNL     1      46.340  33.300  45.505  0.00  0.00    +0.000 NA
ATOM      5  C   UNL     1      45.328  34.097  45.896  0.00  0.00    +0.000 A 
ATOM      6  N   UNL     1      44.875  35.042  45.072  0.00  0.00    +0.000 NA
ATOM      7  N   UNL     1      44.910  36.239  42.985  0.00  0.00    +0.000 N 
ATOM      8  H   UNL     1      47.744  32.772  43.986  0.00  0.00    +0.000 HD
ATOM      9  H   UNL     1      45.619  36.803  42.461  0.00  0.00    +0.000 HD
ATOM     10  H   UNL     1      43.877  36.366  42.910  0.00  0.00    +0.000 HD
ENDROOT
BRANCH   2  11
ATOM     11  C   UNL     1      47.069  34.555  42.123  0.00  0.00    +0.000 A 
ATOM     12  C   UNL     1      48.169  35.304  41.777  0.00  0.00    +0.000 A 
ATOM     13  C   UNL     1      48.639  35.322  40.479  0.00  0.00    +0.000 A 
ATOM     14  C   UNL     1      48.020  34.580  39.465  0.00  0.00    +0.000 A 
ATOM     15  N   UNL     1      48.554  34.665  38.243  0.00  0.00    +0.000 NA
ATOM     16  C   UNL     1      47.961  33.944  37.234  0.00  0.00    +0.000 A 
ATOM     17  C   UNL     1      46.849  33.181  37.562  0.00  0.00    +0.000 A 
ATOM     18  C   UNL     1      46.312  33.103  38.824  0.00  0.00    +0.000 A 
ATOM     19  C   UNL     1      46.917  33.831  39.824  0.00  0.00    +0.000 A 
ATOM     20  C   UNL     1      46.434  33.806  41.127  0.00  0.00    +0.000 A 
ATOM     21  H   UNL     1      48.614  35.859  42.592  0.00  0.00    +0.000 HD
ATOM     22  H   UNL     1      49.506  35.922  40.241  0.00  0.00    +0.000 HD
ATOM     23  H   UNL     1      48.335  33.962  36.219  0.00  0.00    +0.000 HD
ATOM     24  H   UNL     1      46.348  32.596  36.797  0.00  0.00    +0.000 HD
ATOM     25  H   UNL     1      45.440  32.497  39.051  0.00  0.00    +0.000 HD
ATOM     26  H   UNL     1      45.566  33.184  41.283  0.00  0.00    +0.000 HD
ENDBRANCH   2  11
BRANCH   5  27
ATOM     27  C   UNL     1      44.741  33.889  47.259  0.00  0.00    +0.000 C 
ATOM     28  H   UNL     1      45.170  34.708  47.892  0.00  0.00    +0.000 HD
ATOM     29  H   UNL     1      43.654  33.858  47.273  0.00  0.00    +0.000 HD
BRANCH  27  30
ATOM     30  C   UNL     1      45.335  32.593  47.850  0.00  0.00    +0.000 C 
ATOM     31  H   UNL     1      46.435  32.727  47.993  0.00  0.00    +0.000 HD
ATOM     32  H   UNL     1      45.087  31.754  47.203  0.00  0.00    +0.000 HD
BRANCH  30  34
ATOM     33  C   UNL     1      45.113  33.138  50.307  0.00  0.00    +0.000 A 
ATOM     34  C   UNL     1      44.734  32.411  49.200  0.00  0.00    +0.000 A 
ATOM     35  C   UNL     1      43.739  31.466  49.378  0.00  0.00    +0.000 A 
ATOM     36  H   UNL     1      43.440  30.889  48.496  0.00  0.00    +0.000 HD
ATOM     37  C   UNL     1      43.087  31.177  50.556  0.00  0.00    +0.000 A 
ATOM     38  H   UNL     1      42.321  30.414  50.576  0.00  0.00    +0.000 HD
ATOM     39  C   UNL     1      43.495  31.926  51.640  0.00  0.00    +0.000 A 
ATOM     40  C   UNL     1      44.488  32.892  51.535  0.00  0.00    +0.000 A 
BRANCH  33  42
ATOM     41  N   UNL     1      46.963  34.940  50.041  0.00  0.00    +0.000 NA
ATOM     42  C   UNL     1      46.142  34.126  50.161  0.00  0.00    +0.000 C 
ENDBRANCH  33  42
ENDBRANCH  30  34
ENDBRANCH  27  30
ENDBRANCH   5  27
TORSDOF 5
