
 OpenBabel03242519033D

 33 35  0  0  1  0  0  0  0  0999 V2000
   47.5250   34.0090   42.2360 N   0  0  0  0  0  0  0  0  0  0  0  0
   48.3780   34.2000   41.0790 C   0  0  0  0  0  0  0  0  0  0  0  0
   48.7690   32.7740   40.8390 C   0  0  2  0  0  0  0  0  0  0  0  0
   49.1920   32.3430   42.2290 C   0  0  0  0  0  0  0  0  0  0  0  0
   48.2200   33.0860   43.1090 C   0  0  0  0  0  0  0  0  0  0  0  0
   47.7470   34.5700   40.2720 H   0  0  0  0  0  0  0  0  0  0  0  0
   49.2540   34.8300   41.2960 H   0  0  0  0  0  0  0  0  0  0  0  0
   47.8880   32.1950   40.4830 H   0  0  0  0  0  0  0  0  0  0  0  0
   49.2060   31.2570   42.3700 H   0  0  0  0  0  0  0  0  0  0  0  0
   50.2040   32.8130   42.3810 H   0  0  0  0  0  0  0  0  0  0  0  0
   48.6750   33.5580   43.9960 H   0  0  0  0  0  0  0  0  0  0  0  0
   47.4370   32.3280   43.4040 H   0  0  0  0  0  0  0  0  0  0  0  0
   44.0700   35.3970   42.0330 C   0  0  0  0  0  0  0  0  0  0  0  0
   45.2810   34.8550   41.6110 C   0  0  0  0  0  0  0  0  0  0  0  0
   46.2670   34.5570   42.5420 C   0  0  0  0  0  0  0  0  0  0  0  0
   45.9810   34.8210   43.8530 N   0  0  0  0  0  0  0  0  0  0  0  0
   44.8150   35.3440   44.2660 C   0  0  0  0  0  0  0  0  0  0  0  0
   43.8550   35.6320   43.3520 N   0  0  0  0  0  0  0  0  0  0  0  0
   43.2870   35.6360   41.3200 H   0  0  0  0  0  0  0  0  0  0  0  0
   45.4870   34.6550   40.5840 H   0  0  0  0  0  0  0  0  0  0  0  0
   44.7170   35.5030   45.3270 H   0  0  0  0  0  0  0  0  0  0  0  0
   49.9070   32.6380   39.9750 N   0  0  0  0  0  0  0  0  0  0  0  0
   50.8060   33.1400   40.2490 H   0  0  0  0  0  0  0  0  0  0  0  0
   50.9850   30.8600   38.6000 C   0  0  0  0  0  0  0  0  0  0  0  0
   50.1040   31.9350   38.7640 C   0  0  0  0  0  0  0  0  0  0  0  0
   49.4110   32.2550   37.6170 C   0  0  0  0  0  0  0  0  0  0  0  0
   48.6850   33.0500   37.5680 H   0  0  0  0  0  0  0  0  0  0  0  0
   49.5290   31.6210   36.4050 C   0  0  0  0  0  0  0  0  0  0  0  0
   48.9900   31.8680   35.5100 H   0  0  0  0  0  0  0  0  0  0  0  0
   50.4040   30.5730   36.2880 C   0  0  0  0  0  3  0  0  0  0  0  0
   51.1250   30.2080   37.4030 C   0  0  0  0  0  3  0  0  0  0  0  0
   52.3680   30.1110   40.6920 N   0  0  0  0  0  0  0  0  0  0  0  0
   51.7590   30.4530   39.7610 C   0  0  0  0  0  0  0  0  0  0  0  0
  1 15  1  0  0  0  0
  1  5  1  0  0  0  0
  2  7  1  0  0  0  0
  2  1  1  0  0  0  0
  3  8  1  6  0  0  0
  3  2  1  0  0  0  0
  3  4  1  0  0  0  0
  4  9  1  0  0  0  0
  4 10  1  0  0  0  0
  4  5  1  0  0  0  0
  5 12  1  0  0  0  0
  5 11  1  0  0  0  0
  6  2  1  0  0  0  0
 13 18  1  0  0  0  0
 14 13  2  0  0  0  0
 14 15  1  0  0  0  0
 15 16  2  0  0  0  0
 16 17  1  0  0  0  0
 17 21  1  0  0  0  0
 18 17  2  0  0  0  0
 19 13  1  0  0  0  0
 20 14  1  0  0  0  0
 22 23  1  0  0  0  0
 22  3  1  0  0  0  0
 24 25  1  0  0  0  0
 24 33  1  0  0  0  0
 25 22  1  0  0  0  0
 26 25  2  0  0  0  0
 27 26  1  0  0  0  0
 28 26  1  0  0  0  0
 29 28  1  0  0  0  0
 30 28  2  0  0  0  0
 30 31  1  0  0  0  0
 31 24  2  0  0  0  0
 33 32  3  0  0  0  0
M  END
>  <minimizedAffinity>
-3.71654344

>  <minimizedRMSD>
4.57291555

$$$$
