
 OpenBabel03242513413D

 41 44  0  0  0  0  0  0  0  0999 V2000
   47.7000   31.0180   45.9970 C   0  0  0  0  0  0  0  0  0  0  0  0
   46.9610   32.0640   45.4810 C   0  0  0  0  0  0  0  0  0  0  0  0
   45.9240   32.5440   46.2270 C   0  0  0  0  0  0  0  0  0  0  0  0
   45.5910   32.0250   47.4700 C   0  0  0  0  0  0  0  0  0  0  0  0
   44.6670   32.2550   48.4300 N   0  0  0  0  0  0  0  0  0  0  0  0
   44.8320   31.4070   49.4610 C   0  0  0  0  0  0  0  0  0  0  0  0
   45.8820   30.6350   49.1330 N   0  0  0  0  0  0  0  0  0  0  0  0
   46.3590   30.9940   47.9240 C   0  0  0  0  0  0  0  0  0  0  0  0
   47.4050   30.4670   47.2370 C   0  0  0  0  0  0  0  0  0  0  0  0
   48.5290   30.6090   45.4390 H   0  0  0  0  0  0  0  0  0  0  0  0
   45.3060   33.3690   45.8670 H   0  0  0  0  0  0  0  0  0  0  0  0
   43.9390   33.0170   48.3190 H   0  0  0  0  0  0  0  0  0  0  0  0
   44.2370   31.3810   50.3390 H   0  0  0  0  0  0  0  0  0  0  0  0
   47.2190   34.3910   42.6660 C   0  0  0  0  0  0  0  0  0  0  0  0
   47.9150   33.6610   41.7150 C   0  0  0  0  0  0  0  0  0  0  0  0
   48.2870   32.3580   42.0720 C   0  0  0  0  0  0  0  0  0  0  0  0
   47.9670   31.8660   43.2930 N   0  0  0  0  0  0  0  0  0  0  0  0
   47.2850   32.6320   44.1760 C   0  0  0  0  0  0  0  0  0  0  0  0
   46.9110   33.8730   43.8850 N   0  0  0  0  0  0  0  0  0  0  0  0
   46.8900   35.4130   42.4750 H   0  0  0  0  0  0  0  0  0  0  0  0
   48.8310   31.7780   41.3370 H   0  0  0  0  0  0  0  0  0  0  0  0
   48.2170   34.2880   40.4060 C   0  0  0  0  0  0  0  0  0  0  0  0
   48.7680   35.5160   40.7260 F   0  0  0  0  0  0  0  0  0  0  0  0
   47.0350   34.4800   39.7420 F   0  0  0  0  0  0  0  0  0  0  0  0
   49.0790   33.4550   39.7090 F   0  0  0  0  0  0  0  0  0  0  0  0
   48.1450   29.4210   47.7540 O   0  0  0  0  0  0  0  0  0  0  0  0
   49.7980   28.1780   49.3200 O   0  0  0  0  0  0  0  0  0  0  0  0
   49.4240   29.5740   48.8480 P   0  0  2  0  0  0  0  0  0  0  0  0
   48.8280   30.4060   50.2160 O   0  0  0  0  0  0  0  0  0  0  0  0
   49.5410   30.3820   50.9200 H   0  0  0  0  0  0  0  0  0  0  0  0
   50.7590   30.3520   48.2300 O   0  0  0  0  0  0  0  0  0  0  0  0
   52.2590   29.1100   46.8650 C   0  0  0  0  0  0  0  0  0  0  0  0
   51.9810   29.7400   48.0830 C   0  0  0  0  0  0  0  0  0  0  0  0
   52.9810   29.6840   49.0320 C   0  0  0  0  0  0  0  0  0  0  0  0
   52.8000   30.1520   49.9670 H   0  0  0  0  0  0  0  0  0  0  0  0
   54.1900   29.0620   48.8500 C   0  0  0  0  0  0  0  0  0  0  0  0
   54.9400   29.0550   49.6490 H   0  0  0  0  0  0  0  0  0  0  0  0
   54.4230   28.4480   47.6230 C   0  0  0  0  0  3  0  0  0  0  0  0
   53.4600   28.4730   46.6370 C   0  0  0  0  0  3  0  0  0  0  0  0
   50.5520   29.0510   44.9060 N   0  0  0  0  0  0  0  0  0  0  0  0
   51.3210   29.0790   45.7730 C   0  0  0  0  0  0  0  0  0  0  0  0
  1  9  1  0  0  0  0
  2  1  2  0  0  0  0
  2  3  1  0  0  0  0
  3  4  2  0  0  0  0
  4  8  1  0  0  0  0
  4  5  1  0  0  0  0
  5  6  1  0  0  0  0
  6 13  1  0  0  0  0
  7  6  2  0  0  0  0
  8  7  1  0  0  0  0
  9 26  1  0  0  0  0
  9  8  2  0  0  0  0
 10  1  1  0  0  0  0
 11  3  1  0  0  0  0
 12  5  1  0  0  0  0
 14 19  1  0  0  0  0
 15 16  1  0  0  0  0
 15 14  2  0  0  0  0
 16 17  2  0  0  0  0
 17 18  1  0  0  0  0
 18  2  1  0  0  0  0
 19 18  2  0  0  0  0
 20 14  1  0  0  0  0
 21 16  1  0  0  0  0
 22 23  1  0  0  0  0
 22 15  1  0  0  0  0
 24 22  1  0  0  0  0
 25 22  1  0  0  0  0
 26 28  1  0  0  0  0
 28 27  2  1  0  0  0
 28 29  1  0  0  0  0
 29 30  1  0  0  0  0
 31 28  1  0  0  0  0
 32 33  1  0  0  0  0
 33 31  1  0  0  0  0
 33 34  2  0  0  0  0
 34 35  1  0  0  0  0
 36 34  1  0  0  0  0
 36 37  1  0  0  0  0
 38 36  2  0  0  0  0
 39 32  2  0  0  0  0
 39 38  1  0  0  0  0
 40 41  3  0  0  0  0
 41 32  1  0  0  0  0
M  END
>  <minimizedAffinity>
-5.4663353

>  <minimizedRMSD>
0.936041892

$$$$
