
 OpenBabel03242519243D

 41 44  0  0  0  0  0  0  0  0999 V2000
   47.9090   33.7890   42.8900 C   0  0  0  0  0  0  0  0  0  0  0  0
   48.5810   35.0030   42.6570 C   0  0  0  0  0  0  0  0  0  0  0  0
   49.9490   35.0000   42.3400 C   0  0  0  0  0  0  0  0  0  0  0  0
   50.5480   33.7680   42.2790 N   0  0  0  0  0  0  0  0  0  0  0  0
   49.8630   32.6060   42.5120 C   0  0  0  0  0  0  0  0  0  0  0  0
   48.5720   32.6330   42.8100 N   0  0  0  0  0  0  0  0  0  0  0  0
   48.1910   36.0060   42.6830 H   0  0  0  0  0  0  0  0  0  0  0  0
   50.5260   35.8800   42.1490 H   0  0  0  0  0  0  0  0  0  0  0  0
   46.4780   33.9180   43.2200 C   0  0  0  0  0  0  0  0  0  0  0  0
   45.7730   34.9250   42.4280 C   0  0  0  0  0  0  0  0  0  0  0  0
   45.3270   36.1120   43.2030 C   0  0  0  0  0  0  0  0  0  0  0  0
   44.5190   35.7560   44.4380 C   0  0  0  0  0  0  0  0  0  0  0  0
   44.9800   34.4960   45.1320 C   0  0  0  0  0  0  0  0  0  0  0  0
   46.4070   34.1630   44.7380 C   0  0  0  0  0  0  0  0  0  0  0  0
   46.0200   32.8910   43.1070 H   0  0  0  0  0  0  0  0  0  0  0  0
   46.3390   35.2790   41.5600 H   0  0  0  0  0  0  0  0  0  0  0  0
   44.8440   34.4590   41.9870 H   0  0  0  0  0  0  0  0  0  0  0  0
   44.6040   36.6770   42.5440 H   0  0  0  0  0  0  0  0  0  0  0  0
   46.0820   36.8400   43.4880 H   0  0  0  0  0  0  0  0  0  0  0  0
   43.4230   35.7170   44.2060 H   0  0  0  0  0  0  0  0  0  0  0  0
   44.6220   36.5700   45.1860 H   0  0  0  0  0  0  0  0  0  0  0  0
   44.3180   33.6490   44.8060 H   0  0  0  0  0  0  0  0  0  0  0  0
   44.9260   34.5350   46.2260 H   0  0  0  0  0  0  0  0  0  0  0  0
   47.0620   35.0230   44.9310 H   0  0  0  0  0  0  0  0  0  0  0  0
   46.7310   33.2550   45.2630 H   0  0  0  0  0  0  0  0  0  0  0  0
   50.6640   31.3870   42.4120 C   0  0  0  0  0  0  0  0  0  0  0  0
   51.5490   31.3100   41.3930 N   0  0  0  0  0  0  0  0  0  0  0  0
   52.1960   30.1360   41.4540 C   0  0  0  0  0  0  0  0  0  0  0  0
   51.6970   29.4780   42.5360 N   0  0  0  0  0  0  0  0  0  0  0  0
   50.7570   30.2410   43.1270 N   0  0  0  0  0  0  0  0  0  0  0  0
   52.9700   29.7160   40.8180 H   0  0  0  0  0  0  0  0  0  0  0  0
   52.9610   27.9290   44.0480 C   0  0  0  0  0  0  0  0  0  0  0  0
   52.0110   28.1990   43.0810 C   0  0  0  0  0  0  0  0  0  0  0  0
   51.2460   27.1580   42.5420 C   0  0  0  0  0  0  0  0  0  0  0  0
   50.4780   27.3150   41.7730 H   0  0  0  0  0  0  0  0  0  0  0  0
   51.4150   25.8490   42.9540 C   0  0  0  0  0  0  0  0  0  0  0  0
   50.8150   25.0550   42.5250 H   0  0  0  0  0  0  0  0  0  0  0  0
   52.3800   25.6190   43.9270 C   0  0  0  0  0  3  0  0  0  0  0  0
   53.1490   26.6260   44.4760 C   0  0  0  0  0  3  0  0  0  0  0  0
   54.2920   29.9450   44.9670 N   0  0  0  0  0  0  0  0  0  0  0  0
   53.6900   29.0360   44.5410 C   0  0  0  0  0  0  0  0  0  0  0  0
  1  9  1  0  0  0  0
  2  7  1  0  0  0  0
  2  1  2  0  0  0  0
  3  2  1  0  0  0  0
  4  3  2  0  0  0  0
  4  5  1  0  0  0  0
  5  6  2  0  0  0  0
  6  1  1  0  0  0  0
  8  3  1  0  0  0  0
  9 14  1  0  0  0  0
 10 11  1  0  0  0  0
 10  9  1  0  0  0  0
 11 19  1  0  0  0  0
 11 12  1  0  0  0  0
 12 13  1  0  0  0  0
 12 21  1  0  0  0  0
 13 23  1  0  0  0  0
 14 24  1  0  0  0  0
 14 13  1  0  0  0  0
 14 25  1  0  0  0  0
 15  9  1  0  0  0  0
 16 10  1  0  0  0  0
 17 10  1  0  0  0  0
 18 11  1  0  0  0  0
 20 12  1  0  0  0  0
 22 13  1  0  0  0  0
 26  5  1  0  0  0  0
 26 30  2  0  0  0  0
 27 28  2  0  0  0  0
 27 26  1  0  0  0  0
 28 29  1  0  0  0  0
 29 33  1  0  0  0  0
 29 30  1  0  0  0  0
 31 28  1  0  0  0  0
 32 39  1  0  0  0  0
 32 41  1  0  0  0  0
 33 32  2  0  0  0  0
 34 36  2  0  0  0  0
 34 33  1  0  0  0  0
 35 34  1  0  0  0  0
 36 38  1  0  0  0  0
 37 36  1  0  0  0  0
 38 39  2  0  0  0  0
 41 40  3  0  0  0  0
M  END
>  <minimizedAffinity>
-4.18942881

>  <minimizedRMSD>
0.580602586

$$$$
