
 OpenBabel03252507463D

 38 40  0  0  0  0  0  0  0  0999 V2000
   47.0590   34.0610   41.0070 C   0  0  0  0  0  0  0  0  0  0  0  0
   47.1220   34.5280   39.9970 H   0  0  0  0  0  0  0  0  0  0  0  0
   46.4790   33.1150   41.0110 H   0  0  0  0  0  0  0  0  0  0  0  0
   48.4380   33.8820   41.4730 C   0  0  0  0  0  0  0  0  0  0  0  0
   49.0600   32.7040   41.0870 C   0  0  0  0  0  0  0  0  0  0  0  0
   50.3720   32.4350   41.4930 C   0  0  0  0  0  0  0  0  0  0  0  0
   50.9950   33.3710   42.2720 N   0  0  0  0  0  0  0  0  0  0  0  0
   50.3460   34.5090   42.6230 C   0  0  0  0  0  0  0  0  0  0  0  0
   49.0990   34.7380   42.2230 N   0  0  0  0  0  0  0  0  0  0  0  0
   50.8220   31.5120   41.1760 H   0  0  0  0  0  0  0  0  0  0  0  0
   50.8170   35.2620   43.2370 H   0  0  0  0  0  0  0  0  0  0  0  0
   48.2180   31.4760   40.0760 S   0  0  0  0  0  0  0  0  0  0  0  0
   49.2690   31.9330   37.4340 C   0  0  0  0  0  0  0  0  0  0  0  0
   48.2460   31.9160   38.3520 C   0  0  0  0  0  0  0  0  0  0  0  0
   46.9740   32.3120   37.9190 C   0  0  0  0  0  0  0  0  0  0  0  0
   46.0540   32.3610   38.5070 H   0  0  0  0  0  0  0  0  0  0  0  0
   46.7350   32.7130   36.6070 C   0  0  0  0  0  0  0  0  0  0  0  0
   45.7930   33.0240   36.2180 H   0  0  0  0  0  0  0  0  0  0  0  0
   47.7920   32.7200   35.6940 C   0  0  0  0  0  3  0  0  0  0  0  0
   49.0250   32.3280   36.1430 C   0  0  0  0  0  3  0  0  0  0  0  0
   51.5660   31.2310   38.3700 N   0  0  0  0  0  0  0  0  0  0  0  0
   50.5260   31.5380   37.9540 C   0  0  0  0  0  0  0  0  0  0  0  0
   46.2660   35.0230   41.8530 C   0  0  0  0  0  0  0  0  0  0  0  0
   46.6070   36.0650   41.6600 H   0  0  0  0  0  0  0  0  0  0  0  0
   46.4500   34.8370   42.9380 H   0  0  0  0  0  0  0  0  0  0  0  0
   44.7930   34.9390   41.6500 C   0  0  0  0  0  0  0  0  0  0  0  0
   43.9150   35.3580   42.6970 C   0  0  0  0  0  0  0  0  0  0  0  0
   42.2510   35.0660   41.9790 S   0  0  0  0  0  0  0  0  0  0  0  0
   43.0350   34.4190   40.3660 C   0  0  0  0  0  0  0  0  0  0  0  0
   44.1470   34.5150   40.5990 N   0  0  0  0  0  0  0  0  0  0  0  0
   44.2000   35.7500   43.6700 H   0  0  0  0  0  0  0  0  0  0  0  0
   42.2820   33.9790   39.2770 O   0  0  0  0  0  0  0  0  0  0  0  0
   40.3430   34.5050   37.5540 O   0  0  0  0  0  0  0  0  0  0  0  0
   41.4470   35.1470   38.3790 P   0  0  0  0  0  0  0  0  0  0  0  0
   40.7520   36.2390   39.4620 O   0  0  0  0  0  0  0  0  0  0  0  0
   39.9310   35.8020   39.8160 H   0  0  0  0  0  0  0  0  0  0  0  0
   42.5400   35.9920   37.3900 O   0  0  0  0  0  0  0  0  0  0  0  0
   42.8530   35.4200   36.6460 H   0  0  0  0  0  0  0  0  0  0  0  0
  1  3  1  0  0  0  0
  1  4  1  0  0  0  0
  1 23  1  0  0  0  0
  2  1  1  0  0  0  0
  4  9  1  0  0  0  0
  5  4  2  0  0  0  0
  5  6  1  0  0  0  0
  6  7  2  0  0  0  0
  7  8  1  0  0  0  0
  8 11  1  0  0  0  0
  9  8  2  0  0  0  0
 10  6  1  0  0  0  0
 12  5  1  0  0  0  0
 13 22  1  0  0  0  0
 13 14  1  0  0  0  0
 14 12  1  0  0  0  0
 15 14  2  0  0  0  0
 15 16  1  0  0  0  0
 17 15  1  0  0  0  0
 18 17  1  0  0  0  0
 19 20  1  0  0  0  0
 19 17  2  0  0  0  0
 20 13  2  0  0  0  0
 22 21  3  0  0  0  0
 23 25  1  0  0  0  0
 24 23  1  0  0  0  0
 26 23  1  0  0  0  0
 26 27  2  0  0  0  0
 27 31  1  0  0  0  0
 28 27  1  0  0  0  0
 29 30  2  0  0  0  0
 29 28  1  0  0  0  0
 30 26  1  0  0  0  0
 32 29  1  0  0  0  0
 33 34  2  0  0  0  0
 34 32  1  0  0  0  0
 34 35  1  0  0  0  0
 35 36  1  0  0  0  0
 37 34  1  0  0  0  0
 38 37  1  0  0  0  0
M  END
>  <minimizedAffinity>
-4.83573198

>  <minimizedRMSD>
0.489005297

$$$$
