
     RDKit          3D

 31 33  0  0  0  0  0  0  0  0999 V2000
   47.4553   33.2653   41.3718 C   0  0  1  0  0  0  0  0  0  0  0  0
   47.1338   34.1187   40.2487 C   0  0  0  0  0  0  0  0  0  0  0  0
   48.4543   34.3152   40.8948 C   0  0  1  0  0  0  0  0  0  0  0  0
   45.5422   34.1387   42.8079 C   0  0  0  0  0  0  0  0  0  0  0  0
   46.8105   33.4786   42.7077 C   0  0  0  0  0  0  0  0  0  0  0  0
   47.4299   33.0630   43.8716 C   0  0  0  0  0  0  0  0  0  0  0  0
   46.8010   33.3038   45.0589 N   0  0  0  0  0  0  0  0  0  0  0  0
   45.6238   33.9187   45.1262 C   0  0  0  0  0  0  0  0  0  0  0  0
   44.9941   34.3349   44.0113 N   0  0  0  0  0  0  0  0  0  0  0  0
   48.7501   35.5086   41.7271 C   0  0  0  0  0  0  0  0  0  0  0  0
   49.3812   36.5078   41.0051 F   0  0  0  0  0  0  0  0  0  0  0  0
   49.5307   35.2069   42.8303 F   0  0  0  0  0  0  0  0  0  0  0  0
   47.5519   36.0297   42.1657 F   0  0  0  0  0  0  0  0  0  0  0  0
   47.8493   32.2470   41.2439 H   0  0  0  0  0  0  0  0  0  0  0  0
   46.3798   34.9423   40.2980 H   0  0  0  0  0  0  0  0  0  0  0  0
   47.1057   33.6605   39.2158 H   0  0  0  0  0  0  0  0  0  0  0  0
   49.3286   33.9841   40.2774 H   0  0  0  0  0  0  0  0  0  0  0  0
   45.1011   34.4430   41.8684 H   0  0  0  0  0  0  0  0  0  0  0  0
   48.3861   32.5600   43.8574 H   0  0  0  0  0  0  0  0  0  0  0  0
   43.7084   36.9178   44.6327 N   0  0  0  0  0  0  0  0  0  0  0  0
   43.9191   36.1873   45.5058 C   0  0  0  0  0  0  0  0  0  0  0  0
   44.1646   35.2574   46.5932 C   0  0  0  0  0  0  0  0  0  0  0  0
   44.9836   34.1572   46.4300 C   0  0  0  0  0  0  0  0  0  0  0  0
   45.1925   33.2953   47.4890 C   0  0  0  0  0  0  0  0  0  0  0  0
   45.8266   32.4240   47.3995 H   0  0  0  0  0  0  0  0  0  0  0  0
   44.5950   33.5077   48.7254 C   0  0  0  0  0  0  0  0  0  0  0  0
   44.7610   32.8343   49.5446 H   0  0  0  0  0  0  0  0  0  0  0  0
   43.7802   34.6119   48.8691 C   0  0  0  0  0  0  0  0  0  0  0  0
   43.5537   35.4971   47.8144 C   0  0  0  0  0  0  0  0  0  0  0  0
   43.2749   34.8537   49.7968 H   0  0  0  0  0  0  0  0  0  0  0  0
   42.9180   36.3759   47.8940 H   0  0  0  0  0  0  0  0  0  0  0  0
  1  5  1  0
  2  3  1  0
  2  1  1  0
  3  1  1  0
  3 10  1  0
  4  9  2  0
  5  4  1  0
  5  6  2  0
  6  7  1  0
  7  8  2  0
  9  8  1  0
 10 13  1  0
 10 12  1  0
 11 10  1  0
  1 14  1  6
  2 15  1  0
  2 16  1  0
  3 17  1  6
  4 18  1  0
  6 19  1  0
 20 21  3  0
 21 22  1  0
 22 23  2  0
 23 24  1  0
 24 25  1  0
 24 26  2  0
 26 27  1  0
 26 28  1  0
 28 29  2  0
 29 22  1  0
 28 30  1  0
 29 31  1  0
  8 23  1  0
M  ISO  8  14  13  15  13  16  13  17  13  18  14  19  14  25  15  27  16
M  END
>  <DihAtoms>  (1) 
6,7,22,21

>  <DihDeg>  (1) 
0.0017589638659097013

$$$$
