
 OpenBabel03252509083D

 42 45  0  0  0  0  0  0  0  0999 V2000
   47.5560   31.8220   38.8580 C   0  0  0  0  0  0  0  0  0  0  0  0
   47.1560   33.1230   38.9230 C   0  0  0  0  0  0  0  0  0  0  0  0
   47.8330   34.0830   38.1910 C   0  0  0  0  0  0  0  0  0  0  0  0
   48.8980   33.7480   37.4030 C   0  0  0  0  0  0  0  0  0  0  0  0
   49.3410   32.4360   37.3060 C   0  0  0  0  0  0  0  0  0  0  0  0
   48.6470   31.4790   38.0500 C   0  0  0  0  0  0  0  0  0  0  0  0
   47.5310   35.1210   38.2270 H   0  0  0  0  0  0  0  0  0  0  0  0
   49.4560   34.4410   36.8180 H   0  0  0  0  0  0  0  0  0  0  0  0
   50.1550   32.0880   36.7210 H   0  0  0  0  0  0  0  0  0  0  0  0
   48.9630   30.4480   37.9990 H   0  0  0  0  0  0  0  0  0  0  0  0
   45.3790   35.3080   43.2520 Cl  0  0  0  0  0  0  0  0  0  0  0  0
   45.1900   34.5650   41.6820 C   0  0  0  0  0  0  0  0  0  0  0  0
   46.2680   34.1610   40.9630 C   0  0  0  0  0  0  0  0  0  0  0  0
   46.0290   33.5940   39.7230 C   0  0  0  0  0  0  0  0  0  0  0  0
   44.7670   33.4490   39.2410 C   0  0  0  0  0  0  0  0  0  0  0  0
   43.6870   33.8500   39.9550 C   0  0  0  0  0  0  0  0  0  0  0  0
   43.9130   34.4150   41.1920 C   0  0  0  0  0  0  0  0  0  0  0  0
   44.6290   32.9990   38.2570 H   0  0  0  0  0  0  0  0  0  0  0  0
   42.6910   33.7230   39.5470 H   0  0  0  0  0  0  0  0  0  0  0  0
   43.0370   34.7320   41.7550 H   0  0  0  0  0  0  0  0  0  0  0  0
   49.5810   35.7250   41.9280 C   0  0  0  0  0  0  0  0  0  0  0  0
   48.3000   35.5520   41.3950 C   0  0  0  0  0  0  0  0  0  0  0  0
   47.6090   34.3550   41.5140 C   0  0  0  0  0  0  0  0  0  0  0  0
   48.2680   33.3990   42.1740 N   0  0  0  0  0  0  0  0  0  0  0  0
   49.4940   33.5500   42.6880 C   0  0  0  0  0  0  0  0  0  0  0  0
   50.1470   34.7050   42.5670 N   0  0  0  0  0  0  0  0  0  0  0  0
   50.0860   36.6740   41.8110 H   0  0  0  0  0  0  0  0  0  0  0  0
   47.8450   36.3810   40.8770 H   0  0  0  0  0  0  0  0  0  0  0  0
   49.8170   32.6290   43.1780 H   0  0  0  0  0  0  0  0  0  0  0  0
   46.8220   30.6100   39.7820 S   0  0  0  0  0  0  0  0  0  0  0  0
   47.5410   29.2600   39.4410 O   0  0  0  0  0  0  0  0  0  0  0  0
   47.1840   30.8450   41.2190 O   0  0  0  0  0  0  0  0  0  0  0  0
   44.4760   29.3160   40.5410 C   0  0  0  0  0  0  0  0  0  0  0  0
   45.2160   30.0390   39.5760 C   0  0  0  0  0  0  0  0  0  0  0  0
   44.4390   30.2200   38.4390 C   0  0  0  0  0  0  0  0  0  0  0  0
   44.8580   30.7730   37.6120 H   0  0  0  0  0  0  0  0  0  0  0  0
   43.1510   29.7890   38.2140 C   0  0  0  0  0  0  0  0  0  0  0  0
   42.6270   29.9800   37.2890 H   0  0  0  0  0  0  0  0  0  0  0  0
   42.5640   29.0950   39.2500 C   0  0  0  0  0  3  0  0  0  0  0  0
   43.1910   28.8300   40.4460 C   0  0  0  0  0  3  0  0  0  0  0  0
   45.6680   28.9060   42.8600 N   0  0  0  0  0  0  0  0  0  0  0  0
   45.1320   29.0880   41.8270 C   0  0  0  0  0  0  0  0  0  0  0  0
  1  2  1  0  0  0  0
  1 30  1  0  0  0  0
  2 14  1  0  0  0  0
  3  7  1  0  0  0  0
  3  2  2  0  0  0  0
  4  3  1  0  0  0  0
  5  4  2  0  0  0  0
  5  6  1  0  0  0  0
  6  1  2  0  0  0  0
  8  4  1  0  0  0  0
  9  5  1  0  0  0  0
 10  6  1  0  0  0  0
 12 11  1  0  0  0  0
 13 23  1  0  0  0  0
 13 12  2  0  0  0  0
 14 13  1  0  0  0  0
 15 14  2  0  0  0  0
 15 16  1  0  0  0  0
 16 17  2  0  0  0  0
 17 12  1  0  0  0  0
 17 20  1  0  0  0  0
 18 15  1  0  0  0  0
 19 16  1  0  0  0  0
 21 26  1  0  0  0  0
 22 23  1  0  0  0  0
 22 21  2  0  0  0  0
 23 24  2  0  0  0  0
 24 25  1  0  0  0  0
 25 29  1  0  0  0  0
 26 25  2  0  0  0  0
 27 21  1  0  0  0  0
 28 22  1  0  0  0  0
 30 32  2  0  0  0  0
 31 30  2  0  0  0  0
 33 42  1  0  0  0  0
 34 30  1  0  0  0  0
 34 33  2  0  0  0  0
 35 34  1  0  0  0  0
 36 35  1  0  0  0  0
 37 35  2  0  0  0  0
 37 39  1  0  0  0  0
 38 37  1  0  0  0  0
 39 40  2  0  0  0  0
 40 33  1  0  0  0  0
 42 41  3  0  0  0  0
M  END
>  <minimizedAffinity>
-4.36521769

>  <minimizedRMSD>
1.41578662

$$$$
