REMARK  Name = 
REMARK  7 active torsions:
REMARK  status: ('A' for Active; 'I' for Inactive)
REMARK    1  A    between atoms: C_1  and  C_7
REMARK    2  A    between atoms: C_5  and  O_8
REMARK    3  A    between atoms: O_8  and  P_10
REMARK    4  A    between atoms: P_10  and  O_11
REMARK    5  A    between atoms: P_10  and  O_12
REMARK    6  A    between atoms: O_12  and  C_22
REMARK    7  A    between atoms: C_20  and  C_21
REMARK                            x       y       z     vdW  Elec       q    Type
REMARK                         _______ _______ _______ _____ _____    ______ ____
ROOT
ATOM      1  O   UNL     1      45.320  31.715  49.444  0.00  0.00    +0.000 OA
ATOM      2  P   UNL     1      45.656  31.625  47.949  0.00  0.00    +0.000 P 
ENDROOT
BRANCH   2   3
ATOM      3  O   UNL     1      44.610  30.413  47.351  0.00  0.00    +0.000 OA
ATOM      4  H   UNL     1      45.035  29.833  46.695  0.00  0.00    +0.000 HD
ENDBRANCH   2   3
BRANCH   2   5
ATOM      5  O   UNL     1      45.291  33.140  47.284  0.00  0.00    +0.000 OA
BRANCH   5  10
ATOM      6  C   UNL     1      45.509  34.905  44.149  0.00  0.00    +0.000 A 
ATOM      7  C   UNL     1      46.546  34.229  43.522  0.00  0.00    +0.000 A 
ATOM      8  C   UNL     1      47.136  33.175  44.218  0.00  0.00    +0.000 A 
ATOM      9  N   UNL     1      46.680  32.867  45.449  0.00  0.00    +0.000 NA
ATOM     10  C   UNL     1      45.655  33.567  46.018  0.00  0.00    +0.000 A 
ATOM     11  N   UNL     1      45.059  34.597  45.369  0.00  0.00    +0.000 NA
ATOM     12  H   UNL     1      46.877  34.509  42.539  0.00  0.00    +0.000 HD
ATOM     13  H   UNL     1      47.939  32.643  43.745  0.00  0.00    +0.000 HD
BRANCH   6  14
ATOM     14  C   UNL     1      44.881  36.045  43.390  0.00  0.00    +0.000 C 
ATOM     15  H   UNL     1      44.839  35.798  42.311  0.00  0.00    +0.000 HD
ATOM     16  H   UNL     1      45.569  36.908  43.550  0.00  0.00    +0.000 HD
ATOM     17  H   UNL     1      43.904  36.286  43.825  0.00  0.00    +0.000 HD
ENDBRANCH   6  14
ENDBRANCH   5  10
ENDBRANCH   2   5
BRANCH   2  18
ATOM     18  O   UNL     1      47.209  31.161  47.645  0.00  0.00    +0.000 OA
BRANCH  18  20
ATOM     19  C   UNL     1      49.713  31.528  47.559  0.00  0.00    +0.000 A 
ATOM     20  C   UNL     1      48.413  31.693  47.960  0.00  0.00    +0.000 A 
ATOM     21  C   UNL     1      48.209  32.654  48.962  0.00  0.00    +0.000 A 
ATOM     22  H   UNL     1      47.273  32.972  49.451  0.00  0.00    +0.000 HD
ATOM     23  C   UNL     1      49.264  33.392  49.510  0.00  0.00    +0.000 A 
ATOM     24  H   UNL     1      49.188  34.144  50.279  0.00  0.00    +0.000 HD
ATOM     25  C   UNL     1      50.554  33.182  49.065  0.00  0.00    +0.000 A 
ATOM     26  C   UNL     1      50.768  32.241  48.082  0.00  0.00    +0.000 A 
BRANCH  19  28
ATOM     27  N   UNL     1      50.035  29.748  45.714  0.00  0.00    +0.000 NA
ATOM     28  C   UNL     1      49.880  30.543  46.539  0.00  0.00    +0.000 C 
ENDBRANCH  19  28
ENDBRANCH  18  20
ENDBRANCH   2  18
TORSDOF 7
