
 OpenBabel03242517293D

 41 43  0  0  1  0  0  0  0  0999 V2000
   41.4240   29.2490   40.4710 C   0  0  0  0  0  0  0  0  0  0  0  0
   41.9220   29.4390   41.7920 C   0  0  0  0  0  0  0  0  0  0  0  0
   41.3960   30.5110   42.5370 C   0  0  0  0  0  0  0  0  0  0  0  0
   40.4520   31.2990   41.9670 N   0  0  0  0  0  0  0  0  0  0  0  0
   39.9990   31.0980   40.7190 C   0  0  0  0  0  0  0  0  0  0  0  0
   40.4930   30.0770   39.9950 N   0  0  0  0  0  0  0  0  0  0  0  0
   39.0210   31.9550   40.2000 N   0  0  0  0  0  0  0  0  0  0  0  0
   39.2780   33.3650   40.1090 C   0  0  0  0  0  0  0  0  0  0  0  0
   38.0420   34.1920   39.9300 C   0  0  0  0  0  0  0  0  0  0  0  0
   36.9910   33.5890   39.1860 N   0  0  0  0  0  0  0  0  0  0  0  0
   37.3240   32.3030   38.6350 C   0  0  0  0  0  0  0  0  0  0  0  0
   37.7540   31.3940   39.7580 C   0  0  2  0  0  0  0  0  0  0  0  0
   41.8310   28.4250   39.9030 H   0  0  0  0  0  0  0  0  0  0  0  0
   42.6640   28.8250   42.2470 H   0  0  0  0  0  0  0  0  0  0  0  0
   41.7350   30.7120   43.5560 H   0  0  0  0  0  0  0  0  0  0  0  0
   40.0390   33.6090   39.3190 H   0  0  0  0  0  0  0  0  0  0  0  0
   39.7430   33.6750   41.0710 H   0  0  0  0  0  0  0  0  0  0  0  0
   37.6340   34.5520   40.8990 H   0  0  0  0  0  0  0  0  0  0  0  0
   38.3500   35.1150   39.3700 H   0  0  0  0  0  0  0  0  0  0  0  0
   36.0390   33.6770   39.5530 H   0  0  0  0  0  0  0  0  0  0  0  0
   36.4230   31.9000   38.1350 H   0  0  0  0  0  0  0  0  0  0  0  0
   38.1550   32.3870   37.9240 H   0  0  0  0  0  0  0  0  0  0  0  0
   37.9650   30.3980   39.3210 H   0  0  0  0  0  0  0  0  0  0  0  0
   36.7460   31.3430   40.8590 C   0  0  0  0  0  0  0  0  0  0  0  0
   37.1930   31.7290   41.7890 H   0  0  0  0  0  0  0  0  0  0  0  0
   35.8510   31.9100   40.5200 H   0  0  0  0  0  0  0  0  0  0  0  0
   36.3090   29.9030   41.0060 C   0  0  0  0  0  3  0  0  0  0  0  0
   36.9410   29.0730   41.8090 C   0  0  0  0  0  3  0  0  0  0  0  0
   36.5740   27.6380   42.0080 C   0  0  0  0  0  0  0  0  0  0  0  0
   36.2550   27.1460   41.0800 H   0  0  0  0  0  0  0  0  0  0  0  0
   35.8180   27.5520   42.8170 H   0  0  0  0  0  0  0  0  0  0  0  0
   38.0970   25.6240   42.3040 C   0  0  0  0  0  0  0  0  0  0  0  0
   37.8120   26.9640   42.4880 C   0  0  0  0  0  0  0  0  0  0  0  0
   38.7780   27.7060   43.1790 C   0  0  0  0  0  0  0  0  0  0  0  0
   38.5530   28.7630   43.3240 H   0  0  0  0  0  0  0  0  0  0  0  0
   39.9660   27.2070   43.6770 C   0  0  0  0  0  0  0  0  0  0  0  0
   40.6240   27.8830   44.1900 H   0  0  0  0  0  0  0  0  0  0  0  0
   40.2100   25.8680   43.4710 C   0  0  0  0  0  3  0  0  0  0  0  0
   39.2920   25.1010   42.7990 C   0  0  0  0  0  3  0  0  0  0  0  0
   36.3740   24.1860   41.0350 N   0  0  0  0  0  0  0  0  0  0  0  0
   37.1480   24.8280   41.6090 C   0  0  0  0  0  0  0  0  0  0  0  0
  1  2  1  0  0  0  0
  2 14  1  0  0  0  0
  2  3  2  0  0  0  0
  3 15  1  0  0  0  0
  4  3  1  0  0  0  0
  5  4  2  0  0  0  0
  6  1  2  0  0  0  0
  6  5  1  0  0  0  0
  7  5  1  0  0  0  0
  8  7  1  0  0  0  0
  8 17  1  0  0  0  0
  9  8  1  0  0  0  0
  9 18  1  0  0  0  0
 10 20  1  0  0  0  0
 10  9  1  0  0  0  0
 11 10  1  0  0  0  0
 11 12  1  0  0  0  0
 12 23  1  6  0  0  0
 12  7  1  0  0  0  0
 12 24  1  0  0  0  0
 13  1  1  0  0  0  0
 16  8  1  0  0  0  0
 19  9  1  0  0  0  0
 21 11  1  0  0  0  0
 22 11  1  0  0  0  0
 24 27  1  0  0  0  0
 24 25  1  0  0  0  0
 26 24  1  0  0  0  0
 27 28  2  0  0  0  0
 28 29  1  0  0  0  0
 29 33  1  0  0  0  0
 29 31  1  0  0  0  0
 30 29  1  0  0  0  0
 32 33  2  0  0  0  0
 32 39  1  0  0  0  0
 33 34  1  0  0  0  0
 34 35  1  0  0  0  0
 34 36  2  0  0  0  0
 36 37  1  0  0  0  0
 38 36  1  0  0  0  0
 39 38  2  0  0  0  0
 40 41  3  0  0  0  0
 41 32  1  0  0  0  0
M  END
>  <minimizedAffinity>
-5.84705639

$$$$

 OpenBabel03242517293D

 41 43  0  0  1  0  0  0  0  0999 V2000
   36.5080   25.0340   38.2320 C   0  0  0  0  0  0  0  0  0  0  0  0
   35.5080   24.0630   38.5250 C   0  0  0  0  0  0  0  0  0  0  0  0
   35.5000   23.5070   39.8180 C   0  0  0  0  0  0  0  0  0  0  0  0
   36.4330   23.9200   40.7100 N   0  0  0  0  0  0  0  0  0  0  0  0
   37.3660   24.8390   40.4080 C   0  0  0  0  0  0  0  0  0  0  0  0
   37.3860   25.3780   39.1760 N   0  0  0  0  0  0  0  0  0  0  0  0
   38.2970   25.2140   41.3850 N   0  0  0  0  0  0  0  0  0  0  0  0
   39.1530   24.2270   41.9770 C   0  0  0  0  0  0  0  0  0  0  0  0
   39.7900   24.6720   43.2580 C   0  0  0  0  0  0  0  0  0  0  0  0
   40.0940   26.0570   43.3540 N   0  0  0  0  0  0  0  0  0  0  0  0
   39.8250   26.8020   42.1540 C   0  0  0  0  0  0  0  0  0  0  0  0
   38.3770   26.6120   41.7810 C   0  0  2  0  0  0  0  0  0  0  0  0
   36.5100   25.4570   37.2380 H   0  0  0  0  0  0  0  0  0  0  0  0
   34.7710   23.7330   37.8300 H   0  0  0  0  0  0  0  0  0  0  0  0
   34.7590   22.7580   40.1070 H   0  0  0  0  0  0  0  0  0  0  0  0
   39.9280   23.8480   41.2570 H   0  0  0  0  0  0  0  0  0  0  0  0
   38.5180   23.3440   42.2170 H   0  0  0  0  0  0  0  0  0  0  0  0
   39.1960   24.3730   44.1490 H   0  0  0  0  0  0  0  0  0  0  0  0
   40.7630   24.1180   43.3430 H   0  0  0  0  0  0  0  0  0  0  0  0
   39.8590   26.5340   44.2290 H   0  0  0  0  0  0  0  0  0  0  0  0
   40.0350   27.8700   42.3580 H   0  0  0  0  0  0  0  0  0  0  0  0
   40.4440   26.4390   41.3240 H   0  0  0  0  0  0  0  0  0  0  0  0
   38.1790   27.2250   40.8800 H   0  0  0  0  0  0  0  0  0  0  0  0
   37.4570   26.9300   42.9140 C   0  0  0  0  0  0  0  0  0  0  0  0
   36.9910   26.0030   43.2850 H   0  0  0  0  0  0  0  0  0  0  0  0
   38.0500   27.4740   43.6830 H   0  0  0  0  0  0  0  0  0  0  0  0
   36.4250   27.9070   42.3990 C   0  0  0  0  0  3  0  0  0  0  0  0
   36.3360   28.1990   41.1180 C   0  0  0  0  0  3  0  0  0  0  0  0
   35.3470   29.1530   40.5320 C   0  0  0  0  0  0  0  0  0  0  0  0
   34.6800   29.5950   41.2840 H   0  0  0  0  0  0  0  0  0  0  0  0
   34.7920   28.6590   39.7070 H   0  0  0  0  0  0  0  0  0  0  0  0
   36.4550   30.3470   38.5790 C   0  0  0  0  0  0  0  0  0  0  0  0
   36.1520   30.2500   39.9250 C   0  0  0  0  0  0  0  0  0  0  0  0
   36.6540   31.2710   40.7410 C   0  0  0  0  0  0  0  0  0  0  0  0
   36.4150   31.1940   41.8020 H   0  0  0  0  0  0  0  0  0  0  0  0
   37.4110   32.3430   40.3080 C   0  0  0  0  0  0  0  0  0  0  0  0
   37.7360   33.0600   41.0380 H   0  0  0  0  0  0  0  0  0  0  0  0
   37.6900   32.4000   38.9610 C   0  0  0  0  0  3  0  0  0  0  0  0
   37.2180   31.4220   38.1230 C   0  0  0  0  0  3  0  0  0  0  0  0
   35.5630   28.5140   37.0010 N   0  0  0  0  0  0  0  0  0  0  0  0
   35.9690   29.3350   37.7090 C   0  0  0  0  0  0  0  0  0  0  0  0
  1  2  2  0  0  0  0
  1  6  1  0  0  0  0
  2  3  1  0  0  0  0
  3 15  1  0  0  0  0
  3  4  2  0  0  0  0
  5  4  1  0  0  0  0
  5  7  1  0  0  0  0
  6  5  2  0  0  0  0
  7 12  1  0  0  0  0
  7  8  1  0  0  0  0
  8 17  1  0  0  0  0
  8  9  1  0  0  0  0
  9 19  1  0  0  0  0
  9 10  1  0  0  0  0
  9 18  1  0  0  0  0
 10 20  1  0  0  0  0
 11 21  1  0  0  0  0
 11 10  1  0  0  0  0
 12 23  1  6  0  0  0
 12 11  1  0  0  0  0
 12 24  1  0  0  0  0
 13  1  1  0  0  0  0
 14  2  1  0  0  0  0
 16  8  1  0  0  0  0
 22 11  1  0  0  0  0
 24 25  1  0  0  0  0
 24 26  1  0  0  0  0
 27 24  1  0  0  0  0
 28 27  2  0  0  0  0
 29 28  1  0  0  0  0
 29 30  1  0  0  0  0
 31 29  1  0  0  0  0
 32 33  1  0  0  0  0
 33 29  1  0  0  0  0
 33 34  2  0  0  0  0
 34 35  1  0  0  0  0
 36 34  1  0  0  0  0
 36 37  1  0  0  0  0
 38 36  2  0  0  0  0
 39 32  2  0  0  0  0
 39 38  1  0  0  0  0
 40 41  3  0  0  0  0
 41 32  1  0  0  0  0
M  END
>  <minimizedAffinity>
-5.7790761

$$$$

 OpenBabel03242517293D

 41 43  0  0  1  0  0  0  0  0999 V2000
   40.1360   28.0580   38.5190 C   0  0  0  0  0  0  0  0  0  0  0  0
   40.9880   27.6280   39.5770 C   0  0  0  0  0  0  0  0  0  0  0  0
   41.0730   28.4470   40.7180 C   0  0  0  0  0  0  0  0  0  0  0  0
   40.3490   29.5910   40.7540 N   0  0  0  0  0  0  0  0  0  0  0  0
   39.5520   29.9750   39.7420 C   0  0  0  0  0  0  0  0  0  0  0  0
   39.4610   29.2020   38.6450 N   0  0  0  0  0  0  0  0  0  0  0  0
   38.8340   31.1720   39.8540 N   0  0  0  0  0  0  0  0  0  0  0  0
   39.5300   32.4110   40.0590 C   0  0  0  0  0  0  0  0  0  0  0  0
   38.6550   33.5180   40.5590 C   0  0  0  0  0  0  0  0  0  0  0  0
   37.3090   33.5020   40.1040 N   0  0  0  0  0  0  0  0  0  0  0  0
   37.0240   32.4660   39.1480 C   0  0  0  0  0  0  0  0  0  0  0  0
   37.3830   31.1350   39.7580 C   0  0  2  0  0  0  0  0  0  0  0  0
   40.0740   27.4270   37.6460 H   0  0  0  0  0  0  0  0  0  0  0  0
   41.5610   26.7290   39.5570 H   0  0  0  0  0  0  0  0  0  0  0  0
   41.7080   28.1730   41.5650 H   0  0  0  0  0  0  0  0  0  0  0  0
   40.1020   32.7340   39.1470 H   0  0  0  0  0  0  0  0  0  0  0  0
   40.3030   32.2260   40.8390 H   0  0  0  0  0  0  0  0  0  0  0  0
   38.6570   33.5870   41.6680 H   0  0  0  0  0  0  0  0  0  0  0  0
   39.1110   34.4780   40.1960 H   0  0  0  0  0  0  0  0  0  0  0  0
   36.5730   33.6770   40.7940 H   0  0  0  0  0  0  0  0  0  0  0  0
   35.9430   32.5040   38.9120 H   0  0  0  0  0  0  0  0  0  0  0  0
   37.6230   32.6000   38.2390 H   0  0  0  0  0  0  0  0  0  0  0  0
   37.1180   30.3480   39.0240 H   0  0  0  0  0  0  0  0  0  0  0  0
   36.7350   30.9310   41.0880 C   0  0  0  0  0  0  0  0  0  0  0  0
   37.4390   31.2080   41.8900 H   0  0  0  0  0  0  0  0  0  0  0  0
   35.7910   31.5210   41.0940 H   0  0  0  0  0  0  0  0  0  0  0  0
   36.3310   29.4770   41.1770 C   0  0  0  0  0  3  0  0  0  0  0  0
   36.8710   28.6680   42.0640 C   0  0  0  0  0  3  0  0  0  0  0  0
   36.5280   27.2220   42.2140 C   0  0  0  0  0  0  0  0  0  0  0  0
   36.1350   26.7770   41.2910 H   0  0  0  0  0  0  0  0  0  0  0  0
   35.8440   27.0850   43.0780 H   0  0  0  0  0  0  0  0  0  0  0  0
   38.1240   25.2420   42.1750 C   0  0  0  0  0  0  0  0  0  0  0  0
   37.8060   26.5350   42.5510 C   0  0  0  0  0  0  0  0  0  0  0  0
   38.7780   27.2110   43.2990 C   0  0  0  0  0  0  0  0  0  0  0  0
   38.5260   28.2300   43.5950 H   0  0  0  0  0  0  0  0  0  0  0  0
   40.0010   26.6930   43.6790 C   0  0  0  0  0  0  0  0  0  0  0  0
   40.6590   27.3170   44.2540 H   0  0  0  0  0  0  0  0  0  0  0  0
   40.2760   25.4030   43.2840 C   0  0  0  0  0  3  0  0  0  0  0  0
   39.3540   24.7010   42.5490 C   0  0  0  0  0  3  0  0  0  0  0  0
   36.3980   23.9220   40.7880 N   0  0  0  0  0  0  0  0  0  0  0  0
   37.1700   24.5130   41.4150 C   0  0  0  0  0  0  0  0  0  0  0  0
  1  6  2  0  0  0  0
  1  2  1  0  0  0  0
  2  3  2  0  0  0  0
  3  4  1  0  0  0  0
  3 15  1  0  0  0  0
  5  7  1  0  0  0  0
  5  4  2  0  0  0  0
  6  5  1  0  0  0  0
  7  8  1  0  0  0  0
  8  9  1  0  0  0  0
  8 17  1  0  0  0  0
  9 18  1  0  0  0  0
 10  9  1  0  0  0  0
 10 20  1  0  0  0  0
 11 12  1  0  0  0  0
 11 10  1  0  0  0  0
 12 23  1  6  0  0  0
 12  7  1  0  0  0  0
 12 24  1  0  0  0  0
 13  1  1  0  0  0  0
 14  2  1  0  0  0  0
 16  8  1  0  0  0  0
 19  9  1  0  0  0  0
 21 11  1  0  0  0  0
 22 11  1  0  0  0  0
 24 26  1  0  0  0  0
 24 27  1  0  0  0  0
 24 25  1  0  0  0  0
 27 28  2  0  0  0  0
 28 29  1  0  0  0  0
 29 33  1  0  0  0  0
 29 31  1  0  0  0  0
 30 29  1  0  0  0  0
 32 39  2  0  0  0  0
 32 33  1  0  0  0  0
 33 34  2  0  0  0  0
 34 35  1  0  0  0  0
 34 36  1  0  0  0  0
 36 37  1  0  0  0  0
 38 36  2  0  0  0  0
 39 38  1  0  0  0  0
 40 41  3  0  0  0  0
 41 32  1  0  0  0  0
M  END
>  <minimizedAffinity>
-5.71796703

$$$$

 OpenBabel03242517293D

 41 43  0  0  1  0  0  0  0  0999 V2000
   39.7840   32.8800   40.4170 C   0  0  0  0  0  0  0  0  0  0  0  0
   38.9800   34.0550   40.4690 C   0  0  0  0  0  0  0  0  0  0  0  0
   37.7350   34.0210   39.8130 C   0  0  0  0  0  0  0  0  0  0  0  0
   37.3680   32.8850   39.1720 N   0  0  0  0  0  0  0  0  0  0  0  0
   38.1450   31.7900   39.1380 C   0  0  0  0  0  0  0  0  0  0  0  0
   39.3370   31.8080   39.7600 N   0  0  0  0  0  0  0  0  0  0  0  0
   37.6960   30.6530   38.4540 N   0  0  0  0  0  0  0  0  0  0  0  0
   37.3800   30.7340   37.0560 C   0  0  0  0  0  0  0  0  0  0  0  0
   36.5440   29.5940   36.5600 C   0  0  0  0  0  0  0  0  0  0  0  0
   36.7680   28.3380   37.1890 N   0  0  0  0  0  0  0  0  0  0  0  0
   37.8400   28.3440   38.1470 C   0  0  0  0  0  0  0  0  0  0  0  0
   37.5580   29.4010   39.1830 C   0  0  2  0  0  0  0  0  0  0  0  0
   40.7380   32.9110   40.9220 H   0  0  0  0  0  0  0  0  0  0  0  0
   39.2610   34.9520   40.9710 H   0  0  0  0  0  0  0  0  0  0  0  0
   37.0700   34.8880   39.8150 H   0  0  0  0  0  0  0  0  0  0  0  0
   38.2960   30.8640   36.4190 H   0  0  0  0  0  0  0  0  0  0  0  0
   36.7850   31.6630   36.9090 H   0  0  0  0  0  0  0  0  0  0  0  0
   35.4580   29.8230   36.5940 H   0  0  0  0  0  0  0  0  0  0  0  0
   36.7920   29.4630   35.4730 H   0  0  0  0  0  0  0  0  0  0  0  0
   35.9460   27.7880   37.4530 H   0  0  0  0  0  0  0  0  0  0  0  0
   37.8850   27.3430   38.6180 H   0  0  0  0  0  0  0  0  0  0  0  0
   38.7940   28.5840   37.6610 H   0  0  0  0  0  0  0  0  0  0  0  0
   38.3720   29.3610   39.9330 H   0  0  0  0  0  0  0  0  0  0  0  0
   36.2010   29.2480   39.7890 C   0  0  0  0  0  0  0  0  0  0  0  0
   35.9180   30.1800   40.3050 H   0  0  0  0  0  0  0  0  0  0  0  0
   35.5020   28.9540   38.9740 H   0  0  0  0  0  0  0  0  0  0  0  0
   36.2620   28.0780   40.7440 C   0  0  0  0  0  3  0  0  0  0  0  0
   36.4750   28.2530   42.0310 C   0  0  0  0  0  3  0  0  0  0  0  0
   36.5510   27.1510   43.0370 C   0  0  0  0  0  0  0  0  0  0  0  0
   35.8850   26.3100   42.8020 H   0  0  0  0  0  0  0  0  0  0  0  0
   36.3800   27.5590   44.0550 H   0  0  0  0  0  0  0  0  0  0  0  0
   38.3530   25.4830   42.3770 C   0  0  0  0  0  0  0  0  0  0  0  0
   37.9550   26.6560   42.9920 C   0  0  0  0  0  0  0  0  0  0  0  0
   38.9700   27.4030   43.6030 C   0  0  0  0  0  0  0  0  0  0  0  0
   38.6550   28.3270   44.0870 H   0  0  0  0  0  0  0  0  0  0  0  0
   40.3080   27.0590   43.6340 C   0  0  0  0  0  0  0  0  0  0  0  0
   40.9890   27.7210   44.1380 H   0  0  0  0  0  0  0  0  0  0  0  0
   40.6610   25.8840   43.0110 C   0  0  0  0  0  3  0  0  0  0  0  0
   39.7000   25.1200   42.3980 C   0  0  0  0  0  3  0  0  0  0  0  0
   36.5440   24.0500   41.2290 N   0  0  0  0  0  0  0  0  0  0  0  0
   37.3600   24.6890   41.7440 C   0  0  0  0  0  0  0  0  0  0  0  0
  1  2  1  0  0  0  0
  1 13  1  0  0  0  0
  2 14  1  0  0  0  0
  3 15  1  0  0  0  0
  3  2  2  0  0  0  0
  4  3  1  0  0  0  0
  5  4  2  0  0  0  0
  5  6  1  0  0  0  0
  6  1  2  0  0  0  0
  7  5  1  0  0  0  0
  7 12  1  0  0  0  0
  8  7  1  0  0  0  0
  9 18  1  0  0  0  0
  9  8  1  0  0  0  0
  9 10  1  0  0  0  0
 10 20  1  0  0  0  0
 10 11  1  0  0  0  0
 11 21  1  0  0  0  0
 11 12  1  0  0  0  0
 12 24  1  0  0  0  0
 12 23  1  1  0  0  0
 16  8  1  0  0  0  0
 17  8  1  0  0  0  0
 19  9  1  0  0  0  0
 22 11  1  0  0  0  0
 24 25  1  0  0  0  0
 24 27  1  0  0  0  0
 26 24  1  0  0  0  0
 27 28  2  0  0  0  0
 28 29  1  0  0  0  0
 29 31  1  0  0  0  0
 30 29  1  0  0  0  0
 32 39  2  0  0  0  0
 32 33  1  0  0  0  0
 33 29  1  0  0  0  0
 33 34  2  0  0  0  0
 34 36  1  0  0  0  0
 34 35  1  0  0  0  0
 36 37  1  0  0  0  0
 38 36  2  0  0  0  0
 39 38  1  0  0  0  0
 40 41  3  0  0  0  0
 41 32  1  0  0  0  0
M  END
>  <minimizedAffinity>
-5.68204355

$$$$

 OpenBabel03242517293D

 41 43  0  0  1  0  0  0  0  0999 V2000
   38.2920   26.4100   38.7410 C   0  0  0  0  0  0  0  0  0  0  0  0
   39.5720   26.4230   38.1160 C   0  0  0  0  0  0  0  0  0  0  0  0
   40.2210   27.6660   37.9890 C   0  0  0  0  0  0  0  0  0  0  0  0
   39.6020   28.7740   38.4630 N   0  0  0  0  0  0  0  0  0  0  0  0
   38.3940   28.7350   39.0490 C   0  0  0  0  0  0  0  0  0  0  0  0
   37.7620   27.5540   39.1760 N   0  0  0  0  0  0  0  0  0  0  0  0
   37.8200   29.9250   39.5140 N   0  0  0  0  0  0  0  0  0  0  0  0
   37.5810   31.0090   38.6050 C   0  0  0  0  0  0  0  0  0  0  0  0
   37.3560   32.3260   39.2830 C   0  0  0  0  0  0  0  0  0  0  0  0
   36.7070   32.2730   40.5460 N   0  0  0  0  0  0  0  0  0  0  0  0
   36.2790   30.9550   40.9320 C   0  0  0  0  0  0  0  0  0  0  0  0
   37.4740   30.0360   40.9230 C   0  0  2  0  0  0  0  0  0  0  0  0
   37.7980   25.4540   38.8360 H   0  0  0  0  0  0  0  0  0  0  0  0
   40.0650   25.5560   37.7410 H   0  0  0  0  0  0  0  0  0  0  0  0
   41.2040   27.7450   37.5200 H   0  0  0  0  0  0  0  0  0  0  0  0
   36.7490   30.7850   37.8840 H   0  0  0  0  0  0  0  0  0  0  0  0
   38.4930   31.1170   37.9760 H   0  0  0  0  0  0  0  0  0  0  0  0
   38.2950   32.9100   39.3880 H   0  0  0  0  0  0  0  0  0  0  0  0
   36.6980   32.9300   38.6030 H   0  0  0  0  0  0  0  0  0  0  0  0
   37.0910   32.8480   41.3020 H   0  0  0  0  0  0  0  0  0  0  0  0
   35.8480   31.0170   41.9500 H   0  0  0  0  0  0  0  0  0  0  0  0
   35.5390   30.5630   40.2240 H   0  0  0  0  0  0  0  0  0  0  0  0
   37.1330   29.0390   41.2620 H   0  0  0  0  0  0  0  0  0  0  0  0
   38.6030   30.5730   41.7390 C   0  0  0  0  0  0  0  0  0  0  0  0
   39.3580   31.0270   41.0760 H   0  0  0  0  0  0  0  0  0  0  0  0
   38.1720   31.2810   42.4820 H   0  0  0  0  0  0  0  0  0  0  0  0
   39.1780   29.4200   42.5300 C   0  0  0  0  0  3  0  0  0  0  0  0
   38.4770   28.3310   42.7640 C   0  0  0  0  0  3  0  0  0  0  0  0
   38.9710   27.1520   43.5370 C   0  0  0  0  0  0  0  0  0  0  0  0
   38.5180   27.0720   44.5330 H   0  0  0  0  0  0  0  0  0  0  0  0
   40.0810   27.1650   43.5730 H   0  0  0  0  0  0  0  0  0  0  0  0
   39.4420   24.9580   42.3400 C   0  0  0  0  0  0  0  0  0  0  0  0
   38.5720   25.9530   42.7480 C   0  0  0  0  0  0  0  0  0  0  0  0
   37.2320   25.7860   42.3750 C   0  0  0  0  0  0  0  0  0  0  0  0
   36.5480   26.5710   42.6970 H   0  0  0  0  0  0  0  0  0  0  0  0
   36.7300   24.7250   41.6470 C   0  0  0  0  0  0  0  0  0  0  0  0
   35.6790   24.7160   41.4260 H   0  0  0  0  0  0  0  0  0  0  0  0
   37.6300   23.7570   41.2610 C   0  0  0  0  0  3  0  0  0  0  0  0
   38.9530   23.8780   41.6040 C   0  0  0  0  0  3  0  0  0  0  0  0
   41.9270   25.1770   42.9890 N   0  0  0  0  0  0  0  0  0  0  0  0
   40.8120   25.0810   42.6930 C   0  0  0  0  0  0  0  0  0  0  0  0
  1 13  1  0  0  0  0
  1  6  1  0  0  0  0
  2  1  2  0  0  0  0
  3  2  1  0  0  0  0
  3  4  2  0  0  0  0
  4  5  1  0  0  0  0
  5  6  2  0  0  0  0
  5  7  1  0  0  0  0
  7 12  1  0  0  0  0
  8  9  1  0  0  0  0
  8  7  1  0  0  0  0
  9 18  1  0  0  0  0
  9 10  1  0  0  0  0
 10 11  1  0  0  0  0
 10 20  1  0  0  0  0
 11 21  1  0  0  0  0
 12 11  1  0  0  0  0
 12 23  1  1  0  0  0
 12 24  1  0  0  0  0
 14  2  1  0  0  0  0
 15  3  1  0  0  0  0
 16  8  1  0  0  0  0
 17  8  1  0  0  0  0
 19  9  1  0  0  0  0
 22 11  1  0  0  0  0
 24 26  1  0  0  0  0
 24 27  1  0  0  0  0
 25 24  1  0  0  0  0
 27 28  2  0  0  0  0
 28 29  1  0  0  0  0
 29 31  1  0  0  0  0
 29 30  1  0  0  0  0
 32 41  1  0  0  0  0
 32 33  1  0  0  0  0
 33 29  1  0  0  0  0
 34 35  1  0  0  0  0
 34 33  2  0  0  0  0
 36 34  1  0  0  0  0
 37 36  1  0  0  0  0
 38 39  1  0  0  0  0
 38 36  2  0  0  0  0
 39 32  2  0  0  0  0
 41 40  3  0  0  0  0
M  END
>  <minimizedAffinity>
-5.6426754

$$$$

 OpenBabel03242517293D

 41 43  0  0  1  0  0  0  0  0999 V2000
   40.4280   28.3780   37.1700 C   0  0  0  0  0  0  0  0  0  0  0  0
   41.6400   29.0600   36.8610 C   0  0  0  0  0  0  0  0  0  0  0  0
   41.7760   30.3850   37.3160 C   0  0  0  0  0  0  0  0  0  0  0  0
   40.7590   30.9390   38.0190 N   0  0  0  0  0  0  0  0  0  0  0  0
   39.6250   30.2740   38.2970 C   0  0  0  0  0  0  0  0  0  0  0  0
   39.4810   29.0070   37.8680 N   0  0  0  0  0  0  0  0  0  0  0  0
   38.6180   30.9160   39.0300 N   0  0  0  0  0  0  0  0  0  0  0  0
   38.0360   32.1320   38.5370 C   0  0  0  0  0  0  0  0  0  0  0  0
   37.2930   32.9090   39.5800 C   0  0  0  0  0  0  0  0  0  0  0  0
   36.6430   32.1420   40.5840 N   0  0  0  0  0  0  0  0  0  0  0  0
   36.7260   30.7200   40.3820 C   0  0  0  0  0  0  0  0  0  0  0  0
   38.1780   30.3290   40.2860 C   0  0  2  0  0  0  0  0  0  0  0  0
   40.3290   27.3620   36.8180 H   0  0  0  0  0  0  0  0  0  0  0  0
   42.4450   28.6320   36.3090 H   0  0  0  0  0  0  0  0  0  0  0  0
   42.6810   30.9630   37.1130 H   0  0  0  0  0  0  0  0  0  0  0  0
   37.3930   31.9600   37.6320 H   0  0  0  0  0  0  0  0  0  0  0  0
   38.8730   32.7750   38.1840 H   0  0  0  0  0  0  0  0  0  0  0  0
   37.9330   33.6730   40.0700 H   0  0  0  0  0  0  0  0  0  0  0  0
   36.4930   33.4860   39.0410 H   0  0  0  0  0  0  0  0  0  0  0  0
   36.7380   32.4530   41.5550 H   0  0  0  0  0  0  0  0  0  0  0  0
   36.2470   30.2210   41.2470 H   0  0  0  0  0  0  0  0  0  0  0  0
   36.2300   30.4300   39.4480 H   0  0  0  0  0  0  0  0  0  0  0  0
   38.2220   29.2280   40.1730 H   0  0  0  0  0  0  0  0  0  0  0  0
   38.9730   30.8260   41.4490 C   0  0  0  0  0  0  0  0  0  0  0  0
   39.9880   31.0980   41.1160 H   0  0  0  0  0  0  0  0  0  0  0  0
   38.4080   31.6690   41.9050 H   0  0  0  0  0  0  0  0  0  0  0  0
   39.0020   29.7220   42.4820 C   0  0  0  0  0  3  0  0  0  0  0  0
   39.5410   28.5500   42.2190 C   0  0  0  0  0  3  0  0  0  0  0  0
   39.6070   27.4110   43.1830 C   0  0  0  0  0  0  0  0  0  0  0  0
   39.0380   27.5940   44.1030 H   0  0  0  0  0  0  0  0  0  0  0  0
   40.6680   27.1490   43.3830 H   0  0  0  0  0  0  0  0  0  0  0  0
   37.6350   25.9830   42.4480 C   0  0  0  0  0  0  0  0  0  0  0  0
   38.9920   26.2500   42.4810 C   0  0  0  0  0  0  0  0  0  0  0  0
   39.8110   25.3420   41.7980 C   0  0  0  0  0  0  0  0  0  0  0  0
   40.8800   25.5530   41.8250 H   0  0  0  0  0  0  0  0  0  0  0  0
   39.3720   24.2290   41.1090 C   0  0  0  0  0  0  0  0  0  0  0  0
   40.1050   23.6110   40.6250 H   0  0  0  0  0  0  0  0  0  0  0  0
   38.0140   24.0010   41.1010 C   0  0  0  0  0  3  0  0  0  0  0  0
   37.1720   24.8630   41.7570 C   0  0  0  0  0  3  0  0  0  0  0  0
   36.0560   27.6080   43.6780 N   0  0  0  0  0  0  0  0  0  0  0  0
   36.7620   26.8740   43.1270 C   0  0  0  0  0  0  0  0  0  0  0  0
  1  6  1  0  0  0  0
  2  1  2  0  0  0  0
  2  3  1  0  0  0  0
  3  4  2  0  0  0  0
  4  5  1  0  0  0  0
  5  7  1  0  0  0  0
  6  5  2  0  0  0  0
  7 12  1  0  0  0  0
  8  7  1  0  0  0  0
  8  9  1  0  0  0  0
  9 18  1  0  0  0  0
  9 10  1  0  0  0  0
 10 20  1  0  0  0  0
 11 10  1  0  0  0  0
 11 21  1  0  0  0  0
 12 23  1  6  0  0  0
 12 11  1  0  0  0  0
 12 24  1  0  0  0  0
 13  1  1  0  0  0  0
 14  2  1  0  0  0  0
 15  3  1  0  0  0  0
 16  8  1  0  0  0  0
 17  8  1  0  0  0  0
 19  9  1  0  0  0  0
 22 11  1  0  0  0  0
 24 26  1  0  0  0  0
 24 27  1  0  0  0  0
 25 24  1  0  0  0  0
 28 27  2  0  0  0  0
 28 29  1  0  0  0  0
 29 31  1  0  0  0  0
 29 30  1  0  0  0  0
 32 33  1  0  0  0  0
 32 41  1  0  0  0  0
 33 29  1  0  0  0  0
 34 35  1  0  0  0  0
 34 33  2  0  0  0  0
 36 34  1  0  0  0  0
 37 36  1  0  0  0  0
 38 36  2  0  0  0  0
 38 39  1  0  0  0  0
 39 32  2  0  0  0  0
 41 40  3  0  0  0  0
M  END
>  <minimizedAffinity>
-5.46271658

$$$$

 OpenBabel03242517293D

 41 43  0  0  1  0  0  0  0  0999 V2000
   35.9180   27.3180   37.1350 C   0  0  0  0  0  0  0  0  0  0  0  0
   36.9930   27.0650   36.2350 C   0  0  0  0  0  0  0  0  0  0  0  0
   38.0660   27.9760   36.2300 C   0  0  0  0  0  0  0  0  0  0  0  0
   38.0230   29.0370   37.0720 N   0  0  0  0  0  0  0  0  0  0  0  0
   36.9970   29.2540   37.9100 C   0  0  0  0  0  0  0  0  0  0  0  0
   35.9640   28.3910   37.9260 N   0  0  0  0  0  0  0  0  0  0  0  0
   37.0250   30.3740   38.7510 N   0  0  0  0  0  0  0  0  0  0  0  0
   37.1230   31.6910   38.1890 C   0  0  0  0  0  0  0  0  0  0  0  0
   37.5490   32.7360   39.1740 C   0  0  0  0  0  0  0  0  0  0  0  0
   37.1160   32.5430   40.5130 N   0  0  0  0  0  0  0  0  0  0  0  0
   36.2480   31.4100   40.6920 C   0  0  0  0  0  0  0  0  0  0  0  0
   36.9540   30.1760   40.1910 C   0  0  2  0  0  0  0  0  0  0  0  0
   35.0970   26.6170   37.1340 H   0  0  0  0  0  0  0  0  0  0  0  0
   37.0350   26.2330   35.5700 H   0  0  0  0  0  0  0  0  0  0  0  0
   38.9220   27.8380   35.5650 H   0  0  0  0  0  0  0  0  0  0  0  0
   36.1800   32.0000   37.6610 H   0  0  0  0  0  0  0  0  0  0  0  0
   37.9040   31.6510   37.3960 H   0  0  0  0  0  0  0  0  0  0  0  0
   38.6490   32.8920   39.1720 H   0  0  0  0  0  0  0  0  0  0  0  0
   37.1050   33.7070   38.8240 H   0  0  0  0  0  0  0  0  0  0  0  0
   37.8010   32.6930   41.2590 H   0  0  0  0  0  0  0  0  0  0  0  0
   36.0250   31.3150   41.7730 H   0  0  0  0  0  0  0  0  0  0  0  0
   35.3220   31.5340   40.1170 H   0  0  0  0  0  0  0  0  0  0  0  0
   36.2870   29.3110   40.3750 H   0  0  0  0  0  0  0  0  0  0  0  0
   38.3050   30.0110   40.8050 C   0  0  0  0  0  0  0  0  0  0  0  0
   39.0250   29.6880   40.0360 H   0  0  0  0  0  0  0  0  0  0  0  0
   38.5700   30.9750   41.2940 H   0  0  0  0  0  0  0  0  0  0  0  0
   38.1760   28.9910   41.9130 C   0  0  0  0  0  3  0  0  0  0  0  0
   37.2150   28.0910   41.9100 C   0  0  0  0  0  3  0  0  0  0  0  0
   37.0200   27.0530   42.9660 C   0  0  0  0  0  0  0  0  0  0  0  0
   36.1470   26.4140   42.7830 H   0  0  0  0  0  0  0  0  0  0  0  0
   36.9940   27.5350   43.9660 H   0  0  0  0  0  0  0  0  0  0  0  0
   38.3370   25.0110   42.2180 C   0  0  0  0  0  0  0  0  0  0  0  0
   38.2380   26.1960   42.9240 C   0  0  0  0  0  0  0  0  0  0  0  0
   39.3810   26.5840   43.6340 C   0  0  0  0  0  0  0  0  0  0  0  0
   39.3010   27.5180   44.1900 H   0  0  0  0  0  0  0  0  0  0  0  0
   40.5710   25.8850   43.6790 C   0  0  0  0  0  0  0  0  0  0  0  0
   41.3750   26.2910   44.2640 H   0  0  0  0  0  0  0  0  0  0  0  0
   40.6270   24.7100   42.9630 C   0  0  0  0  0  3  0  0  0  0  0  0
   39.5320   24.2900   42.2510 C   0  0  0  0  0  3  0  0  0  0  0  0
   36.2820   24.2080   40.8850 N   0  0  0  0  0  0  0  0  0  0  0  0
   37.2040   24.5730   41.4820 C   0  0  0  0  0  0  0  0  0  0  0  0
  1  6  1  0  0  0  0
  2  1  2  0  0  0  0
  3  2  1  0  0  0  0
  3  4  2  0  0  0  0
  4  5  1  0  0  0  0
  5  6  2  0  0  0  0
  5  7  1  0  0  0  0
  7 12  1  0  0  0  0
  8  7  1  0  0  0  0
  8  9  1  0  0  0  0
  9 10  1  0  0  0  0
 10 11  1  0  0  0  0
 10 20  1  0  0  0  0
 11 21  1  0  0  0  0
 12 23  1  1  0  0  0
 12 11  1  0  0  0  0
 12 24  1  0  0  0  0
 13  1  1  0  0  0  0
 14  2  1  0  0  0  0
 15  3  1  0  0  0  0
 16  8  1  0  0  0  0
 17  8  1  0  0  0  0
 18  9  1  0  0  0  0
 19  9  1  0  0  0  0
 22 11  1  0  0  0  0
 24 26  1  0  0  0  0
 24 27  1  0  0  0  0
 25 24  1  0  0  0  0
 28 27  2  0  0  0  0
 28 29  1  0  0  0  0
 29 31  1  0  0  0  0
 30 29  1  0  0  0  0
 32 39  2  0  0  0  0
 32 33  1  0  0  0  0
 33 29  1  0  0  0  0
 33 34  2  0  0  0  0
 34 36  1  0  0  0  0
 34 35  1  0  0  0  0
 36 37  1  0  0  0  0
 38 36  2  0  0  0  0
 39 38  1  0  0  0  0
 40 41  3  0  0  0  0
 41 32  1  0  0  0  0
M  END
>  <minimizedAffinity>
-5.45333576

$$$$

 OpenBabel03242517293D

 41 43  0  0  1  0  0  0  0  0999 V2000
   37.9790   28.8750   37.8380 C   0  0  0  0  0  0  0  0  0  0  0  0
   39.0570   28.1430   37.2630 C   0  0  0  0  0  0  0  0  0  0  0  0
   40.3570   28.6540   37.4380 C   0  0  0  0  0  0  0  0  0  0  0  0
   40.5150   29.8030   38.1380 N   0  0  0  0  0  0  0  0  0  0  0  0
   39.4810   30.4750   38.6710 C   0  0  0  0  0  0  0  0  0  0  0  0
   38.2330   29.9980   38.5110 N   0  0  0  0  0  0  0  0  0  0  0  0
   39.7260   31.6560   39.3820 N   0  0  0  0  0  0  0  0  0  0  0  0
   40.3860   32.7570   38.7390 C   0  0  0  0  0  0  0  0  0  0  0  0
   40.9400   33.7690   39.6950 C   0  0  0  0  0  0  0  0  0  0  0  0
   40.2050   33.9570   40.8970 N   0  0  0  0  0  0  0  0  0  0  0  0
   38.9810   33.2050   40.9620 C   0  0  0  0  0  0  0  0  0  0  0  0
   39.3010   31.7440   40.7710 C   0  0  2  0  0  0  0  0  0  0  0  0
   36.9830   28.4790   37.7010 H   0  0  0  0  0  0  0  0  0  0  0  0
   38.9410   27.2390   36.7110 H   0  0  0  0  0  0  0  0  0  0  0  0
   41.2270   28.1410   37.0220 H   0  0  0  0  0  0  0  0  0  0  0  0
   39.7360   33.2510   37.9670 H   0  0  0  0  0  0  0  0  0  0  0  0
   41.2470   32.3360   38.1730 H   0  0  0  0  0  0  0  0  0  0  0  0
   42.0020   33.5670   39.9520 H   0  0  0  0  0  0  0  0  0  0  0  0
   40.9400   34.7540   39.1560 H   0  0  0  0  0  0  0  0  0  0  0  0
   40.7350   34.0100   41.7720 H   0  0  0  0  0  0  0  0  0  0  0  0
   38.5260   33.3740   41.9570 H   0  0  0  0  0  0  0  0  0  0  0  0
   38.2930   33.5130   40.1660 H   0  0  0  0  0  0  0  0  0  0  0  0
   38.3540   31.1780   40.8650 H   0  0  0  0  0  0  0  0  0  0  0  0
   40.3570   31.2710   41.7140 C   0  0  0  0  0  0  0  0  0  0  0  0
   41.2000   30.8450   41.1450 H   0  0  0  0  0  0  0  0  0  0  0  0
   40.6390   32.1320   42.3600 H   0  0  0  0  0  0  0  0  0  0  0  0
   39.7240   30.2420   42.6240 C   0  0  0  0  0  3  0  0  0  0  0  0
   38.4580   29.9040   42.5000 C   0  0  0  0  0  3  0  0  0  0  0  0
   37.7590   28.9010   43.3590 C   0  0  0  0  0  0  0  0  0  0  0  0
   36.7000   29.1390   43.5210 H   0  0  0  0  0  0  0  0  0  0  0  0
   38.3170   28.7670   44.3100 H   0  0  0  0  0  0  0  0  0  0  0  0
   37.0480   27.2830   41.5300 C   0  0  0  0  0  0  0  0  0  0  0  0
   37.8350   27.6100   42.6190 C   0  0  0  0  0  0  0  0  0  0  0  0
   38.7540   26.6340   43.0250 C   0  0  0  0  0  0  0  0  0  0  0  0
   39.3740   26.8930   43.8840 H   0  0  0  0  0  0  0  0  0  0  0  0
   38.9270   25.4000   42.4300 C   0  0  0  0  0  0  0  0  0  0  0  0
   39.6690   24.7400   42.8390 H   0  0  0  0  0  0  0  0  0  0  0  0
   38.1230   25.1160   41.3490 C   0  0  0  0  0  3  0  0  0  0  0  0
   37.2080   26.0410   40.9150 C   0  0  0  0  0  3  0  0  0  0  0  0
   35.3270   29.0240   40.7210 N   0  0  0  0  0  0  0  0  0  0  0  0
   36.0990   28.2400   41.0790 C   0  0  0  0  0  0  0  0  0  0  0  0
  1  6  1  0  0  0  0
  2  3  1  0  0  0  0
  2  1  2  0  0  0  0
  3  4  2  0  0  0  0
  4  5  1  0  0  0  0
  5  7  1  0  0  0  0
  6  5  2  0  0  0  0
  7 12  1  0  0  0  0
  8  7  1  0  0  0  0
  8  9  1  0  0  0  0
  9 18  1  0  0  0  0
  9 10  1  0  0  0  0
 10 11  1  0  0  0  0
 10 20  1  0  0  0  0
 11 21  1  0  0  0  0
 12 23  1  1  0  0  0
 12 11  1  0  0  0  0
 12 24  1  0  0  0  0
 13  1  1  0  0  0  0
 14  2  1  0  0  0  0
 15  3  1  0  0  0  0
 16  8  1  0  0  0  0
 17  8  1  0  0  0  0
 19  9  1  0  0  0  0
 22 11  1  0  0  0  0
 24 26  1  0  0  0  0
 24 27  1  0  0  0  0
 25 24  1  0  0  0  0
 28 27  2  0  0  0  0
 28 29  1  0  0  0  0
 29 30  1  0  0  0  0
 29 31  1  0  0  0  0
 32 33  1  0  0  0  0
 33 34  2  0  0  0  0
 33 29  1  0  0  0  0
 34 35  1  0  0  0  0
 36 37  1  0  0  0  0
 36 34  1  0  0  0  0
 38 36  2  0  0  0  0
 39 38  1  0  0  0  0
 39 32  2  0  0  0  0
 40 41  3  0  0  0  0
 41 32  1  0  0  0  0
M  END
>  <minimizedAffinity>
-5.38102293

$$$$

 OpenBabel03242517293D

 41 43  0  0  1  0  0  0  0  0999 V2000
   37.9780   28.6780   43.6800 C   0  0  0  0  0  0  0  0  0  0  0  0
   36.9490   27.7480   43.3580 C   0  0  0  0  0  0  0  0  0  0  0  0
   36.2880   27.9090   42.1260 C   0  0  0  0  0  0  0  0  0  0  0  0
   36.6610   28.9300   41.3160 N   0  0  0  0  0  0  0  0  0  0  0  0
   37.6350   29.7950   41.6440 C   0  0  0  0  0  0  0  0  0  0  0  0
   38.2750   29.6530   42.8180 N   0  0  0  0  0  0  0  0  0  0  0  0
   37.9630   30.8250   40.7530 N   0  0  0  0  0  0  0  0  0  0  0  0
   36.9630   31.7730   40.3520 C   0  0  0  0  0  0  0  0  0  0  0  0
   37.3240   32.5450   39.1200 C   0  0  0  0  0  0  0  0  0  0  0  0
   38.7070   32.8200   38.9410 N   0  0  0  0  0  0  0  0  0  0  0  0
   39.5380   32.3890   40.0320 C   0  0  0  0  0  0  0  0  0  0  0  0
   39.3250   30.9130   40.2490 C   0  0  2  0  0  0  0  0  0  0  0  0
   38.4820   28.5500   44.6260 H   0  0  0  0  0  0  0  0  0  0  0  0
   36.6500   26.9430   43.9880 H   0  0  0  0  0  0  0  0  0  0  0  0
   35.4900   27.2300   41.8180 H   0  0  0  0  0  0  0  0  0  0  0  0
   36.6750   32.4660   41.1880 H   0  0  0  0  0  0  0  0  0  0  0  0
   36.0410   31.1960   40.1180 H   0  0  0  0  0  0  0  0  0  0  0  0
   36.9300   32.0710   38.1960 H   0  0  0  0  0  0  0  0  0  0  0  0
   36.8020   33.5360   39.1980 H   0  0  0  0  0  0  0  0  0  0  0  0
   39.1010   32.6780   38.0060 H   0  0  0  0  0  0  0  0  0  0  0  0
   40.5930   32.5920   39.7620 H   0  0  0  0  0  0  0  0  0  0  0  0
   39.2700   32.9140   40.9560 H   0  0  0  0  0  0  0  0  0  0  0  0
   40.0040   30.5920   41.0630 H   0  0  0  0  0  0  0  0  0  0  0  0
   39.5130   30.1270   38.9930 C   0  0  0  0  0  0  0  0  0  0  0  0
   38.5390   29.9730   38.5020 H   0  0  0  0  0  0  0  0  0  0  0  0
   40.2530   30.6710   38.3650 H   0  0  0  0  0  0  0  0  0  0  0  0
   40.1590   28.8130   39.3730 C   0  0  0  0  0  3  0  0  0  0  0  0
   39.4700   27.6920   39.4010 C   0  0  0  0  0  3  0  0  0  0  0  0
   40.0330   26.3580   39.7680 C   0  0  0  0  0  0  0  0  0  0  0  0
   40.8520   26.4250   40.4950 H   0  0  0  0  0  0  0  0  0  0  0  0
   40.3220   25.8070   38.8490 H   0  0  0  0  0  0  0  0  0  0  0  0
   38.9850   24.9810   41.6320 C   0  0  0  0  0  0  0  0  0  0  0  0
   38.9140   25.6040   40.3990 C   0  0  0  0  0  0  0  0  0  0  0  0
   37.6890   25.4970   39.7280 C   0  0  0  0  0  0  0  0  0  0  0  0
   37.6340   25.9880   38.7570 H   0  0  0  0  0  0  0  0  0  0  0  0
   36.5740   24.8300   40.1990 C   0  0  0  0  0  0  0  0  0  0  0  0
   35.6930   24.8210   39.5850 H   0  0  0  0  0  0  0  0  0  0  0  0
   36.6890   24.2240   41.4300 C   0  0  0  0  0  3  0  0  0  0  0  0
   37.8690   24.3030   42.1240 C   0  0  0  0  0  3  0  0  0  0  0  0
   41.2070   25.1260   42.9300 N   0  0  0  0  0  0  0  0  0  0  0  0
   40.2070   25.0610   42.3520 C   0  0  0  0  0  0  0  0  0  0  0  0
  1 13  1  0  0  0  0
  2  1  1  0  0  0  0
  2 14  1  0  0  0  0
  3  2  2  0  0  0  0
  4  5  2  0  0  0  0
  4  3  1  0  0  0  0
  5  6  1  0  0  0  0
  6  1  2  0  0  0  0
  7  5  1  0  0  0  0
  8  7  1  0  0  0  0
  8 16  1  0  0  0  0
  9 19  1  0  0  0  0
  9  8  1  0  0  0  0
 10  9  1  0  0  0  0
 10 11  1  0  0  0  0
 11 12  1  0  0  0  0
 11 22  1  0  0  0  0
 12  7  1  0  0  0  0
 12 23  1  1  0  0  0
 15  3  1  0  0  0  0
 17  8  1  0  0  0  0
 18  9  1  0  0  0  0
 20 10  1  0  0  0  0
 21 11  1  0  0  0  0
 24 27  1  0  0  0  0
 24 12  1  0  0  0  0
 25 24  1  0  0  0  0
 26 24  1  0  0  0  0
 27 28  2  0  0  0  0
 28 29  1  0  0  0  0
 29 33  1  0  0  0  0
 29 30  1  0  0  0  0
 31 29  1  0  0  0  0
 32 39  1  0  0  0  0
 32 41  1  0  0  0  0
 33 32  2  0  0  0  0
 34 36  2  0  0  0  0
 34 33  1  0  0  0  0
 35 34  1  0  0  0  0
 36 38  1  0  0  0  0
 37 36  1  0  0  0  0
 38 39  2  0  0  0  0
 41 40  3  0  0  0  0
M  END
>  <minimizedAffinity>
-5.3450737

$$$$
