
 OpenBabel03252509233D

 28 30  0  0  1  0  0  0  0  0999 V2000
   46.6100   34.7220   42.0470 C   0  0  1  0  0  0  0  0  0  0  0  0
   48.0410   35.3150   42.0550 C   0  0  0  0  0  0  0  0  0  0  0  0
   47.6770   33.8360   41.7600 C   0  0  2  0  0  0  0  0  0  0  0  0
   45.9480   35.1820   41.2950 H   0  0  0  0  0  0  0  0  0  0  0  0
   48.5350   35.5270   42.9960 H   0  0  0  0  0  0  0  0  0  0  0  0
   48.2540   35.9450   41.1730 H   0  0  0  0  0  0  0  0  0  0  0  0
   48.0740   33.1290   42.5170 H   0  0  0  0  0  0  0  0  0  0  0  0
   44.5300   35.6040   45.0490 C   0  0  0  0  0  0  0  0  0  0  0  0
   45.0910   35.6970   43.7490 C   0  0  0  0  0  0  0  0  0  0  0  0
   46.0260   34.7440   43.4470 C   0  0  0  0  0  0  0  0  0  0  0  0
   46.3930   33.7670   44.3520 N   0  0  0  0  0  0  0  0  0  0  0  0
   45.8350   33.7160   45.5760 C   0  0  0  0  0  0  0  0  0  0  0  0
   44.9000   34.6370   45.9280 N   0  0  0  0  0  0  0  0  0  0  0  0
   43.7880   36.3570   45.2950 H   0  0  0  0  0  0  0  0  0  0  0  0
   46.0940   32.9690   46.3100 H   0  0  0  0  0  0  0  0  0  0  0  0
   44.7350   36.7230   42.8250 N   0  0  0  0  0  0  0  0  0  0  0  0
   43.9870   36.7630   42.1270 H   0  0  0  0  0  0  0  0  0  0  0  0
   45.4380   37.4760   43.0210 H   0  0  0  0  0  0  0  0  0  0  0  0
   49.0740   32.6050   40.0780 C   0  0  0  0  0  0  0  0  0  0  0  0
   47.9500   33.3500   40.3770 C   0  0  0  0  0  0  0  0  0  0  0  0
   47.0220   33.6780   39.3880 C   0  0  0  0  0  0  0  0  0  0  0  0
   46.1190   34.2670   39.5780 H   0  0  0  0  0  0  0  0  0  0  0  0
   47.2390   33.2460   38.0800 C   0  0  0  0  0  0  0  0  0  0  0  0
   46.5280   33.4880   37.2830 H   0  0  0  0  0  0  0  0  0  0  0  0
   48.3700   32.5010   37.8050 C   0  0  0  0  0  3  0  0  0  0  0  0
   49.3040   32.1650   38.7750 C   0  0  0  0  0  3  0  0  0  0  0  0
   50.7860   32.0120   41.9400 N   0  0  0  0  0  0  0  0  0  0  0  0
   50.0140   32.2790   41.1070 C   0  0  0  0  0  0  0  0  0  0  0  0
  1  4  1  6  0  0  0
  1  2  1  0  0  0  0
  1 10  1  0  0  0  0
  2  5  1  0  0  0  0
  3  1  1  0  0  0  0
  3  2  1  0  0  0  0
  3  7  1  1  0  0  0
  6  2  1  0  0  0  0
  8 14  1  0  0  0  0
  8 13  1  0  0  0  0
  9  8  2  0  0  0  0
 10  9  1  0  0  0  0
 10 11  2  0  0  0  0
 11 12  1  0  0  0  0
 12 13  2  0  0  0  0
 12 15  1  0  0  0  0
 16 18  1  0  0  0  0
 16  9  1  0  0  0  0
 17 16  1  0  0  0  0
 19 20  1  0  0  0  0
 19 28  1  0  0  0  0
 20  3  1  0  0  0  0
 21 22  1  0  0  0  0
 21 20  2  0  0  0  0
 23 21  1  0  0  0  0
 24 23  1  0  0  0  0
 25 23  2  0  0  0  0
 25 26  1  0  0  0  0
 26 19  2  0  0  0  0
 28 27  3  0  0  0  0
M  END
>  <minimizedAffinity>
-4.92180824

>  <minimizedRMSD>
0.777559519

$$$$
