
     RDKit          3D

 39 42  0  0  0  0  0  0  0  0999 V2000
   45.2248   36.1804   43.4967 C   0  0  0  0  0  0  0  0  0  0  0  0
   45.8670   34.9733   43.1763 C   0  0  0  0  0  0  0  0  0  0  0  0
   45.8065   33.9972   44.1501 C   0  0  0  0  0  0  0  0  0  0  0  0
   45.1847   34.1732   45.3198 N   0  0  0  0  0  0  0  0  0  0  0  0
   44.5747   35.3655   45.5843 C   0  0  0  0  0  0  0  0  0  0  0  0
   44.6035   36.3594   44.6627 N   0  0  0  0  0  0  0  0  0  0  0  0
   46.4369   32.7557   43.8945 C   0  0  0  0  0  0  0  0  0  0  0  0
   47.7007   32.2649   44.0011 C   0  0  0  0  0  0  0  0  0  0  0  0
   48.0400   31.0330   43.6894 C   0  0  0  0  0  0  0  0  0  0  0  0
   47.0362   30.2485   43.2414 C   0  0  0  0  0  0  0  0  0  0  0  0
   45.5609   31.3343   43.2756 S   0  0  0  0  0  0  0  0  0  0  0  0
   46.5171   34.8346   41.9137 C   0  0  0  0  0  0  0  0  0  0  0  0
   47.7084   35.2551   41.8637 O   0  0  0  0  0  0  0  0  0  0  0  0
   45.7880   34.2195   40.7443 C   0  0  0  0  0  0  0  0  0  0  0  0
   44.4332   34.3158   40.4914 C   0  0  0  0  0  0  0  0  0  0  0  0
   44.2311   33.6226   39.3572 N   0  0  0  0  0  0  0  0  0  0  0  0
   45.4164   33.1237   38.9360 C   0  0  0  0  0  0  0  0  0  0  0  0
   46.3849   33.4933   39.7962 N   0  0  0  0  0  0  0  0  0  0  0  0
   45.7450   32.3242   37.7947 N   0  0  0  0  0  0  0  0  0  0  0  0
   45.2053   37.0200   42.8114 H   0  0  0  0  0  0  0  0  0  0  0  0
   44.0850   35.4564   46.5469 H   0  0  0  0  0  0  0  0  0  0  0  0
   48.4215   33.0188   44.3818 H   0  0  0  0  0  0  0  0  0  0  0  0
   49.0355   30.6130   43.7631 H   0  0  0  0  0  0  0  0  0  0  0  0
   47.1320   29.1084   42.9083 H   0  0  0  0  0  0  0  0  0  0  0  0
   43.6952   34.8260   41.0629 H   0  0  0  0  0  0  0  0  0  0  0  0
   45.2489   32.7252   36.9759 H   0  0  0  0  0  0  0  0  0  0  0  0
   46.3841   31.5005   37.8805 H   0  0  0  0  0  0  0  0  0  0  0  0
   42.3052   31.8453   41.6992 N   0  0  0  0  0  0  0  0  0  0  0  0
   42.1768   32.2325   40.6195 C   0  0  0  0  0  0  0  0  0  0  0  0
   42.0288   32.7023   39.2740 C   0  0  0  0  0  0  0  0  0  0  0  0
   43.0386   33.3899   38.6427 C   0  0  0  0  0  0  0  0  0  0  0  0
   42.8008   33.8011   37.3469 C   0  0  0  0  0  0  0  0  0  0  0  0
   43.5920   34.3375   36.8582 H   0  0  0  0  0  0  0  0  0  0  0  0
   41.6060   33.5414   36.6981 C   0  0  0  0  0  0  0  0  0  0  0  0
   41.4286   33.8717   35.6721 H   0  0  0  0  0  0  0  0  0  0  0  0
   40.5830   32.8480   37.3297 C   0  0  0  0  0  0  0  0  0  0  0  0
   40.8402   32.4445   38.6269 C   0  0  0  0  0  0  0  0  0  0  0  0
   39.6465   32.6296   36.8584 H   0  0  0  0  0  0  0  0  0  0  0  0
   40.0215   31.8966   39.1150 H   0  0  0  0  0  0  0  0  0  0  0  0
  1  6  2  0
  2  1  1  0
  2  3  2  0
  3  4  1  0
  4  5  2  0
  6  5  1  0
  7  8  2  0
  7  3  1  0
  9  8  1  0
 10 11  1  0
 10  9  2  0
 11  7  1  0
 12  2  1  0
 13 12  2  0
 14 12  1  0
 15 14  2  0
 16 15  1  0
 17 16  1  0
 17 18  2  0
 18 14  1  0
 19 17  1  0
  1 20  1  0
  5 21  1  0
  8 22  1  0
  9 23  1  0
 10 24  1  0
 15 25  1  0
 19 26  1  0
 19 27  1  0
 28 29  3  0
 29 30  1  0
 30 31  2  0
 31 32  1  0
 32 33  1  0
 32 34  2  0
 34 35  1  0
 34 36  1  0
 36 37  2  0
 37 30  1  0
 36 38  1  0
 37 39  1  0
 16 31  1  0
M  ISO  8  20  14  21  14  22  14  23  14  24  14  25  14  33  15  35  16
M  END
>  <DihAtoms>  (1) 
14,15,30,29

>  <DihDeg>  (1) 
73.22340672394748

$$$$
