REMARK  Name = 
REMARK  4 active torsions:
REMARK  status: ('A' for Active; 'I' for Inactive)
REMARK    1  A    between atoms: C_1  and  C_5
REMARK    2  A    between atoms: C_3  and  C_10
REMARK    3  A    between atoms: C_8  and  C_23
REMARK    4  A    between atoms: C_21  and  C_22
REMARK                            x       y       z     vdW  Elec       q    Type
REMARK                         _______ _______ _______ _____ _____    ______ ____
ROOT
ATOM      1  C   UNL     1      45.542  34.139  42.808  0.00  0.00    +0.000 A 
ATOM      2  C   UNL     1      46.810  33.479  42.708  0.00  0.00    +0.000 A 
ATOM      3  C   UNL     1      47.430  33.063  43.872  0.00  0.00    +0.000 A 
ATOM      4  N   UNL     1      46.801  33.304  45.059  0.00  0.00    +0.000 NA
ATOM      5  C   UNL     1      45.624  33.919  45.126  0.00  0.00    +0.000 A 
ATOM      6  N   UNL     1      44.994  34.335  44.011  0.00  0.00    +0.000 NA
ATOM      7  H   UNL     1      45.101  34.443  41.868  0.00  0.00    +0.000 HD
ATOM      8  H   UNL     1      48.386  32.560  43.857  0.00  0.00    +0.000 HD
ENDROOT
BRANCH   5  10
ATOM      9  C   UNL     1      43.761  34.797  46.479  0.00  0.00    +0.000 A 
ATOM     10  C   UNL     1      44.984  34.157  46.430  0.00  0.00    +0.000 A 
ATOM     11  C   UNL     1      45.591  33.749  47.602  0.00  0.00    +0.000 A 
ATOM     12  H   UNL     1      46.547  33.245  47.603  0.00  0.00    +0.000 HD
ATOM     13  C   UNL     1      44.998  33.967  48.840  0.00  0.00    +0.000 A 
ATOM     14  H   UNL     1      45.475  33.648  49.746  0.00  0.00    +0.000 HD
ATOM     15  C   UNL     1      43.777  34.608  48.868  0.00  0.00    +0.000 A 
ATOM     16  C   UNL     1      43.144  35.030  47.699  0.00  0.00    +0.000 A 
BRANCH   9  18
ATOM     17  N   UNL     1      42.545  35.580  44.306  0.00  0.00    +0.000 NA
ATOM     18  C   UNL     1      43.089  35.242  45.271  0.00  0.00    +0.000 C 
ENDBRANCH   9  18
ENDBRANCH   5  10
BRANCH   2  19
ATOM     19  C   UNL     1      47.455  33.265  41.372  0.00  0.00    +0.000 C 
ATOM     20  C   UNL     1      47.134  34.119  40.249  0.00  0.00    +0.000 C 
ATOM     21  C   UNL     1      48.454  34.315  40.895  0.00  0.00    +0.000 C 
ATOM     22  H   UNL     1      47.849  32.247  41.244  0.00  0.00    +0.000 HD
ATOM     23  H   UNL     1      46.380  34.942  40.298  0.00  0.00    +0.000 HD
ATOM     24  H   UNL     1      47.106  33.660  39.216  0.00  0.00    +0.000 HD
ATOM     25  H   UNL     1      49.329  33.984  40.277  0.00  0.00    +0.000 HD
BRANCH  21  26
ATOM     26  C   UNL     1      48.750  35.509  41.727  0.00  0.00    +0.000 C 
ATOM     27  F   UNL     1      49.381  36.508  41.005  0.00  0.00    +0.000 F 
ATOM     28  F   UNL     1      49.531  35.207  42.830  0.00  0.00    +0.000 F 
ATOM     29  F   UNL     1      47.552  36.030  42.166  0.00  0.00    +0.000 F 
ENDBRANCH  21  26
ENDBRANCH   2  19
TORSDOF 4
