
 OpenBabel03252509083D

 42 45  0  0  0  0  0  0  0  0999 V2000
   47.5220   31.8300   38.8500 C   0  0  0  0  0  0  0  0  0  0  0  0
   47.1270   33.1340   38.9050 C   0  0  0  0  0  0  0  0  0  0  0  0
   47.7990   34.0840   38.1560 C   0  0  0  0  0  0  0  0  0  0  0  0
   48.8560   33.7380   37.3620 C   0  0  0  0  0  0  0  0  0  0  0  0
   49.2940   32.4240   37.2750 C   0  0  0  0  0  0  0  0  0  0  0  0
   48.6050   31.4770   38.0350 C   0  0  0  0  0  0  0  0  0  0  0  0
   47.5000   35.1240   38.1850 H   0  0  0  0  0  0  0  0  0  0  0  0
   49.4100   34.4230   36.7650 H   0  0  0  0  0  0  0  0  0  0  0  0
   50.1020   32.0670   36.6860 H   0  0  0  0  0  0  0  0  0  0  0  0
   48.9180   30.4430   37.9920 H   0  0  0  0  0  0  0  0  0  0  0  0
   45.3880   35.2850   43.2660 Cl  0  0  0  0  0  0  0  0  0  0  0  0
   45.1870   34.5720   41.6830 C   0  0  0  0  0  0  0  0  0  0  0  0
   46.2570   34.1570   40.9610 C   0  0  0  0  0  0  0  0  0  0  0  0
   46.0080   33.6160   39.7110 C   0  0  0  0  0  0  0  0  0  0  0  0
   44.7450   33.5070   39.2240 C   0  0  0  0  0  0  0  0  0  0  0  0
   43.6720   33.9200   39.9420 C   0  0  0  0  0  0  0  0  0  0  0  0
   43.9070   34.4590   41.1890 C   0  0  0  0  0  0  0  0  0  0  0  0
   44.5990   33.0770   38.2320 H   0  0  0  0  0  0  0  0  0  0  0  0
   42.6740   33.8220   39.5300 H   0  0  0  0  0  0  0  0  0  0  0  0
   43.0370   34.7850   41.7550 H   0  0  0  0  0  0  0  0  0  0  0  0
   49.5980   35.6330   41.9670 C   0  0  0  0  0  0  0  0  0  0  0  0
   48.3140   35.4980   41.4290 C   0  0  0  0  0  0  0  0  0  0  0  0
   47.6000   34.3110   41.5170 C   0  0  0  0  0  0  0  0  0  0  0  0
   48.2400   33.3260   42.1530 N   0  0  0  0  0  0  0  0  0  0  0  0
   49.4690   33.4420   42.6720 C   0  0  0  0  0  0  0  0  0  0  0  0
   50.1430   34.5870   42.5810 N   0  0  0  0  0  0  0  0  0  0  0  0
   50.1200   36.5750   41.8750 H   0  0  0  0  0  0  0  0  0  0  0  0
   47.8760   36.3480   40.9320 H   0  0  0  0  0  0  0  0  0  0  0  0
   49.7740   32.5020   43.1390 H   0  0  0  0  0  0  0  0  0  0  0  0
   46.7940   30.6300   39.7930 S   0  0  0  0  0  0  0  0  0  0  0  0
   47.1740   29.2460   39.1650 O   0  0  0  0  0  0  0  0  0  0  0  0
   47.4830   30.6110   41.1250 O   0  0  0  0  0  0  0  0  0  0  0  0
   44.2300   30.1710   38.8020 C   0  0  0  0  0  0  0  0  0  0  0  0
   45.1050   30.3430   39.9040 C   0  0  0  0  0  0  0  0  0  0  0  0
   44.3840   30.2410   41.0870 C   0  0  0  0  0  0  0  0  0  0  0  0
   44.9140   30.3320   42.0220 H   0  0  0  0  0  0  0  0  0  0  0  0
   43.0340   30.0120   41.2410 C   0  0  0  0  0  0  0  0  0  0  0  0
   42.5640   29.9490   42.2110 H   0  0  0  0  0  0  0  0  0  0  0  0
   42.3170   29.8660   40.0730 C   0  0  0  0  0  3  0  0  0  0  0  0
   42.8750   29.9380   38.8170 C   0  0  0  0  0  3  0  0  0  0  0  0
   45.3430   30.2140   36.4110 N   0  0  0  0  0  0  0  0  0  0  0  0
   44.8430   30.1930   37.4760 C   0  0  0  0  0  0  0  0  0  0  0  0
  1  2  1  0  0  0  0
  1 30  1  0  0  0  0
  2 14  1  0  0  0  0
  3  7  1  0  0  0  0
  3  2  2  0  0  0  0
  4  3  1  0  0  0  0
  5  4  2  0  0  0  0
  5  6  1  0  0  0  0
  6  1  2  0  0  0  0
  8  4  1  0  0  0  0
  9  5  1  0  0  0  0
 10  6  1  0  0  0  0
 12 11  1  0  0  0  0
 13 23  1  0  0  0  0
 13 12  2  0  0  0  0
 14 13  1  0  0  0  0
 15 14  2  0  0  0  0
 15 16  1  0  0  0  0
 16 17  2  0  0  0  0
 17 12  1  0  0  0  0
 17 20  1  0  0  0  0
 18 15  1  0  0  0  0
 19 16  1  0  0  0  0
 21 26  1  0  0  0  0
 22 23  1  0  0  0  0
 22 21  2  0  0  0  0
 23 24  2  0  0  0  0
 24 25  1  0  0  0  0
 25 29  1  0  0  0  0
 26 25  2  0  0  0  0
 27 21  1  0  0  0  0
 28 22  1  0  0  0  0
 30 34  1  0  0  0  0
 30 32  2  0  0  0  0
 31 30  2  0  0  0  0
 33 40  2  0  0  0  0
 33 34  1  0  0  0  0
 34 35  2  0  0  0  0
 35 37  1  0  0  0  0
 35 36  1  0  0  0  0
 37 38  1  0  0  0  0
 39 37  2  0  0  0  0
 40 39  1  0  0  0  0
 41 42  3  0  0  0  0
 42 33  1  0  0  0  0
M  END
>  <minimizedAffinity>
-4.52134991

>  <minimizedRMSD>
1.16558385

$$$$
