
 OpenBabel03252504463D

 28 29  0  0  0  0  0  0  0  0999 V2000
   45.4320   31.1030   49.5870 O   0  0  0  0  0  0  0  0  0  0  0  0
   45.7970   31.1010   48.0960 P   0  0  1  0  0  0  0  0  0  0  0  0
   44.5370   30.2170   47.3520 O   0  0  0  0  0  0  0  0  0  0  0  0
   44.8520   29.6320   46.6410 H   0  0  0  0  0  0  0  0  0  0  0  0
   45.7920   32.7210   47.6000 O   0  0  0  0  0  0  0  0  0  0  0  0
   45.0710   34.6970   44.6740 C   0  0  0  0  0  0  0  0  0  0  0  0
   45.3450   33.7950   43.6560 C   0  0  0  0  0  0  0  0  0  0  0  0
   45.7730   32.5220   44.0270 C   0  0  0  0  0  0  0  0  0  0  0  0
   45.9010   32.2310   45.3380 N   0  0  0  0  0  0  0  0  0  0  0  0
   45.6170   33.1590   46.2980 C   0  0  0  0  0  0  0  0  0  0  0  0
   45.1980   34.4060   45.9720 N   0  0  0  0  0  0  0  0  0  0  0  0
   45.2290   34.0710   42.6240 H   0  0  0  0  0  0  0  0  0  0  0  0
   45.9880   31.8140   43.2500 H   0  0  0  0  0  0  0  0  0  0  0  0
   44.6120   36.0720   44.2610 C   0  0  0  0  0  0  0  0  0  0  0  0
   43.9630   35.9970   43.3670 H   0  0  0  0  0  0  0  0  0  0  0  0
   45.5480   36.6190   43.9990 H   0  0  0  0  0  0  0  0  0  0  0  0
   44.1350   36.5740   45.1110 H   0  0  0  0  0  0  0  0  0  0  0  0
   47.2240   30.3440   47.7630 O   0  0  0  0  0  0  0  0  0  0  0  0
   49.3640   29.3360   48.6660 C   0  0  0  0  0  0  0  0  0  0  0  0
   48.4140   30.2890   48.4040 C   0  0  0  0  0  0  0  0  0  0  0  0
   48.6900   31.5690   48.9090 C   0  0  0  0  0  0  0  0  0  0  0  0
   48.0970   32.4960   48.8370 H   0  0  0  0  0  0  0  0  0  0  0  0
   49.8570   31.8480   49.6290 C   0  0  0  0  0  0  0  0  0  0  0  0
   50.1390   32.8020   50.0470 H   0  0  0  0  0  0  0  0  0  0  0  0
   50.7780   30.8470   49.8610 C   0  0  0  0  0  3  0  0  0  0  0  0
   50.5190   29.5850   49.3720 C   0  0  0  0  0  3  0  0  0  0  0  0
   48.8080   26.9980   47.7170 N   0  0  0  0  0  0  0  0  0  0  0  0
   49.0480   28.0480   48.1370 C   0  0  0  0  0  0  0  0  0  0  0  0
  2  1  2  1  0  0  0
  3  2  1  0  0  0  0
  4  3  1  0  0  0  0
  5  2  1  0  0  0  0
  6 11  1  0  0  0  0
  7  8  1  0  0  0  0
  7  6  2  0  0  0  0
  8  9  2  0  0  0  0
  9 10  1  0  0  0  0
 10  5  1  0  0  0  0
 11 10  2  0  0  0  0
 12  7  1  0  0  0  0
 13  8  1  0  0  0  0
 14  6  1  0  0  0  0
 14 17  1  0  0  0  0
 15 14  1  0  0  0  0
 16 14  1  0  0  0  0
 18  2  1  0  0  0  0
 18 20  1  0  0  0  0
 19 26  1  0  0  0  0
 20 19  2  0  0  0  0
 20 21  1  0  0  0  0
 21 23  2  0  0  0  0
 22 21  1  0  0  0  0
 23 25  1  0  0  0  0
 23 24  1  0  0  0  0
 26 25  2  0  0  0  0
 27 28  3  0  0  0  0
 28 19  1  0  0  0  0
M  END
>  <minimizedAffinity>
-4.74012804

>  <minimizedRMSD>
1.71651506

$$$$
