REMARK  Name = 
REMARK  8 active torsions:
REMARK  status: ('A' for Active; 'I' for Inactive)
REMARK    1  A    between atoms: C_2  and  C_14
REMARK    2  A    between atoms: C_9  and  O_20
REMARK    3  A    between atoms: C_11  and  C_16
REMARK    4  A    between atoms: O_20  and  P_22
REMARK    5  A    between atoms: P_22  and  O_23
REMARK    6  A    between atoms: P_22  and  O_24
REMARK    7  A    between atoms: O_24  and  C_35
REMARK    8  A    between atoms: C_33  and  C_34
REMARK                            x       y       z     vdW  Elec       q    Type
REMARK                         _______ _______ _______ _____ _____    ______ ____
ROOT
ATOM      1  C   UNL     1      47.698  31.008  46.017  0.00  0.00    +0.000 A 
ATOM      2  C   UNL     1      46.970  32.079  45.539  0.00  0.00    +0.000 A 
ATOM      3  C   UNL     1      45.981  32.585  46.331  0.00  0.00    +0.000 A 
ATOM      4  C   UNL     1      45.684  32.068  47.583  0.00  0.00    +0.000 A 
ATOM      5  N   UNL     1      44.808  32.319  48.583  0.00  0.00    +0.000 N 
ATOM      6  C   UNL     1      44.990  31.459  49.601  0.00  0.00    +0.000 A 
ATOM      7  N   UNL     1      46.001  30.658  49.225  0.00  0.00    +0.000 NA
ATOM      8  C   UNL     1      46.438  31.011  47.999  0.00  0.00    +0.000 A 
ATOM      9  C   UNL     1      47.438  30.457  47.265  0.00  0.00    +0.000 A 
ATOM     10  H   UNL     1      48.490  30.578  45.423  0.00  0.00    +0.000 HD
ATOM     11  H   UNL     1      45.374  33.431  46.002  0.00  0.00    +0.000 HD
ATOM     12  H   UNL     1      44.100  33.104  48.507  0.00  0.00    +0.000 HD
ATOM     13  H   UNL     1      44.432  31.445  50.503  0.00  0.00    +0.000 HD
ENDROOT
BRANCH   2  18
ATOM     14  C   UNL     1      47.183  34.418  42.730  0.00  0.00    +0.000 A 
ATOM     15  C   UNL     1      47.815  33.673  41.746  0.00  0.00    +0.000 A 
ATOM     16  C   UNL     1      48.160  32.357  42.079  0.00  0.00    +0.000 A 
ATOM     17  N   UNL     1      47.877  31.866  43.309  0.00  0.00    +0.000 NA
ATOM     18  C   UNL     1      47.257  32.647  44.225  0.00  0.00    +0.000 A 
ATOM     19  N   UNL     1      46.910  33.901  43.957  0.00  0.00    +0.000 NA
ATOM     20  H   UNL     1      46.878  35.451  42.559  0.00  0.00    +0.000 HD
ATOM     21  H   UNL     1      48.654  31.766  41.318  0.00  0.00    +0.000 HD
BRANCH  15  22
ATOM     22  C   UNL     1      48.081  34.300  40.429  0.00  0.00    +0.000 C 
ATOM     23  F   UNL     1      48.581  35.554  40.734  0.00  0.00    +0.000 F 
ATOM     24  F   UNL     1      46.887  34.435  39.771  0.00  0.00    +0.000 F 
ATOM     25  F   UNL     1      48.973  33.498  39.734  0.00  0.00    +0.000 F 
ENDBRANCH  15  22
ENDBRANCH   2  18
BRANCH   9  26
ATOM     26  O   UNL     1      48.166  29.385  47.745  0.00  0.00    +0.000 OA
BRANCH  26  28
ATOM     27  O   UNL     1      49.773  28.079  49.308  0.00  0.00    +0.000 OA
ATOM     28  P   UNL     1      49.460  29.487  48.828  0.00  0.00    +0.000 P 
BRANCH  28  29
ATOM     29  O   UNL     1      48.913  30.356  50.194  0.00  0.00    +0.000 OA
ATOM     30  H   UNL     1      49.630  30.304  50.893  0.00  0.00    +0.000 HD
ENDBRANCH  28  29
BRANCH  28  31
ATOM     31  O   UNL     1      50.824  30.198  48.194  0.00  0.00    +0.000 OA
BRANCH  31  33
ATOM     32  C   UNL     1      53.021  29.903  47.332  0.00  0.00    +0.000 A 
ATOM     33  C   UNL     1      51.666  29.555  47.319  0.00  0.00    +0.000 A 
ATOM     34  C   UNL     1      51.303  28.581  46.412  0.00  0.00    +0.000 A 
ATOM     35  H   UNL     1      50.283  28.294  46.377  0.00  0.00    +0.000 HD
ATOM     36  C   UNL     1      52.172  27.958  45.551  0.00  0.00    +0.000 A 
ATOM     37  H   UNL     1      51.816  27.191  44.855  0.00  0.00    +0.000 HD
ATOM     38  C   UNL     1      53.511  28.337  45.599  0.00  0.00    +0.000 A 
ATOM     39  C   UNL     1      53.930  29.305  46.486  0.00  0.00    +0.000 A 
BRANCH  32  41
ATOM     40  N   UNL     1      53.976  31.716  48.930  0.00  0.00    +0.000 NA
ATOM     41  C   UNL     1      53.559  30.901  48.219  0.00  0.00    +0.000 C 
ENDBRANCH  32  41
ENDBRANCH  31  33
ENDBRANCH  28  31
ENDBRANCH  26  28
ENDBRANCH   9  26
TORSDOF 8
