
 OpenBabel03242513593D

 42 46  0  0  0  0  0  0  0  0999 V2000
   45.5260   32.6270   43.9260 C   0  0  0  0  0  0  0  0  0  0  0  0
   46.0380   33.6610   43.1450 C   0  0  0  0  0  0  0  0  0  0  0  0
   47.4160   33.6260   42.8260 C   0  0  0  0  0  0  0  0  0  0  0  0
   48.1520   32.5990   43.2950 N   0  0  0  0  0  0  0  0  0  0  0  0
   47.6260   31.6090   44.0520 C   0  0  0  0  0  0  0  0  0  0  0  0
   46.3000   31.6410   44.3590 N   0  0  0  0  0  0  0  0  0  0  0  0
   44.4650   32.6750   44.1570 H   0  0  0  0  0  0  0  0  0  0  0  0
   47.8870   34.3830   42.2300 H   0  0  0  0  0  0  0  0  0  0  0  0
   48.3760   30.4780   44.5830 C   0  0  0  0  0  0  0  0  0  0  0  0
   49.2860   29.7750   43.7970 C   0  0  0  0  0  0  0  0  0  0  0  0
   49.8240   28.7730   44.5900 C   0  0  0  0  0  0  0  0  0  0  0  0
   49.2490   28.8830   45.8050 N   0  0  0  0  0  0  0  0  0  0  0  0
   48.3960   29.9030   45.7690 N   0  0  0  0  0  0  0  0  0  0  0  0
   49.6100   29.8810   42.7510 H   0  0  0  0  0  0  0  0  0  0  0  0
   50.5570   28.0180   44.3590 H   0  0  0  0  0  0  0  0  0  0  0  0
   48.6570   27.0150   47.3220 C   0  0  0  0  0  0  0  0  0  0  0  0
   49.4060   28.1370   47.0080 C   0  0  0  0  0  0  0  0  0  0  0  0
   50.3750   28.5800   47.9120 C   0  0  0  0  0  0  0  0  0  0  0  0
   51.0000   29.4480   47.7370 H   0  0  0  0  0  0  0  0  0  0  0  0
   50.5660   27.8840   49.1030 C   0  0  0  0  0  0  0  0  0  0  0  0
   51.3100   28.1930   49.8350 H   0  0  0  0  0  0  0  0  0  0  0  0
   49.8190   26.7490   49.4360 C   0  0  0  0  0  3  0  0  0  0  0  0
   48.8550   26.3290   48.5120 C   0  0  0  0  0  3  0  0  0  0  0  0
   46.8880   26.2580   45.5660 N   0  0  0  0  0  0  0  0  0  0  0  0
   47.6760   26.6060   46.3570 C   0  0  0  0  0  0  0  0  0  0  0  0
   45.3080   34.7260   42.6500 O   0  0  0  0  0  0  0  0  0  0  0  0
   44.3640   34.6380   41.6320 C   0  0  0  0  0  0  0  0  0  0  0  0
   44.5110   34.0280   40.4100 C   0  0  0  0  0  0  0  0  0  0  0  0
   43.4700   34.0300   39.5070 C   0  0  0  0  0  0  0  0  0  0  0  0
   42.2530   34.6320   39.7790 C   0  0  0  0  0  0  0  0  0  0  0  0
   41.2940   34.5950   38.8630 N   0  0  0  0  0  0  0  0  0  0  0  0
   40.0920   35.1720   39.0940 C   0  0  0  0  0  0  0  0  0  0  0  0
   39.9020   35.7980   40.3160 C   0  0  0  0  0  0  0  0  0  0  0  0
   40.9130   35.8380   41.2850 C   0  0  0  0  0  0  0  0  0  0  0  0
   42.1260   35.2390   41.0130 C   0  0  0  0  0  0  0  0  0  0  0  0
   43.1670   35.2520   41.9500 C   0  0  0  0  0  0  0  0  0  0  0  0
   45.4800   33.5670   40.2320 H   0  0  0  0  0  0  0  0  0  0  0  0
   43.6200   33.5380   38.5450 H   0  0  0  0  0  0  0  0  0  0  0  0
   39.2950   35.1530   38.3560 H   0  0  0  0  0  0  0  0  0  0  0  0
   38.9860   36.2810   40.5890 H   0  0  0  0  0  0  0  0  0  0  0  0
   40.7690   36.3270   42.2450 H   0  0  0  0  0  0  0  0  0  0  0  0
   42.9480   35.7570   42.8780 H   0  0  0  0  0  0  0  0  0  0  0  0
  1  7  1  0  0  0  0
  1  6  1  0  0  0  0
  2  1  2  0  0  0  0
  3  2  1  0  0  0  0
  3  4  2  0  0  0  0
  4  5  1  0  0  0  0
  5  6  2  0  0  0  0
  5  9  1  0  0  0  0
  8  3  1  0  0  0  0
  9 13  2  0  0  0  0
 10  9  1  0  0  0  0
 10 11  2  0  0  0  0
 11 12  1  0  0  0  0
 12 17  1  0  0  0  0
 13 12  1  0  0  0  0
 14 10  1  0  0  0  0
 15 11  1  0  0  0  0
 16 23  1  0  0  0  0
 17 16  2  0  0  0  0
 17 18  1  0  0  0  0
 18 20  2  0  0  0  0
 19 18  1  0  0  0  0
 20 22  1  0  0  0  0
 20 21  1  0  0  0  0
 23 22  2  0  0  0  0
 24 25  3  0  0  0  0
 25 16  1  0  0  0  0
 26  2  1  0  0  0  0
 27 36  1  0  0  0  0
 27 26  1  0  0  0  0
 28 27  2  0  0  0  0
 29 30  2  0  0  0  0
 29 28  1  0  0  0  0
 30 35  1  0  0  0  0
 31 32  2  0  0  0  0
 31 30  1  0  0  0  0
 32 33  1  0  0  0  0
 33 40  1  0  0  0  0
 33 34  2  0  0  0  0
 34 41  1  0  0  0  0
 35 34  1  0  0  0  0
 35 36  2  0  0  0  0
 36 42  1  0  0  0  0
 37 28  1  0  0  0  0
 38 29  1  0  0  0  0
 39 32  1  0  0  0  0
M  END
>  <minimizedAffinity>
-4.88587046

>  <minimizedRMSD>
3.73371315

$$$$
