
 OpenBabel03252505433D

 43 46  0  0  1  0  0  0  0  0999 V2000
   42.6710   34.7670   40.2470 C   0  0  0  0  0  0  0  0  0  0  0  0
   42.4950   35.2020   38.9510 C   0  0  0  0  0  0  0  0  0  0  0  0
   41.3140   35.0650   38.2730 C   0  0  0  0  0  0  0  0  0  0  0  0
   40.2840   34.4780   38.9080 N   0  0  0  0  0  0  0  0  0  0  0  0
   40.4390   34.0410   40.1890 C   0  0  0  0  0  0  0  0  0  0  0  0
   41.6060   34.1780   40.8560 N   0  0  0  0  0  0  0  0  0  0  0  0
   43.3570   35.6720   38.4760 H   0  0  0  0  0  0  0  0  0  0  0  0
   41.2350   35.4270   37.2570 H   0  0  0  0  0  0  0  0  0  0  0  0
   43.9590   34.6140   42.3530 C   0  0  1  0  0  0  0  0  0  0  0  0
   44.1320   36.1030   41.8950 C   0  0  0  0  0  0  0  0  0  0  0  0
   44.0000   34.9120   40.9520 C   0  0  2  0  0  0  0  0  0  0  0  0
   42.9760   34.4860   42.8840 H   0  0  0  0  0  0  0  0  0  0  0  0
   45.1410   36.5130   41.9890 H   0  0  0  0  0  0  0  0  0  0  0  0
   43.2690   36.7610   41.9620 H   0  0  0  0  0  0  0  0  0  0  0  0
   44.8270   34.7740   40.2590 H   0  0  0  0  0  0  0  0  0  0  0  0
   45.1090   34.0930   43.1220 C   0  0  0  0  0  0  0  0  0  0  0  0
   46.3550   34.0320   42.4770 C   0  0  0  0  0  0  0  0  0  0  0  0
   47.4490   33.5480   43.1830 C   0  0  0  0  0  0  0  0  0  0  0  0
   47.2520   33.1550   44.4720 N   0  0  0  0  0  0  0  0  0  0  0  0
   46.0550   33.2270   45.0560 C   0  0  0  0  0  0  0  0  0  0  0  0
   45.0120   33.6960   44.3640 N   0  0  0  0  0  0  0  0  0  0  0  0
   46.5080   34.3390   41.4680 H   0  0  0  0  0  0  0  0  0  0  0  0
   48.4470   33.4630   42.7690 H   0  0  0  0  0  0  0  0  0  0  0  0
   46.0440   32.7510   46.4810 C   0  0  0  0  0  0  0  0  0  0  0  0
   45.0770   33.4040   47.2230 F   0  0  0  0  0  0  0  0  0  0  0  0
   47.2810   33.0880   47.0800 F   0  0  0  0  0  0  0  0  0  0  0  0
   45.9570   31.3870   46.5110 F   0  0  0  0  0  0  0  0  0  0  0  0
   39.3400   33.3660   40.9490 C   0  0  0  0  0  0  0  0  0  0  0  0
   39.7500   32.5410   41.5650 H   0  0  0  0  0  0  0  0  0  0  0  0
   38.8370   34.0680   41.6600 H   0  0  0  0  0  0  0  0  0  0  0  0
   38.3470   32.7560   39.9820 C   0  0  0  0  0  0  0  0  0  0  0  0
   38.8120   32.8050   38.9730 H   0  0  0  0  0  0  0  0  0  0  0  0
   37.4410   33.3730   39.9560 H   0  0  0  0  0  0  0  0  0  0  0  0
   38.2180   30.4320   39.2860 C   0  0  0  0  0  0  0  0  0  0  0  0
   38.0710   31.3330   40.3080 C   0  0  0  0  0  0  0  0  0  0  0  0
   37.6880   30.8540   41.5410 C   0  0  0  0  0  0  0  0  0  0  0  0
   37.5850   31.5960   42.3190 H   0  0  0  0  0  0  0  0  0  0  0  0
   37.4560   29.5110   41.7530 C   0  0  0  0  0  0  0  0  0  0  0  0
   37.1570   29.1450   42.7220 H   0  0  0  0  0  0  0  0  0  0  0  0
   37.6230   28.6680   40.6840 C   0  0  0  0  0  3  0  0  0  0  0  0
   38.0030   29.0600   39.4160 C   0  0  0  0  0  3  0  0  0  0  0  0
   38.9240   31.2310   36.8860 N   0  0  0  0  0  0  0  0  0  0  0  0
   38.6180   30.8680   37.9570 C   0  0  0  0  0  0  0  0  0  0  0  0
  1  6  1  0  0  0  0
  1 11  1  0  0  0  0
  2  1  2  0  0  0  0
  3  4  2  0  0  0  0
  3  2  1  0  0  0  0
  4  5  1  0  0  0  0
  5  6  2  0  0  0  0
  5 28  1  0  0  0  0
  7  2  1  0  0  0  0
  8  3  1  0  0  0  0
  9 12  1  1  0  0  0
  9 16  1  0  0  0  0
 10 14  1  0  0  0  0
 10 13  1  0  0  0  0
 10  9  1  0  0  0  0
 11 15  1  6  0  0  0
 11 10  1  0  0  0  0
 11  9  1  0  0  0  0
 16 21  1  0  0  0  0
 17 16  2  0  0  0  0
 17 18  1  0  0  0  0
 18 19  2  0  0  0  0
 19 20  1  0  0  0  0
 20 24  1  0  0  0  0
 21 20  2  0  0  0  0
 22 17  1  0  0  0  0
 23 18  1  0  0  0  0
 24 27  1  0  0  0  0
 24 26  1  0  0  0  0
 24 25  1  0  0  0  0
 28 29  1  0  0  0  0
 28 30  1  0  0  0  0
 31 35  1  0  0  0  0
 31 28  1  0  0  0  0
 32 31  1  0  0  0  0
 33 31  1  0  0  0  0
 34 41  2  0  0  0  0
 34 35  1  0  0  0  0
 35 36  2  0  0  0  0
 36 38  1  0  0  0  0
 36 37  1  0  0  0  0
 38 39  1  0  0  0  0
 40 38  2  0  0  0  0
 41 40  1  0  0  0  0
 42 43  3  0  0  0  0
 43 34  1  0  0  0  0
M  END
>  <minimizedAffinity>
-5.9515748

>  <minimizedRMSD>
1.24796462

$$$$
