
 OpenBabel03242517053D

 34 36  0  0  0  0  0  0  0  0999 V2000
   37.3630   30.1210   39.2650 C   0  0  0  0  0  0  0  0  0  0  0  0
   37.2290   30.8600   38.1090 C   0  0  0  0  0  0  0  0  0  0  0  0
   37.2530   32.2460   38.2140 C   0  0  0  0  0  0  0  0  0  0  0  0
   37.4030   32.8390   39.4270 C   0  0  0  0  0  0  0  0  0  0  0  0
   37.5390   32.1240   40.5950 C   0  0  0  0  0  0  0  0  0  0  0  0
   37.5140   30.7260   40.4770 C   0  0  0  0  0  0  0  0  0  0  0  0
   37.1100   30.3800   37.1420 H   0  0  0  0  0  0  0  0  0  0  0  0
   37.1440   32.7910   37.2850 H   0  0  0  0  0  0  0  0  0  0  0  0
   37.4150   33.9190   39.4640 H   0  0  0  0  0  0  0  0  0  0  0  0
   37.6610   32.5700   41.5790 H   0  0  0  0  0  0  0  0  0  0  0  0
   36.3090   26.5420   38.6630 C   0  0  0  0  0  0  0  0  0  0  0  0
   36.2070   27.9490   38.7930 C   0  0  0  0  0  0  0  0  0  0  0  0
   37.3310   28.6650   39.1030 C   0  0  0  0  0  0  0  0  0  0  0  0
   38.4920   27.9670   39.2700 N   0  0  0  0  0  0  0  0  0  0  0  0
   38.5780   26.6270   39.1450 C   0  0  0  0  0  0  0  0  0  0  0  0
   37.4850   25.9080   38.8400 N   0  0  0  0  0  0  0  0  0  0  0  0
   35.4240   25.9840   38.4190 H   0  0  0  0  0  0  0  0  0  0  0  0
   35.3000   28.4830   38.6610 H   0  0  0  0  0  0  0  0  0  0  0  0
   39.5550   26.2080   39.3040 H   0  0  0  0  0  0  0  0  0  0  0  0
   38.5220   29.7550   42.6740 C   0  0  0  0  0  0  0  0  0  0  0  0
   39.5090   30.4450   42.8710 O   0  0  0  0  0  0  0  0  0  0  0  0
   37.6340   29.8640   41.5890 N   0  0  0  0  0  0  0  0  0  0  0  0
   36.8270   29.1840   41.4900 H   0  0  0  0  0  0  0  0  0  0  0  0
   38.2580   28.7640   43.6250 O   0  0  0  0  0  0  0  0  0  0  0  0
   39.4090   26.7160   43.0950 C   0  0  0  0  0  0  0  0  0  0  0  0
   38.2180   27.4440   43.1940 C   0  0  0  0  0  0  0  0  0  0  0  0
   37.0060   26.8620   42.8660 C   0  0  0  0  0  0  0  0  0  0  0  0
   36.0830   27.4080   42.9370 H   0  0  0  0  0  0  0  0  0  0  0  0
   36.9730   25.5650   42.4420 C   0  0  0  0  0  0  0  0  0  0  0  0
   36.0290   25.0710   42.1730 H   0  0  0  0  0  0  0  0  0  0  0  0
   38.1590   24.8270   42.3390 C   0  0  0  0  0  3  0  0  0  0  0  0
   39.3840   25.4050   42.6670 C   0  0  0  0  0  3  0  0  0  0  0  0
   41.7020   27.7350   43.6670 N   0  0  0  0  0  0  0  0  0  0  0  0
   40.6670   27.2770   43.4200 C   0  0  0  0  0  0  0  0  0  0  0  0
  1  6  1  0  0  0  0
  2  3  1  0  0  0  0
  2  1  2  0  0  0  0
  3  4  2  0  0  0  0
  4  9  1  0  0  0  0
  4  5  1  0  0  0  0
  5 10  1  0  0  0  0
  6  5  2  0  0  0  0
  6 22  1  0  0  0  0
  7  2  1  0  0  0  0
  8  3  1  0  0  0  0
 11 12  2  0  0  0  0
 11 16  1  0  0  0  0
 12 13  1  0  0  0  0
 13  1  1  0  0  0  0
 13 14  2  0  0  0  0
 15 14  1  0  0  0  0
 15 19  1  0  0  0  0
 16 15  2  0  0  0  0
 17 11  1  0  0  0  0
 18 12  1  0  0  0  0
 20 21  2  0  0  0  0
 20 24  1  0  0  0  0
 22 20  1  0  0  0  0
 23 22  1  0  0  0  0
 25 26  1  0  0  0  0
 25 34  1  0  0  0  0
 26 24  1  0  0  0  0
 27 28  1  0  0  0  0
 27 26  2  0  0  0  0
 29 27  1  0  0  0  0
 30 29  1  0  0  0  0
 31 29  2  0  0  0  0
 31 32  1  0  0  0  0
 32 25  2  0  0  0  0
 34 33  3  0  0  0  0
M  END
>  <minimizedAffinity>
-5.47788429

$$$$

 OpenBabel03242517053D

 34 36  0  0  0  0  0  0  0  0999 V2000
   37.6780   30.8290   38.2070 C   0  0  0  0  0  0  0  0  0  0  0  0
   37.4020   30.9220   36.8600 C   0  0  0  0  0  0  0  0  0  0  0  0
   36.6690   29.8970   36.2720 C   0  0  0  0  0  0  0  0  0  0  0  0
   36.2470   28.8420   37.0170 C   0  0  0  0  0  0  0  0  0  0  0  0
   36.5100   28.7270   38.3630 C   0  0  0  0  0  0  0  0  0  0  0  0
   37.2500   29.7670   38.9460 C   0  0  0  0  0  0  0  0  0  0  0  0
   37.7420   31.7680   36.2710 H   0  0  0  0  0  0  0  0  0  0  0  0
   36.4730   30.0060   35.2140 H   0  0  0  0  0  0  0  0  0  0  0  0
   35.6810   28.0670   36.5210 H   0  0  0  0  0  0  0  0  0  0  0  0
   36.1850   27.8950   38.9850 H   0  0  0  0  0  0  0  0  0  0  0  0
   40.4030   33.2890   39.1080 C   0  0  0  0  0  0  0  0  0  0  0  0
   39.7640   32.1880   38.4850 C   0  0  0  0  0  0  0  0  0  0  0  0
   38.4540   31.9330   38.7810 C   0  0  0  0  0  0  0  0  0  0  0  0
   37.8380   32.7670   39.6690 N   0  0  0  0  0  0  0  0  0  0  0  0
   38.4550   33.8120   40.2560 C   0  0  0  0  0  0  0  0  0  0  0  0
   39.7420   34.0780   39.9770 N   0  0  0  0  0  0  0  0  0  0  0  0
   41.4320   33.4860   38.8720 H   0  0  0  0  0  0  0  0  0  0  0  0
   40.2520   31.5450   37.7960 H   0  0  0  0  0  0  0  0  0  0  0  0
   37.8510   34.3860   40.9360 H   0  0  0  0  0  0  0  0  0  0  0  0
   37.0460   29.2480   41.4900 C   0  0  0  0  0  0  0  0  0  0  0  0
   35.9990   28.6250   41.5770 O   0  0  0  0  0  0  0  0  0  0  0  0
   37.6010   29.7810   40.3130 N   0  0  0  0  0  0  0  0  0  0  0  0
   38.4980   30.3430   40.3550 H   0  0  0  0  0  0  0  0  0  0  0  0
   37.7510   29.4430   42.6820 O   0  0  0  0  0  0  0  0  0  0  0  0
   40.1120   28.9960   42.8420 C   0  0  0  0  0  0  0  0  0  0  0  0
   38.7870   28.5650   42.9750 C   0  0  0  0  0  0  0  0  0  0  0  0
   38.5030   27.2770   43.3930 C   0  0  0  0  0  0  0  0  0  0  0  0
   37.4900   26.9310   43.5000 H   0  0  0  0  0  0  0  0  0  0  0  0
   39.5250   26.4190   43.6780 C   0  0  0  0  0  0  0  0  0  0  0  0
   39.3370   25.3890   44.0130 H   0  0  0  0  0  0  0  0  0  0  0  0
   40.8550   26.8390   43.5490 C   0  0  0  0  0  3  0  0  0  0  0  0
   41.1510   28.1350   43.1290 C   0  0  0  0  0  3  0  0  0  0  0  0
   40.7320   31.3710   42.0680 N   0  0  0  0  0  0  0  0  0  0  0  0
   40.4420   30.3050   42.4160 C   0  0  0  0  0  0  0  0  0  0  0  0
  1 13  1  0  0  0  0
  1  6  1  0  0  0  0
  2  1  2  0  0  0  0
  3  2  1  0  0  0  0
  3  4  2  0  0  0  0
  4  5  1  0  0  0  0
  5  6  2  0  0  0  0
  5 10  1  0  0  0  0
  6 22  1  0  0  0  0
  7  2  1  0  0  0  0
  8  3  1  0  0  0  0
  9  4  1  0  0  0  0
 11 16  1  0  0  0  0
 12 13  1  0  0  0  0
 12 11  2  0  0  0  0
 13 14  2  0  0  0  0
 14 15  1  0  0  0  0
 15 19  1  0  0  0  0
 16 15  2  0  0  0  0
 17 11  1  0  0  0  0
 18 12  1  0  0  0  0
 20 21  2  0  0  0  0
 20 24  1  0  0  0  0
 22 23  1  0  0  0  0
 22 20  1  0  0  0  0
 24 26  1  0  0  0  0
 25 26  2  0  0  0  0
 25 32  1  0  0  0  0
 26 27  1  0  0  0  0
 27 28  1  0  0  0  0
 27 29  2  0  0  0  0
 29 30  1  0  0  0  0
 31 29  1  0  0  0  0
 32 31  2  0  0  0  0
 33 34  3  0  0  0  0
 34 25  1  0  0  0  0
M  END
>  <minimizedAffinity>
-5.43452215

$$$$

 OpenBabel03242517053D

 34 36  0  0  0  0  0  0  0  0999 V2000
   38.5720   26.6880   41.8670 C   0  0  0  0  0  0  0  0  0  0  0  0
   39.3680   25.8200   42.5840 C   0  0  0  0  0  0  0  0  0  0  0  0
   38.9640   24.4930   42.6790 C   0  0  0  0  0  0  0  0  0  0  0  0
   37.8170   24.0810   42.0790 C   0  0  0  0  0  0  0  0  0  0  0  0
   37.0060   24.9280   41.3590 C   0  0  0  0  0  0  0  0  0  0  0  0
   37.4230   26.2650   41.2680 C   0  0  0  0  0  0  0  0  0  0  0  0
   40.2840   26.1560   43.0600 H   0  0  0  0  0  0  0  0  0  0  0  0
   39.6140   23.8430   43.2500 H   0  0  0  0  0  0  0  0  0  0  0  0
   37.5390   23.0410   42.1790 H   0  0  0  0  0  0  0  0  0  0  0  0
   36.0830   24.6270   40.8680 H   0  0  0  0  0  0  0  0  0  0  0  0
   39.5310   30.2580   42.6570 C   0  0  0  0  0  0  0  0  0  0  0  0
   39.0540   28.9390   42.8570 C   0  0  0  0  0  0  0  0  0  0  0  0
   39.0390   28.0750   41.7960 C   0  0  0  0  0  0  0  0  0  0  0  0
   39.4910   28.5490   40.5970 N   0  0  0  0  0  0  0  0  0  0  0  0
   39.9430   29.8060   40.4180 C   0  0  0  0  0  0  0  0  0  0  0  0
   39.9660   30.6670   41.4490 N   0  0  0  0  0  0  0  0  0  0  0  0
   39.5420   30.9320   43.4930 H   0  0  0  0  0  0  0  0  0  0  0  0
   38.7050   28.5810   43.7930 H   0  0  0  0  0  0  0  0  0  0  0  0
   40.2680   30.0450   39.4210 H   0  0  0  0  0  0  0  0  0  0  0  0
   36.2060   27.3840   39.2550 C   0  0  0  0  0  0  0  0  0  0  0  0
   36.3820   26.5990   38.3370 O   0  0  0  0  0  0  0  0  0  0  0  0
   36.6900   27.2480   40.5690 N   0  0  0  0  0  0  0  0  0  0  0  0
   36.5150   28.0120   41.2830 H   0  0  0  0  0  0  0  0  0  0  0  0
   35.4510   28.5230   38.9620 O   0  0  0  0  0  0  0  0  0  0  0  0
   36.6800   30.4090   38.1040 C   0  0  0  0  0  0  0  0  0  0  0  0
   36.0400   29.7640   39.1690 C   0  0  0  0  0  0  0  0  0  0  0  0
   35.9910   30.3510   40.4220 C   0  0  0  0  0  0  0  0  0  0  0  0
   35.5030   29.8680   41.2490 H   0  0  0  0  0  0  0  0  0  0  0  0
   36.5720   31.5700   40.6190 C   0  0  0  0  0  0  0  0  0  0  0  0
   36.5520   32.0650   41.6000 H   0  0  0  0  0  0  0  0  0  0  0  0
   37.2150   32.2240   39.5610 C   0  0  0  0  0  3  0  0  0  0  0  0
   37.2690   31.6410   38.2950 C   0  0  0  0  0  3  0  0  0  0  0  0
   36.7900   29.3700   35.7520 N   0  0  0  0  0  0  0  0  0  0  0  0
   36.7510   29.8400   36.8100 C   0  0  0  0  0  0  0  0  0  0  0  0
  1  2  1  0  0  0  0
  2  3  2  0  0  0  0
  2  7  1  0  0  0  0
  3  8  1  0  0  0  0
  4  9  1  0  0  0  0
  4  3  1  0  0  0  0
  5  4  2  0  0  0  0
  6  5  1  0  0  0  0
  6  1  2  0  0  0  0
 10  5  1  0  0  0  0
 11 12  1  0  0  0  0
 11 17  1  0  0  0  0
 12 18  1  0  0  0  0
 13  1  1  0  0  0  0
 13 12  2  0  0  0  0
 14 13  1  0  0  0  0
 15 14  2  0  0  0  0
 15 16  1  0  0  0  0
 16 11  2  0  0  0  0
 19 15  1  0  0  0  0
 20 22  1  0  0  0  0
 21 20  2  0  0  0  0
 22  6  1  0  0  0  0
 22 23  1  0  0  0  0
 24 26  1  0  0  0  0
 24 20  1  0  0  0  0
 25 32  2  0  0  0  0
 25 26  1  0  0  0  0
 26 27  2  0  0  0  0
 27 29  1  0  0  0  0
 27 28  1  0  0  0  0
 29 30  1  0  0  0  0
 31 29  2  0  0  0  0
 32 31  1  0  0  0  0
 33 34  3  0  0  0  0
 34 25  1  0  0  0  0
M  END
>  <minimizedAffinity>
-5.38471413

$$$$

 OpenBabel03242517053D

 34 36  0  0  0  0  0  0  0  0999 V2000
   37.3840   31.2190   39.9910 C   0  0  0  0  0  0  0  0  0  0  0  0
   37.4310   32.5200   39.5380 C   0  0  0  0  0  0  0  0  0  0  0  0
   38.3860   33.3680   40.0900 C   0  0  0  0  0  0  0  0  0  0  0  0
   39.2370   32.9130   41.0450 C   0  0  0  0  0  0  0  0  0  0  0  0
   39.2100   31.6190   41.5120 C   0  0  0  0  0  0  0  0  0  0  0  0
   38.2440   30.7720   40.9490 C   0  0  0  0  0  0  0  0  0  0  0  0
   36.7480   32.8780   38.7740 H   0  0  0  0  0  0  0  0  0  0  0  0
   38.3910   34.3810   39.7090 H   0  0  0  0  0  0  0  0  0  0  0  0
   39.9630   33.6050   41.4480 H   0  0  0  0  0  0  0  0  0  0  0  0
   39.8780   31.2260   42.2760 H   0  0  0  0  0  0  0  0  0  0  0  0
   35.2710   29.2120   37.5840 C   0  0  0  0  0  0  0  0  0  0  0  0
   36.3140   30.0510   38.0500 C   0  0  0  0  0  0  0  0  0  0  0  0
   36.3620   30.3650   39.3810 C   0  0  0  0  0  0  0  0  0  0  0  0
   35.3880   29.8430   40.1830 N   0  0  0  0  0  0  0  0  0  0  0  0
   34.3990   29.0460   39.7290 C   0  0  0  0  0  0  0  0  0  0  0  0
   34.3380   28.7260   38.4250 N   0  0  0  0  0  0  0  0  0  0  0  0
   35.2380   28.9670   36.5390 H   0  0  0  0  0  0  0  0  0  0  0  0
   37.0660   30.4510   37.4180 H   0  0  0  0  0  0  0  0  0  0  0  0
   33.6990   28.7060   40.4700 H   0  0  0  0  0  0  0  0  0  0  0  0
   37.8140   28.7560   42.5430 C   0  0  0  0  0  0  0  0  0  0  0  0
   37.6710   29.2770   43.6380 O   0  0  0  0  0  0  0  0  0  0  0  0
   38.0930   29.4220   41.3350 N   0  0  0  0  0  0  0  0  0  0  0  0
   38.2410   28.8690   40.4440 H   0  0  0  0  0  0  0  0  0  0  0  0
   37.6880   27.3650   42.4970 O   0  0  0  0  0  0  0  0  0  0  0  0
   39.2200   25.8750   41.3860 C   0  0  0  0  0  0  0  0  0  0  0  0
   38.8520   26.6060   42.5210 C   0  0  0  0  0  0  0  0  0  0  0  0
   39.6340   26.5770   43.6630 C   0  0  0  0  0  0  0  0  0  0  0  0
   39.3640   27.1320   44.5420 H   0  0  0  0  0  0  0  0  0  0  0  0
   40.7750   25.8290   43.6800 C   0  0  0  0  0  0  0  0  0  0  0  0
   41.4200   25.7820   44.5680 H   0  0  0  0  0  0  0  0  0  0  0  0
   41.1530   25.0940   42.5500 C   0  0  0  0  0  3  0  0  0  0  0  0
   40.3720   25.1160   41.3950 C   0  0  0  0  0  3  0  0  0  0  0  0
   37.8290   25.8760   39.2200 N   0  0  0  0  0  0  0  0  0  0  0  0
   38.4460   25.8790   40.2010 C   0  0  0  0  0  0  0  0  0  0  0  0
  1  6  1  0  0  0  0
  2  1  2  0  0  0  0
  2  3  1  0  0  0  0
  3  4  2  0  0  0  0
  4  9  1  0  0  0  0
  4  5  1  0  0  0  0
  5 10  1  0  0  0  0
  6 22  1  0  0  0  0
  6  5  2  0  0  0  0
  7  2  1  0  0  0  0
  8  3  1  0  0  0  0
 11 12  2  0  0  0  0
 11 16  1  0  0  0  0
 12 13  1  0  0  0  0
 13  1  1  0  0  0  0
 13 14  2  0  0  0  0
 15 14  1  0  0  0  0
 15 19  1  0  0  0  0
 16 15  2  0  0  0  0
 17 11  1  0  0  0  0
 18 12  1  0  0  0  0
 20 21  2  0  0  0  0
 22 20  1  0  0  0  0
 23 22  1  0  0  0  0
 24 26  1  0  0  0  0
 24 20  1  0  0  0  0
 25 32  2  0  0  0  0
 25 26  1  0  0  0  0
 26 27  2  0  0  0  0
 27 29  1  0  0  0  0
 27 28  1  0  0  0  0
 29 30  1  0  0  0  0
 31 29  2  0  0  0  0
 32 31  1  0  0  0  0
 33 34  3  0  0  0  0
 34 25  1  0  0  0  0
M  END
>  <minimizedAffinity>
-5.30873203

$$$$

 OpenBabel03242517053D

 34 36  0  0  0  0  0  0  0  0999 V2000
   36.4890   26.1000   39.4480 C   0  0  0  0  0  0  0  0  0  0  0  0
   36.0200   25.0310   38.7140 C   0  0  0  0  0  0  0  0  0  0  0  0
   36.0240   23.7760   39.3130 C   0  0  0  0  0  0  0  0  0  0  0  0
   36.4800   23.6250   40.5840 C   0  0  0  0  0  0  0  0  0  0  0  0
   36.9520   24.6760   41.3370 C   0  0  0  0  0  0  0  0  0  0  0  0
   36.9430   25.9370   40.7230 C   0  0  0  0  0  0  0  0  0  0  0  0
   35.6570   25.1600   37.6990 H   0  0  0  0  0  0  0  0  0  0  0  0
   35.6490   22.9640   38.7050 H   0  0  0  0  0  0  0  0  0  0  0  0
   36.4660   22.6320   41.0110 H   0  0  0  0  0  0  0  0  0  0  0  0
   37.3230   24.5850   42.3550 H   0  0  0  0  0  0  0  0  0  0  0  0
   35.4370   29.3160   37.7640 C   0  0  0  0  0  0  0  0  0  0  0  0
   35.3240   28.0600   38.4120 C   0  0  0  0  0  0  0  0  0  0  0  0
   36.4660   27.4000   38.7740 C   0  0  0  0  0  0  0  0  0  0  0  0
   37.6560   28.0030   38.4820 N   0  0  0  0  0  0  0  0  0  0  0  0
   37.7530   29.1970   37.8650 C   0  0  0  0  0  0  0  0  0  0  0  0
   36.6410   29.8600   37.5030 N   0  0  0  0  0  0  0  0  0  0  0  0
   34.5370   29.8310   37.4830 H   0  0  0  0  0  0  0  0  0  0  0  0
   34.3930   27.6010   38.6340 H   0  0  0  0  0  0  0  0  0  0  0  0
   38.7530   29.5540   37.6970 H   0  0  0  0  0  0  0  0  0  0  0  0
   37.1110   27.7540   42.5820 C   0  0  0  0  0  0  0  0  0  0  0  0
   36.2650   27.4160   43.3950 O   0  0  0  0  0  0  0  0  0  0  0  0
   37.4040   27.1040   41.3700 N   0  0  0  0  0  0  0  0  0  0  0  0
   38.1320   27.5070   40.7120 H   0  0  0  0  0  0  0  0  0  0  0  0
   37.8510   28.8980   42.8960 O   0  0  0  0  0  0  0  0  0  0  0  0
   38.9560   30.6690   41.6960 C   0  0  0  0  0  0  0  0  0  0  0  0
   37.7850   29.9750   42.0210 C   0  0  0  0  0  0  0  0  0  0  0  0
   36.5690   30.3520   41.4800 C   0  0  0  0  0  0  0  0  0  0  0  0
   35.6610   29.8290   41.7200 H   0  0  0  0  0  0  0  0  0  0  0  0
   36.5120   31.4110   40.6220 C   0  0  0  0  0  0  0  0  0  0  0  0
   35.5630   31.7390   40.1730 H   0  0  0  0  0  0  0  0  0  0  0  0
   37.6770   32.1130   40.2900 C   0  0  0  0  0  3  0  0  0  0  0  0
   38.9070   31.7410   40.8290 C   0  0  0  0  0  3  0  0  0  0  0  0
   41.2480   30.0030   42.6600 N   0  0  0  0  0  0  0  0  0  0  0  0
   40.2180   30.3130   42.2290 C   0  0  0  0  0  0  0  0  0  0  0  0
  1  6  1  0  0  0  0
  2  3  1  0  0  0  0
  2  1  2  0  0  0  0
  3  4  2  0  0  0  0
  4  9  1  0  0  0  0
  4  5  1  0  0  0  0
  5 10  1  0  0  0  0
  6  5  2  0  0  0  0
  6 22  1  0  0  0  0
  7  2  1  0  0  0  0
  8  3  1  0  0  0  0
 11 12  1  0  0  0  0
 12 18  1  0  0  0  0
 12 13  2  0  0  0  0
 13  1  1  0  0  0  0
 14 13  1  0  0  0  0
 15 14  2  0  0  0  0
 16 11  2  0  0  0  0
 16 15  1  0  0  0  0
 17 11  1  0  0  0  0
 19 15  1  0  0  0  0
 20 24  1  0  0  0  0
 20 21  2  0  0  0  0
 22 20  1  0  0  0  0
 23 22  1  0  0  0  0
 25 26  1  0  0  0  0
 25 34  1  0  0  0  0
 26 24  1  0  0  0  0
 27 28  1  0  0  0  0
 27 26  2  0  0  0  0
 29 27  1  0  0  0  0
 30 29  1  0  0  0  0
 31 29  2  0  0  0  0
 31 32  1  0  0  0  0
 32 25  2  0  0  0  0
 34 33  3  0  0  0  0
M  END
>  <minimizedAffinity>
-5.29748344

$$$$

 OpenBabel03242517053D

 34 36  0  0  0  0  0  0  0  0999 V2000
   36.8120   29.5750   37.6880 C   0  0  0  0  0  0  0  0  0  0  0  0
   36.5930   29.5100   36.3290 C   0  0  0  0  0  0  0  0  0  0  0  0
   35.3160   29.1800   35.8880 C   0  0  0  0  0  0  0  0  0  0  0  0
   34.3250   28.9310   36.7840 C   0  0  0  0  0  0  0  0  0  0  0  0
   34.5190   28.9900   38.1450 C   0  0  0  0  0  0  0  0  0  0  0  0
   35.8110   29.3240   38.5790 C   0  0  0  0  0  0  0  0  0  0  0  0
   37.3900   29.7100   35.6180 H   0  0  0  0  0  0  0  0  0  0  0  0
   35.1840   29.1390   34.8150 H   0  0  0  0  0  0  0  0  0  0  0  0
   33.3480   28.6780   36.3990 H   0  0  0  0  0  0  0  0  0  0  0  0
   33.7460   28.7960   38.8860 H   0  0  0  0  0  0  0  0  0  0  0  0
   40.0610   31.3730   38.3890 C   0  0  0  0  0  0  0  0  0  0  0  0
   38.7320   31.1620   37.9440 C   0  0  0  0  0  0  0  0  0  0  0  0
   38.1730   29.9250   38.1030 C   0  0  0  0  0  0  0  0  0  0  0  0
   38.9430   28.9600   38.6870 N   0  0  0  0  0  0  0  0  0  0  0  0
   40.2070   29.1710   39.1060 C   0  0  0  0  0  0  0  0  0  0  0  0
   40.7720   30.3810   38.9590 N   0  0  0  0  0  0  0  0  0  0  0  0
   40.4960   32.3470   38.2630 H   0  0  0  0  0  0  0  0  0  0  0  0
   38.1420   31.9190   37.4910 H   0  0  0  0  0  0  0  0  0  0  0  0
   40.6970   28.3220   39.5480 H   0  0  0  0  0  0  0  0  0  0  0  0
   36.4010   30.4680   40.8430 C   0  0  0  0  0  0  0  0  0  0  0  0
   36.3970   31.6600   40.5760 O   0  0  0  0  0  0  0  0  0  0  0  0
   36.1590   29.4140   39.9440 N   0  0  0  0  0  0  0  0  0  0  0  0
   36.2280   28.4080   40.2710 H   0  0  0  0  0  0  0  0  0  0  0  0
   36.6740   30.1320   42.1720 O   0  0  0  0  0  0  0  0  0  0  0  0
   38.7460   28.9770   42.5910 C   0  0  0  0  0  0  0  0  0  0  0  0
   37.3570   28.9470   42.4150 C   0  0  0  0  0  0  0  0  0  0  0  0
   36.6650   27.7500   42.4790 C   0  0  0  0  0  0  0  0  0  0  0  0
   35.5980   27.7110   42.3460 H   0  0  0  0  0  0  0  0  0  0  0  0
   37.3420   26.5900   42.7170 C   0  0  0  0  0  0  0  0  0  0  0  0
   36.8250   25.6220   42.7750 H   0  0  0  0  0  0  0  0  0  0  0  0
   38.7310   26.6080   42.8940 C   0  0  0  0  0  3  0  0  0  0  0  0
   39.4380   27.8080   42.8320 C   0  0  0  0  0  3  0  0  0  0  0  0
   40.0830   31.1740   42.4940 N   0  0  0  0  0  0  0  0  0  0  0  0
   39.4890   30.1800   42.5310 C   0  0  0  0  0  0  0  0  0  0  0  0
  1 13  1  0  0  0  0
  1  6  1  0  0  0  0
  2  1  2  0  0  0  0
  3  2  1  0  0  0  0
  3  4  2  0  0  0  0
  4  5  1  0  0  0  0
  5  6  2  0  0  0  0
  5 10  1  0  0  0  0
  6 22  1  0  0  0  0
  7  2  1  0  0  0  0
  8  3  1  0  0  0  0
  9  4  1  0  0  0  0
 11 16  1  0  0  0  0
 12 13  1  0  0  0  0
 12 11  2  0  0  0  0
 13 14  2  0  0  0  0
 14 15  1  0  0  0  0
 15 19  1  0  0  0  0
 16 15  2  0  0  0  0
 17 11  1  0  0  0  0
 18 12  1  0  0  0  0
 20 24  1  0  0  0  0
 21 20  2  0  0  0  0
 22 23  1  0  0  0  0
 22 20  1  0  0  0  0
 24 26  1  0  0  0  0
 25 32  1  0  0  0  0
 26 27  1  0  0  0  0
 26 25  2  0  0  0  0
 27 29  2  0  0  0  0
 28 27  1  0  0  0  0
 29 30  1  0  0  0  0
 29 31  1  0  0  0  0
 32 31  2  0  0  0  0
 33 34  3  0  0  0  0
 34 25  1  0  0  0  0
M  END
>  <minimizedAffinity>
-5.25764132

$$$$

 OpenBabel03242517053D

 34 36  0  0  0  0  0  0  0  0999 V2000
   37.5070   31.4450   39.4950 C   0  0  0  0  0  0  0  0  0  0  0  0
   37.0760   32.7480   39.3700 C   0  0  0  0  0  0  0  0  0  0  0  0
   37.8580   33.7500   39.9340 C   0  0  0  0  0  0  0  0  0  0  0  0
   39.0080   33.4370   40.5860 C   0  0  0  0  0  0  0  0  0  0  0  0
   39.4580   32.1440   40.7240 C   0  0  0  0  0  0  0  0  0  0  0  0
   38.6620   31.1410   40.1510 C   0  0  0  0  0  0  0  0  0  0  0  0
   36.1560   32.9920   38.8470 H   0  0  0  0  0  0  0  0  0  0  0  0
   37.4870   34.7600   39.8160 H   0  0  0  0  0  0  0  0  0  0  0  0
   39.5850   34.2460   41.0110 H   0  0  0  0  0  0  0  0  0  0  0  0
   40.3740   31.8620   41.2410 H   0  0  0  0  0  0  0  0  0  0  0  0
   35.8520   29.0210   37.1130 C   0  0  0  0  0  0  0  0  0  0  0  0
   36.7420   30.0180   37.5830 C   0  0  0  0  0  0  0  0  0  0  0  0
   36.6490   30.4250   38.8850 C   0  0  0  0  0  0  0  0  0  0  0  0
   35.6900   29.8350   39.6580 N   0  0  0  0  0  0  0  0  0  0  0  0
   34.8470   28.8870   39.2010 C   0  0  0  0  0  0  0  0  0  0  0  0
   34.9250   28.4750   37.9250 N   0  0  0  0  0  0  0  0  0  0  0  0
   35.9300   28.7040   36.0890 H   0  0  0  0  0  0  0  0  0  0  0  0
   37.4840   30.4710   36.9730 H   0  0  0  0  0  0  0  0  0  0  0  0
   34.1410   28.5090   39.9180 H   0  0  0  0  0  0  0  0  0  0  0  0
   38.7680   28.7350   41.1440 C   0  0  0  0  0  0  0  0  0  0  0  0
   38.2060   28.8410   42.2230 O   0  0  0  0  0  0  0  0  0  0  0  0
   38.9940   29.7700   40.2190 N   0  0  0  0  0  0  0  0  0  0  0  0
   39.5320   29.5790   39.3260 H   0  0  0  0  0  0  0  0  0  0  0  0
   39.2270   27.4580   40.8080 O   0  0  0  0  0  0  0  0  0  0  0  0
   38.3080   25.4320   41.7300 C   0  0  0  0  0  0  0  0  0  0  0  0
   38.2960   26.4280   40.7470 C   0  0  0  0  0  0  0  0  0  0  0  0
   37.3690   26.3940   39.7200 C   0  0  0  0  0  0  0  0  0  0  0  0
   37.3480   27.1520   38.9570 H   0  0  0  0  0  0  0  0  0  0  0  0
   36.4590   25.3790   39.6670 C   0  0  0  0  0  0  0  0  0  0  0  0
   35.7090   25.3200   38.8650 H   0  0  0  0  0  0  0  0  0  0  0  0
   36.4610   24.3770   40.6440 C   0  0  0  0  0  3  0  0  0  0  0  0
   37.3910   24.4030   41.6840 C   0  0  0  0  0  3  0  0  0  0  0  0
   39.9900   25.4210   43.6790 N   0  0  0  0  0  0  0  0  0  0  0  0
   39.2400   25.4330   42.7960 C   0  0  0  0  0  0  0  0  0  0  0  0
  1  6  1  0  0  0  0
  2  1  2  0  0  0  0
  2  3  1  0  0  0  0
  3  4  2  0  0  0  0
  4  5  1  0  0  0  0
  4  9  1  0  0  0  0
  5 10  1  0  0  0  0
  6 22  1  0  0  0  0
  6  5  2  0  0  0  0
  7  2  1  0  0  0  0
  8  3  1  0  0  0  0
 11 12  2  0  0  0  0
 11 16  1  0  0  0  0
 12 13  1  0  0  0  0
 13  1  1  0  0  0  0
 13 14  2  0  0  0  0
 15 14  1  0  0  0  0
 15 19  1  0  0  0  0
 16 15  2  0  0  0  0
 17 11  1  0  0  0  0
 18 12  1  0  0  0  0
 20 21  2  0  0  0  0
 22 20  1  0  0  0  0
 23 22  1  0  0  0  0
 24 20  1  0  0  0  0
 25 34  1  0  0  0  0
 26 24  1  0  0  0  0
 26 25  2  0  0  0  0
 27 26  1  0  0  0  0
 28 27  1  0  0  0  0
 29 27  2  0  0  0  0
 29 31  1  0  0  0  0
 30 29  1  0  0  0  0
 31 32  2  0  0  0  0
 32 25  1  0  0  0  0
 34 33  3  0  0  0  0
M  END
>  <minimizedAffinity>
-5.21362734

$$$$

 OpenBabel03242517053D

 34 36  0  0  0  0  0  0  0  0999 V2000
   37.5310   30.0680   37.5340 C   0  0  0  0  0  0  0  0  0  0  0  0
   36.9330   30.4100   36.3410 C   0  0  0  0  0  0  0  0  0  0  0  0
   36.5410   29.3820   35.4900 C   0  0  0  0  0  0  0  0  0  0  0  0
   36.7500   28.0860   35.8390 C   0  0  0  0  0  0  0  0  0  0  0  0
   37.3450   27.7200   37.0250 C   0  0  0  0  0  0  0  0  0  0  0  0
   37.7360   28.7650   37.8760 C   0  0  0  0  0  0  0  0  0  0  0  0
   36.7680   31.4480   36.0680 H   0  0  0  0  0  0  0  0  0  0  0  0
   36.0760   29.6900   34.5630 H   0  0  0  0  0  0  0  0  0  0  0  0
   36.4320   27.3180   35.1490 H   0  0  0  0  0  0  0  0  0  0  0  0
   37.5260   26.6920   37.3320 H   0  0  0  0  0  0  0  0  0  0  0  0
   37.5660   32.9840   39.9390 C   0  0  0  0  0  0  0  0  0  0  0  0
   37.0550   31.9270   39.1450 C   0  0  0  0  0  0  0  0  0  0  0  0
   37.9270   31.1860   38.3960 C   0  0  0  0  0  0  0  0  0  0  0  0
   39.2500   31.5180   38.4640 N   0  0  0  0  0  0  0  0  0  0  0  0
   39.7250   32.5260   39.2220 C   0  0  0  0  0  0  0  0  0  0  0  0
   38.8830   33.2640   39.9650 N   0  0  0  0  0  0  0  0  0  0  0  0
   36.8770   33.5640   40.5260 H   0  0  0  0  0  0  0  0  0  0  0  0
   36.0250   31.6780   39.0990 H   0  0  0  0  0  0  0  0  0  0  0  0
   40.7880   32.6770   39.1810 H   0  0  0  0  0  0  0  0  0  0  0  0
   39.5180   27.8570   39.5460 C   0  0  0  0  0  0  0  0  0  0  0  0
   40.2720   27.2070   38.8410 O   0  0  0  0  0  0  0  0  0  0  0  0
   38.3650   28.5420   39.1200 N   0  0  0  0  0  0  0  0  0  0  0  0
   37.7530   29.0440   39.8250 H   0  0  0  0  0  0  0  0  0  0  0  0
   39.8390   27.9200   40.9050 O   0  0  0  0  0  0  0  0  0  0  0  0
   38.5140   28.8510   42.6880 C   0  0  0  0  0  0  0  0  0  0  0  0
   38.8060   27.7890   41.8240 C   0  0  0  0  0  0  0  0  0  0  0  0
   38.0760   26.6140   41.8800 C   0  0  0  0  0  0  0  0  0  0  0  0
   38.2880   25.7900   41.2230 H   0  0  0  0  0  0  0  0  0  0  0  0
   37.0630   26.4920   42.7850 C   0  0  0  0  0  0  0  0  0  0  0  0
   36.4620   25.5740   42.8570 H   0  0  0  0  0  0  0  0  0  0  0  0
   36.7620   27.5480   43.6550 C   0  0  0  0  0  3  0  0  0  0  0  0
   37.4920   28.7350   43.6060 C   0  0  0  0  0  3  0  0  0  0  0  0
   39.8300   31.0620   42.6200 N   0  0  0  0  0  0  0  0  0  0  0  0
   39.2390   30.0670   42.6620 C   0  0  0  0  0  0  0  0  0  0  0  0
  1  6  1  0  0  0  0
  1 13  1  0  0  0  0
  2  1  2  0  0  0  0
  3  4  2  0  0  0  0
  3  2  1  0  0  0  0
  4  5  1  0  0  0  0
  5 10  1  0  0  0  0
  5  6  2  0  0  0  0
  6 22  1  0  0  0  0
  7  2  1  0  0  0  0
  8  3  1  0  0  0  0
  9  4  1  0  0  0  0
 11 16  1  0  0  0  0
 11 17  1  0  0  0  0
 12 11  2  0  0  0  0
 13 14  2  0  0  0  0
 13 12  1  0  0  0  0
 14 15  1  0  0  0  0
 15 16  2  0  0  0  0
 18 12  1  0  0  0  0
 19 15  1  0  0  0  0
 20 24  1  0  0  0  0
 21 20  2  0  0  0  0
 22 20  1  0  0  0  0
 22 23  1  0  0  0  0
 24 26  1  0  0  0  0
 25 32  1  0  0  0  0
 26 27  1  0  0  0  0
 26 25  2  0  0  0  0
 27 29  2  0  0  0  0
 28 27  1  0  0  0  0
 29 30  1  0  0  0  0
 29 31  1  0  0  0  0
 32 31  2  0  0  0  0
 33 34  3  0  0  0  0
 34 25  1  0  0  0  0
M  END
>  <minimizedAffinity>
-5.18634415

$$$$

 OpenBabel03242517053D

 34 36  0  0  0  0  0  0  0  0999 V2000
   35.5910   27.2150   38.4240 C   0  0  0  0  0  0  0  0  0  0  0  0
   35.1360   26.6190   37.2670 C   0  0  0  0  0  0  0  0  0  0  0  0
   34.0960   27.2370   36.5810 C   0  0  0  0  0  0  0  0  0  0  0  0
   33.5570   28.3920   37.0490 C   0  0  0  0  0  0  0  0  0  0  0  0
   33.9940   29.0060   38.2000 C   0  0  0  0  0  0  0  0  0  0  0  0
   35.0430   28.3750   38.8850 C   0  0  0  0  0  0  0  0  0  0  0  0
   35.5720   25.6960   36.8980 H   0  0  0  0  0  0  0  0  0  0  0  0
   33.7660   26.7390   35.6790 H   0  0  0  0  0  0  0  0  0  0  0  0
   32.7500   28.8390   36.4860 H   0  0  0  0  0  0  0  0  0  0  0  0
   33.5820   29.9310   38.6000 H   0  0  0  0  0  0  0  0  0  0  0  0
   37.7110   24.7360   40.3330 C   0  0  0  0  0  0  0  0  0  0  0  0
   36.5740   25.2960   39.6980 C   0  0  0  0  0  0  0  0  0  0  0  0
   36.6860   26.5260   39.1120 C   0  0  0  0  0  0  0  0  0  0  0  0
   37.9030   27.1430   39.1780 N   0  0  0  0  0  0  0  0  0  0  0  0
   38.9780   26.6020   39.7860 C   0  0  0  0  0  0  0  0  0  0  0  0
   38.8860   25.3940   40.3660 N   0  0  0  0  0  0  0  0  0  0  0  0
   37.6190   23.7690   40.7920 H   0  0  0  0  0  0  0  0  0  0  0  0
   35.6330   24.8080   39.6520 H   0  0  0  0  0  0  0  0  0  0  0  0
   39.8720   27.1980   39.7630 H   0  0  0  0  0  0  0  0  0  0  0  0
   36.2120   30.0870   40.4620 C   0  0  0  0  0  0  0  0  0  0  0  0
   36.4720   31.0280   39.7280 O   0  0  0  0  0  0  0  0  0  0  0  0
   35.5900   28.8840   40.0830 N   0  0  0  0  0  0  0  0  0  0  0  0
   35.4480   28.1110   40.7940 H   0  0  0  0  0  0  0  0  0  0  0  0
   36.5740   30.2310   41.8050 O   0  0  0  0  0  0  0  0  0  0  0  0
   38.8140   29.5700   42.3950 C   0  0  0  0  0  0  0  0  0  0  0  0
   37.4430   29.2910   42.3470 C   0  0  0  0  0  0  0  0  0  0  0  0
   36.9490   28.0930   42.8330 C   0  0  0  0  0  0  0  0  0  0  0  0
   35.8990   27.8650   42.8030 H   0  0  0  0  0  0  0  0  0  0  0  0
   37.8080   27.1750   43.3630 C   0  0  0  0  0  0  0  0  0  0  0  0
   37.4510   26.2130   43.7580 H   0  0  0  0  0  0  0  0  0  0  0  0
   39.1810   27.4430   43.4160 C   0  0  0  0  0  3  0  0  0  0  0  0
   39.6890   28.6470   42.9300 C   0  0  0  0  0  3  0  0  0  0  0  0
   39.7810   31.7850   41.5110 N   0  0  0  0  0  0  0  0  0  0  0  0
   39.3560   30.7830   41.9080 C   0  0  0  0  0  0  0  0  0  0  0  0
  1  6  1  0  0  0  0
  1 13  1  0  0  0  0
  2  1  2  0  0  0  0
  3  4  2  0  0  0  0
  3  2  1  0  0  0  0
  4  5  1  0  0  0  0
  5 10  1  0  0  0  0
  5  6  2  0  0  0  0
  6 22  1  0  0  0  0
  7  2  1  0  0  0  0
  8  3  1  0  0  0  0
  9  4  1  0  0  0  0
 11 16  1  0  0  0  0
 11 17  1  0  0  0  0
 12 11  2  0  0  0  0
 13 14  2  0  0  0  0
 13 12  1  0  0  0  0
 14 15  1  0  0  0  0
 15 16  2  0  0  0  0
 18 12  1  0  0  0  0
 19 15  1  0  0  0  0
 20 24  1  0  0  0  0
 21 20  2  0  0  0  0
 22 20  1  0  0  0  0
 22 23  1  0  0  0  0
 24 26  1  0  0  0  0
 25 32  1  0  0  0  0
 26 25  2  0  0  0  0
 26 27  1  0  0  0  0
 27 29  2  0  0  0  0
 28 27  1  0  0  0  0
 29 31  1  0  0  0  0
 29 30  1  0  0  0  0
 32 31  2  0  0  0  0
 33 34  3  0  0  0  0
 34 25  1  0  0  0  0
M  END
>  <minimizedAffinity>
-5.17246532

$$$$
