
 OpenBabel03242519253D

 41 44  0  0  0  0  0  0  0  0999 V2000
   47.9230   33.8070   42.8760 C   0  0  0  0  0  0  0  0  0  0  0  0
   48.5840   35.0320   42.6700 C   0  0  0  0  0  0  0  0  0  0  0  0
   49.9520   35.0480   42.3520 C   0  0  0  0  0  0  0  0  0  0  0  0
   50.5610   33.8240   42.2630 N   0  0  0  0  0  0  0  0  0  0  0  0
   49.8870   32.6500   42.4690 C   0  0  0  0  0  0  0  0  0  0  0  0
   48.5960   32.6590   42.7690 N   0  0  0  0  0  0  0  0  0  0  0  0
   48.1850   36.0310   42.7200 H   0  0  0  0  0  0  0  0  0  0  0  0
   50.5210   35.9380   42.1820 H   0  0  0  0  0  0  0  0  0  0  0  0
   46.4920   33.9160   43.2100 C   0  0  0  0  0  0  0  0  0  0  0  0
   45.7700   34.9120   42.4190 C   0  0  0  0  0  0  0  0  0  0  0  0
   45.3090   36.0930   43.1940 C   0  0  0  0  0  0  0  0  0  0  0  0
   44.5100   35.7270   44.4310 C   0  0  0  0  0  0  0  0  0  0  0  0
   44.9900   34.4750   45.1250 C   0  0  0  0  0  0  0  0  0  0  0  0
   46.4210   34.1610   44.7280 C   0  0  0  0  0  0  0  0  0  0  0  0
   46.0480   32.8820   43.0990 H   0  0  0  0  0  0  0  0  0  0  0  0
   46.3280   35.2730   41.5490 H   0  0  0  0  0  0  0  0  0  0  0  0
   44.8460   34.4320   41.9810 H   0  0  0  0  0  0  0  0  0  0  0  0
   44.5760   36.6470   42.5360 H   0  0  0  0  0  0  0  0  0  0  0  0
   46.0540   36.8320   43.4760 H   0  0  0  0  0  0  0  0  0  0  0  0
   43.4140   35.6720   44.2020 H   0  0  0  0  0  0  0  0  0  0  0  0
   44.6030   36.5430   45.1780 H   0  0  0  0  0  0  0  0  0  0  0  0
   44.3400   33.6180   44.8020 H   0  0  0  0  0  0  0  0  0  0  0  0
   44.9390   34.5140   46.2200 H   0  0  0  0  0  0  0  0  0  0  0  0
   47.0650   35.0300   44.9170 H   0  0  0  0  0  0  0  0  0  0  0  0
   46.7590   33.2590   45.2530 H   0  0  0  0  0  0  0  0  0  0  0  0
   50.6990   31.4410   42.3400 C   0  0  0  0  0  0  0  0  0  0  0  0
   51.5940   31.4020   41.3280 N   0  0  0  0  0  0  0  0  0  0  0  0
   52.2500   30.2310   41.3590 C   0  0  0  0  0  0  0  0  0  0  0  0
   51.7450   29.5370   42.4160 N   0  0  0  0  0  0  0  0  0  0  0  0
   50.7940   30.2750   43.0210 N   0  0  0  0  0  0  0  0  0  0  0  0
   53.0330   29.8370   40.7190 H   0  0  0  0  0  0  0  0  0  0  0  0
   52.9710   27.9570   43.9280 C   0  0  0  0  0  0  0  0  0  0  0  0
   52.0630   28.2440   42.9250 C   0  0  0  0  0  0  0  0  0  0  0  0
   51.3530   27.2080   42.3090 C   0  0  0  0  0  0  0  0  0  0  0  0
   50.6210   27.3780   41.5090 H   0  0  0  0  0  0  0  0  0  0  0  0
   51.5340   25.8880   42.6770 C   0  0  0  0  0  0  0  0  0  0  0  0
   50.9760   25.0980   42.1880 H   0  0  0  0  0  0  0  0  0  0  0  0
   52.4560   25.6420   43.6870 C   0  0  0  0  0  3  0  0  0  0  0  0
   53.1700   26.6440   44.3140 C   0  0  0  0  0  3  0  0  0  0  0  0
   54.2050   29.9650   44.9900 N   0  0  0  0  0  0  0  0  0  0  0  0
   53.6470   29.0610   44.4990 C   0  0  0  0  0  0  0  0  0  0  0  0
  1  9  1  0  0  0  0
  2  7  1  0  0  0  0
  2  1  2  0  0  0  0
  3  2  1  0  0  0  0
  4  3  2  0  0  0  0
  4  5  1  0  0  0  0
  5  6  2  0  0  0  0
  6  1  1  0  0  0  0
  8  3  1  0  0  0  0
  9 14  1  0  0  0  0
 10 11  1  0  0  0  0
 10  9  1  0  0  0  0
 11 19  1  0  0  0  0
 11 12  1  0  0  0  0
 12 13  1  0  0  0  0
 12 21  1  0  0  0  0
 13 23  1  0  0  0  0
 14 24  1  0  0  0  0
 14 13  1  0  0  0  0
 14 25  1  0  0  0  0
 15  9  1  0  0  0  0
 16 10  1  0  0  0  0
 17 10  1  0  0  0  0
 18 11  1  0  0  0  0
 20 12  1  0  0  0  0
 22 13  1  0  0  0  0
 26  5  1  0  0  0  0
 26 30  2  0  0  0  0
 27 28  2  0  0  0  0
 27 26  1  0  0  0  0
 28 29  1  0  0  0  0
 29 33  1  0  0  0  0
 29 30  1  0  0  0  0
 31 28  1  0  0  0  0
 32 39  1  0  0  0  0
 32 41  1  0  0  0  0
 33 32  2  0  0  0  0
 34 36  2  0  0  0  0
 34 33  1  0  0  0  0
 35 34  1  0  0  0  0
 36 38  1  0  0  0  0
 37 36  1  0  0  0  0
 38 39  2  0  0  0  0
 41 40  3  0  0  0  0
M  END
>  <minimizedAffinity>
-4.1890893

>  <minimizedRMSD>
1.26048052

$$$$
