REMARK  Name = 
REMARK  5 active torsions:
REMARK  status: ('A' for Active; 'I' for Inactive)
REMARK    1  A    between atoms: C_1  and  C_10
REMARK    2  A    between atoms: C_8  and  C_21
REMARK    3  A    between atoms: C_11  and  C_15
REMARK    4  A    between atoms: C_21  and  C_42
REMARK    5  A    between atoms: C_40  and  C_41
REMARK                            x       y       z     vdW  Elec       q    Type
REMARK                         _______ _______ _______ _____ _____    ______ ____
ROOT
ATOM      1  C   UNL     1      47.315  33.627  42.835  0.00  0.00    +0.000 C 
ATOM      2  O   UNL     1      48.431  33.431  43.444  0.00  0.00    +0.000 OA
ATOM      3  N   UNL     1      47.002  33.095  41.530  0.00  0.00    +0.000 N 
ATOM      4  C   UNL     1      45.787  32.492  41.035  0.00  0.00    +0.000 C 
ATOM      5  C   UNL     1      45.388  33.207  39.737  0.00  0.00    +0.000 C 
ATOM      6  C   UNL     1      46.432  32.988  38.680  0.00  0.00    +0.000 C 
ATOM      7  C   UNL     1      47.696  32.454  39.314  0.00  0.00    +0.000 C 
ATOM      8  C   UNL     1      48.081  33.221  40.555  0.00  0.00    +0.000 C 
ATOM      9  H   UNL     1      44.937  32.651  41.755  0.00  0.00    +0.000 HD
ATOM     10  H   UNL     1      45.897  31.422  40.780  0.00  0.00    +0.000 HD
ATOM     11  H   UNL     1      45.264  34.291  39.981  0.00  0.00    +0.000 HD
ATOM     12  H   UNL     1      44.420  32.773  39.420  0.00  0.00    +0.000 HD
ATOM     13  H   UNL     1      46.689  33.988  38.269  0.00  0.00    +0.000 HD
ATOM     14  H   UNL     1      46.093  32.270  37.924  0.00  0.00    +0.000 HD
ATOM     15  H   UNL     1      48.549  32.447  38.623  0.00  0.00    +0.000 HD
ATOM     16  H   UNL     1      47.522  31.359  39.550  0.00  0.00    +0.000 HD
ATOM     17  H   UNL     1      48.125  34.282  40.285  0.00  0.00    +0.000 HD
ENDROOT
BRANCH   1  19
ATOM     18  C   UNL     1      45.960  35.650  42.920  0.00  0.00    +0.000 A 
ATOM     19  C   UNL     1      46.334  34.426  43.507  0.00  0.00    +0.000 A 
ATOM     20  C   UNL     1      45.755  34.034  44.704  0.00  0.00    +0.000 A 
ATOM     21  N   UNL     1      44.842  34.862  45.256  0.00  0.00    +0.000 NA
ATOM     22  C   UNL     1      44.467  36.036  44.716  0.00  0.00    +0.000 A 
ATOM     23  N   UNL     1      45.041  36.416  43.541  0.00  0.00    +0.000 NA
ATOM     24  H   UNL     1      46.403  35.977  41.987  0.00  0.00    +0.000 HD
ATOM     25  H   UNL     1      43.730  36.682  45.194  0.00  0.00    +0.000 HD
BRANCH  20  26
ATOM     26  C   UNL     1      46.157  32.767  45.289  0.00  0.00    +0.000 A 
ATOM     27  C   UNL     1      45.774  31.596  44.706  0.00  0.00    +0.000 A 
ATOM     28  C   UNL     1      46.172  30.421  45.288  0.00  0.00    +0.000 A 
ATOM     29  C   UNL     1      46.942  30.362  46.439  0.00  0.00    +0.000 A 
ATOM     30  C   UNL     1      47.296  31.585  46.983  0.00  0.00    +0.000 A 
ATOM     31  N   UNL     1      46.896  32.715  46.396  0.00  0.00    +0.000 NA
ATOM     32  H   UNL     1      45.180  31.499  43.813  0.00  0.00    +0.000 HD
ATOM     33  H   UNL     1      45.878  29.460  44.835  0.00  0.00    +0.000 HD
ATOM     34  H   UNL     1      47.242  29.424  46.879  0.00  0.00    +0.000 HD
ATOM     35  H   UNL     1      47.900  31.566  47.877  0.00  0.00    +0.000 HD
ENDBRANCH  20  26
ENDBRANCH   1  19
BRANCH   8  36
ATOM     36  C   UNL     1      49.415  32.813  41.030  0.00  0.00    +0.000 C 
ATOM     37  H   UNL     1      50.036  32.982  40.080  0.00  0.00    +0.000 HD
ATOM     38  H   UNL     1      49.943  33.585  41.677  0.00  0.00    +0.000 HD
BRANCH  36  40
ATOM     39  C   UNL     1      49.132  30.896  42.584  0.00  0.00    +0.000 A 
ATOM     40  C   UNL     1      49.707  31.453  41.416  0.00  0.00    +0.000 A 
ATOM     41  C   UNL     1      50.561  30.499  40.855  0.00  0.00    +0.000 A 
ATOM     42  H   UNL     1      51.116  30.791  39.976  0.00  0.00    +0.000 HD
ATOM     43  C   UNL     1      50.852  29.255  41.268  0.00  0.00    +0.000 A 
ATOM     44  H   UNL     1      51.553  28.621  40.715  0.00  0.00    +0.000 HD
ATOM     45  C   UNL     1      50.264  28.769  42.406  0.00  0.00    +0.000 A 
ATOM     46  C   UNL     1      49.394  29.609  43.067  0.00  0.00    +0.000 A 
BRANCH  39  48
ATOM     47  N   UNL     1      47.396  32.352  43.921  0.00  0.00    +0.000 NA
ATOM     48  C   UNL     1      48.178  31.694  43.330  0.00  0.00    +0.000 C 
ENDBRANCH  39  48
ENDBRANCH  36  40
ENDBRANCH   8  36
TORSDOF 5
