REMARK  Name = 
REMARK  5 active torsions:
REMARK  status: ('A' for Active; 'I' for Inactive)
REMARK    1  A    between atoms: C_1  and  C_13
REMARK    2  A    between atoms: C_9  and  N_21
REMARK    3  A    between atoms: C_12  and  C_34
REMARK    4  A    between atoms: C_15  and  C_17
REMARK    5  A    between atoms: C_32  and  C_33
REMARK                            x       y       z     vdW  Elec       q    Type
REMARK                         _______ _______ _______ _____ _____    ______ ____
ROOT
ATOM      1  C   UNL     1      44.437  36.059  44.871  0.00  0.00    +0.000 A 
ATOM      2  C   UNL     1      45.070  36.016  43.634  0.00  0.00    +0.000 A 
ATOM      3  C   UNL     1      45.934  34.979  43.332  0.00  0.00    +0.000 A 
ATOM      4  N   UNL     1      46.082  34.057  44.338  0.00  0.00    +0.000 NA
ATOM      5  C   UNL     1      45.477  34.103  45.512  0.00  0.00    +0.000 A 
ATOM      6  N   UNL     1      44.657  35.115  45.761  0.00  0.00    +0.000 NA
ATOM      7  H   UNL     1      43.770  36.890  45.061  0.00  0.00    +0.000 HD
ENDROOT
BRANCH   3   8
ATOM      8  C   UNL     1      46.642  34.796  42.128  0.00  0.00    +0.000 A 
ATOM      9  C   UNL     1      47.880  35.421  42.018  0.00  0.00    +0.000 A 
ATOM     10  C   UNL     1      48.706  35.348  40.920  0.00  0.00    +0.000 A 
ATOM     11  C   UNL     1      48.323  34.613  39.824  0.00  0.00    +0.000 A 
ATOM     12  C   UNL     1      47.101  33.964  39.865  0.00  0.00    +0.000 A 
ATOM     13  C   UNL     1      46.667  33.221  38.812  0.00  0.00    +0.000 A 
ATOM     14  C   UNL     1      45.461  32.553  38.800  0.00  0.00    +0.000 A 
ATOM     15  C   UNL     1      44.675  32.675  39.955  0.00  0.00    +0.000 A 
ATOM     16  C   UNL     1      45.162  33.443  40.998  0.00  0.00    +0.000 A 
ATOM     17  C   UNL     1      46.341  34.084  40.984  0.00  0.00    +0.000 A 
ATOM     18  H   UNL     1      48.280  36.028  42.825  0.00  0.00    +0.000 HD
ATOM     19  H   UNL     1      49.660  35.847  40.871  0.00  0.00    +0.000 HD
ATOM     20  H   UNL     1      48.957  34.551  38.968  0.00  0.00    +0.000 HD
ATOM     21  H   UNL     1      47.286  33.131  37.916  0.00  0.00    +0.000 HD
ATOM     22  H   UNL     1      45.135  31.968  37.951  0.00  0.00    +0.000 HD
ATOM     23  H   UNL     1      43.749  32.148  39.916  0.00  0.00    +0.000 HD
BRANCH  16  24
ATOM     24  N   UNL     1      44.233  33.453  42.081  0.00  0.00    +0.000 N 
ATOM     25  H   UNL     1      44.068  32.848  42.911  0.00  0.00    +0.000 HD
ATOM     26  H   UNL     1      43.439  34.063  42.353  0.00  0.00    +0.000 HD
ENDBRANCH  16  24
ENDBRANCH   3   8
BRANCH   2  28
ATOM     27  C   UNL     1      43.467  37.191  42.365  0.00  0.00    +0.000 A 
ATOM     28  C   UNL     1      44.827  37.067  42.676  0.00  0.00    +0.000 A 
ATOM     29  C   UNL     1      45.685  37.932  42.038  0.00  0.00    +0.000 A 
ATOM     30  H   UNL     1      46.715  37.786  42.316  0.00  0.00    +0.000 HD
ATOM     31  C   UNL     1      45.272  38.886  41.134  0.00  0.00    +0.000 A 
ATOM     32  H   UNL     1      46.022  39.502  40.702  0.00  0.00    +0.000 HD
ATOM     33  C   UNL     1      43.931  38.997  40.838  0.00  0.00    +0.000 A 
ATOM     34  C   UNL     1      43.036  38.151  41.452  0.00  0.00    +0.000 A 
BRANCH  27  36
ATOM     35  N   UNL     1      41.603  35.705  43.378  0.00  0.00    +0.000 NA
ATOM     36  C   UNL     1      42.437  36.369  42.937  0.00  0.00    +0.000 C 
ENDBRANCH  27  36
ENDBRANCH   2  28
BRANCH   5  37
ATOM     37  C   UNL     1      45.820  32.967  46.428  0.00  0.00    +0.000 C 
ATOM     38  F   UNL     1      44.993  32.931  47.517  0.00  0.00    +0.000 F 
ATOM     39  F   UNL     1      47.146  33.056  46.816  0.00  0.00    +0.000 F 
ATOM     40  F   UNL     1      45.769  31.772  45.693  0.00  0.00    +0.000 F 
ENDBRANCH   5  37
TORSDOF 5
