
 OpenBabel03252508023D

 43 46  0  0  1  0  0  0  0  0999 V2000
   42.0620   33.2140   41.1960 C   0  0  0  0  0  0  0  0  0  0  0  0
   42.7780   34.3650   41.3660 C   0  0  0  0  0  0  0  0  0  0  0  0
   42.0780   35.5890   41.3290 C   0  0  0  0  0  0  0  0  0  0  0  0
   40.7200   35.6760   41.1330 C   0  0  0  0  0  0  0  0  0  0  0  0
   40.0090   34.5160   40.9650 C   0  0  0  0  0  0  0  0  0  0  0  0
   40.6800   33.3300   40.9990 C   0  0  0  0  0  0  0  0  0  0  0  0
   42.5560   36.5510   41.4430 H   0  0  0  0  0  0  0  0  0  0  0  0
   40.1930   36.5930   41.1050 H   0  0  0  0  0  0  0  0  0  0  0  0
   38.9600   34.5070   40.8090 H   0  0  0  0  0  0  0  0  0  0  0  0
   40.1010   32.4020   40.8620 H   0  0  0  0  0  0  0  0  0  0  0  0
   42.7560   31.6860   41.3170 S   0  0  0  0  0  0  0  0  0  0  0  0
   41.7330   30.8480   40.4870 O   0  0  0  0  0  0  0  0  0  0  0  0
   42.7370   31.1410   42.6950 O   0  0  0  0  0  0  0  0  0  0  0  0
   44.0200   31.3810   39.0440 C   0  0  0  0  0  0  0  0  0  0  0  0
   43.9650   30.9550   40.4000 C   0  0  0  0  0  0  0  0  0  0  0  0
   44.9930   30.0530   40.6620 C   0  0  0  0  0  0  0  0  0  0  0  0
   44.9600   29.7730   41.7330 H   0  0  0  0  0  0  0  0  0  0  0  0
   45.9940   29.5360   39.8720 C   0  0  0  0  0  0  0  0  0  0  0  0
   46.6840   28.8380   40.3060 H   0  0  0  0  0  0  0  0  0  0  0  0
   45.8900   30.0490   38.6290 C   0  0  0  0  0  3  0  0  0  0  0  0
   44.9690   30.9420   38.1540 C   0  0  0  0  0  3  0  0  0  0  0  0
   42.3070   33.0760   38.0230 N   0  0  0  0  0  0  0  0  0  0  0  0
   43.0600   32.3280   38.4850 C   0  0  0  0  0  0  0  0  0  0  0  0
   44.2140   34.3790   41.5800 C   0  0  0  0  0  0  0  0  0  0  0  0
   45.0760   34.3310   40.6520 O   0  0  0  0  0  0  0  0  0  0  0  0
   44.5790   34.4580   42.9720 C   0  0  0  0  0  0  0  0  0  0  0  0
   44.3120   35.7170   43.6120 C   0  0  0  0  0  0  0  0  0  0  0  0
   44.6500   35.8170   44.9530 C   0  0  0  0  0  0  0  0  0  0  0  0
   45.2010   34.7360   45.5660 N   0  0  0  0  0  0  0  0  0  0  0  0
   45.4340   33.5570   44.9060 C   0  0  0  0  0  0  0  0  0  0  0  0
   45.1240   33.4570   43.6590 N   0  0  0  0  0  0  0  0  0  0  0  0
   43.8860   36.6050   43.2020 H   0  0  0  0  0  0  0  0  0  0  0  0
   44.4990   36.6970   45.5340 H   0  0  0  0  0  0  0  0  0  0  0  0
   46.0280   32.4320   45.6590 C   0  0  1  0  0  0  0  0  0  0  0  0
   46.9800   32.7300   46.7940 C   0  0  0  0  0  0  0  0  0  0  0  0
   45.5660   32.3110   47.0590 C   0  0  1  0  0  0  0  0  0  0  0  0
   46.1450   31.4880   45.1020 H   0  0  0  0  0  0  0  0  0  0  0  0
   47.3120   33.7750   46.8830 H   0  0  0  0  0  0  0  0  0  0  0  0
   47.7800   31.9600   46.9800 H   0  0  0  0  0  0  0  0  0  0  0  0
   45.4290   31.3210   47.5360 H   0  0  0  0  0  0  0  0  0  0  0  0
   44.7760   33.3690   47.6640 N   0  0  0  0  0  0  0  0  0  0  0  0
   45.2910   33.7970   48.4570 H   0  0  0  0  0  0  0  0  0  0  0  0
   43.8760   32.9360   48.0110 H   0  0  0  0  0  0  0  0  0  0  0  0
  1 11  1  0  0  0  0
  1  2  1  0  0  0  0
  2 24  1  0  0  0  0
  3  2  2  0  0  0  0
  3  7  1  0  0  0  0
  4  3  1  0  0  0  0
  5  6  1  0  0  0  0
  5  4  2  0  0  0  0
  6  1  2  0  0  0  0
  8  4  1  0  0  0  0
  9  5  1  0  0  0  0
 10  6  1  0  0  0  0
 11 13  2  0  0  0  0
 12 11  2  0  0  0  0
 14 15  1  0  0  0  0
 15 16  2  0  0  0  0
 15 11  1  0  0  0  0
 16 17  1  0  0  0  0
 18 19  1  0  0  0  0
 18 16  1  0  0  0  0
 20 18  2  0  0  0  0
 21 20  1  0  0  0  0
 21 14  2  0  0  0  0
 22 23  3  0  0  0  0
 23 14  1  0  0  0  0
 24 26  1  0  0  0  0
 25 24  2  0  0  0  0
 26 27  2  0  0  0  0
 26 31  1  0  0  0  0
 27 28  1  0  0  0  0
 28 33  1  0  0  0  0
 28 29  2  0  0  0  0
 30 29  1  0  0  0  0
 30 34  1  0  0  0  0
 31 30  2  0  0  0  0
 32 27  1  0  0  0  0
 34 37  1  6  0  0  0
 34 35  1  0  0  0  0
 34 36  1  0  0  0  0
 35 38  1  0  0  0  0
 35 39  1  0  0  0  0
 35 36  1  0  0  0  0
 36 40  1  1  0  0  0
 36 41  1  0  0  0  0
 41 43  1  0  0  0  0
 41 42  1  0  0  0  0
M  END
>  <minimizedAffinity>
-5.62144423

>  <minimizedRMSD>
1.19532835

$$$$
