
 OpenBabel03242522473D

 42 45  0  0  0  0  0  0  0  0999 V2000
   49.2680   31.1680   40.8910 C   0  0  0  0  0  0  0  0  0  0  0  0
   49.4410   31.2350   42.2790 C   0  0  0  0  0  0  0  0  0  0  0  0
   48.8090   32.2850   43.0050 C   0  0  0  0  0  0  0  0  0  0  0  0
   48.0690   33.1680   42.2920 N   0  0  0  0  0  0  0  0  0  0  0  0
   47.9180   33.0830   40.9570 C   0  0  0  0  0  0  0  0  0  0  0  0
   48.5120   32.0960   40.2860 N   0  0  0  0  0  0  0  0  0  0  0  0
   49.8950   30.1300   40.1780 N   0  0  0  0  0  0  0  0  0  0  0  0
   48.9270   32.3580   44.0710 H   0  0  0  0  0  0  0  0  0  0  0  0
   50.8820   29.8980   40.4350 H   0  0  0  0  0  0  0  0  0  0  0  0
   49.3460   29.6460   39.4340 H   0  0  0  0  0  0  0  0  0  0  0  0
   50.2350   30.2840   43.0240 C   0  0  0  0  0  0  0  0  0  0  0  0
   51.5960   30.2800   43.2240 C   0  0  0  0  0  0  0  0  0  0  0  0
   52.2030   29.2870   43.9660 C   0  0  0  0  0  0  0  0  0  0  0  0
   51.4630   28.2480   44.5450 C   0  0  0  0  0  0  0  0  0  0  0  0
   52.1460   27.3380   45.2460 N   0  0  0  0  0  0  0  0  0  0  0  0
   51.4380   26.3100   45.8220 C   0  0  0  0  0  0  0  0  0  0  0  0
   50.0630   26.2960   45.6320 C   0  0  0  0  0  0  0  0  0  0  0  0
   49.3750   27.2400   44.9100 C   0  0  0  0  0  0  0  0  0  0  0  0
   50.0980   28.2630   44.3380 C   0  0  0  0  0  0  0  0  0  0  0  0
   49.4750   29.2570   43.5920 C   0  0  0  0  0  0  0  0  0  0  0  0
   52.1250   31.1010   42.7590 H   0  0  0  0  0  0  0  0  0  0  0  0
   53.2750   29.3130   44.1040 H   0  0  0  0  0  0  0  0  0  0  0  0
   51.9210   25.5350   46.4030 H   0  0  0  0  0  0  0  0  0  0  0  0
   49.4640   25.5030   46.0690 H   0  0  0  0  0  0  0  0  0  0  0  0
   48.2980   27.2030   44.7780 H   0  0  0  0  0  0  0  0  0  0  0  0
   48.4050   29.1600   43.5010 H   0  0  0  0  0  0  0  0  0  0  0  0
   47.0760   34.1130   40.2670 C   0  0  0  0  0  0  0  0  0  0  0  0
   46.3050   34.4160   41.0210 H   0  0  0  0  0  0  0  0  0  0  0  0
   47.6410   34.9520   39.8680 H   0  0  0  0  0  0  0  0  0  0  0  0
   46.2710   33.4130   39.1510 C   0  0  0  0  0  0  0  0  0  0  0  0
   46.4620   32.3130   39.1980 H   0  0  0  0  0  0  0  0  0  0  0  0
   46.5290   33.8520   38.1900 H   0  0  0  0  0  0  0  0  0  0  0  0
   43.8060   33.1050   38.6900 C   0  0  0  0  0  0  0  0  0  0  0  0
   44.8280   33.6230   39.4540 C   0  0  0  0  0  0  0  0  0  0  0  0
   44.4690   34.3760   40.5580 C   0  0  0  0  0  0  0  0  0  0  0  0
   45.2840   34.7870   41.1640 H   0  0  0  0  0  0  0  0  0  0  0  0
   43.1870   34.6610   40.9720 C   0  0  0  0  0  0  0  0  0  0  0  0
   43.0260   35.2630   41.8550 H   0  0  0  0  0  0  0  0  0  0  0  0
   42.1930   34.1250   40.1800 C   0  0  0  0  0  3  0  0  0  0  0  0
   42.4790   33.3590   39.0570 C   0  0  0  0  0  3  0  0  0  0  0  0
   44.4080   31.6680   36.6130 N   0  0  0  0  0  0  0  0  0  0  0  0
   44.1400   32.3200   37.5370 C   0  0  0  0  0  0  0  0  0  0  0  0
  1  2  1  0  0  0  0
  2  3  2  0  0  0  0
  2 11  1  0  0  0  0
  3  8  1  0  0  0  0
  4  3  1  0  0  0  0
  5  4  2  0  0  0  0
  6  1  2  0  0  0  0
  6  5  1  0  0  0  0
  7  9  1  0  0  0  0
  7  1  1  0  0  0  0
 10  7  1  0  0  0  0
 11 12  2  0  0  0  0
 11 20  1  0  0  0  0
 12 13  1  0  0  0  0
 13 22  1  0  0  0  0
 13 14  2  0  0  0  0
 14 15  1  0  0  0  0
 15 16  2  0  0  0  0
 16 23  1  0  0  0  0
 17 16  1  0  0  0  0
 17 24  1  0  0  0  0
 18 17  2  0  0  0  0
 19 14  1  0  0  0  0
 19 18  1  0  0  0  0
 20 19  2  0  0  0  0
 21 12  1  0  0  0  0
 25 18  1  0  0  0  0
 26 20  1  0  0  0  0
 27  5  1  0  0  0  0
 27 28  1  0  0  0  0
 29 27  1  0  0  0  0
 30 31  1  0  0  0  0
 30 34  1  0  0  0  0
 30 27  1  0  0  0  0
 32 30  1  0  0  0  0
 33 40  2  0  0  0  0
 33 34  1  0  0  0  0
 34 35  2  0  0  0  0
 35 37  1  0  0  0  0
 35 36  1  0  0  0  0
 37 38  1  0  0  0  0
 39 37  2  0  0  0  0
 40 39  1  0  0  0  0
 41 42  3  0  0  0  0
 42 33  1  0  0  0  0
M  END
>  <minimizedAffinity>
-3.17025304

>  <minimizedRMSD>
9.05376148

$$$$
