
 OpenBabel03242520343D

 29 31  0  0  1  0  0  0  0  0999 V2000
   47.4590   32.8920   41.1960 C   0  0  0  0  0  0  0  0  0  0  0  0
   46.3990   32.4650   42.0610 C   0  0  0  0  0  0  0  0  0  0  0  0
   45.3260   31.7940   41.5050 C   0  0  0  0  0  0  0  0  0  0  0  0
   45.3310   31.5720   40.1580 N   0  0  0  0  0  0  0  0  0  0  0  0
   46.3270   31.9780   39.3770 C   0  0  0  0  0  0  0  0  0  0  0  0
   47.3870   32.6330   39.8870 N   0  0  0  0  0  0  0  0  0  0  0  0
   48.2740   33.4120   41.6820 H   0  0  0  0  0  0  0  0  0  0  0  0
   44.4980   31.4480   42.1080 H   0  0  0  0  0  0  0  0  0  0  0  0
   45.2970   32.2920   37.1600 C   0  0  0  0  0  0  0  0  0  0  0  0
   46.2890   31.7150   37.9290 C   0  0  0  0  0  0  0  0  0  0  0  0
   47.2320   30.9010   37.3310 C   0  0  0  0  0  0  0  0  0  0  0  0
   48.0230   30.4330   37.9000 H   0  0  0  0  0  0  0  0  0  0  0  0
   47.2080   30.6450   35.9650 C   0  0  0  0  0  0  0  0  0  0  0  0
   47.9420   30.0110   35.5080 H   0  0  0  0  0  0  0  0  0  0  0  0
   46.2090   31.2300   35.2150 C   0  0  0  0  0  3  0  0  0  0  0  0
   45.2450   32.0560   35.7950 C   0  0  0  0  0  3  0  0  0  0  0  0
   43.4930   33.8570   38.2160 N   0  0  0  0  0  0  0  0  0  0  0  0
   44.2870   33.1550   37.7490 C   0  0  0  0  0  0  0  0  0  0  0  0
   46.4470   32.7610   43.5290 C   0  0  1  0  0  0  0  0  0  0  0  0
   47.4740   33.6190   44.0790 C   0  0  0  0  0  0  0  0  0  0  0  0
   46.1050   34.1800   43.9750 C   0  0  1  0  0  0  0  0  0  0  0  0
   45.9200   32.0110   44.1350 H   0  0  0  0  0  0  0  0  0  0  0  0
   48.2910   34.0700   43.4660 H   0  0  0  0  0  0  0  0  0  0  0  0
   47.8780   33.3820   45.1080 H   0  0  0  0  0  0  0  0  0  0  0  0
   45.5840   34.3250   44.9570 H   0  0  0  0  0  0  0  0  0  0  0  0
   45.7590   35.2220   42.9750 C   0  0  0  0  0  0  0  0  0  0  0  0
   45.2590   36.3700   43.5670 F   0  0  0  0  0  0  0  0  0  0  0  0
   44.8410   34.7770   42.0390 F   0  0  0  0  0  0  0  0  0  0  0  0
   46.9160   35.5840   42.3190 F   0  0  0  0  0  0  0  0  0  0  0  0
  1  7  1  0  0  0  0
  1  2  1  0  0  0  0
  2 19  1  0  0  0  0
  3  2  2  0  0  0  0
  3  8  1  0  0  0  0
  4  3  1  0  0  0  0
  5  6  1  0  0  0  0
  5  4  2  0  0  0  0
  6  1  2  0  0  0  0
  9 18  1  0  0  0  0
  9 10  1  0  0  0  0
 10  5  1  0  0  0  0
 11 12  1  0  0  0  0
 11 10  2  0  0  0  0
 13 11  1  0  0  0  0
 14 13  1  0  0  0  0
 15 16  1  0  0  0  0
 15 13  2  0  0  0  0
 16  9  2  0  0  0  0
 18 17  3  0  0  0  0
 19 21  1  0  0  0  0
 19 20  1  0  0  0  0
 19 22  1  1  0  0  0
 20 24  1  0  0  0  0
 21 20  1  0  0  0  0
 21 25  1  1  0  0  0
 23 20  1  0  0  0  0
 26 27  1  0  0  0  0
 26 21  1  0  0  0  0
 28 26  1  0  0  0  0
 29 26  1  0  0  0  0
M  END
>  <minimizedAffinity>
-3.53633237

>  <minimizedRMSD>
7.37499857

$$$$
