
 OpenBabel03242519253D

 41 44  0  0  0  0  0  0  0  0999 V2000
   47.8840   33.7300   42.8750 C   0  0  0  0  0  0  0  0  0  0  0  0
   48.5910   34.9360   42.7070 C   0  0  0  0  0  0  0  0  0  0  0  0
   49.9570   34.9120   42.3840 C   0  0  0  0  0  0  0  0  0  0  0  0
   50.5200   33.6690   42.2520 N   0  0  0  0  0  0  0  0  0  0  0  0
   49.8030   32.5150   42.4220 C   0  0  0  0  0  0  0  0  0  0  0  0
   48.5140   32.5620   42.7270 N   0  0  0  0  0  0  0  0  0  0  0  0
   48.2300   35.9470   42.7920 H   0  0  0  0  0  0  0  0  0  0  0  0
   50.5590   35.7850   42.2410 H   0  0  0  0  0  0  0  0  0  0  0  0
   46.4590   33.8810   43.2180 C   0  0  0  0  0  0  0  0  0  0  0  0
   45.7580   34.8890   42.4220 C   0  0  0  0  0  0  0  0  0  0  0  0
   45.3360   36.0900   43.1870 C   0  0  0  0  0  0  0  0  0  0  0  0
   44.5360   35.7580   44.4340 C   0  0  0  0  0  0  0  0  0  0  0  0
   44.9880   34.5010   45.1390 C   0  0  0  0  0  0  0  0  0  0  0  0
   46.4070   34.1450   44.7340 C   0  0  0  0  0  0  0  0  0  0  0  0
   45.9870   32.8590   43.1220 H   0  0  0  0  0  0  0  0  0  0  0  0
   46.3200   35.2250   41.5440 H   0  0  0  0  0  0  0  0  0  0  0  0
   44.8190   34.4290   41.9960 H   0  0  0  0  0  0  0  0  0  0  0  0
   44.6120   36.6560   42.5290 H   0  0  0  0  0  0  0  0  0  0  0  0
   46.1020   36.8110   43.4560 H   0  0  0  0  0  0  0  0  0  0  0  0
   43.4380   35.7310   44.2140 H   0  0  0  0  0  0  0  0  0  0  0  0
   44.6580   36.5800   45.1710 H   0  0  0  0  0  0  0  0  0  0  0  0
   44.3130   33.6590   44.8290 H   0  0  0  0  0  0  0  0  0  0  0  0
   44.9460   34.5540   46.2330 H   0  0  0  0  0  0  0  0  0  0  0  0
   47.0750   34.9990   44.9090 H   0  0  0  0  0  0  0  0  0  0  0  0
   46.7250   33.2400   45.2670 H   0  0  0  0  0  0  0  0  0  0  0  0
   50.5680   31.2810   42.2500 C   0  0  0  0  0  0  0  0  0  0  0  0
   51.5880   31.3050   41.3630 N   0  0  0  0  0  0  0  0  0  0  0  0
   52.1790   30.1000   41.3340 C   0  0  0  0  0  0  0  0  0  0  0  0
   51.5070   29.3210   42.2240 N   0  0  0  0  0  0  0  0  0  0  0  0
   50.5180   30.0410   42.7880 N   0  0  0  0  0  0  0  0  0  0  0  0
   53.0230   29.7360   40.7550 H   0  0  0  0  0  0  0  0  0  0  0  0
   51.0870   26.8580   42.0370 C   0  0  0  0  0  0  0  0  0  0  0  0
   51.6940   27.9610   42.6060 C   0  0  0  0  0  0  0  0  0  0  0  0
   52.5910   27.7940   43.6670 C   0  0  0  0  0  0  0  0  0  0  0  0
   53.1020   28.6330   44.1570 H   0  0  0  0  0  0  0  0  0  0  0  0
   52.8930   26.5430   44.1700 C   0  0  0  0  0  0  0  0  0  0  0  0
   53.5900   26.4320   44.9920 H   0  0  0  0  0  0  0  0  0  0  0  0
   52.2620   25.4600   43.5700 C   0  0  0  0  0  3  0  0  0  0  0  0
   51.3730   25.5930   42.5220 C   0  0  0  0  0  3  0  0  0  0  0  0
   49.4630   27.3040   40.0760 N   0  0  0  0  0  0  0  0  0  0  0  0
   50.1940   27.1110   40.9700 C   0  0  0  0  0  0  0  0  0  0  0  0
  1  9  1  0  0  0  0
  2  7  1  0  0  0  0
  2  1  2  0  0  0  0
  3  2  1  0  0  0  0
  4  3  2  0  0  0  0
  4  5  1  0  0  0  0
  5  6  2  0  0  0  0
  6  1  1  0  0  0  0
  8  3  1  0  0  0  0
  9 14  1  0  0  0  0
 10 11  1  0  0  0  0
 10  9  1  0  0  0  0
 11 19  1  0  0  0  0
 11 12  1  0  0  0  0
 12 13  1  0  0  0  0
 12 21  1  0  0  0  0
 13 23  1  0  0  0  0
 14 24  1  0  0  0  0
 14 13  1  0  0  0  0
 14 25  1  0  0  0  0
 15  9  1  0  0  0  0
 16 10  1  0  0  0  0
 17 10  1  0  0  0  0
 18 11  1  0  0  0  0
 20 12  1  0  0  0  0
 22 13  1  0  0  0  0
 26  5  1  0  0  0  0
 26 30  2  0  0  0  0
 27 26  1  0  0  0  0
 28 27  2  0  0  0  0
 28 29  1  0  0  0  0
 29 33  1  0  0  0  0
 29 30  1  0  0  0  0
 31 28  1  0  0  0  0
 32 39  2  0  0  0  0
 32 33  1  0  0  0  0
 33 34  2  0  0  0  0
 34 35  1  0  0  0  0
 34 36  1  0  0  0  0
 36 37  1  0  0  0  0
 38 36  2  0  0  0  0
 39 38  1  0  0  0  0
 40 41  3  0  0  0  0
 41 32  1  0  0  0  0
M  END
>  <minimizedAffinity>
-3.97923636

>  <minimizedRMSD>
0.116710909

$$$$
