
 OpenBabel03252507453D

 38 40  0  0  0  0  0  0  0  0999 V2000
   47.0020   34.2380   40.9930 C   0  0  0  0  0  0  0  0  0  0  0  0
   47.0850   34.8540   40.0680 H   0  0  0  0  0  0  0  0  0  0  0  0
   46.4370   33.2960   40.8370 H   0  0  0  0  0  0  0  0  0  0  0  0
   48.3700   34.0070   41.4680 C   0  0  0  0  0  0  0  0  0  0  0  0
   48.9450   32.8020   41.0960 C   0  0  0  0  0  0  0  0  0  0  0  0
   50.2430   32.4830   41.5100 C   0  0  0  0  0  0  0  0  0  0  0  0
   50.9010   33.4000   42.2840 N   0  0  0  0  0  0  0  0  0  0  0  0
   50.2970   34.5660   42.6220 C   0  0  0  0  0  0  0  0  0  0  0  0
   49.0620   34.8430   42.2140 N   0  0  0  0  0  0  0  0  0  0  0  0
   50.6570   31.5400   41.2040 H   0  0  0  0  0  0  0  0  0  0  0  0
   50.7960   35.3050   43.2320 H   0  0  0  0  0  0  0  0  0  0  0  0
   48.0580   31.6000   40.0910 S   0  0  0  0  0  0  0  0  0  0  0  0
   49.3410   31.6570   37.5130 C   0  0  0  0  0  0  0  0  0  0  0  0
   48.2820   31.9070   38.3530 C   0  0  0  0  0  0  0  0  0  0  0  0
   47.1470   32.5190   37.8060 C   0  0  0  0  0  0  0  0  0  0  0  0
   46.2210   32.7890   38.3200 H   0  0  0  0  0  0  0  0  0  0  0  0
   47.0750   32.8680   36.4600 C   0  0  0  0  0  0  0  0  0  0  0  0
   46.2420   33.3350   35.9850 H   0  0  0  0  0  0  0  0  0  0  0  0
   48.1650   32.6030   35.6290 C   0  0  0  0  0  3  0  0  0  0  0  0
   49.2640   32.0040   36.1880 C   0  0  0  0  0  3  0  0  0  0  0  0
   51.3850   30.5770   38.6550 N   0  0  0  0  0  0  0  0  0  0  0  0
   50.4570   31.0570   38.1460 C   0  0  0  0  0  0  0  0  0  0  0  0
   46.1700   35.0510   41.9520 C   0  0  0  0  0  0  0  0  0  0  0  0
   46.4900   36.1170   41.9200 H   0  0  0  0  0  0  0  0  0  0  0  0
   46.3370   34.7130   43.0030 H   0  0  0  0  0  0  0  0  0  0  0  0
   44.7030   34.9680   41.7050 C   0  0  0  0  0  0  0  0  0  0  0  0
   43.7940   35.3870   42.7250 C   0  0  0  0  0  0  0  0  0  0  0  0
   42.1530   35.0960   41.9580 S   0  0  0  0  0  0  0  0  0  0  0  0
   42.9840   34.4490   40.3690 C   0  0  0  0  0  0  0  0  0  0  0  0
   44.0880   34.5450   40.6350 N   0  0  0  0  0  0  0  0  0  0  0  0
   44.0510   35.7780   43.7070 H   0  0  0  0  0  0  0  0  0  0  0  0
   42.2640   34.0110   39.2570 O   0  0  0  0  0  0  0  0  0  0  0  0
   40.3250   34.5340   37.5330 O   0  0  0  0  0  0  0  0  0  0  0  0
   41.4340   35.1760   38.3510 P   0  0  0  0  0  0  0  0  0  0  0  0
   40.7480   36.2810   39.4260 O   0  0  0  0  0  0  0  0  0  0  0  0
   39.9250   35.8520   39.7850 H   0  0  0  0  0  0  0  0  0  0  0  0
   42.5310   36.0060   37.3530 O   0  0  0  0  0  0  0  0  0  0  0  0
   42.8390   35.4260   36.6140 H   0  0  0  0  0  0  0  0  0  0  0  0
  1  4  1  0  0  0  0
  1 23  1  0  0  0  0
  2  1  1  0  0  0  0
  3  1  1  0  0  0  0
  4  9  1  0  0  0  0
  5  4  2  0  0  0  0
  5  6  1  0  0  0  0
  6  7  2  0  0  0  0
  7  8  1  0  0  0  0
  8 11  1  0  0  0  0
  9  8  2  0  0  0  0
 10  6  1  0  0  0  0
 12  5  1  0  0  0  0
 13 22  1  0  0  0  0
 13 14  1  0  0  0  0
 14 12  1  0  0  0  0
 15 16  1  0  0  0  0
 15 14  2  0  0  0  0
 17 15  1  0  0  0  0
 18 17  1  0  0  0  0
 19 20  1  0  0  0  0
 19 17  2  0  0  0  0
 20 13  2  0  0  0  0
 22 21  3  0  0  0  0
 23 25  1  0  0  0  0
 24 23  1  0  0  0  0
 26 23  1  0  0  0  0
 26 27  2  0  0  0  0
 27 31  1  0  0  0  0
 28 27  1  0  0  0  0
 29 30  2  0  0  0  0
 29 28  1  0  0  0  0
 30 26  1  0  0  0  0
 32 29  1  0  0  0  0
 33 34  2  0  0  0  0
 34 32  1  0  0  0  0
 34 35  1  0  0  0  0
 35 36  1  0  0  0  0
 37 34  1  0  0  0  0
 38 37  1  0  0  0  0
M  END
>  <minimizedAffinity>
-4.7948842

>  <minimizedRMSD>
0.751497984

$$$$
