
 OpenBabel03252507463D

 38 40  0  0  0  0  0  0  0  0999 V2000
   46.9670   34.2820   40.9370 C   0  0  0  0  0  0  0  0  0  0  0  0
   47.0760   34.9770   40.0720 H   0  0  0  0  0  0  0  0  0  0  0  0
   46.3810   33.3730   40.6910 H   0  0  0  0  0  0  0  0  0  0  0  0
   48.3240   33.9730   41.4000 C   0  0  0  0  0  0  0  0  0  0  0  0
   48.8110   32.7220   41.0560 C   0  0  0  0  0  0  0  0  0  0  0  0
   50.0910   32.3280   41.4630 C   0  0  0  0  0  0  0  0  0  0  0  0
   50.8200   33.2200   42.2010 N   0  0  0  0  0  0  0  0  0  0  0  0
   50.3010   34.4330   42.5120 C   0  0  0  0  0  0  0  0  0  0  0  0
   49.0820   34.7810   42.1120 N   0  0  0  0  0  0  0  0  0  0  0  0
   50.4360   31.3500   41.1790 H   0  0  0  0  0  0  0  0  0  0  0  0
   50.8570   35.1530   43.0940 H   0  0  0  0  0  0  0  0  0  0  0  0
   47.8310   31.5540   40.0990 S   0  0  0  0  0  0  0  0  0  0  0  0
   46.7380   32.1260   37.4950 C   0  0  0  0  0  0  0  0  0  0  0  0
   47.7860   31.9960   38.3750 C   0  0  0  0  0  0  0  0  0  0  0  0
   49.0780   32.2320   37.8890 C   0  0  0  0  0  0  0  0  0  0  0  0
   50.0200   32.1740   38.4400 H   0  0  0  0  0  0  0  0  0  0  0  0
   49.3120   32.5870   36.5630 C   0  0  0  0  0  0  0  0  0  0  0  0
   50.2680   32.7800   36.1340 H   0  0  0  0  0  0  0  0  0  0  0  0
   48.2300   32.7130   35.6910 C   0  0  0  0  0  3  0  0  0  0  0  0
   46.9770   32.4770   36.1900 C   0  0  0  0  0  3  0  0  0  0  0  0
   44.4210   31.6140   38.5030 N   0  0  0  0  0  0  0  0  0  0  0  0
   45.4670   31.8500   38.0580 C   0  0  0  0  0  0  0  0  0  0  0  0
   46.1460   35.0270   41.9580 C   0  0  0  0  0  0  0  0  0  0  0  0
   46.4760   36.0880   42.0070 H   0  0  0  0  0  0  0  0  0  0  0  0
   46.3120   34.6060   42.9790 H   0  0  0  0  0  0  0  0  0  0  0  0
   44.6780   34.9780   41.7100 C   0  0  0  0  0  0  0  0  0  0  0  0
   43.7790   35.4390   42.7210 C   0  0  0  0  0  0  0  0  0  0  0  0
   42.1320   35.1770   41.9560 S   0  0  0  0  0  0  0  0  0  0  0  0
   42.9480   34.4780   40.3810 C   0  0  0  0  0  0  0  0  0  0  0  0
   44.0540   34.5500   40.6470 N   0  0  0  0  0  0  0  0  0  0  0  0
   44.0450   35.8430   43.6950 H   0  0  0  0  0  0  0  0  0  0  0  0
   42.2170   34.0380   39.2770 O   0  0  0  0  0  0  0  0  0  0  0  0
   40.3100   34.5700   37.5210 O   0  0  0  0  0  0  0  0  0  0  0  0
   41.4120   35.2060   38.3530 P   0  0  0  0  0  0  0  0  0  0  0  0
   40.7200   36.3230   39.4120 O   0  0  0  0  0  0  0  0  0  0  0  0
   39.8880   35.9040   39.7600 H   0  0  0  0  0  0  0  0  0  0  0  0
   42.5320   36.0210   37.3670 O   0  0  0  0  0  0  0  0  0  0  0  0
   42.8450   35.4340   36.6350 H   0  0  0  0  0  0  0  0  0  0  0  0
  1  4  1  0  0  0  0
  1 23  1  0  0  0  0
  2  1  1  0  0  0  0
  3  1  1  0  0  0  0
  4  9  1  0  0  0  0
  5  4  2  0  0  0  0
  5  6  1  0  0  0  0
  6  7  2  0  0  0  0
  7  8  1  0  0  0  0
  8 11  1  0  0  0  0
  9  8  2  0  0  0  0
 10  6  1  0  0  0  0
 12  5  1  0  0  0  0
 13 22  1  0  0  0  0
 13 14  1  0  0  0  0
 14 12  1  0  0  0  0
 15 14  2  0  0  0  0
 15 16  1  0  0  0  0
 17 15  1  0  0  0  0
 18 17  1  0  0  0  0
 19 20  1  0  0  0  0
 19 17  2  0  0  0  0
 20 13  2  0  0  0  0
 22 21  3  0  0  0  0
 23 24  1  0  0  0  0
 23 25  1  0  0  0  0
 26 23  1  0  0  0  0
 26 27  2  0  0  0  0
 27 31  1  0  0  0  0
 28 27  1  0  0  0  0
 29 30  2  0  0  0  0
 29 28  1  0  0  0  0
 30 26  1  0  0  0  0
 32 29  1  0  0  0  0
 33 34  2  0  0  0  0
 34 32  1  0  0  0  0
 34 35  1  0  0  0  0
 35 36  1  0  0  0  0
 37 34  1  0  0  0  0
 38 37  1  0  0  0  0
M  END
>  <minimizedAffinity>
-4.76523781

>  <minimizedRMSD>
0.688332558

$$$$
