
 OpenBabel03242517033D

 34 36  0  0  0  0  0  0  0  0999 V2000
   46.6850   34.7910   41.9510 C   0  0  0  0  0  0  0  0  0  0  0  0
   47.9430   35.3510   41.8930 C   0  0  0  0  0  0  0  0  0  0  0  0
   48.6760   35.1890   40.7230 C   0  0  0  0  0  0  0  0  0  0  0  0
   48.1530   34.4970   39.6770 C   0  0  0  0  0  0  0  0  0  0  0  0
   46.9000   33.9290   39.7110 C   0  0  0  0  0  0  0  0  0  0  0  0
   46.1690   34.0990   40.8970 C   0  0  0  0  0  0  0  0  0  0  0  0
   48.3550   35.9040   42.7330 H   0  0  0  0  0  0  0  0  0  0  0  0
   49.6590   35.6420   40.7160 H   0  0  0  0  0  0  0  0  0  0  0  0
   48.7570   34.3940   38.7870 H   0  0  0  0  0  0  0  0  0  0  0  0
   46.4560   33.3700   38.8900 H   0  0  0  0  0  0  0  0  0  0  0  0
   44.5360   36.1600   44.7430 C   0  0  0  0  0  0  0  0  0  0  0  0
   45.1970   36.0910   43.4910 C   0  0  0  0  0  0  0  0  0  0  0  0
   45.9530   34.9880   43.2050 C   0  0  0  0  0  0  0  0  0  0  0  0
   46.0230   34.0130   44.1590 N   0  0  0  0  0  0  0  0  0  0  0  0
   45.3910   34.0890   45.3470 C   0  0  0  0  0  0  0  0  0  0  0  0
   44.6430   35.1650   45.6440 N   0  0  0  0  0  0  0  0  0  0  0  0
   43.9420   37.0280   44.9620 H   0  0  0  0  0  0  0  0  0  0  0  0
   45.1350   36.8550   42.7570 H   0  0  0  0  0  0  0  0  0  0  0  0
   45.5330   33.2490   46.0030 H   0  0  0  0  0  0  0  0  0  0  0  0
   43.5650   34.0620   40.9410 C   0  0  0  0  0  0  0  0  0  0  0  0
   43.2530   35.2030   40.6400 O   0  0  0  0  0  0  0  0  0  0  0  0
   44.8750   33.5660   41.0780 N   0  0  0  0  0  0  0  0  0  0  0  0
   45.0360   32.5650   41.3860 H   0  0  0  0  0  0  0  0  0  0  0  0
   42.5120   33.1710   41.1700 O   0  0  0  0  0  0  0  0  0  0  0  0
   40.1270   32.8380   41.1880 C   0  0  0  0  0  0  0  0  0  0  0  0
   41.2490   33.5280   40.7140 C   0  0  0  0  0  0  0  0  0  0  0  0
   41.1100   34.5560   39.7990 C   0  0  0  0  0  0  0  0  0  0  0  0
   41.9620   35.0950   39.4260 H   0  0  0  0  0  0  0  0  0  0  0  0
   39.8670   34.9010   39.3560 C   0  0  0  0  0  0  0  0  0  0  0  0
   39.7180   35.7120   38.6290 H   0  0  0  0  0  0  0  0  0  0  0  0
   38.7370   34.2180   39.8220 C   0  0  0  0  0  0  0  0  0  0  0  0
   38.8660   33.1800   40.7440 C   0  0  0  0  0  0  0  0  0  0  0  0
   40.3270   30.9250   42.8990 N   0  0  0  0  0  0  0  0  0  0  0  0
   40.2290   31.7800   42.1230 C   0  0  0  0  0  0  0  0  0  0  0  0
  1 13  1  0  0  0  0
  2  1  1  0  0  0  0
  2  7  1  0  0  0  0
  3  2  2  0  0  0  0
  4  5  2  0  0  0  0
  4  3  1  0  0  0  0
  5  6  1  0  0  0  0
  6 22  1  0  0  0  0
  6  1  2  0  0  0  0
  8  3  1  0  0  0  0
  9  4  1  0  0  0  0
 10  5  1  0  0  0  0
 11 17  1  0  0  0  0
 11 16  1  0  0  0  0
 12 11  2  0  0  0  0
 13 12  1  0  0  0  0
 13 14  2  0  0  0  0
 14 15  1  0  0  0  0
 15 16  2  0  0  0  0
 15 19  1  0  0  0  0
 18 12  1  0  0  0  0
 20 22  1  0  0  0  0
 20 24  1  0  0  0  0
 21 20  2  0  0  0  0
 22 23  1  0  0  0  0
 25 34  1  0  0  0  0
 26 24  1  0  0  0  0
 26 25  2  0  0  0  0
 27 26  1  0  0  0  0
 28 27  1  0  0  0  0
 29 27  2  0  0  0  0
 29 31  1  0  0  0  0
 30 29  1  0  0  0  0
 31 32  2  0  0  0  0
 32 25  1  0  0  0  0
 34 33  3  0  0  0  0
M  END
>  <minimizedAffinity>
-7.03122997

>  <minimizedRMSD>
0.299089313

$$$$
