
 OpenBabel03242519253D

 41 44  0  0  0  0  0  0  0  0999 V2000
   47.8760   33.7220   42.8810 C   0  0  0  0  0  0  0  0  0  0  0  0
   48.5860   34.9250   42.7030 C   0  0  0  0  0  0  0  0  0  0  0  0
   49.9520   34.8950   42.3790 C   0  0  0  0  0  0  0  0  0  0  0  0
   50.5110   33.6500   42.2550 N   0  0  0  0  0  0  0  0  0  0  0  0
   49.7910   32.4990   42.4350 C   0  0  0  0  0  0  0  0  0  0  0  0
   48.5030   32.5520   42.7410 N   0  0  0  0  0  0  0  0  0  0  0  0
   48.2270   35.9370   42.7810 H   0  0  0  0  0  0  0  0  0  0  0  0
   50.5550   35.7650   42.2290 H   0  0  0  0  0  0  0  0  0  0  0  0
   46.4520   33.8790   43.2250 C   0  0  0  0  0  0  0  0  0  0  0  0
   45.7550   34.8880   42.4270 C   0  0  0  0  0  0  0  0  0  0  0  0
   45.3370   36.0920   43.1900 C   0  0  0  0  0  0  0  0  0  0  0  0
   44.5370   35.7660   44.4380 C   0  0  0  0  0  0  0  0  0  0  0  0
   44.9850   34.5090   45.1450 C   0  0  0  0  0  0  0  0  0  0  0  0
   46.4020   34.1460   44.7400 C   0  0  0  0  0  0  0  0  0  0  0  0
   45.9760   32.8590   43.1310 H   0  0  0  0  0  0  0  0  0  0  0  0
   46.3170   35.2200   41.5480 H   0  0  0  0  0  0  0  0  0  0  0  0
   44.8130   34.4310   42.0020 H   0  0  0  0  0  0  0  0  0  0  0  0
   44.6160   36.6600   42.5310 H   0  0  0  0  0  0  0  0  0  0  0  0
   46.1070   36.8110   43.4570 H   0  0  0  0  0  0  0  0  0  0  0  0
   43.4380   35.7430   44.2190 H   0  0  0  0  0  0  0  0  0  0  0  0
   44.6620   36.5880   45.1740 H   0  0  0  0  0  0  0  0  0  0  0  0
   44.3060   33.6680   44.8370 H   0  0  0  0  0  0  0  0  0  0  0  0
   44.9430   34.5630   46.2390 H   0  0  0  0  0  0  0  0  0  0  0  0
   47.0730   34.9970   44.9130 H   0  0  0  0  0  0  0  0  0  0  0  0
   46.7160   33.2410   45.2740 H   0  0  0  0  0  0  0  0  0  0  0  0
   50.5540   31.2620   42.2710 C   0  0  0  0  0  0  0  0  0  0  0  0
   51.5880   31.2840   41.4020 N   0  0  0  0  0  0  0  0  0  0  0  0
   52.1740   30.0760   41.3780 C   0  0  0  0  0  0  0  0  0  0  0  0
   51.4820   29.2960   42.2540 N   0  0  0  0  0  0  0  0  0  0  0  0
   50.4870   30.0200   42.8040 N   0  0  0  0  0  0  0  0  0  0  0  0
   53.0260   29.7100   40.8120 H   0  0  0  0  0  0  0  0  0  0  0  0
   51.0510   26.8360   42.0520 C   0  0  0  0  0  0  0  0  0  0  0  0
   51.6570   27.9340   42.6340 C   0  0  0  0  0  0  0  0  0  0  0  0
   52.5380   27.7590   43.7060 C   0  0  0  0  0  0  0  0  0  0  0  0
   53.0460   28.5930   44.2070 H   0  0  0  0  0  0  0  0  0  0  0  0
   52.8260   26.5030   44.2080 C   0  0  0  0  0  0  0  0  0  0  0  0
   53.5110   26.3860   45.0390 H   0  0  0  0  0  0  0  0  0  0  0  0
   52.1980   25.4260   43.5940 C   0  0  0  0  0  3  0  0  0  0  0  0
   51.3230   25.5680   42.5350 C   0  0  0  0  0  3  0  0  0  0  0  0
   49.4550   27.3010   40.0710 N   0  0  0  0  0  0  0  0  0  0  0  0
   50.1740   27.0990   40.9730 C   0  0  0  0  0  0  0  0  0  0  0  0
  1  9  1  0  0  0  0
  2  7  1  0  0  0  0
  2  1  2  0  0  0  0
  3  2  1  0  0  0  0
  4  3  2  0  0  0  0
  4  5  1  0  0  0  0
  5  6  2  0  0  0  0
  6  1  1  0  0  0  0
  8  3  1  0  0  0  0
  9 14  1  0  0  0  0
 10 11  1  0  0  0  0
 10  9  1  0  0  0  0
 11 19  1  0  0  0  0
 11 12  1  0  0  0  0
 12 13  1  0  0  0  0
 12 21  1  0  0  0  0
 13 23  1  0  0  0  0
 14 24  1  0  0  0  0
 14 13  1  0  0  0  0
 14 25  1  0  0  0  0
 15  9  1  0  0  0  0
 16 10  1  0  0  0  0
 17 10  1  0  0  0  0
 18 11  1  0  0  0  0
 20 12  1  0  0  0  0
 22 13  1  0  0  0  0
 26  5  1  0  0  0  0
 26 30  2  0  0  0  0
 27 26  1  0  0  0  0
 28 27  2  0  0  0  0
 28 29  1  0  0  0  0
 29 33  1  0  0  0  0
 29 30  1  0  0  0  0
 31 28  1  0  0  0  0
 32 39  2  0  0  0  0
 32 33  1  0  0  0  0
 33 34  2  0  0  0  0
 34 35  1  0  0  0  0
 34 36  1  0  0  0  0
 36 37  1  0  0  0  0
 38 36  2  0  0  0  0
 39 38  1  0  0  0  0
 40 41  3  0  0  0  0
 41 32  1  0  0  0  0
M  END
>  <minimizedAffinity>
-3.98498607

>  <minimizedRMSD>
0.907133341

$$$$
