
 OpenBabel03242514003D

 42 46  0  0  0  0  0  0  0  0999 V2000
   40.2450   32.1670   39.3310 C   0  0  0  0  0  0  0  0  0  0  0  0
   39.9200   33.4510   39.7610 C   0  0  0  0  0  0  0  0  0  0  0  0
   38.6690   33.6390   40.3940 C   0  0  0  0  0  0  0  0  0  0  0  0
   37.8650   32.5660   40.5440 N   0  0  0  0  0  0  0  0  0  0  0  0
   38.2090   31.3310   40.1160 C   0  0  0  0  0  0  0  0  0  0  0  0
   39.4130   31.1500   39.5070 N   0  0  0  0  0  0  0  0  0  0  0  0
   41.2110   32.0480   38.8480 H   0  0  0  0  0  0  0  0  0  0  0  0
   38.3450   34.5950   40.7540 H   0  0  0  0  0  0  0  0  0  0  0  0
   37.3780   30.1410   40.2540 C   0  0  0  0  0  0  0  0  0  0  0  0
   35.9910   30.2050   40.1420 C   0  0  0  0  0  0  0  0  0  0  0  0
   35.5060   28.9190   40.3210 C   0  0  0  0  0  0  0  0  0  0  0  0
   36.5730   28.1220   40.5310 N   0  0  0  0  0  0  0  0  0  0  0  0
   37.6690   28.8760   40.4850 N   0  0  0  0  0  0  0  0  0  0  0  0
   35.2930   31.0340   39.9530 H   0  0  0  0  0  0  0  0  0  0  0  0
   34.4960   28.5460   40.3090 H   0  0  0  0  0  0  0  0  0  0  0  0
   36.8660   26.1710   42.0300 C   0  0  0  0  0  0  0  0  0  0  0  0
   36.6900   26.7240   40.7730 C   0  0  0  0  0  0  0  0  0  0  0  0
   36.6200   25.8760   39.6640 C   0  0  0  0  0  0  0  0  0  0  0  0
   36.4840   26.2320   38.6490 H   0  0  0  0  0  0  0  0  0  0  0  0
   36.7290   24.4990   39.8490 C   0  0  0  0  0  0  0  0  0  0  0  0
   36.6810   23.8010   39.0150 H   0  0  0  0  0  0  0  0  0  0  0  0
   36.9070   23.9250   41.1130 C   0  0  0  0  0  3  0  0  0  0  0  0
   36.9740   24.7980   42.2050 C   0  0  0  0  0  3  0  0  0  0  0  0
   36.9730   27.8250   44.0410 N   0  0  0  0  0  0  0  0  0  0  0  0
   36.9300   27.0890   43.1320 C   0  0  0  0  0  0  0  0  0  0  0  0
   40.7240   34.5690   39.6210 O   0  0  0  0  0  0  0  0  0  0  0  0
   41.6170   35.0300   40.5830 C   0  0  0  0  0  0  0  0  0  0  0  0
   41.4350   36.0730   41.4570 C   0  0  0  0  0  0  0  0  0  0  0  0
   42.4290   36.4040   42.3540 C   0  0  0  0  0  0  0  0  0  0  0  0
   43.6290   35.7180   42.4180 C   0  0  0  0  0  0  0  0  0  0  0  0
   44.5420   36.0910   43.3060 N   0  0  0  0  0  0  0  0  0  0  0  0
   45.7260   35.4440   43.3970 C   0  0  0  0  0  0  0  0  0  0  0  0
   45.9490   34.3840   42.5320 C   0  0  0  0  0  0  0  0  0  0  0  0
   44.9880   33.9890   41.5930 C   0  0  0  0  0  0  0  0  0  0  0  0
   43.7920   34.6730   41.5300 C   0  0  0  0  0  0  0  0  0  0  0  0
   42.8000   34.3150   40.6080 C   0  0  0  0  0  0  0  0  0  0  0  0
   40.4800   36.5880   41.3780 H   0  0  0  0  0  0  0  0  0  0  0  0
   42.2530   37.2390   43.0340 H   0  0  0  0  0  0  0  0  0  0  0  0
   46.4850   35.7350   44.1180 H   0  0  0  0  0  0  0  0  0  0  0  0
   46.8550   33.8130   42.5300 H   0  0  0  0  0  0  0  0  0  0  0  0
   45.1590   33.1580   40.9130 H   0  0  0  0  0  0  0  0  0  0  0  0
   43.0430   33.4810   39.9670 H   0  0  0  0  0  0  0  0  0  0  0  0
  1  6  2  0  0  0  0
  1  2  1  0  0  0  0
  2  3  2  0  0  0  0
  3  4  1  0  0  0  0
  3  8  1  0  0  0  0
  5  9  1  0  0  0  0
  5  4  2  0  0  0  0
  6  5  1  0  0  0  0
  7  1  1  0  0  0  0
  9 13  2  0  0  0  0
 10  9  1  0  0  0  0
 10 11  2  0  0  0  0
 11 12  1  0  0  0  0
 12 17  1  0  0  0  0
 13 12  1  0  0  0  0
 14 10  1  0  0  0  0
 15 11  1  0  0  0  0
 16 23  1  0  0  0  0
 16 25  1  0  0  0  0
 17 16  2  0  0  0  0
 18 20  2  0  0  0  0
 18 17  1  0  0  0  0
 19 18  1  0  0  0  0
 20 22  1  0  0  0  0
 21 20  1  0  0  0  0
 22 23  2  0  0  0  0
 25 24  3  0  0  0  0
 26  2  1  0  0  0  0
 26 27  1  0  0  0  0
 27 36  2  0  0  0  0
 27 28  1  0  0  0  0
 28 29  2  0  0  0  0
 29 30  1  0  0  0  0
 29 38  1  0  0  0  0
 30 31  1  0  0  0  0
 31 32  2  0  0  0  0
 32 39  1  0  0  0  0
 33 32  1  0  0  0  0
 34 33  2  0  0  0  0
 35 34  1  0  0  0  0
 35 30  2  0  0  0  0
 36 35  1  0  0  0  0
 37 28  1  0  0  0  0
 40 33  1  0  0  0  0
 41 34  1  0  0  0  0
 42 36  1  0  0  0  0
M  END
>  <minimizedAffinity>
-7.24305725

$$$$

 OpenBabel03242514003D

 42 46  0  0  0  0  0  0  0  0999 V2000
   38.5490   30.3880   41.5430 C   0  0  0  0  0  0  0  0  0  0  0  0
   37.2530   30.4830   41.0400 C   0  0  0  0  0  0  0  0  0  0  0  0
   36.8900   31.6760   40.3730 C   0  0  0  0  0  0  0  0  0  0  0  0
   37.8160   32.6500   40.2630 N   0  0  0  0  0  0  0  0  0  0  0  0
   39.0660   32.5290   40.7620 C   0  0  0  0  0  0  0  0  0  0  0  0
   39.4170   31.3810   41.4050 N   0  0  0  0  0  0  0  0  0  0  0  0
   38.8050   29.4620   42.0520 H   0  0  0  0  0  0  0  0  0  0  0  0
   35.9140   31.8270   39.9570 H   0  0  0  0  0  0  0  0  0  0  0  0
   40.1020   33.5500   40.6700 C   0  0  0  0  0  0  0  0  0  0  0  0
   39.9620   34.6570   39.8360 C   0  0  0  0  0  0  0  0  0  0  0  0
   41.1050   35.4260   39.9790 C   0  0  0  0  0  0  0  0  0  0  0  0
   41.8960   34.7930   40.8690 N   0  0  0  0  0  0  0  0  0  0  0  0
   41.2730   33.6840   41.2600 N   0  0  0  0  0  0  0  0  0  0  0  0
   39.1630   34.9810   39.1520 H   0  0  0  0  0  0  0  0  0  0  0  0
   41.3850   36.3550   39.5100 H   0  0  0  0  0  0  0  0  0  0  0  0
   44.3680   34.6240   40.8800 C   0  0  0  0  0  0  0  0  0  0  0  0
   43.1790   35.1060   41.4010 C   0  0  0  0  0  0  0  0  0  0  0  0
   43.2200   35.9510   42.5130 C   0  0  0  0  0  0  0  0  0  0  0  0
   42.3340   36.3690   42.9770 H   0  0  0  0  0  0  0  0  0  0  0  0
   44.4520   36.2880   43.0710 C   0  0  0  0  0  0  0  0  0  0  0  0
   44.5320   36.9420   43.9360 H   0  0  0  0  0  0  0  0  0  0  0  0
   45.6620   35.8080   42.5560 C   0  0  0  0  0  3  0  0  0  0  0  0
   45.5910   34.9640   41.4430 C   0  0  0  0  0  3  0  0  0  0  0  0
   44.1740   33.0710   38.7970 N   0  0  0  0  0  0  0  0  0  0  0  0
   44.2650   33.7600   39.7380 C   0  0  0  0  0  0  0  0  0  0  0  0
   36.2840   29.5010   41.1380 O   0  0  0  0  0  0  0  0  0  0  0  0
   36.5370   28.1580   41.3990 C   0  0  0  0  0  0  0  0  0  0  0  0
   36.7210   27.5680   42.6260 C   0  0  0  0  0  0  0  0  0  0  0  0
   36.9650   26.2140   42.7120 C   0  0  0  0  0  0  0  0  0  0  0  0
   37.0350   25.4000   41.5940 C   0  0  0  0  0  0  0  0  0  0  0  0
   37.2730   24.1050   41.7500 N   0  0  0  0  0  0  0  0  0  0  0  0
   37.3490   23.2800   40.6820 C   0  0  0  0  0  0  0  0  0  0  0  0
   37.1680   23.8350   39.4240 C   0  0  0  0  0  0  0  0  0  0  0  0
   36.9170   25.2030   39.2560 C   0  0  0  0  0  0  0  0  0  0  0  0
   36.8470   26.0140   40.3710 C   0  0  0  0  0  0  0  0  0  0  0  0
   36.5980   27.3870   40.2540 C   0  0  0  0  0  0  0  0  0  0  0  0
   36.6590   28.2380   43.4810 H   0  0  0  0  0  0  0  0  0  0  0  0
   37.1070   25.7770   43.7010 H   0  0  0  0  0  0  0  0  0  0  0  0
   37.5430   22.2160   40.7890 H   0  0  0  0  0  0  0  0  0  0  0  0
   37.2100   23.2620   38.5210 H   0  0  0  0  0  0  0  0  0  0  0  0
   36.7740   25.6430   38.2730 H   0  0  0  0  0  0  0  0  0  0  0  0
   36.4680   27.7490   39.2450 H   0  0  0  0  0  0  0  0  0  0  0  0
  1  7  1  0  0  0  0
  2 26  1  0  0  0  0
  2  1  2  0  0  0  0
  3  2  1  0  0  0  0
  4  3  2  0  0  0  0
  4  5  1  0  0  0  0
  5  6  2  0  0  0  0
  6  1  1  0  0  0  0
  8  3  1  0  0  0  0
  9  5  1  0  0  0  0
  9 13  2  0  0  0  0
 10 11  2  0  0  0  0
 10  9  1  0  0  0  0
 11 12  1  0  0  0  0
 12 13  1  0  0  0  0
 12 17  1  0  0  0  0
 14 10  1  0  0  0  0
 15 11  1  0  0  0  0
 16 17  2  0  0  0  0
 16 23  1  0  0  0  0
 17 18  1  0  0  0  0
 18 19  1  0  0  0  0
 18 20  2  0  0  0  0
 20 21  1  0  0  0  0
 22 20  1  0  0  0  0
 23 22  2  0  0  0  0
 24 25  3  0  0  0  0
 25 16  1  0  0  0  0
 26 27  1  0  0  0  0
 27 28  1  0  0  0  0
 28 29  2  0  0  0  0
 28 37  1  0  0  0  0
 29 38  1  0  0  0  0
 30 31  1  0  0  0  0
 30 29  1  0  0  0  0
 32 39  1  0  0  0  0
 32 31  2  0  0  0  0
 33 32  1  0  0  0  0
 34 33  2  0  0  0  0
 34 35  1  0  0  0  0
 35 30  2  0  0  0  0
 36 35  1  0  0  0  0
 36 27  2  0  0  0  0
 40 33  1  0  0  0  0
 41 34  1  0  0  0  0
 42 36  1  0  0  0  0
M  END
>  <minimizedAffinity>
-7.00946283

$$$$

 OpenBabel03242514003D

 42 46  0  0  0  0  0  0  0  0999 V2000
   38.7940   27.5010   41.0270 C   0  0  0  0  0  0  0  0  0  0  0  0
   37.7930   26.9980   41.8540 C   0  0  0  0  0  0  0  0  0  0  0  0
   36.7680   27.8840   42.2630 C   0  0  0  0  0  0  0  0  0  0  0  0
   36.8200   29.1600   41.8290 N   0  0  0  0  0  0  0  0  0  0  0  0
   37.8050   29.6190   41.0250 C   0  0  0  0  0  0  0  0  0  0  0  0
   38.7920   28.7670   40.6320 N   0  0  0  0  0  0  0  0  0  0  0  0
   39.5700   26.8020   40.7260 H   0  0  0  0  0  0  0  0  0  0  0  0
   35.9620   27.5760   42.8980 H   0  0  0  0  0  0  0  0  0  0  0  0
   37.9070   30.9850   40.5300 C   0  0  0  0  0  0  0  0  0  0  0  0
   36.8760   31.5740   39.8020 C   0  0  0  0  0  0  0  0  0  0  0  0
   37.2820   32.8610   39.4840 C   0  0  0  0  0  0  0  0  0  0  0  0
   38.5130   33.0250   40.0080 N   0  0  0  0  0  0  0  0  0  0  0  0
   38.8560   31.8960   40.6220 N   0  0  0  0  0  0  0  0  0  0  0  0
   35.8900   31.2120   39.4740 H   0  0  0  0  0  0  0  0  0  0  0  0
   36.7760   33.6360   38.9330 H   0  0  0  0  0  0  0  0  0  0  0  0
   40.5660   34.1750   39.2310 C   0  0  0  0  0  0  0  0  0  0  0  0
   39.4170   34.1260   40.0010 C   0  0  0  0  0  0  0  0  0  0  0  0
   39.1070   35.2110   40.8250 C   0  0  0  0  0  0  0  0  0  0  0  0
   38.2270   35.2480   41.4570 H   0  0  0  0  0  0  0  0  0  0  0  0
   39.9600   36.3130   40.8540 C   0  0  0  0  0  0  0  0  0  0  0  0
   39.7590   37.1790   41.4800 H   0  0  0  0  0  0  0  0  0  0  0  0
   41.1260   36.3770   40.0810 C   0  0  0  0  0  3  0  0  0  0  0  0
   41.4100   35.2770   39.2660 C   0  0  0  0  0  3  0  0  0  0  0  0
   41.0380   32.1080   37.7160 N   0  0  0  0  0  0  0  0  0  0  0  0
   40.8330   33.0330   38.4030 C   0  0  0  0  0  0  0  0  0  0  0  0
   37.7140   25.6960   42.3150 O   0  0  0  0  0  0  0  0  0  0  0  0
   37.6320   24.5710   41.5020 C   0  0  0  0  0  0  0  0  0  0  0  0
   38.6150   23.6430   41.2600 C   0  0  0  0  0  0  0  0  0  0  0  0
   38.3700   22.5770   40.4210 C   0  0  0  0  0  0  0  0  0  0  0  0
   37.1490   22.3920   39.7950 C   0  0  0  0  0  0  0  0  0  0  0  0
   36.9810   21.3430   39.0000 N   0  0  0  0  0  0  0  0  0  0  0  0
   35.8030   21.1300   38.3730 C   0  0  0  0  0  0  0  0  0  0  0  0
   34.7820   22.0430   38.5900 C   0  0  0  0  0  0  0  0  0  0  0  0
   34.9560   23.1510   39.4280 C   0  0  0  0  0  0  0  0  0  0  0  0
   36.1740   23.3360   40.0520 C   0  0  0  0  0  0  0  0  0  0  0  0
   36.3950   24.4280   40.8990 C   0  0  0  0  0  0  0  0  0  0  0  0
   39.5610   23.8220   41.7680 H   0  0  0  0  0  0  0  0  0  0  0  0
   39.1730   21.8600   40.2500 H   0  0  0  0  0  0  0  0  0  0  0  0
   35.6470   20.2770   37.7180 H   0  0  0  0  0  0  0  0  0  0  0  0
   33.8160   21.9570   38.1370 H   0  0  0  0  0  0  0  0  0  0  0  0
   34.1590   23.8690   39.6020 H   0  0  0  0  0  0  0  0  0  0  0  0
   35.5570   25.0970   41.0210 H   0  0  0  0  0  0  0  0  0  0  0  0
  1  2  1  0  0  0  0
  2  3  2  0  0  0  0
  2 26  1  0  0  0  0
  3  8  1  0  0  0  0
  4  3  1  0  0  0  0
  5  4  2  0  0  0  0
  6  5  1  0  0  0  0
  6  1  2  0  0  0  0
  7  1  1  0  0  0  0
  9 13  2  0  0  0  0
  9  5  1  0  0  0  0
 10  9  1  0  0  0  0
 11 10  2  0  0  0  0
 11 12  1  0  0  0  0
 12 13  1  0  0  0  0
 14 10  1  0  0  0  0
 15 11  1  0  0  0  0
 16 23  2  0  0  0  0
 16 17  1  0  0  0  0
 17 12  1  0  0  0  0
 17 18  2  0  0  0  0
 18 20  1  0  0  0  0
 18 19  1  0  0  0  0
 20 21  1  0  0  0  0
 22 20  2  0  0  0  0
 23 22  1  0  0  0  0
 24 25  3  0  0  0  0
 25 16  1  0  0  0  0
 27 26  1  0  0  0  0
 28 27  1  0  0  0  0
 28 37  1  0  0  0  0
 29 28  2  0  0  0  0
 30 35  1  0  0  0  0
 30 29  1  0  0  0  0
 31 30  2  0  0  0  0
 32 33  2  0  0  0  0
 32 31  1  0  0  0  0
 33 34  1  0  0  0  0
 34 41  1  0  0  0  0
 34 35  2  0  0  0  0
 35 36  1  0  0  0  0
 36 42  1  0  0  0  0
 36 27  2  0  0  0  0
 38 29  1  0  0  0  0
 39 32  1  0  0  0  0
 40 33  1  0  0  0  0
M  END
>  <minimizedAffinity>
-6.58140755

$$$$

 OpenBabel03242514003D

 42 46  0  0  0  0  0  0  0  0999 V2000
   40.3170   32.6640   39.2430 C   0  0  0  0  0  0  0  0  0  0  0  0
   40.1820   33.9300   39.8090 C   0  0  0  0  0  0  0  0  0  0  0  0
   38.9480   34.2490   40.4220 C   0  0  0  0  0  0  0  0  0  0  0  0
   37.9770   33.3140   40.4230 N   0  0  0  0  0  0  0  0  0  0  0  0
   38.1390   32.0930   39.8650 C   0  0  0  0  0  0  0  0  0  0  0  0
   39.3260   31.7840   39.2750 N   0  0  0  0  0  0  0  0  0  0  0  0
   41.2740   32.4410   38.7780 H   0  0  0  0  0  0  0  0  0  0  0  0
   38.7630   35.2000   40.8800 H   0  0  0  0  0  0  0  0  0  0  0  0
   37.1230   31.0480   39.8400 C   0  0  0  0  0  0  0  0  0  0  0  0
   36.2440   30.8610   40.9030 C   0  0  0  0  0  0  0  0  0  0  0  0
   35.4150   29.8010   40.5690 C   0  0  0  0  0  0  0  0  0  0  0  0
   35.7940   29.3770   39.3470 N   0  0  0  0  0  0  0  0  0  0  0  0
   36.8080   30.1360   38.9410 N   0  0  0  0  0  0  0  0  0  0  0  0
   36.1190   31.3730   41.8690 H   0  0  0  0  0  0  0  0  0  0  0  0
   34.6070   29.3460   41.1180 H   0  0  0  0  0  0  0  0  0  0  0  0
   35.7890   27.0340   38.5400 C   0  0  0  0  0  0  0  0  0  0  0  0
   35.3130   28.3340   38.5040 C   0  0  0  0  0  0  0  0  0  0  0  0
   34.3020   28.6610   37.5970 C   0  0  0  0  0  0  0  0  0  0  0  0
   33.8780   29.6540   37.5090 H   0  0  0  0  0  0  0  0  0  0  0  0
   33.7980   27.6740   36.7520 C   0  0  0  0  0  0  0  0  0  0  0  0
   33.0110   27.8830   36.0290 H   0  0  0  0  0  0  0  0  0  0  0  0
   34.2680   26.3560   36.7750 C   0  0  0  0  0  3  0  0  0  0  0  0
   35.2800   26.0580   37.6940 C   0  0  0  0  0  3  0  0  0  0  0  0
   37.6850   26.5270   40.2540 N   0  0  0  0  0  0  0  0  0  0  0  0
   36.8260   26.7560   39.4930 C   0  0  0  0  0  0  0  0  0  0  0  0
   41.1590   34.9090   39.8230 O   0  0  0  0  0  0  0  0  0  0  0  0
   41.9850   35.1900   40.9060 C   0  0  0  0  0  0  0  0  0  0  0  0
   41.9240   36.2800   41.7390 C   0  0  0  0  0  0  0  0  0  0  0  0
   42.8260   36.4100   42.7740 C   0  0  0  0  0  0  0  0  0  0  0  0
   43.8130   35.4720   43.0200 C   0  0  0  0  0  0  0  0  0  0  0  0
   44.6470   35.6600   44.0340 N   0  0  0  0  0  0  0  0  0  0  0  0
   45.6240   34.7650   44.3050 C   0  0  0  0  0  0  0  0  0  0  0  0
   45.7200   33.6490   43.4870 C   0  0  0  0  0  0  0  0  0  0  0  0
   44.8400   33.4480   42.4160 C   0  0  0  0  0  0  0  0  0  0  0  0
   43.8570   34.3830   42.1700 C   0  0  0  0  0  0  0  0  0  0  0  0
   42.9540   34.2260   41.1110 C   0  0  0  0  0  0  0  0  0  0  0  0
   41.1370   36.9970   41.5150 H   0  0  0  0  0  0  0  0  0  0  0  0
   42.7510   37.2880   43.4160 H   0  0  0  0  0  0  0  0  0  0  0  0
   46.3160   34.9020   45.1310 H   0  0  0  0  0  0  0  0  0  0  0  0
   46.4590   32.8870   43.6240 H   0  0  0  0  0  0  0  0  0  0  0  0
   44.9110   32.5740   41.7730 H   0  0  0  0  0  0  0  0  0  0  0  0
   43.0880   33.3340   40.5180 H   0  0  0  0  0  0  0  0  0  0  0  0
  1  6  2  0  0  0  0
  1  2  1  0  0  0  0
  2 26  1  0  0  0  0
  2  3  2  0  0  0  0
  3  4  1  0  0  0  0
  3  8  1  0  0  0  0
  5  4  2  0  0  0  0
  6  5  1  0  0  0  0
  7  1  1  0  0  0  0
  9  5  1  0  0  0  0
  9 10  1  0  0  0  0
 10 14  1  0  0  0  0
 11 10  2  0  0  0  0
 11 15  1  0  0  0  0
 12 11  1  0  0  0  0
 13 12  1  0  0  0  0
 13  9  2  0  0  0  0
 16 25  1  0  0  0  0
 17 16  1  0  0  0  0
 17 12  1  0  0  0  0
 18 17  2  0  0  0  0
 19 18  1  0  0  0  0
 20 22  2  0  0  0  0
 20 18  1  0  0  0  0
 21 20  1  0  0  0  0
 22 23  1  0  0  0  0
 23 16  2  0  0  0  0
 25 24  3  0  0  0  0
 26 27  1  0  0  0  0
 27 36  2  0  0  0  0
 27 28  1  0  0  0  0
 28 29  2  0  0  0  0
 29 30  1  0  0  0  0
 29 38  1  0  0  0  0
 30 31  1  0  0  0  0
 31 32  2  0  0  0  0
 32 39  1  0  0  0  0
 33 40  1  0  0  0  0
 33 32  1  0  0  0  0
 34 33  2  0  0  0  0
 35 34  1  0  0  0  0
 35 30  2  0  0  0  0
 36 35  1  0  0  0  0
 37 28  1  0  0  0  0
 41 34  1  0  0  0  0
 42 36  1  0  0  0  0
M  END
>  <minimizedAffinity>
-6.5164094

$$$$

 OpenBabel03242514003D

 42 46  0  0  0  0  0  0  0  0999 V2000
   38.8850   30.7900   38.8770 C   0  0  0  0  0  0  0  0  0  0  0  0
   38.6320   31.9620   39.5870 C   0  0  0  0  0  0  0  0  0  0  0  0
   37.9690   31.8490   40.8310 C   0  0  0  0  0  0  0  0  0  0  0  0
   37.6220   30.6180   41.2580 N   0  0  0  0  0  0  0  0  0  0  0  0
   37.8820   29.4980   40.5460 C   0  0  0  0  0  0  0  0  0  0  0  0
   38.5190   29.6060   39.3480 N   0  0  0  0  0  0  0  0  0  0  0  0
   39.3950   30.9020   37.9240 H   0  0  0  0  0  0  0  0  0  0  0  0
   37.7380   32.7020   41.4390 H   0  0  0  0  0  0  0  0  0  0  0  0
   37.5280   28.1470   40.9620 C   0  0  0  0  0  0  0  0  0  0  0  0
   36.9970   27.8880   42.2230 C   0  0  0  0  0  0  0  0  0  0  0  0
   36.7730   26.5230   42.3020 C   0  0  0  0  0  0  0  0  0  0  0  0
   37.1600   25.9930   41.1240 N   0  0  0  0  0  0  0  0  0  0  0  0
   37.6020   26.9810   40.3500 N   0  0  0  0  0  0  0  0  0  0  0  0
   36.7530   28.5360   43.0790 H   0  0  0  0  0  0  0  0  0  0  0  0
   36.3740   25.9260   43.1040 H   0  0  0  0  0  0  0  0  0  0  0  0
   38.0980   23.7030   41.0000 C   0  0  0  0  0  0  0  0  0  0  0  0
   37.1650   24.6570   40.6310 C   0  0  0  0  0  0  0  0  0  0  0  0
   36.1600   24.3070   39.7260 C   0  0  0  0  0  0  0  0  0  0  0  0
   35.3940   24.9960   39.3890 H   0  0  0  0  0  0  0  0  0  0  0  0
   36.1210   23.0100   39.2150 C   0  0  0  0  0  0  0  0  0  0  0  0
   35.3580   22.6930   38.5080 H   0  0  0  0  0  0  0  0  0  0  0  0
   37.0580   22.0350   39.5780 C   0  0  0  0  0  3  0  0  0  0  0  0
   38.0520   22.4140   40.4860 C   0  0  0  0  0  3  0  0  0  0  0  0
   39.9220   24.4440   42.7060 N   0  0  0  0  0  0  0  0  0  0  0  0
   39.1070   24.1190   41.9330 C   0  0  0  0  0  0  0  0  0  0  0  0
   38.9760   33.2370   39.1750 O   0  0  0  0  0  0  0  0  0  0  0  0
   39.7740   34.1170   39.8990 C   0  0  0  0  0  0  0  0  0  0  0  0
   39.4950   35.4220   40.2220 C   0  0  0  0  0  0  0  0  0  0  0  0
   40.4010   36.1630   40.9510 C   0  0  0  0  0  0  0  0  0  0  0  0
   41.6080   35.6410   41.3840 C   0  0  0  0  0  0  0  0  0  0  0  0
   42.4320   36.4110   42.0820 N   0  0  0  0  0  0  0  0  0  0  0  0
   43.6190   35.9360   42.5220 C   0  0  0  0  0  0  0  0  0  0  0  0
   43.9400   34.6220   42.2170 C   0  0  0  0  0  0  0  0  0  0  0  0
   43.0720   33.8070   41.4800 C   0  0  0  0  0  0  0  0  0  0  0  0
   41.8690   34.3270   41.0480 C   0  0  0  0  0  0  0  0  0  0  0  0
   40.9670   33.5510   40.3090 C   0  0  0  0  0  0  0  0  0  0  0  0
   38.5380   35.7970   39.8640 H   0  0  0  0  0  0  0  0  0  0  0  0
   40.1480   37.1970   41.1890 H   0  0  0  0  0  0  0  0  0  0  0  0
   44.3080   36.5510   43.0940 H   0  0  0  0  0  0  0  0  0  0  0  0
   44.8560   34.1590   42.5220 H   0  0  0  0  0  0  0  0  0  0  0  0
   43.3180   32.7760   41.2400 H   0  0  0  0  0  0  0  0  0  0  0  0
   41.2830   32.5390   40.1100 H   0  0  0  0  0  0  0  0  0  0  0  0
  1  6  2  0  0  0  0
  1  2  1  0  0  0  0
  2  3  2  0  0  0  0
  3  4  1  0  0  0  0
  3  8  1  0  0  0  0
  5  9  1  0  0  0  0
  5  4  2  0  0  0  0
  6  5  1  0  0  0  0
  7  1  1  0  0  0  0
  9 10  1  0  0  0  0
 10 11  2  0  0  0  0
 10 14  1  0  0  0  0
 11 15  1  0  0  0  0
 12 11  1  0  0  0  0
 13  9  2  0  0  0  0
 13 12  1  0  0  0  0
 16 25  1  0  0  0  0
 17 16  1  0  0  0  0
 17 12  1  0  0  0  0
 18 17  2  0  0  0  0
 19 18  1  0  0  0  0
 20 22  2  0  0  0  0
 20 18  1  0  0  0  0
 21 20  1  0  0  0  0
 22 23  1  0  0  0  0
 23 16  2  0  0  0  0
 25 24  3  0  0  0  0
 26  2  1  0  0  0  0
 26 27  1  0  0  0  0
 27 28  2  0  0  0  0
 27 36  1  0  0  0  0
 28 29  1  0  0  0  0
 29 38  1  0  0  0  0
 29 30  2  0  0  0  0
 30 31  1  0  0  0  0
 31 32  2  0  0  0  0
 32 39  1  0  0  0  0
 33 32  1  0  0  0  0
 33 40  1  0  0  0  0
 34 33  2  0  0  0  0
 35 30  1  0  0  0  0
 35 34  1  0  0  0  0
 36 35  2  0  0  0  0
 37 28  1  0  0  0  0
 41 34  1  0  0  0  0
 42 36  1  0  0  0  0
M  END
>  <minimizedAffinity>
-6.47677326

$$$$

 OpenBabel03242514003D

 42 46  0  0  0  0  0  0  0  0999 V2000
   38.3540   30.7960   40.8660 C   0  0  0  0  0  0  0  0  0  0  0  0
   38.4410   30.0410   39.6980 C   0  0  0  0  0  0  0  0  0  0  0  0
   39.3710   30.4510   38.7150 C   0  0  0  0  0  0  0  0  0  0  0  0
   40.1180   31.5460   38.9630 N   0  0  0  0  0  0  0  0  0  0  0  0
   40.0110   32.2590   40.1070 C   0  0  0  0  0  0  0  0  0  0  0  0
   39.1160   31.8650   41.0540 N   0  0  0  0  0  0  0  0  0  0  0  0
   37.6330   30.4620   41.6070 H   0  0  0  0  0  0  0  0  0  0  0  0
   39.4990   29.9250   37.7900 H   0  0  0  0  0  0  0  0  0  0  0  0
   40.7930   33.4470   40.4240 C   0  0  0  0  0  0  0  0  0  0  0  0
   40.3910   34.7150   40.0130 C   0  0  0  0  0  0  0  0  0  0  0  0
   41.3400   35.6160   40.4690 C   0  0  0  0  0  0  0  0  0  0  0  0
   42.2740   34.9010   41.1280 N   0  0  0  0  0  0  0  0  0  0  0  0
   41.9220   33.6190   41.0840 N   0  0  0  0  0  0  0  0  0  0  0  0
   39.5220   35.0750   39.4400 H   0  0  0  0  0  0  0  0  0  0  0  0
   41.3960   36.6860   40.3610 H   0  0  0  0  0  0  0  0  0  0  0  0
   44.7410   34.9640   41.3520 C   0  0  0  0  0  0  0  0  0  0  0  0
   43.4700   35.2800   41.8020 C   0  0  0  0  0  0  0  0  0  0  0  0
   43.3320   36.0160   42.9820 C   0  0  0  0  0  0  0  0  0  0  0  0
   42.3730   36.3020   43.3970 H   0  0  0  0  0  0  0  0  0  0  0  0
   44.4730   36.4110   43.6770 C   0  0  0  0  0  0  0  0  0  0  0  0
   44.4140   36.9840   44.6000 H   0  0  0  0  0  0  0  0  0  0  0  0
   45.7650   36.0990   43.2360 C   0  0  0  0  0  3  0  0  0  0  0  0
   45.8720   35.3620   42.0520 C   0  0  0  0  0  3  0  0  0  0  0  0
   44.9060   33.5910   39.1440 N   0  0  0  0  0  0  0  0  0  0  0  0
   44.8210   34.2080   40.1340 C   0  0  0  0  0  0  0  0  0  0  0  0
   37.6890   28.9150   39.4160 O   0  0  0  0  0  0  0  0  0  0  0  0
   36.3740   28.9310   38.9620 C   0  0  0  0  0  0  0  0  0  0  0  0
   35.2300   28.9260   39.7220 C   0  0  0  0  0  0  0  0  0  0  0  0
   33.9940   28.9440   39.1100 C   0  0  0  0  0  0  0  0  0  0  0  0
   33.8480   28.9670   37.7340 C   0  0  0  0  0  0  0  0  0  0  0  0
   32.6280   28.9830   37.2120 N   0  0  0  0  0  0  0  0  0  0  0  0
   32.4470   29.0060   35.8730 C   0  0  0  0  0  0  0  0  0  0  0  0
   33.5770   29.0120   35.0690 C   0  0  0  0  0  0  0  0  0  0  0  0
   34.8660   28.9940   35.6170 C   0  0  0  0  0  0  0  0  0  0  0  0
   35.0110   28.9710   36.9890 C   0  0  0  0  0  0  0  0  0  0  0  0
   36.2790   28.9540   37.5830 C   0  0  0  0  0  0  0  0  0  0  0  0
   35.3840   28.9080   40.7990 H   0  0  0  0  0  0  0  0  0  0  0  0
   33.1060   28.9390   39.7430 H   0  0  0  0  0  0  0  0  0  0  0  0
   31.4560   29.0200   35.4270 H   0  0  0  0  0  0  0  0  0  0  0  0
   33.5320   29.0300   34.0000 H   0  0  0  0  0  0  0  0  0  0  0  0
   35.7540   28.9990   34.9920 H   0  0  0  0  0  0  0  0  0  0  0  0
   37.1120   28.9590   36.8970 H   0  0  0  0  0  0  0  0  0  0  0  0
  1  6  1  0  0  0  0
  1  7  1  0  0  0  0
  2  1  2  0  0  0  0
  3  4  2  0  0  0  0
  3  2  1  0  0  0  0
  4  5  1  0  0  0  0
  5  9  1  0  0  0  0
  5  6  2  0  0  0  0
  8  3  1  0  0  0  0
  9 13  2  0  0  0  0
 10  9  1  0  0  0  0
 10 11  2  0  0  0  0
 11 12  1  0  0  0  0
 12 17  1  0  0  0  0
 13 12  1  0  0  0  0
 14 10  1  0  0  0  0
 15 11  1  0  0  0  0
 16 17  2  0  0  0  0
 16 23  1  0  0  0  0
 17 18  1  0  0  0  0
 18 19  1  0  0  0  0
 18 20  2  0  0  0  0
 20 21  1  0  0  0  0
 22 20  1  0  0  0  0
 23 22  2  0  0  0  0
 24 25  3  0  0  0  0
 25 16  1  0  0  0  0
 26  2  1  0  0  0  0
 27 26  1  0  0  0  0
 27 28  1  0  0  0  0
 28 37  1  0  0  0  0
 29 28  2  0  0  0  0
 29 38  1  0  0  0  0
 30 29  1  0  0  0  0
 31 30  1  0  0  0  0
 32 31  2  0  0  0  0
 33 34  2  0  0  0  0
 33 32  1  0  0  0  0
 34 35  1  0  0  0  0
 35 36  1  0  0  0  0
 35 30  2  0  0  0  0
 36 27  2  0  0  0  0
 39 32  1  0  0  0  0
 40 33  1  0  0  0  0
 41 34  1  0  0  0  0
 42 36  1  0  0  0  0
M  END
>  <minimizedAffinity>
-6.3087635

$$$$

 OpenBabel03242514003D

 42 46  0  0  0  0  0  0  0  0999 V2000
   37.8850   29.6720   41.7200 C   0  0  0  0  0  0  0  0  0  0  0  0
   38.4010   28.6030   42.4470 C   0  0  0  0  0  0  0  0  0  0  0  0
   39.7610   28.6620   42.8310 C   0  0  0  0  0  0  0  0  0  0  0  0
   40.4780   29.7470   42.4710 N   0  0  0  0  0  0  0  0  0  0  0  0
   39.9470   30.7700   41.7630 C   0  0  0  0  0  0  0  0  0  0  0  0
   38.6380   30.7140   41.3940 N   0  0  0  0  0  0  0  0  0  0  0  0
   36.8370   29.6050   41.4360 H   0  0  0  0  0  0  0  0  0  0  0  0
   40.2350   27.8820   43.3930 H   0  0  0  0  0  0  0  0  0  0  0  0
   40.6760   31.9620   41.3500 C   0  0  0  0  0  0  0  0  0  0  0  0
   40.2040   32.7890   40.3340 C   0  0  0  0  0  0  0  0  0  0  0  0
   41.1170   33.8210   40.1860 C   0  0  0  0  0  0  0  0  0  0  0  0
   42.0980   33.6080   41.0870 N   0  0  0  0  0  0  0  0  0  0  0  0
   41.8080   32.4990   41.7610 N   0  0  0  0  0  0  0  0  0  0  0  0
   39.3070   32.7530   39.6970 H   0  0  0  0  0  0  0  0  0  0  0  0
   41.1180   34.6610   39.5130 H   0  0  0  0  0  0  0  0  0  0  0  0
   44.4980   34.1270   40.7500 C   0  0  0  0  0  0  0  0  0  0  0  0
   43.2880   34.3290   41.3930 C   0  0  0  0  0  0  0  0  0  0  0  0
   43.2090   35.2920   42.4020 C   0  0  0  0  0  0  0  0  0  0  0  0
   42.2990   35.5080   42.9510 H   0  0  0  0  0  0  0  0  0  0  0  0
   44.3460   36.0240   42.7380 C   0  0  0  0  0  0  0  0  0  0  0  0
   44.3320   36.7830   43.5180 H   0  0  0  0  0  0  0  0  0  0  0  0
   45.5760   35.8320   42.0990 C   0  0  0  0  0  3  0  0  0  0  0  0
   45.6260   34.8610   41.0920 C   0  0  0  0  0  3  0  0  0  0  0  0
   44.5530   32.3190   38.8760 N   0  0  0  0  0  0  0  0  0  0  0  0
   44.5190   33.1260   39.7210 C   0  0  0  0  0  0  0  0  0  0  0  0
   37.6920   27.4790   42.8310 O   0  0  0  0  0  0  0  0  0  0  0  0
   37.8770   26.2060   42.3050 C   0  0  0  0  0  0  0  0  0  0  0  0
   38.8600   25.3040   42.6300 C   0  0  0  0  0  0  0  0  0  0  0  0
   38.9040   24.0740   42.0090 C   0  0  0  0  0  0  0  0  0  0  0  0
   37.9800   23.6940   41.0500 C   0  0  0  0  0  0  0  0  0  0  0  0
   38.0810   22.4940   40.4940 N   0  0  0  0  0  0  0  0  0  0  0  0
   37.1970   22.0890   39.5540 C   0  0  0  0  0  0  0  0  0  0  0  0
   36.1870   22.9690   39.1970 C   0  0  0  0  0  0  0  0  0  0  0  0
   36.0780   24.2360   39.7830 C   0  0  0  0  0  0  0  0  0  0  0  0
   36.9990   24.6150   40.7380 C   0  0  0  0  0  0  0  0  0  0  0  0
   36.9310   25.8720   41.3530 C   0  0  0  0  0  0  0  0  0  0  0  0
   39.5680   25.6380   43.3860 H   0  0  0  0  0  0  0  0  0  0  0  0
   39.6990   23.3820   42.2890 H   0  0  0  0  0  0  0  0  0  0  0  0
   37.2630   21.1100   39.0870 H   0  0  0  0  0  0  0  0  0  0  0  0
   35.4420   22.7360   38.4650 H   0  0  0  0  0  0  0  0  0  0  0  0
   35.2880   24.9300   39.5080 H   0  0  0  0  0  0  0  0  0  0  0  0
   36.1200   26.5040   41.0250 H   0  0  0  0  0  0  0  0  0  0  0  0
  1  2  1  0  0  0  0
  2 26  1  0  0  0  0
  2  3  2  0  0  0  0
  3  8  1  0  0  0  0
  4  3  1  0  0  0  0
  5  4  2  0  0  0  0
  6  1  2  0  0  0  0
  6  5  1  0  0  0  0
  7  1  1  0  0  0  0
  9 13  2  0  0  0  0
  9  5  1  0  0  0  0
 10  9  1  0  0  0  0
 11 10  2  0  0  0  0
 11 12  1  0  0  0  0
 12 17  1  0  0  0  0
 12 13  1  0  0  0  0
 14 10  1  0  0  0  0
 15 11  1  0  0  0  0
 16 23  2  0  0  0  0
 16 17  1  0  0  0  0
 17 18  2  0  0  0  0
 18 20  1  0  0  0  0
 18 19  1  0  0  0  0
 20 21  1  0  0  0  0
 22 20  2  0  0  0  0
 23 22  1  0  0  0  0
 24 25  3  0  0  0  0
 25 16  1  0  0  0  0
 27 28  1  0  0  0  0
 27 26  1  0  0  0  0
 28 37  1  0  0  0  0
 29 38  1  0  0  0  0
 29 28  2  0  0  0  0
 30 29  1  0  0  0  0
 31 30  2  0  0  0  0
 32 31  1  0  0  0  0
 33 32  2  0  0  0  0
 33 34  1  0  0  0  0
 34 35  2  0  0  0  0
 35 30  1  0  0  0  0
 35 36  1  0  0  0  0
 36 27  2  0  0  0  0
 39 32  1  0  0  0  0
 40 33  1  0  0  0  0
 41 34  1  0  0  0  0
 42 36  1  0  0  0  0
M  END
>  <minimizedAffinity>
-6.29399443

$$$$

 OpenBabel03242514003D

 42 46  0  0  0  0  0  0  0  0999 V2000
   37.4540   31.1940   39.6400 C   0  0  0  0  0  0  0  0  0  0  0  0
   37.3440   30.2550   40.6630 C   0  0  0  0  0  0  0  0  0  0  0  0
   38.3080   30.2900   41.6970 C   0  0  0  0  0  0  0  0  0  0  0  0
   39.2760   31.2270   41.6330 N   0  0  0  0  0  0  0  0  0  0  0  0
   39.3570   32.1260   40.6270 C   0  0  0  0  0  0  0  0  0  0  0  0
   38.4290   32.0930   39.6310 N   0  0  0  0  0  0  0  0  0  0  0  0
   36.7020   31.1480   38.8570 H   0  0  0  0  0  0  0  0  0  0  0  0
   38.2940   29.6030   42.5200 H   0  0  0  0  0  0  0  0  0  0  0  0
   40.3810   33.1560   40.5120 C   0  0  0  0  0  0  0  0  0  0  0  0
   40.3150   34.1410   39.5290 C   0  0  0  0  0  0  0  0  0  0  0  0
   41.4250   34.9550   39.6890 C   0  0  0  0  0  0  0  0  0  0  0  0
   42.1230   34.4670   40.7340 N   0  0  0  0  0  0  0  0  0  0  0  0
   41.4780   33.4000   41.2000 N   0  0  0  0  0  0  0  0  0  0  0  0
   39.5910   34.3500   38.7260 H   0  0  0  0  0  0  0  0  0  0  0  0
   41.7400   35.8230   39.1350 H   0  0  0  0  0  0  0  0  0  0  0  0
   44.5880   34.4250   40.9840 C   0  0  0  0  0  0  0  0  0  0  0  0
   43.3350   34.8840   41.3540 C   0  0  0  0  0  0  0  0  0  0  0  0
   43.2340   35.8120   42.3940 C   0  0  0  0  0  0  0  0  0  0  0  0
   42.2910   36.2170   42.7420 H   0  0  0  0  0  0  0  0  0  0  0  0
   44.3920   36.2510   43.0330 C   0  0  0  0  0  0  0  0  0  0  0  0
   44.3610   36.9720   43.8470 H   0  0  0  0  0  0  0  0  0  0  0  0
   45.6650   35.7970   42.6700 C   0  0  0  0  0  3  0  0  0  0  0  0
   45.7360   34.8690   41.6260 C   0  0  0  0  0  3  0  0  0  0  0  0
   44.6570   32.6860   39.0450 N   0  0  0  0  0  0  0  0  0  0  0  0
   44.6310   33.4740   39.9090 C   0  0  0  0  0  0  0  0  0  0  0  0
   36.3630   29.2830   40.7550 O   0  0  0  0  0  0  0  0  0  0  0  0
   35.8520   28.5670   39.6780 C   0  0  0  0  0  0  0  0  0  0  0  0
   36.3410   27.4000   39.1450 C   0  0  0  0  0  0  0  0  0  0  0  0
   35.7120   26.8140   38.0680 C   0  0  0  0  0  0  0  0  0  0  0  0
   34.5820   27.3590   37.4820 C   0  0  0  0  0  0  0  0  0  0  0  0
   34.0260   26.7420   36.4480 N   0  0  0  0  0  0  0  0  0  0  0  0
   32.9220   27.2450   35.8510 C   0  0  0  0  0  0  0  0  0  0  0  0
   32.3960   28.4230   36.3580 C   0  0  0  0  0  0  0  0  0  0  0  0
   32.9800   29.0770   37.4500 C   0  0  0  0  0  0  0  0  0  0  0  0
   34.1060   28.5330   38.0330 C   0  0  0  0  0  0  0  0  0  0  0  0
   34.7260   29.1500   39.1270 C   0  0  0  0  0  0  0  0  0  0  0  0
   37.2300   27.0010   39.6310 H   0  0  0  0  0  0  0  0  0  0  0  0
   36.1270   25.8880   37.6690 H   0  0  0  0  0  0  0  0  0  0  0  0
   32.4540   26.7540   35.0030 H   0  0  0  0  0  0  0  0  0  0  0  0
   31.5250   28.8960   35.9520 H   0  0  0  0  0  0  0  0  0  0  0  0
   32.5700   30.0000   37.8520 H   0  0  0  0  0  0  0  0  0  0  0  0
   34.2610   30.0630   39.4680 H   0  0  0  0  0  0  0  0  0  0  0  0
  1  2  1  0  0  0  0
  2 26  1  0  0  0  0
  2  3  2  0  0  0  0
  3  8  1  0  0  0  0
  4  3  1  0  0  0  0
  5  4  2  0  0  0  0
  6  1  2  0  0  0  0
  6  5  1  0  0  0  0
  7  1  1  0  0  0  0
  9  5  1  0  0  0  0
  9 13  2  0  0  0  0
 10 11  2  0  0  0  0
 10  9  1  0  0  0  0
 11 12  1  0  0  0  0
 12 13  1  0  0  0  0
 12 17  1  0  0  0  0
 14 10  1  0  0  0  0
 15 11  1  0  0  0  0
 16 17  2  0  0  0  0
 16 23  1  0  0  0  0
 17 18  1  0  0  0  0
 18 19  1  0  0  0  0
 18 20  2  0  0  0  0
 20 21  1  0  0  0  0
 22 20  1  0  0  0  0
 23 22  2  0  0  0  0
 24 25  3  0  0  0  0
 25 16  1  0  0  0  0
 27 26  1  0  0  0  0
 28 37  1  0  0  0  0
 28 27  1  0  0  0  0
 29 28  2  0  0  0  0
 30 35  1  0  0  0  0
 30 29  1  0  0  0  0
 31 30  2  0  0  0  0
 32 33  2  0  0  0  0
 32 31  1  0  0  0  0
 33 34  1  0  0  0  0
 34 41  1  0  0  0  0
 34 35  2  0  0  0  0
 35 36  1  0  0  0  0
 36 42  1  0  0  0  0
 36 27  2  0  0  0  0
 38 29  1  0  0  0  0
 39 32  1  0  0  0  0
 40 33  1  0  0  0  0
M  END
>  <minimizedAffinity>
-6.17150974

$$$$

 OpenBabel03242514003D

 42 46  0  0  0  0  0  0  0  0999 V2000
   38.3500   29.2010   38.6730 C   0  0  0  0  0  0  0  0  0  0  0  0
   37.3050   29.3350   37.7630 C   0  0  0  0  0  0  0  0  0  0  0  0
   37.2170   30.5430   37.0320 C   0  0  0  0  0  0  0  0  0  0  0  0
   38.1470   31.4930   37.2590 N   0  0  0  0  0  0  0  0  0  0  0  0
   39.1510   31.3330   38.1500 C   0  0  0  0  0  0  0  0  0  0  0  0
   39.2360   30.1710   38.8540 N   0  0  0  0  0  0  0  0  0  0  0  0
   38.3970   28.2640   39.2230 H   0  0  0  0  0  0  0  0  0  0  0  0
   36.4440   30.7240   36.3120 H   0  0  0  0  0  0  0  0  0  0  0  0
   40.1790   32.3270   38.4320 C   0  0  0  0  0  0  0  0  0  0  0  0
   41.0650   32.7580   37.4480 C   0  0  0  0  0  0  0  0  0  0  0  0
   41.9050   33.6920   38.0320 C   0  0  0  0  0  0  0  0  0  0  0  0
   41.5260   33.8090   39.3210 N   0  0  0  0  0  0  0  0  0  0  0  0
   40.5010   32.9870   39.5270 N   0  0  0  0  0  0  0  0  0  0  0  0
   41.1870   32.4970   36.3860 H   0  0  0  0  0  0  0  0  0  0  0  0
   42.7200   34.2570   37.6120 H   0  0  0  0  0  0  0  0  0  0  0  0
   41.3190   35.6680   40.9460 C   0  0  0  0  0  0  0  0  0  0  0  0
   42.0160   34.6070   40.3940 C   0  0  0  0  0  0  0  0  0  0  0  0
   43.2760   34.2840   40.9060 C   0  0  0  0  0  0  0  0  0  0  0  0
   43.8820   33.4690   40.5280 H   0  0  0  0  0  0  0  0  0  0  0  0
   43.7990   35.0350   41.9560 C   0  0  0  0  0  0  0  0  0  0  0  0
   44.7760   34.8200   42.3860 H   0  0  0  0  0  0  0  0  0  0  0  0
   43.1070   36.1110   42.5260 C   0  0  0  0  0  3  0  0  0  0  0  0
   41.8490   36.4110   41.9930 C   0  0  0  0  0  3  0  0  0  0  0  0
   38.9830   36.1710   39.9080 N   0  0  0  0  0  0  0  0  0  0  0  0
   40.0310   35.9530   40.3810 C   0  0  0  0  0  0  0  0  0  0  0  0
   36.3370   28.3790   37.5090 O   0  0  0  0  0  0  0  0  0  0  0  0
   35.1970   28.5880   36.7410 C   0  0  0  0  0  0  0  0  0  0  0  0
   35.0560   28.3980   35.3880 C   0  0  0  0  0  0  0  0  0  0  0  0
   33.8480   28.6550   34.7760 C   0  0  0  0  0  0  0  0  0  0  0  0
   32.7420   29.1060   35.4760 C   0  0  0  0  0  0  0  0  0  0  0  0
   31.6100   29.3320   34.8230 N   0  0  0  0  0  0  0  0  0  0  0  0
   30.5100   29.7730   35.4740 C   0  0  0  0  0  0  0  0  0  0  0  0
   30.6090   29.9780   36.8420 C   0  0  0  0  0  0  0  0  0  0  0  0
   31.8030   29.7400   37.5340 C   0  0  0  0  0  0  0  0  0  0  0  0
   32.9050   29.2900   36.8360 C   0  0  0  0  0  0  0  0  0  0  0  0
   34.1210   29.0380   37.4840 C   0  0  0  0  0  0  0  0  0  0  0  0
   35.9450   28.0430   34.8710 H   0  0  0  0  0  0  0  0  0  0  0  0
   33.7700   28.4940   33.7000 H   0  0  0  0  0  0  0  0  0  0  0  0
   29.5740   29.9650   34.9570 H   0  0  0  0  0  0  0  0  0  0  0  0
   29.7930   30.3250   37.4410 H   0  0  0  0  0  0  0  0  0  0  0  0
   31.8860   29.8980   38.6060 H   0  0  0  0  0  0  0  0  0  0  0  0
   34.1240   29.2190   38.5480 H   0  0  0  0  0  0  0  0  0  0  0  0
  1  6  1  0  0  0  0
  1  7  1  0  0  0  0
  2  1  2  0  0  0  0
  3  4  2  0  0  0  0
  3  2  1  0  0  0  0
  4  5  1  0  0  0  0
  5  9  1  0  0  0  0
  5  6  2  0  0  0  0
  8  3  1  0  0  0  0
  9 13  2  0  0  0  0
 10 11  2  0  0  0  0
 10  9  1  0  0  0  0
 11 12  1  0  0  0  0
 12 13  1  0  0  0  0
 12 17  1  0  0  0  0
 14 10  1  0  0  0  0
 15 11  1  0  0  0  0
 16 23  1  0  0  0  0
 17 18  1  0  0  0  0
 17 16  2  0  0  0  0
 18 20  2  0  0  0  0
 19 18  1  0  0  0  0
 20 21  1  0  0  0  0
 20 22  1  0  0  0  0
 23 22  2  0  0  0  0
 24 25  3  0  0  0  0
 25 16  1  0  0  0  0
 26  2  1  0  0  0  0
 27 36  1  0  0  0  0
 27 26  1  0  0  0  0
 28 27  2  0  0  0  0
 29 28  1  0  0  0  0
 29 30  2  0  0  0  0
 30 35  1  0  0  0  0
 31 32  2  0  0  0  0
 31 30  1  0  0  0  0
 32 33  1  0  0  0  0
 33 40  1  0  0  0  0
 33 34  2  0  0  0  0
 34 41  1  0  0  0  0
 35 36  2  0  0  0  0
 35 34  1  0  0  0  0
 36 42  1  0  0  0  0
 37 28  1  0  0  0  0
 38 29  1  0  0  0  0
 39 32  1  0  0  0  0
M  END
>  <minimizedAffinity>
-6.16072416

$$$$
