
 OpenBabel03252506463D

 43 46  0  0  1  0  0  0  0  0999 V2000
   49.5870   33.4970   41.4340 N   0  0  1  0  0  0  0  0  0  0  0  0
   50.7060   33.0530   42.2190 C   0  0  0  0  0  0  0  0  0  0  0  0
   51.2570   31.7140   41.8140 C   0  0  0  0  0  0  0  0  0  0  0  0
   50.2180   30.6490   42.0480 C   0  0  0  0  0  0  0  0  0  0  0  0
   48.8350   31.1850   41.8190 C   0  0  0  0  0  0  0  0  0  0  0  0
   48.9090   32.3540   40.8560 C   0  0  2  0  0  0  0  0  0  0  0  0
   50.4500   33.0180   43.2900 H   0  0  0  0  0  0  0  0  0  0  0  0
   51.5240   33.8240   42.1410 H   0  0  0  0  0  0  0  0  0  0  0  0
   51.7520   31.6940   40.8500 H   0  0  0  0  0  0  0  0  0  0  0  0
   52.0600   31.5040   42.5980 H   0  0  0  0  0  0  0  0  0  0  0  0
   50.2620   30.2700   43.0940 H   0  0  0  0  0  0  0  0  0  0  0  0
   50.4540   29.7780   41.4020 H   0  0  0  0  0  0  0  0  0  0  0  0
   48.4230   31.6480   42.7760 H   0  0  0  0  0  0  0  0  0  0  0  0
   48.1310   30.4570   41.4490 H   0  0  0  0  0  0  0  0  0  0  0  0
   47.8540   32.6720   40.6990 H   0  0  0  0  0  0  0  0  0  0  0  0
   47.3640   34.6780   41.9590 C   0  0  1  0  0  0  0  0  0  0  0  0
   48.4340   35.6710   41.7090 C   0  0  0  0  0  0  0  0  0  0  0  0
   48.7830   34.3360   42.2330 C   0  0  2  0  0  0  0  0  0  0  0  0
   46.9050   34.2590   41.0210 H   0  0  0  0  0  0  0  0  0  0  0  0
   48.6910   35.9520   40.6740 H   0  0  0  0  0  0  0  0  0  0  0  0
   48.4990   36.5170   42.4170 H   0  0  0  0  0  0  0  0  0  0  0  0
   49.0040   34.2530   43.3400 H   0  0  0  0  0  0  0  0  0  0  0  0
   45.5800   36.0170   43.1140 C   0  0  0  0  0  0  0  0  0  0  0  0
   46.4260   34.9020   43.0590 C   0  0  0  0  0  0  0  0  0  0  0  0
   46.3250   33.9700   44.1170 C   0  0  0  0  0  0  0  0  0  0  0  0
   45.4290   34.2070   45.1070 N   0  0  0  0  0  0  0  0  0  0  0  0
   44.6340   35.2840   45.1290 C   0  0  0  0  0  0  0  0  0  0  0  0
   44.7010   36.2110   44.1250 N   0  0  0  0  0  0  0  0  0  0  0  0
   45.6180   36.7580   42.3310 H   0  0  0  0  0  0  0  0  0  0  0  0
   46.9530   33.0960   44.1220 H   0  0  0  0  0  0  0  0  0  0  0  0
   43.9710   35.3310   45.9880 H   0  0  0  0  0  0  0  0  0  0  0  0
   49.4370   31.9500   39.5920 N   0  0  0  0  0  0  0  0  0  0  0  0
   50.4790   32.1780   39.5840 H   0  0  0  0  0  0  0  0  0  0  0  0
   48.7050   32.1100   37.2080 C   0  0  0  0  0  0  0  0  0  0  0  0
   49.1280   31.4000   38.3400 C   0  0  0  0  0  0  0  0  0  0  0  0
   49.2320   30.0270   38.2430 C   0  0  0  0  0  0  0  0  0  0  0  0
   49.5180   29.2810   38.9730 H   0  0  0  0  0  0  0  0  0  0  0  0
   48.9380   29.3270   37.0840 C   0  0  0  0  0  0  0  0  0  0  0  0
   48.9790   28.2710   36.8820 H   0  0  0  0  0  0  0  0  0  0  0  0
   48.5270   30.0440   35.9870 C   0  0  0  0  0  3  0  0  0  0  0  0
   48.4170   31.4110   36.0670 C   0  0  0  0  0  3  0  0  0  0  0  0
   48.5070   34.6860   37.4420 N   0  0  0  0  0  0  0  0  0  0  0  0
   48.6040   33.5380   37.3320 C   0  0  0  0  0  0  0  0  0  0  0  0
  1  2  1  1  0  0  0
  1 18  1  0  0  0  0
  2  7  1  0  0  0  0
  3  4  1  0  0  0  0
  3  2  1  0  0  0  0
  3 10  1  0  0  0  0
  4 11  1  0  0  0  0
  5  4  1  0  0  0  0
  5 13  1  0  0  0  0
  6 15  1  6  0  0  0
  6  1  1  0  0  0  0
  6  5  1  0  0  0  0
  8  2  1  0  0  0  0
  9  3  1  0  0  0  0
 12  4  1  0  0  0  0
 14  5  1  0  0  0  0
 16 19  1  6  0  0  0
 16 18  1  0  0  0  0
 16 24  1  0  0  0  0
 17 16  1  0  0  0  0
 17 18  1  0  0  0  0
 17 21  1  0  0  0  0
 18 22  1  1  0  0  0
 20 17  1  0  0  0  0
 23 28  1  0  0  0  0
 24 23  2  0  0  0  0
 24 25  1  0  0  0  0
 25 30  1  0  0  0  0
 25 26  2  0  0  0  0
 26 27  1  0  0  0  0
 27 31  1  0  0  0  0
 28 27  2  0  0  0  0
 29 23  1  0  0  0  0
 32  6  1  0  0  0  0
 33 32  1  0  0  0  0
 34 43  1  0  0  0  0
 34 35  1  0  0  0  0
 35 32  1  0  0  0  0
 36 35  2  0  0  0  0
 36 37  1  0  0  0  0
 38 36  1  0  0  0  0
 39 38  1  0  0  0  0
 40 41  1  0  0  0  0
 40 38  2  0  0  0  0
 41 34  2  0  0  0  0
 43 42  3  0  0  0  0
M  END
>  <minimizedAffinity>
-5.07743311

>  <minimizedRMSD>
1.7502284

$$$$
