
 OpenBabel03242518013D

 38 40  0  0  0  0  0  0  0  0999 V2000
   46.5480   31.2800   46.2220 C   0  0  0  0  0  0  0  0  0  0  0  0
   45.5230   31.5360   46.5360 H   0  0  0  0  0  0  0  0  0  0  0  0
   46.4220   30.3170   45.6430 H   0  0  0  0  0  0  0  0  0  0  0  0
   47.3260   31.5730   48.5610 C   0  0  0  0  0  0  0  0  0  0  0  0
   47.4870   30.9910   47.2920 C   0  0  0  0  0  0  0  0  0  0  0  0
   48.5880   30.1390   47.1480 C   0  0  0  0  0  0  0  0  0  0  0  0
   49.4090   29.9310   48.2020 N   0  0  0  0  0  0  0  0  0  0  0  0
   49.2180   30.5070   49.3950 C   0  0  0  0  0  0  0  0  0  0  0  0
   48.1840   31.3190   49.5660 N   0  0  0  0  0  0  0  0  0  0  0  0
   46.5120   32.2470   48.7940 H   0  0  0  0  0  0  0  0  0  0  0  0
   48.7060   29.6970   46.1730 H   0  0  0  0  0  0  0  0  0  0  0  0
   50.9970   31.2370   50.9330 C   0  0  0  0  0  0  0  0  0  0  0  0
   50.1480   30.2310   50.4860 C   0  0  0  0  0  0  0  0  0  0  0  0
   50.1710   28.9640   51.0640 C   0  0  0  0  0  0  0  0  0  0  0  0
   49.5090   28.1820   50.7150 H   0  0  0  0  0  0  0  0  0  0  0  0
   51.0330   28.6560   52.0980 C   0  0  0  0  0  0  0  0  0  0  0  0
   51.0580   27.6790   52.5500 H   0  0  0  0  0  0  0  0  0  0  0  0
   51.8540   29.6870   52.5050 C   0  0  0  0  0  3  0  0  0  0  0  0
   51.8760   30.9550   51.9740 C   0  0  0  0  0  3  0  0  0  0  0  0
   50.9360   33.5780   49.8600 N   0  0  0  0  0  0  0  0  0  0  0  0
   50.9690   32.5310   50.3390 C   0  0  0  0  0  0  0  0  0  0  0  0
   47.1910   32.3100   45.3140 C   0  0  0  0  0  0  0  0  0  0  0  0
   47.5670   31.7990   44.4010 H   0  0  0  0  0  0  0  0  0  0  0  0
   48.1330   32.7360   45.7730 H   0  0  0  0  0  0  0  0  0  0  0  0
   46.4880   34.1090   43.7970 C   0  0  0  0  0  0  0  0  0  0  0  0
   46.3490   33.4740   45.0190 C   0  0  0  0  0  0  0  0  0  0  0  0
   45.4610   33.8730   45.9810 C   0  0  0  0  0  0  0  0  0  0  0  0
   44.6620   34.9690   45.7140 C   0  0  0  0  0  0  0  0  0  0  0  0
   44.7240   35.6590   44.5410 C   0  0  0  0  0  0  0  0  0  0  0  0
   45.6550   35.1910   43.6110 C   0  0  0  0  0  0  0  0  0  0  0  0
   45.3030   33.4360   46.9350 H   0  0  0  0  0  0  0  0  0  0  0  0
   43.9340   35.3420   46.4320 H   0  0  0  0  0  0  0  0  0  0  0  0
   44.1240   36.5180   44.2870 H   0  0  0  0  0  0  0  0  0  0  0  0
   45.7180   35.7310   42.6690 H   0  0  0  0  0  0  0  0  0  0  0  0
   47.6040   33.6350   42.5480 S   0  0  0  0  0  0  0  0  0  0  0  0
   49.0140   34.0830   42.8280 O   0  0  0  0  0  0  0  0  0  0  0  0
   47.2250   34.3440   41.2630 O   0  0  0  0  0  0  0  0  0  0  0  0
   47.5420   32.3020   42.2350 H   0  0  0  0  0  0  0  0  0  0  0  0
  1  2  1  0  0  0  0
  1  5  1  0  0  0  0
  3  1  1  0  0  0  0
  4 10  1  0  0  0  0
  4  9  1  0  0  0  0
  5  4  2  0  0  0  0
  6  5  1  0  0  0  0
  6  7  2  0  0  0  0
  7  8  1  0  0  0  0
  8  9  2  0  0  0  0
  8 13  1  0  0  0  0
 11  6  1  0  0  0  0
 12 19  1  0  0  0  0
 13 12  2  0  0  0  0
 13 14  1  0  0  0  0
 14 16  2  0  0  0  0
 15 14  1  0  0  0  0
 16 18  1  0  0  0  0
 16 17  1  0  0  0  0
 19 18  2  0  0  0  0
 20 21  3  0  0  0  0
 21 12  1  0  0  0  0
 22 24  1  0  0  0  0
 22  1  1  0  0  0  0
 23 22  1  0  0  0  0
 25 26  1  0  0  0  0
 26 22  1  0  0  0  0
 26 27  2  0  0  0  0
 27 31  1  0  0  0  0
 28 27  1  0  0  0  0
 28 32  1  0  0  0  0
 29 28  2  0  0  0  0
 30 25  2  0  0  0  0
 30 29  1  0  0  0  0
 33 29  1  0  0  0  0
 34 30  1  0  0  0  0
 35 36  2  0  0  0  0
 35 25  1  0  0  0  0
 37 35  2  0  0  0  0
 38 35  1  0  0  0  0
M  END
>  <minimizedAffinity>
-5.40410089

>  <minimizedRMSD>
0.793913543

$$$$
