REMARK  Name = 
REMARK  6 active torsions:
REMARK  status: ('A' for Active; 'I' for Inactive)
REMARK    1  A    between atoms: C_1  and  C_7
REMARK    2  A    between atoms: C_6  and  C_13
REMARK    3  A    between atoms: C_15  and  C_16
REMARK    4  A    between atoms: C_16  and  C_17
REMARK    5  A    between atoms: C_17  and  C_42
REMARK    6  A    between atoms: C_40  and  C_41
REMARK                            x       y       z     vdW  Elec       q    Type
REMARK                         _______ _______ _______ _____ _____    ______ ____
ROOT
ATOM      1  C   UNL     1      47.201  34.113  42.437  0.00  0.00    +0.000 C 
ATOM      2  C   UNL     1      48.572  34.703  42.585  0.00  0.00    +0.000 C 
ATOM      3  C   UNL     1      48.879  35.697  41.533  0.00  0.00    +0.000 C 
ATOM      4  C   UNL     1      48.720  35.121  40.133  0.00  0.00    +0.000 C 
ATOM      5  C   UNL     1      47.512  34.252  39.977  0.00  0.00    +0.000 C 
ATOM      6  C   UNL     1      46.543  34.365  41.131  0.00  0.00    +0.000 C 
ATOM      7  H   UNL     1      47.320  32.990  42.549  0.00  0.00    +0.000 HD
ATOM      8  H   UNL     1      49.349  33.915  42.527  0.00  0.00    +0.000 HD
ATOM      9  H   UNL     1      48.694  35.184  43.569  0.00  0.00    +0.000 HD
ATOM     10  H   UNL     1      49.910  36.064  41.623  0.00  0.00    +0.000 HD
ATOM     11  H   UNL     1      48.202  36.570  41.607  0.00  0.00    +0.000 HD
ATOM     12  H   UNL     1      48.771  35.960  39.438  0.00  0.00    +0.000 HD
ATOM     13  H   UNL     1      49.629  34.472  39.980  0.00  0.00    +0.000 HD
ATOM     14  H   UNL     1      46.979  34.609  39.066  0.00  0.00    +0.000 HD
ATOM     15  H   UNL     1      47.786  33.185  39.767  0.00  0.00    +0.000 HD
ATOM     16  H   UNL     1      46.043  35.336  41.002  0.00  0.00    +0.000 HD
ENDROOT
BRANCH   1  17
ATOM     17  C   UNL     1      46.298  34.480  43.545  0.00  0.00    +0.000 A 
ATOM     18  C   UNL     1      45.605  35.657  43.322  0.00  0.00    +0.000 A 
ATOM     19  C   UNL     1      44.700  36.130  44.287  0.00  0.00    +0.000 A 
ATOM     20  N   UNL     1      44.578  35.337  45.435  0.00  0.00    +0.000 NA
ATOM     21  C   UNL     1      45.277  34.199  45.605  0.00  0.00    +0.000 A 
ATOM     22  N   UNL     1      46.136  33.780  44.651  0.00  0.00    +0.000 NA
ATOM     23  H   UNL     1      45.563  36.396  42.537  0.00  0.00    +0.000 HD
ATOM     24  H   UNL     1      44.085  36.991  44.303  0.00  0.00    +0.000 HD
ATOM     25  H   UNL     1      45.103  33.665  46.534  0.00  0.00    +0.000 HD
ENDBRANCH   1  17
BRANCH   6  26
ATOM     26  C   UNL     1      45.481  33.317  40.935  0.00  0.00    +0.000 C 
ATOM     27  C   UNL     1      44.820  33.218  39.575  0.00  0.00    +0.000 C 
ATOM     28  C   UNL     1      44.059  33.714  40.741  0.00  0.00    +0.000 C 
ATOM     29  H   UNL     1      45.728  32.315  41.341  0.00  0.00    +0.000 HD
ATOM     30  H   UNL     1      44.526  32.232  39.164  0.00  0.00    +0.000 HD
ATOM     31  H   UNL     1      45.042  33.975  38.791  0.00  0.00    +0.000 HD
ATOM     32  H   UNL     1      43.883  34.810  40.833  0.00  0.00    +0.000 HD
BRANCH  28  33
ATOM     33  C   UNL     1      43.108  32.869  41.530  0.00  0.00    +0.000 C 
ATOM     34  H   UNL     1      43.241  33.138  42.600  0.00  0.00    +0.000 HD
ATOM     35  H   UNL     1      43.383  31.802  41.466  0.00  0.00    +0.000 HD
BRANCH  33  36
ATOM     36  C   UNL     1      41.660  33.118  41.197  0.00  0.00    +0.000 C 
ATOM     37  H   UNL     1      41.522  32.935  40.118  0.00  0.00    +0.000 HD
ATOM     38  H   UNL     1      41.396  34.171  41.370  0.00  0.00    +0.000 HD
BRANCH  36  40
ATOM     39  C   UNL     1      39.378  32.527  41.688  0.00  0.00    +0.000 A 
ATOM     40  C   UNL     1      40.716  32.294  41.963  0.00  0.00    +0.000 A 
ATOM     41  C   UNL     1      41.049  31.331  42.911  0.00  0.00    +0.000 A 
ATOM     42  H   UNL     1      42.107  31.189  43.086  0.00  0.00    +0.000 HD
ATOM     43  C   UNL     1      40.046  30.613  43.572  0.00  0.00    +0.000 A 
ATOM     44  H   UNL     1      40.339  29.872  44.303  0.00  0.00    +0.000 HD
ATOM     45  C   UNL     1      38.735  30.896  43.250  0.00  0.00    +0.000 A 
ATOM     46  C   UNL     1      38.345  31.838  42.321  0.00  0.00    +0.000 A 
BRANCH  39  48
ATOM     47  N   UNL     1      38.596  34.297  39.934  0.00  0.00    +0.000 NA
ATOM     48  C   UNL     1      38.953  33.517  40.711  0.00  0.00    +0.000 C 
ENDBRANCH  39  48
ENDBRANCH  36  40
ENDBRANCH  33  36
ENDBRANCH  28  33
ENDBRANCH   6  26
TORSDOF 6
