
 OpenBabel03242519253D

 41 44  0  0  0  0  0  0  0  0999 V2000
   47.9370   33.8180   42.8720 C   0  0  0  0  0  0  0  0  0  0  0  0
   48.5840   35.0520   42.6670 C   0  0  0  0  0  0  0  0  0  0  0  0
   49.9510   35.0840   42.3480 C   0  0  0  0  0  0  0  0  0  0  0  0
   50.5750   33.8680   42.2580 N   0  0  0  0  0  0  0  0  0  0  0  0
   49.9150   32.6860   42.4640 C   0  0  0  0  0  0  0  0  0  0  0  0
   48.6240   32.6790   42.7640 N   0  0  0  0  0  0  0  0  0  0  0  0
   48.1730   36.0450   42.7180 H   0  0  0  0  0  0  0  0  0  0  0  0
   50.5090   35.9810   42.1790 H   0  0  0  0  0  0  0  0  0  0  0  0
   46.5050   33.9100   43.2070 C   0  0  0  0  0  0  0  0  0  0  0  0
   45.7690   34.8940   42.4130 C   0  0  0  0  0  0  0  0  0  0  0  0
   45.2940   36.0720   43.1840 C   0  0  0  0  0  0  0  0  0  0  0  0
   44.5000   35.6990   44.4230 C   0  0  0  0  0  0  0  0  0  0  0  0
   44.9980   34.4560   45.1210 C   0  0  0  0  0  0  0  0  0  0  0  0
   46.4320   34.1600   44.7240 C   0  0  0  0  0  0  0  0  0  0  0  0
   46.0740   32.8700   43.1000 H   0  0  0  0  0  0  0  0  0  0  0  0
   46.3230   35.2590   41.5410 H   0  0  0  0  0  0  0  0  0  0  0  0
   44.8520   34.4000   41.9770 H   0  0  0  0  0  0  0  0  0  0  0  0
   44.5530   36.6140   42.5250 H   0  0  0  0  0  0  0  0  0  0  0  0
   46.0290   36.8210   43.4630 H   0  0  0  0  0  0  0  0  0  0  0  0
   43.4050   35.6300   44.1950 H   0  0  0  0  0  0  0  0  0  0  0  0
   44.5840   36.5190   45.1670 H   0  0  0  0  0  0  0  0  0  0  0  0
   44.3580   33.5900   44.8010 H   0  0  0  0  0  0  0  0  0  0  0  0
   44.9460   34.4980   46.2160 H   0  0  0  0  0  0  0  0  0  0  0  0
   47.0640   35.0380   44.9100 H   0  0  0  0  0  0  0  0  0  0  0  0
   46.7820   33.2640   45.2520 H   0  0  0  0  0  0  0  0  0  0  0  0
   50.7410   31.4860   42.3340 C   0  0  0  0  0  0  0  0  0  0  0  0
   51.4060   31.3170   41.1690 N   0  0  0  0  0  0  0  0  0  0  0  0
   52.1110   30.1760   41.2220 C   0  0  0  0  0  0  0  0  0  0  0  0
   51.8740   29.6350   42.4490 N   0  0  0  0  0  0  0  0  0  0  0  0
   51.0340   30.4350   43.1340 N   0  0  0  0  0  0  0  0  0  0  0  0
   52.7630   29.7080   40.4900 H   0  0  0  0  0  0  0  0  0  0  0  0
   51.7470   27.1960   43.0140 C   0  0  0  0  0  0  0  0  0  0  0  0
   52.3550   28.4370   43.0520 C   0  0  0  0  0  0  0  0  0  0  0  0
   53.5660   28.6010   43.7350 C   0  0  0  0  0  0  0  0  0  0  0  0
   54.0940   29.5620   43.7970 H   0  0  0  0  0  0  0  0  0  0  0  0
   54.1800   27.5440   44.3820 C   0  0  0  0  0  0  0  0  0  0  0  0
   55.1170   27.6900   44.9050 H   0  0  0  0  0  0  0  0  0  0  0  0
   53.5370   26.3140   44.3200 C   0  0  0  0  0  3  0  0  0  0  0  0
   52.3420   26.1230   43.6550 C   0  0  0  0  0  3  0  0  0  0  0  0
   49.5220   27.0310   41.7090 N   0  0  0  0  0  0  0  0  0  0  0  0
   50.5260   27.1150   42.3050 C   0  0  0  0  0  0  0  0  0  0  0  0
  1  9  1  0  0  0  0
  2  7  1  0  0  0  0
  2  1  2  0  0  0  0
  3  2  1  0  0  0  0
  4  3  2  0  0  0  0
  4  5  1  0  0  0  0
  5  6  2  0  0  0  0
  6  1  1  0  0  0  0
  8  3  1  0  0  0  0
  9 14  1  0  0  0  0
 10 11  1  0  0  0  0
 10  9  1  0  0  0  0
 11 19  1  0  0  0  0
 11 12  1  0  0  0  0
 12 13  1  0  0  0  0
 12 21  1  0  0  0  0
 13 23  1  0  0  0  0
 14 24  1  0  0  0  0
 14 13  1  0  0  0  0
 14 25  1  0  0  0  0
 15  9  1  0  0  0  0
 16 10  1  0  0  0  0
 17 10  1  0  0  0  0
 18 11  1  0  0  0  0
 20 12  1  0  0  0  0
 22 13  1  0  0  0  0
 26  5  1  0  0  0  0
 26 30  2  0  0  0  0
 27 28  2  0  0  0  0
 27 26  1  0  0  0  0
 28 29  1  0  0  0  0
 29 33  1  0  0  0  0
 29 30  1  0  0  0  0
 31 28  1  0  0  0  0
 32 33  2  0  0  0  0
 32 39  1  0  0  0  0
 33 34  1  0  0  0  0
 34 35  1  0  0  0  0
 34 36  2  0  0  0  0
 36 37  1  0  0  0  0
 38 36  1  0  0  0  0
 39 38  2  0  0  0  0
 40 41  3  0  0  0  0
 41 32  1  0  0  0  0
M  END
>  <minimizedAffinity>
-4.05156755

>  <minimizedRMSD>
1.58261609

$$$$
