
 OpenBabel03242520343D

 29 31  0  0  1  0  0  0  0  0999 V2000
   39.6990   28.0090   40.5800 C   0  0  0  0  0  0  0  0  0  0  0  0
   39.6860   27.6340   41.9630 C   0  0  0  0  0  0  0  0  0  0  0  0
   39.3990   28.6030   42.9070 C   0  0  0  0  0  0  0  0  0  0  0  0
   39.1420   29.8710   42.4710 N   0  0  0  0  0  0  0  0  0  0  0  0
   39.1610   30.1950   41.1810 C   0  0  0  0  0  0  0  0  0  0  0  0
   39.4360   29.2740   40.2380 N   0  0  0  0  0  0  0  0  0  0  0  0
   39.9290   27.2130   39.8850 H   0  0  0  0  0  0  0  0  0  0  0  0
   39.3740   28.3770   43.9630 H   0  0  0  0  0  0  0  0  0  0  0  0
   37.5960   31.9190   40.3740 C   0  0  0  0  0  0  0  0  0  0  0  0
   38.8780   31.5760   40.7590 C   0  0  0  0  0  0  0  0  0  0  0  0
   39.8760   32.5310   40.7430 C   0  0  0  0  0  0  0  0  0  0  0  0
   40.8910   32.3000   41.0370 H   0  0  0  0  0  0  0  0  0  0  0  0
   39.6230   33.8380   40.3470 C   0  0  0  0  0  0  0  0  0  0  0  0
   40.4030   34.5750   40.3360 H   0  0  0  0  0  0  0  0  0  0  0  0
   38.3370   34.1610   39.9660 C   0  0  0  0  0  3  0  0  0  0  0  0
   37.3110   33.2150   39.9730 C   0  0  0  0  0  3  0  0  0  0  0  0
   35.6710   30.1580   40.3680 N   0  0  0  0  0  0  0  0  0  0  0  0
   36.5180   30.9470   40.3760 C   0  0  0  0  0  0  0  0  0  0  0  0
   39.9980   26.2260   42.3740 C   0  0  1  0  0  0  0  0  0  0  0  0
   39.6150   25.7330   43.6800 C   0  0  0  0  0  0  0  0  0  0  0  0
   38.8280   25.2580   42.5170 C   0  0  1  0  0  0  0  0  0  0  0  0
   40.8200   25.7820   41.7950 H   0  0  0  0  0  0  0  0  0  0  0  0
   39.1110   26.3650   44.4520 H   0  0  0  0  0  0  0  0  0  0  0  0
   40.3000   24.9990   44.1990 H   0  0  0  0  0  0  0  0  0  0  0  0
   38.9870   24.1790   42.2560 H   0  0  0  0  0  0  0  0  0  0  0  0
   37.4360   25.7140   42.2720 C   0  0  0  0  0  0  0  0  0  0  0  0
   37.2530   26.1730   40.9790 F   0  0  0  0  0  0  0  0  0  0  0  0
   37.0420   26.7110   43.1500 F   0  0  0  0  0  0  0  0  0  0  0  0
   36.5980   24.6310   42.4330 F   0  0  0  0  0  0  0  0  0  0  0  0
  1  2  1  0  0  0  0
  2 19  1  0  0  0  0
  2  3  2  0  0  0  0
  3  8  1  0  0  0  0
  4  3  1  0  0  0  0
  5  4  2  0  0  0  0
  6  1  2  0  0  0  0
  6  5  1  0  0  0  0
  7  1  1  0  0  0  0
  9 18  1  0  0  0  0
  9 10  1  0  0  0  0
 10  5  1  0  0  0  0
 11 10  2  0  0  0  0
 11 12  1  0  0  0  0
 13 11  1  0  0  0  0
 14 13  1  0  0  0  0
 15 16  1  0  0  0  0
 15 13  2  0  0  0  0
 16  9  2  0  0  0  0
 17 18  3  0  0  0  0
 19 22  1  6  0  0  0
 19 21  1  0  0  0  0
 19 20  1  0  0  0  0
 20 24  1  0  0  0  0
 20 23  1  0  0  0  0
 21 25  1  6  0  0  0
 21 20  1  0  0  0  0
 26 29  1  0  0  0  0
 26 21  1  0  0  0  0
 26 28  1  0  0  0  0
 27 26  1  0  0  0  0
M  END
>  <minimizedAffinity>
-5.28423548

$$$$

 OpenBabel03242520343D

 29 31  0  0  1  0  0  0  0  0999 V2000
   37.9460   27.7090   40.1210 C   0  0  0  0  0  0  0  0  0  0  0  0
   37.1940   27.2630   41.2560 C   0  0  0  0  0  0  0  0  0  0  0  0
   36.6870   28.2120   42.1250 C   0  0  0  0  0  0  0  0  0  0  0  0
   36.9310   29.5280   41.8560 N   0  0  0  0  0  0  0  0  0  0  0  0
   37.6330   29.9170   40.7950 C   0  0  0  0  0  0  0  0  0  0  0  0
   38.1380   29.0170   39.9300 N   0  0  0  0  0  0  0  0  0  0  0  0
   38.3190   26.9260   39.4740 H   0  0  0  0  0  0  0  0  0  0  0  0
   36.1120   27.9340   42.9960 H   0  0  0  0  0  0  0  0  0  0  0  0
   38.9780   31.9590   41.1020 C   0  0  0  0  0  0  0  0  0  0  0  0
   37.8700   31.3480   40.5470 C   0  0  0  0  0  0  0  0  0  0  0  0
   37.0000   32.0850   39.7670 C   0  0  0  0  0  0  0  0  0  0  0  0
   36.1230   31.6420   39.3160 H   0  0  0  0  0  0  0  0  0  0  0  0
   37.2120   33.4370   39.5240 C   0  0  0  0  0  0  0  0  0  0  0  0
   36.5330   34.0040   38.9170 H   0  0  0  0  0  0  0  0  0  0  0  0
   38.3240   34.0280   40.0870 C   0  0  0  0  0  3  0  0  0  0  0  0
   39.2170   33.3060   40.8780 C   0  0  0  0  0  3  0  0  0  0  0  0
   40.6790   30.6370   42.5740 N   0  0  0  0  0  0  0  0  0  0  0  0
   39.9160   31.2210   41.9270 C   0  0  0  0  0  0  0  0  0  0  0  0
   36.9810   25.8000   41.5030 C   0  0  1  0  0  0  0  0  0  0  0  0
   37.8460   24.8120   40.8950 C   0  0  0  0  0  0  0  0  0  0  0  0
   38.0230   25.0680   42.3450 C   0  0  1  0  0  0  0  0  0  0  0  0
   35.9590   25.5650   41.8330 H   0  0  0  0  0  0  0  0  0  0  0  0
   38.6770   25.0710   40.1950 H   0  0  0  0  0  0  0  0  0  0  0  0
   37.3940   23.8260   40.5760 H   0  0  0  0  0  0  0  0  0  0  0  0
   37.6860   24.2310   43.0100 H   0  0  0  0  0  0  0  0  0  0  0  0
   39.2080   25.7890   42.8750 C   0  0  0  0  0  0  0  0  0  0  0  0
   38.8540   26.8590   43.6800 F   0  0  0  0  0  0  0  0  0  0  0  0
   40.0390   26.2550   41.8700 F   0  0  0  0  0  0  0  0  0  0  0  0
   39.9210   24.9140   43.6650 F   0  0  0  0  0  0  0  0  0  0  0  0
  1  2  1  0  0  0  0
  2 19  1  0  0  0  0
  2  3  2  0  0  0  0
  3  8  1  0  0  0  0
  4  3  1  0  0  0  0
  5  4  2  0  0  0  0
  6  1  2  0  0  0  0
  6  5  1  0  0  0  0
  7  1  1  0  0  0  0
  9 18  1  0  0  0  0
 10  5  1  0  0  0  0
 10  9  2  0  0  0  0
 11 10  1  0  0  0  0
 12 11  1  0  0  0  0
 13 11  2  0  0  0  0
 13 15  1  0  0  0  0
 14 13  1  0  0  0  0
 15 16  2  0  0  0  0
 16  9  1  0  0  0  0
 18 17  3  0  0  0  0
 19 22  1  1  0  0  0
 19 21  1  0  0  0  0
 20 19  1  0  0  0  0
 20 21  1  0  0  0  0
 21 26  1  0  0  0  0
 21 25  1  1  0  0  0
 23 20  1  0  0  0  0
 24 20  1  0  0  0  0
 26 29  1  0  0  0  0
 26 27  1  0  0  0  0
 28 26  1  0  0  0  0
M  END
>  <minimizedAffinity>
-5.2616415

$$$$

 OpenBabel03242520343D

 29 31  0  0  1  0  0  0  0  0999 V2000
   38.2730   29.7390   38.7190 C   0  0  0  0  0  0  0  0  0  0  0  0
   37.3780   30.7690   39.1580 C   0  0  0  0  0  0  0  0  0  0  0  0
   36.3530   30.4270   40.0210 C   0  0  0  0  0  0  0  0  0  0  0  0
   36.2460   29.1240   40.4110 N   0  0  0  0  0  0  0  0  0  0  0  0
   37.0890   28.1860   39.9890 C   0  0  0  0  0  0  0  0  0  0  0  0
   38.0980   28.4860   39.1500 N   0  0  0  0  0  0  0  0  0  0  0  0
   39.0560   30.0600   38.0450 H   0  0  0  0  0  0  0  0  0  0  0  0
   35.6500   31.1620   40.3850 H   0  0  0  0  0  0  0  0  0  0  0  0
   37.2410   26.4600   41.7430 C   0  0  0  0  0  0  0  0  0  0  0  0
   36.9330   26.7920   40.4370 C   0  0  0  0  0  0  0  0  0  0  0  0
   36.4840   25.8150   39.5700 C   0  0  0  0  0  0  0  0  0  0  0  0
   36.2330   26.0370   38.5420 H   0  0  0  0  0  0  0  0  0  0  0  0
   36.3330   24.4960   39.9800 C   0  0  0  0  0  0  0  0  0  0  0  0
   35.9830   23.7420   39.3010 H   0  0  0  0  0  0  0  0  0  0  0  0
   36.6450   24.1850   41.2870 C   0  0  0  0  0  3  0  0  0  0  0  0
   37.1010   25.1530   42.1820 C   0  0  0  0  0  3  0  0  0  0  0  0
   38.0950   28.2370   43.4530 N   0  0  0  0  0  0  0  0  0  0  0  0
   37.7170   27.4560   42.6860 C   0  0  0  0  0  0  0  0  0  0  0  0
   37.5410   32.1780   38.6730 C   0  0  1  0  0  0  0  0  0  0  0  0
   37.1490   33.2960   39.5030 C   0  0  0  0  0  0  0  0  0  0  0  0
   38.6010   33.0390   39.3530 C   0  0  1  0  0  0  0  0  0  0  0  0
   37.6050   32.2500   37.5780 H   0  0  0  0  0  0  0  0  0  0  0  0
   36.6790   33.1800   40.5100 H   0  0  0  0  0  0  0  0  0  0  0  0
   36.7120   34.2100   39.0000 H   0  0  0  0  0  0  0  0  0  0  0  0
   39.1490   33.8020   38.7410 H   0  0  0  0  0  0  0  0  0  0  0  0
   39.4190   32.4920   40.4660 C   0  0  0  0  0  0  0  0  0  0  0  0
   40.2730   31.4880   40.0440 F   0  0  0  0  0  0  0  0  0  0  0  0
   38.6430   32.0000   41.5020 F   0  0  0  0  0  0  0  0  0  0  0  0
   40.2100   33.5100   40.9530 F   0  0  0  0  0  0  0  0  0  0  0  0
  1  6  2  0  0  0  0
  1  2  1  0  0  0  0
  2  3  2  0  0  0  0
  3  8  1  0  0  0  0
  3  4  1  0  0  0  0
  5  4  2  0  0  0  0
  5 10  1  0  0  0  0
  6  5  1  0  0  0  0
  7  1  1  0  0  0  0
  9 16  1  0  0  0  0
  9 18  1  0  0  0  0
 10  9  2  0  0  0  0
 11 13  2  0  0  0  0
 11 10  1  0  0  0  0
 12 11  1  0  0  0  0
 13 15  1  0  0  0  0
 14 13  1  0  0  0  0
 15 16  2  0  0  0  0
 18 17  3  0  0  0  0
 19 22  1  6  0  0  0
 19  2  1  0  0  0  0
 19 21  1  0  0  0  0
 19 20  1  0  0  0  0
 20 23  1  0  0  0  0
 21 25  1  6  0  0  0
 21 20  1  0  0  0  0
 21 26  1  0  0  0  0
 24 20  1  0  0  0  0
 26 29  1  0  0  0  0
 26 28  1  0  0  0  0
 27 26  1  0  0  0  0
M  END
>  <minimizedAffinity>
-5.18583488

$$$$

 OpenBabel03242520343D

 29 31  0  0  1  0  0  0  0  0999 V2000
   35.9610   29.8460   40.3420 C   0  0  0  0  0  0  0  0  0  0  0  0
   37.2020   30.5460   40.1850 C   0  0  0  0  0  0  0  0  0  0  0  0
   38.3770   29.8180   40.2030 C   0  0  0  0  0  0  0  0  0  0  0  0
   38.2950   28.4660   40.3710 N   0  0  0  0  0  0  0  0  0  0  0  0
   37.1310   27.8380   40.5150 C   0  0  0  0  0  0  0  0  0  0  0  0
   35.9690   28.5190   40.5000 N   0  0  0  0  0  0  0  0  0  0  0  0
   35.0730   30.4630   40.3190 H   0  0  0  0  0  0  0  0  0  0  0  0
   39.3400   30.2930   40.0890 H   0  0  0  0  0  0  0  0  0  0  0  0
   37.6350   25.8180   41.8340 C   0  0  0  0  0  0  0  0  0  0  0  0
   37.0920   26.3780   40.6930 C   0  0  0  0  0  0  0  0  0  0  0  0
   36.5220   25.5620   39.7350 C   0  0  0  0  0  0  0  0  0  0  0  0
   36.0880   25.9630   38.8290 H   0  0  0  0  0  0  0  0  0  0  0  0
   36.4790   24.1820   39.8900 C   0  0  0  0  0  0  0  0  0  0  0  0
   36.0340   23.5540   39.1430 H   0  0  0  0  0  0  0  0  0  0  0  0
   37.0250   23.6430   41.0370 C   0  0  0  0  0  3  0  0  0  0  0  0
   37.6080   24.4450   42.0180 C   0  0  0  0  0  3  0  0  0  0  0  0
   38.7480   27.2890   43.6800 N   0  0  0  0  0  0  0  0  0  0  0  0
   38.2440   26.6400   42.8640 C   0  0  0  0  0  0  0  0  0  0  0  0
   37.2210   32.0370   40.0260 C   0  0  1  0  0  0  0  0  0  0  0  0
   38.4420   32.7290   39.6740 C   0  0  0  0  0  0  0  0  0  0  0  0
   37.4100   32.5930   38.6180 C   0  0  1  0  0  0  0  0  0  0  0  0
   36.3910   32.5340   40.5470 H   0  0  0  0  0  0  0  0  0  0  0  0
   39.4240   32.2130   39.5410 H   0  0  0  0  0  0  0  0  0  0  0  0
   38.6250   33.7530   40.1160 H   0  0  0  0  0  0  0  0  0  0  0  0
   36.8960   33.5510   38.3430 H   0  0  0  0  0  0  0  0  0  0  0  0
   37.5880   31.6780   37.4620 C   0  0  0  0  0  0  0  0  0  0  0  0
   38.8030   31.0150   37.4990 F   0  0  0  0  0  0  0  0  0  0  0  0
   37.4850   32.3330   36.2460 F   0  0  0  0  0  0  0  0  0  0  0  0
   36.6050   30.7140   37.5260 F   0  0  0  0  0  0  0  0  0  0  0  0
  1  6  1  0  0  0  0
  2  3  1  0  0  0  0
  2  1  2  0  0  0  0
  3  4  2  0  0  0  0
  4  5  1  0  0  0  0
  5 10  1  0  0  0  0
  6  5  2  0  0  0  0
  7  1  1  0  0  0  0
  8  3  1  0  0  0  0
  9 16  1  0  0  0  0
  9 18  1  0  0  0  0
 10  9  2  0  0  0  0
 11 13  2  0  0  0  0
 11 10  1  0  0  0  0
 12 11  1  0  0  0  0
 13 15  1  0  0  0  0
 14 13  1  0  0  0  0
 15 16  2  0  0  0  0
 18 17  3  0  0  0  0
 19  2  1  0  0  0  0
 19 22  1  1  0  0  0
 20 19  1  0  0  0  0
 20 24  1  0  0  0  0
 21 25  1  6  0  0  0
 21 20  1  0  0  0  0
 21 19  1  0  0  0  0
 23 20  1  0  0  0  0
 26 27  1  0  0  0  0
 26 29  1  0  0  0  0
 26 21  1  0  0  0  0
 28 26  1  0  0  0  0
M  END
>  <minimizedAffinity>
-5.16370249

$$$$

 OpenBabel03242520343D

 29 31  0  0  1  0  0  0  0  0999 V2000
   38.2290   29.8550   40.4810 C   0  0  0  0  0  0  0  0  0  0  0  0
   37.0160   30.6150   40.4050 C   0  0  0  0  0  0  0  0  0  0  0  0
   35.8110   29.9410   40.4770 C   0  0  0  0  0  0  0  0  0  0  0  0
   35.8390   28.5830   40.6170 N   0  0  0  0  0  0  0  0  0  0  0  0
   36.9780   27.9000   40.6850 C   0  0  0  0  0  0  0  0  0  0  0  0
   38.1670   28.5270   40.6190 N   0  0  0  0  0  0  0  0  0  0  0  0
   39.1430   30.4310   40.4200 H   0  0  0  0  0  0  0  0  0  0  0  0
   34.8660   30.4610   40.4260 H   0  0  0  0  0  0  0  0  0  0  0  0
   36.6790   25.6440   39.7380 C   0  0  0  0  0  0  0  0  0  0  0  0
   36.9570   26.4360   40.8350 C   0  0  0  0  0  0  0  0  0  0  0  0
   37.2120   25.8460   42.0580 C   0  0  0  0  0  0  0  0  0  0  0  0
   37.4340   26.4320   42.9390 H   0  0  0  0  0  0  0  0  0  0  0  0
   37.1960   24.4650   42.2140 C   0  0  0  0  0  0  0  0  0  0  0  0
   37.3950   24.0130   43.1660 H   0  0  0  0  0  0  0  0  0  0  0  0
   36.9170   23.6920   41.1060 C   0  0  0  0  0  3  0  0  0  0  0  0
   36.6550   24.2640   39.8610 C   0  0  0  0  0  3  0  0  0  0  0  0
   36.1940   26.6710   37.3870 N   0  0  0  0  0  0  0  0  0  0  0  0
   36.4050   26.2250   38.4350 C   0  0  0  0  0  0  0  0  0  0  0  0
   37.0580   32.1030   40.2310 C   0  0  1  0  0  0  0  0  0  0  0  0
   38.3030   32.7790   39.9380 C   0  0  0  0  0  0  0  0  0  0  0  0
   37.3290   32.6410   38.8290 C   0  0  1  0  0  0  0  0  0  0  0  0
   36.2070   32.6140   40.7010 H   0  0  0  0  0  0  0  0  0  0  0  0
   39.2860   32.2540   39.8630 H   0  0  0  0  0  0  0  0  0  0  0  0
   38.4720   33.8070   40.3770 H   0  0  0  0  0  0  0  0  0  0  0  0
   36.8390   33.6000   38.5160 H   0  0  0  0  0  0  0  0  0  0  0  0
   37.5600   31.7110   37.6940 C   0  0  0  0  0  0  0  0  0  0  0  0
   36.5890   30.7270   37.6160 F   0  0  0  0  0  0  0  0  0  0  0  0
   38.8000   31.0970   37.7550 F   0  0  0  0  0  0  0  0  0  0  0  0
   37.4860   32.4380   36.5260 F   0  0  0  0  0  0  0  0  0  0  0  0
  1  6  1  0  0  0  0
  2  3  1  0  0  0  0
  2  1  2  0  0  0  0
  3  4  2  0  0  0  0
  4  5  1  0  0  0  0
  5 10  1  0  0  0  0
  6  5  2  0  0  0  0
  7  1  1  0  0  0  0
  8  3  1  0  0  0  0
  9 16  2  0  0  0  0
  9 10  1  0  0  0  0
 10 11  2  0  0  0  0
 11 13  1  0  0  0  0
 11 12  1  0  0  0  0
 13 14  1  0  0  0  0
 15 13  2  0  0  0  0
 16 15  1  0  0  0  0
 17 18  3  0  0  0  0
 18  9  1  0  0  0  0
 19  2  1  0  0  0  0
 19 22  1  1  0  0  0
 20 19  1  0  0  0  0
 20 24  1  0  0  0  0
 21 25  1  6  0  0  0
 21 20  1  0  0  0  0
 21 19  1  0  0  0  0
 23 20  1  0  0  0  0
 26 28  1  0  0  0  0
 26 21  1  0  0  0  0
 27 26  1  0  0  0  0
 29 26  1  0  0  0  0
M  END
>  <minimizedAffinity>
-5.10422277

$$$$

 OpenBabel03242520343D

 29 31  0  0  1  0  0  0  0  0999 V2000
   39.4300   29.5150   40.3100 C   0  0  0  0  0  0  0  0  0  0  0  0
   38.9160   30.3640   41.3430 C   0  0  0  0  0  0  0  0  0  0  0  0
   37.9930   29.8390   42.2290 C   0  0  0  0  0  0  0  0  0  0  0  0
   37.6170   28.5370   42.0710 N   0  0  0  0  0  0  0  0  0  0  0  0
   38.1080   27.7690   41.1040 C   0  0  0  0  0  0  0  0  0  0  0  0
   39.0100   28.2490   40.2270 N   0  0  0  0  0  0  0  0  0  0  0  0
   40.1500   29.9750   39.6450 H   0  0  0  0  0  0  0  0  0  0  0  0
   37.5720   30.4330   43.0280 H   0  0  0  0  0  0  0  0  0  0  0  0
   38.1840   25.4150   41.8330 C   0  0  0  0  0  0  0  0  0  0  0  0
   37.6730   26.3690   40.9740 C   0  0  0  0  0  0  0  0  0  0  0  0
   36.7600   25.9980   40.0050 C   0  0  0  0  0  0  0  0  0  0  0  0
   36.3380   26.7150   39.3150 H   0  0  0  0  0  0  0  0  0  0  0  0
   36.3400   24.6800   39.8710 C   0  0  0  0  0  0  0  0  0  0  0  0
   35.6310   24.3990   39.1170 H   0  0  0  0  0  0  0  0  0  0  0  0
   36.8630   23.7430   40.7390 C   0  0  0  0  0  3  0  0  0  0  0  0
   37.7860   24.0920   41.7240 C   0  0  0  0  0  3  0  0  0  0  0  0
   39.9150   26.0590   43.6770 N   0  0  0  0  0  0  0  0  0  0  0  0
   39.1460   25.7630   42.8640 C   0  0  0  0  0  0  0  0  0  0  0  0
   39.3570   31.7930   41.4460 C   0  0  1  0  0  0  0  0  0  0  0  0
   39.9450   32.4700   40.3100 C   0  0  0  0  0  0  0  0  0  0  0  0
   38.5550   32.8360   40.6730 C   0  0  1  0  0  0  0  0  0  0  0  0
   39.5400   32.1120   42.4810 H   0  0  0  0  0  0  0  0  0  0  0  0
   40.1360   31.9730   39.3280 H   0  0  0  0  0  0  0  0  0  0  0  0
   40.7650   33.2260   40.5010 H   0  0  0  0  0  0  0  0  0  0  0  0
   38.4420   33.8610   41.1110 H   0  0  0  0  0  0  0  0  0  0  0  0
   37.3950   32.4300   39.8390 C   0  0  0  0  0  0  0  0  0  0  0  0
   36.4030   31.8150   40.5830 F   0  0  0  0  0  0  0  0  0  0  0  0
   37.7550   31.5810   38.8050 F   0  0  0  0  0  0  0  0  0  0  0  0
   36.8400   33.5700   39.2980 F   0  0  0  0  0  0  0  0  0  0  0  0
  1  2  1  0  0  0  0
  2 19  1  0  0  0  0
  2  3  2  0  0  0  0
  3  8  1  0  0  0  0
  4  3  1  0  0  0  0
  5  4  2  0  0  0  0
  6  1  2  0  0  0  0
  6  5  1  0  0  0  0
  7  1  1  0  0  0  0
  9 18  1  0  0  0  0
 10  5  1  0  0  0  0
 10  9  2  0  0  0  0
 11 10  1  0  0  0  0
 12 11  1  0  0  0  0
 13 11  2  0  0  0  0
 13 15  1  0  0  0  0
 14 13  1  0  0  0  0
 15 16  2  0  0  0  0
 16  9  1  0  0  0  0
 18 17  3  0  0  0  0
 19 22  1  1  0  0  0
 20 24  1  0  0  0  0
 20 21  1  0  0  0  0
 20 19  1  0  0  0  0
 21 25  1  1  0  0  0
 21 19  1  0  0  0  0
 23 20  1  0  0  0  0
 26 27  1  0  0  0  0
 26 21  1  0  0  0  0
 28 26  1  0  0  0  0
 29 26  1  0  0  0  0
M  END
>  <minimizedAffinity>
-5.09944677

$$$$

 OpenBabel03242520343D

 29 31  0  0  1  0  0  0  0  0999 V2000
   39.5990   28.0460   40.5690 C   0  0  0  0  0  0  0  0  0  0  0  0
   39.5880   27.6780   41.9540 C   0  0  0  0  0  0  0  0  0  0  0  0
   39.2680   28.6440   42.8900 C   0  0  0  0  0  0  0  0  0  0  0  0
   38.9790   29.9020   42.4450 N   0  0  0  0  0  0  0  0  0  0  0  0
   38.9960   30.2200   41.1540 C   0  0  0  0  0  0  0  0  0  0  0  0
   39.3030   29.3020   40.2180 N   0  0  0  0  0  0  0  0  0  0  0  0
   39.8560   27.2530   39.8790 H   0  0  0  0  0  0  0  0  0  0  0  0
   39.2430   28.4240   43.9470 H   0  0  0  0  0  0  0  0  0  0  0  0
   39.6620   32.5590   40.7580 C   0  0  0  0  0  0  0  0  0  0  0  0
   38.6780   31.5900   40.7220 C   0  0  0  0  0  0  0  0  0  0  0  0
   37.4100   31.9180   40.2840 C   0  0  0  0  0  0  0  0  0  0  0  0
   36.6140   31.1870   40.2420 H   0  0  0  0  0  0  0  0  0  0  0  0
   37.0950   33.2080   39.8730 C   0  0  0  0  0  0  0  0  0  0  0  0
   36.1080   33.4560   39.5330 H   0  0  0  0  0  0  0  0  0  0  0  0
   38.0910   34.1610   39.9160 C   0  0  0  0  0  3  0  0  0  0  0  0
   39.3790   33.8560   40.3560 C   0  0  0  0  0  3  0  0  0  0  0  0
   42.0730   31.9970   41.5820 N   0  0  0  0  0  0  0  0  0  0  0  0
   41.0070   32.2570   41.2130 C   0  0  0  0  0  0  0  0  0  0  0  0
   39.9360   26.2820   42.3740 C   0  0  1  0  0  0  0  0  0  0  0  0
   39.5570   25.7860   43.6800 C   0  0  0  0  0  0  0  0  0  0  0  0
   38.7920   25.2820   42.5140 C   0  0  1  0  0  0  0  0  0  0  0  0
   40.7740   25.8590   41.8040 H   0  0  0  0  0  0  0  0  0  0  0  0
   39.0310   26.4070   44.4450 H   0  0  0  0  0  0  0  0  0  0  0  0
   40.2590   25.0740   44.2080 H   0  0  0  0  0  0  0  0  0  0  0  0
   38.9840   24.2070   42.2600 H   0  0  0  0  0  0  0  0  0  0  0  0
   37.3900   25.6980   42.2570 C   0  0  0  0  0  0  0  0  0  0  0  0
   37.1940   26.1030   40.9480 F   0  0  0  0  0  0  0  0  0  0  0  0
   36.9770   26.7180   43.0970 F   0  0  0  0  0  0  0  0  0  0  0  0
   36.5770   24.6040   42.4620 F   0  0  0  0  0  0  0  0  0  0  0  0
  1  2  1  0  0  0  0
  2 19  1  0  0  0  0
  2  3  2  0  0  0  0
  3  8  1  0  0  0  0
  4  3  1  0  0  0  0
  5  4  2  0  0  0  0
  6  1  2  0  0  0  0
  6  5  1  0  0  0  0
  7  1  1  0  0  0  0
  9 18  1  0  0  0  0
 10  9  1  0  0  0  0
 10  5  1  0  0  0  0
 11 10  2  0  0  0  0
 12 11  1  0  0  0  0
 13 15  2  0  0  0  0
 13 11  1  0  0  0  0
 14 13  1  0  0  0  0
 15 16  1  0  0  0  0
 16  9  2  0  0  0  0
 18 17  3  0  0  0  0
 19 22  1  6  0  0  0
 19 21  1  0  0  0  0
 19 20  1  0  0  0  0
 20 24  1  0  0  0  0
 20 23  1  0  0  0  0
 21 25  1  6  0  0  0
 21 20  1  0  0  0  0
 26 29  1  0  0  0  0
 26 21  1  0  0  0  0
 26 28  1  0  0  0  0
 27 26  1  0  0  0  0
M  END
>  <minimizedAffinity>
-5.07560301

$$$$

 OpenBabel03242520343D

 29 31  0  0  1  0  0  0  0  0999 V2000
   39.4700   31.0580   42.2590 C   0  0  0  0  0  0  0  0  0  0  0  0
   39.8310   31.4490   40.9290 C   0  0  0  0  0  0  0  0  0  0  0  0
   39.8950   30.4750   39.9500 C   0  0  0  0  0  0  0  0  0  0  0  0
   39.6120   29.1870   40.3030 N   0  0  0  0  0  0  0  0  0  0  0  0
   39.2790   28.8490   41.5450 C   0  0  0  0  0  0  0  0  0  0  0  0
   39.2070   29.7740   42.5200 N   0  0  0  0  0  0  0  0  0  0  0  0
   39.4350   31.8590   42.9850 H   0  0  0  0  0  0  0  0  0  0  0  0
   40.1610   30.7120   38.9300 H   0  0  0  0  0  0  0  0  0  0  0  0
   37.6790   26.9930   41.8070 C   0  0  0  0  0  0  0  0  0  0  0  0
   38.9820   27.4460   41.8780 C   0  0  0  0  0  0  0  0  0  0  0  0
   39.9880   26.5800   42.2600 C   0  0  0  0  0  0  0  0  0  0  0  0
   41.0190   26.8980   42.3270 H   0  0  0  0  0  0  0  0  0  0  0  0
   39.7210   25.2540   42.5770 C   0  0  0  0  0  0  0  0  0  0  0  0
   40.5070   24.5860   42.8720 H   0  0  0  0  0  0  0  0  0  0  0  0
   38.4140   24.8200   42.4990 C   0  0  0  0  0  3  0  0  0  0  0  0
   37.3800   25.6750   42.1180 C   0  0  0  0  0  3  0  0  0  0  0  0
   35.7390   28.5830   41.0860 N   0  0  0  0  0  0  0  0  0  0  0  0
   36.5920   27.8710   41.4110 C   0  0  0  0  0  0  0  0  0  0  0  0
   40.1510   32.8800   40.6150 C   0  0  1  0  0  0  0  0  0  0  0  0
   40.2730   33.3280   39.2440 C   0  0  0  0  0  0  0  0  0  0  0  0
   39.0500   33.7260   39.9820 C   0  0  1  0  0  0  0  0  0  0  0  0
   40.6320   33.4050   41.4510 H   0  0  0  0  0  0  0  0  0  0  0  0
   40.1760   32.6470   38.3640 H   0  0  0  0  0  0  0  0  0  0  0  0
   41.0380   34.1250   39.0060 H   0  0  0  0  0  0  0  0  0  0  0  0
   38.9940   34.8160   40.2380 H   0  0  0  0  0  0  0  0  0  0  0  0
   37.7230   33.1330   39.6770 C   0  0  0  0  0  0  0  0  0  0  0  0
   37.1850   32.4650   40.7640 F   0  0  0  0  0  0  0  0  0  0  0  0
   37.7660   32.2590   38.6040 F   0  0  0  0  0  0  0  0  0  0  0  0
   36.8570   34.1610   39.3720 F   0  0  0  0  0  0  0  0  0  0  0  0
  1  6  1  0  0  0  0
  1  7  1  0  0  0  0
  2  1  2  0  0  0  0
  3  4  2  0  0  0  0
  3  2  1  0  0  0  0
  4  5  1  0  0  0  0
  5 10  1  0  0  0  0
  5  6  2  0  0  0  0
  8  3  1  0  0  0  0
  9 10  2  0  0  0  0
  9 16  1  0  0  0  0
 10 11  1  0  0  0  0
 11 12  1  0  0  0  0
 11 13  2  0  0  0  0
 13 14  1  0  0  0  0
 15 13  1  0  0  0  0
 16 15  2  0  0  0  0
 17 18  3  0  0  0  0
 18  9  1  0  0  0  0
 19  2  1  0  0  0  0
 19 22  1  1  0  0  0
 20 21  1  0  0  0  0
 20 19  1  0  0  0  0
 21 25  1  1  0  0  0
 21 19  1  0  0  0  0
 23 20  1  0  0  0  0
 24 20  1  0  0  0  0
 26 21  1  0  0  0  0
 26 27  1  0  0  0  0
 28 26  1  0  0  0  0
 29 26  1  0  0  0  0
M  END
>  <minimizedAffinity>
-5.06995344

$$$$

 OpenBabel03242520343D

 29 31  0  0  1  0  0  0  0  0999 V2000
   39.8720   28.7540   42.2730 C   0  0  0  0  0  0  0  0  0  0  0  0
   38.4740   28.7560   42.5910 C   0  0  0  0  0  0  0  0  0  0  0  0
   37.6820   29.7640   42.0720 C   0  0  0  0  0  0  0  0  0  0  0  0
   38.2730   30.7070   41.2830 N   0  0  0  0  0  0  0  0  0  0  0  0
   39.5730   30.6840   41.0030 C   0  0  0  0  0  0  0  0  0  0  0  0
   40.3710   29.7160   41.4910 N   0  0  0  0  0  0  0  0  0  0  0  0
   40.4450   27.9440   42.7040 H   0  0  0  0  0  0  0  0  0  0  0  0
   36.6220   29.8150   42.2780 H   0  0  0  0  0  0  0  0  0  0  0  0
   40.2070   31.5360   38.7780 C   0  0  0  0  0  0  0  0  0  0  0  0
   40.1660   31.7240   40.1470 C   0  0  0  0  0  0  0  0  0  0  0  0
   40.6810   32.8840   40.6930 C   0  0  0  0  0  0  0  0  0  0  0  0
   40.6660   33.0670   41.7590 H   0  0  0  0  0  0  0  0  0  0  0  0
   41.2430   33.8740   39.8970 C   0  0  0  0  0  0  0  0  0  0  0  0
   41.6410   34.7720   40.3280 H   0  0  0  0  0  0  0  0  0  0  0  0
   41.2750   33.6670   38.5340 C   0  0  0  0  0  3  0  0  0  0  0  0
   40.7630   32.5050   37.9570 C   0  0  0  0  0  3  0  0  0  0  0  0
   39.2590   29.3800   37.6550 N   0  0  0  0  0  0  0  0  0  0  0  0
   39.6780   30.3320   38.1640 C   0  0  0  0  0  0  0  0  0  0  0  0
   37.8940   27.7000   43.4820 C   0  0  1  0  0  0  0  0  0  0  0  0
   36.4620   27.5110   43.5710 C   0  0  0  0  0  0  0  0  0  0  0  0
   37.2340   26.4980   42.8130 C   0  0  1  0  0  0  0  0  0  0  0  0
   38.5800   27.3890   44.2820 H   0  0  0  0  0  0  0  0  0  0  0  0
   35.7220   28.1470   43.0260 H   0  0  0  0  0  0  0  0  0  0  0  0
   36.0210   27.2120   44.5680 H   0  0  0  0  0  0  0  0  0  0  0  0
   37.3060   25.4970   43.3130 H   0  0  0  0  0  0  0  0  0  0  0  0
   37.1610   26.4030   41.3320 C   0  0  0  0  0  0  0  0  0  0  0  0
   38.4080   26.5030   40.7380 F   0  0  0  0  0  0  0  0  0  0  0  0
   36.3340   27.3660   40.7790 F   0  0  0  0  0  0  0  0  0  0  0  0
   36.6640   25.1590   41.0090 F   0  0  0  0  0  0  0  0  0  0  0  0
  1  2  1  0  0  0  0
  1  7  1  0  0  0  0
  2 19  1  0  0  0  0
  3  8  1  0  0  0  0
  3  2  2  0  0  0  0
  4  3  1  0  0  0  0
  5  4  2  0  0  0  0
  5  6  1  0  0  0  0
  6  1  2  0  0  0  0
  9 10  1  0  0  0  0
 10 11  2  0  0  0  0
 10  5  1  0  0  0  0
 11 12  1  0  0  0  0
 13 14  1  0  0  0  0
 13 11  1  0  0  0  0
 15 13  2  0  0  0  0
 16 15  1  0  0  0  0
 16  9  2  0  0  0  0
 17 18  3  0  0  0  0
 18  9  1  0  0  0  0
 19 20  1  0  0  0  0
 19 22  1  1  0  0  0
 20 24  1  0  0  0  0
 21 25  1  1  0  0  0
 21 19  1  0  0  0  0
 21 20  1  0  0  0  0
 23 20  1  0  0  0  0
 26 21  1  0  0  0  0
 27 26  1  0  0  0  0
 28 26  1  0  0  0  0
 29 26  1  0  0  0  0
M  END
>  <minimizedAffinity>
-4.88106537

$$$$
