
 OpenBabel03252509083D

 42 45  0  0  0  0  0  0  0  0999 V2000
   47.5220   31.8310   38.8490 C   0  0  0  0  0  0  0  0  0  0  0  0
   47.1270   33.1340   38.9050 C   0  0  0  0  0  0  0  0  0  0  0  0
   47.7990   34.0840   38.1560 C   0  0  0  0  0  0  0  0  0  0  0  0
   48.8560   33.7380   37.3620 C   0  0  0  0  0  0  0  0  0  0  0  0
   49.2940   32.4240   37.2750 C   0  0  0  0  0  0  0  0  0  0  0  0
   48.6050   31.4770   38.0340 C   0  0  0  0  0  0  0  0  0  0  0  0
   47.5000   35.1240   38.1850 H   0  0  0  0  0  0  0  0  0  0  0  0
   49.4100   34.4230   36.7650 H   0  0  0  0  0  0  0  0  0  0  0  0
   50.1010   32.0670   36.6860 H   0  0  0  0  0  0  0  0  0  0  0  0
   48.9170   30.4440   37.9920 H   0  0  0  0  0  0  0  0  0  0  0  0
   45.3880   35.2850   43.2660 Cl  0  0  0  0  0  0  0  0  0  0  0  0
   45.1870   34.5730   41.6830 C   0  0  0  0  0  0  0  0  0  0  0  0
   46.2570   34.1570   40.9610 C   0  0  0  0  0  0  0  0  0  0  0  0
   46.0080   33.6160   39.7110 C   0  0  0  0  0  0  0  0  0  0  0  0
   44.7440   33.5080   39.2240 C   0  0  0  0  0  0  0  0  0  0  0  0
   43.6720   33.9210   39.9420 C   0  0  0  0  0  0  0  0  0  0  0  0
   43.9070   34.4590   41.1890 C   0  0  0  0  0  0  0  0  0  0  0  0
   44.5980   33.0780   38.2310 H   0  0  0  0  0  0  0  0  0  0  0  0
   42.6740   33.8220   39.5300 H   0  0  0  0  0  0  0  0  0  0  0  0
   43.0370   34.7860   41.7550 H   0  0  0  0  0  0  0  0  0  0  0  0
   49.5980   35.6320   41.9670 C   0  0  0  0  0  0  0  0  0  0  0  0
   48.3140   35.4970   41.4290 C   0  0  0  0  0  0  0  0  0  0  0  0
   47.6000   34.3110   41.5170 C   0  0  0  0  0  0  0  0  0  0  0  0
   48.2400   33.3260   42.1530 N   0  0  0  0  0  0  0  0  0  0  0  0
   49.4690   33.4420   42.6720 C   0  0  0  0  0  0  0  0  0  0  0  0
   50.1430   34.5870   42.5810 N   0  0  0  0  0  0  0  0  0  0  0  0
   50.1200   36.5740   41.8750 H   0  0  0  0  0  0  0  0  0  0  0  0
   47.8760   36.3480   40.9320 H   0  0  0  0  0  0  0  0  0  0  0  0
   49.7740   32.5020   43.1390 H   0  0  0  0  0  0  0  0  0  0  0  0
   46.7940   30.6300   39.7920 S   0  0  0  0  0  0  0  0  0  0  0  0
   47.1730   29.2460   39.1650 O   0  0  0  0  0  0  0  0  0  0  0  0
   47.4830   30.6110   41.1250 O   0  0  0  0  0  0  0  0  0  0  0  0
   44.2300   30.1700   38.8030 C   0  0  0  0  0  0  0  0  0  0  0  0
   45.1040   30.3430   39.9040 C   0  0  0  0  0  0  0  0  0  0  0  0
   44.3830   30.2400   41.0870 C   0  0  0  0  0  0  0  0  0  0  0  0
   44.9140   30.3320   42.0220 H   0  0  0  0  0  0  0  0  0  0  0  0
   43.0340   30.0110   41.2400 C   0  0  0  0  0  0  0  0  0  0  0  0
   42.5630   29.9480   42.2110 H   0  0  0  0  0  0  0  0  0  0  0  0
   42.3170   29.8660   40.0730 C   0  0  0  0  0  3  0  0  0  0  0  0
   42.8740   29.9370   38.8180 C   0  0  0  0  0  3  0  0  0  0  0  0
   45.3420   30.2150   36.4110 N   0  0  0  0  0  0  0  0  0  0  0  0
   44.8420   30.1930   37.4760 C   0  0  0  0  0  0  0  0  0  0  0  0
  1  2  1  0  0  0  0
  1 30  1  0  0  0  0
  2 14  1  0  0  0  0
  3  7  1  0  0  0  0
  3  2  2  0  0  0  0
  4  3  1  0  0  0  0
  5  4  2  0  0  0  0
  5  6  1  0  0  0  0
  6  1  2  0  0  0  0
  8  4  1  0  0  0  0
  9  5  1  0  0  0  0
 10  6  1  0  0  0  0
 12 11  1  0  0  0  0
 13 23  1  0  0  0  0
 13 12  2  0  0  0  0
 14 13  1  0  0  0  0
 15 14  2  0  0  0  0
 15 16  1  0  0  0  0
 16 17  2  0  0  0  0
 17 12  1  0  0  0  0
 17 20  1  0  0  0  0
 18 15  1  0  0  0  0
 19 16  1  0  0  0  0
 21 26  1  0  0  0  0
 22 23  1  0  0  0  0
 22 21  2  0  0  0  0
 23 24  2  0  0  0  0
 24 25  1  0  0  0  0
 25 29  1  0  0  0  0
 26 25  2  0  0  0  0
 27 21  1  0  0  0  0
 28 22  1  0  0  0  0
 30 34  1  0  0  0  0
 30 32  2  0  0  0  0
 31 30  2  0  0  0  0
 33 40  2  0  0  0  0
 33 34  1  0  0  0  0
 34 35  2  0  0  0  0
 35 37  1  0  0  0  0
 35 36  1  0  0  0  0
 37 38  1  0  0  0  0
 39 37  2  0  0  0  0
 40 39  1  0  0  0  0
 41 42  3  0  0  0  0
 42 33  1  0  0  0  0
M  END
>  <minimizedAffinity>
-4.52123737

>  <minimizedRMSD>
1.72109413

$$$$
