
 OpenBabel03242518013D

 38 40  0  0  0  0  0  0  0  0999 V2000
   46.1040   32.3490   46.7610 C   0  0  0  0  0  0  0  0  0  0  0  0
   45.6360   33.2040   47.2760 H   0  0  0  0  0  0  0  0  0  0  0  0
   45.2530   31.6200   46.6170 H   0  0  0  0  0  0  0  0  0  0  0  0
   48.0030   32.3330   48.3610 C   0  0  0  0  0  0  0  0  0  0  0  0
   47.1250   31.6380   47.5100 C   0  0  0  0  0  0  0  0  0  0  0  0
   47.3100   30.2530   47.4460 C   0  0  0  0  0  0  0  0  0  0  0  0
   48.2900   29.6780   48.1800 N   0  0  0  0  0  0  0  0  0  0  0  0
   49.1040   30.3800   48.9790 C   0  0  0  0  0  0  0  0  0  0  0  0
   48.9560   31.6950   49.0640 N   0  0  0  0  0  0  0  0  0  0  0  0
   47.9570   33.4060   48.4940 H   0  0  0  0  0  0  0  0  0  0  0  0
   46.6350   29.7260   46.7920 H   0  0  0  0  0  0  0  0  0  0  0  0
   51.2070   29.1030   49.0730 C   0  0  0  0  0  0  0  0  0  0  0  0
   50.1380   29.6870   49.7420 C   0  0  0  0  0  0  0  0  0  0  0  0
   50.0380   29.6230   51.1300 C   0  0  0  0  0  0  0  0  0  0  0  0
   49.2050   30.0800   51.6490 H   0  0  0  0  0  0  0  0  0  0  0  0
   50.9920   28.9800   51.8940 C   0  0  0  0  0  0  0  0  0  0  0  0
   50.9220   28.9260   52.9680 H   0  0  0  0  0  0  0  0  0  0  0  0
   52.0320   28.4170   51.1850 C   0  0  0  0  0  3  0  0  0  0  0  0
   52.1830   28.4470   49.8180 C   0  0  0  0  0  3  0  0  0  0  0  0
   51.3800   29.2360   46.5080 N   0  0  0  0  0  0  0  0  0  0  0  0
   51.3040   29.1710   47.6550 C   0  0  0  0  0  0  0  0  0  0  0  0
   46.6850   32.6890   45.4030 C   0  0  0  0  0  0  0  0  0  0  0  0
   46.6550   31.7820   44.7610 H   0  0  0  0  0  0  0  0  0  0  0  0
   47.7920   32.9170   45.4710 H   0  0  0  0  0  0  0  0  0  0  0  0
   46.5550   34.2590   43.5190 C   0  0  0  0  0  0  0  0  0  0  0  0
   46.0920   33.8690   44.7630 C   0  0  0  0  0  0  0  0  0  0  0  0
   45.1010   34.5250   45.4400 C   0  0  0  0  0  0  0  0  0  0  0  0
   44.5350   35.6370   44.8470 C   0  0  0  0  0  0  0  0  0  0  0  0
   44.9210   36.1000   43.6250 C   0  0  0  0  0  0  0  0  0  0  0  0
   45.9370   35.3760   42.9980 C   0  0  0  0  0  0  0  0  0  0  0  0
   44.7000   34.2840   46.3930 H   0  0  0  0  0  0  0  0  0  0  0  0
   43.7420   36.2090   45.3270 H   0  0  0  0  0  0  0  0  0  0  0  0
   44.5120   36.9600   43.1220 H   0  0  0  0  0  0  0  0  0  0  0  0
   46.2590   35.7320   42.0210 H   0  0  0  0  0  0  0  0  0  0  0  0
   47.8120   33.4540   42.6240 S   0  0  0  0  0  0  0  0  0  0  0  0
   49.1810   34.0100   42.9150 O   0  0  0  0  0  0  0  0  0  0  0  0
   47.6000   33.7130   41.1460 O   0  0  0  0  0  0  0  0  0  0  0  0
   47.7790   32.0880   42.7400 H   0  0  0  0  0  0  0  0  0  0  0  0
  1  2  1  0  0  0  0
  1  5  1  0  0  0  0
  3  1  1  0  0  0  0
  4 10  1  0  0  0  0
  4  9  1  0  0  0  0
  5  4  2  0  0  0  0
  6  5  1  0  0  0  0
  6  7  2  0  0  0  0
  7  8  1  0  0  0  0
  8  9  2  0  0  0  0
  8 13  1  0  0  0  0
 11  6  1  0  0  0  0
 12 13  2  0  0  0  0
 12 19  1  0  0  0  0
 13 14  1  0  0  0  0
 14 15  1  0  0  0  0
 14 16  2  0  0  0  0
 16 17  1  0  0  0  0
 18 16  1  0  0  0  0
 19 18  2  0  0  0  0
 20 21  3  0  0  0  0
 21 12  1  0  0  0  0
 22 24  1  0  0  0  0
 22  1  1  0  0  0  0
 23 22  1  0  0  0  0
 25 26  1  0  0  0  0
 26 22  1  0  0  0  0
 26 27  2  0  0  0  0
 27 31  1  0  0  0  0
 28 32  1  0  0  0  0
 28 27  1  0  0  0  0
 29 28  2  0  0  0  0
 30 25  2  0  0  0  0
 30 29  1  0  0  0  0
 33 29  1  0  0  0  0
 34 30  1  0  0  0  0
 35 38  1  0  0  0  0
 35 36  2  0  0  0  0
 35 25  1  0  0  0  0
 37 35  2  0  0  0  0
M  END
>  <minimizedAffinity>
-5.383708

>  <minimizedRMSD>
1.01003504

$$$$
