
 OpenBabel03252505433D

 43 46  0  0  1  0  0  0  0  0999 V2000
   42.6660   34.7770   40.2240 C   0  0  0  0  0  0  0  0  0  0  0  0
   42.4950   35.2310   38.9350 C   0  0  0  0  0  0  0  0  0  0  0  0
   41.3200   35.0910   38.2450 C   0  0  0  0  0  0  0  0  0  0  0  0
   40.2940   34.4810   38.8620 N   0  0  0  0  0  0  0  0  0  0  0  0
   40.4450   34.0240   40.1370 C   0  0  0  0  0  0  0  0  0  0  0  0
   41.6040   34.1650   40.8150 N   0  0  0  0  0  0  0  0  0  0  0  0
   43.3540   35.7200   38.4730 H   0  0  0  0  0  0  0  0  0  0  0  0
   41.2450   35.4690   37.2350 H   0  0  0  0  0  0  0  0  0  0  0  0
   43.9410   34.6040   42.3360 C   0  0  1  0  0  0  0  0  0  0  0  0
   44.0990   36.1030   41.9050 C   0  0  0  0  0  0  0  0  0  0  0  0
   43.9880   34.9260   40.9410 C   0  0  2  0  0  0  0  0  0  0  0  0
   42.9560   34.4550   42.8580 H   0  0  0  0  0  0  0  0  0  0  0  0
   45.1010   36.5240   42.0140 H   0  0  0  0  0  0  0  0  0  0  0  0
   43.2270   36.7500   41.9770 H   0  0  0  0  0  0  0  0  0  0  0  0
   44.8220   34.8110   40.2520 H   0  0  0  0  0  0  0  0  0  0  0  0
   45.0920   34.0850   43.1060 C   0  0  0  0  0  0  0  0  0  0  0  0
   46.3360   34.0190   42.4580 C   0  0  0  0  0  0  0  0  0  0  0  0
   47.4310   33.5360   43.1640 C   0  0  0  0  0  0  0  0  0  0  0  0
   47.2360   33.1500   44.4550 N   0  0  0  0  0  0  0  0  0  0  0  0
   46.0400   33.2260   45.0410 C   0  0  0  0  0  0  0  0  0  0  0  0
   44.9960   33.6940   44.3490 N   0  0  0  0  0  0  0  0  0  0  0  0
   46.4870   34.3210   41.4470 H   0  0  0  0  0  0  0  0  0  0  0  0
   48.4280   33.4480   42.7480 H   0  0  0  0  0  0  0  0  0  0  0  0
   46.0320   32.7560   46.4680 C   0  0  0  0  0  0  0  0  0  0  0  0
   45.0650   33.4110   47.2090 F   0  0  0  0  0  0  0  0  0  0  0  0
   47.2690   33.0970   47.0640 F   0  0  0  0  0  0  0  0  0  0  0  0
   45.9470   31.3930   46.5040 F   0  0  0  0  0  0  0  0  0  0  0  0
   39.3480   33.3230   40.8770 C   0  0  0  0  0  0  0  0  0  0  0  0
   39.7660   32.5010   41.4930 H   0  0  0  0  0  0  0  0  0  0  0  0
   38.8240   34.0110   41.5880 H   0  0  0  0  0  0  0  0  0  0  0  0
   38.3800   32.7040   39.8930 C   0  0  0  0  0  0  0  0  0  0  0  0
   38.8790   32.7170   38.9000 H   0  0  0  0  0  0  0  0  0  0  0  0
   37.4860   33.3340   39.8180 H   0  0  0  0  0  0  0  0  0  0  0  0
   38.1910   30.3690   39.2440 C   0  0  0  0  0  0  0  0  0  0  0  0
   38.0670   31.2950   40.2470 C   0  0  0  0  0  0  0  0  0  0  0  0
   37.6730   30.8500   41.4900 C   0  0  0  0  0  0  0  0  0  0  0  0
   37.5880   31.6100   42.2530 H   0  0  0  0  0  0  0  0  0  0  0  0
   37.4080   29.5180   41.7290 C   0  0  0  0  0  0  0  0  0  0  0  0
   37.1000   29.1780   42.7050 H   0  0  0  0  0  0  0  0  0  0  0  0
   37.5520   28.6500   40.6770 C   0  0  0  0  0  3  0  0  0  0  0  0
   37.9410   29.0060   39.4010 C   0  0  0  0  0  3  0  0  0  0  0  0
   38.9160   31.1020   36.8280 N   0  0  0  0  0  0  0  0  0  0  0  0
   38.6020   30.7690   37.9060 C   0  0  0  0  0  0  0  0  0  0  0  0
  1  6  1  0  0  0  0
  1 11  1  0  0  0  0
  2  1  2  0  0  0  0
  3  4  2  0  0  0  0
  3  2  1  0  0  0  0
  4  5  1  0  0  0  0
  5  6  2  0  0  0  0
  5 28  1  0  0  0  0
  7  2  1  0  0  0  0
  8  3  1  0  0  0  0
  9 12  1  1  0  0  0
  9 16  1  0  0  0  0
 10 14  1  0  0  0  0
 10 13  1  0  0  0  0
 10  9  1  0  0  0  0
 11 15  1  6  0  0  0
 11 10  1  0  0  0  0
 11  9  1  0  0  0  0
 16 21  1  0  0  0  0
 17 16  2  0  0  0  0
 17 18  1  0  0  0  0
 18 19  2  0  0  0  0
 19 20  1  0  0  0  0
 20 24  1  0  0  0  0
 21 20  2  0  0  0  0
 22 17  1  0  0  0  0
 23 18  1  0  0  0  0
 24 27  1  0  0  0  0
 24 26  1  0  0  0  0
 24 25  1  0  0  0  0
 28 29  1  0  0  0  0
 28 30  1  0  0  0  0
 31 35  1  0  0  0  0
 31 28  1  0  0  0  0
 32 31  1  0  0  0  0
 33 31  1  0  0  0  0
 34 41  2  0  0  0  0
 34 35  1  0  0  0  0
 35 36  2  0  0  0  0
 36 38  1  0  0  0  0
 36 37  1  0  0  0  0
 38 39  1  0  0  0  0
 40 38  2  0  0  0  0
 41 40  1  0  0  0  0
 42 43  3  0  0  0  0
 43 34  1  0  0  0  0
M  END
>  <minimizedAffinity>
-5.94247198

>  <minimizedRMSD>
1.27711153

$$$$
