
 OpenBabel03242513413D

 41 44  0  0  0  0  0  0  0  0999 V2000
   47.6750   30.9640   46.0060 C   0  0  0  0  0  0  0  0  0  0  0  0
   46.9690   32.0510   45.5310 C   0  0  0  0  0  0  0  0  0  0  0  0
   45.9950   32.5770   46.3270 C   0  0  0  0  0  0  0  0  0  0  0  0
   45.6900   32.0660   47.5800 C   0  0  0  0  0  0  0  0  0  0  0  0
   44.8240   32.3340   48.5830 N   0  0  0  0  0  0  0  0  0  0  0  0
   44.9900   31.4690   49.5990 C   0  0  0  0  0  0  0  0  0  0  0  0
   45.9820   30.6470   49.2190 N   0  0  0  0  0  0  0  0  0  0  0  0
   46.4220   30.9920   47.9920 C   0  0  0  0  0  0  0  0  0  0  0  0
   47.4080   30.4170   47.2540 C   0  0  0  0  0  0  0  0  0  0  0  0
   48.4560   30.5170   45.4080 H   0  0  0  0  0  0  0  0  0  0  0  0
   45.4050   33.4370   46.0010 H   0  0  0  0  0  0  0  0  0  0  0  0
   44.1330   33.1350   48.5100 H   0  0  0  0  0  0  0  0  0  0  0  0
   44.4350   31.4670   50.5030 H   0  0  0  0  0  0  0  0  0  0  0  0
   47.2380   34.3920   42.7290 C   0  0  0  0  0  0  0  0  0  0  0  0
   47.8360   33.6310   41.7370 C   0  0  0  0  0  0  0  0  0  0  0  0
   48.1390   32.3020   42.0620 C   0  0  0  0  0  0  0  0  0  0  0  0
   47.8500   31.8160   43.2930 N   0  0  0  0  0  0  0  0  0  0  0  0
   47.2640   32.6140   44.2170 C   0  0  0  0  0  0  0  0  0  0  0  0
   46.9580   33.8800   43.9570 N   0  0  0  0  0  0  0  0  0  0  0  0
   46.9660   35.4360   42.5650 H   0  0  0  0  0  0  0  0  0  0  0  0
   48.6070   31.6980   41.2950 H   0  0  0  0  0  0  0  0  0  0  0  0
   48.1120   34.2530   40.4200 C   0  0  0  0  0  0  0  0  0  0  0  0
   48.6150   35.5060   40.7250 F   0  0  0  0  0  0  0  0  0  0  0  0
   46.9220   34.3910   39.7550 F   0  0  0  0  0  0  0  0  0  0  0  0
   49.0050   33.4470   39.7320 F   0  0  0  0  0  0  0  0  0  0  0  0
   48.1130   29.3280   47.7300 O   0  0  0  0  0  0  0  0  0  0  0  0
   49.6920   27.9910   49.2950 O   0  0  0  0  0  0  0  0  0  0  0  0
   49.4240   29.4020   48.7950 P   0  0  2  0  0  0  0  0  0  0  0  0
   48.9250   30.3120   50.1530 O   0  0  0  0  0  0  0  0  0  0  0  0
   49.6490   30.2460   50.8440 H   0  0  0  0  0  0  0  0  0  0  0  0
   50.8040   30.0530   48.1330 O   0  0  0  0  0  0  0  0  0  0  0  0
   52.8500   28.9400   47.6470 C   0  0  0  0  0  0  0  0  0  0  0  0
   51.5900   29.3810   47.2280 C   0  0  0  0  0  0  0  0  0  0  0  0
   51.2550   29.0900   45.9220 C   0  0  0  0  0  0  0  0  0  0  0  0
   50.3050   29.4100   45.5710 H   0  0  0  0  0  0  0  0  0  0  0  0
   52.0650   28.4150   45.0440 C   0  0  0  0  0  0  0  0  0  0  0  0
   51.7360   28.2170   44.0170 H   0  0  0  0  0  0  0  0  0  0  0  0
   53.3100   27.9960   45.5050 C   0  0  0  0  0  3  0  0  0  0  0  0
   53.6960   28.2580   46.8020 C   0  0  0  0  0  3  0  0  0  0  0  0
   53.7400   29.3630   50.0530 N   0  0  0  0  0  0  0  0  0  0  0  0
   53.3470   29.1640   48.9800 C   0  0  0  0  0  0  0  0  0  0  0  0
  1  9  1  0  0  0  0
  2  1  2  0  0  0  0
  2  3  1  0  0  0  0
  3  4  2  0  0  0  0
  4  8  1  0  0  0  0
  4  5  1  0  0  0  0
  5  6  1  0  0  0  0
  6 13  1  0  0  0  0
  7  6  2  0  0  0  0
  8  7  1  0  0  0  0
  9 26  1  0  0  0  0
  9  8  2  0  0  0  0
 10  1  1  0  0  0  0
 11  3  1  0  0  0  0
 12  5  1  0  0  0  0
 14 19  1  0  0  0  0
 15 16  1  0  0  0  0
 15 14  2  0  0  0  0
 16 17  2  0  0  0  0
 17 18  1  0  0  0  0
 18  2  1  0  0  0  0
 19 18  2  0  0  0  0
 20 14  1  0  0  0  0
 21 16  1  0  0  0  0
 22 23  1  0  0  0  0
 22 15  1  0  0  0  0
 24 22  1  0  0  0  0
 25 22  1  0  0  0  0
 26 28  1  0  0  0  0
 28 27  2  1  0  0  0
 28 29  1  0  0  0  0
 29 30  1  0  0  0  0
 31 28  1  0  0  0  0
 32 41  1  0  0  0  0
 33 32  1  0  0  0  0
 33 31  1  0  0  0  0
 34 33  2  0  0  0  0
 35 34  1  0  0  0  0
 36 38  2  0  0  0  0
 36 34  1  0  0  0  0
 37 36  1  0  0  0  0
 38 39  1  0  0  0  0
 39 32  2  0  0  0  0
 41 40  3  0  0  0  0
M  END
>  <minimizedAffinity>
-5.48878574

>  <minimizedRMSD>
0.458780229

$$$$
