
 OpenBabel03252507463D

 38 40  0  0  0  0  0  0  0  0999 V2000
   47.0000   34.2250   40.9930 C   0  0  0  0  0  0  0  0  0  0  0  0
   47.0800   34.8280   40.0580 H   0  0  0  0  0  0  0  0  0  0  0  0
   46.4350   33.2810   40.8520 H   0  0  0  0  0  0  0  0  0  0  0  0
   48.3700   34.0010   41.4670 C   0  0  0  0  0  0  0  0  0  0  0  0
   48.9510   32.7990   41.0940 C   0  0  0  0  0  0  0  0  0  0  0  0
   50.2500   32.4870   41.5080 C   0  0  0  0  0  0  0  0  0  0  0  0
   50.9030   33.4070   42.2820 N   0  0  0  0  0  0  0  0  0  0  0  0
   50.2940   34.5700   42.6210 C   0  0  0  0  0  0  0  0  0  0  0  0
   49.0570   34.8400   42.2130 N   0  0  0  0  0  0  0  0  0  0  0  0
   50.6690   31.5460   41.2000 H   0  0  0  0  0  0  0  0  0  0  0  0
   50.7880   35.3100   43.2310 H   0  0  0  0  0  0  0  0  0  0  0  0
   48.0700   31.5930   40.0880 S   0  0  0  0  0  0  0  0  0  0  0  0
   49.3410   31.6900   37.5050 C   0  0  0  0  0  0  0  0  0  0  0  0
   48.2790   31.9130   38.3500 C   0  0  0  0  0  0  0  0  0  0  0  0
   47.1280   32.5000   37.8100 C   0  0  0  0  0  0  0  0  0  0  0  0
   46.1990   32.7480   38.3290 H   0  0  0  0  0  0  0  0  0  0  0  0
   47.0430   32.8540   36.4660 C   0  0  0  0  0  0  0  0  0  0  0  0
   46.1980   33.3030   35.9970 H   0  0  0  0  0  0  0  0  0  0  0  0
   48.1350   32.6160   35.6300 C   0  0  0  0  0  3  0  0  0  0  0  0
   49.2490   32.0410   36.1810 C   0  0  0  0  0  3  0  0  0  0  0  0
   51.4130   30.6520   38.6340 N   0  0  0  0  0  0  0  0  0  0  0  0
   50.4730   31.1130   38.1300 C   0  0  0  0  0  0  0  0  0  0  0  0
   46.1700   35.0520   41.9420 C   0  0  0  0  0  0  0  0  0  0  0  0
   46.4910   36.1170   41.8940 H   0  0  0  0  0  0  0  0  0  0  0  0
   46.3390   34.7280   42.9970 H   0  0  0  0  0  0  0  0  0  0  0  0
   44.7030   34.9680   41.6980 C   0  0  0  0  0  0  0  0  0  0  0  0
   43.7970   35.3830   42.7220 C   0  0  0  0  0  0  0  0  0  0  0  0
   42.1530   35.0910   41.9590 S   0  0  0  0  0  0  0  0  0  0  0  0
   42.9810   34.4480   40.3660 C   0  0  0  0  0  0  0  0  0  0  0  0
   44.0860   34.5450   40.6300 N   0  0  0  0  0  0  0  0  0  0  0  0
   44.0550   35.7730   43.7040 H   0  0  0  0  0  0  0  0  0  0  0  0
   42.2580   34.0110   39.2550 O   0  0  0  0  0  0  0  0  0  0  0  0
   40.3210   34.5360   37.5310 O   0  0  0  0  0  0  0  0  0  0  0  0
   41.4290   35.1770   38.3510 P   0  0  0  0  0  0  0  0  0  0  0  0
   40.7420   36.2810   39.4280 O   0  0  0  0  0  0  0  0  0  0  0  0
   39.9190   35.8510   39.7860 H   0  0  0  0  0  0  0  0  0  0  0  0
   42.5260   36.0100   37.3550 O   0  0  0  0  0  0  0  0  0  0  0  0
   42.8340   35.4310   36.6150 H   0  0  0  0  0  0  0  0  0  0  0  0
  1  4  1  0  0  0  0
  1 23  1  0  0  0  0
  2  1  1  0  0  0  0
  3  1  1  0  0  0  0
  4  9  1  0  0  0  0
  5  4  2  0  0  0  0
  5  6  1  0  0  0  0
  6  7  2  0  0  0  0
  7  8  1  0  0  0  0
  8 11  1  0  0  0  0
  9  8  2  0  0  0  0
 10  6  1  0  0  0  0
 12  5  1  0  0  0  0
 13 22  1  0  0  0  0
 13 14  1  0  0  0  0
 14 12  1  0  0  0  0
 15 16  1  0  0  0  0
 15 14  2  0  0  0  0
 17 15  1  0  0  0  0
 18 17  1  0  0  0  0
 19 20  1  0  0  0  0
 19 17  2  0  0  0  0
 20 13  2  0  0  0  0
 22 21  3  0  0  0  0
 23 25  1  0  0  0  0
 24 23  1  0  0  0  0
 26 23  1  0  0  0  0
 26 27  2  0  0  0  0
 27 31  1  0  0  0  0
 28 27  1  0  0  0  0
 29 30  2  0  0  0  0
 29 28  1  0  0  0  0
 30 26  1  0  0  0  0
 32 29  1  0  0  0  0
 33 34  2  0  0  0  0
 34 32  1  0  0  0  0
 34 35  1  0  0  0  0
 35 36  1  0  0  0  0
 37 34  1  0  0  0  0
 38 37  1  0  0  0  0
M  END
>  <minimizedAffinity>
-4.80377769

>  <minimizedRMSD>
0.837556541

$$$$
