
 OpenBabel03242510583D

 37 39  0  0  0  0  0  0  0  0999 V2000
   39.6310   32.2000   40.3680 C   0  0  0  0  0  0  0  0  0  0  0  0
   38.6680   32.9070   39.6290 C   0  0  0  0  0  0  0  0  0  0  0  0
   37.3270   32.5900   39.6410 C   0  0  0  0  0  0  0  0  0  0  0  0
   36.9230   31.5350   40.4160 C   0  0  0  0  0  0  0  0  0  0  0  0
   37.8760   30.8270   41.1550 C   0  0  0  0  0  0  0  0  0  0  0  0
   39.1480   31.1960   41.0870 N   0  0  0  0  0  0  0  0  0  0  0  0
   38.9900   33.7380   39.0180 H   0  0  0  0  0  0  0  0  0  0  0  0
   36.6190   33.1620   39.0570 H   0  0  0  0  0  0  0  0  0  0  0  0
   35.8730   31.3010   40.4160 H   0  0  0  0  0  0  0  0  0  0  0  0
   44.6330   35.0970   42.0810 C   0  0  0  0  0  0  0  0  0  0  0  0
   45.4370   34.7640   40.9930 C   0  0  0  0  0  0  0  0  0  0  0  0
   44.8620   34.0150   39.9650 C   0  0  0  0  0  0  0  0  0  0  0  0
   43.5520   33.6480   40.0710 N   0  0  0  0  0  0  0  0  0  0  0  0
   42.8120   34.0060   41.1660 C   0  0  0  0  0  0  0  0  0  0  0  0
   43.3540   34.7350   42.1790 N   0  0  0  0  0  0  0  0  0  0  0  0
   41.0280   32.5930   40.3040 C   0  0  0  0  0  0  0  0  0  0  0  0
   41.7750   32.0380   39.4640 O   0  0  0  0  0  0  0  0  0  0  0  0
   41.4590   33.5990   41.2120 N   0  0  0  0  0  0  0  0  0  0  0  0
   45.0270   35.6840   42.9230 H   0  0  0  0  0  0  0  0  0  0  0  0
   46.4490   35.1000   41.0080 H   0  0  0  0  0  0  0  0  0  0  0  0
   45.4760   33.7500   39.1150 H   0  0  0  0  0  0  0  0  0  0  0  0
   40.8260   34.0600   41.9150 H   0  0  0  0  0  0  0  0  0  0  0  0
   37.4440   29.7110   41.9770 C   0  0  0  0  0  3  0  0  0  0  0  0
   38.2810   29.1540   42.8270 C   0  0  0  0  0  3  0  0  0  0  0  0
   37.9660   27.9980   43.7250 C   0  0  0  0  0  0  0  0  0  0  0  0
   36.9620   28.2150   44.1600 H   0  0  0  0  0  0  0  0  0  0  0  0
   38.7070   27.9800   44.5540 H   0  0  0  0  0  0  0  0  0  0  0  0
   39.1760   26.0280   43.0310 C   0  0  0  0  0  0  0  0  0  0  0  0
   37.9920   26.7530   42.9580 C   0  0  0  0  0  0  0  0  0  0  0  0
   36.9500   26.2640   42.1880 C   0  0  0  0  0  0  0  0  0  0  0  0
   36.0400   26.8500   42.1500 H   0  0  0  0  0  0  0  0  0  0  0  0
   37.1200   25.0530   41.5060 C   0  0  0  0  0  0  0  0  0  0  0  0
   36.2970   24.6780   40.9050 H   0  0  0  0  0  0  0  0  0  0  0  0
   38.3040   24.3450   41.5890 C   0  0  0  0  0  3  0  0  0  0  0  0
   39.3330   24.8350   42.3540 C   0  0  0  0  0  3  0  0  0  0  0  0
   41.2060   26.8550   44.4290 N   0  0  0  0  0  0  0  0  0  0  0  0
   40.3020   26.4800   43.8150 C   0  0  0  0  0  0  0  0  0  0  0  0
  1  6  1  0  0  0  0
  2  3  1  0  0  0  0
  2  1  2  0  0  0  0
  3  4  2  0  0  0  0
  4  5  1  0  0  0  0
  5 23  1  0  0  0  0
  6  5  2  0  0  0  0
  7  2  1  0  0  0  0
  8  3  1  0  0  0  0
  9  4  1  0  0  0  0
 10 15  1  0  0  0  0
 10 19  1  0  0  0  0
 11 20  1  0  0  0  0
 11 10  2  0  0  0  0
 12 13  2  0  0  0  0
 12 11  1  0  0  0  0
 13 14  1  0  0  0  0
 14 18  1  0  0  0  0
 14 15  2  0  0  0  0
 16  1  1  0  0  0  0
 16 18  1  0  0  0  0
 17 16  2  0  0  0  0
 18 22  1  0  0  0  0
 21 12  1  0  0  0  0
 23 24  2  0  0  0  0
 24 25  1  0  0  0  0
 25 26  1  0  0  0  0
 25 27  1  0  0  0  0
 28 37  1  0  0  0  0
 29 28  1  0  0  0  0
 29 25  1  0  0  0  0
 30 29  2  0  0  0  0
 31 30  1  0  0  0  0
 32 34  2  0  0  0  0
 32 30  1  0  0  0  0
 33 32  1  0  0  0  0
 34 35  1  0  0  0  0
 35 28  2  0  0  0  0
 37 36  3  0  0  0  0
M  END
>  <minimizedAffinity>
-6.59671068

$$$$

 OpenBabel03242510583D

 37 39  0  0  0  0  0  0  0  0999 V2000
   39.6700   32.3500   40.1390 C   0  0  0  0  0  0  0  0  0  0  0  0
   38.6940   33.3240   39.8660 C   0  0  0  0  0  0  0  0  0  0  0  0
   37.3450   33.0430   39.8130 C   0  0  0  0  0  0  0  0  0  0  0  0
   36.9480   31.7520   40.0400 C   0  0  0  0  0  0  0  0  0  0  0  0
   37.9140   30.7790   40.3120 C   0  0  0  0  0  0  0  0  0  0  0  0
   39.1930   31.1310   40.3440 N   0  0  0  0  0  0  0  0  0  0  0  0
   39.0100   34.3410   39.6870 H   0  0  0  0  0  0  0  0  0  0  0  0
   36.6270   33.8230   39.6010 H   0  0  0  0  0  0  0  0  0  0  0  0
   35.8920   31.5490   39.9960 H   0  0  0  0  0  0  0  0  0  0  0  0
   44.5940   35.0990   42.2720 C   0  0  0  0  0  0  0  0  0  0  0  0
   45.4600   34.7920   41.2260 C   0  0  0  0  0  0  0  0  0  0  0  0
   44.9420   34.0910   40.1360 C   0  0  0  0  0  0  0  0  0  0  0  0
   43.6220   33.7420   40.1450 N   0  0  0  0  0  0  0  0  0  0  0  0
   42.8190   34.0730   41.2030 C   0  0  0  0  0  0  0  0  0  0  0  0
   43.3060   34.7550   42.2760 N   0  0  0  0  0  0  0  0  0  0  0  0
   41.0740   32.7230   40.1780 C   0  0  0  0  0  0  0  0  0  0  0  0
   41.8650   32.1860   39.3670 O   0  0  0  0  0  0  0  0  0  0  0  0
   41.4600   33.6870   41.1480 N   0  0  0  0  0  0  0  0  0  0  0  0
   44.9420   35.6490   43.1580 H   0  0  0  0  0  0  0  0  0  0  0  0
   46.4740   35.1100   41.3180 H   0  0  0  0  0  0  0  0  0  0  0  0
   45.6060   33.8460   39.3170 H   0  0  0  0  0  0  0  0  0  0  0  0
   40.7900   34.1330   41.8260 H   0  0  0  0  0  0  0  0  0  0  0  0
   37.4900   29.4110   40.5540 C   0  0  0  0  0  3  0  0  0  0  0  0
   37.1660   29.0260   41.7700 C   0  0  0  0  0  3  0  0  0  0  0  0
   36.7200   27.6490   42.1550 C   0  0  0  0  0  0  0  0  0  0  0  0
   36.2650   27.2090   41.2360 H   0  0  0  0  0  0  0  0  0  0  0  0
   35.9250   27.7360   42.9270 H   0  0  0  0  0  0  0  0  0  0  0  0
   38.0280   25.6230   42.0690 C   0  0  0  0  0  0  0  0  0  0  0  0
   37.8600   26.8760   42.6460 C   0  0  0  0  0  0  0  0  0  0  0  0
   38.7550   27.2960   43.6170 C   0  0  0  0  0  0  0  0  0  0  0  0
   38.5980   28.2770   44.0480 H   0  0  0  0  0  0  0  0  0  0  0  0
   39.8020   26.4450   43.9870 C   0  0  0  0  0  0  0  0  0  0  0  0
   40.4980   26.7830   44.7490 H   0  0  0  0  0  0  0  0  0  0  0  0
   39.9550   25.2010   43.4040 C   0  0  0  0  0  3  0  0  0  0  0  0
   39.0650   24.7910   42.4430 C   0  0  0  0  0  3  0  0  0  0  0  0
   36.4140   24.7060   40.2480 N   0  0  0  0  0  0  0  0  0  0  0  0
   37.1320   25.1230   41.0520 C   0  0  0  0  0  0  0  0  0  0  0  0
  1 16  1  0  0  0  0
  1  6  1  0  0  0  0
  2  1  2  0  0  0  0
  3  2  1  0  0  0  0
  3  4  2  0  0  0  0
  4  5  1  0  0  0  0
  5  6  2  0  0  0  0
  5 23  1  0  0  0  0
  7  2  1  0  0  0  0
  8  3  1  0  0  0  0
  9  4  1  0  0  0  0
 10 15  1  0  0  0  0
 10 19  1  0  0  0  0
 11 20  1  0  0  0  0
 11 10  2  0  0  0  0
 12 13  2  0  0  0  0
 12 11  1  0  0  0  0
 13 14  1  0  0  0  0
 14 15  2  0  0  0  0
 16 18  1  0  0  0  0
 17 16  2  0  0  0  0
 18 14  1  0  0  0  0
 18 22  1  0  0  0  0
 21 12  1  0  0  0  0
 23 24  2  0  0  0  0
 24 25  1  0  0  0  0
 25 29  1  0  0  0  0
 25 27  1  0  0  0  0
 26 25  1  0  0  0  0
 28 35  2  0  0  0  0
 28 29  1  0  0  0  0
 29 30  2  0  0  0  0
 30 32  1  0  0  0  0
 30 31  1  0  0  0  0
 32 33  1  0  0  0  0
 34 32  2  0  0  0  0
 35 34  1  0  0  0  0
 36 37  3  0  0  0  0
 37 28  1  0  0  0  0
M  END
>  <minimizedAffinity>
-6.5040369

$$$$

 OpenBabel03242510583D

 37 39  0  0  0  0  0  0  0  0999 V2000
   39.3770   31.5750   39.3520 C   0  0  0  0  0  0  0  0  0  0  0  0
   38.3920   32.5090   38.9890 C   0  0  0  0  0  0  0  0  0  0  0  0
   37.1250   32.5160   39.5330 C   0  0  0  0  0  0  0  0  0  0  0  0
   36.8230   31.5660   40.4710 C   0  0  0  0  0  0  0  0  0  0  0  0
   37.7990   30.6330   40.8370 C   0  0  0  0  0  0  0  0  0  0  0  0
   38.9940   30.6940   40.2660 N   0  0  0  0  0  0  0  0  0  0  0  0
   38.6330   33.2570   38.2490 H   0  0  0  0  0  0  0  0  0  0  0  0
   36.3970   33.2540   39.2250 H   0  0  0  0  0  0  0  0  0  0  0  0
   35.8300   31.5850   40.8870 H   0  0  0  0  0  0  0  0  0  0  0  0
   43.7250   30.0120   35.4790 C   0  0  0  0  0  0  0  0  0  0  0  0
   44.7590   30.7670   36.0270 C   0  0  0  0  0  0  0  0  0  0  0  0
   44.4890   31.4940   37.1880 C   0  0  0  0  0  0  0  0  0  0  0  0
   43.2370   31.4320   37.7280 N   0  0  0  0  0  0  0  0  0  0  0  0
   42.2610   30.6700   37.1420 C   0  0  0  0  0  0  0  0  0  0  0  0
   42.5040   29.9550   36.0100 N   0  0  0  0  0  0  0  0  0  0  0  0
   40.6910   31.6300   38.7340 C   0  0  0  0  0  0  0  0  0  0  0  0
   41.4880   32.5300   39.0890 O   0  0  0  0  0  0  0  0  0  0  0  0
   40.9870   30.6430   37.7550 N   0  0  0  0  0  0  0  0  0  0  0  0
   43.8750   29.4180   34.5660 H   0  0  0  0  0  0  0  0  0  0  0  0
   45.7010   30.7490   35.5270 H   0  0  0  0  0  0  0  0  0  0  0  0
   45.2840   32.0860   37.6230 H   0  0  0  0  0  0  0  0  0  0  0  0
   40.3120   29.8910   37.4620 H   0  0  0  0  0  0  0  0  0  0  0  0
   37.4760   29.6280   41.8340 C   0  0  0  0  0  3  0  0  0  0  0  0
   38.4060   29.1920   42.6570 C   0  0  0  0  0  3  0  0  0  0  0  0
   38.2070   28.1570   43.7220 C   0  0  0  0  0  0  0  0  0  0  0  0
   37.2570   28.4310   44.2380 H   0  0  0  0  0  0  0  0  0  0  0  0
   39.0380   28.2400   44.4560 H   0  0  0  0  0  0  0  0  0  0  0  0
   39.3220   26.0750   43.2280 C   0  0  0  0  0  0  0  0  0  0  0  0
   38.1580   26.8260   43.1180 C   0  0  0  0  0  0  0  0  0  0  0  0
   37.0640   26.2830   42.4630 C   0  0  0  0  0  0  0  0  0  0  0  0
   36.1710   26.8920   42.3930 H   0  0  0  0  0  0  0  0  0  0  0  0
   37.1640   24.9920   41.9330 C   0  0  0  0  0  0  0  0  0  0  0  0
   36.3020   24.5740   41.4210 H   0  0  0  0  0  0  0  0  0  0  0  0
   38.3290   24.2570   42.0500 C   0  0  0  0  0  3  0  0  0  0  0  0
   39.4090   24.8010   42.7000 C   0  0  0  0  0  3  0  0  0  0  0  0
   41.4470   26.9880   44.4140 N   0  0  0  0  0  0  0  0  0  0  0  0
   40.4980   26.5800   43.8960 C   0  0  0  0  0  0  0  0  0  0  0  0
  1  6  1  0  0  0  0
  2  1  2  0  0  0  0
  2  3  1  0  0  0  0
  3  4  2  0  0  0  0
  4  5  1  0  0  0  0
  4  9  1  0  0  0  0
  5 23  1  0  0  0  0
  6  5  2  0  0  0  0
  7  2  1  0  0  0  0
  8  3  1  0  0  0  0
 10 15  2  0  0  0  0
 10 11  1  0  0  0  0
 11 12  2  0  0  0  0
 12 21  1  0  0  0  0
 12 13  1  0  0  0  0
 14 13  2  0  0  0  0
 14 18  1  0  0  0  0
 15 14  1  0  0  0  0
 16 17  2  0  0  0  0
 16  1  1  0  0  0  0
 18 16  1  0  0  0  0
 19 10  1  0  0  0  0
 20 11  1  0  0  0  0
 22 18  1  0  0  0  0
 23 24  2  0  0  0  0
 24 25  1  0  0  0  0
 25 26  1  0  0  0  0
 25 27  1  0  0  0  0
 28 37  1  0  0  0  0
 29 28  1  0  0  0  0
 29 25  1  0  0  0  0
 30 29  2  0  0  0  0
 31 30  1  0  0  0  0
 32 34  2  0  0  0  0
 32 30  1  0  0  0  0
 33 32  1  0  0  0  0
 34 35  1  0  0  0  0
 35 28  2  0  0  0  0
 37 36  3  0  0  0  0
M  END
>  <minimizedAffinity>
-6.28779697

$$$$

 OpenBabel03242510583D

 37 39  0  0  0  0  0  0  0  0999 V2000
   37.7120   30.6030   38.3230 C   0  0  0  0  0  0  0  0  0  0  0  0
   36.9520   30.4670   37.1480 C   0  0  0  0  0  0  0  0  0  0  0  0
   36.0470   29.4470   36.9500 C   0  0  0  0  0  0  0  0  0  0  0  0
   35.8860   28.5280   37.9520 C   0  0  0  0  0  0  0  0  0  0  0  0
   36.6380   28.6570   39.1240 C   0  0  0  0  0  0  0  0  0  0  0  0
   37.4890   29.6680   39.2360 N   0  0  0  0  0  0  0  0  0  0  0  0
   37.0820   31.1930   36.3590 H   0  0  0  0  0  0  0  0  0  0  0  0
   35.4820   29.3800   36.0300 H   0  0  0  0  0  0  0  0  0  0  0  0
   35.1750   27.7380   37.7840 H   0  0  0  0  0  0  0  0  0  0  0  0
   42.7700   33.7100   37.2710 C   0  0  0  0  0  0  0  0  0  0  0  0
   42.5990   34.6990   38.2360 C   0  0  0  0  0  0  0  0  0  0  0  0
   41.4810   34.6110   39.0670 C   0  0  0  0  0  0  0  0  0  0  0  0
   40.6140   33.5690   38.8970 N   0  0  0  0  0  0  0  0  0  0  0  0
   40.8370   32.6270   37.9280 C   0  0  0  0  0  0  0  0  0  0  0  0
   41.9200   32.6960   37.1080 N   0  0  0  0  0  0  0  0  0  0  0  0
   38.6470   31.7060   38.4580 C   0  0  0  0  0  0  0  0  0  0  0  0
   38.3090   32.7070   39.1320 O   0  0  0  0  0  0  0  0  0  0  0  0
   39.9040   31.5710   37.8080 N   0  0  0  0  0  0  0  0  0  0  0  0
   43.6300   33.7240   36.5860 H   0  0  0  0  0  0  0  0  0  0  0  0
   43.3340   35.4700   38.2870 H   0  0  0  0  0  0  0  0  0  0  0  0
   41.3370   35.3730   39.8210 H   0  0  0  0  0  0  0  0  0  0  0  0
   40.1810   30.7270   37.2430 H   0  0  0  0  0  0  0  0  0  0  0  0
   36.4630   27.6810   40.1860 C   0  0  0  0  0  3  0  0  0  0  0  0
   36.8120   27.9790   41.4200 C   0  0  0  0  0  3  0  0  0  0  0  0
   36.6910   27.0660   42.6010 C   0  0  0  0  0  0  0  0  0  0  0  0
   35.9420   26.2920   42.3110 H   0  0  0  0  0  0  0  0  0  0  0  0
   36.2790   27.6450   43.4560 H   0  0  0  0  0  0  0  0  0  0  0  0
   38.2230   25.2080   42.4450 C   0  0  0  0  0  0  0  0  0  0  0  0
   37.9980   26.4940   42.9220 C   0  0  0  0  0  0  0  0  0  0  0  0
   38.9940   27.1270   43.6480 C   0  0  0  0  0  0  0  0  0  0  0  0
   38.7890   28.1280   44.0070 H   0  0  0  0  0  0  0  0  0  0  0  0
   40.1980   26.4520   43.8790 C   0  0  0  0  0  0  0  0  0  0  0  0
   40.9720   26.9570   44.4490 H   0  0  0  0  0  0  0  0  0  0  0  0
   40.4060   25.1730   43.3980 C   0  0  0  0  0  3  0  0  0  0  0  0
   39.4160   24.5510   42.6790 C   0  0  0  0  0  3  0  0  0  0  0  0
   36.4220   23.9320   41.0710 N   0  0  0  0  0  0  0  0  0  0  0  0
   37.2290   24.4900   41.6820 C   0  0  0  0  0  0  0  0  0  0  0  0
  1 16  1  0  0  0  0
  1  6  1  0  0  0  0
  2  1  2  0  0  0  0
  3  2  1  0  0  0  0
  3  4  2  0  0  0  0
  4  5  1  0  0  0  0
  5  6  2  0  0  0  0
  5 23  1  0  0  0  0
  7  2  1  0  0  0  0
  8  3  1  0  0  0  0
  9  4  1  0  0  0  0
 10 11  1  0  0  0  0
 11 20  1  0  0  0  0
 11 12  2  0  0  0  0
 12 21  1  0  0  0  0
 13 12  1  0  0  0  0
 14 13  2  0  0  0  0
 15 10  2  0  0  0  0
 15 14  1  0  0  0  0
 16 17  2  0  0  0  0
 18 14  1  0  0  0  0
 18 16  1  0  0  0  0
 19 10  1  0  0  0  0
 22 18  1  0  0  0  0
 23 24  2  0  0  0  0
 24 25  1  0  0  0  0
 25 29  1  0  0  0  0
 25 27  1  0  0  0  0
 26 25  1  0  0  0  0
 28 35  2  0  0  0  0
 28 29  1  0  0  0  0
 29 30  2  0  0  0  0
 30 32  1  0  0  0  0
 30 31  1  0  0  0  0
 32 33  1  0  0  0  0
 34 32  2  0  0  0  0
 35 34  1  0  0  0  0
 36 37  3  0  0  0  0
 37 28  1  0  0  0  0
M  END
>  <minimizedAffinity>
-6.27377701

$$$$

 OpenBabel03242510583D

 37 39  0  0  0  0  0  0  0  0999 V2000
   36.9540   29.6140   39.0320 C   0  0  0  0  0  0  0  0  0  0  0  0
   37.7430   28.5150   39.4140 C   0  0  0  0  0  0  0  0  0  0  0  0
   37.3750   27.2070   39.1830 C   0  0  0  0  0  0  0  0  0  0  0  0
   36.1820   26.9780   38.5510 C   0  0  0  0  0  0  0  0  0  0  0  0
   35.3920   28.0670   38.1680 C   0  0  0  0  0  0  0  0  0  0  0  0
   35.8190   29.2950   38.4270 N   0  0  0  0  0  0  0  0  0  0  0  0
   38.6830   28.6990   39.9130 H   0  0  0  0  0  0  0  0  0  0  0  0
   38.0130   26.3910   39.4930 H   0  0  0  0  0  0  0  0  0  0  0  0
   35.9080   25.9520   38.3770 H   0  0  0  0  0  0  0  0  0  0  0  0
   40.8830   34.1830   39.2230 C   0  0  0  0  0  0  0  0  0  0  0  0
   40.1060   35.0810   39.9510 C   0  0  0  0  0  0  0  0  0  0  0  0
   38.8550   34.6500   40.3940 C   0  0  0  0  0  0  0  0  0  0  0  0
   38.4540   33.3790   40.0970 N   0  0  0  0  0  0  0  0  0  0  0  0
   39.2630   32.5410   39.3770 C   0  0  0  0  0  0  0  0  0  0  0  0
   40.4860   32.9440   38.9350 N   0  0  0  0  0  0  0  0  0  0  0  0
   37.4100   30.9650   39.3100 C   0  0  0  0  0  0  0  0  0  0  0  0
   36.5790   31.8140   39.7080 O   0  0  0  0  0  0  0  0  0  0  0  0
   38.7910   31.2360   39.1080 N   0  0  0  0  0  0  0  0  0  0  0  0
   41.8770   34.4640   38.8460 H   0  0  0  0  0  0  0  0  0  0  0  0
   40.5120   36.0510   40.1280 H   0  0  0  0  0  0  0  0  0  0  0  0
   38.2420   35.3380   40.9600 H   0  0  0  0  0  0  0  0  0  0  0  0
   39.4830   30.5170   38.7730 H   0  0  0  0  0  0  0  0  0  0  0  0
   34.1290   27.8200   37.4960 C   0  0  0  0  0  3  0  0  0  0  0  0
   33.2980   28.8150   37.2660 C   0  0  0  0  0  3  0  0  0  0  0  0
   31.9670   28.6960   36.5900 C   0  0  0  0  0  0  0  0  0  0  0  0
   31.2500   28.3770   37.3830 H   0  0  0  0  0  0  0  0  0  0  0  0
   32.0260   27.8860   35.8300 H   0  0  0  0  0  0  0  0  0  0  0  0
   30.7480   30.7740   36.7320 C   0  0  0  0  0  0  0  0  0  0  0  0
   31.6030   29.9750   35.9810 C   0  0  0  0  0  0  0  0  0  0  0  0
   32.0380   30.4290   34.7470 C   0  0  0  0  0  0  0  0  0  0  0  0
   32.7030   29.7840   34.1850 H   0  0  0  0  0  0  0  0  0  0  0  0
   31.6040   31.6790   34.2920 C   0  0  0  0  0  0  0  0  0  0  0  0
   31.9500   32.0250   33.3230 H   0  0  0  0  0  0  0  0  0  0  0  0
   30.7530   32.4610   35.0500 C   0  0  0  0  0  3  0  0  0  0  0  0
   30.3250   32.0060   36.2730 C   0  0  0  0  0  3  0  0  0  0  0  0
   29.8810   30.0290   39.0670 N   0  0  0  0  0  0  0  0  0  0  0  0
   30.2560   30.3630   38.0260 C   0  0  0  0  0  0  0  0  0  0  0  0
  1 16  1  0  0  0  0
  1  2  1  0  0  0  0
  2  7  1  0  0  0  0
  3  2  2  0  0  0  0
  3  8  1  0  0  0  0
  4  3  1  0  0  0  0
  5  6  1  0  0  0  0
  5  4  2  0  0  0  0
  6  1  2  0  0  0  0
  9  4  1  0  0  0  0
 10 11  1  0  0  0  0
 11 20  1  0  0  0  0
 11 12  2  0  0  0  0
 12 21  1  0  0  0  0
 13 12  1  0  0  0  0
 14 13  2  0  0  0  0
 15 10  2  0  0  0  0
 15 14  1  0  0  0  0
 16 17  2  0  0  0  0
 18 16  1  0  0  0  0
 18 14  1  0  0  0  0
 19 10  1  0  0  0  0
 22 18  1  0  0  0  0
 23  5  1  0  0  0  0
 24 23  2  0  0  0  0
 25 24  1  0  0  0  0
 25 26  1  0  0  0  0
 27 25  1  0  0  0  0
 28 37  1  0  0  0  0
 29 25  1  0  0  0  0
 29 28  2  0  0  0  0
 30 29  1  0  0  0  0
 31 30  1  0  0  0  0
 32 30  2  0  0  0  0
 32 34  1  0  0  0  0
 33 32  1  0  0  0  0
 34 35  2  0  0  0  0
 35 28  1  0  0  0  0
 37 36  3  0  0  0  0
M  END
>  <minimizedAffinity>
-6.06284285

$$$$

 OpenBabel03242510583D

 37 39  0  0  0  0  0  0  0  0999 V2000
   37.1190   30.3780   38.8310 C   0  0  0  0  0  0  0  0  0  0  0  0
   36.3710   30.2330   37.6500 C   0  0  0  0  0  0  0  0  0  0  0  0
   35.6850   29.0820   37.3280 C   0  0  0  0  0  0  0  0  0  0  0  0
   35.7400   28.0350   38.2090 C   0  0  0  0  0  0  0  0  0  0  0  0
   36.4820   28.1710   39.3870 C   0  0  0  0  0  0  0  0  0  0  0  0
   37.1140   29.3130   39.6210 N   0  0  0  0  0  0  0  0  0  0  0  0
   36.3310   31.0610   36.9560 H   0  0  0  0  0  0  0  0  0  0  0  0
   35.1220   29.0130   36.4080 H   0  0  0  0  0  0  0  0  0  0  0  0
   35.1990   27.1430   37.9440 H   0  0  0  0  0  0  0  0  0  0  0  0
   41.7170   33.8630   40.5780 C   0  0  0  0  0  0  0  0  0  0  0  0
   41.0600   35.0910   40.5400 C   0  0  0  0  0  0  0  0  0  0  0  0
   39.7030   35.0930   40.2140 C   0  0  0  0  0  0  0  0  0  0  0  0
   39.0880   33.9030   39.9480 N   0  0  0  0  0  0  0  0  0  0  0  0
   39.7880   32.7280   40.0010 C   0  0  0  0  0  0  0  0  0  0  0  0
   41.1120   32.7050   40.3170 N   0  0  0  0  0  0  0  0  0  0  0  0
   37.8150   31.6240   39.1000 C   0  0  0  0  0  0  0  0  0  0  0  0
   37.2680   32.7040   38.7790 O   0  0  0  0  0  0  0  0  0  0  0  0
   39.0910   31.5300   39.7210 N   0  0  0  0  0  0  0  0  0  0  0  0
   42.7850   33.7960   40.8290 H   0  0  0  0  0  0  0  0  0  0  0  0
   41.6320   35.9630   40.7640 H   0  0  0  0  0  0  0  0  0  0  0  0
   39.1810   36.0400   40.1810 H   0  0  0  0  0  0  0  0  0  0  0  0
   39.5450   30.6180   39.9870 H   0  0  0  0  0  0  0  0  0  0  0  0
   36.5360   27.0600   40.3190 C   0  0  0  0  0  3  0  0  0  0  0  0
   37.6890   26.6840   40.8320 C   0  0  0  0  0  3  0  0  0  0  0  0
   37.8840   25.5550   41.7960 C   0  0  0  0  0  0  0  0  0  0  0  0
   37.7920   24.6210   41.1930 H   0  0  0  0  0  0  0  0  0  0  0  0
   37.0540   25.5730   42.5360 H   0  0  0  0  0  0  0  0  0  0  0  0
   39.2660   26.6430   43.4470 C   0  0  0  0  0  0  0  0  0  0  0  0
   39.1860   25.6790   42.4500 C   0  0  0  0  0  0  0  0  0  0  0  0
   40.3090   24.9240   42.1500 C   0  0  0  0  0  0  0  0  0  0  0  0
   40.2160   24.1810   41.3680 H   0  0  0  0  0  0  0  0  0  0  0  0
   41.4910   25.1560   42.8620 C   0  0  0  0  0  0  0  0  0  0  0  0
   42.3660   24.5590   42.6190 H   0  0  0  0  0  0  0  0  0  0  0  0
   41.5550   26.1190   43.8510 C   0  0  0  0  0  3  0  0  0  0  0  0
   40.4390   26.8640   44.1430 C   0  0  0  0  0  3  0  0  0  0  0  0
   37.2240   28.1080   44.1130 N   0  0  0  0  0  0  0  0  0  0  0  0
   38.1350   27.4640   43.8100 C   0  0  0  0  0  0  0  0  0  0  0  0
  1 16  1  0  0  0  0
  1  6  1  0  0  0  0
  2  1  2  0  0  0  0
  3  2  1  0  0  0  0
  3  4  2  0  0  0  0
  4  5  1  0  0  0  0
  5  6  2  0  0  0  0
  5 23  1  0  0  0  0
  7  2  1  0  0  0  0
  8  3  1  0  0  0  0
  9  4  1  0  0  0  0
 10 19  1  0  0  0  0
 11 10  1  0  0  0  0
 11 20  1  0  0  0  0
 12 11  2  0  0  0  0
 13 14  2  0  0  0  0
 13 12  1  0  0  0  0
 14 15  1  0  0  0  0
 15 10  2  0  0  0  0
 16 18  1  0  0  0  0
 17 16  2  0  0  0  0
 18 22  1  0  0  0  0
 18 14  1  0  0  0  0
 21 12  1  0  0  0  0
 23 24  2  0  0  0  0
 24 25  1  0  0  0  0
 25 29  1  0  0  0  0
 25 27  1  0  0  0  0
 26 25  1  0  0  0  0
 28 37  1  0  0  0  0
 28 35  1  0  0  0  0
 29 28  2  0  0  0  0
 30 29  1  0  0  0  0
 30 32  2  0  0  0  0
 31 30  1  0  0  0  0
 32 34  1  0  0  0  0
 33 32  1  0  0  0  0
 34 35  2  0  0  0  0
 37 36  3  0  0  0  0
M  END
>  <minimizedAffinity>
-5.98479843

$$$$

 OpenBabel03242510583D

 37 39  0  0  0  0  0  0  0  0999 V2000
   40.6750   32.7280   39.0260 C   0  0  0  0  0  0  0  0  0  0  0  0
   40.2730   33.9240   39.6440 C   0  0  0  0  0  0  0  0  0  0  0  0
   39.0610   34.0710   40.2850 C   0  0  0  0  0  0  0  0  0  0  0  0
   38.2170   32.9930   40.3160 C   0  0  0  0  0  0  0  0  0  0  0  0
   38.6110   31.7990   39.7030 C   0  0  0  0  0  0  0  0  0  0  0  0
   39.7940   31.7410   39.1070 N   0  0  0  0  0  0  0  0  0  0  0  0
   40.9410   34.7730   39.6170 H   0  0  0  0  0  0  0  0  0  0  0  0
   38.7920   35.0100   40.7480 H   0  0  0  0  0  0  0  0  0  0  0  0
   37.2750   33.1230   40.8200 H   0  0  0  0  0  0  0  0  0  0  0  0
   44.8240   30.5190   35.2510 C   0  0  0  0  0  0  0  0  0  0  0  0
   45.9060   31.2870   35.6740 C   0  0  0  0  0  0  0  0  0  0  0  0
   45.7050   32.1590   36.7460 C   0  0  0  0  0  0  0  0  0  0  0  0
   44.4700   32.2180   37.3240 N   0  0  0  0  0  0  0  0  0  0  0  0
   43.4440   31.4360   36.8630 C   0  0  0  0  0  0  0  0  0  0  0  0
   43.6200   30.5810   35.8190 N   0  0  0  0  0  0  0  0  0  0  0  0
   41.9690   32.6500   38.3700 C   0  0  0  0  0  0  0  0  0  0  0  0
   42.8140   33.5480   38.5910 O   0  0  0  0  0  0  0  0  0  0  0  0
   42.1910   31.5400   37.5090 N   0  0  0  0  0  0  0  0  0  0  0  0
   44.9190   29.8140   34.4120 H   0  0  0  0  0  0  0  0  0  0  0  0
   46.8290   31.1670   35.1540 H   0  0  0  0  0  0  0  0  0  0  0  0
   46.5370   32.7620   37.0840 H   0  0  0  0  0  0  0  0  0  0  0  0
   41.4760   30.7900   37.3280 H   0  0  0  0  0  0  0  0  0  0  0  0
   37.7130   30.6580   39.7400 C   0  0  0  0  0  3  0  0  0  0  0  0
   36.5540   30.7490   40.3570 C   0  0  0  0  0  3  0  0  0  0  0  0
   35.5430   29.6500   40.4730 C   0  0  0  0  0  0  0  0  0  0  0  0
   35.1160   29.5200   39.4510 H   0  0  0  0  0  0  0  0  0  0  0  0
   34.7280   29.9880   41.1490 H   0  0  0  0  0  0  0  0  0  0  0  0
   36.3010   27.3970   40.0580 C   0  0  0  0  0  0  0  0  0  0  0  0
   36.1860   28.4360   40.9740 C   0  0  0  0  0  0  0  0  0  0  0  0
   36.6710   28.2570   42.2600 C   0  0  0  0  0  0  0  0  0  0  0  0
   36.5660   29.0850   42.9510 H   0  0  0  0  0  0  0  0  0  0  0  0
   37.2630   27.0350   42.5980 C   0  0  0  0  0  0  0  0  0  0  0  0
   37.6390   26.9050   43.6080 H   0  0  0  0  0  0  0  0  0  0  0  0
   37.3700   26.0120   41.6750 C   0  0  0  0  0  3  0  0  0  0  0  0
   36.8880   26.1950   40.4030 C   0  0  0  0  0  3  0  0  0  0  0  0
   35.4230   27.5920   37.6190 N   0  0  0  0  0  0  0  0  0  0  0  0
   35.8180   27.5150   38.7030 C   0  0  0  0  0  0  0  0  0  0  0  0
  1  6  2  0  0  0  0
  1  2  1  0  0  0  0
  2  3  2  0  0  0  0
  3  4  1  0  0  0  0
  3  8  1  0  0  0  0
  4  9  1  0  0  0  0
  5 23  1  0  0  0  0
  5  4  2  0  0  0  0
  6  5  1  0  0  0  0
  7  2  1  0  0  0  0
 10 11  2  0  0  0  0
 10 15  1  0  0  0  0
 11 12  1  0  0  0  0
 12 21  1  0  0  0  0
 12 13  2  0  0  0  0
 14 13  1  0  0  0  0
 14 18  1  0  0  0  0
 15 14  2  0  0  0  0
 16 17  2  0  0  0  0
 16  1  1  0  0  0  0
 18 16  1  0  0  0  0
 19 10  1  0  0  0  0
 20 11  1  0  0  0  0
 22 18  1  0  0  0  0
 23 24  2  0  0  0  0
 24 25  1  0  0  0  0
 25 29  1  0  0  0  0
 25 27  1  0  0  0  0
 26 25  1  0  0  0  0
 28 35  2  0  0  0  0
 28 29  1  0  0  0  0
 29 30  2  0  0  0  0
 30 32  1  0  0  0  0
 30 31  1  0  0  0  0
 32 33  1  0  0  0  0
 34 32  2  0  0  0  0
 35 34  1  0  0  0  0
 36 37  3  0  0  0  0
 37 28  1  0  0  0  0
M  END
>  <minimizedAffinity>
-5.87815046

$$$$

 OpenBabel03242510583D

 37 39  0  0  0  0  0  0  0  0999 V2000
   37.2770   28.4340   39.4310 C   0  0  0  0  0  0  0  0  0  0  0  0
   38.0730   29.0490   38.4500 C   0  0  0  0  0  0  0  0  0  0  0  0
   37.5520   29.6430   37.3200 C   0  0  0  0  0  0  0  0  0  0  0  0
   36.1930   29.6280   37.1560 C   0  0  0  0  0  0  0  0  0  0  0  0
   35.3940   29.0170   38.1280 C   0  0  0  0  0  0  0  0  0  0  0  0
   35.9740   28.4680   39.1860 N   0  0  0  0  0  0  0  0  0  0  0  0
   39.1450   29.0590   38.5830 H   0  0  0  0  0  0  0  0  0  0  0  0
   38.2020   30.1060   36.5910 H   0  0  0  0  0  0  0  0  0  0  0  0
   35.8010   30.0960   36.2690 H   0  0  0  0  0  0  0  0  0  0  0  0
   41.5300   27.6420   43.6300 C   0  0  0  0  0  0  0  0  0  0  0  0
   41.0180   26.4860   44.2140 C   0  0  0  0  0  0  0  0  0  0  0  0
   39.8670   25.9290   43.6550 C   0  0  0  0  0  0  0  0  0  0  0  0
   39.3000   26.5380   42.5720 N   0  0  0  0  0  0  0  0  0  0  0  0
   39.8500   27.6740   42.0420 C   0  0  0  0  0  0  0  0  0  0  0  0
   40.9720   28.2320   42.5730 N   0  0  0  0  0  0  0  0  0  0  0  0
   37.8990   27.8290   40.5950 C   0  0  0  0  0  0  0  0  0  0  0  0
   37.2560   26.9750   41.2500 O   0  0  0  0  0  0  0  0  0  0  0  0
   39.2180   28.2520   40.9170 N   0  0  0  0  0  0  0  0  0  0  0  0
   42.4340   28.1280   44.0240 H   0  0  0  0  0  0  0  0  0  0  0  0
   41.5370   26.0900   45.0580 H   0  0  0  0  0  0  0  0  0  0  0  0
   39.4590   25.0310   44.1000 H   0  0  0  0  0  0  0  0  0  0  0  0
   39.7510   28.9700   40.3630 H   0  0  0  0  0  0  0  0  0  0  0  0
   33.9530   29.0050   37.9510 C   0  0  0  0  0  3  0  0  0  0  0  0
   33.4350   28.7260   36.7730 C   0  0  0  0  0  3  0  0  0  0  0  0
   31.9720   28.6850   36.4560 C   0  0  0  0  0  0  0  0  0  0  0  0
   31.4610   28.4170   37.4100 H   0  0  0  0  0  0  0  0  0  0  0  0
   31.7900   27.8690   35.7230 H   0  0  0  0  0  0  0  0  0  0  0  0
   30.7450   30.7380   36.7830 C   0  0  0  0  0  0  0  0  0  0  0  0
   31.5420   29.9810   35.9310 C   0  0  0  0  0  0  0  0  0  0  0  0
   31.8640   30.4870   34.6820 C   0  0  0  0  0  0  0  0  0  0  0  0
   32.4850   29.8740   34.0410 H   0  0  0  0  0  0  0  0  0  0  0  0
   31.3770   31.7470   34.3160 C   0  0  0  0  0  0  0  0  0  0  0  0
   31.6350   32.1350   33.3340 H   0  0  0  0  0  0  0  0  0  0  0  0
   30.5860   32.4880   35.1740 C   0  0  0  0  0  3  0  0  0  0  0  0
   30.2700   31.9800   36.4100 C   0  0  0  0  0  3  0  0  0  0  0  0
   30.0880   29.9070   39.1570 N   0  0  0  0  0  0  0  0  0  0  0  0
   30.3720   30.2710   38.0970 C   0  0  0  0  0  0  0  0  0  0  0  0
  1 16  1  0  0  0  0
  2  7  1  0  0  0  0
  2  1  2  0  0  0  0
  3  2  1  0  0  0  0
  4  3  2  0  0  0  0
  4  5  1  0  0  0  0
  5  6  2  0  0  0  0
  6  1  1  0  0  0  0
  8  3  1  0  0  0  0
  9  4  1  0  0  0  0
 10 19  1  0  0  0  0
 10 11  1  0  0  0  0
 11 20  1  0  0  0  0
 12 21  1  0  0  0  0
 12 11  2  0  0  0  0
 13 12  1  0  0  0  0
 14 13  2  0  0  0  0
 14 15  1  0  0  0  0
 15 10  2  0  0  0  0
 16 18  1  0  0  0  0
 16 17  2  0  0  0  0
 18 14  1  0  0  0  0
 22 18  1  0  0  0  0
 23  5  1  0  0  0  0
 24 23  2  0  0  0  0
 25 24  1  0  0  0  0
 25 26  1  0  0  0  0
 27 25  1  0  0  0  0
 28 37  1  0  0  0  0
 29 25  1  0  0  0  0
 29 28  2  0  0  0  0
 30 29  1  0  0  0  0
 31 30  1  0  0  0  0
 32 30  2  0  0  0  0
 32 34  1  0  0  0  0
 33 32  1  0  0  0  0
 34 35  2  0  0  0  0
 35 28  1  0  0  0  0
 37 36  3  0  0  0  0
M  END
>  <minimizedAffinity>
-5.82938766

$$$$

 OpenBabel03242510583D

 37 39  0  0  0  0  0  0  0  0999 V2000
   37.2040   29.4950   36.8280 C   0  0  0  0  0  0  0  0  0  0  0  0
   37.9800   28.3790   36.4710 C   0  0  0  0  0  0  0  0  0  0  0  0
   37.4640   27.2820   35.8150 C   0  0  0  0  0  0  0  0  0  0  0  0
   36.1320   27.2890   35.5010 C   0  0  0  0  0  0  0  0  0  0  0  0
   35.3530   28.3970   35.8530 C   0  0  0  0  0  0  0  0  0  0  0  0
   35.9260   29.4130   36.4830 N   0  0  0  0  0  0  0  0  0  0  0  0
   39.0310   28.3760   36.7210 H   0  0  0  0  0  0  0  0  0  0  0  0
   38.0980   26.4440   35.5590 H   0  0  0  0  0  0  0  0  0  0  0  0
   35.7440   26.4260   34.9880 H   0  0  0  0  0  0  0  0  0  0  0  0
   41.5290   33.5040   38.0800 C   0  0  0  0  0  0  0  0  0  0  0  0
   40.9520   34.0680   39.2150 C   0  0  0  0  0  0  0  0  0  0  0  0
   39.7430   33.5360   39.6650 C   0  0  0  0  0  0  0  0  0  0  0  0
   39.1860   32.4950   38.9780 N   0  0  0  0  0  0  0  0  0  0  0  0
   39.8020   31.9820   37.8680 C   0  0  0  0  0  0  0  0  0  0  0  0
   40.9810   32.4890   37.4140 N   0  0  0  0  0  0  0  0  0  0  0  0
   37.8190   30.6150   37.5190 C   0  0  0  0  0  0  0  0  0  0  0  0
   37.1370   31.2650   38.3450 O   0  0  0  0  0  0  0  0  0  0  0  0
   39.1760   30.9010   37.2050 N   0  0  0  0  0  0  0  0  0  0  0  0
   42.4810   33.8790   37.6770 H   0  0  0  0  0  0  0  0  0  0  0  0
   41.4690   34.8790   39.6780 H   0  0  0  0  0  0  0  0  0  0  0  0
   39.2850   33.9660   40.5450 H   0  0  0  0  0  0  0  0  0  0  0  0
   39.7430   30.3510   36.5100 H   0  0  0  0  0  0  0  0  0  0  0  0
   33.9410   28.4020   35.5160 C   0  0  0  0  0  3  0  0  0  0  0  0
   33.3190   29.5410   35.2940 C   0  0  0  0  0  3  0  0  0  0  0  0
   31.8700   29.6860   34.9460 C   0  0  0  0  0  0  0  0  0  0  0  0
   31.5030   28.6540   34.7340 H   0  0  0  0  0  0  0  0  0  0  0  0
   31.7880   30.2830   34.0110 H   0  0  0  0  0  0  0  0  0  0  0  0
   30.6330   31.5830   35.7800 C   0  0  0  0  0  0  0  0  0  0  0  0
   31.1550   30.3230   36.0510 C   0  0  0  0  0  0  0  0  0  0  0  0
   30.9700   29.7740   37.3100 C   0  0  0  0  0  0  0  0  0  0  0  0
   31.3890   28.7920   37.4910 H   0  0  0  0  0  0  0  0  0  0  0  0
   30.2620   30.5040   38.2710 C   0  0  0  0  0  0  0  0  0  0  0  0
   30.1230   30.0650   39.2550 H   0  0  0  0  0  0  0  0  0  0  0  0
   29.7490   31.7550   37.9860 C   0  0  0  0  0  3  0  0  0  0  0  0
   29.9350   32.2940   36.7370 C   0  0  0  0  0  3  0  0  0  0  0  0
   30.9190   32.7350   33.4680 N   0  0  0  0  0  0  0  0  0  0  0  0
   30.7880   32.2140   34.4910 C   0  0  0  0  0  0  0  0  0  0  0  0
  1 16  1  0  0  0  0
  2  7  1  0  0  0  0
  2  1  2  0  0  0  0
  3  2  1  0  0  0  0
  4  3  2  0  0  0  0
  4  5  1  0  0  0  0
  5  6  2  0  0  0  0
  6  1  1  0  0  0  0
  8  3  1  0  0  0  0
  9  4  1  0  0  0  0
 10 11  1  0  0  0  0
 11 12  2  0  0  0  0
 11 20  1  0  0  0  0
 12 21  1  0  0  0  0
 13 12  1  0  0  0  0
 14 13  2  0  0  0  0
 15 14  1  0  0  0  0
 15 10  2  0  0  0  0
 16 17  2  0  0  0  0
 18 16  1  0  0  0  0
 18 14  1  0  0  0  0
 19 10  1  0  0  0  0
 22 18  1  0  0  0  0
 23  5  1  0  0  0  0
 24 23  2  0  0  0  0
 25 24  1  0  0  0  0
 25 29  1  0  0  0  0
 26 25  1  0  0  0  0
 27 25  1  0  0  0  0
 28 29  2  0  0  0  0
 28 35  1  0  0  0  0
 29 30  1  0  0  0  0
 30 31  1  0  0  0  0
 30 32  2  0  0  0  0
 32 33  1  0  0  0  0
 34 32  1  0  0  0  0
 35 34  2  0  0  0  0
 36 37  3  0  0  0  0
 37 28  1  0  0  0  0
M  END
>  <minimizedAffinity>
-5.82056952

$$$$
