
 OpenBabel03242518033D

 38 40  0  0  0  0  0  0  0  0999 V2000
   33.5400   28.9400   36.4920 C   0  0  0  0  0  0  0  0  0  0  0  0
   33.6360   28.1280   35.7530 H   0  0  0  0  0  0  0  0  0  0  0  0
   33.9260   29.8510   35.9450 H   0  0  0  0  0  0  0  0  0  0  0  0
   33.8330   29.1410   38.9490 C   0  0  0  0  0  0  0  0  0  0  0  0
   34.3560   28.8100   37.6870 C   0  0  0  0  0  0  0  0  0  0  0  0
   35.6810   28.3610   37.6760 C   0  0  0  0  0  0  0  0  0  0  0  0
   36.3630   28.2740   38.8410 N   0  0  0  0  0  0  0  0  0  0  0  0
   35.8240   28.6000   40.0230 C   0  0  0  0  0  0  0  0  0  0  0  0
   34.5710   29.0280   40.0690 N   0  0  0  0  0  0  0  0  0  0  0  0
   32.8210   29.4980   39.0850 H   0  0  0  0  0  0  0  0  0  0  0  0
   36.0770   28.1100   36.7060 H   0  0  0  0  0  0  0  0  0  0  0  0
   37.2910   29.5920   41.7340 C   0  0  0  0  0  0  0  0  0  0  0  0
   36.6240   28.4780   41.2380 C   0  0  0  0  0  0  0  0  0  0  0  0
   36.7090   27.2450   41.8820 C   0  0  0  0  0  0  0  0  0  0  0  0
   36.1890   26.3790   41.4940 H   0  0  0  0  0  0  0  0  0  0  0  0
   37.4530   27.0810   43.0340 C   0  0  0  0  0  0  0  0  0  0  0  0
   37.5230   26.1310   43.5380 H   0  0  0  0  0  0  0  0  0  0  0  0
   38.0940   28.2150   43.4850 C   0  0  0  0  0  3  0  0  0  0  0  0
   38.0490   29.4560   42.8940 C   0  0  0  0  0  3  0  0  0  0  0  0
   37.1220   31.8690   40.5440 N   0  0  0  0  0  0  0  0  0  0  0  0
   37.2020   30.8490   41.0720 C   0  0  0  0  0  0  0  0  0  0  0  0
   32.1160   29.2080   36.9350 C   0  0  0  0  0  0  0  0  0  0  0  0
   32.0990   29.3240   38.0410 H   0  0  0  0  0  0  0  0  0  0  0  0
   31.4520   28.3080   36.7640 H   0  0  0  0  0  0  0  0  0  0  0  0
   30.3970   30.9590   36.8420 C   0  0  0  0  0  0  0  0  0  0  0  0
   31.4540   30.3100   36.2290 C   0  0  0  0  0  0  0  0  0  0  0  0
   31.9250   30.6390   34.9870 C   0  0  0  0  0  0  0  0  0  0  0  0
   31.3090   31.6760   34.3120 C   0  0  0  0  0  0  0  0  0  0  0  0
   30.2620   32.3770   34.8320 C   0  0  0  0  0  0  0  0  0  0  0  0
   29.8410   31.9810   36.1020 C   0  0  0  0  0  0  0  0  0  0  0  0
   32.7260   30.1860   34.4590 H   0  0  0  0  0  0  0  0  0  0  0  0
   31.6300   31.9930   33.3210 H   0  0  0  0  0  0  0  0  0  0  0  0
   29.7500   33.1900   34.3460 H   0  0  0  0  0  0  0  0  0  0  0  0
   29.0050   32.5290   36.5330 H   0  0  0  0  0  0  0  0  0  0  0  0
   29.7670   30.5730   38.4180 S   0  0  0  0  0  0  0  0  0  0  0  0
   28.9590   29.3020   38.4260 O   0  0  0  0  0  0  0  0  0  0  0  0
   28.7860   31.6520   38.8280 O   0  0  0  0  0  0  0  0  0  0  0  0
   30.7190   30.5810   39.4060 H   0  0  0  0  0  0  0  0  0  0  0  0
  1 22  1  0  0  0  0
  1  5  1  0  0  0  0
  2  1  1  0  0  0  0
  3  1  1  0  0  0  0
  4 10  1  0  0  0  0
  4  9  1  0  0  0  0
  5  4  2  0  0  0  0
  6  5  1  0  0  0  0
  6  7  2  0  0  0  0
  7  8  1  0  0  0  0
  8  9  2  0  0  0  0
  8 13  1  0  0  0  0
 11  6  1  0  0  0  0
 12 19  1  0  0  0  0
 13 12  2  0  0  0  0
 13 14  1  0  0  0  0
 14 16  2  0  0  0  0
 15 14  1  0  0  0  0
 16 18  1  0  0  0  0
 16 17  1  0  0  0  0
 19 18  2  0  0  0  0
 20 21  3  0  0  0  0
 21 12  1  0  0  0  0
 22 23  1  0  0  0  0
 24 22  1  0  0  0  0
 25 35  1  0  0  0  0
 26 25  1  0  0  0  0
 26 22  1  0  0  0  0
 27 26  2  0  0  0  0
 28 29  2  0  0  0  0
 28 27  1  0  0  0  0
 29 30  1  0  0  0  0
 30 34  1  0  0  0  0
 30 25  2  0  0  0  0
 31 27  1  0  0  0  0
 32 28  1  0  0  0  0
 33 29  1  0  0  0  0
 35 36  2  0  0  0  0
 35 37  2  0  0  0  0
 35 38  1  0  0  0  0
M  END
>  <minimizedAffinity>
-6.12742186

$$$$

 OpenBabel03242518033D

 38 40  0  0  0  0  0  0  0  0999 V2000
   33.5680   29.0460   36.4180 C   0  0  0  0  0  0  0  0  0  0  0  0
   33.6260   28.2520   35.6560 H   0  0  0  0  0  0  0  0  0  0  0  0
   33.9260   29.9700   35.8740 H   0  0  0  0  0  0  0  0  0  0  0  0
   33.9350   29.0030   38.8730 C   0  0  0  0  0  0  0  0  0  0  0  0
   34.4420   28.8880   37.5680 C   0  0  0  0  0  0  0  0  0  0  0  0
   35.8120   28.6190   37.4680 C   0  0  0  0  0  0  0  0  0  0  0  0
   36.5470   28.4890   38.5950 N   0  0  0  0  0  0  0  0  0  0  0  0
   36.0220   28.6070   39.8210 C   0  0  0  0  0  0  0  0  0  0  0  0
   34.7270   28.8610   39.9520 N   0  0  0  0  0  0  0  0  0  0  0  0
   32.8930   29.2090   39.0770 H   0  0  0  0  0  0  0  0  0  0  0  0
   36.1950   28.5320   36.4650 H   0  0  0  0  0  0  0  0  0  0  0  0
   37.2770   27.1800   41.3880 C   0  0  0  0  0  0  0  0  0  0  0  0
   36.8810   28.4520   40.9920 C   0  0  0  0  0  0  0  0  0  0  0  0
   37.2920   29.5830   41.6950 C   0  0  0  0  0  0  0  0  0  0  0  0
   36.9820   30.5730   41.3840 H   0  0  0  0  0  0  0  0  0  0  0  0
   38.1040   29.4870   42.8080 C   0  0  0  0  0  0  0  0  0  0  0  0
   38.4250   30.3570   43.3560 H   0  0  0  0  0  0  0  0  0  0  0  0
   38.4690   28.2040   43.1590 C   0  0  0  0  0  3  0  0  0  0  0  0
   38.0960   27.0530   42.5060 C   0  0  0  0  0  3  0  0  0  0  0  0
   36.5210   25.0900   40.0870 N   0  0  0  0  0  0  0  0  0  0  0  0
   36.8550   26.0280   40.6660 C   0  0  0  0  0  0  0  0  0  0  0  0
   32.1680   29.3010   36.9390 C   0  0  0  0  0  0  0  0  0  0  0  0
   32.2190   29.4840   38.0350 H   0  0  0  0  0  0  0  0  0  0  0  0
   31.5220   28.3750   36.8660 H   0  0  0  0  0  0  0  0  0  0  0  0
   30.3210   30.9150   36.8140 C   0  0  0  0  0  0  0  0  0  0  0  0
   31.4270   30.3400   36.2140 C   0  0  0  0  0  0  0  0  0  0  0  0
   31.8780   30.6880   34.9700 C   0  0  0  0  0  0  0  0  0  0  0  0
   31.1890   31.6660   34.2790 C   0  0  0  0  0  0  0  0  0  0  0  0
   30.0890   32.2910   34.7840 C   0  0  0  0  0  0  0  0  0  0  0  0
   29.6920   31.8810   36.0580 C   0  0  0  0  0  0  0  0  0  0  0  0
   32.7140   30.2900   34.4520 H   0  0  0  0  0  0  0  0  0  0  0  0
   31.4900   31.9920   33.2840 H   0  0  0  0  0  0  0  0  0  0  0  0
   29.5190   33.0570   34.2840 H   0  0  0  0  0  0  0  0  0  0  0  0
   28.8140   32.3690   36.4770 H   0  0  0  0  0  0  0  0  0  0  0  0
   29.7140   30.5030   38.3930 S   0  0  0  0  0  0  0  0  0  0  0  0
   28.9440   29.2090   38.4000 O   0  0  0  0  0  0  0  0  0  0  0  0
   28.7040   31.5510   38.8150 O   0  0  0  0  0  0  0  0  0  0  0  0
   30.6720   30.5350   39.3740 H   0  0  0  0  0  0  0  0  0  0  0  0
  1 22  1  0  0  0  0
  1  5  1  0  0  0  0
  2  1  1  0  0  0  0
  3  1  1  0  0  0  0
  4 10  1  0  0  0  0
  4  9  1  0  0  0  0
  5  4  2  0  0  0  0
  6  5  1  0  0  0  0
  6  7  2  0  0  0  0
  7  8  1  0  0  0  0
  8  9  2  0  0  0  0
  8 13  1  0  0  0  0
 11  6  1  0  0  0  0
 12 19  1  0  0  0  0
 13 12  2  0  0  0  0
 13 14  1  0  0  0  0
 14 16  2  0  0  0  0
 15 14  1  0  0  0  0
 16 18  1  0  0  0  0
 16 17  1  0  0  0  0
 19 18  2  0  0  0  0
 20 21  3  0  0  0  0
 21 12  1  0  0  0  0
 22 23  1  0  0  0  0
 24 22  1  0  0  0  0
 25 35  1  0  0  0  0
 26 25  1  0  0  0  0
 26 22  1  0  0  0  0
 27 26  2  0  0  0  0
 28 29  2  0  0  0  0
 28 27  1  0  0  0  0
 29 30  1  0  0  0  0
 30 34  1  0  0  0  0
 30 25  2  0  0  0  0
 31 27  1  0  0  0  0
 32 28  1  0  0  0  0
 33 29  1  0  0  0  0
 35 36  2  0  0  0  0
 35 37  2  0  0  0  0
 35 38  1  0  0  0  0
M  END
>  <minimizedAffinity>
-5.65188885

$$$$

 OpenBabel03242518033D

 38 40  0  0  0  0  0  0  0  0999 V2000
   37.4690   29.1420   42.6470 C   0  0  0  0  0  0  0  0  0  0  0  0
   36.6970   28.6340   42.0460 H   0  0  0  0  0  0  0  0  0  0  0  0
   36.8790   29.8480   43.3050 H   0  0  0  0  0  0  0  0  0  0  0  0
   39.4770   30.5990   42.5650 C   0  0  0  0  0  0  0  0  0  0  0  0
   38.4080   29.9670   41.9070 C   0  0  0  0  0  0  0  0  0  0  0  0
   38.3240   30.1900   40.5280 C   0  0  0  0  0  0  0  0  0  0  0  0
   39.2450   30.9760   39.9250 N   0  0  0  0  0  0  0  0  0  0  0  0
   40.2490   31.5590   40.5910 C   0  0  0  0  0  0  0  0  0  0  0  0
   40.3590   31.3680   41.8990 N   0  0  0  0  0  0  0  0  0  0  0  0
   39.6460   30.5000   43.6290 H   0  0  0  0  0  0  0  0  0  0  0  0
   37.5020   29.7040   40.0300 H   0  0  0  0  0  0  0  0  0  0  0  0
   40.8940   33.7220   39.6060 C   0  0  0  0  0  0  0  0  0  0  0  0
   41.2060   32.3930   39.8690 C   0  0  0  0  0  0  0  0  0  0  0  0
   42.4170   31.8440   39.4540 C   0  0  0  0  0  0  0  0  0  0  0  0
   42.6570   30.8080   39.6590 H   0  0  0  0  0  0  0  0  0  0  0  0
   43.3520   32.5930   38.7670 C   0  0  0  0  0  0  0  0  0  0  0  0
   44.2910   32.1750   38.4430 H   0  0  0  0  0  0  0  0  0  0  0  0
   42.9960   33.9040   38.5320 C   0  0  0  0  0  3  0  0  0  0  0  0
   41.8190   34.5010   38.9170 C   0  0  0  0  0  3  0  0  0  0  0  0
   38.6480   34.7210   40.3740 N   0  0  0  0  0  0  0  0  0  0  0  0
   39.6560   34.2780   40.0340 C   0  0  0  0  0  0  0  0  0  0  0  0
   38.2730   28.2130   43.5330 C   0  0  0  0  0  0  0  0  0  0  0  0
   37.9150   28.3130   44.5800 H   0  0  0  0  0  0  0  0  0  0  0  0
   39.3540   28.5390   43.6020 H   0  0  0  0  0  0  0  0  0  0  0  0
   39.5040   26.1120   43.2110 C   0  0  0  0  0  0  0  0  0  0  0  0
   38.3240   26.8210   43.0710 C   0  0  0  0  0  0  0  0  0  0  0  0
   37.1870   26.2940   42.5230 C   0  0  0  0  0  0  0  0  0  0  0  0
   37.2220   24.9840   42.0850 C   0  0  0  0  0  0  0  0  0  0  0  0
   38.3350   24.2040   42.1790 C   0  0  0  0  0  0  0  0  0  0  0  0
   39.4540   24.8130   42.7500 C   0  0  0  0  0  0  0  0  0  0  0  0
   36.2520   26.7780   42.3850 H   0  0  0  0  0  0  0  0  0  0  0  0
   36.3550   24.4990   41.6380 H   0  0  0  0  0  0  0  0  0  0  0  0
   38.4120   23.1800   41.8530 H   0  0  0  0  0  0  0  0  0  0  0  0
   40.3530   24.2050   42.8330 H   0  0  0  0  0  0  0  0  0  0  0  0
   40.9720   26.7430   43.9020 S   0  0  0  0  0  0  0  0  0  0  0  0
   41.6190   27.7900   43.0350 O   0  0  0  0  0  0  0  0  0  0  0  0
   41.9930   25.6260   43.9780 O   0  0  0  0  0  0  0  0  0  0  0  0
   40.8300   27.1650   45.1980 H   0  0  0  0  0  0  0  0  0  0  0  0
  1  3  1  0  0  0  0
  1 22  1  0  0  0  0
  2  1  1  0  0  0  0
  4 10  1  0  0  0  0
  5  4  1  0  0  0  0
  5  1  1  0  0  0  0
  6  5  2  0  0  0  0
  7  6  1  0  0  0  0
  7  8  2  0  0  0  0
  8  9  1  0  0  0  0
  9  4  2  0  0  0  0
 11  6  1  0  0  0  0
 12 13  1  0  0  0  0
 12 21  1  0  0  0  0
 13  8  1  0  0  0  0
 14 15  1  0  0  0  0
 14 13  2  0  0  0  0
 16 14  1  0  0  0  0
 17 16  1  0  0  0  0
 18 16  2  0  0  0  0
 18 19  1  0  0  0  0
 19 12  2  0  0  0  0
 21 20  3  0  0  0  0
 22 24  1  0  0  0  0
 22 23  1  0  0  0  0
 25 35  1  0  0  0  0
 26 25  1  0  0  0  0
 26 22  1  0  0  0  0
 27 26  2  0  0  0  0
 28 29  2  0  0  0  0
 28 27  1  0  0  0  0
 29 30  1  0  0  0  0
 30 34  1  0  0  0  0
 30 25  2  0  0  0  0
 31 27  1  0  0  0  0
 32 28  1  0  0  0  0
 33 29  1  0  0  0  0
 35 37  2  0  0  0  0
 35 38  1  0  0  0  0
 36 35  2  0  0  0  0
M  END
>  <minimizedAffinity>
-5.58999157

$$$$

 OpenBabel03242518033D

 38 40  0  0  0  0  0  0  0  0999 V2000
   36.5650   31.3140   39.4080 C   0  0  0  0  0  0  0  0  0  0  0  0
   36.1260   32.0970   40.0480 H   0  0  0  0  0  0  0  0  0  0  0  0
   35.6960   30.9640   38.7750 H   0  0  0  0  0  0  0  0  0  0  0  0
   38.0710   29.3440   39.5190 C   0  0  0  0  0  0  0  0  0  0  0  0
   37.0650   30.1370   40.0970 C   0  0  0  0  0  0  0  0  0  0  0  0
   36.5980   29.7140   41.3460 C   0  0  0  0  0  0  0  0  0  0  0  0
   37.1240   28.6030   41.9100 N   0  0  0  0  0  0  0  0  0  0  0  0
   38.0830   27.8760   41.3240 C   0  0  0  0  0  0  0  0  0  0  0  0
   38.5480   28.2490   40.1390 N   0  0  0  0  0  0  0  0  0  0  0  0
   38.5100   29.5700   38.5570 H   0  0  0  0  0  0  0  0  0  0  0  0
   35.8270   30.3260   41.7840 H   0  0  0  0  0  0  0  0  0  0  0  0
   38.1400   25.4320   41.6200 C   0  0  0  0  0  0  0  0  0  0  0  0
   38.6010   26.6880   41.9960 C   0  0  0  0  0  0  0  0  0  0  0  0
   39.5500   26.8320   43.0070 C   0  0  0  0  0  0  0  0  0  0  0  0
   39.9060   27.8110   43.2980 H   0  0  0  0  0  0  0  0  0  0  0  0
   40.0680   25.7380   43.6720 C   0  0  0  0  0  0  0  0  0  0  0  0
   40.8020   25.8410   44.4540 H   0  0  0  0  0  0  0  0  0  0  0  0
   39.5800   24.5150   43.2620 C   0  0  0  0  0  3  0  0  0  0  0  0
   38.6460   24.3120   42.2730 C   0  0  0  0  0  3  0  0  0  0  0  0
   36.3870   25.1670   39.7530 N   0  0  0  0  0  0  0  0  0  0  0  0
   37.1710   25.2910   40.5870 C   0  0  0  0  0  0  0  0  0  0  0  0
   37.6640   31.8100   38.4900 C   0  0  0  0  0  0  0  0  0  0  0  0
   37.2090   32.1490   37.5340 H   0  0  0  0  0  0  0  0  0  0  0  0
   38.3430   30.9670   38.1630 H   0  0  0  0  0  0  0  0  0  0  0  0
   39.9050   32.7730   38.7800 C   0  0  0  0  0  0  0  0  0  0  0  0
   38.5570   32.8080   39.0910 C   0  0  0  0  0  0  0  0  0  0  0  0
   38.0000   33.7290   39.9350 C   0  0  0  0  0  0  0  0  0  0  0  0
   38.8310   34.6740   40.5060 C   0  0  0  0  0  0  0  0  0  0  0  0
   40.1710   34.7230   40.2620 C   0  0  0  0  0  0  0  0  0  0  0  0
   40.6630   33.7490   39.3910 C   0  0  0  0  0  0  0  0  0  0  0  0
   36.9800   33.8130   40.2170 H   0  0  0  0  0  0  0  0  0  0  0  0
   38.4580   35.4380   41.1870 H   0  0  0  0  0  0  0  0  0  0  0  0
   40.8580   35.4380   40.6820 H   0  0  0  0  0  0  0  0  0  0  0  0
   41.7310   33.7720   39.1850 H   0  0  0  0  0  0  0  0  0  0  0  0
   40.6540   31.6190   37.7130 S   0  0  0  0  0  0  0  0  0  0  0  0
   41.2780   30.4650   38.4520 O   0  0  0  0  0  0  0  0  0  0  0  0
   41.8120   32.2920   37.0050 O   0  0  0  0  0  0  0  0  0  0  0  0
   39.8320   31.1960   36.7000 H   0  0  0  0  0  0  0  0  0  0  0  0
  1  2  1  0  0  0  0
  1  5  1  0  0  0  0
  3  1  1  0  0  0  0
  4  5  2  0  0  0  0
  4  9  1  0  0  0  0
  5  6  1  0  0  0  0
  6 11  1  0  0  0  0
  6  7  2  0  0  0  0
  8  7  1  0  0  0  0
  8 13  1  0  0  0  0
  9  8  2  0  0  0  0
 10  4  1  0  0  0  0
 12 13  2  0  0  0  0
 12 19  1  0  0  0  0
 13 14  1  0  0  0  0
 14 15  1  0  0  0  0
 14 16  2  0  0  0  0
 16 17  1  0  0  0  0
 18 16  1  0  0  0  0
 19 18  2  0  0  0  0
 20 21  3  0  0  0  0
 21 12  1  0  0  0  0
 22 26  1  0  0  0  0
 22  1  1  0  0  0  0
 23 22  1  0  0  0  0
 24 22  1  0  0  0  0
 25 26  2  0  0  0  0
 25 30  1  0  0  0  0
 26 27  1  0  0  0  0
 27 31  1  0  0  0  0
 27 28  2  0  0  0  0
 28 32  1  0  0  0  0
 29 28  1  0  0  0  0
 29 33  1  0  0  0  0
 30 29  2  0  0  0  0
 34 30  1  0  0  0  0
 35 36  2  0  0  0  0
 35 25  1  0  0  0  0
 37 35  2  0  0  0  0
 38 35  1  0  0  0  0
M  END
>  <minimizedAffinity>
-5.55940771

$$$$

 OpenBabel03242518033D

 38 40  0  0  0  0  0  0  0  0999 V2000
   37.0390   28.2790   38.2830 C   0  0  0  0  0  0  0  0  0  0  0  0
   37.4300   27.3080   37.9380 H   0  0  0  0  0  0  0  0  0  0  0  0
   36.2540   28.5440   37.5130 H   0  0  0  0  0  0  0  0  0  0  0  0
   37.6770   30.5950   37.6560 C   0  0  0  0  0  0  0  0  0  0  0  0
   37.9870   29.3790   38.2900 C   0  0  0  0  0  0  0  0  0  0  0  0
   39.2420   29.3170   38.9060 C   0  0  0  0  0  0  0  0  0  0  0  0
   40.0590   30.3930   38.8600 N   0  0  0  0  0  0  0  0  0  0  0  0
   39.7230   31.5330   38.2440 C   0  0  0  0  0  0  0  0  0  0  0  0
   38.5410   31.6270   37.6500 N   0  0  0  0  0  0  0  0  0  0  0  0
   36.7370   30.7630   37.1470 H   0  0  0  0  0  0  0  0  0  0  0  0
   39.4740   28.3820   39.3890 H   0  0  0  0  0  0  0  0  0  0  0  0
   40.5380   33.6530   39.1950 C   0  0  0  0  0  0  0  0  0  0  0  0
   40.6600   32.6530   38.2380 C   0  0  0  0  0  0  0  0  0  0  0  0
   41.6620   32.7030   37.2710 C   0  0  0  0  0  0  0  0  0  0  0  0
   41.7540   31.9230   36.5260 H   0  0  0  0  0  0  0  0  0  0  0  0
   42.5700   33.7420   37.2250 C   0  0  0  0  0  0  0  0  0  0  0  0
   43.3480   33.7870   36.4810 H   0  0  0  0  0  0  0  0  0  0  0  0
   42.4080   34.7080   38.1960 C   0  0  0  0  0  3  0  0  0  0  0  0
   41.4410   34.7130   39.1730 C   0  0  0  0  0  3  0  0  0  0  0  0
   38.6880   33.5600   40.9840 N   0  0  0  0  0  0  0  0  0  0  0  0
   39.5130   33.5980   40.1810 C   0  0  0  0  0  0  0  0  0  0  0  0
   36.3820   28.2310   39.6470 C   0  0  0  0  0  0  0  0  0  0  0  0
   35.2930   28.4230   39.5300 H   0  0  0  0  0  0  0  0  0  0  0  0
   36.7220   29.0890   40.3020 H   0  0  0  0  0  0  0  0  0  0  0  0
   37.1020   27.1510   41.7320 C   0  0  0  0  0  0  0  0  0  0  0  0
   36.6740   27.0200   40.4230 C   0  0  0  0  0  0  0  0  0  0  0  0
   36.5030   25.8140   39.8010 C   0  0  0  0  0  0  0  0  0  0  0  0
   36.7750   24.6670   40.5230 C   0  0  0  0  0  0  0  0  0  0  0  0
   37.2000   24.6910   41.8170 C   0  0  0  0  0  0  0  0  0  0  0  0
   37.3490   25.9600   42.3800 C   0  0  0  0  0  0  0  0  0  0  0  0
   36.1810   25.6400   38.8050 H   0  0  0  0  0  0  0  0  0  0  0  0
   36.6620   23.6720   40.0920 H   0  0  0  0  0  0  0  0  0  0  0  0
   37.4240   23.8270   42.4190 H   0  0  0  0  0  0  0  0  0  0  0  0
   37.6890   25.9990   43.4130 H   0  0  0  0  0  0  0  0  0  0  0  0
   37.3310   28.6650   42.5610 S   0  0  0  0  0  0  0  0  0  0  0  0
   38.7120   29.2330   42.3620 O   0  0  0  0  0  0  0  0  0  0  0  0
   37.2280   28.4240   44.0530 O   0  0  0  0  0  0  0  0  0  0  0  0
   36.3530   29.5890   42.2950 H   0  0  0  0  0  0  0  0  0  0  0  0
  1  5  1  0  0  0  0
  1 22  1  0  0  0  0
  2  1  1  0  0  0  0
  3  1  1  0  0  0  0
  4  5  1  0  0  0  0
  5  6  2  0  0  0  0
  6 11  1  0  0  0  0
  7  6  1  0  0  0  0
  8  7  2  0  0  0  0
  9  4  2  0  0  0  0
  9  8  1  0  0  0  0
 10  4  1  0  0  0  0
 12 21  1  0  0  0  0
 13  8  1  0  0  0  0
 13 12  2  0  0  0  0
 14 13  1  0  0  0  0
 15 14  1  0  0  0  0
 16 14  2  0  0  0  0
 16 18  1  0  0  0  0
 17 16  1  0  0  0  0
 18 19  2  0  0  0  0
 19 12  1  0  0  0  0
 21 20  3  0  0  0  0
 22 24  1  0  0  0  0
 22 26  1  0  0  0  0
 23 22  1  0  0  0  0
 25 30  1  0  0  0  0
 25 35  1  0  0  0  0
 26 25  2  0  0  0  0
 27 26  1  0  0  0  0
 27 28  2  0  0  0  0
 28 29  1  0  0  0  0
 29 30  2  0  0  0  0
 29 33  1  0  0  0  0
 30 34  1  0  0  0  0
 31 27  1  0  0  0  0
 32 28  1  0  0  0  0
 35 37  2  0  0  0  0
 36 35  2  0  0  0  0
 38 35  1  0  0  0  0
M  END
>  <minimizedAffinity>
-5.48893547

$$$$

 OpenBabel03242518033D

 38 40  0  0  0  0  0  0  0  0999 V2000
   36.4200   27.8760   42.5570 C   0  0  0  0  0  0  0  0  0  0  0  0
   35.7870   27.3520   41.8220 H   0  0  0  0  0  0  0  0  0  0  0  0
   35.6800   28.2940   43.3030 H   0  0  0  0  0  0  0  0  0  0  0  0
   36.8010   29.6370   40.8490 C   0  0  0  0  0  0  0  0  0  0  0  0
   37.1720   29.0120   42.0510 C   0  0  0  0  0  0  0  0  0  0  0  0
   38.2880   29.5530   42.7000 C   0  0  0  0  0  0  0  0  0  0  0  0
   38.9260   30.6120   42.1520 N   0  0  0  0  0  0  0  0  0  0  0  0
   38.5370   31.1780   41.0030 C   0  0  0  0  0  0  0  0  0  0  0  0
   37.4830   30.6900   40.3620 N   0  0  0  0  0  0  0  0  0  0  0  0
   35.9560   29.3090   40.2580 H   0  0  0  0  0  0  0  0  0  0  0  0
   38.5680   29.0700   43.6210 H   0  0  0  0  0  0  0  0  0  0  0  0
   40.4190   32.1040   39.7120 C   0  0  0  0  0  0  0  0  0  0  0  0
   39.2770   32.3200   40.4740 C   0  0  0  0  0  0  0  0  0  0  0  0
   38.8280   33.6120   40.7420 C   0  0  0  0  0  0  0  0  0  0  0  0
   37.9380   33.7780   41.3370 H   0  0  0  0  0  0  0  0  0  0  0  0
   39.4950   34.7220   40.2650 C   0  0  0  0  0  0  0  0  0  0  0  0
   39.1530   35.7240   40.4680 H   0  0  0  0  0  0  0  0  0  0  0  0
   40.6200   34.4550   39.5150 C   0  0  0  0  0  3  0  0  0  0  0  0
   41.1110   33.2050   39.2180 C   0  0  0  0  0  3  0  0  0  0  0  0
   41.2340   29.7100   39.2270 N   0  0  0  0  0  0  0  0  0  0  0  0
   40.8740   30.7820   39.4410 C   0  0  0  0  0  0  0  0  0  0  0  0
   37.3910   26.9740   43.2920 C   0  0  0  0  0  0  0  0  0  0  0  0
   36.9620   26.7160   44.2840 H   0  0  0  0  0  0  0  0  0  0  0  0
   38.3440   27.5210   43.5610 H   0  0  0  0  0  0  0  0  0  0  0  0
   39.1840   25.5440   42.4130 C   0  0  0  0  0  0  0  0  0  0  0  0
   37.8290   25.7990   42.5290 C   0  0  0  0  0  0  0  0  0  0  0  0
   36.8610   25.0110   41.9700 C   0  0  0  0  0  0  0  0  0  0  0  0
   37.2610   23.9010   41.2510 C   0  0  0  0  0  0  0  0  0  0  0  0
   38.5710   23.5650   41.0800 C   0  0  0  0  0  0  0  0  0  0  0  0
   39.4970   24.4190   41.6810 C   0  0  0  0  0  0  0  0  0  0  0  0
   35.8090   25.1470   42.0180 H   0  0  0  0  0  0  0  0  0  0  0  0
   36.5470   23.2290   40.7780 H   0  0  0  0  0  0  0  0  0  0  0  0
   38.9320   22.7130   40.5290 H   0  0  0  0  0  0  0  0  0  0  0  0
   40.5480   24.1660   41.5540 H   0  0  0  0  0  0  0  0  0  0  0  0
   40.4470   26.5200   43.1070 S   0  0  0  0  0  0  0  0  0  0  0  0
   41.0870   27.4420   42.1040 O   0  0  0  0  0  0  0  0  0  0  0  0
   41.5710   25.6100   43.5610 O   0  0  0  0  0  0  0  0  0  0  0  0
   40.0640   27.1840   44.2440 H   0  0  0  0  0  0  0  0  0  0  0  0
  1 22  1  0  0  0  0
  1  3  1  0  0  0  0
  2  1  1  0  0  0  0
  4  5  1  0  0  0  0
  5  1  1  0  0  0  0
  5  6  2  0  0  0  0
  6 11  1  0  0  0  0
  7  6  1  0  0  0  0
  8  7  2  0  0  0  0
  9  4  2  0  0  0  0
  9  8  1  0  0  0  0
 10  4  1  0  0  0  0
 12 13  1  0  0  0  0
 13 14  2  0  0  0  0
 13  8  1  0  0  0  0
 14 15  1  0  0  0  0
 16 17  1  0  0  0  0
 16 14  1  0  0  0  0
 18 16  2  0  0  0  0
 19 18  1  0  0  0  0
 19 12  2  0  0  0  0
 20 21  3  0  0  0  0
 21 12  1  0  0  0  0
 22 24  1  0  0  0  0
 22 23  1  0  0  0  0
 25 26  1  0  0  0  0
 25 35  1  0  0  0  0
 26 22  1  0  0  0  0
 27 31  1  0  0  0  0
 27 26  2  0  0  0  0
 28 27  1  0  0  0  0
 29 28  2  0  0  0  0
 29 30  1  0  0  0  0
 30 25  2  0  0  0  0
 32 28  1  0  0  0  0
 33 29  1  0  0  0  0
 34 30  1  0  0  0  0
 35 37  2  0  0  0  0
 35 38  1  0  0  0  0
 36 35  2  0  0  0  0
M  END
>  <minimizedAffinity>
-5.41850042

$$$$

 OpenBabel03242518033D

 38 40  0  0  0  0  0  0  0  0999 V2000
   35.0650   25.8610   37.6190 C   0  0  0  0  0  0  0  0  0  0  0  0
   35.3430   25.1040   36.8680 H   0  0  0  0  0  0  0  0  0  0  0  0
   34.4550   25.2810   38.3740 H   0  0  0  0  0  0  0  0  0  0  0  0
   34.5270   28.2780   37.4330 C   0  0  0  0  0  0  0  0  0  0  0  0
   34.2110   26.9380   37.1490 C   0  0  0  0  0  0  0  0  0  0  0  0
   33.0450   26.7330   36.4020 C   0  0  0  0  0  0  0  0  0  0  0  0
   32.3120   27.7980   36.0090 N   0  0  0  0  0  0  0  0  0  0  0  0
   32.6510   29.0600   36.3020 C   0  0  0  0  0  0  0  0  0  0  0  0
   33.7490   29.2900   37.0080 N   0  0  0  0  0  0  0  0  0  0  0  0
   35.4020   28.5610   38.0020 H   0  0  0  0  0  0  0  0  0  0  0  0
   32.8080   25.7040   36.1880 H   0  0  0  0  0  0  0  0  0  0  0  0
   30.8490   30.6930   36.6940 C   0  0  0  0  0  0  0  0  0  0  0  0
   31.8070   30.1590   35.8410 C   0  0  0  0  0  0  0  0  0  0  0  0
   31.9760   30.6570   34.5500 C   0  0  0  0  0  0  0  0  0  0  0  0
   32.7230   30.2400   33.8870 H   0  0  0  0  0  0  0  0  0  0  0  0
   31.2020   31.6950   34.0700 C   0  0  0  0  0  0  0  0  0  0  0  0
   31.3260   32.0850   33.0730 H   0  0  0  0  0  0  0  0  0  0  0  0
   30.2670   32.1890   34.9540 C   0  0  0  0  0  3  0  0  0  0  0  0
   30.0550   31.7400   36.2360 C   0  0  0  0  0  3  0  0  0  0  0  0
   30.5490   29.7750   39.0810 N   0  0  0  0  0  0  0  0  0  0  0  0
   30.6810   30.1800   38.0120 C   0  0  0  0  0  0  0  0  0  0  0  0
   36.2460   26.4900   38.3300 C   0  0  0  0  0  0  0  0  0  0  0  0
   36.1080   27.5930   38.3510 H   0  0  0  0  0  0  0  0  0  0  0  0
   37.2020   26.3650   37.7380 H   0  0  0  0  0  0  0  0  0  0  0  0
   36.8060   26.7750   40.7050 C   0  0  0  0  0  0  0  0  0  0  0  0
   36.5380   25.9200   39.6500 C   0  0  0  0  0  0  0  0  0  0  0  0
   36.5290   24.5570   39.7670 C   0  0  0  0  0  0  0  0  0  0  0  0
   36.8020   24.0090   41.0060 C   0  0  0  0  0  0  0  0  0  0  0  0
   37.0760   24.7660   42.1040 C   0  0  0  0  0  0  0  0  0  0  0  0
   37.0660   26.1480   41.9040 C   0  0  0  0  0  0  0  0  0  0  0  0
   36.3340   23.8450   39.0050 H   0  0  0  0  0  0  0  0  0  0  0  0
   36.8120   22.9320   41.1730 H   0  0  0  0  0  0  0  0  0  0  0  0
   37.2950   24.3860   43.0890 H   0  0  0  0  0  0  0  0  0  0  0  0
   37.2850   26.7690   42.7710 H   0  0  0  0  0  0  0  0  0  0  0  0
   36.8280   28.5130   40.6000 S   0  0  0  0  0  0  0  0  0  0  0  0
   37.5940   29.1530   41.7270 O   0  0  0  0  0  0  0  0  0  0  0  0
   35.4110   29.0280   40.7590 O   0  0  0  0  0  0  0  0  0  0  0  0
   37.2280   28.9830   39.3750 H   0  0  0  0  0  0  0  0  0  0  0  0
  1 22  1  0  0  0  0
  1  3  1  0  0  0  0
  2  1  1  0  0  0  0
  4 10  1  0  0  0  0
  5  4  1  0  0  0  0
  5  1  1  0  0  0  0
  6  5  2  0  0  0  0
  7  8  2  0  0  0  0
  7  6  1  0  0  0  0
  8  9  1  0  0  0  0
  9  4  2  0  0  0  0
 11  6  1  0  0  0  0
 12 21  1  0  0  0  0
 13  8  1  0  0  0  0
 13 12  2  0  0  0  0
 14 13  1  0  0  0  0
 15 14  1  0  0  0  0
 16 14  2  0  0  0  0
 16 18  1  0  0  0  0
 17 16  1  0  0  0  0
 18 19  2  0  0  0  0
 19 12  1  0  0  0  0
 21 20  3  0  0  0  0
 22 23  1  0  0  0  0
 22 26  1  0  0  0  0
 24 22  1  0  0  0  0
 25 30  1  0  0  0  0
 26 27  1  0  0  0  0
 26 25  2  0  0  0  0
 27 28  2  0  0  0  0
 28 32  1  0  0  0  0
 28 29  1  0  0  0  0
 29 33  1  0  0  0  0
 30 29  2  0  0  0  0
 30 34  1  0  0  0  0
 31 27  1  0  0  0  0
 35 25  1  0  0  0  0
 35 37  2  0  0  0  0
 35 36  2  0  0  0  0
 38 35  1  0  0  0  0
M  END
>  <minimizedAffinity>
-5.41359186

$$$$

 OpenBabel03242518033D

 38 40  0  0  0  0  0  0  0  0999 V2000
   38.9720   27.1950   43.1080 C   0  0  0  0  0  0  0  0  0  0  0  0
   39.2730   27.0140   44.1520 H   0  0  0  0  0  0  0  0  0  0  0  0
   39.5220   26.3970   42.5250 H   0  0  0  0  0  0  0  0  0  0  0  0
   38.9700   29.6780   43.1240 C   0  0  0  0  0  0  0  0  0  0  0  0
   39.3840   28.4670   42.5410 C   0  0  0  0  0  0  0  0  0  0  0  0
   40.1950   28.5840   41.4060 C   0  0  0  0  0  0  0  0  0  0  0  0
   40.5260   29.8130   40.9500 N   0  0  0  0  0  0  0  0  0  0  0  0
   40.1090   30.9420   41.5370 C   0  0  0  0  0  0  0  0  0  0  0  0
   39.3390   30.8670   42.6140 N   0  0  0  0  0  0  0  0  0  0  0  0
   38.3410   29.7150   44.0030 H   0  0  0  0  0  0  0  0  0  0  0  0
   40.5080   27.6540   40.9640 H   0  0  0  0  0  0  0  0  0  0  0  0
   39.5750   33.0070   40.3060 C   0  0  0  0  0  0  0  0  0  0  0  0
   40.5090   32.2330   40.9850 C   0  0  0  0  0  0  0  0  0  0  0  0
   41.8220   32.6700   41.1460 C   0  0  0  0  0  0  0  0  0  0  0  0
   42.5480   32.0660   41.6750 H   0  0  0  0  0  0  0  0  0  0  0  0
   42.2460   33.8830   40.6410 C   0  0  0  0  0  0  0  0  0  0  0  0
   43.2600   34.2280   40.7620 H   0  0  0  0  0  0  0  0  0  0  0  0
   41.2830   34.6130   39.9780 C   0  0  0  0  0  3  0  0  0  0  0  0
   39.9750   34.2340   39.7870 C   0  0  0  0  0  3  0  0  0  0  0  0
   37.1490   32.1890   40.0240 N   0  0  0  0  0  0  0  0  0  0  0  0
   38.2340   32.5560   40.1450 C   0  0  0  0  0  0  0  0  0  0  0  0
   37.4860   27.0400   42.8570 C   0  0  0  0  0  0  0  0  0  0  0  0
   37.0340   28.0490   42.7350 H   0  0  0  0  0  0  0  0  0  0  0  0
   36.9520   26.6310   43.7670 H   0  0  0  0  0  0  0  0  0  0  0  0
   36.7290   26.6400   40.5550 C   0  0  0  0  0  0  0  0  0  0  0  0
   37.1430   26.1180   41.7680 C   0  0  0  0  0  0  0  0  0  0  0  0
   37.2550   24.7780   42.0150 C   0  0  0  0  0  0  0  0  0  0  0  0
   36.9350   23.9000   40.9970 C   0  0  0  0  0  0  0  0  0  0  0  0
   36.5180   24.3150   39.7680 C   0  0  0  0  0  0  0  0  0  0  0  0
   36.4300   25.6980   39.5950 C   0  0  0  0  0  0  0  0  0  0  0  0
   37.5630   24.3100   42.9170 H   0  0  0  0  0  0  0  0  0  0  0  0
   37.0000   22.8200   41.1220 H   0  0  0  0  0  0  0  0  0  0  0  0
   36.2580   23.6710   38.9440 H   0  0  0  0  0  0  0  0  0  0  0  0
   36.0980   26.0470   38.6190 H   0  0  0  0  0  0  0  0  0  0  0  0
   36.5730   28.3370   40.1990 S   0  0  0  0  0  0  0  0  0  0  0  0
   35.2830   28.9220   40.7110 O   0  0  0  0  0  0  0  0  0  0  0  0
   36.5030   28.5140   38.6960 O   0  0  0  0  0  0  0  0  0  0  0  0
   37.6610   29.0790   40.5820 H   0  0  0  0  0  0  0  0  0  0  0  0
  1  2  1  0  0  0  0
  3  1  1  0  0  0  0
  4 10  1  0  0  0  0
  5  1  1  0  0  0  0
  5  4  2  0  0  0  0
  6  5  1  0  0  0  0
  7  6  2  0  0  0  0
  7  8  1  0  0  0  0
  8  9  2  0  0  0  0
  9  4  1  0  0  0  0
 11  6  1  0  0  0  0
 12 13  1  0  0  0  0
 13 14  2  0  0  0  0
 13  8  1  0  0  0  0
 14 15  1  0  0  0  0
 16 17  1  0  0  0  0
 16 14  1  0  0  0  0
 18 16  2  0  0  0  0
 19 18  1  0  0  0  0
 19 12  2  0  0  0  0
 20 21  3  0  0  0  0
 21 12  1  0  0  0  0
 22  1  1  0  0  0  0
 22 24  1  0  0  0  0
 23 22  1  0  0  0  0
 25 26  1  0  0  0  0
 26 27  2  0  0  0  0
 26 22  1  0  0  0  0
 27 31  1  0  0  0  0
 28 32  1  0  0  0  0
 28 27  1  0  0  0  0
 29 28  2  0  0  0  0
 30 29  1  0  0  0  0
 30 25  2  0  0  0  0
 33 29  1  0  0  0  0
 34 30  1  0  0  0  0
 35 25  1  0  0  0  0
 35 38  1  0  0  0  0
 35 36  2  0  0  0  0
 37 35  2  0  0  0  0
M  END
>  <minimizedAffinity>
-5.4032588

$$$$

 OpenBabel03242518033D

 38 40  0  0  0  0  0  0  0  0999 V2000
   36.5840   27.6360   42.8670 C   0  0  0  0  0  0  0  0  0  0  0  0
   36.7310   26.5720   43.1100 H   0  0  0  0  0  0  0  0  0  0  0  0
   35.6260   27.9070   43.4020 H   0  0  0  0  0  0  0  0  0  0  0  0
   35.8220   29.1800   41.0780 C   0  0  0  0  0  0  0  0  0  0  0  0
   36.3660   27.9430   41.4640 C   0  0  0  0  0  0  0  0  0  0  0  0
   36.6680   27.0590   40.4220 C   0  0  0  0  0  0  0  0  0  0  0  0
   36.4280   27.4320   39.1440 N   0  0  0  0  0  0  0  0  0  0  0  0
   35.9080   28.6220   38.8210 C   0  0  0  0  0  0  0  0  0  0  0  0
   35.6100   29.4840   39.7840 N   0  0  0  0  0  0  0  0  0  0  0  0
   35.5480   29.9440   41.7930 H   0  0  0  0  0  0  0  0  0  0  0  0
   37.0840   26.1120   40.7230 H   0  0  0  0  0  0  0  0  0  0  0  0
   36.6870   29.5690   36.6850 C   0  0  0  0  0  0  0  0  0  0  0  0
   35.6790   28.9530   37.4180 C   0  0  0  0  0  0  0  0  0  0  0  0
   34.4520   28.6450   36.8320 C   0  0  0  0  0  0  0  0  0  0  0  0
   33.6690   28.1660   37.4050 H   0  0  0  0  0  0  0  0  0  0  0  0
   34.1890   28.9390   35.5090 C   0  0  0  0  0  0  0  0  0  0  0  0
   33.2430   28.7040   35.0500 H   0  0  0  0  0  0  0  0  0  0  0  0
   35.2210   29.5490   34.8270 C   0  0  0  0  0  3  0  0  0  0  0  0
   36.4500   29.8770   35.3490 C   0  0  0  0  0  3  0  0  0  0  0  0
   38.9490   30.1430   37.7740 N   0  0  0  0  0  0  0  0  0  0  0  0
   37.9380   29.8810   37.2880 C   0  0  0  0  0  0  0  0  0  0  0  0
   37.6910   28.5430   43.3670 C   0  0  0  0  0  0  0  0  0  0  0  0
   37.4360   28.8920   44.3910 H   0  0  0  0  0  0  0  0  0  0  0  0
   37.7390   29.5050   42.7750 H   0  0  0  0  0  0  0  0  0  0  0  0
   39.9960   28.6310   42.5220 C   0  0  0  0  0  0  0  0  0  0  0  0
   39.0390   27.9700   43.2720 C   0  0  0  0  0  0  0  0  0  0  0  0
   39.2780   26.8000   43.9390 C   0  0  0  0  0  0  0  0  0  0  0  0
   40.5440   26.2520   43.8570 C   0  0  0  0  0  0  0  0  0  0  0  0
   41.5530   26.8270   43.1440 C   0  0  0  0  0  0  0  0  0  0  0  0
   41.2300   28.0190   42.4930 C   0  0  0  0  0  0  0  0  0  0  0  0
   38.5950   26.2410   44.5280 H   0  0  0  0  0  0  0  0  0  0  0  0
   40.8060   25.3230   44.3610 H   0  0  0  0  0  0  0  0  0  0  0  0
   42.5530   26.4390   43.0500 H   0  0  0  0  0  0  0  0  0  0  0  0
   42.0240   28.4920   41.9180 H   0  0  0  0  0  0  0  0  0  0  0  0
   39.7340   30.1200   41.6580 S   0  0  0  0  0  0  0  0  0  0  0  0
   40.8200   30.4100   40.6570 O   0  0  0  0  0  0  0  0  0  0  0  0
   39.8030   31.2710   42.6410 O   0  0  0  0  0  0  0  0  0  0  0  0
   38.4840   30.2190   41.1030 H   0  0  0  0  0  0  0  0  0  0  0  0
  1  2  1  0  0  0  0
  1 22  1  0  0  0  0
  1  3  1  0  0  0  0
  4  5  1  0  0  0  0
  4 10  1  0  0  0  0
  5  1  1  0  0  0  0
  6 11  1  0  0  0  0
  6  5  2  0  0  0  0
  7  6  1  0  0  0  0
  8  7  2  0  0  0  0
  8  9  1  0  0  0  0
  9  4  2  0  0  0  0
 12 21  1  0  0  0  0
 12 13  1  0  0  0  0
 13  8  1  0  0  0  0
 14 15  1  0  0  0  0
 14 13  2  0  0  0  0
 16 14  1  0  0  0  0
 17 16  1  0  0  0  0
 18 19  1  0  0  0  0
 18 16  2  0  0  0  0
 19 12  2  0  0  0  0
 21 20  3  0  0  0  0
 22 23  1  0  0  0  0
 24 22  1  0  0  0  0
 25 26  1  0  0  0  0
 26 22  1  0  0  0  0
 26 27  2  0  0  0  0
 27 31  1  0  0  0  0
 28 27  1  0  0  0  0
 28 32  1  0  0  0  0
 29 28  2  0  0  0  0
 30 25  2  0  0  0  0
 30 29  1  0  0  0  0
 33 29  1  0  0  0  0
 34 30  1  0  0  0  0
 35 25  1  0  0  0  0
 35 37  2  0  0  0  0
 36 35  2  0  0  0  0
 38 35  1  0  0  0  0
M  END
>  <minimizedAffinity>
-5.36965084

$$$$
