
 OpenBabel03242520343D

 29 31  0  0  1  0  0  0  0  0999 V2000
   47.7660   32.6470   42.3290 C   0  0  0  0  0  0  0  0  0  0  0  0
   48.8300   33.4550   41.8120 C   0  0  0  0  0  0  0  0  0  0  0  0
   48.5090   34.5220   40.9920 C   0  0  0  0  0  0  0  0  0  0  0  0
   47.1910   34.7490   40.7160 N   0  0  0  0  0  0  0  0  0  0  0  0
   46.2220   33.9840   41.2090 C   0  0  0  0  0  0  0  0  0  0  0  0
   46.5020   32.9390   42.0110 N   0  0  0  0  0  0  0  0  0  0  0  0
   48.0730   31.8270   42.9650 H   0  0  0  0  0  0  0  0  0  0  0  0
   49.2690   35.1650   40.5740 H   0  0  0  0  0  0  0  0  0  0  0  0
   44.0970   35.1400   41.6770 C   0  0  0  0  0  0  0  0  0  0  0  0
   44.8150   34.2680   40.8830 C   0  0  0  0  0  0  0  0  0  0  0  0
   44.2060   33.6730   39.7950 C   0  0  0  0  0  0  0  0  0  0  0  0
   44.7360   32.9840   39.1510 H   0  0  0  0  0  0  0  0  0  0  0  0
   42.8790   33.9310   39.4750 C   0  0  0  0  0  0  0  0  0  0  0  0
   42.4120   33.4660   38.6280 H   0  0  0  0  0  0  0  0  0  0  0  0
   42.1780   34.8060   40.2810 C   0  0  0  0  0  3  0  0  0  0  0  0
   42.7700   35.4200   41.3850 C   0  0  0  0  0  3  0  0  0  0  0  0
   45.1600   36.3080   43.7540 N   0  0  0  0  0  0  0  0  0  0  0  0
   44.6980   35.7860   42.8290 C   0  0  0  0  0  0  0  0  0  0  0  0
   50.2580   33.1370   42.1380 C   0  0  1  0  0  0  0  0  0  0  0  0
   50.6320   31.8270   42.6270 C   0  0  0  0  0  0  0  0  0  0  0  0
   50.9870   32.1550   41.2250 C   0  0  1  0  0  0  0  0  0  0  0  0
   50.8640   34.0330   42.3310 H   0  0  0  0  0  0  0  0  0  0  0  0
   49.8950   31.0100   42.8210 H   0  0  0  0  0  0  0  0  0  0  0  0
   51.4650   31.7560   43.3880 H   0  0  0  0  0  0  0  0  0  0  0  0
   52.0840   32.3010   41.0450 H   0  0  0  0  0  0  0  0  0  0  0  0
   50.2880   31.5320   40.0730 C   0  0  0  0  0  0  0  0  0  0  0  0
   51.1460   30.7960   39.2730 F   0  0  0  0  0  0  0  0  0  0  0  0
   49.6410   32.4640   39.2780 F   0  0  0  0  0  0  0  0  0  0  0  0
   49.3510   30.6510   40.5690 F   0  0  0  0  0  0  0  0  0  0  0  0
  1  7  1  0  0  0  0
  2 19  1  0  0  0  0
  2  1  2  0  0  0  0
  3  2  1  0  0  0  0
  4  3  2  0  0  0  0
  4  5  1  0  0  0  0
  5  6  2  0  0  0  0
  6  1  1  0  0  0  0
  8  3  1  0  0  0  0
  9 18  1  0  0  0  0
 10  5  1  0  0  0  0
 10  9  2  0  0  0  0
 11 10  1  0  0  0  0
 12 11  1  0  0  0  0
 13 11  2  0  0  0  0
 13 15  1  0  0  0  0
 14 13  1  0  0  0  0
 15 16  2  0  0  0  0
 16  9  1  0  0  0  0
 18 17  3  0  0  0  0
 19 22  1  1  0  0  0
 19 20  1  0  0  0  0
 20 23  1  0  0  0  0
 20 24  1  0  0  0  0
 21 25  1  6  0  0  0
 21 19  1  0  0  0  0
 21 20  1  0  0  0  0
 26 29  1  0  0  0  0
 26 21  1  0  0  0  0
 27 26  1  0  0  0  0
 28 26  1  0  0  0  0
M  END
>  <minimizedAffinity>
-4.44461155

>  <minimizedRMSD>
5.3718195

$$$$
