
 OpenBabel03242520333D

 29 31  0  0  1  0  0  0  0  0999 V2000
   45.8160   32.6640   42.7470 C   0  0  0  0  0  0  0  0  0  0  0  0
   47.0360   32.2980   42.0920 C   0  0  0  0  0  0  0  0  0  0  0  0
   47.7520   31.2220   42.5840 C   0  0  0  0  0  0  0  0  0  0  0  0
   47.2580   30.5640   43.6730 N   0  0  0  0  0  0  0  0  0  0  0  0
   46.1230   30.9230   44.2650 C   0  0  0  0  0  0  0  0  0  0  0  0
   45.4020   31.9650   43.8080 N   0  0  0  0  0  0  0  0  0  0  0  0
   45.2960   33.5120   42.3210 H   0  0  0  0  0  0  0  0  0  0  0  0
   48.6780   30.9010   42.1300 H   0  0  0  0  0  0  0  0  0  0  0  0
   45.8610   30.6830   46.7030 C   0  0  0  0  0  0  0  0  0  0  0  0
   45.6300   30.1820   45.4370 C   0  0  0  0  0  0  0  0  0  0  0  0
   44.9400   28.9950   45.2850 C   0  0  0  0  0  0  0  0  0  0  0  0
   44.7390   28.5710   44.3110 H   0  0  0  0  0  0  0  0  0  0  0  0
   44.4690   28.2860   46.3830 C   0  0  0  0  0  0  0  0  0  0  0  0
   43.9330   27.3630   46.2590 H   0  0  0  0  0  0  0  0  0  0  0  0
   44.7100   28.8020   47.6400 C   0  0  0  0  0  3  0  0  0  0  0  0
   45.4040   29.9990   47.8190 C   0  0  0  0  0  3  0  0  0  0  0  0
   47.1400   32.9290   47.0670 N   0  0  0  0  0  0  0  0  0  0  0  0
   46.5820   31.9270   46.9060 C   0  0  0  0  0  0  0  0  0  0  0  0
   47.5320   33.0780   40.9120 C   0  0  1  0  0  0  0  0  0  0  0  0
   47.1940   34.4760   40.7530 C   0  0  0  0  0  0  0  0  0  0  0  0
   48.5800   34.1570   41.1700 C   0  0  1  0  0  0  0  0  0  0  0  0
   47.8130   32.4400   40.0620 H   0  0  0  0  0  0  0  0  0  0  0  0
   46.5310   35.0330   41.4590 H   0  0  0  0  0  0  0  0  0  0  0  0
   47.0270   34.8730   39.7070 H   0  0  0  0  0  0  0  0  0  0  0  0
   49.3590   34.3500   40.3870 H   0  0  0  0  0  0  0  0  0  0  0  0
   49.0660   34.4240   42.5480 C   0  0  0  0  0  0  0  0  0  0  0  0
   49.8370   35.5720   42.6190 F   0  0  0  0  0  0  0  0  0  0  0  0
   49.8010   33.3710   43.0660 F   0  0  0  0  0  0  0  0  0  0  0  0
   47.9670   34.6320   43.3540 F   0  0  0  0  0  0  0  0  0  0  0  0
  1  6  1  0  0  0  0
  2  3  1  0  0  0  0
  2  1  2  0  0  0  0
  3  4  2  0  0  0  0
  4  5  1  0  0  0  0
  5 10  1  0  0  0  0
  6  5  2  0  0  0  0
  7  1  1  0  0  0  0
  8  3  1  0  0  0  0
  9 18  1  0  0  0  0
  9 16  1  0  0  0  0
 10  9  2  0  0  0  0
 11 10  1  0  0  0  0
 11 13  2  0  0  0  0
 12 11  1  0  0  0  0
 13 15  1  0  0  0  0
 14 13  1  0  0  0  0
 15 16  2  0  0  0  0
 18 17  3  0  0  0  0
 19 22  1  6  0  0  0
 19 21  1  0  0  0  0
 19  2  1  0  0  0  0
 20 19  1  0  0  0  0
 20 21  1  0  0  0  0
 20 23  1  0  0  0  0
 21 25  1  6  0  0  0
 21 26  1  0  0  0  0
 24 20  1  0  0  0  0
 26 27  1  0  0  0  0
 26 28  1  0  0  0  0
 26 29  1  0  0  0  0
M  END
>  <minimizedAffinity>
-4.25720215

>  <minimizedRMSD>
3.624506

$$$$
