REMARK  Name = 
REMARK  4 active torsions:
REMARK  status: ('A' for Active; 'I' for Inactive)
REMARK    1  A    between atoms: C_2  and  N_22
REMARK    2  A    between atoms: C_5  and  C_12
REMARK    3  A    between atoms: C_20  and  C_41
REMARK    4  A    between atoms: C_39  and  C_40
REMARK                            x       y       z     vdW  Elec       q    Type
REMARK                         _______ _______ _______ _____ _____    ______ ____
ROOT
ATOM      1  C   UNL     1      45.842  33.840  45.058  0.00  0.00    +0.000 A 
ATOM      2  N   UNL     1      44.884  34.789  45.250  0.00  0.00    +0.000 NA
ATOM      3  C   UNL     1      44.632  35.800  44.422  0.00  0.00    +0.000 A 
ATOM      4  N   UNL     1      45.364  35.928  43.291  0.00  0.00    +0.000 NA
ATOM      5  C   UNL     1      46.344  35.044  42.995  0.00  0.00    +0.000 A 
ATOM      6  C   UNL     1      47.063  35.199  41.845  0.00  0.00    +0.000 A 
ATOM      7  C   UNL     1      48.060  34.300  41.534  0.00  0.00    +0.000 A 
ATOM      8  C   UNL     1      48.294  33.255  42.418  0.00  0.00    +0.000 A 
ATOM      9  C   UNL     1      47.520  33.166  43.565  0.00  0.00    +0.000 A 
ATOM     10  C   UNL     1      46.535  34.035  43.900  0.00  0.00    +0.000 A 
ATOM     11  H   UNL     1      43.833  36.489  44.699  0.00  0.00    +0.000 HD
ATOM     12  H   UNL     1      46.810  36.047  41.211  0.00  0.00    +0.000 HD
ATOM     13  H   UNL     1      48.562  34.526  40.595  0.00  0.00    +0.000 HD
ATOM     14  H   UNL     1      49.099  32.655  42.021  0.00  0.00    +0.000 HD
ENDROOT
BRANCH   1  19
ATOM     15  C   UNL     1      47.340  32.302  47.953  0.00  0.00    +0.000 A 
ATOM     16  C   UNL     1      46.851  31.015  48.018  0.00  0.00    +0.000 A 
ATOM     17  C   UNL     1      45.967  30.652  47.052  0.00  0.00    +0.000 A 
ATOM     18  N   UNL     1      45.614  31.519  46.099  0.00  0.00    +0.000 NA
ATOM     19  C   UNL     1      46.082  32.763  46.019  0.00  0.00    +0.000 A 
ATOM     20  N   UNL     1      46.955  33.127  46.981  0.00  0.00    +0.000 NA
ATOM     21  N   UNL     1      45.401  29.383  47.039  0.00  0.00    +0.000 N 
ATOM     22  C   UNL     1      44.275  28.962  46.179  0.00  0.00    +0.000 C 
ATOM     23  C   UNL     1      44.212  27.459  46.314  0.00  0.00    +0.000 C 
ATOM     24  C   UNL     1      44.770  27.222  47.690  0.00  0.00    +0.000 C 
ATOM     25  C   UNL     1      45.808  28.275  47.851  0.00  0.00    +0.000 C 
ATOM     26  H   UNL     1      48.054  32.623  48.726  0.00  0.00    +0.000 HD
ATOM     27  H   UNL     1      44.602  29.152  45.129  0.00  0.00    +0.000 HD
ATOM     28  H   UNL     1      43.342  29.458  46.442  0.00  0.00    +0.000 HD
ATOM     29  H   UNL     1      44.851  26.928  45.592  0.00  0.00    +0.000 HD
ATOM     30  H   UNL     1      43.161  27.124  46.194  0.00  0.00    +0.000 HD
ATOM     31  H   UNL     1      45.176  26.175  47.775  0.00  0.00    +0.000 HD
ATOM     32  H   UNL     1      43.916  27.293  48.387  0.00  0.00    +0.000 HD
ATOM     33  H   UNL     1      45.720  28.473  48.964  0.00  0.00    +0.000 HD
ATOM     34  H   UNL     1      46.792  27.915  47.547  0.00  0.00    +0.000 HD
BRANCH  16  35
ATOM     35  N   UNL     1      47.333  30.153  48.997  0.00  0.00    +0.000 N 
ATOM     36  H   UNL     1      48.042  29.398  48.961  0.00  0.00    +0.000 HD
ATOM     37  H   UNL     1      46.829  30.384  49.901  0.00  0.00    +0.000 HD
ENDBRANCH  16  35
ENDBRANCH   1  19
BRANCH   9  39
ATOM     38  C   UNL     1      48.561  31.091  43.211  0.00  0.00    +0.000 A 
ATOM     39  C   UNL     1      48.004  31.946  44.194  0.00  0.00    +0.000 A 
ATOM     40  C   UNL     1      48.091  31.474  45.492  0.00  0.00    +0.000 A 
ATOM     41  H   UNL     1      47.624  32.229  46.144  0.00  0.00    +0.000 HD
ATOM     42  C   UNL     1      48.667  30.275  45.831  0.00  0.00    +0.000 A 
ATOM     43  H   UNL     1      48.622  30.111  46.909  0.00  0.00    +0.000 HD
ATOM     44  C   UNL     1      49.207  29.448  44.871  0.00  0.00    +0.000 A 
ATOM     45  C   UNL     1      49.148  29.869  43.561  0.00  0.00    +0.000 A 
BRANCH  38  47
ATOM     46  N   UNL     1      48.595  31.615  40.670  0.00  0.00    +0.000 NA
ATOM     47  C   UNL     1      48.586  31.373  41.796  0.00  0.00    +0.000 C 
ENDBRANCH  38  47
ENDBRANCH   9  39
TORSDOF 4
