
 OpenBabel03252507443D

 32 34  0  0  0  0  0  0  0  0999 V2000
   35.1690   28.2500   38.5630 C   0  0  0  0  0  0  0  0  0  0  0  0
   35.3710   27.2260   38.9870 H   0  0  0  0  0  0  0  0  0  0  0  0
   36.0930   28.5040   37.9920 H   0  0  0  0  0  0  0  0  0  0  0  0
   34.0620   28.2130   37.5700 C   0  0  0  0  0  0  0  0  0  0  0  0
   33.7000   26.9920   36.9230 C   0  0  0  0  0  0  0  0  0  0  0  0
   32.3090   27.5290   35.8310 S   0  0  0  0  0  0  0  0  0  0  0  0
   32.4710   29.2950   36.4440 C   0  0  0  0  0  0  0  0  0  0  0  0
   33.3290   29.2280   37.1880 N   0  0  0  0  0  0  0  0  0  0  0  0
   34.1830   26.0240   37.0940 H   0  0  0  0  0  0  0  0  0  0  0  0
   30.5670   30.9140   36.6910 C   0  0  0  0  0  0  0  0  0  0  0  0
   31.5960   30.3820   35.9560 C   0  0  0  0  0  0  0  0  0  0  0  0
   31.8840   30.8360   34.6960 C   0  0  0  0  0  0  0  0  0  0  0  0
   32.6930   30.4190   34.1200 H   0  0  0  0  0  0  0  0  0  0  0  0
   31.1180   31.8380   34.1830 C   0  0  0  0  0  0  0  0  0  0  0  0
   31.3340   32.2060   33.1910 H   0  0  0  0  0  0  0  0  0  0  0  0
   30.0850   32.3660   34.9290 C   0  0  0  0  0  3  0  0  0  0  0  0
   29.7690   31.9300   36.2020 C   0  0  0  0  0  3  0  0  0  0  0  0
   30.0700   30.0120   39.0630 N   0  0  0  0  0  0  0  0  0  0  0  0
   30.2850   30.4240   38.0030 C   0  0  0  0  0  0  0  0  0  0  0  0
   35.0010   29.2700   39.6480 C   0  0  0  0  0  0  0  0  0  0  0  0
   33.9800   29.0890   40.0920 H   0  0  0  0  0  0  0  0  0  0  0  0
   34.9590   30.2570   39.2040 H   0  0  0  0  0  0  0  0  0  0  0  0
   35.9950   29.1630   40.7310 C   0  0  0  0  0  0  0  0  0  0  0  0
   36.9560   30.1950   40.8050 C   0  0  0  0  0  0  0  0  0  0  0  0
   37.9120   30.1440   41.8030 C   0  0  0  0  0  0  0  0  0  0  0  0
   37.8830   29.0840   42.6810 N   0  0  0  0  0  0  0  0  0  0  0  0
   36.9530   28.1280   42.5720 C   0  0  0  0  0  0  0  0  0  0  0  0
   36.0270   28.1710   41.6130 N   0  0  0  0  0  0  0  0  0  0  0  0
   38.6670   30.9210   41.8900 H   0  0  0  0  0  0  0  0  0  0  0  0
   36.9930   27.3220   43.3040 H   0  0  0  0  0  0  0  0  0  0  0  0
   36.9440   31.5430   39.6380 S   0  0  0  0  0  0  0  0  0  0  0  0
   37.4000   32.7340   40.1870 H   0  0  0  0  0  0  0  0  0  0  0  0
  1  2  1  0  0  0  0
  1 20  1  0  0  0  0
  3  1  1  0  0  0  0
  4  1  1  0  0  0  0
  5  9  1  0  0  0  0
  5  4  2  0  0  0  0
  6  7  1  0  0  0  0
  6  5  1  0  0  0  0
  7  8  2  0  0  0  0
  8  4  1  0  0  0  0
 10 19  1  0  0  0  0
 11  7  1  0  0  0  0
 11 10  2  0  0  0  0
 12 11  1  0  0  0  0
 13 12  1  0  0  0  0
 14 12  2  0  0  0  0
 14 16  1  0  0  0  0
 15 14  1  0  0  0  0
 16 17  2  0  0  0  0
 17 10  1  0  0  0  0
 19 18  3  0  0  0  0
 20 21  1  0  0  0  0
 20 23  1  0  0  0  0
 22 20  1  0  0  0  0
 23 24  2  0  0  0  0
 23 28  1  0  0  0  0
 24 25  1  0  0  0  0
 25 29  1  0  0  0  0
 25 26  2  0  0  0  0
 27 26  1  0  0  0  0
 27 30  1  0  0  0  0
 28 27  2  0  0  0  0
 31 32  1  0  0  0  0
 31 24  1  0  0  0  0
M  END
>  <minimizedAffinity>
-5.2177577

$$$$

 OpenBabel03252507443D

 32 34  0  0  0  0  0  0  0  0999 V2000
   39.0890   30.4280   38.2730 C   0  0  0  0  0  0  0  0  0  0  0  0
   40.0860   30.1730   38.7330 H   0  0  0  0  0  0  0  0  0  0  0  0
   39.1050   29.9290   37.2760 H   0  0  0  0  0  0  0  0  0  0  0  0
   37.9720   29.8050   39.0340 C   0  0  0  0  0  0  0  0  0  0  0  0
   36.8220   30.5680   39.4020 C   0  0  0  0  0  0  0  0  0  0  0  0
   35.7980   29.3180   40.2990 S   0  0  0  0  0  0  0  0  0  0  0  0
   37.1030   28.0010   40.0140 C   0  0  0  0  0  0  0  0  0  0  0  0
   37.9060   28.5600   39.4340 N   0  0  0  0  0  0  0  0  0  0  0  0
   36.6720   31.6280   39.1690 H   0  0  0  0  0  0  0  0  0  0  0  0
   37.1580   26.2450   41.8080 C   0  0  0  0  0  0  0  0  0  0  0  0
   36.9440   26.6160   40.5040 C   0  0  0  0  0  0  0  0  0  0  0  0
   36.5620   25.7050   39.5550 C   0  0  0  0  0  0  0  0  0  0  0  0
   36.3940   25.9960   38.5320 H   0  0  0  0  0  0  0  0  0  0  0  0
   36.3950   24.4080   39.9370 C   0  0  0  0  0  0  0  0  0  0  0  0
   36.0940   23.6800   39.2000 H   0  0  0  0  0  0  0  0  0  0  0  0
   36.6130   24.0450   41.2510 C   0  0  0  0  0  3  0  0  0  0  0  0
   36.9990   24.9390   42.2310 C   0  0  0  0  0  3  0  0  0  0  0  0
   37.8760   27.9830   43.5820 N   0  0  0  0  0  0  0  0  0  0  0  0
   37.5560   27.2120   42.7800 C   0  0  0  0  0  0  0  0  0  0  0  0
   38.9470   31.9030   38.0510 C   0  0  0  0  0  0  0  0  0  0  0  0
   38.2460   32.2740   38.8520 H   0  0  0  0  0  0  0  0  0  0  0  0
   38.4380   32.0720   37.1110 H   0  0  0  0  0  0  0  0  0  0  0  0
   40.2120   32.6520   38.1690 C   0  0  0  0  0  0  0  0  0  0  0  0
   40.3680   33.4380   39.3320 C   0  0  0  0  0  0  0  0  0  0  0  0
   41.5360   34.1600   39.4940 C   0  0  0  0  0  0  0  0  0  0  0  0
   42.4950   34.0800   38.5090 N   0  0  0  0  0  0  0  0  0  0  0  0
   42.3030   33.3220   37.4240 C   0  0  0  0  0  0  0  0  0  0  0  0
   41.1800   32.6210   37.2610 N   0  0  0  0  0  0  0  0  0  0  0  0
   41.6910   34.7760   40.3750 H   0  0  0  0  0  0  0  0  0  0  0  0
   43.1070   33.3070   36.6890 H   0  0  0  0  0  0  0  0  0  0  0  0
   39.0890   33.5020   40.5720 S   0  0  0  0  0  0  0  0  0  0  0  0
   39.5920   33.6800   41.8540 H   0  0  0  0  0  0  0  0  0  0  0  0
  1  2  1  0  0  0  0
  1  4  1  0  0  0  0
  3  1  1  0  0  0  0
  4  5  2  0  0  0  0
  4  8  1  0  0  0  0
  5  6  1  0  0  0  0
  7  6  1  0  0  0  0
  7 11  1  0  0  0  0
  8  7  2  0  0  0  0
  9  5  1  0  0  0  0
 10 17  1  0  0  0  0
 10 19  1  0  0  0  0
 11 10  2  0  0  0  0
 12 14  2  0  0  0  0
 12 11  1  0  0  0  0
 13 12  1  0  0  0  0
 14 16  1  0  0  0  0
 15 14  1  0  0  0  0
 16 17  2  0  0  0  0
 19 18  3  0  0  0  0
 20 23  1  0  0  0  0
 20  1  1  0  0  0  0
 20 21  1  0  0  0  0
 22 20  1  0  0  0  0
 23 24  1  0  0  0  0
 24 25  2  0  0  0  0
 24 31  1  0  0  0  0
 25 29  1  0  0  0  0
 26 25  1  0  0  0  0
 27 26  2  0  0  0  0
 28 27  1  0  0  0  0
 28 23  2  0  0  0  0
 30 27  1  0  0  0  0
 31 32  1  0  0  0  0
M  END
>  <minimizedAffinity>
-5.02438164

$$$$

 OpenBabel03252507443D

 32 34  0  0  0  0  0  0  0  0999 V2000
   40.2590   31.1750   37.6570 C   0  0  0  0  0  0  0  0  0  0  0  0
   40.4770   30.1030   37.3920 H   0  0  0  0  0  0  0  0  0  0  0  0
   39.7090   31.5760   36.7730 H   0  0  0  0  0  0  0  0  0  0  0  0
   39.3200   31.2650   38.8080 C   0  0  0  0  0  0  0  0  0  0  0  0
   38.6000   32.4700   39.0730 C   0  0  0  0  0  0  0  0  0  0  0  0
   37.6210   32.0140   40.5730 S   0  0  0  0  0  0  0  0  0  0  0  0
   38.3590   30.2890   40.5660 C   0  0  0  0  0  0  0  0  0  0  0  0
   39.0530   30.3130   39.6660 N   0  0  0  0  0  0  0  0  0  0  0  0
   38.6750   33.3880   38.4810 H   0  0  0  0  0  0  0  0  0  0  0  0
   36.7710   28.6610   41.6330 C   0  0  0  0  0  0  0  0  0  0  0  0
   37.9980   29.2740   41.5780 C   0  0  0  0  0  0  0  0  0  0  0  0
   38.9870   28.9760   42.4790 C   0  0  0  0  0  0  0  0  0  0  0  0
   39.9490   29.4560   42.4350 H   0  0  0  0  0  0  0  0  0  0  0  0
   38.7240   28.0480   43.4400 C   0  0  0  0  0  0  0  0  0  0  0  0
   39.4940   27.8030   44.1560 H   0  0  0  0  0  0  0  0  0  0  0  0
   37.4870   27.4370   43.4870 C   0  0  0  0  0  3  0  0  0  0  0  0
   36.4690   27.7160   42.5940 C   0  0  0  0  0  3  0  0  0  0  0  0
   34.9250   29.2670   39.9270 N   0  0  0  0  0  0  0  0  0  0  0  0
   35.7550   28.9890   40.6840 C   0  0  0  0  0  0  0  0  0  0  0  0
   41.5200   31.9690   37.8160 C   0  0  0  0  0  0  0  0  0  0  0  0
   41.7930   31.9070   38.9090 H   0  0  0  0  0  0  0  0  0  0  0  0
   41.3090   33.0130   37.6230 H   0  0  0  0  0  0  0  0  0  0  0  0
   42.6570   31.4530   37.0320 C   0  0  0  0  0  0  0  0  0  0  0  0
   43.9020   32.0850   37.2420 C   0  0  0  0  0  0  0  0  0  0  0  0
   45.0020   31.6390   36.5330 C   0  0  0  0  0  0  0  0  0  0  0  0
   44.8310   30.5960   35.6500 N   0  0  0  0  0  0  0  0  0  0  0  0
   43.6310   30.0280   35.4840 C   0  0  0  0  0  0  0  0  0  0  0  0
   42.5660   30.4520   36.1650 N   0  0  0  0  0  0  0  0  0  0  0  0
   45.9760   32.1000   36.6690 H   0  0  0  0  0  0  0  0  0  0  0  0
   43.5740   29.2080   34.7690 H   0  0  0  0  0  0  0  0  0  0  0  0
   44.0620   33.4310   38.3990 S   0  0  0  0  0  0  0  0  0  0  0  0
   45.3090   33.4740   39.0060 H   0  0  0  0  0  0  0  0  0  0  0  0
  1 20  1  0  0  0  0
  1  4  1  0  0  0  0
  2  1  1  0  0  0  0
  3  1  1  0  0  0  0
  4  5  2  0  0  0  0
  4  8  1  0  0  0  0
  5  6  1  0  0  0  0
  7  6  1  0  0  0  0
  7 11  1  0  0  0  0
  8  7  2  0  0  0  0
  9  5  1  0  0  0  0
 10 17  1  0  0  0  0
 11 10  2  0  0  0  0
 11 12  1  0  0  0  0
 12 14  2  0  0  0  0
 13 12  1  0  0  0  0
 14 16  1  0  0  0  0
 14 15  1  0  0  0  0
 17 16  2  0  0  0  0
 18 19  3  0  0  0  0
 19 10  1  0  0  0  0
 20 21  1  0  0  0  0
 22 20  1  0  0  0  0
 23 24  1  0  0  0  0
 23 20  1  0  0  0  0
 24 31  1  0  0  0  0
 25 29  1  0  0  0  0
 25 24  2  0  0  0  0
 26 25  1  0  0  0  0
 27 26  2  0  0  0  0
 27 28  1  0  0  0  0
 28 23  2  0  0  0  0
 30 27  1  0  0  0  0
 31 32  1  0  0  0  0
M  END
>  <minimizedAffinity>
-4.97293329

$$$$

 OpenBabel03252507443D

 32 34  0  0  0  0  0  0  0  0999 V2000
   40.0390   29.8560   41.8720 C   0  0  0  0  0  0  0  0  0  0  0  0
   40.0340   30.7230   42.5900 H   0  0  0  0  0  0  0  0  0  0  0  0
   41.0020   29.3310   42.0710 H   0  0  0  0  0  0  0  0  0  0  0  0
   38.9590   28.8840   42.1950 C   0  0  0  0  0  0  0  0  0  0  0  0
   38.0810   29.1060   43.2990 C   0  0  0  0  0  0  0  0  0  0  0  0
   36.9790   27.6240   43.2220 S   0  0  0  0  0  0  0  0  0  0  0  0
   37.9010   26.9800   41.7200 C   0  0  0  0  0  0  0  0  0  0  0  0
   38.6950   27.7760   41.5490 N   0  0  0  0  0  0  0  0  0  0  0  0
   38.1250   29.9690   43.9720 H   0  0  0  0  0  0  0  0  0  0  0  0
   38.0480   24.4930   41.4070 C   0  0  0  0  0  0  0  0  0  0  0  0
   37.5320   25.7140   41.0530 C   0  0  0  0  0  0  0  0  0  0  0  0
   36.6230   25.8380   40.0350 C   0  0  0  0  0  0  0  0  0  0  0  0
   36.2180   26.7960   39.7580 H   0  0  0  0  0  0  0  0  0  0  0  0
   36.2370   24.7100   39.3770 C   0  0  0  0  0  0  0  0  0  0  0  0
   35.5210   24.7930   38.5730 H   0  0  0  0  0  0  0  0  0  0  0  0
   36.7620   23.4870   39.7400 C   0  0  0  0  0  3  0  0  0  0  0  0
   37.6800   23.3290   40.7610 C   0  0  0  0  0  3  0  0  0  0  0  0
   39.7590   24.3230   43.3390 N   0  0  0  0  0  0  0  0  0  0  0  0
   38.9960   24.3890   42.4710 C   0  0  0  0  0  0  0  0  0  0  0  0
   40.0530   30.3230   40.4480 C   0  0  0  0  0  0  0  0  0  0  0  0
   39.7020   29.4480   39.8280 H   0  0  0  0  0  0  0  0  0  0  0  0
   41.0750   30.5080   40.1450 H   0  0  0  0  0  0  0  0  0  0  0  0
   39.1540   31.4610   40.1810 C   0  0  0  0  0  0  0  0  0  0  0  0
   38.1120   31.2330   39.2550 C   0  0  0  0  0  0  0  0  0  0  0  0
   37.2400   32.2670   38.9680 C   0  0  0  0  0  0  0  0  0  0  0  0
   37.4290   33.4750   39.6000 N   0  0  0  0  0  0  0  0  0  0  0  0
   38.4310   33.6450   40.4710 C   0  0  0  0  0  0  0  0  0  0  0  0
   39.2760   32.6520   40.7530 N   0  0  0  0  0  0  0  0  0  0  0  0
   36.4270   32.1280   38.2610 H   0  0  0  0  0  0  0  0  0  0  0  0
   38.5170   34.6280   40.9320 H   0  0  0  0  0  0  0  0  0  0  0  0
   37.9190   29.6460   38.4670 S   0  0  0  0  0  0  0  0  0  0  0  0
   36.5930   29.3420   38.1880 H   0  0  0  0  0  0  0  0  0  0  0  0
  1  3  1  0  0  0  0
  1  4  1  0  0  0  0
  1  2  1  0  0  0  0
  4  5  2  0  0  0  0
  5  9  1  0  0  0  0
  6  5  1  0  0  0  0
  7  6  1  0  0  0  0
  8  7  2  0  0  0  0
  8  4  1  0  0  0  0
 10 19  1  0  0  0  0
 11 10  1  0  0  0  0
 11  7  1  0  0  0  0
 12 11  2  0  0  0  0
 13 12  1  0  0  0  0
 14 16  2  0  0  0  0
 14 12  1  0  0  0  0
 15 14  1  0  0  0  0
 16 17  1  0  0  0  0
 17 10  2  0  0  0  0
 19 18  3  0  0  0  0
 20  1  1  0  0  0  0
 21 20  1  0  0  0  0
 22 20  1  0  0  0  0
 23 20  1  0  0  0  0
 23 28  1  0  0  0  0
 24 23  2  0  0  0  0
 25 24  1  0  0  0  0
 25 26  2  0  0  0  0
 26 27  1  0  0  0  0
 27 28  2  0  0  0  0
 27 30  1  0  0  0  0
 29 25  1  0  0  0  0
 31 24  1  0  0  0  0
 32 31  1  0  0  0  0
M  END
>  <minimizedAffinity>
-4.9283514

$$$$

 OpenBabel03252507443D

 32 34  0  0  0  0  0  0  0  0999 V2000
   36.5240   30.7810   41.0530 C   0  0  0  0  0  0  0  0  0  0  0  0
   35.4450   30.4650   41.1140 H   0  0  0  0  0  0  0  0  0  0  0  0
   36.6070   31.6370   41.7630 H   0  0  0  0  0  0  0  0  0  0  0  0
   37.4260   29.7180   41.5750 C   0  0  0  0  0  0  0  0  0  0  0  0
   38.4630   30.0300   42.5060 C   0  0  0  0  0  0  0  0  0  0  0  0
   39.2360   28.3760   42.7940 S   0  0  0  0  0  0  0  0  0  0  0  0
   38.0230   27.5710   41.6110 C   0  0  0  0  0  0  0  0  0  0  0  0
   37.3840   28.4460   41.2670 N   0  0  0  0  0  0  0  0  0  0  0  0
   38.6750   31.0310   42.8970 H   0  0  0  0  0  0  0  0  0  0  0  0
   38.9530   25.5360   40.4700 C   0  0  0  0  0  0  0  0  0  0  0  0
   38.0500   26.1220   41.3210 C   0  0  0  0  0  0  0  0  0  0  0  0
   37.0960   25.3830   41.9710 C   0  0  0  0  0  0  0  0  0  0  0  0
   36.3880   25.8430   42.6390 H   0  0  0  0  0  0  0  0  0  0  0  0
   37.0630   24.0390   41.7510 C   0  0  0  0  0  0  0  0  0  0  0  0
   36.3170   23.4450   42.2560 H   0  0  0  0  0  0  0  0  0  0  0  0
   37.9750   23.4590   40.8930 C   0  0  0  0  0  3  0  0  0  0  0  0
   38.9480   24.1770   40.2230 C   0  0  0  0  0  3  0  0  0  0  0  0
   40.7270   26.9650   39.2470 N   0  0  0  0  0  0  0  0  0  0  0  0
   39.9380   26.3270   39.8040 C   0  0  0  0  0  0  0  0  0  0  0  0
   36.8740   31.2800   39.6840 C   0  0  0  0  0  0  0  0  0  0  0  0
   35.9710   31.8490   39.3180 H   0  0  0  0  0  0  0  0  0  0  0  0
   36.9820   30.4360   39.0150 H   0  0  0  0  0  0  0  0  0  0  0  0
   38.0310   32.1940   39.6560 C   0  0  0  0  0  0  0  0  0  0  0  0
   39.1560   31.7590   38.9220 C   0  0  0  0  0  0  0  0  0  0  0  0
   40.2680   32.5790   38.8630 C   0  0  0  0  0  0  0  0  0  0  0  0
   40.2270   33.7840   39.5270 N   0  0  0  0  0  0  0  0  0  0  0  0
   39.1380   34.1540   40.2110 C   0  0  0  0  0  0  0  0  0  0  0  0
   38.0610   33.3700   40.2720 N   0  0  0  0  0  0  0  0  0  0  0  0
   41.1520   32.2780   38.3070 H   0  0  0  0  0  0  0  0  0  0  0  0
   39.1800   35.1220   40.7100 H   0  0  0  0  0  0  0  0  0  0  0  0
   39.1500   30.1870   38.0830 S   0  0  0  0  0  0  0  0  0  0  0  0
   39.9140   30.1930   36.9240 H   0  0  0  0  0  0  0  0  0  0  0  0
  1  2  1  0  0  0  0
  1  4  1  0  0  0  0
  1  3  1  0  0  0  0
  4  5  2  0  0  0  0
  5  6  1  0  0  0  0
  5  9  1  0  0  0  0
  7  6  1  0  0  0  0
  8  4  1  0  0  0  0
  8  7  2  0  0  0  0
 10 11  1  0  0  0  0
 11  7  1  0  0  0  0
 11 12  2  0  0  0  0
 12 13  1  0  0  0  0
 14 12  1  0  0  0  0
 14 15  1  0  0  0  0
 16 14  2  0  0  0  0
 17 10  2  0  0  0  0
 17 16  1  0  0  0  0
 18 19  3  0  0  0  0
 19 10  1  0  0  0  0
 20  1  1  0  0  0  0
 21 20  1  0  0  0  0
 22 20  1  0  0  0  0
 23 20  1  0  0  0  0
 23 28  1  0  0  0  0
 24 23  2  0  0  0  0
 25 24  1  0  0  0  0
 25 26  2  0  0  0  0
 26 27  1  0  0  0  0
 27 28  2  0  0  0  0
 27 30  1  0  0  0  0
 29 25  1  0  0  0  0
 31 24  1  0  0  0  0
 32 31  1  0  0  0  0
M  END
>  <minimizedAffinity>
-4.83289814

$$$$

 OpenBabel03252507443D

 32 34  0  0  0  0  0  0  0  0999 V2000
   36.9120   27.1510   42.8840 C   0  0  0  0  0  0  0  0  0  0  0  0
   36.7310   27.4740   43.9480 H   0  0  0  0  0  0  0  0  0  0  0  0
   36.1120   26.4030   42.6780 H   0  0  0  0  0  0  0  0  0  0  0  0
   36.6860   28.2750   41.9350 C   0  0  0  0  0  0  0  0  0  0  0  0
   37.1180   29.5990   42.2530 C   0  0  0  0  0  0  0  0  0  0  0  0
   36.5900   30.5480   40.7580 S   0  0  0  0  0  0  0  0  0  0  0  0
   35.8870   28.9910   39.9810 C   0  0  0  0  0  0  0  0  0  0  0  0
   36.1020   28.1970   40.7660 N   0  0  0  0  0  0  0  0  0  0  0  0
   37.6270   29.8880   43.1790 H   0  0  0  0  0  0  0  0  0  0  0  0
   35.9400   29.0470   37.4710 C   0  0  0  0  0  0  0  0  0  0  0  0
   35.2420   28.9970   38.6520 C   0  0  0  0  0  0  0  0  0  0  0  0
   33.8730   28.9460   38.6710 C   0  0  0  0  0  0  0  0  0  0  0  0
   33.3260   28.9060   39.5980 H   0  0  0  0  0  0  0  0  0  0  0  0
   33.2120   28.9470   37.4800 C   0  0  0  0  0  0  0  0  0  0  0  0
   32.1330   28.9080   37.4810 H   0  0  0  0  0  0  0  0  0  0  0  0
   33.9230   28.9980   36.2990 C   0  0  0  0  0  3  0  0  0  0  0  0
   35.3030   29.0490   36.2460 C   0  0  0  0  0  3  0  0  0  0  0  0
   38.5230   29.1590   37.4710 N   0  0  0  0  0  0  0  0  0  0  0  0
   37.3680   29.0990   37.4760 C   0  0  0  0  0  0  0  0  0  0  0  0
   38.2360   26.4650   42.7360 C   0  0  0  0  0  0  0  0  0  0  0  0
   38.4740   26.0220   43.7460 H   0  0  0  0  0  0  0  0  0  0  0  0
   39.0020   27.2070   42.5510 H   0  0  0  0  0  0  0  0  0  0  0  0
   38.2380   25.3720   41.7470 C   0  0  0  0  0  0  0  0  0  0  0  0
   39.0070   25.5810   40.5810 C   0  0  0  0  0  0  0  0  0  0  0  0
   39.0440   24.5870   39.6210 C   0  0  0  0  0  0  0  0  0  0  0  0
   38.3240   23.4350   39.8460 N   0  0  0  0  0  0  0  0  0  0  0  0
   37.6080   23.2810   40.9660 C   0  0  0  0  0  0  0  0  0  0  0  0
   37.5690   24.2350   41.8970 N   0  0  0  0  0  0  0  0  0  0  0  0
   39.6250   24.7130   38.7120 H   0  0  0  0  0  0  0  0  0  0  0  0
   37.0660   22.3420   41.0740 H   0  0  0  0  0  0  0  0  0  0  0  0
   39.9180   27.0950   40.3460 S   0  0  0  0  0  0  0  0  0  0  0  0
   41.0870   26.9120   39.6190 H   0  0  0  0  0  0  0  0  0  0  0  0
  1  2  1  0  0  0  0
  3  1  1  0  0  0  0
  4  5  2  0  0  0  0
  4  1  1  0  0  0  0
  5  9  1  0  0  0  0
  6  5  1  0  0  0  0
  7  6  1  0  0  0  0
  7  8  2  0  0  0  0
  8  4  1  0  0  0  0
 10 19  1  0  0  0  0
 10 11  1  0  0  0  0
 11 12  2  0  0  0  0
 11  7  1  0  0  0  0
 12 13  1  0  0  0  0
 14 15  1  0  0  0  0
 14 12  1  0  0  0  0
 16 14  2  0  0  0  0
 17 16  1  0  0  0  0
 17 10  2  0  0  0  0
 18 19  3  0  0  0  0
 20  1  1  0  0  0  0
 20 21  1  0  0  0  0
 22 20  1  0  0  0  0
 23 28  1  0  0  0  0
 23 20  1  0  0  0  0
 24 23  2  0  0  0  0
 25 26  2  0  0  0  0
 25 24  1  0  0  0  0
 26 27  1  0  0  0  0
 27 30  1  0  0  0  0
 27 28  2  0  0  0  0
 29 25  1  0  0  0  0
 31 24  1  0  0  0  0
 32 31  1  0  0  0  0
M  END
>  <minimizedAffinity>
-4.81287384

$$$$

 OpenBabel03252507443D

 32 34  0  0  0  0  0  0  0  0999 V2000
   39.8870   29.6010   42.5610 C   0  0  0  0  0  0  0  0  0  0  0  0
   40.6590   29.3960   43.3560 H   0  0  0  0  0  0  0  0  0  0  0  0
   40.4040   29.3640   41.6020 H   0  0  0  0  0  0  0  0  0  0  0  0
   38.7440   28.6540   42.6650 C   0  0  0  0  0  0  0  0  0  0  0  0
   37.7150   28.8520   43.6350 C   0  0  0  0  0  0  0  0  0  0  0  0
   36.5960   27.4170   43.3120 S   0  0  0  0  0  0  0  0  0  0  0  0
   37.7170   26.8160   41.9330 C   0  0  0  0  0  0  0  0  0  0  0  0
   38.5500   27.5900   41.9270 N   0  0  0  0  0  0  0  0  0  0  0  0
   37.6810   29.6790   44.3540 H   0  0  0  0  0  0  0  0  0  0  0  0
   36.7270   25.6110   39.9650 C   0  0  0  0  0  0  0  0  0  0  0  0
   37.4180   25.5990   41.1500 C   0  0  0  0  0  0  0  0  0  0  0  0
   37.8860   24.4310   41.6930 C   0  0  0  0  0  0  0  0  0  0  0  0
   38.4290   24.4220   42.6220 H   0  0  0  0  0  0  0  0  0  0  0  0
   37.6480   23.2690   41.0230 C   0  0  0  0  0  0  0  0  0  0  0  0
   38.0110   22.3420   41.4400 H   0  0  0  0  0  0  0  0  0  0  0  0
   36.9510   23.2920   39.8320 C   0  0  0  0  0  3  0  0  0  0  0  0
   36.4660   24.4520   39.2590 C   0  0  0  0  0  3  0  0  0  0  0  0
   35.8750   27.8360   38.9610 N   0  0  0  0  0  0  0  0  0  0  0  0
   36.2490   26.8410   39.4180 C   0  0  0  0  0  0  0  0  0  0  0  0
   39.4990   31.0480   42.5320 C   0  0  0  0  0  0  0  0  0  0  0  0
   40.0360   31.5330   43.3970 H   0  0  0  0  0  0  0  0  0  0  0  0
   38.4430   31.1370   42.7520 H   0  0  0  0  0  0  0  0  0  0  0  0
   39.8960   31.7500   41.2970 C   0  0  0  0  0  0  0  0  0  0  0  0
   38.8690   31.9990   40.3600 C   0  0  0  0  0  0  0  0  0  0  0  0
   39.1860   32.6550   39.1850 C   0  0  0  0  0  0  0  0  0  0  0  0
   40.4930   33.0350   38.9820 N   0  0  0  0  0  0  0  0  0  0  0  0
   41.4330   32.7780   39.8990 C   0  0  0  0  0  0  0  0  0  0  0  0
   41.1350   32.1470   41.0350 N   0  0  0  0  0  0  0  0  0  0  0  0
   38.4220   32.8630   38.4410 H   0  0  0  0  0  0  0  0  0  0  0  0
   42.4450   33.1110   39.6690 H   0  0  0  0  0  0  0  0  0  0  0  0
   37.1930   31.4810   40.6790 S   0  0  0  0  0  0  0  0  0  0  0  0
   36.2510   32.3290   40.1130 H   0  0  0  0  0  0  0  0  0  0  0  0
  1  4  1  0  0  0  0
  1  2  1  0  0  0  0
  3  1  1  0  0  0  0
  4  5  2  0  0  0  0
  5  9  1  0  0  0  0
  6  5  1  0  0  0  0
  7  6  1  0  0  0  0
  8  7  2  0  0  0  0
  8  4  1  0  0  0  0
 10 11  1  0  0  0  0
 11 12  2  0  0  0  0
 11  7  1  0  0  0  0
 12 13  1  0  0  0  0
 14 15  1  0  0  0  0
 14 12  1  0  0  0  0
 16 14  2  0  0  0  0
 17 16  1  0  0  0  0
 17 10  2  0  0  0  0
 18 19  3  0  0  0  0
 19 10  1  0  0  0  0
 20  1  1  0  0  0  0
 20 22  1  0  0  0  0
 20 21  1  0  0  0  0
 23 20  1  0  0  0  0
 24 31  1  0  0  0  0
 24 23  2  0  0  0  0
 25 24  1  0  0  0  0
 26 25  2  0  0  0  0
 26 27  1  0  0  0  0
 27 28  2  0  0  0  0
 28 23  1  0  0  0  0
 29 25  1  0  0  0  0
 30 27  1  0  0  0  0
 32 31  1  0  0  0  0
M  END
>  <minimizedAffinity>
-4.78163052

$$$$

 OpenBabel03252507443D

 32 34  0  0  0  0  0  0  0  0999 V2000
   33.3310   28.8620   36.1330 C   0  0  0  0  0  0  0  0  0  0  0  0
   33.3670   29.4700   35.1850 H   0  0  0  0  0  0  0  0  0  0  0  0
   33.1030   27.8250   35.7930 H   0  0  0  0  0  0  0  0  0  0  0  0
   34.6690   28.8030   36.7840 C   0  0  0  0  0  0  0  0  0  0  0  0
   35.8110   29.3930   36.1630 C   0  0  0  0  0  0  0  0  0  0  0  0
   37.1490   29.0230   37.3840 S   0  0  0  0  0  0  0  0  0  0  0  0
   35.9260   28.1440   38.5020 C   0  0  0  0  0  0  0  0  0  0  0  0
   34.9470   28.2390   37.9320 N   0  0  0  0  0  0  0  0  0  0  0  0
   35.8030   29.9150   35.2000 H   0  0  0  0  0  0  0  0  0  0  0  0
   36.4640   28.2430   40.9530 C   0  0  0  0  0  0  0  0  0  0  0  0
   36.3310   27.5340   39.7860 C   0  0  0  0  0  0  0  0  0  0  0  0
   36.5700   26.1850   39.7370 C   0  0  0  0  0  0  0  0  0  0  0  0
   36.4650   25.6290   38.8210 H   0  0  0  0  0  0  0  0  0  0  0  0
   36.9460   25.5570   40.8850 C   0  0  0  0  0  0  0  0  0  0  0  0
   37.1380   24.4940   40.8610 H   0  0  0  0  0  0  0  0  0  0  0  0
   37.0770   26.2780   42.0540 C   0  0  0  0  0  3  0  0  0  0  0  0
   36.8440   27.6380   42.1360 C   0  0  0  0  0  3  0  0  0  0  0  0
   36.0220   30.7900   40.9950 N   0  0  0  0  0  0  0  0  0  0  0  0
   36.2090   29.6480   40.9800 C   0  0  0  0  0  0  0  0  0  0  0  0
   32.2190   29.3100   37.0320 C   0  0  0  0  0  0  0  0  0  0  0  0
   32.7120   29.7190   37.9600 H   0  0  0  0  0  0  0  0  0  0  0  0
   31.6530   28.4460   37.3540 H   0  0  0  0  0  0  0  0  0  0  0  0
   31.3750   30.3740   36.4570 C   0  0  0  0  0  0  0  0  0  0  0  0
   30.2760   30.7930   37.2380 C   0  0  0  0  0  0  0  0  0  0  0  0
   29.4520   31.7890   36.7460 C   0  0  0  0  0  0  0  0  0  0  0  0
   29.7430   32.3270   35.5130 N   0  0  0  0  0  0  0  0  0  0  0  0
   30.7970   31.8980   34.8080 C   0  0  0  0  0  0  0  0  0  0  0  0
   31.5960   30.9390   35.2760 N   0  0  0  0  0  0  0  0  0  0  0  0
   28.5970   32.1360   37.3190 H   0  0  0  0  0  0  0  0  0  0  0  0
   30.9640   32.3720   33.8410 H   0  0  0  0  0  0  0  0  0  0  0  0
   29.9490   30.0570   38.8280 S   0  0  0  0  0  0  0  0  0  0  0  0
   29.3690   30.9460   39.7230 H   0  0  0  0  0  0  0  0  0  0  0  0
  1  4  1  0  0  0  0
  1 20  1  0  0  0  0
  2  1  1  0  0  0  0
  3  1  1  0  0  0  0
  4  8  1  0  0  0  0
  5  4  2  0  0  0  0
  5  6  1  0  0  0  0
  6  7  1  0  0  0  0
  7 11  1  0  0  0  0
  8  7  2  0  0  0  0
  9  5  1  0  0  0  0
 10 19  1  0  0  0  0
 10 17  1  0  0  0  0
 11 10  2  0  0  0  0
 12 11  1  0  0  0  0
 12 14  2  0  0  0  0
 13 12  1  0  0  0  0
 14 16  1  0  0  0  0
 15 14  1  0  0  0  0
 16 17  2  0  0  0  0
 19 18  3  0  0  0  0
 20 22  1  0  0  0  0
 20 21  1  0  0  0  0
 23 20  1  0  0  0  0
 23 24  1  0  0  0  0
 24 31  1  0  0  0  0
 25 24  2  0  0  0  0
 25 29  1  0  0  0  0
 26 25  1  0  0  0  0
 27 28  1  0  0  0  0
 27 26  2  0  0  0  0
 28 23  2  0  0  0  0
 30 27  1  0  0  0  0
 31 32  1  0  0  0  0
M  END
>  <minimizedAffinity>
-4.78026152

$$$$

 OpenBabel03252507443D

 32 34  0  0  0  0  0  0  0  0999 V2000
   37.1300   29.3370   38.5000 C   0  0  0  0  0  0  0  0  0  0  0  0
   37.0300   28.5130   37.7380 H   0  0  0  0  0  0  0  0  0  0  0  0
   36.2000   29.9410   38.3830 H   0  0  0  0  0  0  0  0  0  0  0  0
   37.1020   28.7930   39.8850 C   0  0  0  0  0  0  0  0  0  0  0  0
   35.9430   28.9410   40.7070 C   0  0  0  0  0  0  0  0  0  0  0  0
   36.4650   28.1010   42.2680 S   0  0  0  0  0  0  0  0  0  0  0  0
   38.1440   27.7060   41.5290 C   0  0  0  0  0  0  0  0  0  0  0  0
   38.0740   28.1530   40.4850 N   0  0  0  0  0  0  0  0  0  0  0  0
   35.0190   29.4440   40.4030 H   0  0  0  0  0  0  0  0  0  0  0  0
   39.1510   25.6220   42.5030 C   0  0  0  0  0  0  0  0  0  0  0  0
   39.1840   26.9760   42.2830 C   0  0  0  0  0  0  0  0  0  0  0  0
   40.2080   27.7530   42.7600 C   0  0  0  0  0  0  0  0  0  0  0  0
   40.2340   28.8150   42.5870 H   0  0  0  0  0  0  0  0  0  0  0  0
   41.2030   27.1450   43.4640 C   0  0  0  0  0  0  0  0  0  0  0  0
   42.0150   27.7450   43.8450 H   0  0  0  0  0  0  0  0  0  0  0  0
   41.1600   25.7830   43.6800 C   0  0  0  0  0  3  0  0  0  0  0  0
   40.1430   24.9730   43.2130 C   0  0  0  0  0  3  0  0  0  0  0  0
   37.1990   24.2060   41.5710 N   0  0  0  0  0  0  0  0  0  0  0  0
   38.0740   24.8320   41.9960 C   0  0  0  0  0  0  0  0  0  0  0  0
   38.2990   30.2240   38.2000 C   0  0  0  0  0  0  0  0  0  0  0  0
   38.2370   30.4630   37.1000 H   0  0  0  0  0  0  0  0  0  0  0  0
   39.2140   29.6610   38.3290 H   0  0  0  0  0  0  0  0  0  0  0  0
   38.2920   31.4980   38.9440 C   0  0  0  0  0  0  0  0  0  0  0  0
   39.4230   31.7620   39.7460 C   0  0  0  0  0  0  0  0  0  0  0  0
   39.4680   32.9430   40.4650 C   0  0  0  0  0  0  0  0  0  0  0  0
   38.4020   33.8080   40.3640 N   0  0  0  0  0  0  0  0  0  0  0  0
   37.3500   33.5150   39.5910 C   0  0  0  0  0  0  0  0  0  0  0  0
   37.3000   32.3790   38.8940 N   0  0  0  0  0  0  0  0  0  0  0  0
   40.3220   33.1790   41.0920 H   0  0  0  0  0  0  0  0  0  0  0  0
   36.5460   34.2490   39.5610 H   0  0  0  0  0  0  0  0  0  0  0  0
   40.7730   30.6010   39.8360 S   0  0  0  0  0  0  0  0  0  0  0  0
   42.0010   31.2180   40.0300 H   0  0  0  0  0  0  0  0  0  0  0  0
  1  4  1  0  0  0  0
  2  1  1  0  0  0  0
  3  1  1  0  0  0  0
  4  8  1  0  0  0  0
  4  5  2  0  0  0  0
  5  6  1  0  0  0  0
  7  6  1  0  0  0  0
  7 11  1  0  0  0  0
  8  7  2  0  0  0  0
  9  5  1  0  0  0  0
 10 17  1  0  0  0  0
 11 10  2  0  0  0  0
 11 12  1  0  0  0  0
 12 14  2  0  0  0  0
 13 12  1  0  0  0  0
 14 16  1  0  0  0  0
 14 15  1  0  0  0  0
 17 16  2  0  0  0  0
 18 19  3  0  0  0  0
 19 10  1  0  0  0  0
 20 22  1  0  0  0  0
 20  1  1  0  0  0  0
 20 23  1  0  0  0  0
 21 20  1  0  0  0  0
 23 24  1  0  0  0  0
 24 31  1  0  0  0  0
 24 25  2  0  0  0  0
 25 29  1  0  0  0  0
 26 25  1  0  0  0  0
 27 26  2  0  0  0  0
 28 23  2  0  0  0  0
 28 27  1  0  0  0  0
 30 27  1  0  0  0  0
 31 32  1  0  0  0  0
M  END
>  <minimizedAffinity>
-4.69459915

$$$$
