
 OpenBabel03242522323D

 40 43  0  0  0  0  0  0  0  0999 V2000
   39.1750   30.4400   41.0410 F   0  0  0  0  0  0  0  0  0  0  0  0
   38.3020   30.5100   40.0050 C   0  0  0  0  0  0  0  0  0  0  0  0
   37.3150   29.6010   39.8630 C   0  0  0  0  0  0  0  0  0  0  0  0
   36.4700   29.7490   38.7730 C   0  0  0  0  0  0  0  0  0  0  0  0
   36.6080   30.7650   37.8640 C   0  0  0  0  0  0  0  0  0  0  0  0
   37.6330   31.6490   38.0750 C   0  0  0  0  0  0  0  0  0  0  0  0
   38.4920   31.5530   39.1240 C   0  0  0  0  0  0  0  0  0  0  0  0
   35.6740   29.0070   38.6700 H   0  0  0  0  0  0  0  0  0  0  0  0
   35.9140   30.8080   37.0530 H   0  0  0  0  0  0  0  0  0  0  0  0
   37.7390   32.4540   37.3510 H   0  0  0  0  0  0  0  0  0  0  0  0
   39.5350   32.5480   39.2400 C   0  0  0  0  0  0  0  0  0  0  0  0
   40.6950   32.4160   38.4890 C   0  0  0  0  0  0  0  0  0  0  0  0
   41.6690   33.3630   38.6050 C   0  0  0  0  0  0  0  0  0  0  0  0
   41.5150   34.4510   39.4580 C   0  0  0  0  0  0  0  0  0  0  0  0
   40.3290   34.5360   40.1900 C   0  0  0  0  0  0  0  0  0  0  0  0
   39.3370   33.5890   40.0840 C   0  0  0  0  0  0  0  0  0  0  0  0
   40.7740   31.5410   37.8270 H   0  0  0  0  0  0  0  0  0  0  0  0
   42.5470   33.2000   37.9920 H   0  0  0  0  0  0  0  0  0  0  0  0
   42.3230   35.1680   39.5050 H   0  0  0  0  0  0  0  0  0  0  0  0
   40.3290   35.4200   40.8130 H   0  0  0  0  0  0  0  0  0  0  0  0
   38.2880   33.8960   40.8960 O   0  0  0  0  0  0  0  0  0  0  0  0
   37.6640   34.6530   40.6360 H   0  0  0  0  0  0  0  0  0  0  0  0
   36.8910   27.7350   43.1220 C   0  0  0  0  0  0  0  0  0  0  0  0
   36.9950   28.7790   42.2020 C   0  0  0  0  0  0  0  0  0  0  0  0
   37.2000   28.5270   40.8620 C   0  0  0  0  0  0  0  0  0  0  0  0
   37.2920   27.2220   40.5150 N   0  0  0  0  0  0  0  0  0  0  0  0
   37.1940   26.2260   41.3900 C   0  0  0  0  0  0  0  0  0  0  0  0
   36.9930   26.4820   42.6980 N   0  0  0  0  0  0  0  0  0  0  0  0
   36.7280   27.9340   44.1830 H   0  0  0  0  0  0  0  0  0  0  0  0
   36.9110   29.8040   42.5530 H   0  0  0  0  0  0  0  0  0  0  0  0
   38.4550   24.1420   41.1700 C   0  0  0  0  0  0  0  0  0  0  0  0
   37.3100   24.8590   40.8910 C   0  0  0  0  0  0  0  0  0  0  0  0
   36.2620   24.3420   40.1570 C   0  0  0  0  0  0  0  0  0  0  0  0
   35.3610   24.9340   39.9490 H   0  0  0  0  0  0  0  0  0  0  0  0
   36.3360   23.0400   39.6620 C   0  0  0  0  0  0  0  0  0  0  0  0
   35.4820   22.6930   39.0960 H   0  0  0  0  0  0  0  0  0  0  0  0
   37.4680   22.2940   39.9230 C   0  0  0  0  0  3  0  0  0  0  0  0
   38.4990   22.8410   40.6610 C   0  0  0  0  0  3  0  0  0  0  0  0
   40.4400   25.1240   42.5410 N   0  0  0  0  0  0  0  0  0  0  0  0
   39.5440   24.6850   41.9340 C   0  0  0  0  0  0  0  0  0  0  0  0
  2  1  1  0  0  0  0
  3  2  1  0  0  0  0
  3 25  1  0  0  0  0
  4  3  2  0  0  0  0
  5  6  2  0  0  0  0
  5  4  1  0  0  0  0
  6  7  1  0  0  0  0
  7 11  1  0  0  0  0
  7  2  2  0  0  0  0
  8  4  1  0  0  0  0
  9  5  1  0  0  0  0
 10  6  1  0  0  0  0
 11 16  1  0  0  0  0
 12 13  1  0  0  0  0
 12 11  2  0  0  0  0
 13 14  2  0  0  0  0
 14 19  1  0  0  0  0
 14 15  1  0  0  0  0
 15 20  1  0  0  0  0
 16 15  2  0  0  0  0
 16 21  1  0  0  0  0
 17 12  1  0  0  0  0
 18 13  1  0  0  0  0
 22 21  1  0  0  0  0
 23 29  1  0  0  0  0
 24 30  1  0  0  0  0
 24 23  2  0  0  0  0
 25 24  1  0  0  0  0
 26 25  2  0  0  0  0
 26 27  1  0  0  0  0
 27 28  2  0  0  0  0
 28 23  1  0  0  0  0
 31 40  1  0  0  0  0
 32 31  1  0  0  0  0
 32 27  1  0  0  0  0
 33 32  2  0  0  0  0
 34 33  1  0  0  0  0
 35 37  2  0  0  0  0
 35 33  1  0  0  0  0
 36 35  1  0  0  0  0
 37 38  1  0  0  0  0
 38 31  2  0  0  0  0
 40 39  3  0  0  0  0
M  END
>  <minimizedAffinity>
-6.48308277

$$$$

 OpenBabel03242522323D

 40 43  0  0  0  0  0  0  0  0999 V2000
   40.6500   31.0100   38.5630 F   0  0  0  0  0  0  0  0  0  0  0  0
   40.1510   32.1590   39.0840 C   0  0  0  0  0  0  0  0  0  0  0  0
   38.8370   32.2830   39.3650 C   0  0  0  0  0  0  0  0  0  0  0  0
   38.4150   33.4940   39.8940 C   0  0  0  0  0  0  0  0  0  0  0  0
   39.2730   34.5360   40.1320 C   0  0  0  0  0  0  0  0  0  0  0  0
   40.5920   34.3340   39.8220 C   0  0  0  0  0  0  0  0  0  0  0  0
   41.0630   33.1700   39.3010 C   0  0  0  0  0  0  0  0  0  0  0  0
   37.3490   33.5820   40.1180 H   0  0  0  0  0  0  0  0  0  0  0  0
   38.8670   35.4350   40.5430 H   0  0  0  0  0  0  0  0  0  0  0  0
   41.2690   35.1640   40.0120 H   0  0  0  0  0  0  0  0  0  0  0  0
   42.4770   33.0790   39.0150 C   0  0  0  0  0  0  0  0  0  0  0  0
   43.3320   32.5270   39.9590 C   0  0  0  0  0  0  0  0  0  0  0  0
   44.6640   32.4430   39.6770 C   0  0  0  0  0  0  0  0  0  0  0  0
   45.1710   32.9000   38.4640 C   0  0  0  0  0  0  0  0  0  0  0  0
   44.2670   33.4460   37.5500 C   0  0  0  0  0  0  0  0  0  0  0  0
   42.9210   33.5370   37.8200 C   0  0  0  0  0  0  0  0  0  0  0  0
   42.8890   32.1780   40.9040 H   0  0  0  0  0  0  0  0  0  0  0  0
   45.2750   32.0030   40.4550 H   0  0  0  0  0  0  0  0  0  0  0  0
   46.2350   32.8050   38.3000 H   0  0  0  0  0  0  0  0  0  0  0  0
   44.7800   33.7620   36.6520 H   0  0  0  0  0  0  0  0  0  0  0  0
   42.2560   34.1040   36.7760 O   0  0  0  0  0  0  0  0  0  0  0  0
   42.1030   33.5620   35.9320 H   0  0  0  0  0  0  0  0  0  0  0  0
   36.3170   29.9720   37.7560 C   0  0  0  0  0  0  0  0  0  0  0  0
   37.1480   31.0720   37.9780 C   0  0  0  0  0  0  0  0  0  0  0  0
   37.9500   31.1410   39.0970 C   0  0  0  0  0  0  0  0  0  0  0  0
   37.8740   30.0880   39.9430 N   0  0  0  0  0  0  0  0  0  0  0  0
   37.0850   29.0390   39.7320 C   0  0  0  0  0  0  0  0  0  0  0  0
   36.3030   28.9790   38.6360 N   0  0  0  0  0  0  0  0  0  0  0  0
   35.6820   29.9160   36.8700 H   0  0  0  0  0  0  0  0  0  0  0  0
   37.1570   31.8820   37.2550 H   0  0  0  0  0  0  0  0  0  0  0  0
   37.6260   26.7400   40.3720 C   0  0  0  0  0  0  0  0  0  0  0  0
   37.0920   27.9640   40.7210 C   0  0  0  0  0  0  0  0  0  0  0  0
   36.5610   28.2230   41.9690 C   0  0  0  0  0  0  0  0  0  0  0  0
   36.1430   29.2060   42.2210 H   0  0  0  0  0  0  0  0  0  0  0  0
   36.5510   27.2210   42.9400 C   0  0  0  0  0  0  0  0  0  0  0  0
   36.1220   27.4870   43.8970 H   0  0  0  0  0  0  0  0  0  0  0  0
   37.0770   25.9840   42.6240 C   0  0  0  0  0  3  0  0  0  0  0  0
   37.6000   25.7590   41.3660 C   0  0  0  0  0  3  0  0  0  0  0  0
   38.6400   26.2560   38.0230 N   0  0  0  0  0  0  0  0  0  0  0  0
   38.1770   26.4760   39.0730 C   0  0  0  0  0  0  0  0  0  0  0  0
  1  2  1  0  0  0  0
  2  7  2  0  0  0  0
  2  3  1  0  0  0  0
  3  4  2  0  0  0  0
  4  8  1  0  0  0  0
  4  5  1  0  0  0  0
  5  9  1  0  0  0  0
  6 10  1  0  0  0  0
  6  5  2  0  0  0  0
  7  6  1  0  0  0  0
 11  7  1  0  0  0  0
 11 12  1  0  0  0  0
 12 17  1  0  0  0  0
 13 12  2  0  0  0  0
 13 18  1  0  0  0  0
 14 13  1  0  0  0  0
 15 16  1  0  0  0  0
 15 14  2  0  0  0  0
 16 11  2  0  0  0  0
 19 14  1  0  0  0  0
 20 15  1  0  0  0  0
 21 16  1  0  0  0  0
 22 21  1  0  0  0  0
 23 24  2  0  0  0  0
 23 28  1  0  0  0  0
 24 25  1  0  0  0  0
 25  3  1  0  0  0  0
 25 26  2  0  0  0  0
 27 26  1  0  0  0  0
 27 32  1  0  0  0  0
 28 27  2  0  0  0  0
 29 23  1  0  0  0  0
 30 24  1  0  0  0  0
 31 32  2  0  0  0  0
 31 38  1  0  0  0  0
 32 33  1  0  0  0  0
 33 34  1  0  0  0  0
 33 35  2  0  0  0  0
 35 36  1  0  0  0  0
 37 35  1  0  0  0  0
 38 37  2  0  0  0  0
 39 40  3  0  0  0  0
 40 31  1  0  0  0  0
M  END
>  <minimizedAffinity>
-6.47598076

$$$$

 OpenBabel03242522323D

 40 43  0  0  0  0  0  0  0  0999 V2000
   34.1440   29.5900   37.4720 F   0  0  0  0  0  0  0  0  0  0  0  0
   33.5700   28.4630   36.9820 C   0  0  0  0  0  0  0  0  0  0  0  0
   34.2260   27.2840   36.9970 C   0  0  0  0  0  0  0  0  0  0  0  0
   33.5630   26.1840   36.4730 C   0  0  0  0  0  0  0  0  0  0  0  0
   32.2960   26.2610   35.9580 C   0  0  0  0  0  0  0  0  0  0  0  0
   31.6940   27.4920   35.9780 C   0  0  0  0  0  0  0  0  0  0  0  0
   32.2950   28.6050   36.4770 C   0  0  0  0  0  0  0  0  0  0  0  0
   34.1050   25.2350   36.4910 H   0  0  0  0  0  0  0  0  0  0  0  0
   31.8560   25.3660   35.5750 H   0  0  0  0  0  0  0  0  0  0  0  0
   30.6880   27.5480   35.5680 H   0  0  0  0  0  0  0  0  0  0  0  0
   31.5560   29.8470   36.4440 C   0  0  0  0  0  0  0  0  0  0  0  0
   31.5470   30.6080   35.2830 C   0  0  0  0  0  0  0  0  0  0  0  0
   30.8440   31.7760   35.2640 C   0  0  0  0  0  0  0  0  0  0  0  0
   30.1400   32.2100   36.3830 C   0  0  0  0  0  0  0  0  0  0  0  0
   30.1830   31.4060   37.5240 C   0  0  0  0  0  0  0  0  0  0  0  0
   30.8870   30.2250   37.5600 C   0  0  0  0  0  0  0  0  0  0  0  0
   32.1170   30.2280   34.4220 H   0  0  0  0  0  0  0  0  0  0  0  0
   30.8790   32.3210   34.3280 H   0  0  0  0  0  0  0  0  0  0  0  0
   29.6020   33.1440   36.3040 H   0  0  0  0  0  0  0  0  0  0  0  0
   29.6000   31.8480   38.3210 H   0  0  0  0  0  0  0  0  0  0  0  0
   30.7720   29.6300   38.7790 O   0  0  0  0  0  0  0  0  0  0  0  0
   29.8990   29.1770   39.0290 H   0  0  0  0  0  0  0  0  0  0  0  0
   37.9770   26.9840   37.3570 C   0  0  0  0  0  0  0  0  0  0  0  0
   36.7030   27.0160   36.7870 C   0  0  0  0  0  0  0  0  0  0  0  0
   35.5840   27.2440   37.5610 C   0  0  0  0  0  0  0  0  0  0  0  0
   35.8090   27.4280   38.8830 N   0  0  0  0  0  0  0  0  0  0  0  0
   37.0220   27.3980   39.4270 C   0  0  0  0  0  0  0  0  0  0  0  0
   38.1100   27.1750   38.6630 N   0  0  0  0  0  0  0  0  0  0  0  0
   38.8620   26.8050   36.7440 H   0  0  0  0  0  0  0  0  0  0  0  0
   36.5970   26.8590   35.7170 H   0  0  0  0  0  0  0  0  0  0  0  0
   37.0820   26.5200   41.7090 C   0  0  0  0  0  0  0  0  0  0  0  0
   37.1340   27.6120   40.8680 C   0  0  0  0  0  0  0  0  0  0  0  0
   37.2880   28.9050   41.3230 C   0  0  0  0  0  0  0  0  0  0  0  0
   37.3270   29.7570   40.6320 H   0  0  0  0  0  0  0  0  0  0  0  0
   37.3980   29.1500   42.6930 C   0  0  0  0  0  0  0  0  0  0  0  0
   37.5170   30.1840   42.9860 H   0  0  0  0  0  0  0  0  0  0  0  0
   37.3500   28.0800   43.5640 C   0  0  0  0  0  3  0  0  0  0  0  0
   37.1950   26.7980   43.0740 C   0  0  0  0  0  3  0  0  0  0  0  0
   36.7760   24.0820   40.8490 N   0  0  0  0  0  0  0  0  0  0  0  0
   36.9220   25.1770   41.2290 C   0  0  0  0  0  0  0  0  0  0  0  0
  2  3  1  0  0  0  0
  2  1  1  0  0  0  0
  3 25  1  0  0  0  0
  4  8  1  0  0  0  0
  4  3  2  0  0  0  0
  5  6  2  0  0  0  0
  5  4  1  0  0  0  0
  6  7  1  0  0  0  0
  7  2  2  0  0  0  0
  9  5  1  0  0  0  0
 10  6  1  0  0  0  0
 11  7  1  0  0  0  0
 11 16  1  0  0  0  0
 12 11  2  0  0  0  0
 13 12  1  0  0  0  0
 13 14  2  0  0  0  0
 14 15  1  0  0  0  0
 15 16  2  0  0  0  0
 15 20  1  0  0  0  0
 16 21  1  0  0  0  0
 17 12  1  0  0  0  0
 18 13  1  0  0  0  0
 19 14  1  0  0  0  0
 21 22  1  0  0  0  0
 23 28  1  0  0  0  0
 24 23  2  0  0  0  0
 24 25  1  0  0  0  0
 25 26  2  0  0  0  0
 26 27  1  0  0  0  0
 27 32  1  0  0  0  0
 28 27  2  0  0  0  0
 29 23  1  0  0  0  0
 30 24  1  0  0  0  0
 31 38  1  0  0  0  0
 32 33  1  0  0  0  0
 32 31  2  0  0  0  0
 33 35  2  0  0  0  0
 34 33  1  0  0  0  0
 35 36  1  0  0  0  0
 35 37  1  0  0  0  0
 38 37  2  0  0  0  0
 39 40  3  0  0  0  0
 40 31  1  0  0  0  0
M  END
>  <minimizedAffinity>
-6.4363575

$$$$

 OpenBabel03242522323D

 40 43  0  0  0  0  0  0  0  0999 V2000
   37.9030   27.8900   39.7820 F   0  0  0  0  0  0  0  0  0  0  0  0
   37.7840   27.8790   41.1330 C   0  0  0  0  0  0  0  0  0  0  0  0
   37.6180   26.7220   41.8080 C   0  0  0  0  0  0  0  0  0  0  0  0
   37.5040   26.8060   43.1880 C   0  0  0  0  0  0  0  0  0  0  0  0
   37.5540   27.9970   43.8630 C   0  0  0  0  0  0  0  0  0  0  0  0
   37.7260   29.1290   43.1090 C   0  0  0  0  0  0  0  0  0  0  0  0
   37.8430   29.1080   41.7550 C   0  0  0  0  0  0  0  0  0  0  0  0
   37.3690   25.8630   43.7230 H   0  0  0  0  0  0  0  0  0  0  0  0
   37.4590   27.9750   44.9270 H   0  0  0  0  0  0  0  0  0  0  0  0
   37.7650   30.0720   43.6490 H   0  0  0  0  0  0  0  0  0  0  0  0
   38.0210   30.3690   41.0710 C   0  0  0  0  0  0  0  0  0  0  0  0
   39.2860   30.7390   40.6330 C   0  0  0  0  0  0  0  0  0  0  0  0
   39.4400   31.9300   39.9870 C   0  0  0  0  0  0  0  0  0  0  0  0
   38.3540   32.7700   39.7610 C   0  0  0  0  0  0  0  0  0  0  0  0
   37.1050   32.3490   40.2210 C   0  0  0  0  0  0  0  0  0  0  0  0
   36.9330   31.1520   40.8750 C   0  0  0  0  0  0  0  0  0  0  0  0
   40.1150   30.0440   40.8330 H   0  0  0  0  0  0  0  0  0  0  0  0
   40.4510   32.1570   39.6730 H   0  0  0  0  0  0  0  0  0  0  0  0
   38.5420   33.7000   39.2420 H   0  0  0  0  0  0  0  0  0  0  0  0
   36.3470   33.0850   39.9860 H   0  0  0  0  0  0  0  0  0  0  0  0
   35.6280   30.9730   41.2210 O   0  0  0  0  0  0  0  0  0  0  0  0
   34.9520   30.7370   40.5020 H   0  0  0  0  0  0  0  0  0  0  0  0
   38.5780   23.4400   40.1990 C   0  0  0  0  0  0  0  0  0  0  0  0
   38.6590   24.6260   40.9310 C   0  0  0  0  0  0  0  0  0  0  0  0
   37.5710   25.4650   41.0460 C   0  0  0  0  0  0  0  0  0  0  0  0
   36.4460   25.0620   40.4110 N   0  0  0  0  0  0  0  0  0  0  0  0
   36.3670   23.9330   39.7130 C   0  0  0  0  0  0  0  0  0  0  0  0
   37.4360   23.1180   39.6060 N   0  0  0  0  0  0  0  0  0  0  0  0
   39.4390   22.7750   40.1090 H   0  0  0  0  0  0  0  0  0  0  0  0
   39.5960   24.8860   41.4150 H   0  0  0  0  0  0  0  0  0  0  0  0
   34.8260   24.1280   37.8240 C   0  0  0  0  0  0  0  0  0  0  0  0
   35.0950   23.6080   39.0730 C   0  0  0  0  0  0  0  0  0  0  0  0
   34.2140   22.7900   39.7510 C   0  0  0  0  0  0  0  0  0  0  0  0
   34.4540   22.3890   40.7450 H   0  0  0  0  0  0  0  0  0  0  0  0
   32.9900   22.4580   39.1720 C   0  0  0  0  0  0  0  0  0  0  0  0
   32.3440   21.8130   39.7540 H   0  0  0  0  0  0  0  0  0  0  0  0
   32.6870   22.9620   37.9230 C   0  0  0  0  0  3  0  0  0  0  0  0
   33.5910   23.7770   37.2710 C   0  0  0  0  0  3  0  0  0  0  0  0
   36.5070   25.6600   36.5560 N   0  0  0  0  0  0  0  0  0  0  0  0
   35.7460   24.9790   37.1230 C   0  0  0  0  0  0  0  0  0  0  0  0
  1  2  1  0  0  0  0
  2  7  2  0  0  0  0
  2  3  1  0  0  0  0
  3  4  2  0  0  0  0
  4  8  1  0  0  0  0
  4  5  1  0  0  0  0
  5  9  1  0  0  0  0
  6 10  1  0  0  0  0
  6  5  2  0  0  0  0
  7  6  1  0  0  0  0
 11  7  1  0  0  0  0
 12 17  1  0  0  0  0
 12 11  2  0  0  0  0
 13 12  1  0  0  0  0
 14 13  2  0  0  0  0
 14 15  1  0  0  0  0
 15 16  2  0  0  0  0
 16 11  1  0  0  0  0
 16 21  1  0  0  0  0
 18 13  1  0  0  0  0
 19 14  1  0  0  0  0
 20 15  1  0  0  0  0
 22 21  1  0  0  0  0
 23 24  1  0  0  0  0
 24 25  2  0  0  0  0
 24 30  1  0  0  0  0
 25  3  1  0  0  0  0
 26 25  1  0  0  0  0
 27 26  2  0  0  0  0
 28 27  1  0  0  0  0
 28 23  2  0  0  0  0
 29 23  1  0  0  0  0
 31 32  1  0  0  0  0
 32 27  1  0  0  0  0
 32 33  2  0  0  0  0
 33 34  1  0  0  0  0
 35 33  1  0  0  0  0
 35 36  1  0  0  0  0
 37 35  2  0  0  0  0
 38 31  2  0  0  0  0
 38 37  1  0  0  0  0
 39 40  3  0  0  0  0
 40 31  1  0  0  0  0
M  END
>  <minimizedAffinity>
-6.40559959

$$$$

 OpenBabel03242522323D

 40 43  0  0  0  0  0  0  0  0999 V2000
   35.0110   27.9350   39.5730 F   0  0  0  0  0  0  0  0  0  0  0  0
   35.9560   28.5590   38.8270 C   0  0  0  0  0  0  0  0  0  0  0  0
   35.7200   28.8950   37.5410 C   0  0  0  0  0  0  0  0  0  0  0  0
   36.7440   29.5290   36.8540 C   0  0  0  0  0  0  0  0  0  0  0  0
   37.9540   29.8160   37.4300 C   0  0  0  0  0  0  0  0  0  0  0  0
   38.1190   29.4450   38.7390 C   0  0  0  0  0  0  0  0  0  0  0  0
   37.1520   28.8210   39.4620 C   0  0  0  0  0  0  0  0  0  0  0  0
   36.5400   29.7960   35.8140 H   0  0  0  0  0  0  0  0  0  0  0  0
   38.6900   30.3070   36.8310 H   0  0  0  0  0  0  0  0  0  0  0  0
   39.0810   29.6750   39.1920 H   0  0  0  0  0  0  0  0  0  0  0  0
   37.4460   28.4800   40.8360 C   0  0  0  0  0  0  0  0  0  0  0  0
   38.2580   27.3890   41.1130 C   0  0  0  0  0  0  0  0  0  0  0  0
   38.5300   27.0800   42.4130 C   0  0  0  0  0  0  0  0  0  0  0  0
   38.0080   27.8400   43.4560 C   0  0  0  0  0  0  0  0  0  0  0  0
   37.1980   28.9270   43.1210 C   0  0  0  0  0  0  0  0  0  0  0  0
   36.9140   29.2510   41.8150 C   0  0  0  0  0  0  0  0  0  0  0  0
   38.6490   26.8170   40.2580 H   0  0  0  0  0  0  0  0  0  0  0  0
   39.1690   26.2180   42.5590 H   0  0  0  0  0  0  0  0  0  0  0  0
   38.2620   27.5450   44.4650 H   0  0  0  0  0  0  0  0  0  0  0  0
   36.8560   29.4340   44.0130 H   0  0  0  0  0  0  0  0  0  0  0  0
   36.1060   30.3450   41.7530 O   0  0  0  0  0  0  0  0  0  0  0  0
   36.4960   31.2610   41.9510 H   0  0  0  0  0  0  0  0  0  0  0  0
   32.7360   27.0040   36.1970 C   0  0  0  0  0  0  0  0  0  0  0  0
   33.9890   27.2740   36.7510 C   0  0  0  0  0  0  0  0  0  0  0  0
   34.4080   28.5710   36.9610 C   0  0  0  0  0  0  0  0  0  0  0  0
   33.5340   29.5390   36.5980 N   0  0  0  0  0  0  0  0  0  0  0  0
   32.3400   29.2830   36.0710 C   0  0  0  0  0  0  0  0  0  0  0  0
   31.9390   28.0120   35.8700 N   0  0  0  0  0  0  0  0  0  0  0  0
   32.4040   25.9770   36.0320 H   0  0  0  0  0  0  0  0  0  0  0  0
   34.6390   26.4460   37.0190 H   0  0  0  0  0  0  0  0  0  0  0  0
   30.6020   30.8990   36.6620 C   0  0  0  0  0  0  0  0  0  0  0  0
   31.4870   30.4160   35.7210 C   0  0  0  0  0  0  0  0  0  0  0  0
   31.6060   30.9530   34.4560 C   0  0  0  0  0  0  0  0  0  0  0  0
   32.3200   30.5500   33.7260 H   0  0  0  0  0  0  0  0  0  0  0  0
   30.8080   32.0360   34.0840 C   0  0  0  0  0  0  0  0  0  0  0  0
   30.9500   32.4130   33.0800 H   0  0  0  0  0  0  0  0  0  0  0  0
   29.9110   32.5450   35.0010 C   0  0  0  0  0  3  0  0  0  0  0  0
   29.8170   31.9830   36.2590 C   0  0  0  0  0  3  0  0  0  0  0  0
   30.3670   29.8840   39.0480 N   0  0  0  0  0  0  0  0  0  0  0  0
   30.4810   30.3350   37.9770 C   0  0  0  0  0  0  0  0  0  0  0  0
  2  7  1  0  0  0  0
  2  1  1  0  0  0  0
  3  2  2  0  0  0  0
  4  5  2  0  0  0  0
  4  3  1  0  0  0  0
  5  6  1  0  0  0  0
  6 10  1  0  0  0  0
  6  7  2  0  0  0  0
  7 11  1  0  0  0  0
  8  4  1  0  0  0  0
  9  5  1  0  0  0  0
 11 12  2  0  0  0  0
 11 16  1  0  0  0  0
 12 13  1  0  0  0  0
 13 18  1  0  0  0  0
 13 14  2  0  0  0  0
 14 19  1  0  0  0  0
 15 14  1  0  0  0  0
 15 20  1  0  0  0  0
 16 15  2  0  0  0  0
 17 12  1  0  0  0  0
 21 16  1  0  0  0  0
 21 22  1  0  0  0  0
 23 24  1  0  0  0  0
 24 25  2  0  0  0  0
 24 30  1  0  0  0  0
 25  3  1  0  0  0  0
 26 25  1  0  0  0  0
 27 26  2  0  0  0  0
 28 27  1  0  0  0  0
 28 23  2  0  0  0  0
 29 23  1  0  0  0  0
 31 40  1  0  0  0  0
 32 27  1  0  0  0  0
 32 31  2  0  0  0  0
 33 32  1  0  0  0  0
 34 33  1  0  0  0  0
 35 33  2  0  0  0  0
 35 37  1  0  0  0  0
 36 35  1  0  0  0  0
 37 38  2  0  0  0  0
 38 31  1  0  0  0  0
 40 39  3  0  0  0  0
M  END
>  <minimizedAffinity>
-6.40362358

$$$$

 OpenBabel03242522323D

 40 43  0  0  0  0  0  0  0  0999 V2000
   40.5650   30.7070   40.7930 F   0  0  0  0  0  0  0  0  0  0  0  0
   39.3910   31.3200   40.5020 C   0  0  0  0  0  0  0  0  0  0  0  0
   38.2200   30.8460   40.9800 C   0  0  0  0  0  0  0  0  0  0  0  0
   37.0690   31.5350   40.6300 C   0  0  0  0  0  0  0  0  0  0  0  0
   37.0880   32.6510   39.8360 C   0  0  0  0  0  0  0  0  0  0  0  0
   38.3130   33.0720   39.3890 C   0  0  0  0  0  0  0  0  0  0  0  0
   39.4740   32.4370   39.6990 C   0  0  0  0  0  0  0  0  0  0  0  0
   36.1280   31.1420   41.0240 H   0  0  0  0  0  0  0  0  0  0  0  0
   36.1560   33.1240   39.6140 H   0  0  0  0  0  0  0  0  0  0  0  0
   38.3230   33.9580   38.7590 H   0  0  0  0  0  0  0  0  0  0  0  0
   40.7050   32.9780   39.1670 C   0  0  0  0  0  0  0  0  0  0  0  0
   41.6070   33.5980   40.0210 C   0  0  0  0  0  0  0  0  0  0  0  0
   42.7650   34.1020   39.5080 C   0  0  0  0  0  0  0  0  0  0  0  0
   43.0530   34.0010   38.1500 C   0  0  0  0  0  0  0  0  0  0  0  0
   42.1110   33.3680   37.3360 C   0  0  0  0  0  0  0  0  0  0  0  0
   40.9380   32.8550   37.8380 C   0  0  0  0  0  0  0  0  0  0  0  0
   41.3390   33.6550   41.0870 H   0  0  0  0  0  0  0  0  0  0  0  0
   43.4230   34.5730   40.2280 H   0  0  0  0  0  0  0  0  0  0  0  0
   43.9880   34.4200   37.8050 H   0  0  0  0  0  0  0  0  0  0  0  0
   42.4480   33.3530   36.3080 H   0  0  0  0  0  0  0  0  0  0  0  0
   40.1940   32.2910   36.8470 O   0  0  0  0  0  0  0  0  0  0  0  0
   40.4800   31.3980   36.4600 H   0  0  0  0  0  0  0  0  0  0  0  0
   37.2030   28.0820   43.3480 C   0  0  0  0  0  0  0  0  0  0  0  0
   37.1450   29.2250   42.5490 C   0  0  0  0  0  0  0  0  0  0  0  0
   38.2440   29.6470   41.8310 C   0  0  0  0  0  0  0  0  0  0  0  0
   39.3570   28.8870   41.9560 N   0  0  0  0  0  0  0  0  0  0  0  0
   39.4140   27.7970   42.7160 C   0  0  0  0  0  0  0  0  0  0  0  0
   38.3340   27.3920   43.4140 N   0  0  0  0  0  0  0  0  0  0  0  0
   36.3330   27.7470   43.9160 H   0  0  0  0  0  0  0  0  0  0  0  0
   36.2160   29.7870   42.4970 H   0  0  0  0  0  0  0  0  0  0  0  0
   40.8800   26.0280   41.8760 C   0  0  0  0  0  0  0  0  0  0  0  0
   40.6740   27.0610   42.7680 C   0  0  0  0  0  0  0  0  0  0  0  0
   41.6080   27.4350   43.7120 C   0  0  0  0  0  0  0  0  0  0  0  0
   41.4190   28.2610   44.4100 H   0  0  0  0  0  0  0  0  0  0  0  0
   42.8240   26.7560   43.7930 C   0  0  0  0  0  0  0  0  0  0  0  0
   43.5140   27.0970   44.5530 H   0  0  0  0  0  0  0  0  0  0  0  0
   43.0630   25.7170   42.9160 C   0  0  0  0  0  3  0  0  0  0  0  0
   42.1080   25.3680   41.9820 C   0  0  0  0  0  3  0  0  0  0  0  0
   39.1010   25.3220   40.1110 N   0  0  0  0  0  0  0  0  0  0  0  0
   39.9050   25.6430   40.8960 C   0  0  0  0  0  0  0  0  0  0  0  0
  2  1  1  0  0  0  0
  2  3  1  0  0  0  0
  3 25  1  0  0  0  0
  4  3  2  0  0  0  0
  4  8  1  0  0  0  0
  5  4  1  0  0  0  0
  6  7  1  0  0  0  0
  6  5  2  0  0  0  0
  7  2  2  0  0  0  0
  9  5  1  0  0  0  0
 10  6  1  0  0  0  0
 11  7  1  0  0  0  0
 11 12  1  0  0  0  0
 12 17  1  0  0  0  0
 13 12  2  0  0  0  0
 13 18  1  0  0  0  0
 14 13  1  0  0  0  0
 15 16  1  0  0  0  0
 15 14  2  0  0  0  0
 16 11  2  0  0  0  0
 19 14  1  0  0  0  0
 20 15  1  0  0  0  0
 21 16  1  0  0  0  0
 22 21  1  0  0  0  0
 23 28  1  0  0  0  0
 23 29  1  0  0  0  0
 24 23  2  0  0  0  0
 25 26  2  0  0  0  0
 25 24  1  0  0  0  0
 26 27  1  0  0  0  0
 27 32  1  0  0  0  0
 27 28  2  0  0  0  0
 30 24  1  0  0  0  0
 31 38  2  0  0  0  0
 31 32  1  0  0  0  0
 32 33  2  0  0  0  0
 33 35  1  0  0  0  0
 33 34  1  0  0  0  0
 35 36  1  0  0  0  0
 37 35  2  0  0  0  0
 38 37  1  0  0  0  0
 39 40  3  0  0  0  0
 40 31  1  0  0  0  0
M  END
>  <minimizedAffinity>
-6.40201712

$$$$

 OpenBabel03242522323D

 40 43  0  0  0  0  0  0  0  0999 V2000
   40.4410   30.4580   40.5790 F   0  0  0  0  0  0  0  0  0  0  0  0
   39.2980   31.1580   40.3740 C   0  0  0  0  0  0  0  0  0  0  0  0
   38.1090   30.6960   40.8190 C   0  0  0  0  0  0  0  0  0  0  0  0
   36.9920   31.4770   40.5620 C   0  0  0  0  0  0  0  0  0  0  0  0
   37.0600   32.6680   39.8890 C   0  0  0  0  0  0  0  0  0  0  0  0
   38.3010   33.0710   39.4690 C   0  0  0  0  0  0  0  0  0  0  0  0
   39.4310   32.3480   39.6910 C   0  0  0  0  0  0  0  0  0  0  0  0
   36.0360   31.0920   40.9280 H   0  0  0  0  0  0  0  0  0  0  0  0
   36.1520   33.2080   39.7340 H   0  0  0  0  0  0  0  0  0  0  0  0
   38.3500   34.0170   38.9350 H   0  0  0  0  0  0  0  0  0  0  0  0
   40.6820   32.8790   39.1990 C   0  0  0  0  0  0  0  0  0  0  0  0
   41.5940   33.4240   40.0920 C   0  0  0  0  0  0  0  0  0  0  0  0
   42.7720   33.9180   39.6160 C   0  0  0  0  0  0  0  0  0  0  0  0
   43.0690   33.8830   38.2560 C   0  0  0  0  0  0  0  0  0  0  0  0
   42.1160   33.3230   37.4020 C   0  0  0  0  0  0  0  0  0  0  0  0
   40.9240   32.8200   37.8670 C   0  0  0  0  0  0  0  0  0  0  0  0
   41.3190   33.4310   41.1570 H   0  0  0  0  0  0  0  0  0  0  0  0
   43.4380   34.3290   40.3650 H   0  0  0  0  0  0  0  0  0  0  0  0
   44.0200   34.2900   37.9410 H   0  0  0  0  0  0  0  0  0  0  0  0
   42.4620   33.3540   36.3770 H   0  0  0  0  0  0  0  0  0  0  0  0
   40.1720   32.3340   36.8410 O   0  0  0  0  0  0  0  0  0  0  0  0
   40.4340   31.4540   36.4080 H   0  0  0  0  0  0  0  0  0  0  0  0
   38.0690   28.1000   43.5650 C   0  0  0  0  0  0  0  0  0  0  0  0
   38.0980   29.3350   42.9150 C   0  0  0  0  0  0  0  0  0  0  0  0
   38.0790   29.4140   41.5380 C   0  0  0  0  0  0  0  0  0  0  0  0
   38.0330   28.2320   40.8810 N   0  0  0  0  0  0  0  0  0  0  0  0
   38.0040   27.0550   41.4980 C   0  0  0  0  0  0  0  0  0  0  0  0
   38.0220   26.9870   42.8440 N   0  0  0  0  0  0  0  0  0  0  0  0
   38.0830   28.0380   44.6540 H   0  0  0  0  0  0  0  0  0  0  0  0
   38.1360   30.2450   43.5080 H   0  0  0  0  0  0  0  0  0  0  0  0
   39.1200   25.1460   40.4510 C   0  0  0  0  0  0  0  0  0  0  0  0
   37.9540   25.8490   40.6760 C   0  0  0  0  0  0  0  0  0  0  0  0
   36.7340   25.4650   40.1570 C   0  0  0  0  0  0  0  0  0  0  0  0
   35.8200   26.0420   40.3520 H   0  0  0  0  0  0  0  0  0  0  0  0
   36.6460   24.3190   39.3670 C   0  0  0  0  0  0  0  0  0  0  0  0
   35.6620   24.0710   38.9910 H   0  0  0  0  0  0  0  0  0  0  0  0
   37.7930   23.5920   39.1210 C   0  0  0  0  0  3  0  0  0  0  0  0
   38.9980   24.0040   39.6550 C   0  0  0  0  0  3  0  0  0  0  0  0
   41.4180   25.8640   41.4420 N   0  0  0  0  0  0  0  0  0  0  0  0
   40.3860   25.5510   40.9920 C   0  0  0  0  0  0  0  0  0  0  0  0
  2  1  1  0  0  0  0
  2  3  1  0  0  0  0
  3 25  1  0  0  0  0
  4  3  2  0  0  0  0
  4  8  1  0  0  0  0
  5  4  1  0  0  0  0
  6  7  1  0  0  0  0
  6  5  2  0  0  0  0
  7  2  2  0  0  0  0
  9  5  1  0  0  0  0
 10  6  1  0  0  0  0
 11  7  1  0  0  0  0
 11 12  1  0  0  0  0
 12 17  1  0  0  0  0
 13 12  2  0  0  0  0
 13 18  1  0  0  0  0
 14 13  1  0  0  0  0
 15 16  1  0  0  0  0
 15 14  2  0  0  0  0
 16 11  2  0  0  0  0
 19 14  1  0  0  0  0
 20 15  1  0  0  0  0
 21 16  1  0  0  0  0
 22 21  1  0  0  0  0
 23 29  1  0  0  0  0
 24 30  1  0  0  0  0
 24 23  1  0  0  0  0
 25 24  2  0  0  0  0
 26 27  2  0  0  0  0
 26 25  1  0  0  0  0
 27 28  1  0  0  0  0
 28 23  2  0  0  0  0
 31 32  1  0  0  0  0
 31 40  1  0  0  0  0
 32 27  1  0  0  0  0
 33 34  1  0  0  0  0
 33 32  2  0  0  0  0
 35 33  1  0  0  0  0
 36 35  1  0  0  0  0
 37 35  2  0  0  0  0
 37 38  1  0  0  0  0
 38 31  2  0  0  0  0
 40 39  3  0  0  0  0
M  END
>  <minimizedAffinity>
-6.38882494

$$$$

 OpenBabel03242522323D

 40 43  0  0  0  0  0  0  0  0999 V2000
   38.6950   29.9480   40.9770 F   0  0  0  0  0  0  0  0  0  0  0  0
   37.8530   29.8700   39.9170 C   0  0  0  0  0  0  0  0  0  0  0  0
   37.6470   30.9340   39.1110 C   0  0  0  0  0  0  0  0  0  0  0  0
   36.7690   30.7640   38.0510 C   0  0  0  0  0  0  0  0  0  0  0  0
   36.1240   29.5800   37.8070 C   0  0  0  0  0  0  0  0  0  0  0  0
   36.3850   28.5460   38.6680 C   0  0  0  0  0  0  0  0  0  0  0  0
   37.2340   28.6540   39.7230 C   0  0  0  0  0  0  0  0  0  0  0  0
   36.6110   31.6330   37.4070 H   0  0  0  0  0  0  0  0  0  0  0  0
   35.4640   29.5320   36.9690 H   0  0  0  0  0  0  0  0  0  0  0  0
   35.8710   27.6080   38.4710 H   0  0  0  0  0  0  0  0  0  0  0  0
   37.4280   27.4900   40.5600 C   0  0  0  0  0  0  0  0  0  0  0  0
   38.1760   26.4220   40.0860 C   0  0  0  0  0  0  0  0  0  0  0  0
   38.3530   25.3310   40.8850 C   0  0  0  0  0  0  0  0  0  0  0  0
   37.7980   25.2780   42.1600 C   0  0  0  0  0  0  0  0  0  0  0  0
   37.0550   26.3810   42.5880 C   0  0  0  0  0  0  0  0  0  0  0  0
   36.8670   27.4880   41.7930 C   0  0  0  0  0  0  0  0  0  0  0  0
   38.5960   26.5060   39.0720 H   0  0  0  0  0  0  0  0  0  0  0  0
   38.9460   24.5340   40.4540 H   0  0  0  0  0  0  0  0  0  0  0  0
   37.9760   24.3870   42.7460 H   0  0  0  0  0  0  0  0  0  0  0  0
   36.6800   26.2190   43.5890 H   0  0  0  0  0  0  0  0  0  0  0  0
   36.1100   28.4200   42.4350 O   0  0  0  0  0  0  0  0  0  0  0  0
   36.5240   28.9640   43.1850 H   0  0  0  0  0  0  0  0  0  0  0  0
   38.4410   34.4580   40.2210 C   0  0  0  0  0  0  0  0  0  0  0  0
   37.7330   33.2850   39.9550 C   0  0  0  0  0  0  0  0  0  0  0  0
   38.3600   32.1860   39.4060 C   0  0  0  0  0  0  0  0  0  0  0  0
   39.6810   32.3280   39.1500 N   0  0  0  0  0  0  0  0  0  0  0  0
   40.3570   33.4450   39.4040 C   0  0  0  0  0  0  0  0  0  0  0  0
   39.7370   34.5140   39.9410 N   0  0  0  0  0  0  0  0  0  0  0  0
   37.9460   35.3280   40.6570 H   0  0  0  0  0  0  0  0  0  0  0  0
   36.6720   33.2430   40.1870 H   0  0  0  0  0  0  0  0  0  0  0  0
   42.6770   32.9200   39.9740 C   0  0  0  0  0  0  0  0  0  0  0  0
   41.7820   33.4730   39.0820 C   0  0  0  0  0  0  0  0  0  0  0  0
   42.1700   34.0560   37.8930 C   0  0  0  0  0  0  0  0  0  0  0  0
   41.4360   34.4880   37.2000 H   0  0  0  0  0  0  0  0  0  0  0  0
   43.5210   34.1020   37.5510 C   0  0  0  0  0  0  0  0  0  0  0  0
   43.7610   34.5710   36.6060 H   0  0  0  0  0  0  0  0  0  0  0  0
   44.4450   33.5580   38.4210 C   0  0  0  0  0  3  0  0  0  0  0  0
   44.0230   32.9820   39.6030 C   0  0  0  0  0  3  0  0  0  0  0  0
   41.9530   31.8170   42.2190 N   0  0  0  0  0  0  0  0  0  0  0  0
   42.2690   32.3150   41.2110 C   0  0  0  0  0  0  0  0  0  0  0  0
  2  1  1  0  0  0  0
  3 25  1  0  0  0  0
  3  2  2  0  0  0  0
  4  3  1  0  0  0  0
  5  4  2  0  0  0  0
  5  6  1  0  0  0  0
  6  7  2  0  0  0  0
  7  2  1  0  0  0  0
  7 11  1  0  0  0  0
  8  4  1  0  0  0  0
  9  5  1  0  0  0  0
 10  6  1  0  0  0  0
 11 16  1  0  0  0  0
 12 11  2  0  0  0  0
 12 13  1  0  0  0  0
 13 14  2  0  0  0  0
 14 15  1  0  0  0  0
 14 19  1  0  0  0  0
 15 20  1  0  0  0  0
 16 21  1  0  0  0  0
 16 15  2  0  0  0  0
 17 12  1  0  0  0  0
 18 13  1  0  0  0  0
 21 22  1  0  0  0  0
 23 29  1  0  0  0  0
 24 30  1  0  0  0  0
 24 23  1  0  0  0  0
 25 24  2  0  0  0  0
 26 27  2  0  0  0  0
 26 25  1  0  0  0  0
 27 28  1  0  0  0  0
 28 23  2  0  0  0  0
 31 40  1  0  0  0  0
 32 27  1  0  0  0  0
 32 31  2  0  0  0  0
 33 32  1  0  0  0  0
 34 33  1  0  0  0  0
 35 33  2  0  0  0  0
 35 37  1  0  0  0  0
 36 35  1  0  0  0  0
 37 38  2  0  0  0  0
 38 31  1  0  0  0  0
 40 39  3  0  0  0  0
M  END
>  <minimizedAffinity>
-6.34615231

$$$$

 OpenBabel03242522323D

 40 43  0  0  0  0  0  0  0  0999 V2000
   37.6620   27.7630   39.6600 F   0  0  0  0  0  0  0  0  0  0  0  0
   37.4850   27.7240   41.0040 C   0  0  0  0  0  0  0  0  0  0  0  0
   37.1890   26.5680   41.6350 C   0  0  0  0  0  0  0  0  0  0  0  0
   37.0240   26.6230   43.0110 C   0  0  0  0  0  0  0  0  0  0  0  0
   37.1500   27.7860   43.7250 C   0  0  0  0  0  0  0  0  0  0  0  0
   37.4530   28.9180   43.0160 C   0  0  0  0  0  0  0  0  0  0  0  0
   37.6250   28.9250   41.6670 C   0  0  0  0  0  0  0  0  0  0  0  0
   36.7850   25.6800   43.5100 H   0  0  0  0  0  0  0  0  0  0  0  0
   37.0080   27.7410   44.7830 H   0  0  0  0  0  0  0  0  0  0  0  0
   37.5510   29.8380   43.5860 H   0  0  0  0  0  0  0  0  0  0  0  0
   37.9420   30.1840   41.0310 C   0  0  0  0  0  0  0  0  0  0  0  0
   39.2420   30.4320   40.6110 C   0  0  0  0  0  0  0  0  0  0  0  0
   39.5270   31.6220   40.0100 C   0  0  0  0  0  0  0  0  0  0  0  0
   38.5400   32.5830   39.8130 C   0  0  0  0  0  0  0  0  0  0  0  0
   37.2490   32.2820   40.2550 C   0  0  0  0  0  0  0  0  0  0  0  0
   36.9450   31.0860   40.8630 C   0  0  0  0  0  0  0  0  0  0  0  0
   39.9900   29.6450   40.7860 H   0  0  0  0  0  0  0  0  0  0  0  0
   40.5590   31.7510   39.7070 H   0  0  0  0  0  0  0  0  0  0  0  0
   38.8290   33.5060   39.3300 H   0  0  0  0  0  0  0  0  0  0  0  0
   36.5760   33.1030   40.0460 H   0  0  0  0  0  0  0  0  0  0  0  0
   35.6270   31.0370   41.1980 O   0  0  0  0  0  0  0  0  0  0  0  0
   34.9340   30.9020   40.4690 H   0  0  0  0  0  0  0  0  0  0  0  0
   37.5190   23.0080   40.4100 C   0  0  0  0  0  0  0  0  0  0  0  0
   37.6580   24.1530   41.1980 C   0  0  0  0  0  0  0  0  0  0  0  0
   37.0650   25.3420   40.8320 C   0  0  0  0  0  0  0  0  0  0  0  0
   36.3550   25.3170   39.6800 N   0  0  0  0  0  0  0  0  0  0  0  0
   36.2210   24.2280   38.9300 C   0  0  0  0  0  0  0  0  0  0  0  0
   36.8040   23.0690   39.2950 N   0  0  0  0  0  0  0  0  0  0  0  0
   37.9880   22.0660   40.7000 H   0  0  0  0  0  0  0  0  0  0  0  0
   38.2450   24.0990   42.1110 H   0  0  0  0  0  0  0  0  0  0  0  0
   34.1660   23.7710   37.6830 C   0  0  0  0  0  0  0  0  0  0  0  0
   35.4280   24.3290   37.7070 C   0  0  0  0  0  0  0  0  0  0  0  0
   35.9800   24.9840   36.6250 C   0  0  0  0  0  0  0  0  0  0  0  0
   36.9870   25.4200   36.6710 H   0  0  0  0  0  0  0  0  0  0  0  0
   35.2540   25.1010   35.4400 C   0  0  0  0  0  0  0  0  0  0  0  0
   35.7410   25.6250   34.6290 H   0  0  0  0  0  0  0  0  0  0  0  0
   33.9880   24.5530   35.3810 C   0  0  0  0  0  3  0  0  0  0  0  0
   33.4640   23.9050   36.4820 C   0  0  0  0  0  3  0  0  0  0  0  0
   33.1470   22.5250   39.7290 N   0  0  0  0  0  0  0  0  0  0  0  0
   33.5970   23.0910   38.8120 C   0  0  0  0  0  0  0  0  0  0  0  0
  1  2  1  0  0  0  0
  2  3  2  0  0  0  0
  2  7  1  0  0  0  0
  3  4  1  0  0  0  0
  4  8  1  0  0  0  0
  4  5  2  0  0  0  0
  5  9  1  0  0  0  0
  6 10  1  0  0  0  0
  6  5  1  0  0  0  0
  7  6  2  0  0  0  0
 11  7  1  0  0  0  0
 12 17  1  0  0  0  0
 12 11  2  0  0  0  0
 13 12  1  0  0  0  0
 14 13  2  0  0  0  0
 14 15  1  0  0  0  0
 15 16  2  0  0  0  0
 16 11  1  0  0  0  0
 16 21  1  0  0  0  0
 18 13  1  0  0  0  0
 19 14  1  0  0  0  0
 20 15  1  0  0  0  0
 22 21  1  0  0  0  0
 23 29  1  0  0  0  0
 23 24  1  0  0  0  0
 24 30  1  0  0  0  0
 25 24  2  0  0  0  0
 25  3  1  0  0  0  0
 26 25  1  0  0  0  0
 27 28  1  0  0  0  0
 27 26  2  0  0  0  0
 28 23  2  0  0  0  0
 31 32  1  0  0  0  0
 31 40  1  0  0  0  0
 32 27  1  0  0  0  0
 33 34  1  0  0  0  0
 33 32  2  0  0  0  0
 35 33  1  0  0  0  0
 36 35  1  0  0  0  0
 37 35  2  0  0  0  0
 37 38  1  0  0  0  0
 38 31  2  0  0  0  0
 40 39  3  0  0  0  0
M  END
>  <minimizedAffinity>
-6.26037979

$$$$
