
 OpenBabel03252502083D

 49 53  0  0  0  0  0  0  0  0999 V2000
   45.6640   33.7770   45.3000 C   0  0  0  0  0  0  0  0  0  0  0  0
   44.8700   34.7740   45.7070 N   0  0  0  0  0  0  0  0  0  0  0  0
   44.5420   35.8400   44.9790 C   0  0  0  0  0  0  0  0  0  0  0  0
   45.0220   35.9720   43.7180 N   0  0  0  0  0  0  0  0  0  0  0  0
   45.8270   35.0410   43.1930 C   0  0  0  0  0  0  0  0  0  0  0  0
   46.3210   35.1680   41.9150 C   0  0  0  0  0  0  0  0  0  0  0  0
   47.1430   34.2290   41.3660 C   0  0  0  0  0  0  0  0  0  0  0  0
   47.4640   33.1370   42.1490 C   0  0  0  0  0  0  0  0  0  0  0  0
   46.9430   33.0510   43.4310 C   0  0  0  0  0  0  0  0  0  0  0  0
   46.1280   33.9610   44.0040 C   0  0  0  0  0  0  0  0  0  0  0  0
   43.8880   36.5830   45.4220 H   0  0  0  0  0  0  0  0  0  0  0  0
   46.0530   36.0340   41.3250 H   0  0  0  0  0  0  0  0  0  0  0  0
   47.5010   34.3800   40.3600 H   0  0  0  0  0  0  0  0  0  0  0  0
   47.5800   31.9860   47.7880 C   0  0  0  0  0  0  0  0  0  0  0  0
   47.0450   30.6960   47.8380 C   0  0  0  0  0  0  0  0  0  0  0  0
   45.9870   30.4320   47.0050 C   0  0  0  0  0  0  0  0  0  0  0  0
   45.5270   31.3860   46.2010 N   0  0  0  0  0  0  0  0  0  0  0  0
   46.0160   32.6060   46.1350 C   0  0  0  0  0  0  0  0  0  0  0  0
   47.0580   32.8900   46.9490 N   0  0  0  0  0  0  0  0  0  0  0  0
   45.4060   29.1850   47.0220 N   0  0  0  0  0  0  0  0  0  0  0  0
   44.1530   28.8480   46.2910 C   0  0  0  0  0  0  0  0  0  0  0  0
   44.0340   27.3500   46.3420 C   0  0  0  0  0  0  0  0  0  0  0  0
   44.7630   27.0040   47.6010 C   0  0  0  0  0  0  0  0  0  0  0  0
   45.8520   28.0150   47.7080 C   0  0  0  0  0  0  0  0  0  0  0  0
   48.4240   32.2410   48.4370 H   0  0  0  0  0  0  0  0  0  0  0  0
   43.2990   29.3910   46.7010 H   0  0  0  0  0  0  0  0  0  0  0  0
   44.3760   29.1240   45.2280 H   0  0  0  0  0  0  0  0  0  0  0  0
   42.9880   27.0070   46.3700 H   0  0  0  0  0  0  0  0  0  0  0  0
   44.5240   26.8500   45.4940 H   0  0  0  0  0  0  0  0  0  0  0  0
   45.1310   25.9550   47.5750 H   0  0  0  0  0  0  0  0  0  0  0  0
   44.0230   27.0570   48.4250 H   0  0  0  0  0  0  0  0  0  0  0  0
   46.7430   27.5980   47.2380 H   0  0  0  0  0  0  0  0  0  0  0  0
   45.9440   28.1480   48.8290 H   0  0  0  0  0  0  0  0  0  0  0  0
   47.6300   29.7920   48.6910 N   0  0  0  0  0  0  0  0  0  0  0  0
   48.2840   29.0200   48.4090 H   0  0  0  0  0  0  0  0  0  0  0  0
   47.5730   29.6640   49.7320 H   0  0  0  0  0  0  0  0  0  0  0  0
   49.6900   32.3930   41.5610 C   0  0  0  0  0  0  0  0  0  0  0  0
   48.3460   32.1520   41.5280 C   0  0  0  0  0  0  0  0  0  0  0  0
   47.8180   31.0210   40.9340 C   0  0  0  0  0  0  0  0  0  0  0  0
   46.7490   30.8730   40.9320 H   0  0  0  0  0  0  0  0  0  0  0  0
   48.6700   30.0980   40.3510 C   0  0  0  0  0  0  0  0  0  0  0  0
   48.3030   29.1980   39.8740 H   0  0  0  0  0  0  0  0  0  0  0  0
   50.0230   30.3710   40.4010 C   0  0  0  0  0  3  0  0  0  0  0  0
   50.5470   31.4870   40.9870 C   0  0  0  0  0  3  0  0  0  0  0  0
   50.6640   34.4850   42.6760 N   0  0  0  0  0  0  0  0  0  0  0  0
   50.2300   33.5590   42.1750 C   0  0  0  0  0  0  0  0  0  0  0  0
   47.3830   31.8490   44.0750 N   0  0  0  0  0  0  0  0  0  0  0  0
   46.6590   31.1440   43.7580 H   0  0  0  0  0  0  0  0  0  0  0  0
   48.1590   31.5850   44.6900 H   0  0  0  0  0  0  0  0  0  0  0  0
  1  2  1  0  0  0  0
  1 18  1  0  0  0  0
  3 11  1  0  0  0  0
  3  2  2  0  0  0  0
  4  3  1  0  0  0  0
  5  4  2  0  0  0  0
  5 10  1  0  0  0  0
  6  5  1  0  0  0  0
  7  6  2  0  0  0  0
  7  8  1  0  0  0  0
  8  9  2  0  0  0  0
  9 10  1  0  0  0  0
  9 47  1  0  0  0  0
 10  1  2  0  0  0  0
 12  6  1  0  0  0  0
 13  7  1  0  0  0  0
 14 15  1  0  0  0  0
 14 25  1  0  0  0  0
 15 34  1  0  0  0  0
 16 20  1  0  0  0  0
 16 15  2  0  0  0  0
 17 16  1  0  0  0  0
 18 17  2  0  0  0  0
 18 19  1  0  0  0  0
 19 14  2  0  0  0  0
 20 24  1  0  0  0  0
 21 22  1  0  0  0  0
 21 26  1  0  0  0  0
 21 20  1  0  0  0  0
 22 28  1  0  0  0  0
 22 23  1  0  0  0  0
 23 24  1  0  0  0  0
 23 31  1  0  0  0  0
 24 33  1  0  0  0  0
 27 21  1  0  0  0  0
 29 22  1  0  0  0  0
 30 23  1  0  0  0  0
 32 24  1  0  0  0  0
 34 36  1  0  0  0  0
 35 34  1  0  0  0  0
 37 46  1  0  0  0  0
 38 37  1  0  0  0  0
 38  8  1  0  0  0  0
 39 38  2  0  0  0  0
 40 39  1  0  0  0  0
 41 43  2  0  0  0  0
 41 39  1  0  0  0  0
 42 41  1  0  0  0  0
 43 44  1  0  0  0  0
 44 37  2  0  0  0  0
 46 45  3  0  0  0  0
 47 49  1  0  0  0  0
 48 47  1  0  0  0  0
M  END
>  <minimizedAffinity>
-6.93834305

>  <minimizedRMSD>
0.479081005

$$$$
