
 OpenBabel03242514303D

 39 42  0  0  0  0  0  0  0  0999 V2000
   49.7860   32.9360   37.1680 Cl  0  0  0  0  0  0  0  0  0  0  0  0
   49.1620   31.3060   37.2690 C   0  0  0  0  0  0  0  0  0  0  0  0
   49.1180   30.6840   38.4700 C   0  0  0  0  0  0  0  0  0  0  0  0
   48.7580   29.3490   38.4120 C   0  0  0  0  0  0  0  0  0  0  0  0
   48.4550   28.6620   37.2540 C   0  0  0  0  0  0  0  0  0  0  0  0
   48.5130   29.3540   36.0540 C   0  0  0  0  0  0  0  0  0  0  0  0
   48.8670   30.6790   36.0750 C   0  0  0  0  0  0  0  0  0  0  0  0
   48.7310   28.8660   39.4050 H   0  0  0  0  0  0  0  0  0  0  0  0
   48.2030   27.6330   37.4480 H   0  0  0  0  0  0  0  0  0  0  0  0
   48.2620   28.7520   35.1900 H   0  0  0  0  0  0  0  0  0  0  0  0
   50.9730   31.9790   41.4410 C   0  0  0  0  0  0  0  0  0  0  0  0
   50.7220   31.3280   40.2220 C   0  0  0  0  0  0  0  0  0  0  0  0
   49.4440   31.3730   39.6870 C   0  0  0  0  0  0  0  0  0  0  0  0
   48.5030   32.0590   40.3800 N   0  0  0  0  0  0  0  0  0  0  0  0
   48.7490   32.6850   41.5420 C   0  0  0  0  0  0  0  0  0  0  0  0
   49.9820   32.6450   42.0790 N   0  0  0  0  0  0  0  0  0  0  0  0
   51.9110   32.0250   41.9770 H   0  0  0  0  0  0  0  0  0  0  0  0
   51.6310   30.9310   39.9030 H   0  0  0  0  0  0  0  0  0  0  0  0
   48.6900   35.6730   40.9170 Cl  0  0  0  0  0  0  0  0  0  0  0  0
   47.6090   34.8340   42.0040 C   0  0  0  0  0  0  0  0  0  0  0  0
   47.7230   33.4610   42.2110 C   0  0  0  0  0  0  0  0  0  0  0  0
   46.8240   32.9170   43.0670 C   0  0  0  0  0  0  0  0  0  0  0  0
   45.8320   33.6290   43.7220 C   0  0  0  0  0  0  0  0  0  0  0  0
   45.7390   34.9780   43.5030 C   0  0  0  0  0  0  0  0  0  0  0  0
   44.4540   35.7810   44.3810 Cl  0  0  0  0  0  0  0  0  0  0  0  0
   46.6230   35.5790   42.6470 C   0  0  0  0  0  0  0  0  0  0  0  0
   46.9030   31.8470   43.2380 H   0  0  0  0  0  0  0  0  0  0  0  0
   45.1670   33.0700   44.3900 H   0  0  0  0  0  0  0  0  0  0  0  0
   46.5110   36.6430   42.5060 H   0  0  0  0  0  0  0  0  0  0  0  0
   50.1110   31.3140   34.1020 C   0  0  0  0  0  0  0  0  0  0  0  0
   48.9150   31.3740   34.8080 C   0  0  0  0  0  0  0  0  0  0  0  0
   47.8540   32.0810   34.2700 C   0  0  0  0  0  0  0  0  0  0  0  0
   46.9180   32.1220   34.8330 H   0  0  0  0  0  0  0  0  0  0  0  0
   47.9330   32.7350   33.0550 C   0  0  0  0  0  0  0  0  0  0  0  0
   47.1130   33.2900   32.6260 H   0  0  0  0  0  0  0  0  0  0  0  0
   49.1410   32.6480   32.3930 C   0  0  0  0  0  3  0  0  0  0  0  0
   50.2550   31.9520   32.8750 C   0  0  0  0  0  3  0  0  0  0  0  0
   52.1460   29.9800   35.0730 N   0  0  0  0  0  0  0  0  0  0  0  0
   51.2420   30.5850   34.6340 C   0  0  0  0  0  0  0  0  0  0  0  0
  1  2  1  0  0  0  0
  2  3  1  0  0  0  0
  3 13  1  0  0  0  0
  4  3  2  0  0  0  0
  4  8  1  0  0  0  0
  5  9  1  0  0  0  0
  5  4  1  0  0  0  0
  6  7  1  0  0  0  0
  6  5  2  0  0  0  0
  7  2  2  0  0  0  0
 10  6  1  0  0  0  0
 11 17  1  0  0  0  0
 11 16  1  0  0  0  0
 12 11  2  0  0  0  0
 13 12  1  0  0  0  0
 13 14  2  0  0  0  0
 14 15  1  0  0  0  0
 15 16  2  0  0  0  0
 15 21  1  0  0  0  0
 18 12  1  0  0  0  0
 19 20  1  0  0  0  0
 20 21  2  0  0  0  0
 20 26  1  0  0  0  0
 21 22  1  0  0  0  0
 22 27  1  0  0  0  0
 22 23  2  0  0  0  0
 23 28  1  0  0  0  0
 24 23  1  0  0  0  0
 24 25  1  0  0  0  0
 26 24  2  0  0  0  0
 29 26  1  0  0  0  0
 30 39  1  0  0  0  0
 30 31  1  0  0  0  0
 31  7  1  0  0  0  0
 32 31  2  0  0  0  0
 32 33  1  0  0  0  0
 34 32  1  0  0  0  0
 35 34  1  0  0  0  0
 36 37  1  0  0  0  0
 36 34  2  0  0  0  0
 37 30  2  0  0  0  0
 39 38  3  0  0  0  0
M  END
>  <minimizedAffinity>
-5.31817436

>  <minimizedRMSD>
3.34383178

$$$$
