
     RDKit          3D

 37 39  0  0  0  0  0  0  0  0999 V2000
   46.5004   32.7547   46.7625 C   0  0  2  0  0  0  0  0  0  0  0  0
   47.0305   31.4192   46.3668 C   0  0  0  0  0  0  0  0  0  0  0  0
   46.0952   30.2832   46.4748 C   0  0  0  0  0  0  0  0  0  0  0  0
   45.5906   30.2890   47.9058 C   0  0  0  0  0  0  0  0  0  0  0  0
   44.7981   31.4837   48.2279 C   0  0  0  0  0  0  0  0  0  0  0  0
   45.3127   32.7520   47.6055 C   0  0  0  0  0  0  0  0  0  0  0  0
   44.9945   35.0518   44.2773 C   0  0  0  0  0  0  0  0  0  0  0  0
   45.8487   34.8736   43.1593 C   0  0  0  0  0  0  0  0  0  0  0  0
   46.9260   33.9610   43.2925 C   0  0  0  0  0  0  0  0  0  0  0  0
   47.0894   33.3077   44.4686 N   0  0  0  0  0  0  0  0  0  0  0  0
   46.2455   33.5130   45.5067 C   0  0  0  0  0  0  0  0  0  0  0  0
   45.2016   34.3778   45.4211 N   0  0  0  0  0  0  0  0  0  0  0  0
   44.6269   33.9784   47.8401 N   0  0  0  0  0  0  0  0  0  0  0  0
   47.2979   33.3290   47.2821 H   0  0  0  0  0  0  0  0  0  0  0  0
   47.9183   31.1937   46.9931 H   0  0  0  0  0  0  0  0  0  0  0  0
   47.4272   31.4639   45.3075 H   0  0  0  0  0  0  0  0  0  0  0  0
   46.6677   29.3397   46.3686 H   0  0  0  0  0  0  0  0  0  0  0  0
   45.2701   30.2530   45.7624 H   0  0  0  0  0  0  0  0  0  0  0  0
   46.3753   30.0275   48.6134 H   0  0  0  0  0  0  0  0  0  0  0  0
   44.8348   29.4544   47.9272 H   0  0  0  0  0  0  0  0  0  0  0  0
   43.9295   31.6398   48.8125 H   0  0  0  0  0  0  0  0  0  0  0  0
   44.1475   35.7226   44.2778 H   0  0  0  0  0  0  0  0  0  0  0  0
   45.5493   35.4770   42.3459 H   0  0  0  0  0  0  0  0  0  0  0  0
   43.7133   33.9236   47.3637 H   0  0  0  0  0  0  0  0  0  0  0  0
   45.0213   34.7798   48.4091 H   0  0  0  0  0  0  0  0  0  0  0  0
   45.0497   32.2041   40.7215 N   0  0  0  0  0  0  0  0  0  0  0  0
   46.0905   32.6769   40.8259 C   0  0  0  0  0  0  0  0  0  0  0  0
   47.3990   33.2439   40.9567 C   0  0  0  0  0  0  0  0  0  0  0  0
   47.7722   33.8448   42.1403 C   0  0  0  0  0  0  0  0  0  0  0  0
   49.0672   34.3115   42.1058 C   0  0  0  0  0  0  0  0  0  0  0  0
   49.5244   34.8067   42.9315 H   0  0  0  0  0  0  0  0  0  0  0  0
   49.9027   34.1969   41.0182 C   0  0  0  0  0  0  0  0  0  0  0  0
   50.9223   34.5765   41.0223 H   0  0  0  0  0  0  0  0  0  0  0  0
   49.4821   33.5923   39.8678 C   0  0  0  0  0  0  0  0  0  0  0  0
   48.2133   33.1103   39.8392 C   0  0  0  0  0  0  0  0  0  0  0  0
   50.1213   33.4933   39.0058 H   0  0  0  0  0  0  0  0  0  0  0  0
   47.8828   32.6304   38.9229 H   0  0  0  0  0  0  0  0  0  0  0  0
  1  6  1  0
  2  3  1  0
  2  1  1  0
  3  4  1  0
  4  5  1  0
  6 13  1  0
  6  5  2  0
  7 12  2  0
  8  9  2  0
  8  7  1  0
  9 10  1  0
 10 11  2  0
 11  1  1  0
 12 11  1  0
  1 14  1  1
  2 15  1  0
  2 16  1  0
  3 17  1  0
  3 18  1  0
  4 19  1  0
  4 20  1  0
  5 21  1  0
  7 22  1  0
  8 23  1  0
 13 24  1  0
 13 25  1  0
 26 27  3  0
 27 28  1  0
 28 29  2  0
 29 30  1  0
 30 31  1  0
 30 32  2  0
 32 33  1  0
 32 34  1  0
 34 35  2  0
 35 28  1  0
 34 36  1  0
 35 37  1  0
  9 29  1  0
M  ISO  8  14  13  15  13  16  13  17  13  18  13  19  13  20  13  21  13
M  ISO  4  22  14  23  14  31  15  33  16
M  END
>  <DihAtoms>  (1) 
7,8,28,27

>  <DihDeg>  (1) 
169.2267641673626

$$$$
