REMARK  Name = 
REMARK  6 active torsions:
REMARK  status: ('A' for Active; 'I' for Inactive)
REMARK    1  A    between atoms: C_2  and  C_14
REMARK    2  A    between atoms: C_5  and  C_9
REMARK    3  A    between atoms: C_15  and  C_16
REMARK    4  A    between atoms: C_16  and  N_17
REMARK    5  A    between atoms: C_21  and  C_42
REMARK    6  A    between atoms: C_40  and  C_41
REMARK                            x       y       z     vdW  Elec       q    Type
REMARK                         _______ _______ _______ _____ _____    ______ ____
ROOT
ATOM      1  C   UNL     1      48.162  34.932  42.245  0.00  0.00    +0.000 C 
ATOM      2  H   UNL     1      48.026  34.434  43.245  0.00  0.00    +0.000 HD
ATOM      3  H   UNL     1      48.300  36.016  42.476  0.00  0.00    +0.000 HD
ENDROOT
BRANCH   1   4
ATOM      4  N   UNL     1      49.280  34.330  41.613  0.00  0.00    +0.000 NA
ATOM      5  C   UNL     1      50.305  33.947  42.526  0.00  0.00    +0.000 C 
ATOM      6  C   UNL     1      50.994  32.739  41.950  0.00  0.00    +0.000 C 
ATOM      7  C   UNL     1      49.933  32.121  41.102  0.00  0.00    +0.000 C 
ATOM      8  C   UNL     1      48.921  33.195  40.807  0.00  0.00    +0.000 C 
ATOM      9  H   UNL     1      49.856  33.602  43.495  0.00  0.00    +0.000 HD
ATOM     10  H   UNL     1      51.068  34.726  42.717  0.00  0.00    +0.000 HD
ATOM     11  H   UNL     1      51.319  32.006  42.706  0.00  0.00    +0.000 HD
ATOM     12  H   UNL     1      51.835  33.066  41.322  0.00  0.00    +0.000 HD
ATOM     13  H   UNL     1      50.377  31.784  40.131  0.00  0.00    +0.000 HD
ATOM     14  H   UNL     1      49.424  31.257  41.574  0.00  0.00    +0.000 HD
ATOM     15  H   UNL     1      47.892  32.857  41.105  0.00  0.00    +0.000 HD
BRANCH   8  17
ATOM     16  C   UNL     1      48.139  34.557  38.781  0.00  0.00    +0.000 A 
ATOM     17  C   UNL     1      48.931  33.606  39.391  0.00  0.00    +0.000 A 
ATOM     18  C   UNL     1      49.835  32.981  38.529  0.00  0.00    +0.000 A 
ATOM     19  H   UNL     1      50.492  32.218  38.942  0.00  0.00    +0.000 HD
ATOM     20  C   UNL     1      49.975  33.245  37.179  0.00  0.00    +0.000 A 
ATOM     21  H   UNL     1      50.706  32.705  36.601  0.00  0.00    +0.000 HD
ATOM     22  C   UNL     1      49.163  34.202  36.623  0.00  0.00    +0.000 A 
ATOM     23  C   UNL     1      48.255  34.844  37.438  0.00  0.00    +0.000 A 
BRANCH  16  25
ATOM     24  N   UNL     1      46.433  35.760  40.342  0.00  0.00    +0.000 NA
ATOM     25  C   UNL     1      47.193  35.219  39.656  0.00  0.00    +0.000 C 
ENDBRANCH  16  25
ENDBRANCH   8  17
ENDBRANCH   1   4
BRANCH   1  27
ATOM     26  C   UNL     1      45.703  34.933  42.143  0.00  0.00    +0.000 C 
ATOM     27  C   UNL     1      46.866  34.705  41.518  0.00  0.00    +0.000 C 
BRANCH  26  29
ATOM     28  C   UNL     1      44.101  33.545  40.737  0.00  0.00    +0.000 A 
ATOM     29  C   UNL     1      44.401  34.728  41.480  0.00  0.00    +0.000 A 
ATOM     30  C   UNL     1      43.430  35.725  41.584  0.00  0.00    +0.000 A 
ATOM     31  N   UNL     1      42.233  35.523  40.968  0.00  0.00    +0.000 NA
ATOM     32  C   UNL     1      41.981  34.412  40.283  0.00  0.00    +0.000 A 
ATOM     33  N   UNL     1      42.914  33.446  40.179  0.00  0.00    +0.000 NA
ATOM     34  H   UNL     1      44.896  32.825  40.702  0.00  0.00    +0.000 HD
ATOM     35  H   UNL     1      43.609  36.637  42.135  0.00  0.00    +0.000 HD
BRANCH  32  38
ATOM     36  F   UNL     1      39.743  33.661  41.739  0.00  0.00    +0.000 F 
ATOM     37  C   UNL     1      39.574  33.855  40.396  0.00  0.00    +0.000 A 
ATOM     38  C   UNL     1      40.682  34.233  39.636  0.00  0.00    +0.000 A 
ATOM     39  C   UNL     1      40.594  34.448  38.278  0.00  0.00    +0.000 A 
ATOM     40  C   UNL     1      39.351  34.274  37.679  0.00  0.00    +0.000 A 
ATOM     41  C   UNL     1      38.213  33.891  38.430  0.00  0.00    +0.000 A 
ATOM     42  C   UNL     1      38.342  33.683  39.796  0.00  0.00    +0.000 A 
ATOM     43  H   UNL     1      41.449  34.742  37.684  0.00  0.00    +0.000 HD
ATOM     44  H   UNL     1      39.189  34.421  36.617  0.00  0.00    +0.000 HD
ATOM     45  H   UNL     1      37.252  33.759  37.947  0.00  0.00    +0.000 HD
ATOM     46  H   UNL     1      37.487  33.389  40.392  0.00  0.00    +0.000 HD
ENDBRANCH  32  38
ENDBRANCH  26  29
ENDBRANCH   1  27
TORSDOF 6
