
 OpenBabel03252507193D

 45 48  0  0  1  0  0  0  0  0999 V2000
   46.9780   32.8910   43.4570 C   0  0  0  0  0  0  0  0  0  0  0  0
   48.1500   32.7940   43.9060 O   0  0  0  0  0  0  0  0  0  0  0  0
   46.4490   32.0580   42.4260 N   0  0  0  0  0  0  0  0  0  0  0  0
   45.1640   31.3740   42.3160 C   0  0  0  0  0  0  0  0  0  0  0  0
   44.5160   31.7340   40.9610 C   0  0  0  0  0  0  0  0  0  0  0  0
   45.3730   31.1790   39.8470 C   0  0  0  0  0  0  0  0  0  0  0  0
   46.7160   30.7760   40.3880 C   0  0  0  0  0  0  0  0  0  0  0  0
   47.2960   31.8360   41.2850 C   0  0  2  0  0  0  0  0  0  0  0  0
   44.4540   31.8420   43.0570 H   0  0  0  0  0  0  0  0  0  0  0  0
   45.2280   30.2930   42.4060 H   0  0  0  0  0  0  0  0  0  0  0  0
   43.4810   31.4020   40.9460 H   0  0  0  0  0  0  0  0  0  0  0  0
   44.6380   32.8460   40.9090 H   0  0  0  0  0  0  0  0  0  0  0  0
   45.4560   31.8600   38.9770 H   0  0  0  0  0  0  0  0  0  0  0  0
   44.8820   30.2480   39.4760 H   0  0  0  0  0  0  0  0  0  0  0  0
   47.4200   30.5700   39.5610 H   0  0  0  0  0  0  0  0  0  0  0  0
   46.6220   29.8070   40.9380 H   0  0  0  0  0  0  0  0  0  0  0  0
   47.2020   32.7910   40.6850 H   0  0  0  0  0  0  0  0  0  0  0  0
   45.7390   34.9830   43.1870 C   0  0  0  0  0  0  0  0  0  0  0  0
   46.1230   33.9090   44.0220 C   0  0  0  0  0  0  0  0  0  0  0  0
   45.6780   33.8650   45.3250 C   0  0  0  0  0  0  0  0  0  0  0  0
   44.8780   34.8620   45.7640 N   0  0  0  0  0  0  0  0  0  0  0  0
   44.5010   35.8970   44.9740 C   0  0  0  0  0  0  0  0  0  0  0  0
   44.9390   35.9370   43.7010 N   0  0  0  0  0  0  0  0  0  0  0  0
   46.0840   35.0260   42.1610 H   0  0  0  0  0  0  0  0  0  0  0  0
   43.8610   36.6350   45.4320 H   0  0  0  0  0  0  0  0  0  0  0  0
   46.0910   32.7580   46.1650 C   0  0  0  0  0  0  0  0  0  0  0  0
   45.5250   31.5290   46.0020 C   0  0  0  0  0  0  0  0  0  0  0  0
   45.9260   30.4870   46.8060 C   0  0  0  0  0  0  0  0  0  0  0  0
   46.8960   30.6290   47.7950 C   0  0  0  0  0  0  0  0  0  0  0  0
   47.4300   31.8960   47.9120 C   0  0  0  0  0  0  0  0  0  0  0  0
   47.0160   32.8890   47.1090 N   0  0  0  0  0  0  0  0  0  0  0  0
   44.7640   31.2570   45.2900 H   0  0  0  0  0  0  0  0  0  0  0  0
   45.5080   29.4800   46.7210 H   0  0  0  0  0  0  0  0  0  0  0  0
   47.2320   29.8320   48.4430 H   0  0  0  0  0  0  0  0  0  0  0  0
   48.1920   32.1540   48.6360 H   0  0  0  0  0  0  0  0  0  0  0  0
   49.2120   30.5030   42.1740 C   0  0  0  0  0  0  0  0  0  0  0  0
   48.7150   31.6520   41.5460 C   0  0  0  0  0  0  0  0  0  0  0  0
   49.7380   32.5560   41.2410 C   0  0  0  0  0  0  0  0  0  0  0  0
   49.4390   33.4750   40.7520 H   0  0  0  0  0  0  0  0  0  0  0  0
   51.0740   32.3560   41.5180 C   0  0  0  0  0  0  0  0  0  0  0  0
   51.8060   33.1050   41.2500 H   0  0  0  0  0  0  0  0  0  0  0  0
   51.4510   31.1840   42.1420 C   0  0  0  0  0  3  0  0  0  0  0  0
   50.5260   30.2230   42.4870 C   0  0  0  0  0  3  0  0  0  0  0  0
   47.4100   28.7100   42.7940 N   0  0  0  0  0  0  0  0  0  0  0  0
   48.2070   29.5140   42.5240 C   0  0  0  0  0  0  0  0  0  0  0  0
  1  2  2  0  0  0  0
  1 19  1  0  0  0  0
  3  1  1  0  0  0  0
  4 10  1  0  0  0  0
  4  3  1  0  0  0  0
  4  9  1  0  0  0  0
  5  4  1  0  0  0  0
  6  7  1  0  0  0  0
  6  5  1  0  0  0  0
  7 16  1  0  0  0  0
  7  8  1  0  0  0  0
  8 17  1  6  0  0  0
  8 37  1  0  0  0  0
  8  3  1  0  0  0  0
 11  5  1  0  0  0  0
 12  5  1  0  0  0  0
 13  6  1  0  0  0  0
 14  6  1  0  0  0  0
 15  7  1  0  0  0  0
 18 23  2  0  0  0  0
 18 19  1  0  0  0  0
 19 20  2  0  0  0  0
 20 21  1  0  0  0  0
 20 26  1  0  0  0  0
 22 25  1  0  0  0  0
 22 21  2  0  0  0  0
 23 22  1  0  0  0  0
 24 18  1  0  0  0  0
 26 31  1  0  0  0  0
 27 26  2  0  0  0  0
 27 28  1  0  0  0  0
 28 29  2  0  0  0  0
 29 30  1  0  0  0  0
 29 34  1  0  0  0  0
 30 35  1  0  0  0  0
 31 30  2  0  0  0  0
 32 27  1  0  0  0  0
 33 28  1  0  0  0  0
 36 43  1  0  0  0  0
 36 45  1  0  0  0  0
 37 36  2  0  0  0  0
 38 40  2  0  0  0  0
 38 37  1  0  0  0  0
 39 38  1  0  0  0  0
 40 42  1  0  0  0  0
 41 40  1  0  0  0  0
 42 43  2  0  0  0  0
 45 44  3  0  0  0  0
M  END
>  <minimizedAffinity>
-4.92442369

>  <minimizedRMSD>
1.7814486

$$$$
