
     RDKit          3D

 36 38  0  0  0  0  0  0  0  0999 V2000
   44.4742   35.9167   44.7990 C   0  0  0  0  0  0  0  0  0  0  0  0
   45.1889   35.8276   43.6052 C   0  0  0  0  0  0  0  0  0  0  0  0
   46.1044   34.7819   43.4449 C   0  0  0  0  0  0  0  0  0  0  0  0
   46.2196   33.9266   44.4883 N   0  0  0  0  0  0  0  0  0  0  0  0
   45.5256   34.0192   45.6383 C   0  0  0  0  0  0  0  0  0  0  0  0
   44.6480   35.0249   45.7871 N   0  0  0  0  0  0  0  0  0  0  0  0
   46.8794   34.5963   42.2791 N   0  0  0  0  0  0  0  0  0  0  0  0
   48.3389   34.6804   42.3174 C   0  0  0  0  0  0  0  0  0  0  0  0
   48.7100   35.4617   41.0386 C   0  0  0  0  0  0  0  0  0  0  0  0
   48.3150   34.7111   39.8028 C   0  0  0  0  0  0  0  0  0  0  0  0
   47.0964   33.8855   39.9479 C   0  0  0  0  0  0  0  0  0  0  0  0
   46.1958   34.3281   41.0524 C   0  0  1  0  0  0  0  0  0  0  0  0
   43.7747   36.7387   44.8876 H   0  0  0  0  0  0  0  0  0  0  0  0
   45.0727   36.5171   42.8078 H   0  0  0  0  0  0  0  0  0  0  0  0
   45.7476   33.2479   46.3601 H   0  0  0  0  0  0  0  0  0  0  0  0
   48.8066   33.6927   42.1730 H   0  0  0  0  0  0  0  0  0  0  0  0
   48.6982   35.2559   43.1698 H   0  0  0  0  0  0  0  0  0  0  0  0
   49.7911   35.6845   41.0148 H   0  0  0  0  0  0  0  0  0  0  0  0
   48.1374   36.4290   41.0645 H   0  0  0  0  0  0  0  0  0  0  0  0
   48.1815   35.4467   38.9843 H   0  0  0  0  0  0  0  0  0  0  0  0
   49.1814   34.0831   39.4888 H   0  0  0  0  0  0  0  0  0  0  0  0
   46.4995   33.7781   39.0229 H   0  0  0  0  0  0  0  0  0  0  0  0
   47.4330   32.8388   40.2066 H   0  0  0  0  0  0  0  0  0  0  0  0
   45.8368   35.3591   40.7167 H   0  0  0  0  0  0  0  0  0  0  0  0
   43.4877   36.2968   39.6767 N   0  0  0  0  0  0  0  0  0  0  0  0
   43.5782   35.2387   40.1352 C   0  0  0  0  0  0  0  0  0  0  0  0
   43.7153   33.9301   40.7057 C   0  0  0  0  0  0  0  0  0  0  0  0
   44.9738   33.5288   41.1479 C   0  0  0  0  0  0  0  0  0  0  0  0
   44.9222   32.2380   41.6900 C   0  0  0  0  0  0  0  0  0  0  0  0
   45.8740   31.8324   42.0687 H   0  0  0  0  0  0  0  0  0  0  0  0
   43.8344   31.4325   41.8014 C   0  0  0  0  0  0  0  0  0  0  0  0
   43.9219   30.4491   42.2418 H   0  0  0  0  0  0  0  0  0  0  0  0
   42.6389   31.9323   41.3300 C   0  0  0  0  0  0  0  0  0  0  0  0
   42.5715   33.1735   40.7838 C   0  0  0  0  0  0  0  0  0  0  0  0
   41.7399   31.3376   41.3913 H   0  0  0  0  0  0  0  0  0  0  0  0
   41.6248   33.5349   40.4252 H   0  0  0  0  0  0  0  0  0  0  0  0
  1  6  2  0
  2  1  1  0
  3  2  2  0
  3  4  1  0
  4  5  2  0
  5  6  1  0
  7  8  1  0
  7  3  1  0
  9  8  1  0
 10 11  1  0
 10  9  1  0
 11 12  1  0
 12  7  1  0
  1 13  1  0
  2 14  1  0
  5 15  1  0
  8 16  1  0
  8 17  1  0
  9 18  1  0
  9 19  1  0
 10 20  1  0
 10 21  1  0
 11 22  1  0
 11 23  1  0
 12 24  1  6
 25 26  3  0
 26 27  1  0
 27 28  2  0
 28 29  1  0
 29 30  1  0
 29 31  2  0
 31 32  1  0
 31 33  1  0
 33 34  2  0
 34 27  1  0
 33 35  1  0
 34 36  1  0
 12 28  1  0
M  ISO  8  13  14  14  14  15  14  16  13  17  13  18  13  19  13  20  13
M  ISO  6  21  13  22  13  23  13  24  13  30  15  32  16
M  END
>  <DihAtoms>  (1) 
10,11,27,26

>  <DihDeg>  (1) 
76.878771781245

$$$$
