
 OpenBabel03252507383D

 39 43  0  0  0  0  0  0  0  0999 V2000
   45.3180   34.7830   43.5550 C   0  0  0  0  0  0  0  0  0  0  0  0
   46.0490   33.7030   44.1120 C   0  0  0  0  0  0  0  0  0  0  0  0
   45.9630   33.5130   45.4710 C   0  0  0  0  0  0  0  0  0  0  0  0
   45.1950   34.3530   46.2010 N   0  0  0  0  0  0  0  0  0  0  0  0
   44.5030   35.3790   45.6520 C   0  0  0  0  0  0  0  0  0  0  0  0
   44.5680   35.5870   44.3440 N   0  0  0  0  0  0  0  0  0  0  0  0
   46.6560   33.0390   43.5380 H   0  0  0  0  0  0  0  0  0  0  0  0
   43.9220   35.9880   46.3290 H   0  0  0  0  0  0  0  0  0  0  0  0
   46.9850   32.6870   47.5240 C   0  0  0  0  0  0  0  0  0  0  0  0
   46.6470   32.4510   46.2010 C   0  0  0  0  0  0  0  0  0  0  0  0
   46.9640   31.2340   45.6610 C   0  0  0  0  0  0  0  0  0  0  0  0
   47.6010   30.2440   46.3810 C   0  0  0  0  0  0  0  0  0  0  0  0
   47.9990   28.9860   46.0540 N   0  0  0  0  0  0  0  0  0  0  0  0
   48.5820   28.4530   47.1810 C   0  0  0  0  0  0  0  0  0  0  0  0
   48.5330   29.3680   48.1540 N   0  0  0  0  0  0  0  0  0  0  0  0
   47.9370   30.4690   47.6820 C   0  0  0  0  0  0  0  0  0  0  0  0
   47.6300   31.6920   48.2570 C   0  0  0  0  0  0  0  0  0  0  0  0
   46.7610   33.6260   48.0010 H   0  0  0  0  0  0  0  0  0  0  0  0
   46.6950   31.0480   44.6130 H   0  0  0  0  0  0  0  0  0  0  0  0
   47.8650   28.5600   45.1190 H   0  0  0  0  0  0  0  0  0  0  0  0
   49.0020   27.4440   47.2310 H   0  0  0  0  0  0  0  0  0  0  0  0
   47.9040   31.8580   49.2960 H   0  0  0  0  0  0  0  0  0  0  0  0
   45.4120   34.9680   42.1700 O   0  0  0  0  0  0  0  0  0  0  0  0
   44.3720   34.5270   41.3500 C   0  0  0  0  0  0  0  0  0  0  0  0
   45.0890   33.8870   40.4070 C   0  0  0  0  0  0  0  0  0  0  0  0
   43.7040   33.2520   39.2530 S   0  0  0  0  0  0  0  0  0  0  0  0
   42.4290   34.0470   40.3810 C   0  0  0  0  0  0  0  0  0  0  0  0
   43.0710   34.4860   41.1450 N   0  0  0  0  0  0  0  0  0  0  0  0
   46.0500   33.4180   39.7630 H   0  0  0  0  0  0  0  0  0  0  0  0
   40.3700   34.6590   39.1010 C   0  0  0  0  0  0  0  0  0  0  0  0
   40.9570   33.9670   40.1000 C   0  0  0  0  0  0  0  0  0  0  0  0
   40.2820   33.1300   40.9540 C   0  0  0  0  0  0  0  0  0  0  0  0
   40.7710   32.5910   41.7400 H   0  0  0  0  0  0  0  0  0  0  0  0
   38.9270   33.0260   40.7310 C   0  0  0  0  0  0  0  0  0  0  0  0
   38.3630   32.3690   41.3930 H   0  0  0  0  0  0  0  0  0  0  0  0
   38.3050   33.7200   39.7210 C   0  0  0  0  0  3  0  0  0  0  0  0
   39.0020   34.5560   38.8750 C   0  0  0  0  0  3  0  0  0  0  0  0
   41.6880   36.2160   37.5300 N   0  0  0  0  0  0  0  0  0  0  0  0
   41.1060   35.5150   38.2400 C   0  0  0  0  0  0  0  0  0  0  0  0
  1  2  2  0  0  0  0
  1  6  1  0  0  0  0
  2  3  1  0  0  0  0
  3 10  1  0  0  0  0
  3  4  2  0  0  0  0
  5  4  1  0  0  0  0
  5  8  1  0  0  0  0
  6  5  2  0  0  0  0
  7  2  1  0  0  0  0
  9 18  1  0  0  0  0
  9 17  1  0  0  0  0
 10  9  2  0  0  0  0
 11 10  1  0  0  0  0
 11 12  2  0  0  0  0
 12 16  1  0  0  0  0
 13 12  1  0  0  0  0
 13 14  1  0  0  0  0
 14 21  1  0  0  0  0
 14 15  2  0  0  0  0
 16 15  1  0  0  0  0
 16 17  2  0  0  0  0
 17 22  1  0  0  0  0
 19 11  1  0  0  0  0
 20 13  1  0  0  0  0
 23  1  1  0  0  0  0
 24 23  1  0  0  0  0
 25 24  2  0  0  0  0
 26 27  1  0  0  0  0
 26 25  1  0  0  0  0
 27 28  2  0  0  0  0
 28 24  1  0  0  0  0
 29 25  1  0  0  0  0
 30 31  1  0  0  0  0
 31 27  1  0  0  0  0
 31 32  2  0  0  0  0
 32 33  1  0  0  0  0
 34 32  1  0  0  0  0
 34 35  1  0  0  0  0
 36 34  2  0  0  0  0
 37 30  2  0  0  0  0
 37 36  1  0  0  0  0
 38 39  3  0  0  0  0
 39 30  1  0  0  0  0
M  END
>  <minimizedAffinity>
-7.04688358

>  <minimizedRMSD>
1.1917671

$$$$
