REMARK  Name = 
REMARK  5 active torsions:
REMARK  status: ('A' for Active; 'I' for Inactive)
REMARK    1  A    between atoms: C_1  and  C_2
REMARK    2  A    between atoms: C_1  and  C_8
REMARK    3  A    between atoms: C_8  and  N_9
REMARK    4  A    between atoms: C_14  and  C_32
REMARK    5  A    between atoms: C_30  and  C_31
REMARK                            x       y       z     vdW  Elec       q    Type
REMARK                         _______ _______ _______ _____ _____    ______ ____
ROOT
ATOM      1  N   UNL     1      48.434  33.620  42.589  0.00  0.00    +0.000 N 
ATOM      2  C   UNL     1      48.534  32.247  42.979  0.00  0.00    +0.000 C 
ATOM      3  C   UNL     1      49.415  31.664  41.870  0.00  0.00    +0.000 C 
ATOM      4  C   UNL     1      50.715  32.334  41.708  0.00  0.00    +0.000 C 
ATOM      5  C   UNL     1      50.859  33.693  42.326  0.00  0.00    +0.000 C 
ATOM      6  C   UNL     1      49.650  34.390  42.803  0.00  0.00    +0.000 C 
ATOM      7  H   UNL     1      49.082  32.110  43.901  0.00  0.00    +0.000 HD
ATOM      8  H   UNL     1      47.622  31.671  43.075  0.00  0.00    +0.000 HD
ATOM      9  H   UNL     1      49.562  30.595  42.132  0.00  0.00    +0.000 HD
ATOM     10  H   UNL     1      48.767  31.659  40.971  0.00  0.00    +0.000 HD
ATOM     11  H   UNL     1      51.542  31.719  42.172  0.00  0.00    +0.000 HD
ATOM     12  H   UNL     1      50.983  32.334  40.625  0.00  0.00    +0.000 HD
ATOM     13  H   UNL     1      51.812  34.096  42.392  0.00  0.00    +0.000 HD
ENDROOT
BRANCH   6  15
ATOM     14  C   UNL     1      49.430  36.857  42.898  0.00  0.00    +0.000 A 
ATOM     15  C   UNL     1      49.720  35.645  43.435  0.00  0.00    +0.000 A 
ATOM     16  C   UNL     1      49.991  35.767  44.760  0.00  0.00    +0.000 A 
ATOM     17  H   UNL     1      50.273  34.980  45.416  0.00  0.00    +0.000 HD
ATOM     18  C   UNL     1      49.986  36.915  45.519  0.00  0.00    +0.000 A 
ATOM     19  H   UNL     1      50.202  36.987  46.573  0.00  0.00    +0.000 HD
ATOM     20  C   UNL     1      49.674  38.133  44.914  0.00  0.00    +0.000 A 
ATOM     21  C   UNL     1      49.396  38.055  43.569  0.00  0.00    +0.000 A 
BRANCH  14  23
ATOM     22  N   UNL     1      49.136  37.141  40.327  0.00  0.00    +0.000 NA
ATOM     23  C   UNL     1      49.257  37.012  41.481  0.00  0.00    +0.000 C 
ENDBRANCH  14  23
ENDBRANCH   6  15
BRANCH   1  24
ATOM     24  C   UNL     1      47.441  34.152  41.849  0.00  0.00    +0.000 C 
ATOM     25  H   UNL     1      47.309  35.137  41.474  0.00  0.00    +0.000 HD
ATOM     26  H   UNL     1      47.509  33.606  40.768  0.00  0.00    +0.000 HD
BRANCH  24  27
ATOM     27  C   UNL     1      46.098  33.552  42.223  0.00  0.00    +0.000 C 
ATOM     28  H   UNL     1      46.012  32.481  42.190  0.00  0.00    +0.000 HD
ATOM     29  H   UNL     1      45.408  33.887  41.378  0.00  0.00    +0.000 HD
BRANCH  27  30
ATOM     30  C   UNL     1      45.571  34.260  43.382  0.00  0.00    +0.000 A 
ATOM     31  C   UNL     1      45.059  35.528  43.274  0.00  0.00    +0.000 A 
ATOM     32  C   UNL     1      44.572  36.163  44.419  0.00  0.00    +0.000 A 
ATOM     33  N   UNL     1      44.633  35.478  45.590  0.00  0.00    +0.000 NA
ATOM     34  C   UNL     1      45.139  34.243  45.655  0.00  0.00    +0.000 A 
ATOM     35  N   UNL     1      45.596  33.662  44.554  0.00  0.00    +0.000 NA
ATOM     36  H   UNL     1      45.010  36.066  42.356  0.00  0.00    +0.000 HD
ATOM     37  H   UNL     1      44.144  37.170  44.448  0.00  0.00    +0.000 HD
ATOM     38  H   UNL     1      45.183  33.697  46.610  0.00  0.00    +0.000 HD
ENDBRANCH  27  30
ENDBRANCH  24  27
ENDBRANCH   1  24
TORSDOF 5
