REMARK  Name = 
REMARK  4 active torsions:
REMARK  status: ('A' for Active; 'I' for Inactive)
REMARK    1  A    between atoms: C_3  and  C_23
REMARK    2  A    between atoms: C_5  and  C_9
REMARK    3  A    between atoms: C_21  and  C_38
REMARK    4  A    between atoms: C_36  and  C_37
REMARK                            x       y       z     vdW  Elec       q    Type
REMARK                         _______ _______ _______ _____ _____    ______ ____
ROOT
ATOM      1 CL   UNL     1      44.789  35.980  43.306  0.00  0.00    +0.000 Cl
ATOM      2  C   UNL     1      45.537  34.738  44.248  0.00  0.00    +0.000 A 
ATOM      3  C   UNL     1      46.634  34.054  43.752  0.00  0.00    +0.000 A 
ATOM      4  C   UNL     1      47.146  33.085  44.592  0.00  0.00    +0.000 A 
ATOM      5  C   UNL     1      46.658  32.768  45.838  0.00  0.00    +0.000 A 
ATOM      6  C   UNL     1      45.575  33.467  46.288  0.00  0.00    +0.000 A 
ATOM      7 CL   UNL     1      44.977  33.037  47.881  0.00  0.00    +0.000 Cl
ATOM      8  C   UNL     1      45.015  34.443  45.505  0.00  0.00    +0.000 A 
ATOM      9  H   UNL     1      48.018  32.547  44.190  0.00  0.00    +0.000 HD
ATOM     10  H   UNL     1      44.157  34.979  45.892  0.00  0.00    +0.000 HD
ENDROOT
BRANCH   5  11
ATOM     11  C   UNL     1      47.355  31.700  46.567  0.00  0.00    +0.000 A 
ATOM     12  C   UNL     1      47.468  30.412  46.094  0.00  0.00    +0.000 A 
ATOM     13  C   UNL     1      48.115  29.399  46.761  0.00  0.00    +0.000 A 
ATOM     14  C   UNL     1      48.696  29.678  47.989  0.00  0.00    +0.000 A 
ATOM     15  N   UNL     1      49.323  28.668  48.621  0.00  0.00    +0.000 NA
ATOM     16  C   UNL     1      49.916  28.838  49.814  0.00  0.00    +0.000 A 
ATOM     17  C   UNL     1      49.852  30.110  50.370  0.00  0.00    +0.000 A 
ATOM     18  C   UNL     1      49.212  31.139  49.725  0.00  0.00    +0.000 A 
ATOM     19  C   UNL     1      48.608  30.943  48.496  0.00  0.00    +0.000 A 
ATOM     20  C   UNL     1      47.952  31.942  47.807  0.00  0.00    +0.000 A 
ATOM     21  H   UNL     1      47.016  30.188  45.136  0.00  0.00    +0.000 HD
ATOM     22  H   UNL     1      48.157  28.420  46.320  0.00  0.00    +0.000 HD
ATOM     23  H   UNL     1      50.413  28.016  50.303  0.00  0.00    +0.000 HD
ATOM     24  H   UNL     1      50.337  30.230  51.336  0.00  0.00    +0.000 HD
ATOM     25  H   UNL     1      49.169  32.125  50.167  0.00  0.00    +0.000 HD
ATOM     26  H   UNL     1      47.897  32.935  48.231  0.00  0.00    +0.000 HD
ENDBRANCH   5  11
BRANCH   3  31
ATOM     27  C   UNL     1      48.767  35.444  41.154  0.00  0.00    +0.000 A 
ATOM     28  C   UNL     1      48.269  34.853  39.983  0.00  0.00    +0.000 A 
ATOM     29  C   UNL     1      47.184  33.964  40.087  0.00  0.00    +0.000 A 
ATOM     30  N   UNL     1      46.724  33.768  41.338  0.00  0.00    +0.000 NA
ATOM     31  C   UNL     1      47.204  34.334  42.449  0.00  0.00    +0.000 A 
ATOM     32  N   UNL     1      48.234  35.181  42.368  0.00  0.00    +0.000 NA
ATOM     33  H   UNL     1      49.586  36.107  41.023  0.00  0.00    +0.000 HD
ATOM     34  H   UNL     1      48.694  35.066  39.038  0.00  0.00    +0.000 HD
BRANCH  29  36
ATOM     35  C   UNL     1      45.765  32.229  39.168  0.00  0.00    +0.000 A 
ATOM     36  C   UNL     1      46.597  33.303  38.936  0.00  0.00    +0.000 A 
ATOM     37  C   UNL     1      46.837  33.700  37.639  0.00  0.00    +0.000 A 
ATOM     38  H   UNL     1      47.471  34.520  37.419  0.00  0.00    +0.000 HD
ATOM     39  C   UNL     1      46.268  33.058  36.537  0.00  0.00    +0.000 A 
ATOM     40  H   UNL     1      46.446  33.357  35.529  0.00  0.00    +0.000 HD
ATOM     41  C   UNL     1      45.428  31.977  36.747  0.00  0.00    +0.000 A 
ATOM     42  C   UNL     1      45.198  31.590  38.059  0.00  0.00    +0.000 A 
BRANCH  35  44
ATOM     43  N   UNL     1      45.217  31.365  41.546  0.00  0.00    +0.000 NA
ATOM     44  C   UNL     1      45.457  31.744  40.488  0.00  0.00    +0.000 C 
ENDBRANCH  35  44
ENDBRANCH  29  36
ENDBRANCH   3  31
TORSDOF 4
