
 OpenBabel03252507383D

 39 43  0  0  0  0  0  0  0  0999 V2000
   45.0630   34.0370   43.5300 C   0  0  0  0  0  0  0  0  0  0  0  0
   45.8400   33.0530   44.1920 C   0  0  0  0  0  0  0  0  0  0  0  0
   46.0030   33.1820   45.5520 C   0  0  0  0  0  0  0  0  0  0  0  0
   45.4220   34.2270   46.1840 N   0  0  0  0  0  0  0  0  0  0  0  0
   44.6830   35.1570   45.5350 C   0  0  0  0  0  0  0  0  0  0  0  0
   44.5090   35.0580   44.2240 N   0  0  0  0  0  0  0  0  0  0  0  0
   46.3000   32.2280   43.6960 H   0  0  0  0  0  0  0  0  0  0  0  0
   44.2650   35.9500   46.1380 H   0  0  0  0  0  0  0  0  0  0  0  0
   47.1170   32.6710   47.6590 C   0  0  0  0  0  0  0  0  0  0  0  0
   46.7660   32.2580   46.3830 C   0  0  0  0  0  0  0  0  0  0  0  0
   47.1470   31.0060   45.9830 C   0  0  0  0  0  0  0  0  0  0  0  0
   47.8600   30.1490   46.7970 C   0  0  0  0  0  0  0  0  0  0  0  0
   48.3290   28.8870   46.6110 N   0  0  0  0  0  0  0  0  0  0  0  0
   48.9670   28.5290   47.7760 C   0  0  0  0  0  0  0  0  0  0  0  0
   48.8820   29.5490   48.6350 N   0  0  0  0  0  0  0  0  0  0  0  0
   48.2080   30.5490   48.0520 C   0  0  0  0  0  0  0  0  0  0  0  0
   47.8380   31.8110   48.4860 C   0  0  0  0  0  0  0  0  0  0  0  0
   46.8450   33.6460   48.0270 H   0  0  0  0  0  0  0  0  0  0  0  0
   46.8690   30.6790   44.9730 H   0  0  0  0  0  0  0  0  0  0  0  0
   48.2020   28.3440   45.7370 H   0  0  0  0  0  0  0  0  0  0  0  0
   49.4500   27.5600   47.9340 H   0  0  0  0  0  0  0  0  0  0  0  0
   48.1220   32.1170   49.4900 H   0  0  0  0  0  0  0  0  0  0  0  0
   44.9030   33.8970   42.1460 O   0  0  0  0  0  0  0  0  0  0  0  0
   43.7050   33.3840   41.6460 C   0  0  0  0  0  0  0  0  0  0  0  0
   43.7420   32.1560   42.1970 C   0  0  0  0  0  0  0  0  0  0  0  0
   42.1090   31.4050   41.5460 S   0  0  0  0  0  0  0  0  0  0  0  0
   41.7550   33.0140   40.6420 C   0  0  0  0  0  0  0  0  0  0  0  0
   42.6330   33.6010   40.9110 N   0  0  0  0  0  0  0  0  0  0  0  0
   44.1180   31.1590   42.8490 H   0  0  0  0  0  0  0  0  0  0  0  0
   40.4110   32.7670   38.5490 C   0  0  0  0  0  0  0  0  0  0  0  0
   40.5150   33.2090   39.8190 C   0  0  0  0  0  0  0  0  0  0  0  0
   39.5160   33.8720   40.4860 C   0  0  0  0  0  0  0  0  0  0  0  0
   39.6240   34.2140   41.4960 H   0  0  0  0  0  0  0  0  0  0  0  0
   38.3580   34.0740   39.7670 C   0  0  0  0  0  0  0  0  0  0  0  0
   37.5470   34.5990   40.2700 H   0  0  0  0  0  0  0  0  0  0  0  0
   38.2260   33.6350   38.4730 C   0  0  0  0  0  3  0  0  0  0  0  0
   39.2440   32.9690   37.8220 C   0  0  0  0  0  3  0  0  0  0  0  0
   42.3210   31.5250   37.3490 N   0  0  0  0  0  0  0  0  0  0  0  0
   41.4710   32.0840   37.8960 C   0  0  0  0  0  0  0  0  0  0  0  0
  1  2  2  0  0  0  0
  1  6  1  0  0  0  0
  2  3  1  0  0  0  0
  3  4  2  0  0  0  0
  3 10  1  0  0  0  0
  5  8  1  0  0  0  0
  5  4  1  0  0  0  0
  6  5  2  0  0  0  0
  7  2  1  0  0  0  0
  9 18  1  0  0  0  0
  9 17  1  0  0  0  0
 10  9  2  0  0  0  0
 11 10  1  0  0  0  0
 11 12  2  0  0  0  0
 12 16  1  0  0  0  0
 13 12  1  0  0  0  0
 13 14  1  0  0  0  0
 14 21  1  0  0  0  0
 14 15  2  0  0  0  0
 16 17  2  0  0  0  0
 16 15  1  0  0  0  0
 17 22  1  0  0  0  0
 19 11  1  0  0  0  0
 20 13  1  0  0  0  0
 23  1  1  0  0  0  0
 24 23  1  0  0  0  0
 24 25  2  0  0  0  0
 25 29  1  0  0  0  0
 26 25  1  0  0  0  0
 27 28  2  0  0  0  0
 27 26  1  0  0  0  0
 28 24  1  0  0  0  0
 30 31  1  0  0  0  0
 31 32  2  0  0  0  0
 31 27  1  0  0  0  0
 32 33  1  0  0  0  0
 34 35  1  0  0  0  0
 34 32  1  0  0  0  0
 36 34  2  0  0  0  0
 37 36  1  0  0  0  0
 37 30  2  0  0  0  0
 38 39  3  0  0  0  0
 39 30  1  0  0  0  0
M  END
>  <minimizedAffinity>
-6.33358335

>  <minimizedRMSD>
1.84095049

$$$$
