
 OpenBabel03252500363D

 47 50  0  0  1  0  0  0  0  0999 V2000
   46.4180   34.7140   43.2530 C   0  0  1  0  0  0  0  0  0  0  0  0
   45.2550   34.7140   44.0270 C   0  0  0  0  0  0  0  0  0  0  0  0
   46.3500   33.8970   44.5760 C   0  0  1  0  0  0  0  0  0  0  0  0
   47.1320   35.5850   43.2800 H   0  0  0  0  0  0  0  0  0  0  0  0
   44.9410   35.6450   44.5650 H   0  0  0  0  0  0  0  0  0  0  0  0
   44.3450   34.1450   43.6820 H   0  0  0  0  0  0  0  0  0  0  0  0
   47.0860   34.2770   45.3000 H   0  0  0  0  0  0  0  0  0  0  0  0
   45.5510   33.7540   41.1150 C   0  0  0  0  0  0  0  0  0  0  0  0
   46.6610   33.9310   42.0020 C   0  0  0  0  0  0  0  0  0  0  0  0
   47.8700   33.3940   41.6920 C   0  0  0  0  0  0  0  0  0  0  0  0
   47.9500   32.6930   40.5090 N   0  0  0  0  0  0  0  0  0  0  0  0
   46.8960   32.5340   39.6820 C   0  0  0  0  0  0  0  0  0  0  0  0
   45.6570   33.0630   39.9600 N   0  0  0  0  0  0  0  0  0  0  0  0
   44.6030   34.1750   41.3590 H   0  0  0  0  0  0  0  0  0  0  0  0
   48.7080   33.5170   42.3440 H   0  0  0  0  0  0  0  0  0  0  0  0
   47.6760   32.3550   37.3510 C   0  0  0  0  0  0  0  0  0  0  0  0
   47.0750   31.7770   38.4490 C   0  0  0  0  0  0  0  0  0  0  0  0
   46.6240   30.4730   38.4240 C   0  0  0  0  0  0  0  0  0  0  0  0
   46.1500   29.9640   39.2360 H   0  0  0  0  0  0  0  0  0  0  0  0
   46.7810   29.7280   37.2660 C   0  0  0  0  0  0  0  0  0  0  0  0
   46.4610   28.6890   37.1380 H   0  0  0  0  0  0  0  0  0  0  0  0
   47.3830   30.2660   36.1230 C   0  0  0  0  0  3  0  0  0  0  0  0
   47.8190   31.5780   36.1970 C   0  0  0  0  0  3  0  0  0  0  0  0
   48.4960   34.8080   37.4290 N   0  0  0  0  0  0  0  0  0  0  0  0
   48.1350   33.7090   37.4030 C   0  0  0  0  0  0  0  0  0  0  0  0
   46.2910   32.4170   44.5080 C   0  0  0  0  0  0  0  0  0  0  0  0
   47.3110   32.0320   44.3520 H   0  0  0  0  0  0  0  0  0  0  0  0
   45.6640   32.0780   43.6580 H   0  0  0  0  0  0  0  0  0  0  0  0
   45.8060   31.9540   45.7580 N   0  0  0  0  0  0  0  0  0  0  0  0
   46.0130   32.7500   46.8880 C   0  0  0  0  0  0  0  0  0  0  0  0
   47.3370   32.3990   47.5960 C   0  0  0  0  0  0  0  0  0  0  0  0
   47.1630   31.0130   48.1600 C   0  0  0  0  0  0  0  0  0  0  0  0
   46.9010   30.1040   46.9930 C   0  0  0  0  0  0  0  0  0  0  0  0
   45.8380   30.5830   46.0420 C   0  0  2  0  0  0  0  0  0  0  0  0
   45.2460   32.4020   47.6470 H   0  0  0  0  0  0  0  0  0  0  0  0
   45.8270   33.8210   46.8390 H   0  0  0  0  0  0  0  0  0  0  0  0
   48.1670   32.4050   46.8820 H   0  0  0  0  0  0  0  0  0  0  0  0
   47.4530   33.1350   48.4080 H   0  0  0  0  0  0  0  0  0  0  0  0
   48.1480   30.7100   48.5850 H   0  0  0  0  0  0  0  0  0  0  0  0
   46.3920   30.9710   48.9370 H   0  0  0  0  0  0  0  0  0  0  0  0
   47.8160   29.8990   46.4410 H   0  0  0  0  0  0  0  0  0  0  0  0
   46.5580   29.1190   47.4130 H   0  0  0  0  0  0  0  0  0  0  0  0
   44.8520   30.2870   46.4970 H   0  0  0  0  0  0  0  0  0  0  0  0
   45.9650   29.7440   44.7790 C   0  0  0  0  0  0  0  0  0  0  0  0
   46.9780   29.8630   44.3280 H   0  0  0  0  0  0  0  0  0  0  0  0
   45.7540   28.6810   45.0290 H   0  0  0  0  0  0  0  0  0  0  0  0
   45.1570   30.0370   44.0720 H   0  0  0  0  0  0  0  0  0  0  0  0
  1  4  1  1  0  0  0
  1  2  1  0  0  0  0
  1  3  1  0  0  0  0
  2  5  1  0  0  0  0
  2  3  1  0  0  0  0
  3  7  1  1  0  0  0
  6  2  1  0  0  0  0
  8 14  1  0  0  0  0
  8  9  1  0  0  0  0
  9  1  1  0  0  0  0
 10  9  2  0  0  0  0
 10 15  1  0  0  0  0
 11 10  1  0  0  0  0
 12 13  1  0  0  0  0
 12 11  2  0  0  0  0
 13  8  2  0  0  0  0
 16 25  1  0  0  0  0
 16 17  1  0  0  0  0
 17 12  1  0  0  0  0
 18 17  2  0  0  0  0
 18 19  1  0  0  0  0
 20 18  1  0  0  0  0
 21 20  1  0  0  0  0
 22 23  1  0  0  0  0
 22 20  2  0  0  0  0
 23 16  2  0  0  0  0
 25 24  3  0  0  0  0
 26  3  1  0  0  0  0
 26 29  1  0  0  0  0
 27 26  1  0  0  0  0
 28 26  1  0  0  0  0
 29 34  1  0  0  0  0
 29 30  1  0  0  0  0
 30 31  1  0  0  0  0
 30 35  1  0  0  0  0
 31 32  1  0  0  0  0
 31 38  1  0  0  0  0
 32 39  1  0  0  0  0
 32 40  1  0  0  0  0
 33 42  1  0  0  0  0
 33 32  1  0  0  0  0
 34 43  1  1  0  0  0
 34 33  1  0  0  0  0
 36 30  1  0  0  0  0
 37 31  1  0  0  0  0
 41 33  1  0  0  0  0
 44 46  1  0  0  0  0
 44 34  1  0  0  0  0
 45 44  1  0  0  0  0
 47 44  1  0  0  0  0
M  END
>  <minimizedAffinity>
-4.36275196

>  <minimizedRMSD>
1.72478366

$$$$
