
 OpenBabel03252507193D

 45 48  0  0  1  0  0  0  0  0999 V2000
   46.7890   33.1620   43.5060 C   0  0  0  0  0  0  0  0  0  0  0  0
   47.8760   32.7970   44.0260 O   0  0  0  0  0  0  0  0  0  0  0  0
   46.3510   32.7550   42.2090 N   0  0  0  0  0  0  0  0  0  0  0  0
   45.0480   32.2910   41.7430 C   0  0  0  0  0  0  0  0  0  0  0  0
   44.6260   33.1250   40.5130 C   0  0  0  0  0  0  0  0  0  0  0  0
   45.5890   32.8490   39.3820 C   0  0  0  0  0  0  0  0  0  0  0  0
   46.8090   32.1470   39.9090 C   0  0  0  0  0  0  0  0  0  0  0  0
   47.3320   32.8030   41.1590 C   0  0  2  0  0  0  0  0  0  0  0  0
   44.2760   32.5840   42.5120 H   0  0  0  0  0  0  0  0  0  0  0  0
   45.0190   31.2350   41.4860 H   0  0  0  0  0  0  0  0  0  0  0  0
   43.5820   32.9350   40.2770 H   0  0  0  0  0  0  0  0  0  0  0  0
   44.8350   34.1770   40.8360 H   0  0  0  0  0  0  0  0  0  0  0  0
   45.8440   33.7510   38.7930 H   0  0  0  0  0  0  0  0  0  0  0  0
   45.0890   32.1410   38.6790 H   0  0  0  0  0  0  0  0  0  0  0  0
   47.6060   32.1290   39.1430 H   0  0  0  0  0  0  0  0  0  0  0  0
   46.5670   31.0720   40.1040 H   0  0  0  0  0  0  0  0  0  0  0  0
   47.3940   33.9010   40.8910 H   0  0  0  0  0  0  0  0  0  0  0  0
   45.4680   35.2160   43.6340 C   0  0  0  0  0  0  0  0  0  0  0  0
   45.9400   34.0450   44.2700 C   0  0  0  0  0  0  0  0  0  0  0  0
   45.5800   33.7840   45.5750 C   0  0  0  0  0  0  0  0  0  0  0  0
   44.7790   34.6690   46.2080 N   0  0  0  0  0  0  0  0  0  0  0  0
   44.3180   35.7960   45.6110 C   0  0  0  0  0  0  0  0  0  0  0  0
   44.6720   36.0470   44.3360 N   0  0  0  0  0  0  0  0  0  0  0  0
   45.7440   35.4290   42.6100 H   0  0  0  0  0  0  0  0  0  0  0  0
   43.6860   36.4280   46.2140 H   0  0  0  0  0  0  0  0  0  0  0  0
   46.0820   32.5810   46.2080 C   0  0  0  0  0  0  0  0  0  0  0  0
   45.5650   31.3660   45.8720 C   0  0  0  0  0  0  0  0  0  0  0  0
   46.0500   30.2320   46.4810 C   0  0  0  0  0  0  0  0  0  0  0  0
   47.0590   30.2650   47.4390 C   0  0  0  0  0  0  0  0  0  0  0  0
   47.5420   31.5240   47.7370 C   0  0  0  0  0  0  0  0  0  0  0  0
   47.0450   32.6090   47.1220 N   0  0  0  0  0  0  0  0  0  0  0  0
   44.7830   31.1720   45.1560 H   0  0  0  0  0  0  0  0  0  0  0  0
   45.6740   29.2310   46.2520 H   0  0  0  0  0  0  0  0  0  0  0  0
   47.4620   29.3930   47.9360 H   0  0  0  0  0  0  0  0  0  0  0  0
   48.3250   31.7020   48.4630 H   0  0  0  0  0  0  0  0  0  0  0  0
   49.7120   33.3100   41.7260 C   0  0  0  0  0  0  0  0  0  0  0  0
   48.6830   32.3860   41.5020 C   0  0  0  0  0  0  0  0  0  0  0  0
   49.1360   31.0690   41.6340 C   0  0  0  0  0  0  0  0  0  0  0  0
   48.4010   30.2890   41.4750 H   0  0  0  0  0  0  0  0  0  0  0  0
   50.4300   30.7090   41.9440 C   0  0  0  0  0  0  0  0  0  0  0  0
   50.7030   29.6650   42.0280 H   0  0  0  0  0  0  0  0  0  0  0  0
   51.3630   31.7050   42.1440 C   0  0  0  0  0  3  0  0  0  0  0  0
   51.0270   33.0380   42.0400 C   0  0  0  0  0  3  0  0  0  0  0  0
   49.0060   35.8210   41.5270 N   0  0  0  0  0  0  0  0  0  0  0  0
   49.3190   34.7040   41.6060 C   0  0  0  0  0  0  0  0  0  0  0  0
  1  2  2  0  0  0  0
  1 19  1  0  0  0  0
  3  1  1  0  0  0  0
  4  3  1  0  0  0  0
  4  9  1  0  0  0  0
  5 12  1  0  0  0  0
  5  4  1  0  0  0  0
  6  7  1  0  0  0  0
  6  5  1  0  0  0  0
  7 16  1  0  0  0  0
  7  8  1  0  0  0  0
  8 17  1  6  0  0  0
  8 37  1  0  0  0  0
  8  3  1  0  0  0  0
 10  4  1  0  0  0  0
 11  5  1  0  0  0  0
 13  6  1  0  0  0  0
 14  6  1  0  0  0  0
 15  7  1  0  0  0  0
 18 19  2  0  0  0  0
 18 23  1  0  0  0  0
 19 20  1  0  0  0  0
 20 26  1  0  0  0  0
 20 21  2  0  0  0  0
 22 21  1  0  0  0  0
 22 25  1  0  0  0  0
 23 22  2  0  0  0  0
 24 18  1  0  0  0  0
 26 31  1  0  0  0  0
 27 26  2  0  0  0  0
 27 28  1  0  0  0  0
 28 29  2  0  0  0  0
 29 30  1  0  0  0  0
 29 34  1  0  0  0  0
 30 35  1  0  0  0  0
 31 30  2  0  0  0  0
 32 27  1  0  0  0  0
 33 28  1  0  0  0  0
 36 43  1  0  0  0  0
 37 38  1  0  0  0  0
 37 36  2  0  0  0  0
 38 40  2  0  0  0  0
 39 38  1  0  0  0  0
 40 41  1  0  0  0  0
 40 42  1  0  0  0  0
 43 42  2  0  0  0  0
 44 45  3  0  0  0  0
 45 36  1  0  0  0  0
M  END
>  <minimizedAffinity>
-5.50049019

>  <minimizedRMSD>
1.29015255

$$$$
