
 OpenBabel03252502093D

 49 53  0  0  0  0  0  0  0  0999 V2000
   45.6830   33.8250   45.4310 C   0  0  0  0  0  0  0  0  0  0  0  0
   44.7680   34.7310   45.7950 N   0  0  0  0  0  0  0  0  0  0  0  0
   44.4250   35.8040   45.0850 C   0  0  0  0  0  0  0  0  0  0  0  0
   45.0200   36.0420   43.8900 N   0  0  0  0  0  0  0  0  0  0  0  0
   45.9520   35.2090   43.4130 C   0  0  0  0  0  0  0  0  0  0  0  0
   46.5630   35.4440   42.2020 C   0  0  0  0  0  0  0  0  0  0  0  0
   47.5150   34.6060   41.7030 C   0  0  0  0  0  0  0  0  0  0  0  0
   47.8470   33.5030   42.4660 C   0  0  0  0  0  0  0  0  0  0  0  0
   47.2050   33.3070   43.6800 C   0  0  0  0  0  0  0  0  0  0  0  0
   46.2600   34.1150   44.2020 C   0  0  0  0  0  0  0  0  0  0  0  0
   43.6670   36.4670   45.4870 H   0  0  0  0  0  0  0  0  0  0  0  0
   46.2830   36.3160   41.6270 H   0  0  0  0  0  0  0  0  0  0  0  0
   47.9600   34.8400   40.7490 H   0  0  0  0  0  0  0  0  0  0  0  0
   47.5790   32.0280   47.9290 C   0  0  0  0  0  0  0  0  0  0  0  0
   47.0840   30.7210   47.9300 C   0  0  0  0  0  0  0  0  0  0  0  0
   46.0600   30.4470   47.0580 C   0  0  0  0  0  0  0  0  0  0  0  0
   45.5950   31.4080   46.2660 N   0  0  0  0  0  0  0  0  0  0  0  0
   46.0470   32.6430   46.2470 C   0  0  0  0  0  0  0  0  0  0  0  0
   47.0540   32.9370   47.0990 N   0  0  0  0  0  0  0  0  0  0  0  0
   45.5180   29.1830   47.0250 N   0  0  0  0  0  0  0  0  0  0  0  0
   44.2990   28.8270   46.2480 C   0  0  0  0  0  0  0  0  0  0  0  0
   44.2260   27.3250   46.2570 C   0  0  0  0  0  0  0  0  0  0  0  0
   44.9280   26.9680   47.5280 C   0  0  0  0  0  0  0  0  0  0  0  0
   45.9800   28.0090   47.6940 C   0  0  0  0  0  0  0  0  0  0  0  0
   48.3960   32.2910   48.6100 H   0  0  0  0  0  0  0  0  0  0  0  0
   43.4170   29.3320   46.6460 H   0  0  0  0  0  0  0  0  0  0  0  0
   44.5450   29.1380   45.1990 H   0  0  0  0  0  0  0  0  0  0  0  0
   43.1910   26.9500   46.2430 H   0  0  0  0  0  0  0  0  0  0  0  0
   44.7570   26.8640   45.4110 H   0  0  0  0  0  0  0  0  0  0  0  0
   45.3290   25.9320   47.4850 H   0  0  0  0  0  0  0  0  0  0  0  0
   44.1630   26.9760   48.3300 H   0  0  0  0  0  0  0  0  0  0  0  0
   46.8980   27.6330   47.2410 H   0  0  0  0  0  0  0  0  0  0  0  0
   46.0350   28.1150   48.8200 H   0  0  0  0  0  0  0  0  0  0  0  0
   47.6720   29.8130   48.7760 N   0  0  0  0  0  0  0  0  0  0  0  0
   48.3580   29.0690   48.4940 H   0  0  0  0  0  0  0  0  0  0  0  0
   47.5880   29.6550   49.8110 H   0  0  0  0  0  0  0  0  0  0  0  0
   48.4540   31.5830   41.1250 C   0  0  0  0  0  0  0  0  0  0  0  0
   48.8700   32.6290   41.9010 C   0  0  0  0  0  0  0  0  0  0  0  0
   50.2070   32.8670   42.1540 C   0  0  0  0  0  0  0  0  0  0  0  0
   50.4890   33.7060   42.7740 H   0  0  0  0  0  0  0  0  0  0  0  0
   51.1640   32.0260   41.6090 C   0  0  0  0  0  0  0  0  0  0  0  0
   52.2230   32.1730   41.7800 H   0  0  0  0  0  0  0  0  0  0  0  0
   50.7120   30.9790   40.8300 C   0  0  0  0  0  3  0  0  0  0  0  0
   49.3920   30.7410   40.5790 C   0  0  0  0  0  3  0  0  0  0  0  0
   45.9730   31.1530   40.6460 N   0  0  0  0  0  0  0  0  0  0  0  0
   47.0750   31.3400   40.8660 C   0  0  0  0  0  0  0  0  0  0  0  0
   47.6790   32.1120   44.3130 N   0  0  0  0  0  0  0  0  0  0  0  0
   47.0550   31.3680   43.8890 H   0  0  0  0  0  0  0  0  0  0  0  0
   48.4080   31.8790   44.9950 H   0  0  0  0  0  0  0  0  0  0  0  0
  1  2  1  0  0  0  0
  1 18  1  0  0  0  0
  3 11  1  0  0  0  0
  3  2  2  0  0  0  0
  4  3  1  0  0  0  0
  5  4  2  0  0  0  0
  5 10  1  0  0  0  0
  6  5  1  0  0  0  0
  7  6  2  0  0  0  0
  7  8  1  0  0  0  0
  8  9  2  0  0  0  0
  9 10  1  0  0  0  0
  9 47  1  0  0  0  0
 10  1  2  0  0  0  0
 12  6  1  0  0  0  0
 13  7  1  0  0  0  0
 14 15  1  0  0  0  0
 14 25  1  0  0  0  0
 15 34  1  0  0  0  0
 16 15  2  0  0  0  0
 17 16  1  0  0  0  0
 18 17  2  0  0  0  0
 18 19  1  0  0  0  0
 19 14  2  0  0  0  0
 20 16  1  0  0  0  0
 20 24  1  0  0  0  0
 21 22  1  0  0  0  0
 21 26  1  0  0  0  0
 21 20  1  0  0  0  0
 22 23  1  0  0  0  0
 23 24  1  0  0  0  0
 23 31  1  0  0  0  0
 24 33  1  0  0  0  0
 27 21  1  0  0  0  0
 28 22  1  0  0  0  0
 29 22  1  0  0  0  0
 30 23  1  0  0  0  0
 32 24  1  0  0  0  0
 34 36  1  0  0  0  0
 35 34  1  0  0  0  0
 37 38  1  0  0  0  0
 38 39  2  0  0  0  0
 38  8  1  0  0  0  0
 39 40  1  0  0  0  0
 41 42  1  0  0  0  0
 41 39  1  0  0  0  0
 43 41  2  0  0  0  0
 44 43  1  0  0  0  0
 44 37  2  0  0  0  0
 45 46  3  0  0  0  0
 46 37  1  0  0  0  0
 47 49  1  0  0  0  0
 48 47  1  0  0  0  0
M  END
>  <minimizedAffinity>
-6.89202166

>  <minimizedRMSD>
0.330715448

$$$$
