
 OpenBabel03252507383D

 39 43  0  0  0  0  0  0  0  0999 V2000
   45.6610   31.3990   43.4040 C   0  0  0  0  0  0  0  0  0  0  0  0
   44.8030   30.3170   43.7260 C   0  0  0  0  0  0  0  0  0  0  0  0
   44.9300   29.7570   44.9760 C   0  0  0  0  0  0  0  0  0  0  0  0
   45.8540   30.2590   45.8260 N   0  0  0  0  0  0  0  0  0  0  0  0
   46.6650   31.2930   45.5020 C   0  0  0  0  0  0  0  0  0  0  0  0
   46.5650   31.8530   44.3030 N   0  0  0  0  0  0  0  0  0  0  0  0
   44.0740   29.9190   43.0570 H   0  0  0  0  0  0  0  0  0  0  0  0
   47.3680   31.6140   46.2580 H   0  0  0  0  0  0  0  0  0  0  0  0
   44.7170   27.7570   46.3530 C   0  0  0  0  0  0  0  0  0  0  0  0
   44.1260   28.6440   45.4670 C   0  0  0  0  0  0  0  0  0  0  0  0
   42.8220   28.4280   45.1130 C   0  0  0  0  0  0  0  0  0  0  0  0
   42.0830   27.3710   45.6040 C   0  0  0  0  0  0  0  0  0  0  0  0
   40.7980   26.9770   45.3970 N   0  0  0  0  0  0  0  0  0  0  0  0
   40.6060   25.8480   46.1580 C   0  0  0  0  0  0  0  0  0  0  0  0
   41.7440   25.5740   46.8030 N   0  0  0  0  0  0  0  0  0  0  0  0
   42.6580   26.4960   46.4760 C   0  0  0  0  0  0  0  0  0  0  0  0
   43.9770   26.6870   46.8520 C   0  0  0  0  0  0  0  0  0  0  0  0
   45.7410   27.8770   46.6660 H   0  0  0  0  0  0  0  0  0  0  0  0
   42.3540   29.1300   44.4110 H   0  0  0  0  0  0  0  0  0  0  0  0
   40.1340   27.4700   44.7720 H   0  0  0  0  0  0  0  0  0  0  0  0
   39.6630   25.2950   46.2020 H   0  0  0  0  0  0  0  0  0  0  0  0
   44.4240   25.9810   47.5490 H   0  0  0  0  0  0  0  0  0  0  0  0
   45.5250   31.9620   42.1290 O   0  0  0  0  0  0  0  0  0  0  0  0
   44.4060   32.7480   41.8470 C   0  0  0  0  0  0  0  0  0  0  0  0
   44.9060   33.9620   42.1460 C   0  0  0  0  0  0  0  0  0  0  0  0
   43.4070   35.0860   41.7680 S   0  0  0  0  0  0  0  0  0  0  0  0
   42.4190   33.5670   41.2730 C   0  0  0  0  0  0  0  0  0  0  0  0
   43.1550   32.7790   41.4340 N   0  0  0  0  0  0  0  0  0  0  0  0
   45.6870   34.8670   42.5060 H   0  0  0  0  0  0  0  0  0  0  0  0
   40.0350   32.8110   41.2340 C   0  0  0  0  0  0  0  0  0  0  0  0
   40.9950   33.6590   40.8080 C   0  0  0  0  0  0  0  0  0  0  0  0
   40.7770   34.6800   39.9180 C   0  0  0  0  0  0  0  0  0  0  0  0
   41.5560   35.3410   39.5950 H   0  0  0  0  0  0  0  0  0  0  0  0
   39.4820   34.8020   39.4640 C   0  0  0  0  0  0  0  0  0  0  0  0
   39.2770   35.6050   38.7550 H   0  0  0  0  0  0  0  0  0  0  0  0
   38.4870   33.9520   39.8820 C   0  0  0  0  0  3  0  0  0  0  0  0
   38.7290   32.9320   40.7770 C   0  0  0  0  0  3  0  0  0  0  0  0
   40.5300   30.9020   42.8920 N   0  0  0  0  0  0  0  0  0  0  0  0
   40.3060   31.7660   42.1570 C   0  0  0  0  0  0  0  0  0  0  0  0
  1  2  2  0  0  0  0
  1  6  1  0  0  0  0
  2  3  1  0  0  0  0
  3 10  1  0  0  0  0
  3  4  2  0  0  0  0
  5  4  1  0  0  0  0
  5  8  1  0  0  0  0
  6  5  2  0  0  0  0
  7  2  1  0  0  0  0
  9 18  1  0  0  0  0
  9 17  1  0  0  0  0
 10  9  2  0  0  0  0
 11 10  1  0  0  0  0
 11 12  2  0  0  0  0
 12 16  1  0  0  0  0
 13 12  1  0  0  0  0
 13 14  1  0  0  0  0
 14 21  1  0  0  0  0
 14 15  2  0  0  0  0
 16 15  1  0  0  0  0
 16 17  2  0  0  0  0
 17 22  1  0  0  0  0
 19 11  1  0  0  0  0
 20 13  1  0  0  0  0
 23  1  1  0  0  0  0
 24 23  1  0  0  0  0
 24 25  2  0  0  0  0
 25 29  1  0  0  0  0
 26 25  1  0  0  0  0
 27 28  2  0  0  0  0
 27 26  1  0  0  0  0
 28 24  1  0  0  0  0
 30 39  1  0  0  0  0
 31 30  1  0  0  0  0
 31 27  1  0  0  0  0
 32 31  2  0  0  0  0
 33 32  1  0  0  0  0
 34 36  2  0  0  0  0
 34 32  1  0  0  0  0
 35 34  1  0  0  0  0
 36 37  1  0  0  0  0
 37 30  2  0  0  0  0
 39 38  3  0  0  0  0
M  END
>  <minimizedAffinity>
-5.79695559

>  <minimizedRMSD>
4.72357035

$$$$
