
 OpenBabel03252507383D

 39 43  0  0  0  0  0  0  0  0999 V2000
   45.3200   34.7800   43.5450 C   0  0  0  0  0  0  0  0  0  0  0  0
   46.0500   33.7010   44.1050 C   0  0  0  0  0  0  0  0  0  0  0  0
   45.9630   33.5130   45.4640 C   0  0  0  0  0  0  0  0  0  0  0  0
   45.1960   34.3560   46.1930 N   0  0  0  0  0  0  0  0  0  0  0  0
   44.5060   35.3810   45.6410 C   0  0  0  0  0  0  0  0  0  0  0  0
   44.5700   35.5860   44.3330 N   0  0  0  0  0  0  0  0  0  0  0  0
   46.6560   33.0350   43.5320 H   0  0  0  0  0  0  0  0  0  0  0  0
   43.9240   35.9930   46.3170 H   0  0  0  0  0  0  0  0  0  0  0  0
   46.9880   32.6920   47.5180 C   0  0  0  0  0  0  0  0  0  0  0  0
   46.6460   32.4520   46.1960 C   0  0  0  0  0  0  0  0  0  0  0  0
   46.9590   31.2330   45.6600 C   0  0  0  0  0  0  0  0  0  0  0  0
   47.5960   30.2440   46.3830 C   0  0  0  0  0  0  0  0  0  0  0  0
   47.9900   28.9840   46.0600 N   0  0  0  0  0  0  0  0  0  0  0  0
   48.5740   28.4530   47.1860 C   0  0  0  0  0  0  0  0  0  0  0  0
   48.5290   29.3720   48.1570 N   0  0  0  0  0  0  0  0  0  0  0  0
   47.9350   30.4730   47.6820 C   0  0  0  0  0  0  0  0  0  0  0  0
   47.6320   31.6980   48.2540 C   0  0  0  0  0  0  0  0  0  0  0  0
   46.7670   33.6330   47.9920 H   0  0  0  0  0  0  0  0  0  0  0  0
   46.6880   31.0440   44.6140 H   0  0  0  0  0  0  0  0  0  0  0  0
   47.8530   28.5550   45.1250 H   0  0  0  0  0  0  0  0  0  0  0  0
   48.9920   27.4440   47.2390 H   0  0  0  0  0  0  0  0  0  0  0  0
   47.9070   31.8680   49.2910 H   0  0  0  0  0  0  0  0  0  0  0  0
   45.4150   34.9630   42.1600 O   0  0  0  0  0  0  0  0  0  0  0  0
   44.3730   34.5230   41.3410 C   0  0  0  0  0  0  0  0  0  0  0  0
   45.0880   33.8830   40.3970 C   0  0  0  0  0  0  0  0  0  0  0  0
   43.7020   33.2500   39.2440 S   0  0  0  0  0  0  0  0  0  0  0  0
   42.4280   34.0440   40.3740 C   0  0  0  0  0  0  0  0  0  0  0  0
   43.0720   34.4820   41.1370 N   0  0  0  0  0  0  0  0  0  0  0  0
   46.0480   33.4140   39.7510 H   0  0  0  0  0  0  0  0  0  0  0  0
   40.3680   34.6590   39.0970 C   0  0  0  0  0  0  0  0  0  0  0  0
   40.9560   33.9660   40.0950 C   0  0  0  0  0  0  0  0  0  0  0  0
   40.2820   33.1280   40.9490 C   0  0  0  0  0  0  0  0  0  0  0  0
   40.7710   32.5880   41.7330 H   0  0  0  0  0  0  0  0  0  0  0  0
   38.9260   33.0250   40.7280 C   0  0  0  0  0  0  0  0  0  0  0  0
   38.3640   32.3670   41.3900 H   0  0  0  0  0  0  0  0  0  0  0  0
   38.3030   33.7200   39.7200 C   0  0  0  0  0  3  0  0  0  0  0  0
   39.0000   34.5570   38.8740 C   0  0  0  0  0  3  0  0  0  0  0  0
   41.6860   36.2180   37.5270 N   0  0  0  0  0  0  0  0  0  0  0  0
   41.1040   35.5170   38.2370 C   0  0  0  0  0  0  0  0  0  0  0  0
  1  2  2  0  0  0  0
  1  6  1  0  0  0  0
  2  3  1  0  0  0  0
  3  4  2  0  0  0  0
  3 10  1  0  0  0  0
  5  4  1  0  0  0  0
  5  8  1  0  0  0  0
  6  5  2  0  0  0  0
  7  2  1  0  0  0  0
  9 18  1  0  0  0  0
  9 17  1  0  0  0  0
 10  9  2  0  0  0  0
 11 10  1  0  0  0  0
 11 12  2  0  0  0  0
 12 16  1  0  0  0  0
 13 12  1  0  0  0  0
 13 14  1  0  0  0  0
 14 21  1  0  0  0  0
 14 15  2  0  0  0  0
 16 15  1  0  0  0  0
 16 17  2  0  0  0  0
 17 22  1  0  0  0  0
 19 11  1  0  0  0  0
 20 13  1  0  0  0  0
 23  1  1  0  0  0  0
 24 23  1  0  0  0  0
 25 24  2  0  0  0  0
 26 27  1  0  0  0  0
 26 25  1  0  0  0  0
 27 28  2  0  0  0  0
 28 24  1  0  0  0  0
 29 25  1  0  0  0  0
 30 31  1  0  0  0  0
 31 27  1  0  0  0  0
 31 32  2  0  0  0  0
 32 33  1  0  0  0  0
 34 32  1  0  0  0  0
 34 35  1  0  0  0  0
 36 34  2  0  0  0  0
 37 30  2  0  0  0  0
 37 36  1  0  0  0  0
 38 39  3  0  0  0  0
 39 30  1  0  0  0  0
M  END
>  <minimizedAffinity>
-7.04703856

>  <minimizedRMSD>
1.23345172

$$$$
