
 OpenBabel03242514123D

 47 50  0  0  1  0  0  0  0  0999 V2000
   39.2420   32.1840   40.3380 C   0  0  0  0  0  0  0  0  0  0  0  0
   38.2730   33.1880   40.2990 C   0  0  0  0  0  0  0  0  0  0  0  0
   38.5700   34.5410   40.2520 C   0  0  0  0  0  0  0  0  0  0  0  0
   39.9430   34.8270   40.2440 C   0  0  0  0  0  0  0  0  0  0  0  0
   40.9130   33.8070   40.2830 C   0  0  0  0  0  0  0  0  0  0  0  0
   40.5470   32.5140   40.3280 N   0  0  0  0  0  0  0  0  0  0  0  0
   37.2380   32.8590   40.3090 H   0  0  0  0  0  0  0  0  0  0  0  0
   37.8020   35.2710   40.2240 H   0  0  0  0  0  0  0  0  0  0  0  0
   40.1170   35.8920   40.2100 H   0  0  0  0  0  0  0  0  0  0  0  0
   42.3240   34.1730   40.2540 C   0  0  1  0  0  0  0  0  0  0  0  0
   42.9650   34.0110   41.6930 C   0  0  0  0  0  0  0  0  0  0  0  0
   44.2660   34.8520   41.5550 C   0  0  0  0  0  0  0  0  0  0  0  0
   45.1750   33.9720   40.7040 C   0  0  0  0  0  0  0  0  0  0  0  0
   44.6080   33.7560   39.3490 C   0  0  0  0  0  0  0  0  0  0  0  0
   43.1420   33.5610   39.2510 C   0  0  2  0  0  0  0  0  0  0  0  0
   42.3430   35.3010   40.1760 H   0  0  0  0  0  0  0  0  0  0  0  0
   43.2340   32.9620   41.8420 H   0  0  0  0  0  0  0  0  0  0  0  0
   42.2910   34.4500   42.4350 H   0  0  0  0  0  0  0  0  0  0  0  0
   44.7510   34.9620   42.5420 H   0  0  0  0  0  0  0  0  0  0  0  0
   44.0710   35.7800   41.0220 H   0  0  0  0  0  0  0  0  0  0  0  0
   46.1490   34.5010   40.6300 H   0  0  0  0  0  0  0  0  0  0  0  0
   45.4010   33.0260   41.2450 H   0  0  0  0  0  0  0  0  0  0  0  0
   45.1530   32.9070   38.8850 H   0  0  0  0  0  0  0  0  0  0  0  0
   44.9480   34.6390   38.7270 H   0  0  0  0  0  0  0  0  0  0  0  0
   42.9850   32.4380   39.2590 H   0  0  0  0  0  0  0  0  0  0  0  0
   42.6360   34.2700   37.6500 S   0  0  0  0  0  0  0  0  0  0  0  0
   42.7780   35.6670   37.7790 H   0  0  0  0  0  0  0  0  0  0  0  0
   39.1890   28.5450   40.1210 C   0  0  0  0  0  0  0  0  0  0  0  0
   37.9020   28.1910   40.5170 C   0  0  0  0  0  0  0  0  0  0  0  0
   37.0670   29.2450   40.8530 C   0  0  0  0  0  0  0  0  0  0  0  0
   37.5400   30.5280   40.7800 N   0  0  0  0  0  0  0  0  0  0  0  0
   38.8330   30.7950   40.3770 C   0  0  0  0  0  0  0  0  0  0  0  0
   39.6170   29.8270   40.0620 N   0  0  0  0  0  0  0  0  0  0  0  0
   35.7500   29.0930   41.2760 N   0  0  0  0  0  0  0  0  0  0  0  0
   39.8180   27.6940   39.8630 H   0  0  0  0  0  0  0  0  0  0  0  0
   35.2370   28.6170   40.5100 H   0  0  0  0  0  0  0  0  0  0  0  0
   35.2830   29.3790   42.1830 H   0  0  0  0  0  0  0  0  0  0  0  0
   37.5660   26.1880   41.8250 C   0  0  0  0  0  0  0  0  0  0  0  0
   37.3990   26.8240   40.5950 C   0  0  0  0  0  0  0  0  0  0  0  0
   36.7820   26.1330   39.5560 C   0  0  0  0  0  0  0  0  0  0  0  0
   36.6800   26.6720   38.6320 H   0  0  0  0  0  0  0  0  0  0  0  0
   36.3570   24.8400   39.7820 C   0  0  0  0  0  0  0  0  0  0  0  0
   35.8800   24.3150   38.9670 H   0  0  0  0  0  0  0  0  0  0  0  0
   36.5090   24.1850   40.9870 C   0  0  0  0  0  3  0  0  0  0  0  0
   37.1300   24.8940   42.0180 C   0  0  0  0  0  3  0  0  0  0  0  0
   38.7110   27.3690   43.8350 N   0  0  0  0  0  0  0  0  0  0  0  0
   38.1980   26.8530   42.9370 C   0  0  0  0  0  0  0  0  0  0  0  0
  1 32  1  0  0  0  0
  2  7  1  0  0  0  0
  2  1  2  0  0  0  0
  3  2  1  0  0  0  0
  4  3  2  0  0  0  0
  4  5  1  0  0  0  0
  5  6  2  0  0  0  0
  6  1  1  0  0  0  0
  8  3  1  0  0  0  0
  9  4  1  0  0  0  0
 10 16  1  6  0  0  0
 10  5  1  0  0  0  0
 10 11  1  0  0  0  0
 11 17  1  0  0  0  0
 11 18  1  0  0  0  0
 12 11  1  0  0  0  0
 12 19  1  0  0  0  0
 13 22  1  0  0  0  0
 13 12  1  0  0  0  0
 14 13  1  0  0  0  0
 15 25  1  6  0  0  0
 15 14  1  0  0  0  0
 15 10  1  0  0  0  0
 20 12  1  0  0  0  0
 21 13  1  0  0  0  0
 23 14  1  0  0  0  0
 24 14  1  0  0  0  0
 26 27  1  0  0  0  0
 26 15  1  0  0  0  0
 28 29  1  0  0  0  0
 29 39  1  0  0  0  0
 29 30  2  0  0  0  0
 30 34  1  0  0  0  0
 31 30  1  0  0  0  0
 32 31  2  0  0  0  0
 33 28  2  0  0  0  0
 33 32  1  0  0  0  0
 34 37  1  0  0  0  0
 35 28  1  0  0  0  0
 36 34  1  0  0  0  0
 38 45  1  0  0  0  0
 38 47  1  0  0  0  0
 39 38  2  0  0  0  0
 40 42  2  0  0  0  0
 40 39  1  0  0  0  0
 41 40  1  0  0  0  0
 42 44  1  0  0  0  0
 43 42  1  0  0  0  0
 44 45  2  0  0  0  0
 47 46  3  0  0  0  0
M  END
>  <minimizedAffinity>
-6.83695555

$$$$

 OpenBabel03242514123D

 47 50  0  0  1  0  0  0  0  0999 V2000
   39.2980   32.2260   40.5020 C   0  0  0  0  0  0  0  0  0  0  0  0
   38.3160   33.2120   40.3940 C   0  0  0  0  0  0  0  0  0  0  0  0
   38.5960   34.5640   40.2730 C   0  0  0  0  0  0  0  0  0  0  0  0
   39.9650   34.8690   40.2660 C   0  0  0  0  0  0  0  0  0  0  0  0
   40.9480   33.8670   40.3750 C   0  0  0  0  0  0  0  0  0  0  0  0
   40.5980   32.5740   40.4900 N   0  0  0  0  0  0  0  0  0  0  0  0
   37.2860   32.8700   40.4100 H   0  0  0  0  0  0  0  0  0  0  0  0
   37.8190   35.2810   40.1930 H   0  0  0  0  0  0  0  0  0  0  0  0
   40.1250   35.9330   40.1720 H   0  0  0  0  0  0  0  0  0  0  0  0
   42.3530   34.2510   40.3420 C   0  0  1  0  0  0  0  0  0  0  0  0
   42.9980   34.1040   41.7810 C   0  0  0  0  0  0  0  0  0  0  0  0
   44.2890   34.9610   41.6370 C   0  0  0  0  0  0  0  0  0  0  0  0
   45.2070   34.0880   40.7890 C   0  0  0  0  0  0  0  0  0  0  0  0
   44.6420   33.8580   39.4360 C   0  0  0  0  0  0  0  0  0  0  0  0
   43.1790   33.6440   39.3410 C   0  0  2  0  0  0  0  0  0  0  0  0
   42.3580   35.3780   40.2590 H   0  0  0  0  0  0  0  0  0  0  0  0
   43.2810   33.0590   41.9350 H   0  0  0  0  0  0  0  0  0  0  0  0
   42.3200   34.5380   42.5220 H   0  0  0  0  0  0  0  0  0  0  0  0
   44.7740   35.0810   42.6230 H   0  0  0  0  0  0  0  0  0  0  0  0
   44.0820   35.8830   41.0990 H   0  0  0  0  0  0  0  0  0  0  0  0
   46.1750   34.6290   40.7110 H   0  0  0  0  0  0  0  0  0  0  0  0
   45.4470   33.1480   41.3350 H   0  0  0  0  0  0  0  0  0  0  0  0
   45.1960   33.0140   38.9750 H   0  0  0  0  0  0  0  0  0  0  0  0
   44.9700   34.7420   38.8090 H   0  0  0  0  0  0  0  0  0  0  0  0
   43.0350   32.5190   39.3550 H   0  0  0  0  0  0  0  0  0  0  0  0
   42.6610   34.3380   37.7370 S   0  0  0  0  0  0  0  0  0  0  0  0
   42.7860   35.7370   37.8590 H   0  0  0  0  0  0  0  0  0  0  0  0
   39.3150   28.5800   40.5660 C   0  0  0  0  0  0  0  0  0  0  0  0
   38.0060   28.2320   40.8810 C   0  0  0  0  0  0  0  0  0  0  0  0
   37.1310   29.2900   41.0660 C   0  0  0  0  0  0  0  0  0  0  0  0
   37.5890   30.5730   40.9310 N   0  0  0  0  0  0  0  0  0  0  0  0
   38.9070   30.8360   40.6160 C   0  0  0  0  0  0  0  0  0  0  0  0
   39.7290   29.8640   40.4420 N   0  0  0  0  0  0  0  0  0  0  0  0
   35.7860   29.1440   41.3900 N   0  0  0  0  0  0  0  0  0  0  0  0
   39.9760   27.7250   40.4270 H   0  0  0  0  0  0  0  0  0  0  0  0
   35.3440   28.6010   40.6240 H   0  0  0  0  0  0  0  0  0  0  0  0
   35.2410   29.4880   42.2310 H   0  0  0  0  0  0  0  0  0  0  0  0
   37.0520   26.2630   39.8550 C   0  0  0  0  0  0  0  0  0  0  0  0
   37.5180   26.8640   41.0240 C   0  0  0  0  0  0  0  0  0  0  0  0
   37.4880   26.1410   42.2130 C   0  0  0  0  0  0  0  0  0  0  0  0
   37.8600   26.6540   43.0810 H   0  0  0  0  0  0  0  0  0  0  0  0
   36.9980   24.8520   42.1900 C   0  0  0  0  0  0  0  0  0  0  0  0
   36.9800   24.3020   43.1210 H   0  0  0  0  0  0  0  0  0  0  0  0
   36.5300   24.2310   41.0510 C   0  0  0  0  0  3  0  0  0  0  0  0
   36.5670   24.9720   39.8670 C   0  0  0  0  0  3  0  0  0  0  0  0
   37.0490   27.5360   37.5910 N   0  0  0  0  0  0  0  0  0  0  0  0
   37.0580   26.9630   38.5950 C   0  0  0  0  0  0  0  0  0  0  0  0
  1 32  1  0  0  0  0
  2  7  1  0  0  0  0
  2  1  2  0  0  0  0
  3  2  1  0  0  0  0
  4  3  2  0  0  0  0
  4  5  1  0  0  0  0
  5  6  2  0  0  0  0
  6  1  1  0  0  0  0
  8  3  1  0  0  0  0
  9  4  1  0  0  0  0
 10 16  1  6  0  0  0
 10  5  1  0  0  0  0
 10 11  1  0  0  0  0
 11 17  1  0  0  0  0
 11 18  1  0  0  0  0
 12 11  1  0  0  0  0
 12 19  1  0  0  0  0
 13 22  1  0  0  0  0
 13 12  1  0  0  0  0
 14 13  1  0  0  0  0
 15 25  1  6  0  0  0
 15 14  1  0  0  0  0
 15 10  1  0  0  0  0
 20 12  1  0  0  0  0
 21 13  1  0  0  0  0
 23 14  1  0  0  0  0
 24 14  1  0  0  0  0
 26 27  1  0  0  0  0
 26 15  1  0  0  0  0
 28 29  1  0  0  0  0
 29 39  1  0  0  0  0
 29 30  2  0  0  0  0
 30 34  1  0  0  0  0
 31 30  1  0  0  0  0
 32 31  2  0  0  0  0
 33 28  2  0  0  0  0
 33 32  1  0  0  0  0
 34 37  1  0  0  0  0
 35 28  1  0  0  0  0
 36 34  1  0  0  0  0
 38 45  2  0  0  0  0
 38 39  1  0  0  0  0
 39 40  2  0  0  0  0
 40 41  1  0  0  0  0
 42 40  1  0  0  0  0
 42 43  1  0  0  0  0
 44 42  2  0  0  0  0
 45 44  1  0  0  0  0
 46 47  3  0  0  0  0
 47 38  1  0  0  0  0
M  END
>  <minimizedAffinity>
-6.67902994

$$$$

 OpenBabel03242514123D

 47 50  0  0  1  0  0  0  0  0999 V2000
   35.1580   27.7430   37.8280 C   0  0  0  0  0  0  0  0  0  0  0  0
   35.7300   26.5350   37.4240 C   0  0  0  0  0  0  0  0  0  0  0  0
   36.5630   25.7730   38.2290 C   0  0  0  0  0  0  0  0  0  0  0  0
   36.7880   26.3190   39.5020 C   0  0  0  0  0  0  0  0  0  0  0  0
   36.2060   27.5380   39.8990 C   0  0  0  0  0  0  0  0  0  0  0  0
   35.4070   28.2210   39.0610 N   0  0  0  0  0  0  0  0  0  0  0  0
   35.4910   26.2020   36.4190 H   0  0  0  0  0  0  0  0  0  0  0  0
   36.9770   24.8610   37.8820 H   0  0  0  0  0  0  0  0  0  0  0  0
   37.4440   25.6880   40.0830 H   0  0  0  0  0  0  0  0  0  0  0  0
   36.4660   28.0380   41.2430 C   0  0  1  0  0  0  0  0  0  0  0  0
   36.7880   26.8380   42.2250 C   0  0  0  0  0  0  0  0  0  0  0  0
   36.5800   27.5040   43.6150 C   0  0  0  0  0  0  0  0  0  0  0  0
   37.8130   28.3860   43.7800 C   0  0  0  0  0  0  0  0  0  0  0  0
   37.8590   29.4540   42.7500 C   0  0  0  0  0  0  0  0  0  0  0  0
   37.4290   29.0900   41.3790 C   0  0  2  0  0  0  0  0  0  0  0  0
   35.4580   28.3400   41.6550 H   0  0  0  0  0  0  0  0  0  0  0  0
   37.8420   26.5670   42.1150 H   0  0  0  0  0  0  0  0  0  0  0  0
   36.0610   26.0370   42.0610 H   0  0  0  0  0  0  0  0  0  0  0  0
   36.6200   26.7370   44.4110 H   0  0  0  0  0  0  0  0  0  0  0  0
   35.6920   28.1330   43.6130 H   0  0  0  0  0  0  0  0  0  0  0  0
   37.7460   28.8360   44.7940 H   0  0  0  0  0  0  0  0  0  0  0  0
   38.7290   27.7550   43.8060 H   0  0  0  0  0  0  0  0  0  0  0  0
   38.8860   29.8750   42.7440 H   0  0  0  0  0  0  0  0  0  0  0  0
   37.2420   30.3080   43.1620 H   0  0  0  0  0  0  0  0  0  0  0  0
   38.3790   28.8150   40.8260 H   0  0  0  0  0  0  0  0  0  0  0  0
   36.6780   30.5890   40.6630 S   0  0  0  0  0  0  0  0  0  0  0  0
   35.4640   30.7850   41.3530 H   0  0  0  0  0  0  0  0  0  0  0  0
   33.7780   29.4150   34.8960 C   0  0  0  0  0  0  0  0  0  0  0  0
   32.5160   29.8420   35.3010 C   0  0  0  0  0  0  0  0  0  0  0  0
   32.1700   29.5360   36.6070 C   0  0  0  0  0  0  0  0  0  0  0  0
   33.0570   28.8540   37.3970 N   0  0  0  0  0  0  0  0  0  0  0  0
   34.2920   28.4640   36.9190 C   0  0  0  0  0  0  0  0  0  0  0  0
   34.6260   28.7430   35.7100 N   0  0  0  0  0  0  0  0  0  0  0  0
   30.9530   29.8730   37.1910 N   0  0  0  0  0  0  0  0  0  0  0  0
   34.0190   29.6720   33.8660 H   0  0  0  0  0  0  0  0  0  0  0  0
   30.8760   30.9080   37.1610 H   0  0  0  0  0  0  0  0  0  0  0  0
   30.1980   29.2590   37.6090 H   0  0  0  0  0  0  0  0  0  0  0  0
   30.7660   29.7800   33.6370 C   0  0  0  0  0  0  0  0  0  0  0  0
   31.5720   30.5680   34.4590 C   0  0  0  0  0  0  0  0  0  0  0  0
   31.4250   31.9510   34.4230 C   0  0  0  0  0  0  0  0  0  0  0  0
   32.0710   32.5070   35.0770 H   0  0  0  0  0  0  0  0  0  0  0  0
   30.4840   32.4940   33.5720 C   0  0  0  0  0  0  0  0  0  0  0  0
   30.3810   33.5700   33.5540 H   0  0  0  0  0  0  0  0  0  0  0  0
   29.6740   31.7410   32.7480 C   0  0  0  0  0  3  0  0  0  0  0  0
   29.8350   30.3540   32.7970 C   0  0  0  0  0  3  0  0  0  0  0  0
   30.9400   27.1890   33.6220 N   0  0  0  0  0  0  0  0  0  0  0  0
   30.8730   28.3430   33.6310 C   0  0  0  0  0  0  0  0  0  0  0  0
  1  6  1  0  0  0  0
  2  1  2  0  0  0  0
  2  3  1  0  0  0  0
  3  4  2  0  0  0  0
  4  5  1  0  0  0  0
  4  9  1  0  0  0  0
  5 10  1  0  0  0  0
  6  5  2  0  0  0  0
  7  2  1  0  0  0  0
  8  3  1  0  0  0  0
 10 15  1  0  0  0  0
 10 16  1  1  0  0  0
 10 11  1  0  0  0  0
 11 12  1  0  0  0  0
 12 13  1  0  0  0  0
 12 19  1  0  0  0  0
 13 22  1  0  0  0  0
 13 21  1  0  0  0  0
 14 24  1  0  0  0  0
 14 13  1  0  0  0  0
 15 25  1  6  0  0  0
 15 14  1  0  0  0  0
 17 11  1  0  0  0  0
 18 11  1  0  0  0  0
 20 12  1  0  0  0  0
 23 14  1  0  0  0  0
 26 27  1  0  0  0  0
 26 15  1  0  0  0  0
 28 29  2  0  0  0  0
 28 33  1  0  0  0  0
 29 30  1  0  0  0  0
 30 34  1  0  0  0  0
 30 31  2  0  0  0  0
 32 31  1  0  0  0  0
 32  1  1  0  0  0  0
 33 32  2  0  0  0  0
 34 37  1  0  0  0  0
 35 28  1  0  0  0  0
 36 34  1  0  0  0  0
 38 39  1  0  0  0  0
 39 29  1  0  0  0  0
 40 39  2  0  0  0  0
 40 41  1  0  0  0  0
 42 40  1  0  0  0  0
 43 42  1  0  0  0  0
 44 45  1  0  0  0  0
 44 42  2  0  0  0  0
 45 38  2  0  0  0  0
 46 47  3  0  0  0  0
 47 38  1  0  0  0  0
M  END
>  <minimizedAffinity>
-6.40376806

$$$$

 OpenBabel03242514123D

 47 50  0  0  1  0  0  0  0  0999 V2000
   33.5840   28.2330   37.2950 C   0  0  0  0  0  0  0  0  0  0  0  0
   33.4270   27.2200   36.3470 C   0  0  0  0  0  0  0  0  0  0  0  0
   32.4860   27.2600   35.3300 C   0  0  0  0  0  0  0  0  0  0  0  0
   31.6920   28.4170   35.3270 C   0  0  0  0  0  0  0  0  0  0  0  0
   31.8590   29.4330   36.2870 C   0  0  0  0  0  0  0  0  0  0  0  0
   32.7950   29.3220   37.2460 N   0  0  0  0  0  0  0  0  0  0  0  0
   34.0920   26.3680   36.4390 H   0  0  0  0  0  0  0  0  0  0  0  0
   32.4000   26.4690   34.6300 H   0  0  0  0  0  0  0  0  0  0  0  0
   30.9770   28.3940   34.5170 H   0  0  0  0  0  0  0  0  0  0  0  0
   31.0130   30.6170   36.2150 C   0  0  1  0  0  0  0  0  0  0  0  0
   31.1370   31.2960   34.7900 C   0  0  0  0  0  0  0  0  0  0  0  0
   30.5620   32.7150   35.0650 C   0  0  0  0  0  0  0  0  0  0  0  0
   29.0590   32.4790   35.1730 C   0  0  0  0  0  0  0  0  0  0  0  0
   28.7280   31.6060   36.3260 C   0  0  0  0  0  0  0  0  0  0  0  0
   29.6410   30.4720   36.6010 C   0  0  2  0  0  0  0  0  0  0  0  0
   31.5390   31.4040   36.8340 H   0  0  0  0  0  0  0  0  0  0  0  0
   30.4760   30.7740   34.0920 H   0  0  0  0  0  0  0  0  0  0  0  0
   32.1940   31.3490   34.5100 H   0  0  0  0  0  0  0  0  0  0  0  0
   30.7270   33.3660   34.1870 H   0  0  0  0  0  0  0  0  0  0  0  0
   30.9280   33.1030   36.0130 H   0  0  0  0  0  0  0  0  0  0  0  0
   28.5920   33.4790   35.3040 H   0  0  0  0  0  0  0  0  0  0  0  0
   28.6650   32.1030   34.2030 H   0  0  0  0  0  0  0  0  0  0  0  0
   27.6840   31.2500   36.1930 H   0  0  0  0  0  0  0  0  0  0  0  0
   28.6430   32.2930   37.2210 H   0  0  0  0  0  0  0  0  0  0  0  0
   29.1860   29.5800   36.0710 H   0  0  0  0  0  0  0  0  0  0  0  0
   29.6240   30.2260   38.4070 S   0  0  0  0  0  0  0  0  0  0  0  0
   30.2950   31.3370   38.9590 H   0  0  0  0  0  0  0  0  0  0  0  0
   36.3800   27.0630   39.3220 C   0  0  0  0  0  0  0  0  0  0  0  0
   36.4970   28.0120   40.3330 C   0  0  0  0  0  0  0  0  0  0  0  0
   35.5840   29.0530   40.2880 C   0  0  0  0  0  0  0  0  0  0  0  0
   34.6520   29.0870   39.2860 N   0  0  0  0  0  0  0  0  0  0  0  0
   34.6020   28.1050   38.3170 C   0  0  0  0  0  0  0  0  0  0  0  0
   35.4430   27.1340   38.3480 N   0  0  0  0  0  0  0  0  0  0  0  0
   35.5450   30.0970   41.2070 N   0  0  0  0  0  0  0  0  0  0  0  0
   37.1120   26.2580   39.3870 H   0  0  0  0  0  0  0  0  0  0  0  0
   35.3800   29.6760   42.1410 H   0  0  0  0  0  0  0  0  0  0  0  0
   35.6510   31.1410   41.0650 H   0  0  0  0  0  0  0  0  0  0  0  0
   38.7000   28.6140   41.1240 C   0  0  0  0  0  0  0  0  0  0  0  0
   37.4910   27.9740   41.4010 C   0  0  0  0  0  0  0  0  0  0  0  0
   37.3190   27.3630   42.6390 C   0  0  0  0  0  0  0  0  0  0  0  0
   36.3690   26.8870   42.7970 H   0  0  0  0  0  0  0  0  0  0  0  0
   38.3540   27.4120   43.5500 C   0  0  0  0  0  0  0  0  0  0  0  0
   38.2070   26.9330   44.5080 H   0  0  0  0  0  0  0  0  0  0  0  0
   39.5600   28.0360   43.3050 C   0  0  0  0  0  3  0  0  0  0  0  0
   39.7150   28.6440   42.0570 C   0  0  0  0  0  3  0  0  0  0  0  0
   39.1320   29.7680   38.8380 N   0  0  0  0  0  0  0  0  0  0  0  0
   38.9360   29.2630   39.8590 C   0  0  0  0  0  0  0  0  0  0  0  0
  1 32  1  0  0  0  0
  2  7  1  0  0  0  0
  2  1  2  0  0  0  0
  3  2  1  0  0  0  0
  4  3  2  0  0  0  0
  4  5  1  0  0  0  0
  5  6  2  0  0  0  0
  6  1  1  0  0  0  0
  8  3  1  0  0  0  0
  9  4  1  0  0  0  0
 10  5  1  0  0  0  0
 10 15  1  0  0  0  0
 10 16  1  1  0  0  0
 11 12  1  0  0  0  0
 11 10  1  0  0  0  0
 12 13  1  0  0  0  0
 12 20  1  0  0  0  0
 13 21  1  0  0  0  0
 13 14  1  0  0  0  0
 14 15  1  0  0  0  0
 14 24  1  0  0  0  0
 15 25  1  6  0  0  0
 15 26  1  0  0  0  0
 17 11  1  0  0  0  0
 18 11  1  0  0  0  0
 19 12  1  0  0  0  0
 22 13  1  0  0  0  0
 23 14  1  0  0  0  0
 26 27  1  0  0  0  0
 28 35  1  0  0  0  0
 28 29  1  0  0  0  0
 29 39  1  0  0  0  0
 30 29  2  0  0  0  0
 30 34  1  0  0  0  0
 31 30  1  0  0  0  0
 32 33  1  0  0  0  0
 32 31  2  0  0  0  0
 33 28  2  0  0  0  0
 34 36  1  0  0  0  0
 37 34  1  0  0  0  0
 38 39  2  0  0  0  0
 38 45  1  0  0  0  0
 39 40  1  0  0  0  0
 40 41  1  0  0  0  0
 40 42  2  0  0  0  0
 42 43  1  0  0  0  0
 44 42  1  0  0  0  0
 45 44  2  0  0  0  0
 46 47  3  0  0  0  0
 47 38  1  0  0  0  0
M  END
>  <minimizedAffinity>
-6.33462381

$$$$

 OpenBabel03242514123D

 47 50  0  0  1  0  0  0  0  0999 V2000
   38.4650   28.7650   42.0100 C   0  0  0  0  0  0  0  0  0  0  0  0
   37.7880   29.0940   43.1850 C   0  0  0  0  0  0  0  0  0  0  0  0
   37.0010   28.1990   43.8930 C   0  0  0  0  0  0  0  0  0  0  0  0
   36.9370   26.9170   43.3270 C   0  0  0  0  0  0  0  0  0  0  0  0
   37.6240   26.5960   42.1410 C   0  0  0  0  0  0  0  0  0  0  0  0
   38.3700   27.5190   41.5090 N   0  0  0  0  0  0  0  0  0  0  0  0
   37.9050   30.1130   43.5390 H   0  0  0  0  0  0  0  0  0  0  0  0
   36.5040   28.4900   44.7830 H   0  0  0  0  0  0  0  0  0  0  0  0
   36.3100   26.2640   43.9160 H   0  0  0  0  0  0  0  0  0  0  0  0
   37.5300   25.2390   41.6160 C   0  0  1  0  0  0  0  0  0  0  0  0
   36.5420   25.1940   40.3800 C   0  0  0  0  0  0  0  0  0  0  0  0
   36.2350   23.6730   40.2760 C   0  0  0  0  0  0  0  0  0  0  0  0
   37.5120   23.0890   39.6810 C   0  0  0  0  0  0  0  0  0  0  0  0
   38.6700   23.2740   40.5920 C   0  0  0  0  0  0  0  0  0  0  0  0
   38.7560   24.5600   41.3240 C   0  0  2  0  0  0  0  0  0  0  0  0
   36.9040   24.6680   42.3650 H   0  0  0  0  0  0  0  0  0  0  0  0
   37.0840   25.5100   39.4840 H   0  0  0  0  0  0  0  0  0  0  0  0
   35.6380   25.7600   40.6240 H   0  0  0  0  0  0  0  0  0  0  0  0
   35.4260   23.5000   39.5430 H   0  0  0  0  0  0  0  0  0  0  0  0
   36.0750   23.2430   41.2620 H   0  0  0  0  0  0  0  0  0  0  0  0
   37.3200   22.0050   39.5240 H   0  0  0  0  0  0  0  0  0  0  0  0
   37.6790   23.5020   38.6620 H   0  0  0  0  0  0  0  0  0  0  0  0
   39.5950   23.0900   40.0060 H   0  0  0  0  0  0  0  0  0  0  0  0
   38.6470   22.3960   41.3040 H   0  0  0  0  0  0  0  0  0  0  0  0
   39.4220   25.2250   40.6920 H   0  0  0  0  0  0  0  0  0  0  0  0
   39.5480   24.1870   42.9230 S   0  0  0  0  0  0  0  0  0  0  0  0
   38.6050   23.4450   43.6620 H   0  0  0  0  0  0  0  0  0  0  0  0
   40.9230   31.3570   41.2770 C   0  0  0  0  0  0  0  0  0  0  0  0
   40.7380   31.6400   39.9270 C   0  0  0  0  0  0  0  0  0  0  0  0
   39.7450   30.9130   39.2920 C   0  0  0  0  0  0  0  0  0  0  0  0
   39.0270   29.9900   40.0040 N   0  0  0  0  0  0  0  0  0  0  0  0
   39.2730   29.7670   41.3450 C   0  0  0  0  0  0  0  0  0  0  0  0
   40.1910   30.4350   41.9450 N   0  0  0  0  0  0  0  0  0  0  0  0
   39.4140   31.0500   37.9470 N   0  0  0  0  0  0  0  0  0  0  0  0
   41.7100   31.9470   41.7460 H   0  0  0  0  0  0  0  0  0  0  0  0
   39.1170   32.0340   37.8050 H   0  0  0  0  0  0  0  0  0  0  0  0
   39.4340   30.3420   37.1600 H   0  0  0  0  0  0  0  0  0  0  0  0
   41.0450   33.9390   39.2500 C   0  0  0  0  0  0  0  0  0  0  0  0
   41.5030   32.6240   39.1690 C   0  0  0  0  0  0  0  0  0  0  0  0
   42.6260   32.3470   38.3940 C   0  0  0  0  0  0  0  0  0  0  0  0
   42.9340   31.3180   38.3690 H   0  0  0  0  0  0  0  0  0  0  0  0
   43.2460   33.3870   37.7340 C   0  0  0  0  0  0  0  0  0  0  0  0
   44.1170   33.1580   37.1360 H   0  0  0  0  0  0  0  0  0  0  0  0
   42.8160   34.6970   37.7940 C   0  0  0  0  0  3  0  0  0  0  0  0
   41.6870   34.9560   38.5760 C   0  0  0  0  0  3  0  0  0  0  0  0
   38.9530   34.5760   40.6510 N   0  0  0  0  0  0  0  0  0  0  0  0
   39.8870   34.2870   40.0350 C   0  0  0  0  0  0  0  0  0  0  0  0
  1  2  1  0  0  0  0
  2  7  1  0  0  0  0
  2  3  2  0  0  0  0
  3  8  1  0  0  0  0
  4  3  1  0  0  0  0
  4  9  1  0  0  0  0
  5  4  2  0  0  0  0
  6  1  2  0  0  0  0
  6  5  1  0  0  0  0
 10  5  1  0  0  0  0
 10 16  1  1  0  0  0
 11 18  1  0  0  0  0
 11 10  1  0  0  0  0
 12 11  1  0  0  0  0
 12 20  1  0  0  0  0
 13 12  1  0  0  0  0
 13 14  1  0  0  0  0
 14 24  1  0  0  0  0
 14 15  1  0  0  0  0
 15 25  1  6  0  0  0
 15 10  1  0  0  0  0
 15 26  1  0  0  0  0
 17 11  1  0  0  0  0
 19 12  1  0  0  0  0
 21 13  1  0  0  0  0
 22 13  1  0  0  0  0
 23 14  1  0  0  0  0
 26 27  1  0  0  0  0
 28 35  1  0  0  0  0
 28 33  1  0  0  0  0
 29 28  2  0  0  0  0
 30 29  1  0  0  0  0
 30 31  2  0  0  0  0
 31 32  1  0  0  0  0
 32 33  2  0  0  0  0
 32  1  1  0  0  0  0
 34 30  1  0  0  0  0
 36 34  1  0  0  0  0
 37 34  1  0  0  0  0
 38 47  1  0  0  0  0
 39 38  1  0  0  0  0
 39 29  1  0  0  0  0
 40 39  2  0  0  0  0
 41 40  1  0  0  0  0
 42 44  2  0  0  0  0
 42 40  1  0  0  0  0
 43 42  1  0  0  0  0
 44 45  1  0  0  0  0
 45 38  2  0  0  0  0
 47 46  3  0  0  0  0
M  END
>  <minimizedAffinity>
-6.29630375

$$$$

 OpenBabel03242514123D

 47 50  0  0  1  0  0  0  0  0999 V2000
   38.1400   28.8620   42.0340 C   0  0  0  0  0  0  0  0  0  0  0  0
   37.5700   29.0850   43.2890 C   0  0  0  0  0  0  0  0  0  0  0  0
   36.9630   28.0930   44.0430 C   0  0  0  0  0  0  0  0  0  0  0  0
   36.9670   26.8270   43.4380 C   0  0  0  0  0  0  0  0  0  0  0  0
   37.5450   26.6130   42.1720 C   0  0  0  0  0  0  0  0  0  0  0  0
   38.1170   27.6270   41.4990 N   0  0  0  0  0  0  0  0  0  0  0  0
   37.6210   30.1010   43.6670 H   0  0  0  0  0  0  0  0  0  0  0  0
   36.5420   28.3060   44.9930 H   0  0  0  0  0  0  0  0  0  0  0  0
   36.4800   26.0960   44.0660 H   0  0  0  0  0  0  0  0  0  0  0  0
   37.5310   25.2690   41.6090 C   0  0  1  0  0  0  0  0  0  0  0  0
   36.5640   25.2060   40.3570 C   0  0  0  0  0  0  0  0  0  0  0  0
   36.3420   23.6740   40.2060 C   0  0  0  0  0  0  0  0  0  0  0  0
   37.6570   23.1760   39.6150 C   0  0  0  0  0  0  0  0  0  0  0  0
   38.7900   23.3980   40.5480 C   0  0  0  0  0  0  0  0  0  0  0  0
   38.7960   24.6650   41.3170 C   0  0  2  0  0  0  0  0  0  0  0  0
   36.9270   24.6430   42.3320 H   0  0  0  0  0  0  0  0  0  0  0  0
   37.1010   25.5760   39.4780 H   0  0  0  0  0  0  0  0  0  0  0  0
   35.6280   25.7160   40.6030 H   0  0  0  0  0  0  0  0  0  0  0  0
   35.5540   23.4790   39.4560 H   0  0  0  0  0  0  0  0  0  0  0  0
   36.1920   23.2080   41.1780 H   0  0  0  0  0  0  0  0  0  0  0  0
   37.5260   22.0890   39.4250 H   0  0  0  0  0  0  0  0  0  0  0  0
   37.8150   23.6270   38.6100 H   0  0  0  0  0  0  0  0  0  0  0  0
   39.7310   23.2800   39.9710 H   0  0  0  0  0  0  0  0  0  0  0  0
   38.8050   22.4990   41.2350 H   0  0  0  0  0  0  0  0  0  0  0  0
   39.4340   25.3820   40.7140 H   0  0  0  0  0  0  0  0  0  0  0  0
   39.5860   24.2900   42.9170 S   0  0  0  0  0  0  0  0  0  0  0  0
   38.6740   23.4770   43.6210 H   0  0  0  0  0  0  0  0  0  0  0  0
   38.9200   31.4540   39.5920 C   0  0  0  0  0  0  0  0  0  0  0  0
   40.0580   32.0770   40.0980 C   0  0  0  0  0  0  0  0  0  0  0  0
   40.5370   31.5720   41.2950 C   0  0  0  0  0  0  0  0  0  0  0  0
   39.8870   30.5250   41.8910 N   0  0  0  0  0  0  0  0  0  0  0  0
   38.7610   29.9610   41.3250 C   0  0  0  0  0  0  0  0  0  0  0  0
   38.3070   30.4200   40.2140 N   0  0  0  0  0  0  0  0  0  0  0  0
   41.6570   32.0630   41.9580 N   0  0  0  0  0  0  0  0  0  0  0  0
   38.5710   31.8760   38.6500 H   0  0  0  0  0  0  0  0  0  0  0  0
   42.4640   31.9560   41.3140 H   0  0  0  0  0  0  0  0  0  0  0  0
   41.7540   32.4800   42.9270 H   0  0  0  0  0  0  0  0  0  0  0  0
   41.5690   32.8600   38.3820 C   0  0  0  0  0  0  0  0  0  0  0  0
   40.7500   33.1930   39.4610 C   0  0  0  0  0  0  0  0  0  0  0  0
   40.6500   34.5270   39.8470 C   0  0  0  0  0  0  0  0  0  0  0  0
   40.0050   34.7240   40.6830 H   0  0  0  0  0  0  0  0  0  0  0  0
   41.3670   35.4730   39.1450 C   0  0  0  0  0  0  0  0  0  0  0  0
   41.2810   36.5050   39.4550 H   0  0  0  0  0  0  0  0  0  0  0  0
   42.1850   35.1740   38.0750 C   0  0  0  0  0  3  0  0  0  0  0  0
   42.2730   33.8310   37.7020 C   0  0  0  0  0  3  0  0  0  0  0  0
   41.8450   30.4050   37.5800 N   0  0  0  0  0  0  0  0  0  0  0  0
   41.7120   31.4960   37.9380 C   0  0  0  0  0  0  0  0  0  0  0  0
  1  2  1  0  0  0  0
  2  7  1  0  0  0  0
  2  3  2  0  0  0  0
  3  8  1  0  0  0  0
  4  3  1  0  0  0  0
  4  9  1  0  0  0  0
  5  4  2  0  0  0  0
  6  1  2  0  0  0  0
  6  5  1  0  0  0  0
 10  5  1  0  0  0  0
 10 16  1  1  0  0  0
 11 18  1  0  0  0  0
 11 10  1  0  0  0  0
 12 11  1  0  0  0  0
 12 20  1  0  0  0  0
 13 12  1  0  0  0  0
 13 14  1  0  0  0  0
 14 24  1  0  0  0  0
 14 15  1  0  0  0  0
 15 25  1  6  0  0  0
 15 10  1  0  0  0  0
 15 26  1  0  0  0  0
 17 11  1  0  0  0  0
 19 12  1  0  0  0  0
 21 13  1  0  0  0  0
 22 13  1  0  0  0  0
 23 14  1  0  0  0  0
 26 27  1  0  0  0  0
 28 29  2  0  0  0  0
 28 33  1  0  0  0  0
 29 30  1  0  0  0  0
 30 31  2  0  0  0  0
 30 34  1  0  0  0  0
 32 31  1  0  0  0  0
 32  1  1  0  0  0  0
 33 32  2  0  0  0  0
 34 37  1  0  0  0  0
 35 28  1  0  0  0  0
 36 34  1  0  0  0  0
 38 39  1  0  0  0  0
 39 40  2  0  0  0  0
 39 29  1  0  0  0  0
 40 41  1  0  0  0  0
 42 43  1  0  0  0  0
 42 40  1  0  0  0  0
 44 42  2  0  0  0  0
 45 44  1  0  0  0  0
 45 38  2  0  0  0  0
 46 47  3  0  0  0  0
 47 38  1  0  0  0  0
M  END
>  <minimizedAffinity>
-6.28303099

$$$$

 OpenBabel03242514123D

 47 50  0  0  1  0  0  0  0  0999 V2000
   38.8460   32.9750   39.5070 C   0  0  0  0  0  0  0  0  0  0  0  0
   38.3540   34.1660   40.0440 C   0  0  0  0  0  0  0  0  0  0  0  0
   39.1590   35.2300   40.4180 C   0  0  0  0  0  0  0  0  0  0  0  0
   40.5300   35.0130   40.2110 C   0  0  0  0  0  0  0  0  0  0  0  0
   41.0160   33.8090   39.6690 C   0  0  0  0  0  0  0  0  0  0  0  0
   40.1710   32.8190   39.3290 N   0  0  0  0  0  0  0  0  0  0  0  0
   37.2770   34.2310   40.1630 H   0  0  0  0  0  0  0  0  0  0  0  0
   38.7430   36.1180   40.8220 H   0  0  0  0  0  0  0  0  0  0  0  0
   41.1090   35.8710   40.5220 H   0  0  0  0  0  0  0  0  0  0  0  0
   42.4510   33.6570   39.4630 C   0  0  1  0  0  0  0  0  0  0  0  0
   42.8790   34.2990   38.0800 C   0  0  0  0  0  0  0  0  0  0  0  0
   44.2740   33.6500   37.8490 C   0  0  0  0  0  0  0  0  0  0  0  0
   45.1790   34.3850   38.8320 C   0  0  0  0  0  0  0  0  0  0  0  0
   44.7710   34.1350   40.2370 C   0  0  0  0  0  0  0  0  0  0  0  0
   43.3170   34.0820   40.5210 C   0  0  2  0  0  0  0  0  0  0  0  0
   42.6070   32.5660   39.2080 H   0  0  0  0  0  0  0  0  0  0  0  0
   43.0060   35.3770   38.2170 H   0  0  0  0  0  0  0  0  0  0  0  0
   42.1690   33.9890   37.3070 H   0  0  0  0  0  0  0  0  0  0  0  0
   44.6370   33.8880   36.8320 H   0  0  0  0  0  0  0  0  0  0  0  0
   44.2550   32.5940   38.1060 H   0  0  0  0  0  0  0  0  0  0  0  0
   46.2080   34.0020   38.6600 H   0  0  0  0  0  0  0  0  0  0  0  0
   45.2260   35.4650   38.5690 H   0  0  0  0  0  0  0  0  0  0  0  0
   45.2710   34.8930   40.8750 H   0  0  0  0  0  0  0  0  0  0  0  0
   45.2850   33.1750   40.5430 H   0  0  0  0  0  0  0  0  0  0  0  0
   43.0340   35.1280   40.8520 H   0  0  0  0  0  0  0  0  0  0  0  0
   43.1040   32.8940   41.8870 S   0  0  0  0  0  0  0  0  0  0  0  0
   43.3860   31.6220   41.3460 H   0  0  0  0  0  0  0  0  0  0  0  0
   36.2340   30.4310   39.5640 C   0  0  0  0  0  0  0  0  0  0  0  0
   36.2200   29.9190   38.2700 C   0  0  0  0  0  0  0  0  0  0  0  0
   37.1360   30.4770   37.3940 C   0  0  0  0  0  0  0  0  0  0  0  0
   37.9730   31.4660   37.8350 N   0  0  0  0  0  0  0  0  0  0  0  0
   37.9240   31.9210   39.1380 C   0  0  0  0  0  0  0  0  0  0  0  0
   37.0790   31.4110   39.9610 N   0  0  0  0  0  0  0  0  0  0  0  0
   37.2700   30.1010   36.0610 N   0  0  0  0  0  0  0  0  0  0  0  0
   35.5030   29.9710   40.2280 H   0  0  0  0  0  0  0  0  0  0  0  0
   37.5150   29.0920   36.0510 H   0  0  0  0  0  0  0  0  0  0  0  0
   37.1620   30.6680   35.1730 H   0  0  0  0  0  0  0  0  0  0  0  0
   35.7910   27.5600   37.9710 C   0  0  0  0  0  0  0  0  0  0  0  0
   35.3270   28.8640   37.8010 C   0  0  0  0  0  0  0  0  0  0  0  0
   34.0820   29.0670   37.2140 C   0  0  0  0  0  0  0  0  0  0  0  0
   33.7760   30.0920   37.1080 H   0  0  0  0  0  0  0  0  0  0  0  0
   33.3490   27.9660   36.8200 C   0  0  0  0  0  0  0  0  0  0  0  0
   32.3840   28.1380   36.3650 H   0  0  0  0  0  0  0  0  0  0  0  0
   33.7810   26.6650   36.9750 C   0  0  0  0  0  3  0  0  0  0  0  0
   35.0340   26.4810   37.5660 C   0  0  0  0  0  3  0  0  0  0  0  0
   38.0910   27.0670   39.0720 N   0  0  0  0  0  0  0  0  0  0  0  0
   37.0720   27.2880   38.5730 C   0  0  0  0  0  0  0  0  0  0  0  0
  1  2  1  0  0  0  0
  2  7  1  0  0  0  0
  2  3  2  0  0  0  0
  3  8  1  0  0  0  0
  4  3  1  0  0  0  0
  4  9  1  0  0  0  0
  5  4  2  0  0  0  0
  6  1  2  0  0  0  0
  6  5  1  0  0  0  0
 10 16  1  6  0  0  0
 10  5  1  0  0  0  0
 10 15  1  0  0  0  0
 11 17  1  0  0  0  0
 11 10  1  0  0  0  0
 12 11  1  0  0  0  0
 12 20  1  0  0  0  0
 12 13  1  0  0  0  0
 13 14  1  0  0  0  0
 14 15  1  0  0  0  0
 14 24  1  0  0  0  0
 14 23  1  0  0  0  0
 15 25  1  1  0  0  0
 15 26  1  0  0  0  0
 18 11  1  0  0  0  0
 19 12  1  0  0  0  0
 21 13  1  0  0  0  0
 22 13  1  0  0  0  0
 27 26  1  0  0  0  0
 28 33  1  0  0  0  0
 28 35  1  0  0  0  0
 29 28  2  0  0  0  0
 30 31  2  0  0  0  0
 30 29  1  0  0  0  0
 31 32  1  0  0  0  0
 32  1  1  0  0  0  0
 32 33  2  0  0  0  0
 34 30  1  0  0  0  0
 36 34  1  0  0  0  0
 37 34  1  0  0  0  0
 38 47  1  0  0  0  0
 39 38  1  0  0  0  0
 39 29  1  0  0  0  0
 40 39  2  0  0  0  0
 41 40  1  0  0  0  0
 42 44  2  0  0  0  0
 42 40  1  0  0  0  0
 43 42  1  0  0  0  0
 44 45  1  0  0  0  0
 45 38  2  0  0  0  0
 47 46  3  0  0  0  0
M  END
>  <minimizedAffinity>
-6.2806263

$$$$

 OpenBabel03242514123D

 47 50  0  0  1  0  0  0  0  0999 V2000
   37.6470   27.7660   41.4230 C   0  0  0  0  0  0  0  0  0  0  0  0
   37.1100   27.5350   42.6910 C   0  0  0  0  0  0  0  0  0  0  0  0
   36.6630   26.2960   43.1220 C   0  0  0  0  0  0  0  0  0  0  0  0
   36.7950   25.2750   42.1690 C   0  0  0  0  0  0  0  0  0  0  0  0
   37.3380   25.5170   40.8920 C   0  0  0  0  0  0  0  0  0  0  0  0
   37.7520   26.7490   40.5460 N   0  0  0  0  0  0  0  0  0  0  0  0
   37.0530   28.3930   43.3530 H   0  0  0  0  0  0  0  0  0  0  0  0
   36.2620   26.1640   44.0940 H   0  0  0  0  0  0  0  0  0  0  0  0
   36.4300   24.3340   42.5550 H   0  0  0  0  0  0  0  0  0  0  0  0
   37.4650   24.4070   39.9570 C   0  0  1  0  0  0  0  0  0  0  0  0
   38.2680   23.2150   40.6220 C   0  0  0  0  0  0  0  0  0  0  0  0
   38.6770   22.3770   39.3770 C   0  0  0  0  0  0  0  0  0  0  0  0
   37.3790   21.6910   38.9640 C   0  0  0  0  0  0  0  0  0  0  0  0
   36.3510   22.6790   38.5490 C   0  0  0  0  0  0  0  0  0  0  0  0
   36.2680   23.9370   39.3280 C   0  0  2  0  0  0  0  0  0  0  0  0
   38.2340   24.7370   39.1960 H   0  0  0  0  0  0  0  0  0  0  0  0
   37.5800   22.6270   41.2370 H   0  0  0  0  0  0  0  0  0  0  0  0
   39.1500   23.6180   41.1300 H   0  0  0  0  0  0  0  0  0  0  0  0
   39.3850   21.5820   39.6740 H   0  0  0  0  0  0  0  0  0  0  0  0
   39.0090   23.0240   38.5680 H   0  0  0  0  0  0  0  0  0  0  0  0
   37.6320   21.0230   38.1120 H   0  0  0  0  0  0  0  0  0  0  0  0
   37.0370   21.0080   39.7730 H   0  0  0  0  0  0  0  0  0  0  0  0
   35.3700   22.1590   38.5300 H   0  0  0  0  0  0  0  0  0  0  0  0
   36.5440   22.8850   37.4530 H   0  0  0  0  0  0  0  0  0  0  0  0
   35.4680   23.7570   40.1100 H   0  0  0  0  0  0  0  0  0  0  0  0
   35.7420   25.2310   38.1560 S   0  0  0  0  0  0  0  0  0  0  0  0
   36.8370   25.4440   37.2930 H   0  0  0  0  0  0  0  0  0  0  0  0
   38.1960   30.9260   39.6910 C   0  0  0  0  0  0  0  0  0  0  0  0
   39.0330   31.6470   40.5380 C   0  0  0  0  0  0  0  0  0  0  0  0
   39.3950   31.0050   41.7110 C   0  0  0  0  0  0  0  0  0  0  0  0
   38.9260   29.7430   41.9610 N   0  0  0  0  0  0  0  0  0  0  0  0
   38.0970   29.0950   41.0670 C   0  0  0  0  0  0  0  0  0  0  0  0
   37.7540   29.6790   39.9750 N   0  0  0  0  0  0  0  0  0  0  0  0
   40.2190   31.5630   42.6840 N   0  0  0  0  0  0  0  0  0  0  0  0
   37.9320   31.4590   38.7780 H   0  0  0  0  0  0  0  0  0  0  0  0
   41.1310   31.7650   42.2320 H   0  0  0  0  0  0  0  0  0  0  0  0
   40.0320   31.7720   43.7050 H   0  0  0  0  0  0  0  0  0  0  0  0
   40.7250   33.0610   39.5500 C   0  0  0  0  0  0  0  0  0  0  0  0
   39.5330   32.9910   40.2720 C   0  0  0  0  0  0  0  0  0  0  0  0
   38.9180   34.1730   40.6750 C   0  0  0  0  0  0  0  0  0  0  0  0
   38.0030   34.0580   41.2270 H   0  0  0  0  0  0  0  0  0  0  0  0
   39.5130   35.3730   40.3460 C   0  0  0  0  0  0  0  0  0  0  0  0
   39.0250   36.2830   40.6670 H   0  0  0  0  0  0  0  0  0  0  0  0
   40.6910   35.4740   39.6350 C   0  0  0  0  0  3  0  0  0  0  0  0
   41.2940   34.2780   39.2380 C   0  0  0  0  0  3  0  0  0  0  0  0
   41.9690   30.9280   38.7440 N   0  0  0  0  0  0  0  0  0  0  0  0
   41.4070   31.8710   39.1050 C   0  0  0  0  0  0  0  0  0  0  0  0
  1  2  1  0  0  0  0
  2  3  2  0  0  0  0
  2  7  1  0  0  0  0
  3  8  1  0  0  0  0
  4  9  1  0  0  0  0
  4  3  1  0  0  0  0
  5  4  2  0  0  0  0
  6  5  1  0  0  0  0
  6  1  2  0  0  0  0
 10 16  1  6  0  0  0
 10 11  1  0  0  0  0
 10  5  1  0  0  0  0
 11 18  1  0  0  0  0
 11 17  1  0  0  0  0
 12 19  1  0  0  0  0
 12 11  1  0  0  0  0
 13 12  1  0  0  0  0
 13 22  1  0  0  0  0
 14 13  1  0  0  0  0
 14 15  1  0  0  0  0
 15 10  1  0  0  0  0
 15 25  1  1  0  0  0
 20 12  1  0  0  0  0
 21 13  1  0  0  0  0
 23 14  1  0  0  0  0
 24 14  1  0  0  0  0
 26 15  1  0  0  0  0
 27 26  1  0  0  0  0
 28 33  2  0  0  0  0
 28 29  1  0  0  0  0
 29 30  2  0  0  0  0
 30 31  1  0  0  0  0
 30 34  1  0  0  0  0
 32  1  1  0  0  0  0
 32 31  2  0  0  0  0
 33 32  1  0  0  0  0
 34 37  1  0  0  0  0
 35 28  1  0  0  0  0
 36 34  1  0  0  0  0
 38 39  1  0  0  0  0
 39 29  1  0  0  0  0
 39 40  2  0  0  0  0
 40 41  1  0  0  0  0
 42 43  1  0  0  0  0
 42 40  1  0  0  0  0
 44 42  2  0  0  0  0
 45 38  2  0  0  0  0
 45 44  1  0  0  0  0
 46 47  3  0  0  0  0
 47 38  1  0  0  0  0
M  END
>  <minimizedAffinity>
-6.12778902

$$$$

 OpenBabel03242514123D

 47 50  0  0  1  0  0  0  0  0999 V2000
   37.6040   29.5340   39.2260 C   0  0  0  0  0  0  0  0  0  0  0  0
   36.5970   29.9120   38.3370 C   0  0  0  0  0  0  0  0  0  0  0  0
   35.5490   29.0840   37.9670 C   0  0  0  0  0  0  0  0  0  0  0  0
   35.5790   27.8160   38.5670 C   0  0  0  0  0  0  0  0  0  0  0  0
   36.5990   27.4440   39.4630 C   0  0  0  0  0  0  0  0  0  0  0  0
   37.5850   28.3040   39.7740 N   0  0  0  0  0  0  0  0  0  0  0  0
   36.6670   30.9160   37.9290 H   0  0  0  0  0  0  0  0  0  0  0  0
   34.8040   29.4120   37.2870 H   0  0  0  0  0  0  0  0  0  0  0  0
   34.7430   27.2140   38.2420 H   0  0  0  0  0  0  0  0  0  0  0  0
   36.5600   26.1180   40.0650 C   0  0  1  0  0  0  0  0  0  0  0  0
   36.6550   25.0020   38.9460 C   0  0  0  0  0  0  0  0  0  0  0  0
   36.1490   23.7450   39.7090 C   0  0  0  0  0  0  0  0  0  0  0  0
   37.3180   23.3810   40.6180 C   0  0  0  0  0  0  0  0  0  0  0  0
   37.5910   24.4540   41.6070 C   0  0  0  0  0  0  0  0  0  0  0  0
   37.4710   25.8540   41.1380 C   0  0  2  0  0  0  0  0  0  0  0  0
   35.4860   25.9600   40.3820 H   0  0  0  0  0  0  0  0  0  0  0  0
   37.7070   24.8580   38.6810 H   0  0  0  0  0  0  0  0  0  0  0  0
   35.9800   25.2610   38.1250 H   0  0  0  0  0  0  0  0  0  0  0  0
   36.0120   22.9050   39.0040 H   0  0  0  0  0  0  0  0  0  0  0  0
   35.2850   23.9880   40.3230 H   0  0  0  0  0  0  0  0  0  0  0  0
   37.0310   22.4440   41.1410 H   0  0  0  0  0  0  0  0  0  0  0  0
   38.2050   23.1080   40.0040 H   0  0  0  0  0  0  0  0  0  0  0  0
   38.5950   24.2660   42.0420 H   0  0  0  0  0  0  0  0  0  0  0  0
   36.9010   24.2520   42.4810 H   0  0  0  0  0  0  0  0  0  0  0  0
   38.5190   26.1640   40.8360 H   0  0  0  0  0  0  0  0  0  0  0  0
   36.8990   26.8280   42.5690 S   0  0  0  0  0  0  0  0  0  0  0  0
   35.5640   26.4370   42.7980 H   0  0  0  0  0  0  0  0  0  0  0  0
   40.2700   32.0140   39.0360 C   0  0  0  0  0  0  0  0  0  0  0  0
   40.6310   32.2390   40.3620 C   0  0  0  0  0  0  0  0  0  0  0  0
   39.9290   31.5090   41.3070 C   0  0  0  0  0  0  0  0  0  0  0  0
   38.9540   30.6390   40.8970 N   0  0  0  0  0  0  0  0  0  0  0  0
   38.6550   30.4720   39.5600 C   0  0  0  0  0  0  0  0  0  0  0  0
   39.2990   31.1430   38.6730 N   0  0  0  0  0  0  0  0  0  0  0  0
   40.1410   31.5990   42.6790 N   0  0  0  0  0  0  0  0  0  0  0  0
   40.8420   32.6020   38.3190 H   0  0  0  0  0  0  0  0  0  0  0  0
   41.1280   31.3280   42.8530 H   0  0  0  0  0  0  0  0  0  0  0  0
   39.4820   31.8790   43.4590 H   0  0  0  0  0  0  0  0  0  0  0  0
   41.2870   34.5050   40.8830 C   0  0  0  0  0  0  0  0  0  0  0  0
   41.6690   33.1660   40.7970 C   0  0  0  0  0  0  0  0  0  0  0  0
   42.9760   32.8160   41.1240 C   0  0  0  0  0  0  0  0  0  0  0  0
   43.2140   31.7710   41.0400 H   0  0  0  0  0  0  0  0  0  0  0  0
   43.8470   33.8080   41.5220 C   0  0  0  0  0  0  0  0  0  0  0  0
   44.8590   33.5220   41.7730 H   0  0  0  0  0  0  0  0  0  0  0  0
   43.4980   35.1400   41.6160 C   0  0  0  0  0  3  0  0  0  0  0  0
   42.1830   35.4740   41.2840 C   0  0  0  0  0  3  0  0  0  0  0  0
   38.8690   35.2490   40.2950 N   0  0  0  0  0  0  0  0  0  0  0  0
   39.9480   34.9280   40.5570 C   0  0  0  0  0  0  0  0  0  0  0  0
  1 32  1  0  0  0  0
  1  6  1  0  0  0  0
  2  1  2  0  0  0  0
  3  2  1  0  0  0  0
  3  4  2  0  0  0  0
  4  5  1  0  0  0  0
  5  6  2  0  0  0  0
  5 10  1  0  0  0  0
  7  2  1  0  0  0  0
  8  3  1  0  0  0  0
  9  4  1  0  0  0  0
 10 16  1  1  0  0  0
 10 15  1  0  0  0  0
 11 12  1  0  0  0  0
 11 10  1  0  0  0  0
 12 20  1  0  0  0  0
 12 13  1  0  0  0  0
 13 21  1  0  0  0  0
 13 14  1  0  0  0  0
 14 23  1  0  0  0  0
 14 24  1  0  0  0  0
 15 25  1  6  0  0  0
 15 14  1  0  0  0  0
 15 26  1  0  0  0  0
 17 11  1  0  0  0  0
 18 11  1  0  0  0  0
 19 12  1  0  0  0  0
 22 13  1  0  0  0  0
 26 27  1  0  0  0  0
 28 29  1  0  0  0  0
 29 39  1  0  0  0  0
 29 30  2  0  0  0  0
 30 34  1  0  0  0  0
 31 30  1  0  0  0  0
 32 31  2  0  0  0  0
 33 28  2  0  0  0  0
 33 32  1  0  0  0  0
 34 36  1  0  0  0  0
 34 37  1  0  0  0  0
 35 28  1  0  0  0  0
 38 45  1  0  0  0  0
 39 38  2  0  0  0  0
 39 40  1  0  0  0  0
 40 42  2  0  0  0  0
 41 40  1  0  0  0  0
 42 44  1  0  0  0  0
 42 43  1  0  0  0  0
 45 44  2  0  0  0  0
 46 47  3  0  0  0  0
 47 38  1  0  0  0  0
M  END
>  <minimizedAffinity>
-6.09920645

$$$$
