
     RDKit          3D

 41 44  0  0  0  0  0  0  0  0999 V2000
   48.6786   35.5317   41.0801 C   0  0  0  0  0  0  0  0  0  0  0  0
   48.1473   34.9509   39.9159 C   0  0  0  0  0  0  0  0  0  0  0  0
   47.1485   33.9976   40.0376 C   0  0  0  0  0  0  0  0  0  0  0  0
   46.7350   33.6863   41.2897 N   0  0  0  0  0  0  0  0  0  0  0  0
   47.2419   34.2479   42.3990 C   0  0  0  0  0  0  0  0  0  0  0  0
   48.2174   35.1702   42.2987 N   0  0  0  0  0  0  0  0  0  0  0  0
   44.9622   36.0085   43.4138 Cl  0  0  0  0  0  0  0  0  0  0  0  0
   45.6819   34.6691   44.2760 C   0  0  0  0  0  0  0  0  0  0  0  0
   46.7191   33.9274   43.7131 C   0  0  0  0  0  0  0  0  0  0  0  0
   47.1918   32.9073   44.4679 C   0  0  0  0  0  0  0  0  0  0  0  0
   46.7153   32.5737   45.7263 C   0  0  0  0  0  0  0  0  0  0  0  0
   45.6958   33.3166   46.2601 C   0  0  0  0  0  0  0  0  0  0  0  0
   45.1710   32.8129   47.8532 Cl  0  0  0  0  0  0  0  0  0  0  0  0
   45.1800   34.3613   45.5381 C   0  0  0  0  0  0  0  0  0  0  0  0
   48.6836   34.3132   37.4990 Cl  0  0  0  0  0  0  0  0  0  0  0  0
   47.1656   33.4610   37.6626 C   0  0  0  0  0  0  0  0  0  0  0  0
   46.6029   33.3348   38.8870 C   0  0  0  0  0  0  0  0  0  0  0  0
   45.4922   32.5115   38.9252 C   0  0  0  0  0  0  0  0  0  0  0  0
   44.9593   31.8510   37.8363 C   0  0  0  0  0  0  0  0  0  0  0  0
   45.5768   32.0228   36.6073 C   0  0  0  0  0  0  0  0  0  0  0  0
   46.6807   32.8332   36.5330 C   0  0  0  0  0  0  0  0  0  0  0  0
   49.4590   36.2789   41.1396 H   0  0  0  0  0  0  0  0  0  0  0  0
   48.6183   35.4132   39.1098 H   0  0  0  0  0  0  0  0  0  0  0  0
   48.0007   32.3205   44.0414 H   0  0  0  0  0  0  0  0  0  0  0  0
   47.1836   31.7235   46.2353 H   0  0  0  0  0  0  0  0  0  0  0  0
   44.3789   34.9174   45.9987 H   0  0  0  0  0  0  0  0  0  0  0  0
   45.0533   32.4249   39.9354 H   0  0  0  0  0  0  0  0  0  0  0  0
   44.0954   31.2647   38.1008 H   0  0  0  0  0  0  0  0  0  0  0  0
   45.1039   31.4768   35.8004 H   0  0  0  0  0  0  0  0  0  0  0  0
   45.2048   30.1936   34.7716 N   0  0  0  0  0  0  0  0  0  0  0  0
   45.9855   31.0340   34.5304 C   0  0  0  0  0  0  0  0  0  0  0  0
   46.9399   32.0852   34.2489 C   0  0  0  0  0  0  0  0  0  0  0  0
   47.3006   32.9947   35.2364 C   0  0  0  0  0  0  0  0  0  0  0  0
   48.2156   33.9868   34.9325 C   0  0  0  0  0  0  0  0  0  0  0  0
   48.4927   34.6971   35.7164 H   0  0  0  0  0  0  0  0  0  0  0  0
   48.7909   34.1141   33.6813 C   0  0  0  0  0  0  0  0  0  0  0  0
   49.5055   34.8834   33.4319 H   0  0  0  0  0  0  0  0  0  0  0  0
   48.4015   33.1880   32.7340 C   0  0  0  0  0  0  0  0  0  0  0  0
   47.4826   32.1593   32.9700 C   0  0  0  0  0  0  0  0  0  0  0  0
   48.8049   33.2151   31.7236 H   0  0  0  0  0  0  0  0  0  0  0  0
   47.2178   31.4639   32.1855 H   0  0  0  0  0  0  0  0  0  0  0  0
  1  6  2  0
  2  3  2  0
  2  1  1  0
  3  4  1  0
  4  5  2  0
  5  9  1  0
  6  5  1  0
  7  8  1  0
  8 14  2  0
  9  8  1  0
  9 10  2  0
 10 11  1  0
 11 12  2  0
 12 13  1  0
 14 12  1  0
 15 16  1  0
 16 17  2  0
 17 18  1  0
 17  3  1  0
 19 18  2  0
 20 19  1  0
 21 20  2  0
 21 16  1  0
  1 22  1  0
  2 23  1  0
 10 24  1  0
 11 25  1  0
 14 26  1  0
 18 27  1  0
 19 28  1  0
 20 29  1  0
 30 31  3  0
 31 32  1  0
 32 33  2  0
 33 34  1  0
 34 35  1  0
 34 36  2  0
 36 37  1  0
 36 38  1  0
 38 39  2  0
 39 32  1  0
 38 40  1  0
 39 41  1  0
 21 33  1  0
M  ISO  8  22  14  23  14  24  14  25  14  26  14  27  14  28  14  29  14
M  ISO  2  35  15  37  16
M  END
>  <DihAtoms>  (1) 
19,20,32,31

>  <DihDeg>  (1) 
89.99940290829572

$$$$
