
     RDKit          3D

 51 55  0  0  0  0  0  0  0  0999 V2000
   47.4772   32.0606   47.8466 C   0  0  0  0  0  0  0  0  0  0  0  0
   46.9355   30.7728   47.8892 C   0  0  0  0  0  0  0  0  0  0  0  0
   45.9385   30.4922   46.9885 C   0  0  0  0  0  0  0  0  0  0  0  0
   45.5396   31.4279   46.1328 N   0  0  0  0  0  0  0  0  0  0  0  0
   46.0367   32.6449   46.0738 C   0  0  0  0  0  0  0  0  0  0  0  0
   47.0187   32.9461   46.9534 N   0  0  0  0  0  0  0  0  0  0  0  0
   45.3534   29.2473   46.9929 N   0  0  0  0  0  0  0  0  0  0  0  0
   44.1535   28.8949   46.1827 C   0  0  0  0  0  0  0  0  0  0  0  0
   44.0269   27.3986   46.2596 C   0  0  0  0  0  0  0  0  0  0  0  0
   44.6632   27.0814   47.5751 C   0  0  0  0  0  0  0  0  0  0  0  0
   45.7448   28.0924   47.7362 C   0  0  0  0  0  0  0  0  0  0  0  0
   45.7490   33.7968   45.1886 C   0  0  0  0  0  0  0  0  0  0  0  0
   44.8773   34.7678   45.4854 N   0  0  0  0  0  0  0  0  0  0  0  0
   44.6030   35.8155   44.7106 C   0  0  0  0  0  0  0  0  0  0  0  0
   45.2287   35.9572   43.5168 N   0  0  0  0  0  0  0  0  0  0  0  0
   46.1240   35.0523   43.1039 C   0  0  0  0  0  0  0  0  0  0  0  0
   46.7661   35.1882   41.8939 C   0  0  0  0  0  0  0  0  0  0  0  0
   47.6814   34.2758   41.4601 C   0  0  0  0  0  0  0  0  0  0  0  0
   47.9416   33.2013   42.2879 C   0  0  0  0  0  0  0  0  0  0  0  0
   47.2714   33.1047   43.4979 C   0  0  0  0  0  0  0  0  0  0  0  0
   46.3613   33.9894   43.9568 C   0  0  0  0  0  0  0  0  0  0  0  0
   47.6710   31.9237   44.2042 N   0  0  0  0  0  0  0  0  0  0  0  0
   47.4550   29.8882   48.8009 N   0  0  0  0  0  0  0  0  0  0  0  0
   48.2736   32.3289   48.5484 H   0  0  0  0  0  0  0  0  0  0  0  0
   43.2751   29.4486   46.5190 H   0  0  0  0  0  0  0  0  0  0  0  0
   44.4534   29.1461   45.1315 H   0  0  0  0  0  0  0  0  0  0  0  0
   42.9796   27.0594   46.2208 H   0  0  0  0  0  0  0  0  0  0  0  0
   44.5737   26.8793   45.4600 H   0  0  0  0  0  0  0  0  0  0  0  0
   45.0275   26.0314   47.5990 H   0  0  0  0  0  0  0  0  0  0  0  0
   43.8671   27.1539   48.3435 H   0  0  0  0  0  0  0  0  0  0  0  0
   46.6661   27.6626   47.3405 H   0  0  0  0  0  0  0  0  0  0  0  0
   45.7579   28.2512   48.8568 H   0  0  0  0  0  0  0  0  0  0  0  0
   43.8744   36.5382   45.0625 H   0  0  0  0  0  0  0  0  0  0  0  0
   46.5420   36.0400   41.2665 H   0  0  0  0  0  0  0  0  0  0  0  0
   48.1537   34.4329   40.5037 H   0  0  0  0  0  0  0  0  0  0  0  0
   47.0161   31.1908   43.8091 H   0  0  0  0  0  0  0  0  0  0  0  0
   48.3750   31.6921   44.9122 H   0  0  0  0  0  0  0  0  0  0  0  0
   48.1247   29.1078   48.5835 H   0  0  0  0  0  0  0  0  0  0  0  0
   47.3235   29.7843   49.8382 H   0  0  0  0  0  0  0  0  0  0  0  0
   46.4343   30.0932   42.9288 N   0  0  0  0  0  0  0  0  0  0  0  0
   47.4147   30.4595   42.4798 C   0  0  0  0  0  0  0  0  0  0  0  0
   48.6339   30.9150   41.9021 C   0  0  0  0  0  0  0  0  0  0  0  0
   48.9267   32.2449   41.7911 C   0  0  0  0  0  0  0  0  0  0  0  0
   50.1095   32.6906   41.2308 C   0  0  0  0  0  0  0  0  0  0  0  0
   50.2976   33.7518   41.1641 H   0  0  0  0  0  0  0  0  0  0  0  0
   51.0318   31.7694   40.7651 C   0  0  0  0  0  0  0  0  0  0  0  0
   51.9712   32.0704   40.3188 H   0  0  0  0  0  0  0  0  0  0  0  0
   50.7062   30.4325   40.8918 C   0  0  0  0  0  0  0  0  0  0  0  0
   49.5396   29.9899   41.4443 C   0  0  0  0  0  0  0  0  0  0  0  0
   51.4482   29.7157   40.5177 H   0  0  0  0  0  0  0  0  0  0  0  0
   49.3656   28.9368   41.5043 H   0  0  0  0  0  0  0  0  0  0  0  0
  1  2  2  0
  2 23  1  0
  3  2  1  0
  4  3  2  0
  5  4  1  0
  5  6  2  0
  6  1  1  0
  7  3  1  0
  7 11  1  0
  8  9  1  0
  8  7  1  0
  9 10  1  0
 10 11  1  0
 12 13  2  0
 12  5  1  0
 14 13  1  0
 15 14  2  0
 16 15  1  0
 16 21  2  0
 17 16  1  0
 18 17  2  0
 18 19  1  0
 19 20  2  0
 20 21  1  0
 20 22  1  0
 21 12  1  0
  1 24  1  0
  8 25  1  0
  8 26  1  0
  9 27  1  0
  9 28  1  0
 10 29  1  0
 10 30  1  0
 11 31  1  0
 11 32  1  0
 14 33  1  0
 17 34  1  0
 18 35  1  0
 22 36  1  0
 22 37  1  0
 23 38  1  0
 23 39  1  0
 40 41  3  0
 41 42  1  0
 42 43  2  0
 43 44  1  0
 44 45  1  0
 44 46  2  0
 46 47  1  0
 46 48  1  0
 48 49  2  0
 49 42  1  0
 48 50  1  0
 49 51  1  0
 19 43  1  0
M  ISO  8  24  14  25  13  26  13  27  13  28  13  29  13  30  13  31  13
M  ISO  6  32  13  33  14  34  14  35  14  45  15  47  16
M  END
>  <DihAtoms>  (1) 
17,18,42,41

>  <DihDeg>  (1) 
-89.99925577942986

$$$$
