
 OpenBabel03252507383D

 39 43  0  0  0  0  0  0  0  0999 V2000
   45.3140   34.8520   43.0420 C   0  0  0  0  0  0  0  0  0  0  0  0
   45.9880   33.7780   43.6770 C   0  0  0  0  0  0  0  0  0  0  0  0
   45.8680   33.6730   45.0430 C   0  0  0  0  0  0  0  0  0  0  0  0
   45.1240   34.5860   45.7060 N   0  0  0  0  0  0  0  0  0  0  0  0
   44.4870   35.6060   45.0840 C   0  0  0  0  0  0  0  0  0  0  0  0
   44.5840   35.7320   43.7670 N   0  0  0  0  0  0  0  0  0  0  0  0
   46.5760   33.0570   43.1560 H   0  0  0  0  0  0  0  0  0  0  0  0
   43.9190   36.2780   45.7110 H   0  0  0  0  0  0  0  0  0  0  0  0
   46.7370   32.8990   47.1850 C   0  0  0  0  0  0  0  0  0  0  0  0
   46.4920   32.6280   45.8480 C   0  0  0  0  0  0  0  0  0  0  0  0
   46.8400   31.3960   45.3650 C   0  0  0  0  0  0  0  0  0  0  0  0
   47.4190   30.4240   46.1560 C   0  0  0  0  0  0  0  0  0  0  0  0
   47.8320   29.1560   45.8920 N   0  0  0  0  0  0  0  0  0  0  0  0
   48.3290   28.6520   47.0710 C   0  0  0  0  0  0  0  0  0  0  0  0
   48.2170   29.5930   48.0140 N   0  0  0  0  0  0  0  0  0  0  0  0
   47.6620   30.6830   47.4710 C   0  0  0  0  0  0  0  0  0  0  0  0
   47.3220   31.9220   47.9890 C   0  0  0  0  0  0  0  0  0  0  0  0
   46.4850   33.8520   47.6190 H   0  0  0  0  0  0  0  0  0  0  0  0
   46.6460   31.1830   44.3060 H   0  0  0  0  0  0  0  0  0  0  0  0
   47.7620   28.7050   44.9610 H   0  0  0  0  0  0  0  0  0  0  0  0
   48.7390   27.6430   47.1790 H   0  0  0  0  0  0  0  0  0  0  0  0
   47.5210   32.1160   49.0400 H   0  0  0  0  0  0  0  0  0  0  0  0
   45.4420   34.9510   41.6510 O   0  0  0  0  0  0  0  0  0  0  0  0
   44.4460   34.4130   40.8350 C   0  0  0  0  0  0  0  0  0  0  0  0
   45.1830   33.5230   40.1420 C   0  0  0  0  0  0  0  0  0  0  0  0
   43.8580   32.7460   39.0050 S   0  0  0  0  0  0  0  0  0  0  0  0
   42.5650   33.8690   39.7790 C   0  0  0  0  0  0  0  0  0  0  0  0
   43.1720   34.4210   40.4960 N   0  0  0  0  0  0  0  0  0  0  0  0
   46.1500   32.8510   39.7300 H   0  0  0  0  0  0  0  0  0  0  0  0
   40.1860   33.1420   40.0350 C   0  0  0  0  0  0  0  0  0  0  0  0
   41.1260   33.8360   39.3570 C   0  0  0  0  0  0  0  0  0  0  0  0
   40.8710   34.5730   38.2270 C   0  0  0  0  0  0  0  0  0  0  0  0
   41.6340   35.1140   37.7070 H   0  0  0  0  0  0  0  0  0  0  0  0
   39.5600   34.5700   37.8040 C   0  0  0  0  0  0  0  0  0  0  0  0
   39.3260   35.1470   36.9090 H   0  0  0  0  0  0  0  0  0  0  0  0
   38.5850   33.8730   38.4760 C   0  0  0  0  0  3  0  0  0  0  0  0
   38.8630   33.1390   39.6090 C   0  0  0  0  0  3  0  0  0  0  0  0
   40.7260   31.7760   42.1500 N   0  0  0  0  0  0  0  0  0  0  0  0
   40.4950   32.3920   41.2000 C   0  0  0  0  0  0  0  0  0  0  0  0
  1  2  2  0  0  0  0
  1  6  1  0  0  0  0
  2  3  1  0  0  0  0
  3  4  2  0  0  0  0
  3 10  1  0  0  0  0
  5  4  1  0  0  0  0
  5  8  1  0  0  0  0
  6  5  2  0  0  0  0
  7  2  1  0  0  0  0
  9 18  1  0  0  0  0
  9 17  1  0  0  0  0
 10  9  2  0  0  0  0
 11 10  1  0  0  0  0
 11 12  2  0  0  0  0
 12 16  1  0  0  0  0
 13 12  1  0  0  0  0
 13 14  1  0  0  0  0
 14 21  1  0  0  0  0
 14 15  2  0  0  0  0
 16 17  2  0  0  0  0
 16 15  1  0  0  0  0
 17 22  1  0  0  0  0
 19 11  1  0  0  0  0
 20 13  1  0  0  0  0
 23  1  1  0  0  0  0
 24 23  1  0  0  0  0
 25 24  2  0  0  0  0
 26 27  1  0  0  0  0
 26 25  1  0  0  0  0
 27 28  2  0  0  0  0
 28 24  1  0  0  0  0
 29 25  1  0  0  0  0
 30 39  1  0  0  0  0
 31 27  1  0  0  0  0
 31 30  2  0  0  0  0
 32 31  1  0  0  0  0
 33 32  1  0  0  0  0
 34 32  2  0  0  0  0
 34 36  1  0  0  0  0
 35 34  1  0  0  0  0
 36 37  2  0  0  0  0
 37 30  1  0  0  0  0
 39 38  3  0  0  0  0
M  END
>  <minimizedAffinity>
-6.7207756

>  <minimizedRMSD>
1.55072892

$$$$
