REMARK  Name = 
REMARK  5 active torsions:
REMARK  status: ('A' for Active; 'I' for Inactive)
REMARK    1  A    between atoms: C_1  and  O_16
REMARK    2  A    between atoms: C_3  and  C_8
REMARK    3  A    between atoms: O_16  and  C_17
REMARK    4  A    between atoms: C_20  and  C_33
REMARK    5  A    between atoms: C_31  and  C_32
REMARK                            x       y       z     vdW  Elec       q    Type
REMARK                         _______ _______ _______ _____ _____    ______ ____
ROOT
ATOM      1  C   UNL     1      45.502  34.835  43.537  0.00  0.00    +0.000 A 
ATOM      2  C   UNL     1      46.221  33.758  44.114  0.00  0.00    +0.000 A 
ATOM      3  C   UNL     1      46.041  33.522  45.457  0.00  0.00    +0.000 A 
ATOM      4  N   UNL     1      45.198  34.318  46.153  0.00  0.00    +0.000 NA
ATOM      5  C   UNL     1      44.519  35.342  45.585  0.00  0.00    +0.000 A 
ATOM      6  N   UNL     1      44.673  35.593  44.292  0.00  0.00    +0.000 NA
ATOM      7  H   UNL     1      46.887  33.129  43.567  0.00  0.00    +0.000 HD
ATOM      8  H   UNL     1      43.872  35.914  46.235  0.00  0.00    +0.000 HD
ENDROOT
BRANCH   3  10
ATOM      9  C   UNL     1      46.995  32.685  47.538  0.00  0.00    +0.000 A 
ATOM     10  C   UNL     1      46.700  32.456  46.203  0.00  0.00    +0.000 A 
ATOM     11  C   UNL     1      47.034  31.242  45.668  0.00  0.00    +0.000 A 
ATOM     12  C   UNL     1      47.647  30.248  46.404  0.00  0.00    +0.000 A 
ATOM     13  N   UNL     1      48.055  28.991  46.084  0.00  0.00    +0.000 N 
ATOM     14  C   UNL     1      48.600  28.452  47.226  0.00  0.00    +0.000 A 
ATOM     15  N   UNL     1      48.520  29.362  48.202  0.00  0.00    +0.000 NA
ATOM     16  C   UNL     1      47.940  30.466  47.716  0.00  0.00    +0.000 A 
ATOM     17  C   UNL     1      47.615  31.686  48.287  0.00  0.00    +0.000 A 
ATOM     18  H   UNL     1      46.756  33.622  48.012  0.00  0.00    +0.000 HD
ATOM     19  H   UNL     1      46.800  31.061  44.611  0.00  0.00    +0.000 HD
ATOM     20  H   UNL     1      47.951  28.570  45.142  0.00  0.00    +0.000 HD
ATOM     21  H   UNL     1      49.018  27.443  47.285  0.00  0.00    +0.000 HD
ATOM     22  H   UNL     1      47.854  31.847  49.335  0.00  0.00    +0.000 HD
ENDBRANCH   3  10
BRANCH   1  23
ATOM     23  O   UNL     1      45.692  35.067  42.169  0.00  0.00    +0.000 OA
BRANCH  23  24
ATOM     24  C   UNL     1      44.612  34.923  41.296  0.00  0.00    +0.000 A 
ATOM     25  C   UNL     1      45.025  33.842  40.608  0.00  0.00    +0.000 A 
ATOM     26  S   UNL     1      43.570  33.594  39.394  0.00  0.00    +0.000 S 
ATOM     27  C   UNL     1      42.714  35.087  40.148  0.00  0.00    +0.000 A 
ATOM     28  N   UNL     1      43.440  35.382  40.906  0.00  0.00    +0.000 NA
ATOM     29  H   UNL     1      45.716  32.879  40.215  0.00  0.00    +0.000 HD
BRANCH  27  31
ATOM     30  C   UNL     1      40.493  36.186  40.476  0.00  0.00    +0.000 A 
ATOM     31  C   UNL     1      41.376  35.566  39.666  0.00  0.00    +0.000 A 
ATOM     32  C   UNL     1      41.151  35.310  38.337  0.00  0.00    +0.000 A 
ATOM     33  H   UNL     1      41.869  34.816  37.714  0.00  0.00    +0.000 HD
ATOM     34  C   UNL     1      39.933  35.734  37.852  0.00  0.00    +0.000 A 
ATOM     35  H   UNL     1      39.725  35.545  36.799  0.00  0.00    +0.000 HD
ATOM     36  C   UNL     1      39.016  36.368  38.654  0.00  0.00    +0.000 A 
ATOM     37  C   UNL     1      39.263  36.615  39.989  0.00  0.00    +0.000 A 
BRANCH  30  39
ATOM     38  N   UNL     1      40.972  36.639  42.965  0.00  0.00    +0.000 NA
ATOM     39  C   UNL     1      40.767  36.431  41.848  0.00  0.00    +0.000 C 
ENDBRANCH  30  39
ENDBRANCH  27  31
ENDBRANCH  23  24
ENDBRANCH   1  23
TORSDOF 5
