REMARK  Name = 
REMARK  5 active torsions:
REMARK  status: ('A' for Active; 'I' for Inactive)
REMARK    1  A    between atoms: C_1  and  C_21
REMARK    2  A    between atoms: C_2  and  C_9
REMARK    3  A    between atoms: C_6  and  C_14
REMARK    4  A    between atoms: C_19  and  C_36
REMARK    5  A    between atoms: C_34  and  C_35
REMARK                            x       y       z     vdW  Elec       q    Type
REMARK                         _______ _______ _______ _____ _____    ______ ____
ROOT
ATOM      1  C   UNL     1      45.130  33.943  40.708  0.00  0.00    +0.000 A 
ATOM      2  C   UNL     1      44.081  33.635  39.866  0.00  0.00    +0.000 A 
ATOM      3  C   UNL     1      44.383  33.161  38.626  0.00  0.00    +0.000 A 
ATOM      4  C   UNL     1      45.659  32.973  38.173  0.00  0.00    +0.000 A 
ATOM      5  C   UNL     1      46.684  33.284  39.023  0.00  0.00    +0.000 A 
ATOM      6  C   UNL     1      46.443  33.772  40.300  0.00  0.00    +0.000 A 
ATOM      7  H   UNL     1      43.562  32.919  37.965  0.00  0.00    +0.000 HD
ATOM      8  H   UNL     1      45.819  32.593  37.174  0.00  0.00    +0.000 HD
ATOM      9  H   UNL     1      47.693  33.131  38.652  0.00  0.00    +0.000 HD
ENDROOT
BRANCH   2  12
ATOM     10  C   UNL     1      40.798  35.249  40.790  0.00  0.00    +0.000 A 
ATOM     11  C   UNL     1      42.095  35.084  40.268  0.00  0.00    +0.000 A 
ATOM     12  C   UNL     1      42.744  33.850  40.390  0.00  0.00    +0.000 A 
ATOM     13  N   UNL     1      42.029  32.892  41.026  0.00  0.00    +0.000 NA
ATOM     14  C   UNL     1      40.804  33.061  41.515  0.00  0.00    +0.000 A 
ATOM     15  N   UNL     1      40.194  34.247  41.392  0.00  0.00    +0.000 NA
ATOM     16  N   UNL     1      40.189  36.524  40.638  0.00  0.00    +0.000 N 
ATOM     17  H   UNL     1      42.609  35.895  39.770  0.00  0.00    +0.000 HD
ATOM     18  H   UNL     1      40.340  32.210  42.004  0.00  0.00    +0.000 HD
ATOM     19  H   UNL     1      40.725  37.111  41.315  0.00  0.00    +0.000 HD
ATOM     20  H   UNL     1      39.398  36.663  39.959  0.00  0.00    +0.000 HD
ENDBRANCH   2  12
BRANCH   6  21
ATOM     21  C   UNL     1      47.603  34.074  41.122  0.00  0.00    +0.000 A 
ATOM     22  C   UNL     1      48.140  35.326  40.947  0.00  0.00    +0.000 A 
ATOM     23  C   UNL     1      49.252  35.795  41.648  0.00  0.00    +0.000 A 
ATOM     24  C   UNL     1      49.829  34.945  42.559  0.00  0.00    +0.000 A 
ATOM     25  C   UNL     1      49.306  33.685  42.750  0.00  0.00    +0.000 A 
ATOM     26  C   UNL     1      48.199  33.248  42.037  0.00  0.00    +0.000 A 
ATOM     27  H   UNL     1      47.743  36.070  40.241  0.00  0.00    +0.000 HD
ATOM     28  H   UNL     1      49.661  36.782  41.498  0.00  0.00    +0.000 HD
ATOM     29  H   UNL     1      50.699  35.219  43.153  0.00  0.00    +0.000 HD
ATOM     30  H   UNL     1      49.755  33.001  43.469  0.00  0.00    +0.000 HD
BRANCH  26  32
ATOM     31  C   UNL     1      48.584  30.970  42.683  0.00  0.00    +0.000 A 
ATOM     32  C   UNL     1      47.645  31.913  42.240  0.00  0.00    +0.000 A 
ATOM     33  C   UNL     1      46.377  31.459  42.062  0.00  0.00    +0.000 A 
ATOM     34  H   UNL     1      45.680  32.208  41.718  0.00  0.00    +0.000 HD
ATOM     35  C   UNL     1      46.034  30.145  42.303  0.00  0.00    +0.000 A 
ATOM     36  H   UNL     1      44.993  29.890  42.128  0.00  0.00    +0.000 HD
ATOM     37  C   UNL     1      46.957  29.214  42.739  0.00  0.00    +0.000 A 
ATOM     38  C   UNL     1      48.238  29.675  42.919  0.00  0.00    +0.000 A 
BRANCH  31  40
ATOM     39  N   UNL     1      51.087  31.609  43.077  0.00  0.00    +0.000 NA
ATOM     40  C   UNL     1      49.978  31.322  42.913  0.00  0.00    +0.000 C 
ENDBRANCH  31  40
ENDBRANCH  26  32
ENDBRANCH   6  21
BRANCH   1  42
ATOM     41  N   UNL     1      44.721  34.853  43.112  0.00  0.00    +0.000 NA
ATOM     42  C   UNL     1      44.903  34.457  42.035  0.00  0.00    +0.000 C 
ENDBRANCH   1  42
TORSDOF 5
