
 OpenBabel03242517213D

 34 36  0  0  1  0  0  0  0  0999 V2000
   44.5270   35.5550   45.0540 C   0  0  0  0  0  0  0  0  0  0  0  0
   45.0720   35.4200   43.7570 C   0  0  0  0  0  0  0  0  0  0  0  0
   45.9590   34.3710   43.4920 C   0  0  0  0  0  0  0  0  0  0  0  0
   46.2410   33.5340   44.5250 N   0  0  0  0  0  0  0  0  0  0  0  0
   45.7240   33.6620   45.7560 C   0  0  0  0  0  0  0  0  0  0  0  0
   44.8610   34.6800   46.0200 N   0  0  0  0  0  0  0  0  0  0  0  0
   46.0590   32.7450   46.8080 N   0  0  0  0  0  0  0  0  0  0  0  0
   45.1640   32.6650   47.9430 C   0  0  0  0  0  0  0  0  0  0  0  0
   45.7890   32.0170   49.1440 C   0  0  0  0  0  0  0  0  0  0  0  0
   46.5760   30.8400   48.6760 C   0  0  0  0  0  0  0  0  0  0  0  0
   47.7570   31.3760   47.9080 C   0  0  0  0  0  0  0  0  0  0  0  0
   47.2680   31.9840   46.6360 C   0  0  1  0  0  0  0  0  0  0  0  0
   43.8460   36.3600   45.2590 H   0  0  0  0  0  0  0  0  0  0  0  0
   44.8090   36.1210   42.9710 H   0  0  0  0  0  0  0  0  0  0  0  0
   46.3980   34.2270   42.5270 H   0  0  0  0  0  0  0  0  0  0  0  0
   44.3300   31.9940   47.6370 H   0  0  0  0  0  0  0  0  0  0  0  0
   44.6990   33.6480   48.1750 H   0  0  0  0  0  0  0  0  0  0  0  0
   46.4610   32.7140   49.7050 H   0  0  0  0  0  0  0  0  0  0  0  0
   44.9650   31.7850   49.8520 H   0  0  0  0  0  0  0  0  0  0  0  0
   46.9440   30.2060   49.5330 H   0  0  0  0  0  0  0  0  0  0  0  0
   45.9140   30.1800   48.1020 H   0  0  0  0  0  0  0  0  0  0  0  0
   48.3050   32.0590   48.5650 H   0  0  0  0  0  0  0  0  0  0  0  0
   48.4240   30.5050   47.6810 H   0  0  0  0  0  0  0  0  0  0  0  0
   48.0430   32.7670   46.3800 H   0  0  0  0  0  0  0  0  0  0  0  0
   46.3200   30.0620   45.3360 C   0  0  0  0  0  0  0  0  0  0  0  0
   47.2530   31.0750   45.4720 C   0  0  0  0  0  0  0  0  0  0  0  0
   48.1770   31.1860   44.4420 C   0  0  0  0  0  0  0  0  0  0  0  0
   48.9520   31.9610   44.4680 H   0  0  0  0  0  0  0  0  0  0  0  0
   48.1780   30.3460   43.3470 C   0  0  0  0  0  0  0  0  0  0  0  0
   48.9100   30.4510   42.5570 H   0  0  0  0  0  0  0  0  0  0  0  0
   47.2160   29.3490   43.2720 C   0  0  0  0  0  0  0  0  0  0  0  0
   46.2620   29.1870   44.2700 C   0  0  0  0  0  0  0  0  0  0  0  0
   44.5550   29.8000   47.2390 N   0  0  0  0  0  0  0  0  0  0  0  0
   45.3520   29.9260   46.3880 C   0  0  0  0  0  0  0  0  0  0  0  0
  1 13  1  0  0  0  0
  1  6  1  0  0  0  0
  2  1  2  0  0  0  0
  3  2  1  0  0  0  0
  3  4  2  0  0  0  0
  4  5  1  0  0  0  0
  5  6  2  0  0  0  0
  5  7  1  0  0  0  0
  7  8  1  0  0  0  0
  8 17  1  0  0  0  0
  8  9  1  0  0  0  0
  9 18  1  0  0  0  0
  9 19  1  0  0  0  0
 10  9  1  0  0  0  0
 10 20  1  0  0  0  0
 11 22  1  0  0  0  0
 11 10  1  0  0  0  0
 12 24  1  6  0  0  0
 12  7  1  0  0  0  0
 12 11  1  0  0  0  0
 14  2  1  0  0  0  0
 15  3  1  0  0  0  0
 16  8  1  0  0  0  0
 21 10  1  0  0  0  0
 23 11  1  0  0  0  0
 25 26  1  0  0  0  0
 25 34  1  0  0  0  0
 26 12  1  0  0  0  0
 27 28  1  0  0  0  0
 27 26  2  0  0  0  0
 29 27  1  0  0  0  0
 30 29  1  0  0  0  0
 31 29  2  0  0  0  0
 31 32  1  0  0  0  0
 32 25  2  0  0  0  0
 34 33  3  0  0  0  0
M  END
>  <minimizedAffinity>
-4.94540405

>  <minimizedRMSD>
0.681560576

$$$$
