
 OpenBabel03252500363D

 47 50  0  0  1  0  0  0  0  0999 V2000
   46.2920   34.8160   43.1650 C   0  0  1  0  0  0  0  0  0  0  0  0
   45.1910   34.8230   44.0250 C   0  0  0  0  0  0  0  0  0  0  0  0
   46.2950   33.9500   44.4580 C   0  0  1  0  0  0  0  0  0  0  0  0
   47.0370   35.6620   43.1690 H   0  0  0  0  0  0  0  0  0  0  0  0
   44.9520   35.7430   44.6180 H   0  0  0  0  0  0  0  0  0  0  0  0
   44.2390   34.2980   43.7300 H   0  0  0  0  0  0  0  0  0  0  0  0
   47.0960   34.2780   45.1380 H   0  0  0  0  0  0  0  0  0  0  0  0
   45.2650   34.0600   41.0170 C   0  0  0  0  0  0  0  0  0  0  0  0
   46.4130   34.0750   41.8710 C   0  0  0  0  0  0  0  0  0  0  0  0
   47.5490   33.4300   41.4950 C   0  0  0  0  0  0  0  0  0  0  0  0
   47.5190   32.7840   40.2790 N   0  0  0  0  0  0  0  0  0  0  0  0
   46.4290   32.7780   39.4820 C   0  0  0  0  0  0  0  0  0  0  0  0
   45.2620   33.4190   39.8280 N   0  0  0  0  0  0  0  0  0  0  0  0
   44.3750   34.5650   41.3120 H   0  0  0  0  0  0  0  0  0  0  0  0
   48.4140   33.4310   42.1220 H   0  0  0  0  0  0  0  0  0  0  0  0
   47.2240   32.5750   37.1590 C   0  0  0  0  0  0  0  0  0  0  0  0
   46.4890   32.0680   38.2100 C   0  0  0  0  0  0  0  0  0  0  0  0
   45.7920   30.8830   38.1020 C   0  0  0  0  0  0  0  0  0  0  0  0
   45.2050   30.4350   38.8740 H   0  0  0  0  0  0  0  0  0  0  0  0
   45.8320   30.1860   36.9040 C   0  0  0  0  0  0  0  0  0  0  0  0
   45.3170   29.2390   36.7100 H   0  0  0  0  0  0  0  0  0  0  0  0
   46.5610   30.6540   35.8060 C   0  0  0  0  0  3  0  0  0  0  0  0
   47.2440   31.8480   35.9640 C   0  0  0  0  0  3  0  0  0  0  0  0
   48.5060   34.8090   37.3950 N   0  0  0  0  0  0  0  0  0  0  0  0
   47.9380   33.8070   37.2970 C   0  0  0  0  0  0  0  0  0  0  0  0
   46.1780   32.4770   44.3420 C   0  0  0  0  0  0  0  0  0  0  0  0
   47.1760   32.0630   44.1270 H   0  0  0  0  0  0  0  0  0  0  0  0
   45.5030   32.1920   43.5100 H   0  0  0  0  0  0  0  0  0  0  0  0
   45.7320   31.9860   45.5950 N   0  0  0  0  0  0  0  0  0  0  0  0
   45.9690   32.7600   46.7360 C   0  0  0  0  0  0  0  0  0  0  0  0
   47.3150   32.4000   47.3960 C   0  0  0  0  0  0  0  0  0  0  0  0
   47.1640   31.0020   47.9360 C   0  0  0  0  0  0  0  0  0  0  0  0
   46.8710   30.1160   46.7590 C   0  0  0  0  0  0  0  0  0  0  0  0
   45.7790   30.6090   45.8500 C   0  0  2  0  0  0  0  0  0  0  0  0
   45.2260   32.3910   47.5090 H   0  0  0  0  0  0  0  0  0  0  0  0
   45.7770   33.8300   46.7140 H   0  0  0  0  0  0  0  0  0  0  0  0
   48.1240   32.4250   46.6590 H   0  0  0  0  0  0  0  0  0  0  0  0
   47.4520   33.1190   48.2210 H   0  0  0  0  0  0  0  0  0  0  0  0
   48.1620   30.6940   48.3260 H   0  0  0  0  0  0  0  0  0  0  0  0
   46.4160   30.9400   48.7350 H   0  0  0  0  0  0  0  0  0  0  0  0
   47.7700   29.9270   46.1760 H   0  0  0  0  0  0  0  0  0  0  0  0
   46.5450   29.1210   47.1680 H   0  0  0  0  0  0  0  0  0  0  0  0
   44.8080   30.2990   46.3270 H   0  0  0  0  0  0  0  0  0  0  0  0
   45.8720   29.7970   44.5660 C   0  0  0  0  0  0  0  0  0  0  0  0
   46.8710   29.9310   44.0880 H   0  0  0  0  0  0  0  0  0  0  0  0
   45.6730   28.7280   44.8000 H   0  0  0  0  0  0  0  0  0  0  0  0
   45.0420   30.1010   43.8890 H   0  0  0  0  0  0  0  0  0  0  0  0
  1  4  1  1  0  0  0
  1  2  1  0  0  0  0
  1  3  1  0  0  0  0
  2  3  1  0  0  0  0
  2  5  1  0  0  0  0
  3  7  1  1  0  0  0
  6  2  1  0  0  0  0
  8 14  1  0  0  0  0
  8  9  1  0  0  0  0
  9  1  1  0  0  0  0
 10  9  2  0  0  0  0
 10 15  1  0  0  0  0
 11 10  1  0  0  0  0
 12 13  1  0  0  0  0
 12 11  2  0  0  0  0
 13  8  2  0  0  0  0
 16 25  1  0  0  0  0
 16 17  1  0  0  0  0
 17 12  1  0  0  0  0
 18 17  2  0  0  0  0
 18 19  1  0  0  0  0
 20 18  1  0  0  0  0
 21 20  1  0  0  0  0
 22 23  1  0  0  0  0
 22 20  2  0  0  0  0
 23 16  2  0  0  0  0
 25 24  3  0  0  0  0
 26  3  1  0  0  0  0
 26 29  1  0  0  0  0
 27 26  1  0  0  0  0
 28 26  1  0  0  0  0
 29 34  1  0  0  0  0
 29 30  1  0  0  0  0
 30 31  1  0  0  0  0
 30 35  1  0  0  0  0
 31 32  1  0  0  0  0
 31 38  1  0  0  0  0
 32 39  1  0  0  0  0
 32 40  1  0  0  0  0
 33 42  1  0  0  0  0
 33 32  1  0  0  0  0
 34 43  1  1  0  0  0
 34 33  1  0  0  0  0
 36 30  1  0  0  0  0
 37 31  1  0  0  0  0
 41 33  1  0  0  0  0
 44 46  1  0  0  0  0
 44 34  1  0  0  0  0
 45 44  1  0  0  0  0
 47 44  1  0  0  0  0
M  END
>  <minimizedAffinity>
-4.49043798

>  <minimizedRMSD>
1.92586088

$$$$
