
 OpenBabel03252500363D

 47 50  0  0  1  0  0  0  0  0999 V2000
   45.5710   35.0770   44.0490 C   0  0  1  0  0  0  0  0  0  0  0  0
   44.7400   34.8180   45.1410 C   0  0  0  0  0  0  0  0  0  0  0  0
   46.0900   34.2420   45.2550 C   0  0  1  0  0  0  0  0  0  0  0  0
   46.0720   36.0800   43.9270 H   0  0  0  0  0  0  0  0  0  0  0  0
   44.4380   35.6520   45.8250 H   0  0  0  0  0  0  0  0  0  0  0  0
   43.8970   34.0750   45.0470 H   0  0  0  0  0  0  0  0  0  0  0  0
   46.9290   34.7560   45.7460 H   0  0  0  0  0  0  0  0  0  0  0  0
   44.4640   33.4880   42.4710 C   0  0  0  0  0  0  0  0  0  0  0  0
   45.5500   34.3860   42.7230 C   0  0  0  0  0  0  0  0  0  0  0  0
   46.5080   34.5760   41.7780 C   0  0  0  0  0  0  0  0  0  0  0  0
   46.3650   33.8710   40.6030 N   0  0  0  0  0  0  0  0  0  0  0  0
   45.3360   33.0270   40.3780 C   0  0  0  0  0  0  0  0  0  0  0  0
   44.3470   32.8090   41.3090 N   0  0  0  0  0  0  0  0  0  0  0  0
   43.7140   33.3390   43.2120 H   0  0  0  0  0  0  0  0  0  0  0  0
   47.3250   35.2430   41.9510 H   0  0  0  0  0  0  0  0  0  0  0  0
   44.3110   32.6590   38.1680 C   0  0  0  0  0  0  0  0  0  0  0  0
   45.2670   32.3240   39.1030 C   0  0  0  0  0  0  0  0  0  0  0  0
   46.1840   31.3200   38.8720 C   0  0  0  0  0  0  0  0  0  0  0  0
   46.9490   31.0090   39.5510 H   0  0  0  0  0  0  0  0  0  0  0  0
   46.1420   30.6330   37.6690 C   0  0  0  0  0  0  0  0  0  0  0  0
   46.8210   29.8220   37.3830 H   0  0  0  0  0  0  0  0  0  0  0  0
   45.1930   30.9330   36.6860 C   0  0  0  0  0  3  0  0  0  0  0  0
   44.2940   31.9480   36.9640 C   0  0  0  0  0  3  0  0  0  0  0  0
   42.5960   34.5370   38.6450 N   0  0  0  0  0  0  0  0  0  0  0  0
   43.3700   33.7040   38.4330 C   0  0  0  0  0  0  0  0  0  0  0  0
   46.3020   32.7840   45.0850 C   0  0  0  0  0  0  0  0  0  0  0  0
   47.3770   32.6030   44.9280 H   0  0  0  0  0  0  0  0  0  0  0  0
   45.7570   32.3990   44.2000 H   0  0  0  0  0  0  0  0  0  0  0  0
   45.8970   32.1530   46.2890 N   0  0  0  0  0  0  0  0  0  0  0  0
   46.2540   32.7460   47.5040 C   0  0  0  0  0  0  0  0  0  0  0  0
   47.6070   32.2150   48.0180 C   0  0  0  0  0  0  0  0  0  0  0  0
   47.3890   30.7680   48.3750 C   0  0  0  0  0  0  0  0  0  0  0  0
   46.9660   30.0730   47.1110 C   0  0  0  0  0  0  0  0  0  0  0  0
   45.8610   30.7540   46.3530 C   0  0  2  0  0  0  0  0  0  0  0  0
   45.5330   32.3210   48.2690 H   0  0  0  0  0  0  0  0  0  0  0  0
   46.1370   33.8190   47.6390 H   0  0  0  0  0  0  0  0  0  0  0  0
   48.3720   32.2920   47.2380 H   0  0  0  0  0  0  0  0  0  0  0  0
   47.8430   32.8040   48.9200 H   0  0  0  0  0  0  0  0  0  0  0  0
   48.3840   30.3480   48.6510 H   0  0  0  0  0  0  0  0  0  0  0  0
   46.6870   30.6420   49.2060 H   0  0  0  0  0  0  0  0  0  0  0  0
   47.8140   29.9110   46.4490 H   0  0  0  0  0  0  0  0  0  0  0  0
   46.5950   29.0530   47.4040 H   0  0  0  0  0  0  0  0  0  0  0  0
   44.9000   30.4420   46.8490 H   0  0  0  0  0  0  0  0  0  0  0  0
   45.8210   30.1240   44.9680 C   0  0  0  0  0  0  0  0  0  0  0  0
   46.7980   30.2600   44.4470 H   0  0  0  0  0  0  0  0  0  0  0  0
   45.5610   29.0470   45.0700 H   0  0  0  0  0  0  0  0  0  0  0  0
   44.9770   30.5690   44.3960 H   0  0  0  0  0  0  0  0  0  0  0  0
  1  4  1  6  0  0  0
  1  2  1  0  0  0  0
  1  3  1  0  0  0  0
  2  3  1  0  0  0  0
  2  5  1  0  0  0  0
  3  7  1  1  0  0  0
  6  2  1  0  0  0  0
  8  9  1  0  0  0  0
  8 14  1  0  0  0  0
  9  1  1  0  0  0  0
 10 15  1  0  0  0  0
 10  9  2  0  0  0  0
 11 10  1  0  0  0  0
 12 11  2  0  0  0  0
 12 13  1  0  0  0  0
 13  8  2  0  0  0  0
 16 25  1  0  0  0  0
 16 17  1  0  0  0  0
 17 12  1  0  0  0  0
 18 17  2  0  0  0  0
 18 19  1  0  0  0  0
 20 18  1  0  0  0  0
 21 20  1  0  0  0  0
 22 23  1  0  0  0  0
 22 20  2  0  0  0  0
 23 16  2  0  0  0  0
 25 24  3  0  0  0  0
 26  3  1  0  0  0  0
 26 29  1  0  0  0  0
 27 26  1  0  0  0  0
 28 26  1  0  0  0  0
 29 34  1  0  0  0  0
 29 30  1  0  0  0  0
 30 36  1  0  0  0  0
 30 31  1  0  0  0  0
 30 35  1  0  0  0  0
 31 32  1  0  0  0  0
 31 38  1  0  0  0  0
 32 39  1  0  0  0  0
 32 40  1  0  0  0  0
 33 42  1  0  0  0  0
 33 32  1  0  0  0  0
 34 43  1  1  0  0  0
 34 33  1  0  0  0  0
 37 31  1  0  0  0  0
 41 33  1  0  0  0  0
 44 46  1  0  0  0  0
 44 34  1  0  0  0  0
 45 44  1  0  0  0  0
 47 44  1  0  0  0  0
M  END
>  <minimizedAffinity>
-4.22271633

>  <minimizedRMSD>
1.19213629

$$$$
