
 OpenBabel03252507383D

 39 43  0  0  0  0  0  0  0  0999 V2000
   45.6150   34.7560   43.3980 C   0  0  0  0  0  0  0  0  0  0  0  0
   46.3220   33.6940   44.0170 C   0  0  0  0  0  0  0  0  0  0  0  0
   46.1200   33.4960   45.3630 C   0  0  0  0  0  0  0  0  0  0  0  0
   45.2670   34.3130   46.0220 N   0  0  0  0  0  0  0  0  0  0  0  0
   44.6000   35.3220   45.4150 C   0  0  0  0  0  0  0  0  0  0  0  0
   44.7760   35.5360   44.1180 N   0  0  0  0  0  0  0  0  0  0  0  0
   46.9950   33.0480   43.4980 H   0  0  0  0  0  0  0  0  0  0  0  0
   43.9440   35.9130   46.0380 H   0  0  0  0  0  0  0  0  0  0  0  0
   46.9900   32.6960   47.4940 C   0  0  0  0  0  0  0  0  0  0  0  0
   46.7640   32.4500   46.1490 C   0  0  0  0  0  0  0  0  0  0  0  0
   47.1480   31.2390   45.6420 C   0  0  0  0  0  0  0  0  0  0  0  0
   47.7450   30.2640   46.4150 C   0  0  0  0  0  0  0  0  0  0  0  0
   48.1930   29.0130   46.1260 N   0  0  0  0  0  0  0  0  0  0  0  0
   48.6940   28.4950   47.2980 C   0  0  0  0  0  0  0  0  0  0  0  0
   48.5490   29.4110   48.2610 N   0  0  0  0  0  0  0  0  0  0  0  0
   47.9700   30.4990   47.7370 C   0  0  0  0  0  0  0  0  0  0  0  0
   47.5930   31.7160   48.2810 C   0  0  0  0  0  0  0  0  0  0  0  0
   46.7090   33.6320   47.9480 H   0  0  0  0  0  0  0  0  0  0  0  0
   46.9680   31.0450   44.5760 H   0  0  0  0  0  0  0  0  0  0  0  0
   48.1430   28.5820   45.1840 H   0  0  0  0  0  0  0  0  0  0  0  0
   49.1290   27.4950   47.3860 H   0  0  0  0  0  0  0  0  0  0  0  0
   47.7790   31.8910   49.3380 H   0  0  0  0  0  0  0  0  0  0  0  0
   45.8280   34.9490   42.0270 O   0  0  0  0  0  0  0  0  0  0  0  0
   44.8380   34.5620   41.1220 C   0  0  0  0  0  0  0  0  0  0  0  0
   45.5600   33.7350   40.3430 C   0  0  0  0  0  0  0  0  0  0  0  0
   44.2430   33.1660   39.0800 S   0  0  0  0  0  0  0  0  0  0  0  0
   42.9720   34.2390   39.9550 C   0  0  0  0  0  0  0  0  0  0  0  0
   43.5780   34.6700   40.7530 N   0  0  0  0  0  0  0  0  0  0  0  0
   46.5130   33.0770   39.8750 H   0  0  0  0  0  0  0  0  0  0  0  0
   40.5540   34.7790   40.2830 C   0  0  0  0  0  0  0  0  0  0  0  0
   41.5470   34.3230   39.4920 C   0  0  0  0  0  0  0  0  0  0  0  0
   41.3660   33.8930   38.2020 C   0  0  0  0  0  0  0  0  0  0  0  0
   42.1720   33.5360   37.5930 H   0  0  0  0  0  0  0  0  0  0  0  0
   40.0710   33.9540   37.7360 C   0  0  0  0  0  0  0  0  0  0  0  0
   39.8950   33.6200   36.7140 H   0  0  0  0  0  0  0  0  0  0  0  0
   39.0410   34.4150   38.5190 C   0  0  0  0  0  3  0  0  0  0  0  0
   39.2460   34.8420   39.8160 C   0  0  0  0  0  3  0  0  0  0  0  0
   40.9560   35.5730   42.7000 N   0  0  0  0  0  0  0  0  0  0  0  0
   40.7870   35.2150   41.6150 C   0  0  0  0  0  0  0  0  0  0  0  0
  1  2  2  0  0  0  0
  1  6  1  0  0  0  0
  2  3  1  0  0  0  0
  3  4  2  0  0  0  0
  3 10  1  0  0  0  0
  5  4  1  0  0  0  0
  5  8  1  0  0  0  0
  6  5  2  0  0  0  0
  7  2  1  0  0  0  0
  9 18  1  0  0  0  0
  9 17  1  0  0  0  0
 10  9  2  0  0  0  0
 11 10  1  0  0  0  0
 11 12  2  0  0  0  0
 12 16  1  0  0  0  0
 13 12  1  0  0  0  0
 13 14  1  0  0  0  0
 14 21  1  0  0  0  0
 14 15  2  0  0  0  0
 16 15  1  0  0  0  0
 16 17  2  0  0  0  0
 17 22  1  0  0  0  0
 19 11  1  0  0  0  0
 20 13  1  0  0  0  0
 23  1  1  0  0  0  0
 24 23  1  0  0  0  0
 25 24  2  0  0  0  0
 26 27  1  0  0  0  0
 26 25  1  0  0  0  0
 27 28  2  0  0  0  0
 28 24  1  0  0  0  0
 29 25  1  0  0  0  0
 30 39  1  0  0  0  0
 31 27  1  0  0  0  0
 31 30  2  0  0  0  0
 32 31  1  0  0  0  0
 33 32  1  0  0  0  0
 34 32  2  0  0  0  0
 34 36  1  0  0  0  0
 35 34  1  0  0  0  0
 36 37  2  0  0  0  0
 37 30  1  0  0  0  0
 39 38  3  0  0  0  0
M  END
>  <minimizedAffinity>
-6.53859949

>  <minimizedRMSD>
0.864014387

$$$$
