
 OpenBabel03252507193D

 45 48  0  0  1  0  0  0  0  0999 V2000
   45.6380   30.6350   43.9660 C   0  0  0  0  0  0  0  0  0  0  0  0
   45.5930   31.8180   44.3930 O   0  0  0  0  0  0  0  0  0  0  0  0
   46.4660   30.2110   42.8820 N   0  0  0  0  0  0  0  0  0  0  0  0
   47.3220   29.0380   42.7370 C   0  0  0  0  0  0  0  0  0  0  0  0
   46.9670   28.3150   41.4190 C   0  0  0  0  0  0  0  0  0  0  0  0
   47.3090   29.2200   40.2580 C   0  0  0  0  0  0  0  0  0  0  0  0
   47.5470   30.6190   40.7530 C   0  0  0  0  0  0  0  0  0  0  0  0
   46.4800   31.0560   41.7190 C   0  0  2  0  0  0  0  0  0  0  0  0
   47.0180   28.2830   43.5180 H   0  0  0  0  0  0  0  0  0  0  0  0
   48.3860   29.2610   42.7460 H   0  0  0  0  0  0  0  0  0  0  0  0
   47.4460   27.3390   41.3910 H   0  0  0  0  0  0  0  0  0  0  0  0
   45.8480   28.2720   41.4470 H   0  0  0  0  0  0  0  0  0  0  0  0
   46.5630   29.1830   39.4400 H   0  0  0  0  0  0  0  0  0  0  0  0
   48.2730   28.8620   39.8250 H   0  0  0  0  0  0  0  0  0  0  0  0
   47.5870   31.3270   39.9050 H   0  0  0  0  0  0  0  0  0  0  0  0
   48.5560   30.6790   41.2320 H   0  0  0  0  0  0  0  0  0  0  0  0
   45.5090   30.8110   41.1910 H   0  0  0  0  0  0  0  0  0  0  0  0
   43.7310   29.1080   43.8680 C   0  0  0  0  0  0  0  0  0  0  0  0
   44.8010   29.6530   44.6130 C   0  0  0  0  0  0  0  0  0  0  0  0
   45.0100   29.2380   45.9100 C   0  0  0  0  0  0  0  0  0  0  0  0
   44.1750   28.3110   46.4300 N   0  0  0  0  0  0  0  0  0  0  0  0
   43.1450   27.7790   45.7270 C   0  0  0  0  0  0  0  0  0  0  0  0
   42.9430   28.1890   44.4590 N   0  0  0  0  0  0  0  0  0  0  0  0
   43.5580   29.4280   42.8480 H   0  0  0  0  0  0  0  0  0  0  0  0
   42.5440   27.0490   46.2450 H   0  0  0  0  0  0  0  0  0  0  0  0
   46.1090   29.8160   46.6580 C   0  0  0  0  0  0  0  0  0  0  0  0
   47.3700   29.3210   46.5100 C   0  0  0  0  0  0  0  0  0  0  0  0
   48.4050   29.8790   47.2260 C   0  0  0  0  0  0  0  0  0  0  0  0
   48.2230   30.9400   48.1080 C   0  0  0  0  0  0  0  0  0  0  0  0
   46.9240   31.3960   48.2150 C   0  0  0  0  0  0  0  0  0  0  0  0
   45.9400   30.8280   47.5000 N   0  0  0  0  0  0  0  0  0  0  0  0
   47.6750   28.5060   45.8740 H   0  0  0  0  0  0  0  0  0  0  0  0
   49.4360   29.5240   47.1480 H   0  0  0  0  0  0  0  0  0  0  0  0
   49.0130   31.4000   48.6850 H   0  0  0  0  0  0  0  0  0  0  0  0
   46.6340   32.2140   48.8620 H   0  0  0  0  0  0  0  0  0  0  0  0
   47.5970   33.1770   42.4260 C   0  0  0  0  0  0  0  0  0  0  0  0
   46.4700   32.4930   41.9510 C   0  0  0  0  0  0  0  0  0  0  0  0
   45.3850   33.3560   41.7610 C   0  0  0  0  0  0  0  0  0  0  0  0
   44.4700   32.9060   41.3940 H   0  0  0  0  0  0  0  0  0  0  0  0
   45.4060   34.7120   42.0060 C   0  0  0  0  0  0  0  0  0  0  0  0
   44.5240   35.3130   41.8330 H   0  0  0  0  0  0  0  0  0  0  0  0
   46.5730   35.2810   42.4730 C   0  0  0  0  0  3  0  0  0  0  0  0
   47.7040   34.5240   42.6960 C   0  0  0  0  0  3  0  0  0  0  0  0
   49.7140   31.6940   42.8290 N   0  0  0  0  0  0  0  0  0  0  0  0
   48.7670   32.3460   42.6480 C   0  0  0  0  0  0  0  0  0  0  0  0
  1  2  2  0  0  0  0
  1 19  1  0  0  0  0
  3  1  1  0  0  0  0
  4 10  1  0  0  0  0
  4  3  1  0  0  0  0
  4  9  1  0  0  0  0
  5 12  1  0  0  0  0
  5  4  1  0  0  0  0
  6  7  1  0  0  0  0
  6  5  1  0  0  0  0
  7 16  1  0  0  0  0
  7  8  1  0  0  0  0
  8 17  1  6  0  0  0
  8 37  1  0  0  0  0
  8  3  1  0  0  0  0
 11  5  1  0  0  0  0
 13  6  1  0  0  0  0
 14  6  1  0  0  0  0
 15  7  1  0  0  0  0
 18 23  2  0  0  0  0
 18 19  1  0  0  0  0
 19 20  2  0  0  0  0
 20 21  1  0  0  0  0
 20 26  1  0  0  0  0
 22 25  1  0  0  0  0
 22 21  2  0  0  0  0
 23 22  1  0  0  0  0
 24 18  1  0  0  0  0
 26 31  1  0  0  0  0
 27 26  2  0  0  0  0
 27 28  1  0  0  0  0
 28 29  2  0  0  0  0
 29 30  1  0  0  0  0
 29 34  1  0  0  0  0
 30 35  1  0  0  0  0
 31 30  2  0  0  0  0
 32 27  1  0  0  0  0
 33 28  1  0  0  0  0
 36 45  1  0  0  0  0
 36 43  1  0  0  0  0
 37 36  2  0  0  0  0
 38 37  1  0  0  0  0
 38 40  2  0  0  0  0
 39 38  1  0  0  0  0
 40 42  1  0  0  0  0
 41 40  1  0  0  0  0
 42 43  2  0  0  0  0
 45 44  3  0  0  0  0
M  END
>  <minimizedAffinity>
-3.97145438

>  <minimizedRMSD>
4.69223213

$$$$
