REMARK  Name = 
REMARK  4 active torsions:
REMARK  status: ('A' for Active; 'I' for Inactive)
REMARK    1  A    between atoms: C_1  and  C_11
REMARK    2  A    between atoms: C_6  and  N_13
REMARK    3  A    between atoms: C_9  and  C_29
REMARK    4  A    between atoms: C_27  and  C_28
REMARK                            x       y       z     vdW  Elec       q    Type
REMARK                         _______ _______ _______ _____ _____    ______ ____
ROOT
ATOM      1  C   UNL     1      44.995  35.052  44.277  0.00  0.00    +0.000 A 
ATOM      2  C   UNL     1      45.849  34.874  43.159  0.00  0.00    +0.000 A 
ATOM      3  C   UNL     1      46.926  33.961  43.292  0.00  0.00    +0.000 A 
ATOM      4  N   UNL     1      47.089  33.308  44.469  0.00  0.00    +0.000 NA
ATOM      5  C   UNL     1      46.245  33.513  45.507  0.00  0.00    +0.000 A 
ATOM      6  N   UNL     1      45.202  34.378  45.421  0.00  0.00    +0.000 NA
ATOM      7  H   UNL     1      44.148  35.723  44.278  0.00  0.00    +0.000 HD
ATOM      8  H   UNL     1      45.549  35.477  42.346  0.00  0.00    +0.000 HD
ENDROOT
BRANCH   5   9
ATOM      9  C   UNL     1      46.500  32.755  46.763  0.00  0.00    +0.000 C 
ATOM     10  C   UNL     1      47.031  31.419  46.367  0.00  0.00    +0.000 C 
ATOM     11  C   UNL     1      46.095  30.283  46.475  0.00  0.00    +0.000 C 
ATOM     12  C   UNL     1      45.591  30.289  47.906  0.00  0.00    +0.000 C 
ATOM     13  C   UNL     1      44.798  31.484  48.228  0.00  0.00    +0.000 C 
ATOM     14  C   UNL     1      45.313  32.752  47.605  0.00  0.00    +0.000 C 
ATOM     15  H   UNL     1      47.298  33.329  47.282  0.00  0.00    +0.000 HD
ATOM     16  H   UNL     1      47.918  31.194  46.993  0.00  0.00    +0.000 HD
ATOM     17  H   UNL     1      47.427  31.464  45.307  0.00  0.00    +0.000 HD
ATOM     18  H   UNL     1      46.668  29.340  46.369  0.00  0.00    +0.000 HD
ATOM     19  H   UNL     1      45.270  30.253  45.762  0.00  0.00    +0.000 HD
ATOM     20  H   UNL     1      46.375  30.027  48.613  0.00  0.00    +0.000 HD
ATOM     21  H   UNL     1      44.835  29.454  47.927  0.00  0.00    +0.000 HD
ATOM     22  H   UNL     1      43.929  31.640  48.812  0.00  0.00    +0.000 HD
BRANCH  14  23
ATOM     23  N   UNL     1      44.627  33.978  47.840  0.00  0.00    +0.000 N 
ATOM     24  H   UNL     1      43.713  33.924  47.364  0.00  0.00    +0.000 HD
ATOM     25  H   UNL     1      45.021  34.780  48.409  0.00  0.00    +0.000 HD
ENDBRANCH  14  23
ENDBRANCH   5   9
BRANCH   3  27
ATOM     26  C   UNL     1      47.327  33.521  40.876  0.00  0.00    +0.000 A 
ATOM     27  C   UNL     1      47.772  33.845  42.140  0.00  0.00    +0.000 A 
ATOM     28  C   UNL     1      49.136  34.029  42.185  0.00  0.00    +0.000 A 
ATOM     29  H   UNL     1      49.654  34.288  43.079  0.00  0.00    +0.000 HD
ATOM     30  C   UNL     1      49.970  33.907  41.096  0.00  0.00    +0.000 A 
ATOM     31  H   UNL     1      51.045  34.060  41.164  0.00  0.00    +0.000 HD
ATOM     32  C   UNL     1      49.476  33.584  39.864  0.00  0.00    +0.000 A 
ATOM     33  C   UNL     1      48.137  33.389  39.755  0.00  0.00    +0.000 A 
BRANCH  26  35
ATOM     34  N   UNL     1      44.824  33.044  40.471  0.00  0.00    +0.000 NA
ATOM     35  C   UNL     1      45.936  33.267  40.653  0.00  0.00    +0.000 C 
ENDBRANCH  26  35
ENDBRANCH   3  27
TORSDOF 4
