
 OpenBabel03252502223D

 34 36  0  0  1  0  0  0  0  0999 V2000
   37.9880   29.4340   41.5490 N   0  0  0  0  0  0  0  0  0  0  0  0
   38.4490   29.5310   42.9340 C   0  0  0  0  0  0  0  0  0  0  0  0
   39.0650   28.1460   43.2290 C   0  0  0  0  0  0  0  0  0  0  0  0
   38.0330   27.0610   43.1530 C   0  0  0  0  0  0  0  0  0  0  0  0
   36.9610   27.3000   42.1620 C   0  0  0  0  0  0  0  0  0  0  0  0
   37.3430   28.2490   41.0770 C   0  0  1  0  0  0  0  0  0  0  0  0
   37.6060   29.6060   43.6390 H   0  0  0  0  0  0  0  0  0  0  0  0
   39.2380   30.2730   43.0560 H   0  0  0  0  0  0  0  0  0  0  0  0
   39.5490   28.1360   44.2210 H   0  0  0  0  0  0  0  0  0  0  0  0
   39.8410   27.9540   42.4390 H   0  0  0  0  0  0  0  0  0  0  0  0
   38.5550   26.1090   42.9260 H   0  0  0  0  0  0  0  0  0  0  0  0
   37.6040   26.9200   44.1720 H   0  0  0  0  0  0  0  0  0  0  0  0
   36.5440   26.3840   41.7040 H   0  0  0  0  0  0  0  0  0  0  0  0
   36.0980   27.7740   42.7160 H   0  0  0  0  0  0  0  0  0  0  0  0
   38.1720   27.7020   40.5130 H   0  0  0  0  0  0  0  0  0  0  0  0
   37.6610   32.6570   39.7090 C   0  0  0  0  0  0  0  0  0  0  0  0
   37.3950   31.6650   40.6530 C   0  0  0  0  0  0  0  0  0  0  0  0
   38.1690   30.5000   40.6400 C   0  0  0  0  0  0  0  0  0  0  0  0
   39.1310   30.4340   39.6900 N   0  0  0  0  0  0  0  0  0  0  0  0
   39.3820   31.3950   38.7820 C   0  0  0  0  0  0  0  0  0  0  0  0
   38.6360   32.5130   38.7980 N   0  0  0  0  0  0  0  0  0  0  0  0
   37.0420   33.5450   39.7480 H   0  0  0  0  0  0  0  0  0  0  0  0
   36.6320   31.7510   41.3830 H   0  0  0  0  0  0  0  0  0  0  0  0
   40.1880   31.1710   38.1000 H   0  0  0  0  0  0  0  0  0  0  0  0
   36.3770   28.0770   38.7390 C   0  0  0  0  0  0  0  0  0  0  0  0
   36.2860   28.4340   40.0820 C   0  0  0  0  0  0  0  0  0  0  0  0
   35.0310   28.9890   40.3660 C   0  0  0  0  0  0  0  0  0  0  0  0
   34.8650   29.3040   41.4090 H   0  0  0  0  0  0  0  0  0  0  0  0
   33.9990   29.1820   39.5040 C   0  0  0  0  0  0  0  0  0  0  0  0
   33.0730   29.6230   39.8450 H   0  0  0  0  0  0  0  0  0  0  0  0
   34.2000   28.7900   38.1970 C   0  0  0  0  0  3  0  0  0  0  0  0
   35.3790   28.2400   37.8080 C   0  0  0  0  0  3  0  0  0  0  0  0
   38.6040   27.0660   37.8880 N   0  0  0  0  0  0  0  0  0  0  0  0
   37.6040   27.5080   38.2650 C   0  0  0  0  0  0  0  0  0  0  0  0
  1  2  1  0  0  0  0
  2  8  1  0  0  0  0
  2  3  1  0  0  0  0
  2  7  1  0  0  0  0
  3  9  1  0  0  0  0
  4  3  1  0  0  0  0
  4 12  1  0  0  0  0
  5 14  1  0  0  0  0
  5  4  1  0  0  0  0
  6 15  1  6  0  0  0
  6  1  1  0  0  0  0
  6  5  1  0  0  0  0
 10  3  1  0  0  0  0
 11  4  1  0  0  0  0
 13  5  1  0  0  0  0
 16 22  1  0  0  0  0
 16 17  1  0  0  0  0
 17 23  1  0  0  0  0
 18 17  2  0  0  0  0
 18  1  1  0  0  0  0
 19 18  1  0  0  0  0
 20 21  1  0  0  0  0
 20 19  2  0  0  0  0
 21 16  2  0  0  0  0
 24 20  1  0  0  0  0
 25 26  1  0  0  0  0
 26 27  2  0  0  0  0
 26  6  1  0  0  0  0
 27 28  1  0  0  0  0
 29 30  1  0  0  0  0
 29 27  1  0  0  0  0
 31 29  2  0  0  0  0
 32 31  1  0  0  0  0
 32 25  2  0  0  0  0
 33 34  3  0  0  0  0
 34 25  1  0  0  0  0
M  END
>  <minimizedAffinity>
-4.95835543

$$$$

 OpenBabel03252502223D

 34 36  0  0  1  0  0  0  0  0999 V2000
   36.7570   28.2850   40.9180 N   0  0  0  0  0  0  0  0  0  0  0  0
   36.9810   26.9930   41.5660 C   0  0  0  0  0  0  0  0  0  0  0  0
   36.6070   27.2380   43.0440 C   0  0  0  0  0  0  0  0  0  0  0  0
   37.5170   28.2460   43.6790 C   0  0  0  0  0  0  0  0  0  0  0  0
   38.0070   29.2970   42.7610 C   0  0  0  0  0  0  0  0  0  0  0  0
   37.1440   29.5010   41.5620 C   0  0  1  0  0  0  0  0  0  0  0  0
   38.0510   26.7350   41.5990 H   0  0  0  0  0  0  0  0  0  0  0  0
   36.3160   26.2180   41.1840 H   0  0  0  0  0  0  0  0  0  0  0  0
   36.6330   26.2950   43.6160 H   0  0  0  0  0  0  0  0  0  0  0  0
   35.5600   27.6470   43.0570 H   0  0  0  0  0  0  0  0  0  0  0  0
   36.9750   28.7070   44.5300 H   0  0  0  0  0  0  0  0  0  0  0  0
   38.3700   27.6980   44.1420 H   0  0  0  0  0  0  0  0  0  0  0  0
   38.1920   30.2780   43.2380 H   0  0  0  0  0  0  0  0  0  0  0  0
   39.0150   28.9590   42.3780 H   0  0  0  0  0  0  0  0  0  0  0  0
   36.1640   29.8970   41.9940 H   0  0  0  0  0  0  0  0  0  0  0  0
   34.3660   28.9310   38.1350 C   0  0  0  0  0  0  0  0  0  0  0  0
   34.8690   28.8930   39.4350 C   0  0  0  0  0  0  0  0  0  0  0  0
   36.1490   28.3710   39.6450 C   0  0  0  0  0  0  0  0  0  0  0  0
   36.8040   27.9360   38.5430 N   0  0  0  0  0  0  0  0  0  0  0  0
   36.3120   27.9760   37.2910 C   0  0  0  0  0  0  0  0  0  0  0  0
   35.0820   28.4790   37.0930 N   0  0  0  0  0  0  0  0  0  0  0  0
   33.3720   29.3420   38.0090 H   0  0  0  0  0  0  0  0  0  0  0  0
   34.3270   29.2420   40.2760 H   0  0  0  0  0  0  0  0  0  0  0  0
   36.9750   27.5860   36.5340 H   0  0  0  0  0  0  0  0  0  0  0  0
   38.8140   30.5590   39.9730 C   0  0  0  0  0  0  0  0  0  0  0  0
   37.6200   30.5770   40.6910 C   0  0  0  0  0  0  0  0  0  0  0  0
   36.9170   31.7660   40.4590 C   0  0  0  0  0  0  0  0  0  0  0  0
   35.9560   31.8720   40.9860 H   0  0  0  0  0  0  0  0  0  0  0  0
   37.2850   32.8000   39.6590 C   0  0  0  0  0  0  0  0  0  0  0  0
   36.6520   33.6710   39.5610 H   0  0  0  0  0  0  0  0  0  0  0  0
   38.4880   32.6750   38.9950 C   0  0  0  0  0  3  0  0  0  0  0  0
   39.2530   31.5640   39.1460 C   0  0  0  0  0  3  0  0  0  0  0  0
   40.3820   28.5130   40.2180 N   0  0  0  0  0  0  0  0  0  0  0  0
   39.6730   29.4200   40.1060 C   0  0  0  0  0  0  0  0  0  0  0  0
  1  6  1  0  0  0  0
  1  2  1  0  0  0  0
  2  7  1  0  0  0  0
  2  3  1  0  0  0  0
  3 10  1  0  0  0  0
  3  9  1  0  0  0  0
  3  4  1  0  0  0  0
  4 12  1  0  0  0  0
  4 11  1  0  0  0  0
  5 13  1  0  0  0  0
  5  4  1  0  0  0  0
  6 15  1  1  0  0  0
  6  5  1  0  0  0  0
  8  2  1  0  0  0  0
 14  5  1  0  0  0  0
 16 17  1  0  0  0  0
 17 18  2  0  0  0  0
 17 23  1  0  0  0  0
 18  1  1  0  0  0  0
 19 18  1  0  0  0  0
 20 19  2  0  0  0  0
 21 20  1  0  0  0  0
 21 16  2  0  0  0  0
 22 16  1  0  0  0  0
 24 20  1  0  0  0  0
 25 34  1  0  0  0  0
 25 26  1  0  0  0  0
 26  6  1  0  0  0  0
 27 26  2  0  0  0  0
 27 28  1  0  0  0  0
 29 27  1  0  0  0  0
 30 29  1  0  0  0  0
 31 32  1  0  0  0  0
 31 29  2  0  0  0  0
 32 25  2  0  0  0  0
 34 33  3  0  0  0  0
M  END
>  <minimizedAffinity>
-4.94377089

$$$$

 OpenBabel03252502223D

 34 36  0  0  1  0  0  0  0  0999 V2000
   37.6470   30.7650   40.4490 N   0  0  0  0  0  0  0  0  0  0  0  0
   37.7630   32.2190   40.5590 C   0  0  0  0  0  0  0  0  0  0  0  0
   39.2800   32.4890   40.4640 C   0  0  0  0  0  0  0  0  0  0  0  0
   40.0200   31.8700   41.6110 C   0  0  0  0  0  0  0  0  0  0  0  0
   39.4310   30.6110   42.1160 C   0  0  0  0  0  0  0  0  0  0  0  0
   38.5710   29.9060   41.1220 C   0  0  1  0  0  0  0  0  0  0  0  0
   37.4900   32.5730   41.5660 H   0  0  0  0  0  0  0  0  0  0  0  0
   37.2840   32.7360   39.7280 H   0  0  0  0  0  0  0  0  0  0  0  0
   39.4830   33.5730   40.4260 H   0  0  0  0  0  0  0  0  0  0  0  0
   39.6410   32.0140   39.5110 H   0  0  0  0  0  0  0  0  0  0  0  0
   41.0670   31.6970   41.2890 H   0  0  0  0  0  0  0  0  0  0  0  0
   40.0890   32.6280   42.4260 H   0  0  0  0  0  0  0  0  0  0  0  0
   40.1630   29.8910   42.5280 H   0  0  0  0  0  0  0  0  0  0  0  0
   38.7610   30.8830   42.9850 H   0  0  0  0  0  0  0  0  0  0  0  0
   39.2990   29.6010   40.2970 H   0  0  0  0  0  0  0  0  0  0  0  0
   35.6830   29.3140   37.6350 C   0  0  0  0  0  0  0  0  0  0  0  0
   36.7520   29.9080   38.3040 C   0  0  0  0  0  0  0  0  0  0  0  0
   36.6280   30.1680   39.6730 C   0  0  0  0  0  0  0  0  0  0  0  0
   35.4530   29.8130   40.2440 N   0  0  0  0  0  0  0  0  0  0  0  0
   34.4250   29.2390   39.5910 C   0  0  0  0  0  0  0  0  0  0  0  0
   34.5480   28.9900   38.2760 N   0  0  0  0  0  0  0  0  0  0  0  0
   35.8130   29.1270   36.5770 H   0  0  0  0  0  0  0  0  0  0  0  0
   37.6590   30.1740   37.8250 H   0  0  0  0  0  0  0  0  0  0  0  0
   33.5650   29.0230   40.2070 H   0  0  0  0  0  0  0  0  0  0  0  0
   38.2160   27.3970   41.0200 C   0  0  0  0  0  0  0  0  0  0  0  0
   38.0370   28.6400   41.6240 C   0  0  0  0  0  0  0  0  0  0  0  0
   37.2810   28.5190   42.7970 C   0  0  0  0  0  0  0  0  0  0  0  0
   37.0860   29.4530   43.3470 H   0  0  0  0  0  0  0  0  0  0  0  0
   36.7630   27.3830   43.3330 C   0  0  0  0  0  0  0  0  0  0  0  0
   36.1920   27.4180   44.2500 H   0  0  0  0  0  0  0  0  0  0  0  0
   37.0030   26.2090   42.6500 C   0  0  0  0  0  3  0  0  0  0  0  0
   37.7240   26.2070   41.5000 C   0  0  0  0  0  3  0  0  0  0  0  0
   39.5360   27.2970   38.7950 N   0  0  0  0  0  0  0  0  0  0  0  0
   38.9540   27.3350   39.7930 C   0  0  0  0  0  0  0  0  0  0  0  0
  1  2  1  0  0  0  0
  1  6  1  0  0  0  0
  2  7  1  0  0  0  0
  3  2  1  0  0  0  0
  3  4  1  0  0  0  0
  4  5  1  0  0  0  0
  4 12  1  0  0  0  0
  5 13  1  0  0  0  0
  5 14  1  0  0  0  0
  6 15  1  6  0  0  0
  6 26  1  0  0  0  0
  6  5  1  0  0  0  0
  8  2  1  0  0  0  0
  9  3  1  0  0  0  0
 10  3  1  0  0  0  0
 11  4  1  0  0  0  0
 16 21  2  0  0  0  0
 16 17  1  0  0  0  0
 17 18  2  0  0  0  0
 18 19  1  0  0  0  0
 18  1  1  0  0  0  0
 20 24  1  0  0  0  0
 20 19  2  0  0  0  0
 21 20  1  0  0  0  0
 22 16  1  0  0  0  0
 23 17  1  0  0  0  0
 25 32  2  0  0  0  0
 25 26  1  0  0  0  0
 26 27  2  0  0  0  0
 27 29  1  0  0  0  0
 27 28  1  0  0  0  0
 29 30  1  0  0  0  0
 31 29  2  0  0  0  0
 32 31  1  0  0  0  0
 33 34  3  0  0  0  0
 34 25  1  0  0  0  0
M  END
>  <minimizedAffinity>
-4.80239153

$$$$

 OpenBabel03252502223D

 34 36  0  0  1  0  0  0  0  0999 V2000
   38.1970   29.9630   39.2780 N   0  0  0  0  0  0  0  0  0  0  0  0
   37.7870   30.7120   38.0900 C   0  0  0  0  0  0  0  0  0  0  0  0
   38.1270   32.1800   38.4280 C   0  0  0  0  0  0  0  0  0  0  0  0
   37.3240   32.6740   39.5940 C   0  0  0  0  0  0  0  0  0  0  0  0
   37.0070   31.6410   40.6030 C   0  0  0  0  0  0  0  0  0  0  0  0
   37.9370   30.4750   40.5880 C   0  0  1  0  0  0  0  0  0  0  0  0
   36.6920   30.7120   37.9660 H   0  0  0  0  0  0  0  0  0  0  0  0
   38.3650   30.4370   37.2080 H   0  0  0  0  0  0  0  0  0  0  0  0
   37.9610   32.8320   37.5530 H   0  0  0  0  0  0  0  0  0  0  0  0
   39.2160   32.2110   38.7080 H   0  0  0  0  0  0  0  0  0  0  0  0
   37.8840   33.5070   40.0650 H   0  0  0  0  0  0  0  0  0  0  0  0
   36.3910   33.1390   39.1980 H   0  0  0  0  0  0  0  0  0  0  0  0
   36.9260   32.0180   41.6400 H   0  0  0  0  0  0  0  0  0  0  0  0
   35.9810   31.2370   40.3540 H   0  0  0  0  0  0  0  0  0  0  0  0
   38.9410   30.9210   40.9020 H   0  0  0  0  0  0  0  0  0  0  0  0
   38.9980   26.3830   38.6340 C   0  0  0  0  0  0  0  0  0  0  0  0
   38.2460   27.5550   38.7030 C   0  0  0  0  0  0  0  0  0  0  0  0
   38.8620   28.7220   39.1680 C   0  0  0  0  0  0  0  0  0  0  0  0
   40.1640   28.6100   39.5210 N   0  0  0  0  0  0  0  0  0  0  0  0
   40.8830   27.4740   39.4510 C   0  0  0  0  0  0  0  0  0  0  0  0
   40.2880   26.3550   39.0030 N   0  0  0  0  0  0  0  0  0  0  0  0
   38.4890   25.4990   38.2700 H   0  0  0  0  0  0  0  0  0  0  0  0
   37.2260   27.6070   38.4190 H   0  0  0  0  0  0  0  0  0  0  0  0
   41.9090   27.5710   39.7740 H   0  0  0  0  0  0  0  0  0  0  0  0
   36.4760   28.7170   41.6860 C   0  0  0  0  0  0  0  0  0  0  0  0
   37.6350   29.4880   41.6240 C   0  0  0  0  0  0  0  0  0  0  0  0
   38.4920   29.1830   42.6900 C   0  0  0  0  0  0  0  0  0  0  0  0
   39.4390   29.7450   42.7270 H   0  0  0  0  0  0  0  0  0  0  0  0
   38.2890   28.2750   43.6800 C   0  0  0  0  0  0  0  0  0  0  0  0
   39.0310   28.1290   44.4520 H   0  0  0  0  0  0  0  0  0  0  0  0
   37.1060   27.5680   43.6410 C   0  0  0  0  0  3  0  0  0  0  0  0
   36.1990   27.7820   42.6530 C   0  0  0  0  0  3  0  0  0  0  0  0
   34.6790   29.0770   39.8560 N   0  0  0  0  0  0  0  0  0  0  0  0
   35.4740   28.9110   40.6790 C   0  0  0  0  0  0  0  0  0  0  0  0
  1  6  1  0  0  0  0
  2  3  1  0  0  0  0
  2  1  1  0  0  0  0
  3 10  1  0  0  0  0
  3  4  1  0  0  0  0
  4 11  1  0  0  0  0
  4  5  1  0  0  0  0
  5 13  1  0  0  0  0
  6  5  1  0  0  0  0
  6 15  1  1  0  0  0
  6 26  1  0  0  0  0
  7  2  1  0  0  0  0
  8  2  1  0  0  0  0
  9  3  1  0  0  0  0
 12  4  1  0  0  0  0
 14  5  1  0  0  0  0
 16 17  2  0  0  0  0
 16 21  1  0  0  0  0
 17 18  1  0  0  0  0
 18  1  1  0  0  0  0
 18 19  2  0  0  0  0
 20 19  1  0  0  0  0
 20 24  1  0  0  0  0
 21 20  2  0  0  0  0
 22 16  1  0  0  0  0
 23 17  1  0  0  0  0
 25 32  1  0  0  0  0
 26 25  2  0  0  0  0
 26 27  1  0  0  0  0
 27 28  1  0  0  0  0
 27 29  2  0  0  0  0
 29 30  1  0  0  0  0
 31 29  1  0  0  0  0
 32 31  2  0  0  0  0
 33 34  3  0  0  0  0
 34 25  1  0  0  0  0
M  END
>  <minimizedAffinity>
-4.78189945

$$$$

 OpenBabel03252502223D

 34 36  0  0  1  0  0  0  0  0999 V2000
   37.9050   28.0400   40.9440 N   0  0  0  0  0  0  0  0  0  0  0  0
   38.2150   26.7700   41.5990 C   0  0  0  0  0  0  0  0  0  0  0  0
   37.0480   26.5560   42.5880 C   0  0  0  0  0  0  0  0  0  0  0  0
   37.0140   27.6290   43.6350 C   0  0  0  0  0  0  0  0  0  0  0  0
   37.4800   28.9540   43.1720 C   0  0  0  0  0  0  0  0  0  0  0  0
   37.3930   29.1430   41.6960 C   0  0  1  0  0  0  0  0  0  0  0  0
   39.1030   26.8510   42.2460 H   0  0  0  0  0  0  0  0  0  0  0  0
   38.2100   25.9320   40.9010 H   0  0  0  0  0  0  0  0  0  0  0  0
   37.1170   25.5640   43.0670 H   0  0  0  0  0  0  0  0  0  0  0  0
   36.0960   26.6110   41.9930 H   0  0  0  0  0  0  0  0  0  0  0  0
   35.9750   27.7020   44.0150 H   0  0  0  0  0  0  0  0  0  0  0  0
   37.6170   27.2810   44.5050 H   0  0  0  0  0  0  0  0  0  0  0  0
   36.9940   29.8140   43.6710 H   0  0  0  0  0  0  0  0  0  0  0  0
   38.5740   29.0350   43.4440 H   0  0  0  0  0  0  0  0  0  0  0  0
   36.2720   29.1140   41.4810 H   0  0  0  0  0  0  0  0  0  0  0  0
   39.4300   28.4820   37.5730 C   0  0  0  0  0  0  0  0  0  0  0  0
   39.3560   28.3140   38.9560 C   0  0  0  0  0  0  0  0  0  0  0  0
   38.0960   28.2130   39.5550 C   0  0  0  0  0  0  0  0  0  0  0  0
   37.0320   28.2910   38.7220 N   0  0  0  0  0  0  0  0  0  0  0  0
   37.1110   28.4540   37.3880 C   0  0  0  0  0  0  0  0  0  0  0  0
   38.3240   28.5490   36.8160 N   0  0  0  0  0  0  0  0  0  0  0  0
   40.4210   28.5570   37.1440 H   0  0  0  0  0  0  0  0  0  0  0  0
   40.2120   28.2580   39.5790 H   0  0  0  0  0  0  0  0  0  0  0  0
   36.1580   28.4940   36.8820 H   0  0  0  0  0  0  0  0  0  0  0  0
   39.0910   31.0080   41.4270 C   0  0  0  0  0  0  0  0  0  0  0  0
   37.8140   30.4770   41.2640 C   0  0  0  0  0  0  0  0  0  0  0  0
   36.9740   31.3900   40.6120 C   0  0  0  0  0  0  0  0  0  0  0  0
   35.9390   31.0570   40.4370 H   0  0  0  0  0  0  0  0  0  0  0  0
   37.2920   32.6350   40.1720 C   0  0  0  0  0  0  0  0  0  0  0  0
   36.5520   33.2490   39.6790 H   0  0  0  0  0  0  0  0  0  0  0  0
   38.5870   33.0580   40.3870 C   0  0  0  0  0  3  0  0  0  0  0  0
   39.4880   32.2550   41.0100 C   0  0  0  0  0  3  0  0  0  0  0  0
   40.8880   29.5890   42.6380 N   0  0  0  0  0  0  0  0  0  0  0  0
   40.0800   30.2130   42.0950 C   0  0  0  0  0  0  0  0  0  0  0  0
  1  2  1  0  0  0  0
  1  6  1  0  0  0  0
  2  7  1  0  0  0  0
  2  3  1  0  0  0  0
  3  9  1  0  0  0  0
  3  4  1  0  0  0  0
  4 11  1  0  0  0  0
  4 12  1  0  0  0  0
  5 14  1  0  0  0  0
  5  4  1  0  0  0  0
  5 13  1  0  0  0  0
  6 15  1  6  0  0  0
  6  5  1  0  0  0  0
  8  2  1  0  0  0  0
 10  3  1  0  0  0  0
 16 17  1  0  0  0  0
 17 18  2  0  0  0  0
 17 23  1  0  0  0  0
 18  1  1  0  0  0  0
 19 18  1  0  0  0  0
 20 19  2  0  0  0  0
 21 20  1  0  0  0  0
 21 16  2  0  0  0  0
 22 16  1  0  0  0  0
 24 20  1  0  0  0  0
 25 34  1  0  0  0  0
 26 25  1  0  0  0  0
 26  6  1  0  0  0  0
 27 26  2  0  0  0  0
 28 27  1  0  0  0  0
 29 31  2  0  0  0  0
 29 27  1  0  0  0  0
 30 29  1  0  0  0  0
 31 32  1  0  0  0  0
 32 25  2  0  0  0  0
 34 33  3  0  0  0  0
M  END
>  <minimizedAffinity>
-4.77491999

$$$$

 OpenBabel03252502223D

 34 36  0  0  1  0  0  0  0  0999 V2000
   38.0410   29.7710   39.0150 N   0  0  0  0  0  0  0  0  0  0  0  0
   37.5540   30.3970   37.7850 C   0  0  0  0  0  0  0  0  0  0  0  0
   37.8360   31.9010   37.9850 C   0  0  0  0  0  0  0  0  0  0  0  0
   37.0540   32.4580   39.1360 C   0  0  0  0  0  0  0  0  0  0  0  0
   36.8220   31.5020   40.2410 C   0  0  0  0  0  0  0  0  0  0  0  0
   37.8050   30.3820   40.2860 C   0  0  1  0  0  0  0  0  0  0  0  0
   36.4570   30.3380   37.7060 H   0  0  0  0  0  0  0  0  0  0  0  0
   38.1120   30.0720   36.9070 H   0  0  0  0  0  0  0  0  0  0  0  0
   37.6080   32.4680   37.0660 H   0  0  0  0  0  0  0  0  0  0  0  0
   38.9320   32.0040   38.2170 H   0  0  0  0  0  0  0  0  0  0  0  0
   37.5900   33.3520   39.5130 H   0  0  0  0  0  0  0  0  0  0  0  0
   36.0860   32.8460   38.7410 H   0  0  0  0  0  0  0  0  0  0  0  0
   36.7610   31.9630   41.2450 H   0  0  0  0  0  0  0  0  0  0  0  0
   35.8080   31.0340   40.0670 H   0  0  0  0  0  0  0  0  0  0  0  0
   38.7970   30.8960   40.5220 H   0  0  0  0  0  0  0  0  0  0  0  0
   40.7090   27.1880   39.3080 C   0  0  0  0  0  0  0  0  0  0  0  0
   40.0960   28.4390   39.3780 C   0  0  0  0  0  0  0  0  0  0  0  0
   38.7590   28.5560   38.9830 C   0  0  0  0  0  0  0  0  0  0  0  0
   38.1620   27.4180   38.5560 N   0  0  0  0  0  0  0  0  0  0  0  0
   38.7610   26.2140   38.4900 C   0  0  0  0  0  0  0  0  0  0  0  0
   40.0450   26.1060   38.8710 N   0  0  0  0  0  0  0  0  0  0  0  0
   41.7440   27.1350   39.6210 H   0  0  0  0  0  0  0  0  0  0  0  0
   40.5950   29.3100   39.7180 H   0  0  0  0  0  0  0  0  0  0  0  0
   38.1300   25.4180   38.1240 H   0  0  0  0  0  0  0  0  0  0  0  0
   38.3740   29.4180   42.5620 C   0  0  0  0  0  0  0  0  0  0  0  0
   37.5870   29.4750   41.4130 C   0  0  0  0  0  0  0  0  0  0  0  0
   36.5370   28.5490   41.4830 C   0  0  0  0  0  0  0  0  0  0  0  0
   35.8580   28.5200   40.6160 H   0  0  0  0  0  0  0  0  0  0  0  0
   36.2630   27.6860   42.4950 C   0  0  0  0  0  0  0  0  0  0  0  0
   35.4170   27.0160   42.4320 H   0  0  0  0  0  0  0  0  0  0  0  0
   37.1090   27.7170   43.5850 C   0  0  0  0  0  3  0  0  0  0  0  0
   38.1600   28.5750   43.6250 C   0  0  0  0  0  3  0  0  0  0  0  0
   40.4180   31.0000   42.7140 N   0  0  0  0  0  0  0  0  0  0  0  0
   39.5090   30.2880   42.6540 C   0  0  0  0  0  0  0  0  0  0  0  0
  1  6  1  0  0  0  0
  2  3  1  0  0  0  0
  2  1  1  0  0  0  0
  3 10  1  0  0  0  0
  3  4  1  0  0  0  0
  4 11  1  0  0  0  0
  4  5  1  0  0  0  0
  5  6  1  0  0  0  0
  5 13  1  0  0  0  0
  6 15  1  1  0  0  0
  6 26  1  0  0  0  0
  7  2  1  0  0  0  0
  8  2  1  0  0  0  0
  9  3  1  0  0  0  0
 12  4  1  0  0  0  0
 14  5  1  0  0  0  0
 16 17  1  0  0  0  0
 16 22  1  0  0  0  0
 17 23  1  0  0  0  0
 18  1  1  0  0  0  0
 18 17  2  0  0  0  0
 19 18  1  0  0  0  0
 20 19  2  0  0  0  0
 20 21  1  0  0  0  0
 21 16  2  0  0  0  0
 24 20  1  0  0  0  0
 25 34  1  0  0  0  0
 25 32  1  0  0  0  0
 26 27  1  0  0  0  0
 26 25  2  0  0  0  0
 27 29  2  0  0  0  0
 28 27  1  0  0  0  0
 29 31  1  0  0  0  0
 30 29  1  0  0  0  0
 31 32  2  0  0  0  0
 34 33  3  0  0  0  0
M  END
>  <minimizedAffinity>
-4.77081203

$$$$

 OpenBabel03252502223D

 34 36  0  0  1  0  0  0  0  0999 V2000
   36.9880   28.5340   38.9120 N   0  0  0  0  0  0  0  0  0  0  0  0
   37.0190   28.2750   37.4720 C   0  0  0  0  0  0  0  0  0  0  0  0
   35.6960   27.5320   37.1890 C   0  0  0  0  0  0  0  0  0  0  0  0
   35.6440   26.2150   37.9020 C   0  0  0  0  0  0  0  0  0  0  0  0
   36.3480   26.1900   39.2020 C   0  0  0  0  0  0  0  0  0  0  0  0
   36.5180   27.5360   39.8220 C   0  0  1  0  0  0  0  0  0  0  0  0
   37.7990   27.5440   37.2070 H   0  0  0  0  0  0  0  0  0  0  0  0
   37.0110   29.1940   36.8870 H   0  0  0  0  0  0  0  0  0  0  0  0
   35.5560   27.3790   36.1050 H   0  0  0  0  0  0  0  0  0  0  0  0
   34.8630   28.1800   37.5790 H   0  0  0  0  0  0  0  0  0  0  0  0
   34.5770   25.9440   38.0420 H   0  0  0  0  0  0  0  0  0  0  0  0
   36.0520   25.4350   37.2170 H   0  0  0  0  0  0  0  0  0  0  0  0
   35.9100   25.5050   39.9520 H   0  0  0  0  0  0  0  0  0  0  0  0
   37.3880   25.7920   39.0090 H   0  0  0  0  0  0  0  0  0  0  0  0
   35.4500   27.8690   40.0520 H   0  0  0  0  0  0  0  0  0  0  0  0
   37.0700   31.9020   40.5010 C   0  0  0  0  0  0  0  0  0  0  0  0
   36.5420   30.7110   40.0040 C   0  0  0  0  0  0  0  0  0  0  0  0
   37.4130   29.7720   39.4430 C   0  0  0  0  0  0  0  0  0  0  0  0
   38.7240   30.1080   39.4290 N   0  0  0  0  0  0  0  0  0  0  0  0
   39.2270   31.2610   39.9110 C   0  0  0  0  0  0  0  0  0  0  0  0
   38.3860   32.1600   40.4500 N   0  0  0  0  0  0  0  0  0  0  0  0
   36.3660   32.6060   40.9280 H   0  0  0  0  0  0  0  0  0  0  0  0
   35.5080   30.4800   40.0310 H   0  0  0  0  0  0  0  0  0  0  0  0
   40.2970   31.3590   39.8160 H   0  0  0  0  0  0  0  0  0  0  0  0
   38.4920   27.0930   41.3500 C   0  0  0  0  0  0  0  0  0  0  0  0
   37.1740   27.4860   41.1280 C   0  0  0  0  0  0  0  0  0  0  0  0
   36.5530   27.8450   42.3320 C   0  0  0  0  0  0  0  0  0  0  0  0
   35.5030   28.1710   42.2570 H   0  0  0  0  0  0  0  0  0  0  0  0
   37.0970   27.8370   43.5770 C   0  0  0  0  0  0  0  0  0  0  0  0
   36.5110   28.1380   44.4340 H   0  0  0  0  0  0  0  0  0  0  0  0
   38.4110   27.4290   43.6780 C   0  0  0  0  0  3  0  0  0  0  0  0
   39.1110   27.0580   42.5760 C   0  0  0  0  0  3  0  0  0  0  0  0
   39.8940   26.3250   39.3120 N   0  0  0  0  0  0  0  0  0  0  0  0
   39.2770   26.6730   40.2260 C   0  0  0  0  0  0  0  0  0  0  0  0
  1 18  1  0  0  0  0
  1  6  1  0  0  0  0
  2  1  1  0  0  0  0
  3  2  1  0  0  0  0
  3 10  1  0  0  0  0
  3  4  1  0  0  0  0
  4 11  1  0  0  0  0
  4  5  1  0  0  0  0
  5  6  1  0  0  0  0
  5 13  1  0  0  0  0
  6 15  1  1  0  0  0
  6 26  1  0  0  0  0
  7  2  1  0  0  0  0
  8  2  1  0  0  0  0
  9  3  1  0  0  0  0
 12  4  1  0  0  0  0
 14  5  1  0  0  0  0
 16 22  1  0  0  0  0
 17 23  1  0  0  0  0
 17 16  2  0  0  0  0
 18 17  1  0  0  0  0
 19 18  2  0  0  0  0
 19 20  1  0  0  0  0
 20 21  2  0  0  0  0
 21 16  1  0  0  0  0
 24 20  1  0  0  0  0
 25 32  1  0  0  0  0
 26 25  2  0  0  0  0
 26 27  1  0  0  0  0
 27 29  2  0  0  0  0
 28 27  1  0  0  0  0
 29 31  1  0  0  0  0
 29 30  1  0  0  0  0
 32 31  2  0  0  0  0
 33 34  3  0  0  0  0
 34 25  1  0  0  0  0
M  END
>  <minimizedAffinity>
-4.72176933

$$$$

 OpenBabel03252502223D

 34 36  0  0  1  0  0  0  0  0999 V2000
   38.5850   28.3280   41.1130 N   0  0  0  0  0  0  0  0  0  0  0  0
   39.1660   28.8850   42.3350 C   0  0  0  0  0  0  0  0  0  0  0  0
   38.9320   27.7930   43.4010 C   0  0  0  0  0  0  0  0  0  0  0  0
   37.4700   27.5630   43.6390 C   0  0  0  0  0  0  0  0  0  0  0  0
   36.6150   27.7570   42.4470 C   0  0  0  0  0  0  0  0  0  0  0  0
   37.3440   27.6200   41.1530 C   0  0  1  0  0  0  0  0  0  0  0  0
   38.5870   29.7480   42.7030 H   0  0  0  0  0  0  0  0  0  0  0  0
   40.2420   29.0360   42.2490 H   0  0  0  0  0  0  0  0  0  0  0  0
   39.4310   28.0590   44.3490 H   0  0  0  0  0  0  0  0  0  0  0  0
   39.3820   26.8420   43.0040 H   0  0  0  0  0  0  0  0  0  0  0  0
   37.3460   26.5340   44.0320 H   0  0  0  0  0  0  0  0  0  0  0  0
   37.1460   28.2320   44.4700 H   0  0  0  0  0  0  0  0  0  0  0  0
   35.7130   27.1190   42.4180 H   0  0  0  0  0  0  0  0  0  0  0  0
   36.2270   28.8180   42.4870 H   0  0  0  0  0  0  0  0  0  0  0  0
   37.6620   26.5230   41.1330 H   0  0  0  0  0  0  0  0  0  0  0  0
   40.0530   29.7160   37.9830 C   0  0  0  0  0  0  0  0  0  0  0  0
   39.3970   29.6930   39.2130 C   0  0  0  0  0  0  0  0  0  0  0  0
   39.2320   28.4670   39.8650 C   0  0  0  0  0  0  0  0  0  0  0  0
   39.7340   27.3820   39.2300 N   0  0  0  0  0  0  0  0  0  0  0  0
   40.3670   27.4110   38.0420 C   0  0  0  0  0  0  0  0  0  0  0  0
   40.5240   28.5920   37.4200 N   0  0  0  0  0  0  0  0  0  0  0  0
   40.1630   30.6820   37.5070 H   0  0  0  0  0  0  0  0  0  0  0  0
   39.0150   30.5640   39.6820 H   0  0  0  0  0  0  0  0  0  0  0  0
   40.7020   26.4490   37.6870 H   0  0  0  0  0  0  0  0  0  0  0  0
   35.8140   28.9400   39.6210 C   0  0  0  0  0  0  0  0  0  0  0  0
   36.4710   27.7680   39.9880 C   0  0  0  0  0  0  0  0  0  0  0  0
   36.1980   26.7390   39.0770 C   0  0  0  0  0  0  0  0  0  0  0  0
   36.6760   25.7680   39.2850 H   0  0  0  0  0  0  0  0  0  0  0  0
   35.4130   26.8020   37.9710 C   0  0  0  0  0  0  0  0  0  0  0  0
   35.2790   25.9330   37.3420 H   0  0  0  0  0  0  0  0  0  0  0  0
   34.8110   28.0140   37.7040 C   0  0  0  0  0  3  0  0  0  0  0  0
   35.0050   29.0820   38.5190 C   0  0  0  0  0  3  0  0  0  0  0  0
   36.0770   31.0230   41.1380 N   0  0  0  0  0  0  0  0  0  0  0  0
   35.9670   30.0970   40.4540 C   0  0  0  0  0  0  0  0  0  0  0  0
  1  6  1  0  0  0  0
  1  2  1  0  0  0  0
  2  7  1  0  0  0  0
  2  3  1  0  0  0  0
  3  4  1  0  0  0  0
  3  9  1  0  0  0  0
  4 11  1  0  0  0  0
  4 12  1  0  0  0  0
  5 14  1  0  0  0  0
  5  4  1  0  0  0  0
  6 15  1  6  0  0  0
  6  5  1  0  0  0  0
  8  2  1  0  0  0  0
 10  3  1  0  0  0  0
 13  5  1  0  0  0  0
 16 17  1  0  0  0  0
 17 23  1  0  0  0  0
 17 18  2  0  0  0  0
 18  1  1  0  0  0  0
 19 18  1  0  0  0  0
 20 19  2  0  0  0  0
 21 16  2  0  0  0  0
 21 20  1  0  0  0  0
 22 16  1  0  0  0  0
 24 20  1  0  0  0  0
 25 26  1  0  0  0  0
 25 34  1  0  0  0  0
 26  6  1  0  0  0  0
 27 28  1  0  0  0  0
 27 26  2  0  0  0  0
 29 27  1  0  0  0  0
 30 29  1  0  0  0  0
 31 29  2  0  0  0  0
 31 32  1  0  0  0  0
 32 25  2  0  0  0  0
 34 33  3  0  0  0  0
M  END
>  <minimizedAffinity>
-4.66295147

$$$$

 OpenBabel03252502223D

 34 36  0  0  1  0  0  0  0  0999 V2000
   39.1100   30.6370   40.3880 N   0  0  0  0  0  0  0  0  0  0  0  0
   39.2450   31.4940   39.2100 C   0  0  0  0  0  0  0  0  0  0  0  0
   38.4900   32.7860   39.5880 C   0  0  0  0  0  0  0  0  0  0  0  0
   37.0310   32.5230   39.8120 C   0  0  0  0  0  0  0  0  0  0  0  0
   36.7260   31.1880   40.3710 C   0  0  0  0  0  0  0  0  0  0  0  0
   37.8700   30.5610   41.0950 C   0  0  1  0  0  0  0  0  0  0  0  0
   38.6820   31.0960   38.3510 H   0  0  0  0  0  0  0  0  0  0  0  0
   40.2820   31.7650   39.0130 H   0  0  0  0  0  0  0  0  0  0  0  0
   38.6180   33.5570   38.8090 H   0  0  0  0  0  0  0  0  0  0  0  0
   38.9350   33.1590   40.5510 H   0  0  0  0  0  0  0  0  0  0  0  0
   36.6400   33.3150   40.4830 H   0  0  0  0  0  0  0  0  0  0  0  0
   36.5010   32.6750   38.8440 H   0  0  0  0  0  0  0  0  0  0  0  0
   35.8310   31.1530   41.0210 H   0  0  0  0  0  0  0  0  0  0  0  0
   36.4860   30.5100   39.5000 H   0  0  0  0  0  0  0  0  0  0  0  0
   38.0340   31.2460   41.9940 H   0  0  0  0  0  0  0  0  0  0  0  0
   41.8010   28.0840   40.7360 C   0  0  0  0  0  0  0  0  0  0  0  0
   40.7260   28.7730   40.1750 C   0  0  0  0  0  0  0  0  0  0  0  0
   40.1950   29.8690   40.8640 C   0  0  0  0  0  0  0  0  0  0  0  0
   40.7840   30.1730   42.0440 N   0  0  0  0  0  0  0  0  0  0  0  0
   41.8220   29.5030   42.5800 C   0  0  0  0  0  0  0  0  0  0  0  0
   42.3290   28.4520   41.9140 N   0  0  0  0  0  0  0  0  0  0  0  0
   42.1850   27.2420   40.1750 H   0  0  0  0  0  0  0  0  0  0  0  0
   40.2880   28.5060   39.2470 H   0  0  0  0  0  0  0  0  0  0  0  0
   42.1630   29.8870   43.5290 H   0  0  0  0  0  0  0  0  0  0  0  0
   37.1950   28.1200   40.9600 C   0  0  0  0  0  0  0  0  0  0  0  0
   37.5330   29.2630   41.6810 C   0  0  0  0  0  0  0  0  0  0  0  0
   37.5220   29.0040   43.0580 C   0  0  0  0  0  0  0  0  0  0  0  0
   37.7780   29.8520   43.7130 H   0  0  0  0  0  0  0  0  0  0  0  0
   37.2340   27.8290   43.6750 C   0  0  0  0  0  0  0  0  0  0  0  0
   37.2600   27.7540   44.7530 H   0  0  0  0  0  0  0  0  0  0  0  0
   36.9130   26.7620   42.8620 C   0  0  0  0  0  3  0  0  0  0  0  0
   36.8910   26.8990   41.5110 C   0  0  0  0  0  3  0  0  0  0  0  0
   37.0850   28.2590   38.3770 N   0  0  0  0  0  0  0  0  0  0  0  0
   37.1380   28.2080   39.5310 C   0  0  0  0  0  0  0  0  0  0  0  0
  1 18  1  0  0  0  0
  1  6  1  0  0  0  0
  2  3  1  0  0  0  0
  2  1  1  0  0  0  0
  3  4  1  0  0  0  0
  3 10  1  0  0  0  0
  4  5  1  0  0  0  0
  4 11  1  0  0  0  0
  5 13  1  0  0  0  0
  5  6  1  0  0  0  0
  6 26  1  0  0  0  0
  6 15  1  1  0  0  0
  7  2  1  0  0  0  0
  8  2  1  0  0  0  0
  9  3  1  0  0  0  0
 12  4  1  0  0  0  0
 14  5  1  0  0  0  0
 16 21  1  0  0  0  0
 17 16  2  0  0  0  0
 17 18  1  0  0  0  0
 18 19  2  0  0  0  0
 19 20  1  0  0  0  0
 20 24  1  0  0  0  0
 21 20  2  0  0  0  0
 22 16  1  0  0  0  0
 23 17  1  0  0  0  0
 25 32  2  0  0  0  0
 25 26  1  0  0  0  0
 26 27  2  0  0  0  0
 27 29  1  0  0  0  0
 27 28  1  0  0  0  0
 29 30  1  0  0  0  0
 31 29  2  0  0  0  0
 32 31  1  0  0  0  0
 33 34  3  0  0  0  0
 34 25  1  0  0  0  0
M  END
>  <minimizedAffinity>
-4.66026592

$$$$
