
 OpenBabel03252507193D

 45 48  0  0  1  0  0  0  0  0999 V2000
   46.7890   33.1630   43.5060 C   0  0  0  0  0  0  0  0  0  0  0  0
   47.8750   32.7980   44.0260 O   0  0  0  0  0  0  0  0  0  0  0  0
   46.3510   32.7560   42.2090 N   0  0  0  0  0  0  0  0  0  0  0  0
   45.0470   32.2920   41.7430 C   0  0  0  0  0  0  0  0  0  0  0  0
   44.6250   33.1260   40.5140 C   0  0  0  0  0  0  0  0  0  0  0  0
   45.5890   32.8490   39.3820 C   0  0  0  0  0  0  0  0  0  0  0  0
   46.8090   32.1480   39.9100 C   0  0  0  0  0  0  0  0  0  0  0  0
   47.3320   32.8030   41.1590 C   0  0  2  0  0  0  0  0  0  0  0  0
   44.2760   32.5840   42.5120 H   0  0  0  0  0  0  0  0  0  0  0  0
   45.0190   31.2360   41.4860 H   0  0  0  0  0  0  0  0  0  0  0  0
   43.5810   32.9350   40.2780 H   0  0  0  0  0  0  0  0  0  0  0  0
   44.8350   34.1770   40.8360 H   0  0  0  0  0  0  0  0  0  0  0  0
   45.8430   33.7520   38.7930 H   0  0  0  0  0  0  0  0  0  0  0  0
   45.0880   32.1420   38.6790 H   0  0  0  0  0  0  0  0  0  0  0  0
   47.6060   32.1300   39.1430 H   0  0  0  0  0  0  0  0  0  0  0  0
   46.5670   31.0730   40.1040 H   0  0  0  0  0  0  0  0  0  0  0  0
   47.3930   33.9020   40.8910 H   0  0  0  0  0  0  0  0  0  0  0  0
   45.4670   35.2170   43.6350 C   0  0  0  0  0  0  0  0  0  0  0  0
   45.9390   34.0460   44.2700 C   0  0  0  0  0  0  0  0  0  0  0  0
   45.5800   33.7850   45.5750 C   0  0  0  0  0  0  0  0  0  0  0  0
   44.7790   34.6690   46.2090 N   0  0  0  0  0  0  0  0  0  0  0  0
   44.3180   35.7960   45.6120 C   0  0  0  0  0  0  0  0  0  0  0  0
   44.6720   36.0480   44.3360 N   0  0  0  0  0  0  0  0  0  0  0  0
   45.7440   35.4300   42.6100 H   0  0  0  0  0  0  0  0  0  0  0  0
   43.6850   36.4280   46.2150 H   0  0  0  0  0  0  0  0  0  0  0  0
   46.0820   32.5820   46.2080 C   0  0  0  0  0  0  0  0  0  0  0  0
   45.5660   31.3670   45.8710 C   0  0  0  0  0  0  0  0  0  0  0  0
   46.0510   30.2320   46.4800 C   0  0  0  0  0  0  0  0  0  0  0  0
   47.0600   30.2650   47.4390 C   0  0  0  0  0  0  0  0  0  0  0  0
   47.5410   31.5240   47.7380 C   0  0  0  0  0  0  0  0  0  0  0  0
   47.0450   32.6090   47.1230 N   0  0  0  0  0  0  0  0  0  0  0  0
   44.7840   31.1720   45.1550 H   0  0  0  0  0  0  0  0  0  0  0  0
   45.6750   29.2310   46.2510 H   0  0  0  0  0  0  0  0  0  0  0  0
   47.4620   29.3940   47.9360 H   0  0  0  0  0  0  0  0  0  0  0  0
   48.3250   31.7030   48.4640 H   0  0  0  0  0  0  0  0  0  0  0  0
   49.7120   33.3110   41.7250 C   0  0  0  0  0  0  0  0  0  0  0  0
   48.6830   32.3870   41.5020 C   0  0  0  0  0  0  0  0  0  0  0  0
   49.1360   31.0700   41.6330 C   0  0  0  0  0  0  0  0  0  0  0  0
   48.4010   30.2900   41.4750 H   0  0  0  0  0  0  0  0  0  0  0  0
   50.4290   30.7090   41.9440 C   0  0  0  0  0  0  0  0  0  0  0  0
   50.7020   29.6670   42.0280 H   0  0  0  0  0  0  0  0  0  0  0  0
   51.3630   31.7060   42.1440 C   0  0  0  0  0  3  0  0  0  0  0  0
   51.0270   33.0380   42.0390 C   0  0  0  0  0  3  0  0  0  0  0  0
   49.0060   35.8220   41.5270 N   0  0  0  0  0  0  0  0  0  0  0  0
   49.3190   34.7040   41.6060 C   0  0  0  0  0  0  0  0  0  0  0  0
  1  2  2  0  0  0  0
  1 19  1  0  0  0  0
  3  1  1  0  0  0  0
  4  3  1  0  0  0  0
  4  9  1  0  0  0  0
  5 12  1  0  0  0  0
  5  4  1  0  0  0  0
  6  7  1  0  0  0  0
  6  5  1  0  0  0  0
  7 16  1  0  0  0  0
  7  8  1  0  0  0  0
  8 17  1  6  0  0  0
  8 37  1  0  0  0  0
  8  3  1  0  0  0  0
 10  4  1  0  0  0  0
 11  5  1  0  0  0  0
 13  6  1  0  0  0  0
 14  6  1  0  0  0  0
 15  7  1  0  0  0  0
 18 19  2  0  0  0  0
 18 23  1  0  0  0  0
 19 20  1  0  0  0  0
 20 26  1  0  0  0  0
 20 21  2  0  0  0  0
 22 21  1  0  0  0  0
 22 25  1  0  0  0  0
 23 22  2  0  0  0  0
 24 18  1  0  0  0  0
 26 31  1  0  0  0  0
 27 26  2  0  0  0  0
 27 28  1  0  0  0  0
 28 29  2  0  0  0  0
 29 30  1  0  0  0  0
 29 34  1  0  0  0  0
 30 35  1  0  0  0  0
 31 30  2  0  0  0  0
 32 27  1  0  0  0  0
 33 28  1  0  0  0  0
 36 43  1  0  0  0  0
 37 38  1  0  0  0  0
 37 36  2  0  0  0  0
 38 40  2  0  0  0  0
 39 38  1  0  0  0  0
 40 41  1  0  0  0  0
 40 42  1  0  0  0  0
 43 42  2  0  0  0  0
 44 45  3  0  0  0  0
 45 36  1  0  0  0  0
M  END
>  <minimizedAffinity>
-5.50021982

>  <minimizedRMSD>
1.22478735

$$$$
