
 OpenBabel03242521433D

 39 41  0  0  1  0  0  0  0  0999 V2000
   45.4570   35.6820   43.8350 C   0  0  0  0  0  0  0  0  0  0  0  0
   46.4670   34.8700   43.2960 C   0  0  0  0  0  0  0  0  0  0  0  0
   46.8430   33.7040   43.9780 C   0  0  0  0  0  0  0  0  0  0  0  0
   46.2100   33.4240   45.1170 N   0  0  0  0  0  0  0  0  0  0  0  0
   45.2370   34.2170   45.6250 C   0  0  0  0  0  0  0  0  0  0  0  0
   44.8590   35.3450   44.9840 N   0  0  0  0  0  0  0  0  0  0  0  0
   46.8900   35.2200   42.3670 H   0  0  0  0  0  0  0  0  0  0  0  0
   44.8060   33.8760   46.5530 H   0  0  0  0  0  0  0  0  0  0  0  0
   48.9060   33.6850   42.5930 C   0  0  2  0  0  0  0  0  0  0  0  0
   47.8930   32.9150   43.3660 C   0  0  2  0  0  0  0  0  0  0  0  0
   47.4400   32.0010   42.3720 O   0  0  0  0  0  0  0  0  0  0  0  0
   48.6210   31.4720   41.8990 C   0  0  0  0  0  0  0  0  0  0  0  0
   49.7180   32.4930   42.0520 C   0  0  1  0  0  0  0  0  0  0  0  0
   48.4330   34.1660   41.6910 H   0  0  0  0  0  0  0  0  0  0  0  0
   48.4290   32.2480   44.0980 H   0  0  0  0  0  0  0  0  0  0  0  0
   48.8820   30.4860   42.3690 H   0  0  0  0  0  0  0  0  0  0  0  0
   48.5100   31.2610   40.8130 H   0  0  0  0  0  0  0  0  0  0  0  0
   50.4750   32.1920   42.7760 H   0  0  0  0  0  0  0  0  0  0  0  0
   49.6500   34.5560   43.3320 O   0  0  0  0  0  0  0  0  0  0  0  0
   49.0280   35.0250   43.9340 H   0  0  0  0  0  0  0  0  0  0  0  0
   50.3120   32.8630   40.8510 O   0  0  0  0  0  0  0  0  0  0  0  0
   49.6360   33.1170   40.1820 H   0  0  0  0  0  0  0  0  0  0  0  0
   45.0710   36.9330   43.0980 C   0  0  0  0  0  0  0  0  0  0  0  0
   45.9050   37.2560   42.4570 H   0  0  0  0  0  0  0  0  0  0  0  0
   44.1760   36.7160   42.4800 H   0  0  0  0  0  0  0  0  0  0  0  0
   45.5120   39.1580   44.2930 C   0  0  0  0  0  0  0  0  0  0  0  0
   46.5150   39.3660   43.5520 O   0  0  0  0  0  0  0  0  0  0  0  0
   44.8100   37.9420   44.1180 N   0  0  0  0  0  0  0  0  0  0  0  0
   44.0240   37.7680   44.8040 H   0  0  0  0  0  0  0  0  0  0  0  0
   44.8290   41.3970   44.7740 C   0  0  0  0  0  0  0  0  0  0  0  0
   45.0820   40.1330   45.2950 C   0  0  0  0  0  0  0  0  0  0  0  0
   44.9130   39.9360   46.6490 C   0  0  0  0  0  0  0  0  0  0  0  0
   45.1260   38.9360   46.9860 H   0  0  0  0  0  0  0  0  0  0  0  0
   44.5000   40.9730   47.4570 C   0  0  0  0  0  0  0  0  0  0  0  0
   44.3750   40.7960   48.5110 H   0  0  0  0  0  0  0  0  0  0  0  0
   44.2360   42.2450   46.9790 C   0  0  0  0  0  3  0  0  0  0  0  0
   44.4170   42.4200   45.6040 C   0  0  0  0  0  3  0  0  0  0  0  0
   45.1060   41.9510   42.2420 N   0  0  0  0  0  0  0  0  0  0  0  0
   44.9760   41.7130   43.3650 C   0  0  0  0  0  0  0  0  0  0  0  0
  1  6  1  0  0  0  0
  2  1  2  0  0  0  0
  2  3  1  0  0  0  0
  3  4  2  0  0  0  0
  4  5  1  0  0  0  0
  5  8  1  0  0  0  0
  6  5  2  0  0  0  0
  7  2  1  0  0  0  0
  9 14  1  6  0  0  0
  9 19  1  0  0  0  0
  9 10  1  0  0  0  0
 10  3  1  0  0  0  0
 10 15  1  1  0  0  0
 11 10  1  0  0  0  0
 12 13  1  0  0  0  0
 12 16  1  0  0  0  0
 12 11  1  0  0  0  0
 13  9  1  0  0  0  0
 13 18  1  1  0  0  0
 17 12  1  0  0  0  0
 19 20  1  0  0  0  0
 21 13  1  0  0  0  0
 22 21  1  0  0  0  0
 23  1  1  0  0  0  0
 23 28  1  0  0  0  0
 24 23  1  0  0  0  0
 25 23  1  0  0  0  0
 26 31  1  0  0  0  0
 27 26  2  0  0  0  0
 28 26  1  0  0  0  0
 28 29  1  0  0  0  0
 30 31  2  0  0  0  0
 30 37  1  0  0  0  0
 31 32  1  0  0  0  0
 32 33  1  0  0  0  0
 32 34  2  0  0  0  0
 34 35  1  0  0  0  0
 36 34  1  0  0  0  0
 37 36  2  0  0  0  0
 38 39  3  0  0  0  0
 39 30  1  0  0  0  0
M  END
>  <minimizedAffinity>
-0.612288296

>  <minimizedRMSD>
0.546108425

$$$$
