
 OpenBabel03242521173D

 39 41  0  0  0  0  0  0  0  0999 V2000
   46.2490   32.7840   46.5170 C   0  0  0  0  0  0  0  0  0  0  0  0
   46.3340   31.8410   45.9220 H   0  0  0  0  0  0  0  0  0  0  0  0
   47.2470   33.0440   46.9270 H   0  0  0  0  0  0  0  0  0  0  0  0
   44.5200   35.6920   44.8990 C   0  0  0  0  0  0  0  0  0  0  0  0
   45.1180   35.6570   43.6190 C   0  0  0  0  0  0  0  0  0  0  0  0
   46.0590   34.6560   43.3980 C   0  0  0  0  0  0  0  0  0  0  0  0
   46.3530   33.7730   44.4090 N   0  0  0  0  0  0  0  0  0  0  0  0
   45.7510   33.8610   45.5990 C   0  0  0  0  0  0  0  0  0  0  0  0
   44.8250   34.8160   45.8750 N   0  0  0  0  0  0  0  0  0  0  0  0
   43.7790   36.4500   45.1340 H   0  0  0  0  0  0  0  0  0  0  0  0
   44.8520   36.3730   42.8700 H   0  0  0  0  0  0  0  0  0  0  0  0
   46.6780   34.5990   42.1130 N   0  0  0  0  0  0  0  0  0  0  0  0
   47.9060   35.1500   41.9720 C   0  0  0  0  0  0  0  0  0  0  0  0
   48.5070   35.0980   40.7230 C   0  0  0  0  0  0  0  0  0  0  0  0
   47.8500   34.5010   39.6980 C   0  0  0  0  0  0  0  0  0  0  0  0
   48.4160   34.4610   38.5590 O   0  0  0  0  0  0  0  0  0  0  0  0
   46.6310   33.9490   39.8200 N   0  0  0  0  0  0  0  0  0  0  0  0
   46.0700   34.0180   41.0590 C   0  0  0  0  0  0  0  0  0  0  0  0
   44.9420   33.5400   41.2920 O   0  0  0  0  0  0  0  0  0  0  0  0
   48.4320   35.6260   42.7910 H   0  0  0  0  0  0  0  0  0  0  0  0
   49.4980   35.5440   40.6120 H   0  0  0  0  0  0  0  0  0  0  0  0
   46.1130   33.4840   39.0280 H   0  0  0  0  0  0  0  0  0  0  0  0
   45.3090   32.6100   47.6890 C   0  0  0  0  0  0  0  0  0  0  0  0
   45.8260   32.8200   48.6630 H   0  0  0  0  0  0  0  0  0  0  0  0
   44.4400   33.2860   47.5540 H   0  0  0  0  0  0  0  0  0  0  0  0
   45.6890   30.1600   47.8720 C   0  0  0  0  0  0  0  0  0  0  0  0
   46.8230   30.5080   48.2620 O   0  0  0  0  0  0  0  0  0  0  0  0
   44.8010   31.2480   47.6720 N   0  0  0  0  0  0  0  0  0  0  0  0
   43.7640   31.1210   47.5050 H   0  0  0  0  0  0  0  0  0  0  0  0
   44.8270   28.5810   46.2390 C   0  0  0  0  0  0  0  0  0  0  0  0
   45.1040   28.8500   47.5850 C   0  0  0  0  0  0  0  0  0  0  0  0
   44.8150   27.8900   48.5320 C   0  0  0  0  0  0  0  0  0  0  0  0
   45.0380   28.1240   49.5550 H   0  0  0  0  0  0  0  0  0  0  0  0
   44.2620   26.6920   48.1150 C   0  0  0  0  0  0  0  0  0  0  0  0
   44.0300   25.9210   48.8690 H   0  0  0  0  0  0  0  0  0  0  0  0
   43.9780   26.3950   46.7940 C   0  0  0  0  0  0  0  0  0  0  0  0
   44.2710   27.3680   45.8450 C   0  0  0  0  0  0  0  0  0  0  0  0
   45.3600   30.3430   44.3970 N   0  0  0  0  0  0  0  0  0  0  0  0
   45.1140   29.5660   45.2070 C   0  0  0  0  0  0  0  0  0  0  0  0
  1  3  1  0  0  0  0
  1 23  1  0  0  0  0
  2  1  1  0  0  0  0
  4 10  1  0  0  0  0
  4  9  1  0  0  0  0
  5  4  2  0  0  0  0
  6  5  1  0  0  0  0
  6  7  2  0  0  0  0
  7  8  1  0  0  0  0
  8  9  2  0  0  0  0
  8  1  1  0  0  0  0
 11  5  1  0  0  0  0
 12  6  1  0  0  0  0
 13 12  1  0  0  0  0
 13 20  1  0  0  0  0
 14 13  2  0  0  0  0
 15 17  1  0  0  0  0
 15 14  1  0  0  0  0
 16 15  2  0  0  0  0
 17 18  1  0  0  0  0
 18 19  2  0  0  0  0
 18 12  1  0  0  0  0
 21 14  1  0  0  0  0
 22 17  1  0  0  0  0
 23 24  1  0  0  0  0
 25 23  1  0  0  0  0
 26 27  2  0  0  0  0
 28 23  1  0  0  0  0
 28 26  1  0  0  0  0
 29 28  1  0  0  0  0
 30 31  1  0  0  0  0
 31 26  1  0  0  0  0
 31 32  2  0  0  0  0
 32 33  1  0  0  0  0
 34 32  1  0  0  0  0
 34 35  1  0  0  0  0
 36 34  2  0  0  0  0
 37 30  2  0  0  0  0
 37 36  1  0  0  0  0
 38 39  3  0  0  0  0
 39 30  1  0  0  0  0
M  END
>  <minimizedAffinity>
-6.42353964

>  <minimizedRMSD>
0.843419552

$$$$
