
 OpenBabel03242521163D

 39 41  0  0  0  0  0  0  0  0999 V2000
   46.3750   32.9590   46.4980 C   0  0  0  0  0  0  0  0  0  0  0  0
   46.7180   32.0790   45.8990 H   0  0  0  0  0  0  0  0  0  0  0  0
   47.2380   33.3720   47.0610 H   0  0  0  0  0  0  0  0  0  0  0  0
   44.4980   35.7120   44.7760 C   0  0  0  0  0  0  0  0  0  0  0  0
   45.1070   35.6700   43.5020 C   0  0  0  0  0  0  0  0  0  0  0  0
   46.1050   34.7170   43.3190 C   0  0  0  0  0  0  0  0  0  0  0  0
   46.4390   33.8850   44.3600 N   0  0  0  0  0  0  0  0  0  0  0  0
   45.8240   33.9760   45.5420 C   0  0  0  0  0  0  0  0  0  0  0  0
   44.8440   34.8860   45.7830 N   0  0  0  0  0  0  0  0  0  0  0  0
   43.7140   36.4330   44.9820 H   0  0  0  0  0  0  0  0  0  0  0  0
   44.8070   36.3450   42.7280 H   0  0  0  0  0  0  0  0  0  0  0  0
   46.7360   34.6540   42.0400 N   0  0  0  0  0  0  0  0  0  0  0  0
   47.9490   35.2350   41.8990 C   0  0  0  0  0  0  0  0  0  0  0  0
   48.5630   35.1780   40.6560 C   0  0  0  0  0  0  0  0  0  0  0  0
   47.9300   34.5450   39.6370 C   0  0  0  0  0  0  0  0  0  0  0  0
   48.5070   34.5000   38.5030 O   0  0  0  0  0  0  0  0  0  0  0  0
   46.7260   33.9620   39.7590 N   0  0  0  0  0  0  0  0  0  0  0  0
   46.1530   34.0380   40.9920 C   0  0  0  0  0  0  0  0  0  0  0  0
   45.0370   33.5340   41.2240 O   0  0  0  0  0  0  0  0  0  0  0  0
   48.4550   35.7400   42.7140 H   0  0  0  0  0  0  0  0  0  0  0  0
   49.5420   35.6490   40.5450 H   0  0  0  0  0  0  0  0  0  0  0  0
   46.2280   33.4690   38.9710 H   0  0  0  0  0  0  0  0  0  0  0  0
   45.3250   32.5580   47.5100 C   0  0  0  0  0  0  0  0  0  0  0  0
   45.6600   32.7790   48.5580 H   0  0  0  0  0  0  0  0  0  0  0  0
   44.3820   33.0970   47.2790 H   0  0  0  0  0  0  0  0  0  0  0  0
   45.8150   30.1910   48.0900 C   0  0  0  0  0  0  0  0  0  0  0  0
   46.5220   30.7050   48.9820 O   0  0  0  0  0  0  0  0  0  0  0  0
   45.0560   31.1380   47.3540 N   0  0  0  0  0  0  0  0  0  0  0  0
   44.2870   30.8620   46.6810 H   0  0  0  0  0  0  0  0  0  0  0  0
   46.4670   28.3520   46.6430 C   0  0  0  0  0  0  0  0  0  0  0  0
   45.6200   28.8060   47.6610 C   0  0  0  0  0  0  0  0  0  0  0  0
   44.6780   27.9440   48.1830 C   0  0  0  0  0  0  0  0  0  0  0  0
   44.0430   28.3200   48.9620 H   0  0  0  0  0  0  0  0  0  0  0  0
   44.6070   26.6570   47.6800 C   0  0  0  0  0  0  0  0  0  0  0  0
   43.8550   25.9640   48.0950 H   0  0  0  0  0  0  0  0  0  0  0  0
   45.4290   26.1770   46.6760 C   0  0  0  0  0  3  0  0  0  0  0  0
   46.3750   27.0520   46.1550 C   0  0  0  0  0  3  0  0  0  0  0  0
   48.2780   29.9220   45.6230 N   0  0  0  0  0  0  0  0  0  0  0  0
   47.4730   29.2270   46.0630 C   0  0  0  0  0  0  0  0  0  0  0  0
  1  3  1  0  0  0  0
  1 23  1  0  0  0  0
  2  1  1  0  0  0  0
  4 10  1  0  0  0  0
  4  9  1  0  0  0  0
  5  4  2  0  0  0  0
  6  5  1  0  0  0  0
  6  7  2  0  0  0  0
  7  8  1  0  0  0  0
  8  9  2  0  0  0  0
  8  1  1  0  0  0  0
 11  5  1  0  0  0  0
 12  6  1  0  0  0  0
 13 12  1  0  0  0  0
 13 20  1  0  0  0  0
 14 13  2  0  0  0  0
 15 17  1  0  0  0  0
 15 14  1  0  0  0  0
 16 15  2  0  0  0  0
 17 18  1  0  0  0  0
 18 19  2  0  0  0  0
 18 12  1  0  0  0  0
 21 14  1  0  0  0  0
 22 17  1  0  0  0  0
 23 24  1  0  0  0  0
 25 23  1  0  0  0  0
 26 27  2  0  0  0  0
 28 23  1  0  0  0  0
 28 26  1  0  0  0  0
 29 28  1  0  0  0  0
 30 31  1  0  0  0  0
 31 26  1  0  0  0  0
 31 32  2  0  0  0  0
 32 33  1  0  0  0  0
 34 35  1  0  0  0  0
 34 32  1  0  0  0  0
 36 34  2  0  0  0  0
 37 30  2  0  0  0  0
 37 36  1  0  0  0  0
 38 39  3  0  0  0  0
 39 30  1  0  0  0  0
M  END
>  <minimizedAffinity>
-6.18693066

>  <minimizedRMSD>
1.14634526

$$$$
