
 OpenBabel03242521193D

 39 41  0  0  0  0  0  0  0  0999 V2000
   38.0740   31.4290   39.7460 C   0  0  0  0  0  0  0  0  0  0  0  0
   37.0620   31.4580   39.2730 H   0  0  0  0  0  0  0  0  0  0  0  0
   38.7570   30.8340   39.1040 H   0  0  0  0  0  0  0  0  0  0  0  0
   38.4460   35.1450   40.0890 C   0  0  0  0  0  0  0  0  0  0  0  0
   39.8550   35.2550   40.0970 C   0  0  0  0  0  0  0  0  0  0  0  0
   40.5730   34.0690   39.9870 C   0  0  0  0  0  0  0  0  0  0  0  0
   39.8940   32.8790   39.8780 N   0  0  0  0  0  0  0  0  0  0  0  0
   38.5590   32.8430   39.8760 C   0  0  0  0  0  0  0  0  0  0  0  0
   37.8020   33.9670   39.9820 N   0  0  0  0  0  0  0  0  0  0  0  0
   37.8290   36.0350   40.1720 H   0  0  0  0  0  0  0  0  0  0  0  0
   40.3300   36.2100   40.1870 H   0  0  0  0  0  0  0  0  0  0  0  0
   41.9980   34.1520   39.9930 N   0  0  0  0  0  0  0  0  0  0  0  0
   42.6320   34.1440   41.1880 C   0  0  0  0  0  0  0  0  0  0  0  0
   44.0170   34.2290   41.1960 C   0  0  0  0  0  0  0  0  0  0  0  0
   44.6790   34.3140   40.0160 C   0  0  0  0  0  0  0  0  0  0  0  0
   45.9490   34.3890   40.0390 O   0  0  0  0  0  0  0  0  0  0  0  0
   44.0660   34.3220   38.8200 N   0  0  0  0  0  0  0  0  0  0  0  0
   42.7070   34.2390   38.8490 C   0  0  0  0  0  0  0  0  0  0  0  0
   42.0310   34.2380   37.8020 O   0  0  0  0  0  0  0  0  0  0  0  0
   42.1030   34.0750   42.1310 H   0  0  0  0  0  0  0  0  0  0  0  0
   44.5260   34.2230   42.1620 H   0  0  0  0  0  0  0  0  0  0  0  0
   44.5740   34.3890   37.8990 H   0  0  0  0  0  0  0  0  0  0  0  0
   38.0270   30.7580   41.1010 C   0  0  0  0  0  0  0  0  0  0  0  0
   38.9350   31.0060   41.7130 H   0  0  0  0  0  0  0  0  0  0  0  0
   37.1030   31.0760   41.6260 H   0  0  0  0  0  0  0  0  0  0  0  0
   36.6660   28.6820   40.9530 C   0  0  0  0  0  0  0  0  0  0  0  0
   35.7060   29.4800   40.9640 O   0  0  0  0  0  0  0  0  0  0  0  0
   37.9330   29.3220   40.8990 N   0  0  0  0  0  0  0  0  0  0  0  0
   38.8340   28.7980   40.7170 H   0  0  0  0  0  0  0  0  0  0  0  0
   36.8920   26.6380   42.2470 C   0  0  0  0  0  0  0  0  0  0  0  0
   36.7360   27.2210   40.9830 C   0  0  0  0  0  0  0  0  0  0  0  0
   36.6600   26.4040   39.8740 C   0  0  0  0  0  0  0  0  0  0  0  0
   36.5410   26.8790   38.9190 H   0  0  0  0  0  0  0  0  0  0  0  0
   36.7390   25.0350   40.0530 C   0  0  0  0  0  0  0  0  0  0  0  0
   36.6790   24.3780   39.1690 H   0  0  0  0  0  0  0  0  0  0  0  0
   36.8920   24.4280   41.2860 C   0  0  0  0  0  3  0  0  0  0  0  0
   36.9680   25.2570   42.4000 C   0  0  0  0  0  3  0  0  0  0  0  0
   37.0490   28.0970   44.3980 N   0  0  0  0  0  0  0  0  0  0  0  0
   36.9770   27.4620   43.4430 C   0  0  0  0  0  0  0  0  0  0  0  0
  1  8  1  0  0  0  0
  1 23  1  0  0  0  0
  2  1  1  0  0  0  0
  3  1  1  0  0  0  0
  4  5  1  0  0  0  0
  4 10  1  0  0  0  0
  5 11  1  0  0  0  0
  6 12  1  0  0  0  0
  6  5  2  0  0  0  0
  7  6  1  0  0  0  0
  8  7  2  0  0  0  0
  8  9  1  0  0  0  0
  9  4  2  0  0  0  0
 12 13  1  0  0  0  0
 13 14  2  0  0  0  0
 13 20  1  0  0  0  0
 14 21  1  0  0  0  0
 15 16  2  0  0  0  0
 15 14  1  0  0  0  0
 17 18  1  0  0  0  0
 17 15  1  0  0  0  0
 18 12  1  0  0  0  0
 19 18  2  0  0  0  0
 22 17  1  0  0  0  0
 23 25  1  0  0  0  0
 23 24  1  0  0  0  0
 26 27  2  0  0  0  0
 26 31  1  0  0  0  0
 28 26  1  0  0  0  0
 28 23  1  0  0  0  0
 29 28  1  0  0  0  0
 30 37  1  0  0  0  0
 30 39  1  0  0  0  0
 31 30  2  0  0  0  0
 32 34  2  0  0  0  0
 32 31  1  0  0  0  0
 33 32  1  0  0  0  0
 34 36  1  0  0  0  0
 35 34  1  0  0  0  0
 36 37  2  0  0  0  0
 39 38  3  0  0  0  0
M  END
>  <minimizedAffinity>
-6.32324409

$$$$

 OpenBabel03242521193D

 39 41  0  0  0  0  0  0  0  0999 V2000
   35.6190   29.1190   40.2690 C   0  0  0  0  0  0  0  0  0  0  0  0
   34.5670   29.4970   40.2640 H   0  0  0  0  0  0  0  0  0  0  0  0
   35.6100   28.0230   40.0890 H   0  0  0  0  0  0  0  0  0  0  0  0
   37.1010   30.3280   37.0430 C   0  0  0  0  0  0  0  0  0  0  0  0
   37.8950   31.3960   37.5190 C   0  0  0  0  0  0  0  0  0  0  0  0
   37.8700   31.6280   38.8900 C   0  0  0  0  0  0  0  0  0  0  0  0
   37.0950   30.8280   39.6940 N   0  0  0  0  0  0  0  0  0  0  0  0
   36.3670   29.8320   39.1820 C   0  0  0  0  0  0  0  0  0  0  0  0
   36.3490   29.5560   37.8510 N   0  0  0  0  0  0  0  0  0  0  0  0
   37.0780   30.0960   35.9830 H   0  0  0  0  0  0  0  0  0  0  0  0
   38.4770   31.9880   36.8440 H   0  0  0  0  0  0  0  0  0  0  0  0
   38.6630   32.7020   39.3960 N   0  0  0  0  0  0  0  0  0  0  0  0
   39.9680   32.4630   39.6560 C   0  0  0  0  0  0  0  0  0  0  0  0
   40.7390   33.5050   40.1510 C   0  0  0  0  0  0  0  0  0  0  0  0
   40.1620   34.7150   40.3530 C   0  0  0  0  0  0  0  0  0  0  0  0
   40.8830   35.6610   40.8070 O   0  0  0  0  0  0  0  0  0  0  0  0
   38.8670   34.9700   40.1000 N   0  0  0  0  0  0  0  0  0  0  0  0
   38.1400   33.9260   39.6160 C   0  0  0  0  0  0  0  0  0  0  0  0
   36.9290   34.0440   39.3450 O   0  0  0  0  0  0  0  0  0  0  0  0
   40.4300   31.4960   39.4940 H   0  0  0  0  0  0  0  0  0  0  0  0
   41.7930   33.3080   40.3610 H   0  0  0  0  0  0  0  0  0  0  0  0
   38.4110   35.9080   40.2550 H   0  0  0  0  0  0  0  0  0  0  0  0
   36.2800   29.3530   41.6090 C   0  0  0  0  0  0  0  0  0  0  0  0
   36.6670   30.4020   41.6970 H   0  0  0  0  0  0  0  0  0  0  0  0
   35.5460   29.1370   42.4130 H   0  0  0  0  0  0  0  0  0  0  0  0
   37.3460   27.4620   42.8220 C   0  0  0  0  0  0  0  0  0  0  0  0
   36.2520   27.4160   43.4230 O   0  0  0  0  0  0  0  0  0  0  0  0
   37.3680   28.4000   41.7560 N   0  0  0  0  0  0  0  0  0  0  0  0
   38.1520   28.4460   41.0470 H   0  0  0  0  0  0  0  0  0  0  0  0
   38.6480   25.4380   42.4840 C   0  0  0  0  0  0  0  0  0  0  0  0
   38.6040   26.7370   43.0050 C   0  0  0  0  0  0  0  0  0  0  0  0
   39.7190   27.2410   43.6420 C   0  0  0  0  0  0  0  0  0  0  0  0
   39.6560   28.2390   44.0310 H   0  0  0  0  0  0  0  0  0  0  0  0
   40.8430   26.4410   43.7410 C   0  0  0  0  0  0  0  0  0  0  0  0
   41.7370   26.8400   44.2500 H   0  0  0  0  0  0  0  0  0  0  0  0
   40.9200   25.1550   43.2370 C   0  0  0  0  0  3  0  0  0  0  0  0
   39.7920   24.6540   42.5960 C   0  0  0  0  0  3  0  0  0  0  0  0
   36.5950   24.4100   41.2550 N   0  0  0  0  0  0  0  0  0  0  0  0
   37.4950   24.8670   41.8050 C   0  0  0  0  0  0  0  0  0  0  0  0
  1 23  1  0  0  0  0
  2  1  1  0  0  0  0
  3  1  1  0  0  0  0
  4  5  2  0  0  0  0
  4  9  1  0  0  0  0
  5  6  1  0  0  0  0
  6 12  1  0  0  0  0
  6  7  2  0  0  0  0
  8  7  1  0  0  0  0
  8  1  1  0  0  0  0
  9  8  2  0  0  0  0
 10  4  1  0  0  0  0
 11  5  1  0  0  0  0
 12 18  1  0  0  0  0
 12 13  1  0  0  0  0
 13 14  2  0  0  0  0
 14 15  1  0  0  0  0
 14 21  1  0  0  0  0
 15 16  2  0  0  0  0
 17 22  1  0  0  0  0
 17 15  1  0  0  0  0
 18 17  1  0  0  0  0
 19 18  2  0  0  0  0
 20 13  1  0  0  0  0
 23 24  1  0  0  0  0
 23 28  1  0  0  0  0
 23 25  1  0  0  0  0
 26 31  1  0  0  0  0
 26 27  2  0  0  0  0
 28 26  1  0  0  0  0
 29 28  1  0  0  0  0
 30 37  2  0  0  0  0
 30 31  1  0  0  0  0
 31 32  2  0  0  0  0
 32 34  1  0  0  0  0
 32 33  1  0  0  0  0
 34 35  1  0  0  0  0
 36 34  2  0  0  0  0
 37 36  1  0  0  0  0
 38 39  3  0  0  0  0
 39 30  1  0  0  0  0
M  END
>  <minimizedAffinity>
-6.25681257

$$$$

 OpenBabel03242521193D

 39 41  0  0  0  0  0  0  0  0999 V2000
   35.5200   29.4190   40.6900 C   0  0  0  0  0  0  0  0  0  0  0  0
   35.4950   30.2130   41.4770 H   0  0  0  0  0  0  0  0  0  0  0  0
   34.4790   29.1380   40.4260 H   0  0  0  0  0  0  0  0  0  0  0  0
   36.8770   30.2150   37.2860 C   0  0  0  0  0  0  0  0  0  0  0  0
   37.7540   31.2760   37.6090 C   0  0  0  0  0  0  0  0  0  0  0  0
   37.8200   31.6420   38.9490 C   0  0  0  0  0  0  0  0  0  0  0  0
   37.0520   30.9720   39.8700 N   0  0  0  0  0  0  0  0  0  0  0  0
   36.2420   29.9770   39.4990 C   0  0  0  0  0  0  0  0  0  0  0  0
   36.1320   29.5730   38.2060 N   0  0  0  0  0  0  0  0  0  0  0  0
   36.7800   29.8830   36.2570 H   0  0  0  0  0  0  0  0  0  0  0  0
   38.3270   31.7640   36.8490 H   0  0  0  0  0  0  0  0  0  0  0  0
   38.6980   32.7120   39.3020 N   0  0  0  0  0  0  0  0  0  0  0  0
   40.0250   32.4550   39.3580 C   0  0  0  0  0  0  0  0  0  0  0  0
   40.8790   33.4930   39.7030 C   0  0  0  0  0  0  0  0  0  0  0  0
   40.3570   34.7150   39.9700 C   0  0  0  0  0  0  0  0  0  0  0  0
   41.1540   35.6570   40.2850 O   0  0  0  0  0  0  0  0  0  0  0  0
   39.0430   34.9880   39.9190 N   0  0  0  0  0  0  0  0  0  0  0  0
   38.2340   33.9480   39.5770 C   0  0  0  0  0  0  0  0  0  0  0  0
   36.9970   34.0820   39.4980 O   0  0  0  0  0  0  0  0  0  0  0  0
   40.4420   31.4780   39.1440 H   0  0  0  0  0  0  0  0  0  0  0  0
   41.9500   33.2820   39.7480 H   0  0  0  0  0  0  0  0  0  0  0  0
   38.6300   35.9360   40.1260 H   0  0  0  0  0  0  0  0  0  0  0  0
   36.2120   28.1710   41.1920 C   0  0  0  0  0  0  0  0  0  0  0  0
   35.7430   27.7960   42.1410 H   0  0  0  0  0  0  0  0  0  0  0  0
   36.1690   27.3940   40.4010 H   0  0  0  0  0  0  0  0  0  0  0  0
   38.0770   28.7780   42.7210 C   0  0  0  0  0  0  0  0  0  0  0  0
   37.2380   28.5320   43.6120 O   0  0  0  0  0  0  0  0  0  0  0  0
   37.6150   28.4810   41.4120 N   0  0  0  0  0  0  0  0  0  0  0  0
   38.2510   28.4730   40.5660 H   0  0  0  0  0  0  0  0  0  0  0  0
   40.4540   28.3870   43.0390 C   0  0  0  0  0  0  0  0  0  0  0  0
   39.4390   29.3120   42.7670 C   0  0  0  0  0  0  0  0  0  0  0  0
   39.7740   30.6350   42.5640 C   0  0  0  0  0  0  0  0  0  0  0  0
   38.9750   31.3200   42.3580 H   0  0  0  0  0  0  0  0  0  0  0  0
   41.1070   30.9990   42.6360 C   0  0  0  0  0  0  0  0  0  0  0  0
   41.3800   32.0550   42.4750 H   0  0  0  0  0  0  0  0  0  0  0  0
   42.1340   30.1100   42.9010 C   0  0  0  0  0  3  0  0  0  0  0  0
   41.7870   28.7780   43.1050 C   0  0  0  0  0  3  0  0  0  0  0  0
   39.9050   25.8700   43.4150 N   0  0  0  0  0  0  0  0  0  0  0  0
   40.1440   26.9830   43.2590 C   0  0  0  0  0  0  0  0  0  0  0  0
  1 23  1  0  0  0  0
  1  2  1  0  0  0  0
  3  1  1  0  0  0  0
  4  5  2  0  0  0  0
  4  9  1  0  0  0  0
  5  6  1  0  0  0  0
  6 12  1  0  0  0  0
  6  7  2  0  0  0  0
  8  7  1  0  0  0  0
  8  1  1  0  0  0  0
  9  8  2  0  0  0  0
 10  4  1  0  0  0  0
 11  5  1  0  0  0  0
 12 13  1  0  0  0  0
 12 18  1  0  0  0  0
 13 14  2  0  0  0  0
 14 21  1  0  0  0  0
 14 15  1  0  0  0  0
 15 16  2  0  0  0  0
 17 15  1  0  0  0  0
 17 22  1  0  0  0  0
 18 17  1  0  0  0  0
 19 18  2  0  0  0  0
 20 13  1  0  0  0  0
 23 28  1  0  0  0  0
 23 24  1  0  0  0  0
 25 23  1  0  0  0  0
 26 31  1  0  0  0  0
 26 27  2  0  0  0  0
 28 26  1  0  0  0  0
 29 28  1  0  0  0  0
 30 37  1  0  0  0  0
 30 39  1  0  0  0  0
 31 30  2  0  0  0  0
 32 34  2  0  0  0  0
 32 31  1  0  0  0  0
 33 32  1  0  0  0  0
 34 36  1  0  0  0  0
 35 34  1  0  0  0  0
 36 37  2  0  0  0  0
 39 38  3  0  0  0  0
M  END
>  <minimizedAffinity>
-6.02816534

$$$$

 OpenBabel03242521193D

 39 41  0  0  0  0  0  0  0  0999 V2000
   40.2670   29.4110   42.4000 C   0  0  0  0  0  0  0  0  0  0  0  0
   40.6830   29.8740   43.3280 H   0  0  0  0  0  0  0  0  0  0  0  0
   41.0190   28.7150   41.9740 H   0  0  0  0  0  0  0  0  0  0  0  0
   36.9870   28.2760   43.8220 C   0  0  0  0  0  0  0  0  0  0  0  0
   36.8690   27.0120   43.1980 C   0  0  0  0  0  0  0  0  0  0  0  0
   37.9040   26.6400   42.3460 C   0  0  0  0  0  0  0  0  0  0  0  0
   38.9620   27.4950   42.1580 N   0  0  0  0  0  0  0  0  0  0  0  0
   39.0140   28.6770   42.7770 C   0  0  0  0  0  0  0  0  0  0  0  0
   38.0350   29.0980   43.6200 N   0  0  0  0  0  0  0  0  0  0  0  0
   36.2120   28.6240   44.4980 H   0  0  0  0  0  0  0  0  0  0  0  0
   36.0200   26.3880   43.3820 H   0  0  0  0  0  0  0  0  0  0  0  0
   37.8080   25.3680   41.7040 N   0  0  0  0  0  0  0  0  0  0  0  0
   36.9650   25.2460   40.6530 C   0  0  0  0  0  0  0  0  0  0  0  0
   36.8690   24.0110   40.0300 C   0  0  0  0  0  0  0  0  0  0  0  0
   37.6180   22.9790   40.4920 C   0  0  0  0  0  0  0  0  0  0  0  0
   37.5200   21.8520   39.9080 O   0  0  0  0  0  0  0  0  0  0  0  0
   38.4610   23.0820   41.5330 N   0  0  0  0  0  0  0  0  0  0  0  0
   38.5300   24.3080   42.1210 C   0  0  0  0  0  0  0  0  0  0  0  0
   39.2770   24.5220   43.0960 O   0  0  0  0  0  0  0  0  0  0  0  0
   36.3670   26.0710   40.2840 H   0  0  0  0  0  0  0  0  0  0  0  0
   36.1870   23.9150   39.1820 H   0  0  0  0  0  0  0  0  0  0  0  0
   39.0460   22.2840   41.8980 H   0  0  0  0  0  0  0  0  0  0  0  0
   39.9710   30.4580   41.3490 C   0  0  0  0  0  0  0  0  0  0  0  0
   39.7480   31.4540   41.8150 H   0  0  0  0  0  0  0  0  0  0  0  0
   40.8410   30.5320   40.6640 H   0  0  0  0  0  0  0  0  0  0  0  0
   37.6840   30.8230   40.4460 C   0  0  0  0  0  0  0  0  0  0  0  0
   37.8460   31.9780   40.8900 O   0  0  0  0  0  0  0  0  0  0  0  0
   38.8400   30.0060   40.5560 N   0  0  0  0  0  0  0  0  0  0  0  0
   38.9250   29.0630   40.0830 H   0  0  0  0  0  0  0  0  0  0  0  0
   36.4420   30.2340   38.4420 C   0  0  0  0  0  0  0  0  0  0  0  0
   36.5350   30.1520   39.8360 C   0  0  0  0  0  0  0  0  0  0  0  0
   35.5640   29.4620   40.5330 C   0  0  0  0  0  0  0  0  0  0  0  0
   35.6610   29.4160   41.6000 H   0  0  0  0  0  0  0  0  0  0  0  0
   34.5320   28.8740   39.8240 C   0  0  0  0  0  0  0  0  0  0  0  0
   33.7530   28.3220   40.3760 H   0  0  0  0  0  0  0  0  0  0  0  0
   34.4120   28.9350   38.4470 C   0  0  0  0  0  3  0  0  0  0  0  0
   35.3940   29.6320   37.7520 C   0  0  0  0  0  3  0  0  0  0  0  0
   38.2230   31.5190   37.0430 N   0  0  0  0  0  0  0  0  0  0  0  0
   37.4440   30.9510   37.6690 C   0  0  0  0  0  0  0  0  0  0  0  0
  1  8  1  0  0  0  0
  1  2  1  0  0  0  0
  3  1  1  0  0  0  0
  4 10  1  0  0  0  0
  5 11  1  0  0  0  0
  5  4  2  0  0  0  0
  6  5  1  0  0  0  0
  7  6  2  0  0  0  0
  7  8  1  0  0  0  0
  8  9  2  0  0  0  0
  9  4  1  0  0  0  0
 12 18  1  0  0  0  0
 12  6  1  0  0  0  0
 13 12  1  0  0  0  0
 14 15  1  0  0  0  0
 14 13  2  0  0  0  0
 15 17  1  0  0  0  0
 16 15  2  0  0  0  0
 17 22  1  0  0  0  0
 17 18  1  0  0  0  0
 18 19  2  0  0  0  0
 20 13  1  0  0  0  0
 21 14  1  0  0  0  0
 23 24  1  0  0  0  0
 23  1  1  0  0  0  0
 25 23  1  0  0  0  0
 26 28  1  0  0  0  0
 26 27  2  0  0  0  0
 28 23  1  0  0  0  0
 29 28  1  0  0  0  0
 30 31  1  0  0  0  0
 31 26  1  0  0  0  0
 31 32  2  0  0  0  0
 32 33  1  0  0  0  0
 34 35  1  0  0  0  0
 34 32  1  0  0  0  0
 36 34  2  0  0  0  0
 37 30  2  0  0  0  0
 37 36  1  0  0  0  0
 38 39  3  0  0  0  0
 39 30  1  0  0  0  0
M  END
>  <minimizedAffinity>
-5.96787834

$$$$

 OpenBabel03242521193D

 39 41  0  0  0  0  0  0  0  0999 V2000
   38.6030   30.8470   37.3310 C   0  0  0  0  0  0  0  0  0  0  0  0
   38.3000   31.2890   36.3500 H   0  0  0  0  0  0  0  0  0  0  0  0
   39.6560   30.5030   37.2630 H   0  0  0  0  0  0  0  0  0  0  0  0
   37.3990   33.4400   39.7580 C   0  0  0  0  0  0  0  0  0  0  0  0
   38.6280   33.8330   40.3330 C   0  0  0  0  0  0  0  0  0  0  0  0
   39.7700   33.1940   39.8600 C   0  0  0  0  0  0  0  0  0  0  0  0
   39.6490   32.2370   38.8820 N   0  0  0  0  0  0  0  0  0  0  0  0
   38.4550   31.9110   38.3780 C   0  0  0  0  0  0  0  0  0  0  0  0
   37.3050   32.4990   38.7990 N   0  0  0  0  0  0  0  0  0  0  0  0
   36.4720   33.9020   40.0840 H   0  0  0  0  0  0  0  0  0  0  0  0
   38.6620   34.5830   41.0950 H   0  0  0  0  0  0  0  0  0  0  0  0
   41.0250   33.5720   40.4260 N   0  0  0  0  0  0  0  0  0  0  0  0
   41.6510   32.6880   41.2360 C   0  0  0  0  0  0  0  0  0  0  0  0
   42.8700   33.0550   41.7890 C   0  0  0  0  0  0  0  0  0  0  0  0
   43.3840   34.2760   41.4990 C   0  0  0  0  0  0  0  0  0  0  0  0
   44.5030   34.5970   42.0140 O   0  0  0  0  0  0  0  0  0  0  0  0
   42.7760   35.1660   40.6980 N   0  0  0  0  0  0  0  0  0  0  0  0
   41.5830   34.7730   40.1730 C   0  0  0  0  0  0  0  0  0  0  0  0
   40.9280   35.5160   39.4150 O   0  0  0  0  0  0  0  0  0  0  0  0
   41.2410   31.7120   41.4660 H   0  0  0  0  0  0  0  0  0  0  0  0
   43.3730   32.3390   42.4430 H   0  0  0  0  0  0  0  0  0  0  0  0
   43.1700   36.1170   40.4690 H   0  0  0  0  0  0  0  0  0  0  0  0
   37.7540   29.6430   37.6750 C   0  0  0  0  0  0  0  0  0  0  0  0
   36.7280   29.7240   37.2290 H   0  0  0  0  0  0  0  0  0  0  0  0
   38.2670   28.7280   37.3130 H   0  0  0  0  0  0  0  0  0  0  0  0
   38.3870   28.5240   39.8040 C   0  0  0  0  0  0  0  0  0  0  0  0
   39.2120   27.9290   39.0800 O   0  0  0  0  0  0  0  0  0  0  0  0
   37.6680   29.5410   39.1230 N   0  0  0  0  0  0  0  0  0  0  0  0
   37.0560   30.2460   39.6220 H   0  0  0  0  0  0  0  0  0  0  0  0
   37.2420   27.2570   41.5320 C   0  0  0  0  0  0  0  0  0  0  0  0
   38.0210   28.3760   41.2130 C   0  0  0  0  0  0  0  0  0  0  0  0
   38.3870   29.2460   42.2190 C   0  0  0  0  0  0  0  0  0  0  0  0
   38.9840   30.0940   41.9440 H   0  0  0  0  0  0  0  0  0  0  0  0
   37.9690   28.9790   43.5100 C   0  0  0  0  0  0  0  0  0  0  0  0
   38.2590   29.6720   44.3180 H   0  0  0  0  0  0  0  0  0  0  0  0
   37.2010   27.8830   43.8590 C   0  0  0  0  0  3  0  0  0  0  0  0
   36.8360   27.0100   42.8400 C   0  0  0  0  0  3  0  0  0  0  0  0
   36.5070   25.5560   39.7030 N   0  0  0  0  0  0  0  0  0  0  0  0
   36.8340   26.3140   40.5030 C   0  0  0  0  0  0  0  0  0  0  0  0
  1 23  1  0  0  0  0
  1  8  1  0  0  0  0
  2  1  1  0  0  0  0
  3  1  1  0  0  0  0
  4 10  1  0  0  0  0
  4  5  1  0  0  0  0
  5 11  1  0  0  0  0
  6  5  2  0  0  0  0
  6 12  1  0  0  0  0
  7  6  1  0  0  0  0
  8  9  1  0  0  0  0
  8  7  2  0  0  0  0
  9  4  2  0  0  0  0
 12 13  1  0  0  0  0
 13 20  1  0  0  0  0
 13 14  2  0  0  0  0
 14 21  1  0  0  0  0
 15 14  1  0  0  0  0
 15 16  2  0  0  0  0
 17 15  1  0  0  0  0
 18 12  1  0  0  0  0
 18 17  1  0  0  0  0
 19 18  2  0  0  0  0
 22 17  1  0  0  0  0
 23 28  1  0  0  0  0
 24 23  1  0  0  0  0
 25 23  1  0  0  0  0
 26 31  1  0  0  0  0
 27 26  2  0  0  0  0
 28 29  1  0  0  0  0
 28 26  1  0  0  0  0
 30 37  1  0  0  0  0
 31 30  2  0  0  0  0
 31 32  1  0  0  0  0
 32 34  2  0  0  0  0
 33 32  1  0  0  0  0
 34 36  1  0  0  0  0
 34 35  1  0  0  0  0
 37 36  2  0  0  0  0
 38 39  3  0  0  0  0
 39 30  1  0  0  0  0
M  END
>  <minimizedAffinity>
-5.95752621

$$$$

 OpenBabel03242521193D

 39 41  0  0  0  0  0  0  0  0999 V2000
   36.1580   27.4780   39.2390 C   0  0  0  0  0  0  0  0  0  0  0  0
   35.0560   27.4170   39.0560 H   0  0  0  0  0  0  0  0  0  0  0  0
   36.6930   27.2960   38.2840 H   0  0  0  0  0  0  0  0  0  0  0  0
   36.2450   30.7430   41.0820 C   0  0  0  0  0  0  0  0  0  0  0  0
   37.3410   31.3630   40.4390 C   0  0  0  0  0  0  0  0  0  0  0  0
   37.9670   30.6330   39.4340 C   0  0  0  0  0  0  0  0  0  0  0  0
   37.5010   29.3780   39.1230 N   0  0  0  0  0  0  0  0  0  0  0  0
   36.4590   28.8480   39.7690 C   0  0  0  0  0  0  0  0  0  0  0  0
   35.8070   29.5110   40.7600 N   0  0  0  0  0  0  0  0  0  0  0  0
   35.7140   31.2610   41.8740 H   0  0  0  0  0  0  0  0  0  0  0  0
   37.6610   32.3420   40.7250 H   0  0  0  0  0  0  0  0  0  0  0  0
   39.0770   31.2360   38.7690 N   0  0  0  0  0  0  0  0  0  0  0  0
   40.2740   31.2360   39.3990 C   0  0  0  0  0  0  0  0  0  0  0  0
   41.3530   31.8250   38.7550 C   0  0  0  0  0  0  0  0  0  0  0  0
   41.1700   32.3730   37.5290 C   0  0  0  0  0  0  0  0  0  0  0  0
   42.1700   32.9090   36.9510 O   0  0  0  0  0  0  0  0  0  0  0  0
   39.9900   32.3820   36.8880 N   0  0  0  0  0  0  0  0  0  0  0  0
   38.9520   31.7960   37.5480 C   0  0  0  0  0  0  0  0  0  0  0  0
   37.8100   31.7450   37.0530 O   0  0  0  0  0  0  0  0  0  0  0  0
   40.4200   30.7970   40.3790 H   0  0  0  0  0  0  0  0  0  0  0  0
   42.3180   31.8240   39.2670 H   0  0  0  0  0  0  0  0  0  0  0  0
   39.8400   32.8070   35.9350 H   0  0  0  0  0  0  0  0  0  0  0  0
   36.6100   26.4190   40.2200 C   0  0  0  0  0  0  0  0  0  0  0  0
   35.8710   26.2920   41.0560 H   0  0  0  0  0  0  0  0  0  0  0  0
   36.7510   25.4620   39.6750 H   0  0  0  0  0  0  0  0  0  0  0  0
   38.0540   27.0800   42.1330 C   0  0  0  0  0  0  0  0  0  0  0  0
   37.0620   26.7470   42.8140 O   0  0  0  0  0  0  0  0  0  0  0  0
   37.9080   26.8060   40.7480 N   0  0  0  0  0  0  0  0  0  0  0  0
   38.7100   26.8710   40.0610 H   0  0  0  0  0  0  0  0  0  0  0  0
   40.3050   26.8350   43.0140 C   0  0  0  0  0  0  0  0  0  0  0  0
   39.3340   27.6950   42.4880 C   0  0  0  0  0  0  0  0  0  0  0  0
   39.6330   29.0330   42.3400 C   0  0  0  0  0  0  0  0  0  0  0  0
   38.8690   29.6680   41.9340 H   0  0  0  0  0  0  0  0  0  0  0  0
   40.8880   29.4770   42.7170 C   0  0  0  0  0  0  0  0  0  0  0  0
   41.1320   30.5460   42.6010 H   0  0  0  0  0  0  0  0  0  0  0  0
   41.8700   28.6540   43.2390 C   0  0  0  0  0  3  0  0  0  0  0  0
   41.5610   27.3060   43.3850 C   0  0  0  0  0  3  0  0  0  0  0  0
   39.7970   24.3010   43.3310 N   0  0  0  0  0  0  0  0  0  0  0  0
   40.0320   25.4170   43.1880 C   0  0  0  0  0  0  0  0  0  0  0  0
  1  8  1  0  0  0  0
  1 23  1  0  0  0  0
  2  1  1  0  0  0  0
  3  1  1  0  0  0  0
  4 10  1  0  0  0  0
  5 11  1  0  0  0  0
  5  4  2  0  0  0  0
  6  5  1  0  0  0  0
  7  6  2  0  0  0  0
  7  8  1  0  0  0  0
  8  9  2  0  0  0  0
  9  4  1  0  0  0  0
 12 13  1  0  0  0  0
 12  6  1  0  0  0  0
 13 20  1  0  0  0  0
 14 21  1  0  0  0  0
 14 13  2  0  0  0  0
 15 14  1  0  0  0  0
 16 15  2  0  0  0  0
 17 15  1  0  0  0  0
 17 18  1  0  0  0  0
 18 12  1  0  0  0  0
 19 18  2  0  0  0  0
 22 17  1  0  0  0  0
 23 28  1  0  0  0  0
 23 24  1  0  0  0  0
 25 23  1  0  0  0  0
 26 31  1  0  0  0  0
 26 27  2  0  0  0  0
 28 26  1  0  0  0  0
 29 28  1  0  0  0  0
 30 39  1  0  0  0  0
 30 37  1  0  0  0  0
 31 30  2  0  0  0  0
 32 31  1  0  0  0  0
 32 34  2  0  0  0  0
 33 32  1  0  0  0  0
 34 36  1  0  0  0  0
 35 34  1  0  0  0  0
 36 37  2  0  0  0  0
 39 38  3  0  0  0  0
M  END
>  <minimizedAffinity>
-5.94835758

$$$$

 OpenBabel03242521193D

 39 41  0  0  0  0  0  0  0  0999 V2000
   37.0840   25.7200   40.0190 C   0  0  0  0  0  0  0  0  0  0  0  0
   36.6070   24.7240   39.8440 H   0  0  0  0  0  0  0  0  0  0  0  0
   38.1650   25.6520   39.7750 H   0  0  0  0  0  0  0  0  0  0  0  0
   35.0040   27.5140   37.4660 C   0  0  0  0  0  0  0  0  0  0  0  0
   35.3720   28.8510   37.7390 C   0  0  0  0  0  0  0  0  0  0  0  0
   36.2930   29.0460   38.7630 C   0  0  0  0  0  0  0  0  0  0  0  0
   36.7880   27.9580   39.4400 N   0  0  0  0  0  0  0  0  0  0  0  0
   36.3980   26.7180   39.1330 C   0  0  0  0  0  0  0  0  0  0  0  0
   35.5010   26.4630   38.1450 N   0  0  0  0  0  0  0  0  0  0  0  0
   34.2890   27.2960   36.6790 H   0  0  0  0  0  0  0  0  0  0  0  0
   34.9530   29.6600   37.1790 H   0  0  0  0  0  0  0  0  0  0  0  0
   36.6820   30.3880   39.0590 N   0  0  0  0  0  0  0  0  0  0  0  0
   37.4320   31.0500   38.1490 C   0  0  0  0  0  0  0  0  0  0  0  0
   37.8140   32.3520   38.4360 C   0  0  0  0  0  0  0  0  0  0  0  0
   37.4230   32.9100   39.6090 C   0  0  0  0  0  0  0  0  0  0  0  0
   37.7800   34.1060   39.8580 O   0  0  0  0  0  0  0  0  0  0  0  0
   36.6780   32.2680   40.5240 N   0  0  0  0  0  0  0  0  0  0  0  0
   36.3220   30.9920   40.2100 C   0  0  0  0  0  0  0  0  0  0  0  0
   35.6320   30.2980   40.9820 O   0  0  0  0  0  0  0  0  0  0  0  0
   37.7440   30.6040   37.2110 H   0  0  0  0  0  0  0  0  0  0  0  0
   38.4200   32.8840   37.7000 H   0  0  0  0  0  0  0  0  0  0  0  0
   36.3710   32.6950   41.4380 H   0  0  0  0  0  0  0  0  0  0  0  0
   36.9720   26.1340   41.4690 C   0  0  0  0  0  0  0  0  0  0  0  0
   36.4370   27.1150   41.5760 H   0  0  0  0  0  0  0  0  0  0  0  0
   36.4420   25.3360   42.0290 H   0  0  0  0  0  0  0  0  0  0  0  0
   38.5680   27.1050   43.1100 C   0  0  0  0  0  0  0  0  0  0  0  0
   37.5310   27.5700   43.6290 O   0  0  0  0  0  0  0  0  0  0  0  0
   38.3130   26.2270   42.0250 N   0  0  0  0  0  0  0  0  0  0  0  0
   39.0620   25.6230   41.5850 H   0  0  0  0  0  0  0  0  0  0  0  0
   40.5750   28.4590   42.9050 C   0  0  0  0  0  0  0  0  0  0  0  0
   39.9890   27.2910   43.4070 C   0  0  0  0  0  0  0  0  0  0  0  0
   40.7650   26.4100   44.1310 C   0  0  0  0  0  0  0  0  0  0  0  0
   40.2880   25.5230   44.5030 H   0  0  0  0  0  0  0  0  0  0  0  0
   42.0980   26.7160   44.3360 C   0  0  0  0  0  0  0  0  0  0  0  0
   42.7230   26.0140   44.9140 H   0  0  0  0  0  0  0  0  0  0  0  0
   42.7080   27.8610   43.8550 C   0  0  0  0  0  3  0  0  0  0  0  0
   41.9190   28.7440   43.1260 C   0  0  0  0  0  3  0  0  0  0  0  0
   39.1800   30.1600   41.5120 N   0  0  0  0  0  0  0  0  0  0  0  0
   39.7940   29.4150   42.1360 C   0  0  0  0  0  0  0  0  0  0  0  0
  1 23  1  0  0  0  0
  2  1  1  0  0  0  0
  3  1  1  0  0  0  0
  4  5  2  0  0  0  0
  4  9  1  0  0  0  0
  5  6  1  0  0  0  0
  6 12  1  0  0  0  0
  6  7  2  0  0  0  0
  8  7  1  0  0  0  0
  8  1  1  0  0  0  0
  9  8  2  0  0  0  0
 10  4  1  0  0  0  0
 11  5  1  0  0  0  0
 12 18  1  0  0  0  0
 13 14  2  0  0  0  0
 13 12  1  0  0  0  0
 14 15  1  0  0  0  0
 15 16  2  0  0  0  0
 15 17  1  0  0  0  0
 17 22  1  0  0  0  0
 18 17  1  0  0  0  0
 18 19  2  0  0  0  0
 20 13  1  0  0  0  0
 21 14  1  0  0  0  0
 23 24  1  0  0  0  0
 23 28  1  0  0  0  0
 23 25  1  0  0  0  0
 26 31  1  0  0  0  0
 26 27  2  0  0  0  0
 28 26  1  0  0  0  0
 29 28  1  0  0  0  0
 30 37  2  0  0  0  0
 30 31  1  0  0  0  0
 31 32  2  0  0  0  0
 32 34  1  0  0  0  0
 32 33  1  0  0  0  0
 34 35  1  0  0  0  0
 36 34  2  0  0  0  0
 37 36  1  0  0  0  0
 38 39  3  0  0  0  0
 39 30  1  0  0  0  0
M  END
>  <minimizedAffinity>
-5.91493511

$$$$

 OpenBabel03242521193D

 39 41  0  0  0  0  0  0  0  0999 V2000
   40.0620   29.1770   37.2430 C   0  0  0  0  0  0  0  0  0  0  0  0
   40.1540   28.1030   37.5390 H   0  0  0  0  0  0  0  0  0  0  0  0
   39.9960   29.2420   36.1360 H   0  0  0  0  0  0  0  0  0  0  0  0
   36.8690   30.9490   38.0960 C   0  0  0  0  0  0  0  0  0  0  0  0
   36.6740   30.4880   39.4180 C   0  0  0  0  0  0  0  0  0  0  0  0
   37.6330   29.6150   39.9210 C   0  0  0  0  0  0  0  0  0  0  0  0
   38.6950   29.2530   39.1290 N   0  0  0  0  0  0  0  0  0  0  0  0
   38.8220   29.7250   37.8860 C   0  0  0  0  0  0  0  0  0  0  0  0
   37.9190   30.5790   37.3380 N   0  0  0  0  0  0  0  0  0  0  0  0
   36.1550   31.6320   37.6460 H   0  0  0  0  0  0  0  0  0  0  0  0
   35.8240   30.8020   39.9880 H   0  0  0  0  0  0  0  0  0  0  0  0
   37.4590   29.1340   41.2540 N   0  0  0  0  0  0  0  0  0  0  0  0
   36.6420   28.0730   41.4470 C   0  0  0  0  0  0  0  0  0  0  0  0
   36.4700   27.6070   42.7430 C   0  0  0  0  0  0  0  0  0  0  0  0
   37.1200   28.2260   43.7590 C   0  0  0  0  0  0  0  0  0  0  0  0
   36.9520   27.7860   44.9410 O   0  0  0  0  0  0  0  0  0  0  0  0
   37.9350   29.2800   43.5850 N   0  0  0  0  0  0  0  0  0  0  0  0
   38.0810   29.7120   42.3020 C   0  0  0  0  0  0  0  0  0  0  0  0
   38.8110   30.6820   42.0190 O   0  0  0  0  0  0  0  0  0  0  0  0
   36.1230   27.5780   40.6350 H   0  0  0  0  0  0  0  0  0  0  0  0
   35.8100   26.7500   42.8960 H   0  0  0  0  0  0  0  0  0  0  0  0
   38.4430   29.7670   44.3700 H   0  0  0  0  0  0  0  0  0  0  0  0
   41.2760   29.9710   37.6710 C   0  0  0  0  0  0  0  0  0  0  0  0
   41.7890   29.4940   38.5480 H   0  0  0  0  0  0  0  0  0  0  0  0
   41.9720   30.0540   36.8100 H   0  0  0  0  0  0  0  0  0  0  0  0
   41.1560   31.8600   39.2840 C   0  0  0  0  0  0  0  0  0  0  0  0
   41.9700   31.1710   39.9330 O   0  0  0  0  0  0  0  0  0  0  0  0
   40.8480   31.3190   38.0080 N   0  0  0  0  0  0  0  0  0  0  0  0
   40.3110   31.8540   37.2700 H   0  0  0  0  0  0  0  0  0  0  0  0
   41.2250   34.2800   39.4840 C   0  0  0  0  0  0  0  0  0  0  0  0
   40.4600   33.1110   39.5850 C   0  0  0  0  0  0  0  0  0  0  0  0
   39.1340   33.2080   39.9510 C   0  0  0  0  0  0  0  0  0  0  0  0
   38.5730   32.2960   40.0200 H   0  0  0  0  0  0  0  0  0  0  0  0
   38.6070   34.4620   40.2060 C   0  0  0  0  0  0  0  0  0  0  0  0
   37.5470   34.5440   40.4990 H   0  0  0  0  0  0  0  0  0  0  0  0
   39.3340   35.6350   40.1140 C   0  0  0  0  0  3  0  0  0  0  0  0
   40.6700   35.5290   39.7440 C   0  0  0  0  0  3  0  0  0  0  0  0
   43.7360   34.1610   38.8060 N   0  0  0  0  0  0  0  0  0  0  0  0
   42.6270   34.2240   39.1020 C   0  0  0  0  0  0  0  0  0  0  0  0
  1  2  1  0  0  0  0
  1 23  1  0  0  0  0
  1  8  1  0  0  0  0
  3  1  1  0  0  0  0
  4  5  1  0  0  0  0
  5  6  2  0  0  0  0
  5 11  1  0  0  0  0
  6 12  1  0  0  0  0
  7  6  1  0  0  0  0
  8  7  2  0  0  0  0
  9  8  1  0  0  0  0
  9  4  2  0  0  0  0
 10  4  1  0  0  0  0
 12 13  1  0  0  0  0
 12 18  1  0  0  0  0
 13 14  2  0  0  0  0
 14 21  1  0  0  0  0
 14 15  1  0  0  0  0
 15 16  2  0  0  0  0
 17 15  1  0  0  0  0
 17 22  1  0  0  0  0
 18 17  1  0  0  0  0
 19 18  2  0  0  0  0
 20 13  1  0  0  0  0
 23 28  1  0  0  0  0
 23 24  1  0  0  0  0
 25 23  1  0  0  0  0
 26 31  1  0  0  0  0
 26 27  2  0  0  0  0
 28 26  1  0  0  0  0
 29 28  1  0  0  0  0
 30 31  2  0  0  0  0
 30 37  1  0  0  0  0
 31 32  1  0  0  0  0
 32 33  1  0  0  0  0
 32 34  2  0  0  0  0
 34 35  1  0  0  0  0
 36 34  1  0  0  0  0
 37 36  2  0  0  0  0
 38 39  3  0  0  0  0
 39 30  1  0  0  0  0
M  END
>  <minimizedAffinity>
-5.91400194

$$$$

 OpenBabel03242521193D

 39 41  0  0  0  0  0  0  0  0999 V2000
   37.3510   27.7520   39.7810 C   0  0  0  0  0  0  0  0  0  0  0  0
   38.3210   27.8480   39.2330 H   0  0  0  0  0  0  0  0  0  0  0  0
   36.8200   26.8460   39.4210 H   0  0  0  0  0  0  0  0  0  0  0  0
   37.3210   27.7700   43.5310 C   0  0  0  0  0  0  0  0  0  0  0  0
   38.6300   27.3040   43.7930 C   0  0  0  0  0  0  0  0  0  0  0  0
   39.4220   27.0180   42.6860 C   0  0  0  0  0  0  0  0  0  0  0  0
   38.9080   27.2000   41.4250 N   0  0  0  0  0  0  0  0  0  0  0  0
   37.6610   27.6440   41.2450 C   0  0  0  0  0  0  0  0  0  0  0  0
   36.8380   27.9400   42.2850 N   0  0  0  0  0  0  0  0  0  0  0  0
   36.6530   28.0100   44.3530 H   0  0  0  0  0  0  0  0  0  0  0  0
   38.9760   27.1800   44.7970 H   0  0  0  0  0  0  0  0  0  0  0  0
   40.7480   26.5450   42.9230 N   0  0  0  0  0  0  0  0  0  0  0  0
   41.7140   27.4570   43.1790 C   0  0  0  0  0  0  0  0  0  0  0  0
   43.0040   26.9980   43.4070 C   0  0  0  0  0  0  0  0  0  0  0  0
   43.2470   25.6650   43.3660 C   0  0  0  0  0  0  0  0  0  0  0  0
   44.4350   25.2600   43.5780 O   0  0  0  0  0  0  0  0  0  0  0  0
   42.3000   24.7460   43.1140 N   0  0  0  0  0  0  0  0  0  0  0  0
   41.0460   25.2300   42.8950 C   0  0  0  0  0  0  0  0  0  0  0  0
   40.0880   24.4720   42.6510 O   0  0  0  0  0  0  0  0  0  0  0  0
   41.5190   28.5220   43.2120 H   0  0  0  0  0  0  0  0  0  0  0  0
   43.7820   27.7370   43.6120 H   0  0  0  0  0  0  0  0  0  0  0  0
   42.4820   23.7080   43.0800 H   0  0  0  0  0  0  0  0  0  0  0  0
   36.4510   28.9390   39.5160 C   0  0  0  0  0  0  0  0  0  0  0  0
   35.9680   28.8690   38.5050 H   0  0  0  0  0  0  0  0  0  0  0  0
   35.6820   28.9910   40.3140 H   0  0  0  0  0  0  0  0  0  0  0  0
   36.8710   31.1760   40.5160 C   0  0  0  0  0  0  0  0  0  0  0  0
   35.9760   30.8300   41.3150 O   0  0  0  0  0  0  0  0  0  0  0  0
   37.2490   30.1510   39.6110 N   0  0  0  0  0  0  0  0  0  0  0  0
   38.0990   30.2200   38.9840 H   0  0  0  0  0  0  0  0  0  0  0  0
   38.8520   32.5110   40.9620 C   0  0  0  0  0  0  0  0  0  0  0  0
   37.6030   32.4310   40.3360 C   0  0  0  0  0  0  0  0  0  0  0  0
   37.1490   33.5100   39.6070 C   0  0  0  0  0  0  0  0  0  0  0  0
   36.1880   33.4200   39.1380 H   0  0  0  0  0  0  0  0  0  0  0  0
   37.9500   34.6350   39.5200 C   0  0  0  0  0  0  0  0  0  0  0  0
   37.5910   35.5010   38.9380 H   0  0  0  0  0  0  0  0  0  0  0  0
   39.1890   34.7460   40.1260 C   0  0  0  0  0  3  0  0  0  0  0  0
   39.6390   33.6530   40.8590 C   0  0  0  0  0  3  0  0  0  0  0  0
   39.7720   30.5250   42.3730 N   0  0  0  0  0  0  0  0  0  0  0  0
   39.3690   31.3960   41.7410 C   0  0  0  0  0  0  0  0  0  0  0  0
  1  8  1  0  0  0  0
  2  1  1  0  0  0  0
  3  1  1  0  0  0  0
  4  5  1  0  0  0  0
  4 10  1  0  0  0  0
  5 11  1  0  0  0  0
  6 12  1  0  0  0  0
  6  5  2  0  0  0  0
  7  6  1  0  0  0  0
  8  7  2  0  0  0  0
  8  9  1  0  0  0  0
  9  4  2  0  0  0  0
 12 13  1  0  0  0  0
 13 20  1  0  0  0  0
 13 14  2  0  0  0  0
 14 21  1  0  0  0  0
 15 14  1  0  0  0  0
 15 16  2  0  0  0  0
 17 15  1  0  0  0  0
 18 12  1  0  0  0  0
 18 17  1  0  0  0  0
 19 18  2  0  0  0  0
 22 17  1  0  0  0  0
 23 28  1  0  0  0  0
 23  1  1  0  0  0  0
 23 25  1  0  0  0  0
 24 23  1  0  0  0  0
 26 27  2  0  0  0  0
 28 26  1  0  0  0  0
 29 28  1  0  0  0  0
 30 39  1  0  0  0  0
 31 26  1  0  0  0  0
 31 30  2  0  0  0  0
 32 31  1  0  0  0  0
 33 32  1  0  0  0  0
 34 32  2  0  0  0  0
 34 36  1  0  0  0  0
 35 34  1  0  0  0  0
 36 37  2  0  0  0  0
 37 30  1  0  0  0  0
 39 38  3  0  0  0  0
M  END
>  <minimizedAffinity>
-5.88960838

$$$$
