
     RDKit          3D

 41 43  0  0  0  0  0  0  0  0999 V2000
   44.5171   35.8258   44.8585 C   0  0  0  0  0  0  0  0  0  0  0  0
   45.1314   35.7694   43.5857 C   0  0  0  0  0  0  0  0  0  0  0  0
   46.0127   34.7158   43.3674 C   0  0  0  0  0  0  0  0  0  0  0  0
   46.2376   33.8063   44.3708 N   0  0  0  0  0  0  0  0  0  0  0  0
   45.6247   33.9161   45.5534 C   0  0  0  0  0  0  0  0  0  0  0  0
   44.7538   34.9219   45.8278 N   0  0  0  0  0  0  0  0  0  0  0  0
   46.6468   34.6364   42.0904 N   0  0  0  0  0  0  0  0  0  0  0  0
   47.8927   35.1474   41.9638 C   0  0  0  0  0  0  0  0  0  0  0  0
   48.5087   35.0727   40.7230 C   0  0  0  0  0  0  0  0  0  0  0  0
   47.8458   34.4950   39.6907 C   0  0  0  0  0  0  0  0  0  0  0  0
   48.4245   34.4337   38.5594 O   0  0  0  0  0  0  0  0  0  0  0  0
   46.6087   33.9818   39.7979 N   0  0  0  0  0  0  0  0  0  0  0  0
   46.0340   34.0722   41.0285 C   0  0  0  0  0  0  0  0  0  0  0  0
   44.8888   33.6309   41.2475 O   0  0  0  0  0  0  0  0  0  0  0  0
   46.0441   32.8009   46.4651 C   0  0  0  0  0  0  0  0  0  0  0  0
   45.2566   32.8480   47.7562 C   0  0  0  0  0  0  0  0  0  0  0  0
   45.1868   30.5899   48.7949 C   0  0  0  0  0  0  0  0  0  0  0  0
   46.1296   31.0333   49.4832 O   0  0  0  0  0  0  0  0  0  0  0  0
   44.6034   31.5633   47.9419 N   0  0  0  0  0  0  0  0  0  0  0  0
   43.8194   36.6245   45.0909 H   0  0  0  0  0  0  0  0  0  0  0  0
   44.9187   36.5082   42.8415 H   0  0  0  0  0  0  0  0  0  0  0  0
   48.4232   35.6084   42.7887 H   0  0  0  0  0  0  0  0  0  0  0  0
   49.5148   35.4872   40.6240 H   0  0  0  0  0  0  0  0  0  0  0  0
   46.0867   33.5325   39.0003 H   0  0  0  0  0  0  0  0  0  0  0  0
   45.8781   31.8372   45.9241 H   0  0  0  0  0  0  0  0  0  0  0  0
   47.1187   32.8884   46.7277 H   0  0  0  0  0  0  0  0  0  0  0  0
   45.9198   33.0783   48.6316 H   0  0  0  0  0  0  0  0  0  0  0  0
   44.4567   33.6112   47.6596 H   0  0  0  0  0  0  0  0  0  0  0  0
   43.6974   31.4015   47.4198 H   0  0  0  0  0  0  0  0  0  0  0  0
   43.5840   30.8380   45.6976 N   0  0  0  0  0  0  0  0  0  0  0  0
   43.6775   30.0338   46.5145 C   0  0  0  0  0  0  0  0  0  0  0  0
   43.8212   29.0167   47.5445 C   0  0  0  0  0  0  0  0  0  0  0  0
   44.5711   29.2659   48.6999 C   0  0  0  0  0  0  0  0  0  0  0  0
   44.6819   28.2746   49.6531 C   0  0  0  0  0  0  0  0  0  0  0  0
   45.2633   28.4941   50.5277 H   0  0  0  0  0  0  0  0  0  0  0  0
   44.0451   27.0666   49.4294 C   0  0  0  0  0  0  0  0  0  0  0  0
   44.1312   26.2712   50.1892 H   0  0  0  0  0  0  0  0  0  0  0  0
   43.2980   26.7892   48.2992 C   0  0  0  0  0  0  0  0  0  0  0  0
   43.1910   27.7931   47.3436 C   0  0  0  0  0  0  0  0  0  0  0  0
   42.8104   25.8275   48.1538 H   0  0  0  0  0  0  0  0  0  0  0  0
   42.6146   27.6129   46.4481 H   0  0  0  0  0  0  0  0  0  0  0  0
  1  6  2  0
  2  1  1  0
  3  2  2  0
  3  4  1  0
  4  5  2  0
  5  6  1  0
  5 15  1  0
  7  3  1  0
  8  7  1  0
  9  8  2  0
 10 12  1  0
 10  9  1  0
 11 10  2  0
 12 13  1  0
 13 14  2  0
 13  7  1  0
 15 16  1  0
 16 19  1  0
 17 18  2  0
 19 17  1  0
  1 20  1  0
  2 21  1  0
  8 22  1  0
  9 23  1  0
 12 24  1  0
 15 25  1  0
 15 26  1  0
 16 27  1  0
 16 28  1  0
 19 29  1  0
 30 31  3  0
 31 32  1  0
 32 33  2  0
 33 34  1  0
 34 35  1  0
 34 36  2  0
 36 37  1  0
 36 38  1  0
 38 39  2  0
 39 32  1  0
 38 40  1  0
 39 41  1  0
 17 33  1  0
M  ISO  8  20  14  21  14  22  14  23  14  24   9  25   8  26   8  27   8
M  ISO  3  28   8  35  15  37  16
M  END
>  <DihAtoms>  (1) 
17,16,32,31

>  <DihDeg>  (1) 
-55.769602237102944

$$$$
