
 OpenBabel03242521433D

 39 41  0  0  1  0  0  0  0  0999 V2000
   45.1950   36.4080   43.3390 C   0  0  0  0  0  0  0  0  0  0  0  0
   46.1600   35.4690   42.9430 C   0  0  0  0  0  0  0  0  0  0  0  0
   46.4130   34.3610   43.7640 C   0  0  0  0  0  0  0  0  0  0  0  0
   45.7110   34.2570   44.8920 N   0  0  0  0  0  0  0  0  0  0  0  0
   44.7830   35.1700   45.2620 C   0  0  0  0  0  0  0  0  0  0  0  0
   44.5240   36.2450   44.4860 N   0  0  0  0  0  0  0  0  0  0  0  0
   46.6480   35.6810   42.0040 H   0  0  0  0  0  0  0  0  0  0  0  0
   44.2870   34.9680   46.1980 H   0  0  0  0  0  0  0  0  0  0  0  0
   48.5930   34.0500   42.6130 C   0  0  2  0  0  0  0  0  0  0  0  0
   47.4220   33.4330   43.2940 C   0  0  2  0  0  0  0  0  0  0  0  0
   46.9720   32.5340   42.2850 O   0  0  0  0  0  0  0  0  0  0  0  0
   48.1260   31.8550   41.9600 C   0  0  0  0  0  0  0  0  0  0  0  0
   49.3120   32.7520   42.2000 C   0  0  1  0  0  0  0  0  0  0  0  0
   48.2760   34.5420   41.6510 H   0  0  0  0  0  0  0  0  0  0  0  0
   47.7970   32.7420   44.1010 H   0  0  0  0  0  0  0  0  0  0  0  0
   48.2200   30.8670   42.4860 H   0  0  0  0  0  0  0  0  0  0  0  0
   48.1050   31.6120   40.8760 H   0  0  0  0  0  0  0  0  0  0  0  0
   49.9490   32.4000   43.0120 H   0  0  0  0  0  0  0  0  0  0  0  0
   49.3520   34.8630   43.4020 O   0  0  0  0  0  0  0  0  0  0  0  0
   48.7290   35.4240   43.9180 H   0  0  0  0  0  0  0  0  0  0  0  0
   50.0680   33.0010   41.0610 O   0  0  0  0  0  0  0  0  0  0  0  0
   49.5010   33.3010   40.3140 H   0  0  0  0  0  0  0  0  0  0  0  0
   44.9420   37.5950   42.4530 C   0  0  0  0  0  0  0  0  0  0  0  0
   45.8480   37.8220   41.8730 H   0  0  0  0  0  0  0  0  0  0  0  0
   44.1010   37.3520   41.7710 H   0  0  0  0  0  0  0  0  0  0  0  0
   45.5280   39.7140   43.7730 C   0  0  0  0  0  0  0  0  0  0  0  0
   46.7380   39.6050   43.4250 O   0  0  0  0  0  0  0  0  0  0  0  0
   44.6300   38.7080   43.3430 N   0  0  0  0  0  0  0  0  0  0  0  0
   43.6430   38.7890   43.7150 H   0  0  0  0  0  0  0  0  0  0  0  0
   44.7410   40.4820   45.8940 C   0  0  0  0  0  0  0  0  0  0  0  0
   45.0610   40.8350   44.5880 C   0  0  0  0  0  0  0  0  0  0  0  0
   44.9130   42.1520   44.2090 C   0  0  0  0  0  0  0  0  0  0  0  0
   45.1780   42.3560   43.1860 H   0  0  0  0  0  0  0  0  0  0  0  0
   44.4570   43.0890   45.1120 C   0  0  0  0  0  0  0  0  0  0  0  0
   44.3480   44.1100   44.7950 H   0  0  0  0  0  0  0  0  0  0  0  0
   44.1270   42.7790   46.4210 C   0  0  0  0  0  3  0  0  0  0  0  0
   44.2860   41.4380   46.7800 C   0  0  0  0  0  3  0  0  0  0  0  0
   44.9510   38.0380   46.7780 N   0  0  0  0  0  0  0  0  0  0  0  0
   44.8600   39.1250   46.3960 C   0  0  0  0  0  0  0  0  0  0  0  0
  1  6  1  0  0  0  0
  2  1  2  0  0  0  0
  2  3  1  0  0  0  0
  3  4  2  0  0  0  0
  4  5  1  0  0  0  0
  5  8  1  0  0  0  0
  6  5  2  0  0  0  0
  7  2  1  0  0  0  0
  9 14  1  6  0  0  0
  9 10  1  0  0  0  0
  9 19  1  0  0  0  0
 10  3  1  0  0  0  0
 10 15  1  1  0  0  0
 11 10  1  0  0  0  0
 12 13  1  0  0  0  0
 12 11  1  0  0  0  0
 12 16  1  0  0  0  0
 13  9  1  0  0  0  0
 13 18  1  1  0  0  0
 17 12  1  0  0  0  0
 19 20  1  0  0  0  0
 21 13  1  0  0  0  0
 22 21  1  0  0  0  0
 23  1  1  0  0  0  0
 23 28  1  0  0  0  0
 24 23  1  0  0  0  0
 25 23  1  0  0  0  0
 26 31  1  0  0  0  0
 27 26  2  0  0  0  0
 28 29  1  0  0  0  0
 28 26  1  0  0  0  0
 30 39  1  0  0  0  0
 30 37  1  0  0  0  0
 31 30  2  0  0  0  0
 32 31  1  0  0  0  0
 32 34  2  0  0  0  0
 33 32  1  0  0  0  0
 34 36  1  0  0  0  0
 35 34  1  0  0  0  0
 36 37  2  0  0  0  0
 39 38  3  0  0  0  0
M  END
>  <minimizedAffinity>
1.04786098

>  <minimizedRMSD>
1.18433845

$$$$
