REMARK  Name = 
REMARK  6 active torsions:
REMARK  status: ('A' for Active; 'I' for Inactive)
REMARK    1  A    between atoms: C_1  and  C_7
REMARK    2  A    between atoms: C_3  and  C_10
REMARK    3  A    between atoms: C_10  and  C_11
REMARK    4  A    between atoms: C_11  and  N_14
REMARK    5  A    between atoms: C_12  and  C_30
REMARK    6  A    between atoms: C_28  and  C_29
REMARK                            x       y       z     vdW  Elec       q    Type
REMARK                         _______ _______ _______ _____ _____    ______ ____
ROOT
ATOM      1  C   UNL     1      41.077  35.751  39.191  0.00  0.00    +0.000 C 
ATOM      2  H   UNL     1      40.780  35.338  38.208  0.00  0.00    +0.000 HD
ATOM      3  H   UNL     1      41.339  36.835  39.062  0.00  0.00    +0.000 HD
ENDROOT
BRANCH   1   6
ATOM      4  C   UNL     1      43.971  34.577  41.291  0.00  0.00    +0.000 A 
ATOM      5  C   UNL     1      42.827  35.271  40.891  0.00  0.00    +0.000 A 
ATOM      6  C   UNL     1      42.294  35.031  39.632  0.00  0.00    +0.000 A 
ATOM      7  N   UNL     1      42.929  34.111  38.841  0.00  0.00    +0.000 NA
ATOM      8  C   UNL     1      44.041  33.455  39.268  0.00  0.00    +0.000 A 
ATOM      9  N   UNL     1      44.558  33.681  40.475  0.00  0.00    +0.000 NA
ATOM     10  H   UNL     1      42.403  35.980  41.578  0.00  0.00    +0.000 HD
ATOM     11  H   UNL     1      44.460  32.739  38.548  0.00  0.00    +0.000 HD
BRANCH   4  12
ATOM     12  C   UNL     1      44.551  34.850  42.633  0.00  0.00    +0.000 C 
ATOM     13  C   UNL     1      46.062  35.288  42.529  0.00  0.00    +0.000 C 
ATOM     14  C   UNL     1      44.986  36.130  43.068  0.00  0.00    +0.000 C 
ATOM     15  H   UNL     1      44.421  34.004  43.372  0.00  0.00    +0.000 HD
ATOM     16  H   UNL     1      46.462  35.485  41.537  0.00  0.00    +0.000 HD
ATOM     17  H   UNL     1      46.769  34.768  43.217  0.00  0.00    +0.000 HD
ATOM     18  H   UNL     1      44.631  37.015  42.468  0.00  0.00    +0.000 HD
ATOM     19  H   UNL     1      45.018  36.353  44.164  0.00  0.00    +0.000 HD
ENDBRANCH   4  12
ENDBRANCH   1   6
BRANCH   1  20
ATOM     20  C   UNL     1      39.971  35.643  40.205  0.00  0.00    +0.000 C 
ATOM     21  H   UNL     1      39.405  36.620  40.235  0.00  0.00    +0.000 HD
ATOM     22  H   UNL     1      40.416  35.553  41.196  0.00  0.00    +0.000 HD
BRANCH  20  25
ATOM     23  C   UNL     1      39.039  33.409  40.734  0.00  0.00    +0.000 C 
ATOM     24  O   UNL     1      39.773  33.322  41.772  0.00  0.00    +0.000 OA
ATOM     25  N   UNL     1      39.044  34.557  39.897  0.00  0.00    +0.000 N 
ATOM     26  H   UNL     1      38.388  34.574  39.095  0.00  0.00    +0.000 HD
BRANCH  23  28
ATOM     27  C   UNL     1      37.487  31.867  39.427  0.00  0.00    +0.000 A 
ATOM     28  C   UNL     1      38.234  32.208  40.550  0.00  0.00    +0.000 A 
ATOM     29  C   UNL     1      38.156  31.236  41.563  0.00  0.00    +0.000 A 
ATOM     30  H   UNL     1      38.751  31.488  42.462  0.00  0.00    +0.000 HD
ATOM     31  C   UNL     1      37.460  30.061  41.547  0.00  0.00    +0.000 A 
ATOM     32  H   UNL     1      37.515  29.426  42.405  0.00  0.00    +0.000 HD
ATOM     33  C   UNL     1      36.750  29.810  40.392  0.00  0.00    +0.000 A 
ATOM     34  C   UNL     1      36.768  30.706  39.346  0.00  0.00    +0.000 A 
BRANCH  27  36
ATOM     35  N   UNL     1      37.502  33.546  37.452  0.00  0.00    +0.000 NA
ATOM     36  C   UNL     1      37.496  32.801  38.342  0.00  0.00    +0.000 C 
ENDBRANCH  27  36
ENDBRANCH  23  28
ENDBRANCH  20  25
ENDBRANCH   1  20
TORSDOF 6
