
 OpenBabel03242520193D

 36 38  0  0  0  0  0  0  0  0999 V2000
   40.8100   35.7990   39.4750 C   0  0  0  0  0  0  0  0  0  0  0  0
   40.5510   35.5310   38.4330 H   0  0  0  0  0  0  0  0  0  0  0  0
   41.0070   36.9030   39.5250 H   0  0  0  0  0  0  0  0  0  0  0  0
   43.8350   34.6130   41.3740 C   0  0  0  0  0  0  0  0  0  0  0  0
   42.6580   35.2960   41.0610 C   0  0  0  0  0  0  0  0  0  0  0  0
   42.0620   35.0890   39.8240 C   0  0  0  0  0  0  0  0  0  0  0  0
   42.6710   34.2110   38.9680 N   0  0  0  0  0  0  0  0  0  0  0  0
   43.8160   33.5640   39.3110 C   0  0  0  0  0  0  0  0  0  0  0  0
   44.3940   33.7580   40.4960 N   0  0  0  0  0  0  0  0  0  0  0  0
   42.2580   35.9720   41.7940 H   0  0  0  0  0  0  0  0  0  0  0  0
   44.2090   32.8820   38.5450 H   0  0  0  0  0  0  0  0  0  0  0  0
   44.4810   34.8510   42.6920 C   0  0  0  0  0  0  0  0  0  0  0  0
   45.9930   35.2680   42.5250 C   0  0  0  0  0  0  0  0  0  0  0  0
   44.9570   36.1160   43.1300 C   0  0  0  0  0  0  0  0  0  0  0  0
   44.3730   33.9930   43.4200 H   0  0  0  0  0  0  0  0  0  0  0  0
   46.3490   35.4780   41.5190 H   0  0  0  0  0  0  0  0  0  0  0  0
   46.7230   34.7240   43.1690 H   0  0  0  0  0  0  0  0  0  0  0  0
   44.5880   37.0170   42.5630 H   0  0  0  0  0  0  0  0  0  0  0  0
   45.0440   36.3170   44.2270 H   0  0  0  0  0  0  0  0  0  0  0  0
   39.6990   35.4660   40.4340 C   0  0  0  0  0  0  0  0  0  0  0  0
   38.9640   36.3240   40.4550 H   0  0  0  0  0  0  0  0  0  0  0  0
   40.1090   35.4320   41.4430 H   0  0  0  0  0  0  0  0  0  0  0  0
   39.1910   33.0790   40.8590 C   0  0  0  0  0  0  0  0  0  0  0  0
   39.9060   33.0900   41.9130 O   0  0  0  0  0  0  0  0  0  0  0  0
   38.9980   34.2400   40.0630 N   0  0  0  0  0  0  0  0  0  0  0  0
   38.3670   34.1660   39.2440 H   0  0  0  0  0  0  0  0  0  0  0  0
   38.2670   31.2200   39.3800 C   0  0  0  0  0  0  0  0  0  0  0  0
   38.6290   31.7570   40.6110 C   0  0  0  0  0  0  0  0  0  0  0  0
   38.4030   30.8640   41.6750 C   0  0  0  0  0  0  0  0  0  0  0  0
   38.6920   31.2720   42.6610 H   0  0  0  0  0  0  0  0  0  0  0  0
   37.8960   29.5980   41.6130 C   0  0  0  0  0  0  0  0  0  0  0  0
   37.7960   29.0460   42.5220 H   0  0  0  0  0  0  0  0  0  0  0  0
   37.5660   29.1530   40.3500 C   0  0  0  0  0  3  0  0  0  0  0  0
   37.7540   29.9590   39.2480 C   0  0  0  0  0  3  0  0  0  0  0  0
   38.6040   32.7270   37.2970 N   0  0  0  0  0  0  0  0  0  0  0  0
   38.4510   32.0600   38.2350 C   0  0  0  0  0  0  0  0  0  0  0  0
  1  3  1  0  0  0  0
  1  6  1  0  0  0  0
  1 20  1  0  0  0  0
  2  1  1  0  0  0  0
  4 12  1  0  0  0  0
  5  4  1  0  0  0  0
  5 10  1  0  0  0  0
  6  5  2  0  0  0  0
  7  8  2  0  0  0  0
  7  6  1  0  0  0  0
  8  9  1  0  0  0  0
  9  4  2  0  0  0  0
 11  8  1  0  0  0  0
 12 14  1  0  0  0  0
 12 15  1  0  0  0  0
 13 12  1  0  0  0  0
 13 14  1  0  0  0  0
 13 17  1  0  0  0  0
 14 19  1  0  0  0  0
 16 13  1  0  0  0  0
 18 14  1  0  0  0  0
 20 21  1  0  0  0  0
 20 22  1  0  0  0  0
 23 24  2  0  0  0  0
 25 20  1  0  0  0  0
 25 23  1  0  0  0  0
 26 25  1  0  0  0  0
 27 28  1  0  0  0  0
 28 23  1  0  0  0  0
 28 29  2  0  0  0  0
 29 30  1  0  0  0  0
 31 29  1  0  0  0  0
 31 32  1  0  0  0  0
 33 31  2  0  0  0  0
 34 27  2  0  0  0  0
 34 33  1  0  0  0  0
 35 36  3  0  0  0  0
 36 27  1  0  0  0  0
M  END
>  <minimizedAffinity>
-5.09124756

>  <minimizedRMSD>
0.819191098

$$$$
