
 OpenBabel03252501333D

 25 26  0  0  0  0  0  0  0  0999 V2000
   37.0860   27.9540   40.0450 C   0  0  0  0  0  0  0  0  0  0  0  0
   38.1670   28.6140   40.1320 O   0  0  0  0  0  0  0  0  0  0  0  0
   36.0080   28.7260   39.5230 N   0  0  0  0  0  0  0  0  0  0  0  0
   35.0900   28.2990   39.4000 H   0  0  0  0  0  0  0  0  0  0  0  0
   36.4980   30.0650   39.2580 C   0  0  0  0  0  0  0  0  0  0  0  0
   36.4870   31.1250   40.1680 C   0  0  0  0  0  0  0  0  0  0  0  0
   37.0020   32.3240   39.7150 C   0  0  0  0  0  0  0  0  0  0  0  0
   37.4680   32.3900   38.4610 N   0  0  0  0  0  0  0  0  0  0  0  0
   37.4700   31.3630   37.6050 C   0  0  0  0  0  0  0  0  0  0  0  0
   36.9790   30.1860   38.0070 N   0  0  0  0  0  0  0  0  0  0  0  0
   36.9890   33.1300   40.4190 H   0  0  0  0  0  0  0  0  0  0  0  0
   37.8400   31.3920   36.5890 H   0  0  0  0  0  0  0  0  0  0  0  0
   35.9510   30.8490   41.4450 N   0  0  0  0  0  0  0  0  0  0  0  0
   36.1850   30.0220   42.0330 H   0  0  0  0  0  0  0  0  0  0  0  0
   35.2680   31.5650   41.7810 H   0  0  0  0  0  0  0  0  0  0  0  0
   36.9750   26.3790   41.8110 C   0  0  0  0  0  0  0  0  0  0  0  0
   36.9840   26.5560   40.4430 C   0  0  0  0  0  0  0  0  0  0  0  0
   36.9100   25.5800   39.5060 C   0  0  0  0  0  0  0  0  0  0  0  0
   36.9200   25.7490   38.4430 H   0  0  0  0  0  0  0  0  0  0  0  0
   36.8150   24.2600   39.9600 C   0  0  0  0  0  0  0  0  0  0  0  0
   36.7510   23.3900   39.3170 H   0  0  0  0  0  0  0  0  0  0  0  0
   36.8080   24.1000   41.3310 C   0  0  0  0  0  3  0  0  0  0  0  0
   36.8820   25.0730   42.2900 C   0  0  0  0  0  3  0  0  0  0  0  0
   37.1320   28.3320   43.5170 N   0  0  0  0  0  0  0  0  0  0  0  0
   37.0560   27.4510   42.7620 C   0  0  0  0  0  0  0  0  0  0  0  0
  1  2  2  0  0  0  0
  1 17  1  0  0  0  0
  3  1  1  0  0  0  0
  4  3  1  0  0  0  0
  5  3  1  0  0  0  0
  5  6  1  0  0  0  0
  6 13  1  0  0  0  0
  7  6  2  0  0  0  0
  7 11  1  0  0  0  0
  8  7  1  0  0  0  0
  9 10  1  0  0  0  0
  9  8  2  0  0  0  0
 10  5  2  0  0  0  0
 12  9  1  0  0  0  0
 13 15  1  0  0  0  0
 13 14  1  0  0  0  0
 16 23  1  0  0  0  0
 16 25  1  0  0  0  0
 17 16  2  0  0  0  0
 18 20  2  0  0  0  0
 18 17  1  0  0  0  0
 19 18  1  0  0  0  0
 20 22  1  0  0  0  0
 21 20  1  0  0  0  0
 22 23  2  0  0  0  0
 25 24  3  0  0  0  0
M  END
>  <minimizedAffinity>
-5.23365545

$$$$

 OpenBabel03252501333D

 25 26  0  0  0  0  0  0  0  0999 V2000
   39.5670   30.3770   41.6270 C   0  0  0  0  0  0  0  0  0  0  0  0
   39.7730   30.3970   40.3740 O   0  0  0  0  0  0  0  0  0  0  0  0
   39.9260   31.5990   42.2650 N   0  0  0  0  0  0  0  0  0  0  0  0
   39.7970   31.7040   43.2710 H   0  0  0  0  0  0  0  0  0  0  0  0
   40.4370   32.5040   41.2540 C   0  0  0  0  0  0  0  0  0  0  0  0
   39.6640   33.3810   40.4880 C   0  0  0  0  0  0  0  0  0  0  0  0
   40.3480   34.1600   39.5750 C   0  0  0  0  0  0  0  0  0  0  0  0
   41.6790   34.0280   39.4870 N   0  0  0  0  0  0  0  0  0  0  0  0
   42.4010   33.1830   40.2310 C   0  0  0  0  0  0  0  0  0  0  0  0
   41.7740   32.4120   41.1240 N   0  0  0  0  0  0  0  0  0  0  0  0
   39.7470   34.8280   38.9930 H   0  0  0  0  0  0  0  0  0  0  0  0
   43.4740   33.0590   40.1770 H   0  0  0  0  0  0  0  0  0  0  0  0
   38.2740   33.3680   40.7330 N   0  0  0  0  0  0  0  0  0  0  0  0
   37.8250   33.4020   41.6730 H   0  0  0  0  0  0  0  0  0  0  0  0
   37.6910   33.3210   39.8670 H   0  0  0  0  0  0  0  0  0  0  0  0
   37.6450   29.1510   42.2710 C   0  0  0  0  0  0  0  0  0  0  0  0
   39.0230   29.2150   42.3160 C   0  0  0  0  0  0  0  0  0  0  0  0
   39.8480   28.3270   42.9200 C   0  0  0  0  0  0  0  0  0  0  0  0
   40.9210   28.4030   42.9400 H   0  0  0  0  0  0  0  0  0  0  0  0
   39.2550   27.2350   43.5650 C   0  0  0  0  0  0  0  0  0  0  0  0
   39.8010   26.4560   44.0850 H   0  0  0  0  0  0  0  0  0  0  0  0
   37.8770   27.1870   43.5110 C   0  0  0  0  0  3  0  0  0  0  0  0
   37.0290   28.0740   42.9060 C   0  0  0  0  0  3  0  0  0  0  0  0
   36.1580   30.9090   41.0660 N   0  0  0  0  0  0  0  0  0  0  0  0
   36.8160   30.1230   41.6140 C   0  0  0  0  0  0  0  0  0  0  0  0
  1  3  1  0  0  0  0
  1 17  1  0  0  0  0
  2  1  2  0  0  0  0
  3  4  1  0  0  0  0
  5  3  1  0  0  0  0
  6 13  1  0  0  0  0
  6  5  2  0  0  0  0
  7  6  1  0  0  0  0
  8  7  2  0  0  0  0
  8  9  1  0  0  0  0
  9 10  2  0  0  0  0
 10  5  1  0  0  0  0
 11  7  1  0  0  0  0
 12  9  1  0  0  0  0
 13 14  1  0  0  0  0
 15 13  1  0  0  0  0
 16 17  2  0  0  0  0
 16 23  1  0  0  0  0
 17 18  1  0  0  0  0
 18 19  1  0  0  0  0
 18 20  2  0  0  0  0
 20 21  1  0  0  0  0
 22 20  1  0  0  0  0
 23 22  2  0  0  0  0
 24 25  3  0  0  0  0
 25 16  1  0  0  0  0
M  END
>  <minimizedAffinity>
-5.10109234

$$$$

 OpenBabel03252501333D

 25 26  0  0  0  0  0  0  0  0999 V2000
   37.0340   27.9710   40.1310 C   0  0  0  0  0  0  0  0  0  0  0  0
   38.1080   28.6310   40.2740 O   0  0  0  0  0  0  0  0  0  0  0  0
   35.9970   28.7300   39.5150 N   0  0  0  0  0  0  0  0  0  0  0  0
   35.0880   28.3010   39.3410 H   0  0  0  0  0  0  0  0  0  0  0  0
   36.5080   30.0600   39.2470 C   0  0  0  0  0  0  0  0  0  0  0  0
   36.4550   31.1400   40.1320 C   0  0  0  0  0  0  0  0  0  0  0  0
   37.0000   32.3270   39.6800 C   0  0  0  0  0  0  0  0  0  0  0  0
   37.5340   32.3620   38.4510 N   0  0  0  0  0  0  0  0  0  0  0  0
   37.5750   31.3160   37.6200 C   0  0  0  0  0  0  0  0  0  0  0  0
   37.0570   30.1510   38.0210 N   0  0  0  0  0  0  0  0  0  0  0  0
   36.9550   33.1480   40.3650 H   0  0  0  0  0  0  0  0  0  0  0  0
   37.9990   31.3210   36.6250 H   0  0  0  0  0  0  0  0  0  0  0  0
   35.8490   30.8960   41.3830 N   0  0  0  0  0  0  0  0  0  0  0  0
   36.0460   30.0810   42.0010 H   0  0  0  0  0  0  0  0  0  0  0  0
   35.1540   31.6220   41.6660 H   0  0  0  0  0  0  0  0  0  0  0  0
   36.5770   25.7250   39.5290 C   0  0  0  0  0  0  0  0  0  0  0  0
   36.9000   26.5850   40.5590 C   0  0  0  0  0  0  0  0  0  0  0  0
   37.0850   26.2480   41.8580 C   0  0  0  0  0  0  0  0  0  0  0  0
   37.3360   26.9420   42.6410 H   0  0  0  0  0  0  0  0  0  0  0  0
   36.9380   24.8990   42.1990 C   0  0  0  0  0  0  0  0  0  0  0  0
   37.0590   24.4990   43.1990 H   0  0  0  0  0  0  0  0  0  0  0  0
   36.6160   24.0530   41.1570 C   0  0  0  0  0  3  0  0  0  0  0  0
   36.4250   24.3750   39.8410 C   0  0  0  0  0  3  0  0  0  0  0  0
   36.2310   26.4510   37.0580 N   0  0  0  0  0  0  0  0  0  0  0  0
   36.3920   26.1370   38.1660 C   0  0  0  0  0  0  0  0  0  0  0  0
  1  2  2  0  0  0  0
  1 17  1  0  0  0  0
  3  1  1  0  0  0  0
  4  3  1  0  0  0  0
  5  3  1  0  0  0  0
  5  6  1  0  0  0  0
  6 13  1  0  0  0  0
  7  6  2  0  0  0  0
  7 11  1  0  0  0  0
  8  7  1  0  0  0  0
  9 10  1  0  0  0  0
  9  8  2  0  0  0  0
 10  5  2  0  0  0  0
 12  9  1  0  0  0  0
 13 15  1  0  0  0  0
 13 14  1  0  0  0  0
 16 23  2  0  0  0  0
 16 17  1  0  0  0  0
 17 18  2  0  0  0  0
 18 20  1  0  0  0  0
 18 19  1  0  0  0  0
 20 21  1  0  0  0  0
 22 20  2  0  0  0  0
 23 22  1  0  0  0  0
 24 25  3  0  0  0  0
 25 16  1  0  0  0  0
M  END
>  <minimizedAffinity>
-5.00328922

$$$$

 OpenBabel03252501333D

 25 26  0  0  0  0  0  0  0  0999 V2000
   38.0170   28.0450   41.4100 C   0  0  0  0  0  0  0  0  0  0  0  0
   38.2980   28.4890   40.2540 O   0  0  0  0  0  0  0  0  0  0  0  0
   37.6830   29.0780   42.3320 N   0  0  0  0  0  0  0  0  0  0  0  0
   37.4320   28.8410   43.2910 H   0  0  0  0  0  0  0  0  0  0  0  0
   37.7820   30.3500   41.6420 C   0  0  0  0  0  0  0  0  0  0  0  0
   36.7460   30.9720   40.9410 C   0  0  0  0  0  0  0  0  0  0  0  0
   37.0490   32.1850   40.3520 C   0  0  0  0  0  0  0  0  0  0  0  0
   38.2890   32.6730   40.4900 N   0  0  0  0  0  0  0  0  0  0  0  0
   39.2670   32.0630   41.1660 C   0  0  0  0  0  0  0  0  0  0  0  0
   39.0120   30.8870   41.7490 N   0  0  0  0  0  0  0  0  0  0  0  0
   36.2490   32.6530   39.8180 H   0  0  0  0  0  0  0  0  0  0  0  0
   40.2740   32.4370   41.2900 H   0  0  0  0  0  0  0  0  0  0  0  0
   35.5100   30.2900   40.9140 N   0  0  0  0  0  0  0  0  0  0  0  0
   35.0320   29.8720   41.7400 H   0  0  0  0  0  0  0  0  0  0  0  0
   35.0810   30.2280   39.9630 H   0  0  0  0  0  0  0  0  0  0  0  0
   39.1820   26.2400   42.4100 C   0  0  0  0  0  0  0  0  0  0  0  0
   38.0420   26.6250   41.7340 C   0  0  0  0  0  0  0  0  0  0  0  0
   37.0120   25.8220   41.3740 C   0  0  0  0  0  0  0  0  0  0  0  0
   36.1340   26.1510   40.8460 H   0  0  0  0  0  0  0  0  0  0  0  0
   37.1030   24.4680   41.7170 C   0  0  0  0  0  0  0  0  0  0  0  0
   36.3510   23.7220   41.4880 H   0  0  0  0  0  0  0  0  0  0  0  0
   38.2490   24.1000   42.3920 C   0  0  0  0  0  3  0  0  0  0  0  0
   39.2980   24.8960   42.7630 C   0  0  0  0  0  3  0  0  0  0  0  0
   41.1080   27.8670   43.0360 N   0  0  0  0  0  0  0  0  0  0  0  0
   40.2450   27.1360   42.7670 C   0  0  0  0  0  0  0  0  0  0  0  0
  1 17  1  0  0  0  0
  1  3  1  0  0  0  0
  2  1  2  0  0  0  0
  3  4  1  0  0  0  0
  5 10  1  0  0  0  0
  5  3  1  0  0  0  0
  6  5  2  0  0  0  0
  7  8  2  0  0  0  0
  7  6  1  0  0  0  0
  8  9  1  0  0  0  0
  9 12  1  0  0  0  0
  9 10  2  0  0  0  0
 11  7  1  0  0  0  0
 13  6  1  0  0  0  0
 13 14  1  0  0  0  0
 15 13  1  0  0  0  0
 16 23  1  0  0  0  0
 16 25  1  0  0  0  0
 17 16  2  0  0  0  0
 18 20  2  0  0  0  0
 18 17  1  0  0  0  0
 19 18  1  0  0  0  0
 20 22  1  0  0  0  0
 21 20  1  0  0  0  0
 22 23  2  0  0  0  0
 25 24  3  0  0  0  0
M  END
>  <minimizedAffinity>
-4.96511507

$$$$

 OpenBabel03252501333D

 25 26  0  0  0  0  0  0  0  0999 V2000
   38.7700   29.4100   41.1320 C   0  0  0  0  0  0  0  0  0  0  0  0
   38.9730   29.7290   39.9200 O   0  0  0  0  0  0  0  0  0  0  0  0
   38.7090   30.5410   41.9980 N   0  0  0  0  0  0  0  0  0  0  0  0
   38.5420   30.4080   42.9950 H   0  0  0  0  0  0  0  0  0  0  0  0
   38.9130   31.7330   41.1990 C   0  0  0  0  0  0  0  0  0  0  0  0
   37.9100   32.4470   40.5400 C   0  0  0  0  0  0  0  0  0  0  0  0
   38.3180   33.5600   39.8290 C   0  0  0  0  0  0  0  0  0  0  0  0
   39.6200   33.8750   39.8210 N   0  0  0  0  0  0  0  0  0  0  0  0
   40.5660   33.1790   40.4600 C   0  0  0  0  0  0  0  0  0  0  0  0
   40.2100   32.0950   41.1570 N   0  0  0  0  0  0  0  0  0  0  0  0
   37.5420   34.1000   39.3270 H   0  0  0  0  0  0  0  0  0  0  0  0
   41.6220   33.4130   40.4680 H   0  0  0  0  0  0  0  0  0  0  0  0
   36.5960   31.9490   40.6730 N   0  0  0  0  0  0  0  0  0  0  0  0
   36.1460   31.6620   41.5680 H   0  0  0  0  0  0  0  0  0  0  0  0
   36.0740   31.8830   39.7700 H   0  0  0  0  0  0  0  0  0  0  0  0
   37.3150   27.5810   41.5160 C   0  0  0  0  0  0  0  0  0  0  0  0
   38.6190   28.0290   41.5660 C   0  0  0  0  0  0  0  0  0  0  0  0
   39.6990   27.3150   41.9690 C   0  0  0  0  0  0  0  0  0  0  0  0
   40.7060   27.6920   41.9980 H   0  0  0  0  0  0  0  0  0  0  0  0
   39.4800   25.9940   42.3750 C   0  0  0  0  0  0  0  0  0  0  0  0
   40.2540   25.3180   42.7190 H   0  0  0  0  0  0  0  0  0  0  0  0
   38.1700   25.5620   42.3190 C   0  0  0  0  0  3  0  0  0  0  0  0
   37.0690   26.2680   41.9160 C   0  0  0  0  0  3  0  0  0  0  0  0
   35.2940   29.0160   40.7370 N   0  0  0  0  0  0  0  0  0  0  0  0
   36.2060   28.3810   41.0800 C   0  0  0  0  0  0  0  0  0  0  0  0
  1 17  1  0  0  0  0
  1  3  1  0  0  0  0
  2  1  2  0  0  0  0
  3  4  1  0  0  0  0
  5  3  1  0  0  0  0
  6 13  1  0  0  0  0
  6  5  2  0  0  0  0
  7  6  1  0  0  0  0
  8  7  2  0  0  0  0
  8  9  1  0  0  0  0
  9 12  1  0  0  0  0
  9 10  2  0  0  0  0
 10  5  1  0  0  0  0
 11  7  1  0  0  0  0
 13 14  1  0  0  0  0
 15 13  1  0  0  0  0
 16 17  2  0  0  0  0
 16 23  1  0  0  0  0
 17 18  1  0  0  0  0
 18 19  1  0  0  0  0
 18 20  2  0  0  0  0
 20 21  1  0  0  0  0
 22 20  1  0  0  0  0
 23 22  2  0  0  0  0
 24 25  3  0  0  0  0
 25 16  1  0  0  0  0
M  END
>  <minimizedAffinity>
-4.77068949

$$$$

 OpenBabel03252501333D

 25 26  0  0  0  0  0  0  0  0999 V2000
   38.4990   31.2880   39.5710 C   0  0  0  0  0  0  0  0  0  0  0  0
   38.4450   32.5490   39.7140 O   0  0  0  0  0  0  0  0  0  0  0  0
   39.8040   30.8260   39.2340 N   0  0  0  0  0  0  0  0  0  0  0  0
   39.9700   29.8280   39.1010 H   0  0  0  0  0  0  0  0  0  0  0  0
   40.6830   31.9750   39.1480 C   0  0  0  0  0  0  0  0  0  0  0  0
   40.8740   32.7640   38.0110 C   0  0  0  0  0  0  0  0  0  0  0  0
   41.7600   33.8170   38.1400 C   0  0  0  0  0  0  0  0  0  0  0  0
   42.3630   34.0080   39.3210 N   0  0  0  0  0  0  0  0  0  0  0  0
   42.1660   33.2420   40.3980 C   0  0  0  0  0  0  0  0  0  0  0  0
   41.3170   32.2130   40.3120 N   0  0  0  0  0  0  0  0  0  0  0  0
   41.8990   34.4160   37.2640 H   0  0  0  0  0  0  0  0  0  0  0  0
   42.6410   33.3760   41.3610 H   0  0  0  0  0  0  0  0  0  0  0  0
   40.1420   32.3950   36.8620 N   0  0  0  0  0  0  0  0  0  0  0  0
   39.1250   32.1720   36.8390 H   0  0  0  0  0  0  0  0  0  0  0  0
   40.7150   32.3570   35.9890 H   0  0  0  0  0  0  0  0  0  0  0  0
   37.2820   29.8200   40.9760 C   0  0  0  0  0  0  0  0  0  0  0  0
   37.3360   30.4280   39.7380 C   0  0  0  0  0  0  0  0  0  0  0  0
   36.4380   30.2860   38.7340 C   0  0  0  0  0  0  0  0  0  0  0  0
   36.5060   30.7740   37.7770 H   0  0  0  0  0  0  0  0  0  0  0  0
   35.3450   29.4420   38.9640 C   0  0  0  0  0  0  0  0  0  0  0  0
   34.5590   29.2420   38.2450 H   0  0  0  0  0  0  0  0  0  0  0  0
   35.3070   28.8420   40.2060 C   0  0  0  0  0  3  0  0  0  0  0  0
   36.2040   28.9730   41.2310 C   0  0  0  0  0  3  0  0  0  0  0  0
   39.0710   30.1420   42.8320 N   0  0  0  0  0  0  0  0  0  0  0  0
   38.2630   30.0060   42.0070 C   0  0  0  0  0  0  0  0  0  0  0  0
  1  2  2  0  0  0  0
  1 17  1  0  0  0  0
  3  1  1  0  0  0  0
  4  3  1  0  0  0  0
  5  3  1  0  0  0  0
  5 10  1  0  0  0  0
  6  7  1  0  0  0  0
  6  5  2  0  0  0  0
  7  8  2  0  0  0  0
  8  9  1  0  0  0  0
  9 12  1  0  0  0  0
 10  9  2  0  0  0  0
 11  7  1  0  0  0  0
 13  6  1  0  0  0  0
 14 13  1  0  0  0  0
 15 13  1  0  0  0  0
 16 23  1  0  0  0  0
 16 25  1  0  0  0  0
 17 16  2  0  0  0  0
 18 20  2  0  0  0  0
 18 17  1  0  0  0  0
 19 18  1  0  0  0  0
 20 22  1  0  0  0  0
 21 20  1  0  0  0  0
 22 23  2  0  0  0  0
 25 24  3  0  0  0  0
M  END
>  <minimizedAffinity>
-4.76613712

$$$$

 OpenBabel03252501333D

 25 26  0  0  0  0  0  0  0  0999 V2000
   38.8650   30.2240   40.8360 C   0  0  0  0  0  0  0  0  0  0  0  0
   40.1320   30.3010   40.8130 O   0  0  0  0  0  0  0  0  0  0  0  0
   38.2370   31.2030   40.0120 N   0  0  0  0  0  0  0  0  0  0  0  0
   37.2200   31.2340   39.9450 H   0  0  0  0  0  0  0  0  0  0  0  0
   39.2750   32.0080   39.3960 C   0  0  0  0  0  0  0  0  0  0  0  0
   39.8610   33.1430   39.9630 C   0  0  0  0  0  0  0  0  0  0  0  0
   40.8350   33.7680   39.2080 C   0  0  0  0  0  0  0  0  0  0  0  0
   41.1460   33.2560   38.0100 N   0  0  0  0  0  0  0  0  0  0  0  0
   40.5740   32.1680   37.4860 C   0  0  0  0  0  0  0  0  0  0  0  0
   39.6270   31.5360   38.1860 N   0  0  0  0  0  0  0  0  0  0  0  0
   41.2780   34.6370   39.6510 H   0  0  0  0  0  0  0  0  0  0  0  0
   40.8090   31.7370   36.5220 H   0  0  0  0  0  0  0  0  0  0  0  0
   39.3900   33.5200   41.2390 N   0  0  0  0  0  0  0  0  0  0  0  0
   39.2610   32.8790   42.0500 H   0  0  0  0  0  0  0  0  0  0  0  0
   39.1670   34.5380   41.3240 H   0  0  0  0  0  0  0  0  0  0  0  0
   37.5590   28.2480   40.8650 C   0  0  0  0  0  0  0  0  0  0  0  0
   38.1510   29.2330   41.6290 C   0  0  0  0  0  0  0  0  0  0  0  0
   38.1130   29.3330   42.9790 C   0  0  0  0  0  0  0  0  0  0  0  0
   38.5850   30.1150   43.5490 H   0  0  0  0  0  0  0  0  0  0  0  0
   37.4070   28.3460   43.6770 C   0  0  0  0  0  0  0  0  0  0  0  0
   37.3000   28.3110   44.7550 H   0  0  0  0  0  0  0  0  0  0  0  0
   36.8220   27.3690   42.8980 C   0  0  0  0  0  3  0  0  0  0  0  0
   36.8490   27.2520   41.5350 C   0  0  0  0  0  3  0  0  0  0  0  0
   37.6670   28.1420   38.2710 N   0  0  0  0  0  0  0  0  0  0  0  0
   37.6310   28.1890   39.4320 C   0  0  0  0  0  0  0  0  0  0  0  0
  1 17  1  0  0  0  0
  2  1  2  0  0  0  0
  3  1  1  0  0  0  0
  4  3  1  0  0  0  0
  5  6  1  0  0  0  0
  5  3  1  0  0  0  0
  6 13  1  0  0  0  0
  7 11  1  0  0  0  0
  7  6  2  0  0  0  0
  8  7  1  0  0  0  0
  9  8  2  0  0  0  0
  9 10  1  0  0  0  0
 10  5  2  0  0  0  0
 12  9  1  0  0  0  0
 13 15  1  0  0  0  0
 13 14  1  0  0  0  0
 16 23  2  0  0  0  0
 16 17  1  0  0  0  0
 17 18  2  0  0  0  0
 18 19  1  0  0  0  0
 18 20  1  0  0  0  0
 20 21  1  0  0  0  0
 22 20  2  0  0  0  0
 23 22  1  0  0  0  0
 24 25  3  0  0  0  0
 25 16  1  0  0  0  0
M  END
>  <minimizedAffinity>
-4.71340513

$$$$

 OpenBabel03252501333D

 25 26  0  0  0  0  0  0  0  0999 V2000
   38.9750   30.3240   41.4500 C   0  0  0  0  0  0  0  0  0  0  0  0
   39.2040   29.3210   40.7070 O   0  0  0  0  0  0  0  0  0  0  0  0
   38.7960   29.9690   42.8190 N   0  0  0  0  0  0  0  0  0  0  0  0
   38.6140   30.6940   43.5120 H   0  0  0  0  0  0  0  0  0  0  0  0
   38.9260   28.5290   42.9330 C   0  0  0  0  0  0  0  0  0  0  0  0
   37.8840   27.6090   42.7870 C   0  0  0  0  0  0  0  0  0  0  0  0
   38.2210   26.2770   42.9360 C   0  0  0  0  0  0  0  0  0  0  0  0
   39.4960   25.9630   43.2020 N   0  0  0  0  0  0  0  0  0  0  0  0
   40.4790   26.8590   43.3360 C   0  0  0  0  0  0  0  0  0  0  0  0
   40.1920   28.1570   43.2010 N   0  0  0  0  0  0  0  0  0  0  0  0
   37.4160   25.5800   42.8220 H   0  0  0  0  0  0  0  0  0  0  0  0
   41.5140   26.6290   43.5510 H   0  0  0  0  0  0  0  0  0  0  0  0
   36.6090   28.1460   42.5080 N   0  0  0  0  0  0  0  0  0  0  0  0
   36.4020   28.8680   41.7860 H   0  0  0  0  0  0  0  0  0  0  0  0
   35.8440   27.7520   43.1020 H   0  0  0  0  0  0  0  0  0  0  0  0
   37.6620   32.0190   40.4430 C   0  0  0  0  0  0  0  0  0  0  0  0
   38.9070   31.6850   40.9350 C   0  0  0  0  0  0  0  0  0  0  0  0
   40.0000   32.4860   40.9670 C   0  0  0  0  0  0  0  0  0  0  0  0
   40.9600   32.1970   41.3570 H   0  0  0  0  0  0  0  0  0  0  0  0
   39.8620   33.7800   40.4530 C   0  0  0  0  0  0  0  0  0  0  0  0
   40.6560   34.5170   40.4190 H   0  0  0  0  0  0  0  0  0  0  0  0
   38.6110   34.0980   39.9660 C   0  0  0  0  0  3  0  0  0  0  0  0
   37.4980   33.3030   39.9250 C   0  0  0  0  0  3  0  0  0  0  0  0
   35.6300   30.4000   40.4450 N   0  0  0  0  0  0  0  0  0  0  0  0
   36.5350   31.1290   40.4330 C   0  0  0  0  0  0  0  0  0  0  0  0
  1  3  1  0  0  0  0
  2  1  2  0  0  0  0
  3  5  1  0  0  0  0
  3  4  1  0  0  0  0
  5 10  1  0  0  0  0
  6  5  2  0  0  0  0
  6  7  1  0  0  0  0
  7  8  2  0  0  0  0
  8  9  1  0  0  0  0
  9 12  1  0  0  0  0
 10  9  2  0  0  0  0
 11  7  1  0  0  0  0
 13  6  1  0  0  0  0
 13 15  1  0  0  0  0
 14 13  1  0  0  0  0
 16 17  1  0  0  0  0
 17 18  2  0  0  0  0
 17  1  1  0  0  0  0
 18 19  1  0  0  0  0
 20 18  1  0  0  0  0
 21 20  1  0  0  0  0
 22 20  2  0  0  0  0
 23 22  1  0  0  0  0
 23 16  2  0  0  0  0
 25 16  1  0  0  0  0
 25 24  3  0  0  0  0
M  END
>  <minimizedAffinity>
-4.70632267

$$$$

 OpenBabel03252501333D

 25 26  0  0  0  0  0  0  0  0999 V2000
   37.2470   30.2970   37.9510 C   0  0  0  0  0  0  0  0  0  0  0  0
   38.2890   29.6660   38.3070 O   0  0  0  0  0  0  0  0  0  0  0  0
   37.3100   31.6870   38.2610 N   0  0  0  0  0  0  0  0  0  0  0  0
   36.5310   32.2980   38.0150 H   0  0  0  0  0  0  0  0  0  0  0  0
   38.5780   31.9470   38.9130 C   0  0  0  0  0  0  0  0  0  0  0  0
   39.7790   32.2350   38.2590 C   0  0  0  0  0  0  0  0  0  0  0  0
   40.8780   32.4520   39.0680 C   0  0  0  0  0  0  0  0  0  0  0  0
   40.7220   32.3750   40.3970 N   0  0  0  0  0  0  0  0  0  0  0  0
   39.5640   32.1000   41.0030 C   0  0  0  0  0  0  0  0  0  0  0  0
   38.4780   31.8830   40.2540 N   0  0  0  0  0  0  0  0  0  0  0  0
   41.7940   32.6710   38.5590 H   0  0  0  0  0  0  0  0  0  0  0  0
   39.4140   32.0320   42.0730 H   0  0  0  0  0  0  0  0  0  0  0  0
   39.7330   32.2680   36.8490 N   0  0  0  0  0  0  0  0  0  0  0  0
   39.0170   32.7670   36.2790 H   0  0  0  0  0  0  0  0  0  0  0  0
   40.5020   31.7330   36.3860 H   0  0  0  0  0  0  0  0  0  0  0  0
   35.1940   29.1380   38.1870 C   0  0  0  0  0  0  0  0  0  0  0  0
   36.1190   29.6480   37.2980 C   0  0  0  0  0  0  0  0  0  0  0  0
   36.0510   29.5860   35.9460 C   0  0  0  0  0  0  0  0  0  0  0  0
   36.7890   29.9930   35.2770 H   0  0  0  0  0  0  0  0  0  0  0  0
   34.9400   28.9450   35.3870 C   0  0  0  0  0  0  0  0  0  0  0  0
   34.7660   28.8280   34.3240 H   0  0  0  0  0  0  0  0  0  0  0  0
   34.0250   28.4420   36.2890 C   0  0  0  0  0  3  0  0  0  0  0  0
   34.0770   28.4940   37.6560 C   0  0  0  0  0  3  0  0  0  0  0  0
   35.3910   29.3070   40.7720 N   0  0  0  0  0  0  0  0  0  0  0  0
   35.3150   29.2310   39.6140 C   0  0  0  0  0  0  0  0  0  0  0  0
  1  3  1  0  0  0  0
  1  2  2  0  0  0  0
  3  5  1  0  0  0  0
  4  3  1  0  0  0  0
  5 10  1  0  0  0  0
  6  5  2  0  0  0  0
  6  7  1  0  0  0  0
  7  8  2  0  0  0  0
  8  9  1  0  0  0  0
  9 12  1  0  0  0  0
 10  9  2  0  0  0  0
 11  7  1  0  0  0  0
 13  6  1  0  0  0  0
 14 13  1  0  0  0  0
 15 13  1  0  0  0  0
 16 25  1  0  0  0  0
 17  1  1  0  0  0  0
 17 16  2  0  0  0  0
 18 17  1  0  0  0  0
 19 18  1  0  0  0  0
 20 18  2  0  0  0  0
 20 22  1  0  0  0  0
 21 20  1  0  0  0  0
 22 23  2  0  0  0  0
 23 16  1  0  0  0  0
 25 24  3  0  0  0  0
M  END
>  <minimizedAffinity>
-4.59066916

$$$$
