
     RDKit          3D

 27 28  0  0  0  0  0  0  0  0999 V2000
   45.3008   34.5640   45.0280 C   0  0  0  0  0  0  0  0  0  0  0  0
   45.2644   33.9374   46.2756 C   0  0  0  0  0  0  0  0  0  0  0  0
   46.1669   32.9089   46.4700 C   0  0  0  0  0  0  0  0  0  0  0  0
   46.9989   32.5881   45.4698 N   0  0  0  0  0  0  0  0  0  0  0  0
   47.0184   33.2004   44.2817 C   0  0  0  0  0  0  0  0  0  0  0  0
   46.1595   34.2002   44.0573 N   0  0  0  0  0  0  0  0  0  0  0  0
   43.9733   35.3817   43.2987 C   0  0  0  0  0  0  0  0  0  0  0  0
   44.4139   34.2841   42.8392 O   0  0  0  0  0  0  0  0  0  0  0  0
   44.4473   35.6599   44.6140 N   0  0  0  0  0  0  0  0  0  0  0  0
   44.3106   34.4264   47.1948 N   0  0  0  0  0  0  0  0  0  0  0  0
   46.1314   32.4354   47.4289 H   0  0  0  0  0  0  0  0  0  0  0  0
   47.6800   32.9588   43.4613 H   0  0  0  0  0  0  0  0  0  0  0  0
   44.1653   36.5198   45.0839 H   0  0  0  0  0  0  0  0  0  0  0  0
   43.3078   34.6132   46.9845 H   0  0  0  0  0  0  0  0  0  0  0  0
   44.6938   34.5979   48.1518 H   0  0  0  0  0  0  0  0  0  0  0  0
   45.5331   35.2544   40.1727 N   0  0  0  0  0  0  0  0  0  0  0  0
   44.5935   35.7604   40.6335 C   0  0  0  0  0  0  0  0  0  0  0  0
   43.4471   36.3933   41.2219 C   0  0  0  0  0  0  0  0  0  0  0  0
   43.0784   36.2485   42.5435 C   0  0  0  0  0  0  0  0  0  0  0  0
   42.0088   36.8224   43.1471 C   0  0  0  0  0  0  0  0  0  0  0  0
   41.7463   36.6914   44.1820 H   0  0  0  0  0  0  0  0  0  0  0  0
   41.1926   37.6442   42.3606 C   0  0  0  0  0  0  0  0  0  0  0  0
   40.3108   38.1608   42.7199 H   0  0  0  0  0  0  0  0  0  0  0  0
   41.5758   37.7777   41.0421 C   0  0  0  0  0  0  0  0  0  0  0  0
   42.6506   37.2067   40.4172 C   0  0  0  0  0  0  0  0  0  0  0  0
   40.9439   38.4199   40.4145 H   0  0  0  0  0  0  0  0  0  0  0  0
   42.8626   37.3764   39.3721 H   0  0  0  0  0  0  0  0  0  0  0  0
  1  2  2  0
  2  3  1  0
  2 10  1  0
  4  3  2  0
  5  4  1  0
  6  5  2  0
  6  1  1  0
  7  9  1  0
  8  7  2  0
  9  1  1  0
  3 11  1  0
  5 12  1  0
  9 13  1  0
 10 14  1  0
 10 15  1  0
 16 17  3  0
 17 18  1  0
 18 19  2  0
 19 20  1  0
 20 21  1  0
 20 22  2  0
 22 23  1  0
 22 24  1  0
 24 25  2  0
 25 18  1  0
 24 26  1  0
 25 27  1  0
  7 19  1  0
M  ISO  4  11  14  12  14  21  15  23  16
M  END
>  <DihAtoms>  (1) 
8,6,18,17

>  <DihDeg>  (1) 
-178.32051366361264

$$$$
