REMARK  Name = 
REMARK  4 active torsions:
REMARK  status: ('A' for Active; 'I' for Inactive)
REMARK    1  A    between atoms: C_1  and  N_9
REMARK    2  A    between atoms: C_2  and  N_10
REMARK    3  A    between atoms: C_7  and  C_19
REMARK    4  A    between atoms: C_17  and  C_18
REMARK                            x       y       z     vdW  Elec       q    Type
REMARK                         _______ _______ _______ _____ _____    ______ ____
ROOT
ATOM      1  C   UNL     1      43.973  35.382  43.299  0.00  0.00    +0.000 C 
ATOM      2  O   UNL     1      44.414  34.284  42.839  0.00  0.00    +0.000 OA
ATOM      3  N   UNL     1      44.447  35.660  44.614  0.00  0.00    +0.000 N 
ATOM      4  H   UNL     1      44.165  36.520  45.084  0.00  0.00    +0.000 HD
ENDROOT
BRANCH   3   5
ATOM      5  C   UNL     1      45.301  34.564  45.028  0.00  0.00    +0.000 A 
ATOM      6  C   UNL     1      45.264  33.937  46.276  0.00  0.00    +0.000 A 
ATOM      7  C   UNL     1      46.167  32.909  46.470  0.00  0.00    +0.000 A 
ATOM      8  N   UNL     1      46.999  32.588  45.470  0.00  0.00    +0.000 NA
ATOM      9  C   UNL     1      47.018  33.200  44.282  0.00  0.00    +0.000 A 
ATOM     10  N   UNL     1      46.160  34.200  44.057  0.00  0.00    +0.000 NA
ATOM     11  H   UNL     1      46.131  32.435  47.429  0.00  0.00    +0.000 HD
ATOM     12  H   UNL     1      47.680  32.959  43.461  0.00  0.00    +0.000 HD
BRANCH   6  13
ATOM     13  N   UNL     1      44.311  34.426  47.195  0.00  0.00    +0.000 N 
ATOM     14  H   UNL     1      43.308  34.613  46.984  0.00  0.00    +0.000 HD
ATOM     15  H   UNL     1      44.694  34.598  48.152  0.00  0.00    +0.000 HD
ENDBRANCH   6  13
ENDBRANCH   3   5
BRANCH   1  17
ATOM     16  C   UNL     1      43.447  36.393  41.222  0.00  0.00    +0.000 A 
ATOM     17  C   UNL     1      43.078  36.248  42.544  0.00  0.00    +0.000 A 
ATOM     18  C   UNL     1      42.009  36.822  43.147  0.00  0.00    +0.000 A 
ATOM     19  H   UNL     1      41.746  36.691  44.182  0.00  0.00    +0.000 HD
ATOM     20  C   UNL     1      41.193  37.644  42.361  0.00  0.00    +0.000 A 
ATOM     21  H   UNL     1      40.311  38.161  42.720  0.00  0.00    +0.000 HD
ATOM     22  C   UNL     1      41.576  37.778  41.042  0.00  0.00    +0.000 A 
ATOM     23  C   UNL     1      42.651  37.207  40.417  0.00  0.00    +0.000 A 
BRANCH  16  25
ATOM     24  N   UNL     1      45.533  35.254  40.173  0.00  0.00    +0.000 NA
ATOM     25  C   UNL     1      44.593  35.760  40.633  0.00  0.00    +0.000 C 
ENDBRANCH  16  25
ENDBRANCH   1  17
TORSDOF 4
