REMARK  Name = 
REMARK  2 active torsions:
REMARK  status: ('A' for Active; 'I' for Inactive)
REMARK    1  A    between atoms: CA_1  and  C_7
REMARK    2  A    between atoms: C_5  and  C_14
REMARK                            x       y       z     vdW  Elec       q    Type
REMARK                         _______ _______ _______ _____ _____    ______ ____
ROOT
ATOM      1  CA  UNL     1      46.220  34.836  43.190  0.00  0.00    +0.000 A 
ATOM      2  C   UNL     1      45.320  35.912  43.280  0.00  0.00    +0.000 A 
ATOM      3  C   UNL     1      44.564  36.008  44.449  0.00  0.00    +0.000 A 
ATOM      4  N   UNL     1      44.737  35.063  45.424  0.00  0.00    +0.000 NA
ATOM      5  C   UNL     1      45.616  34.052  45.281  0.00  0.00    +0.000 A 
ATOM      6  N   UNL     1      46.352  33.940  44.171  0.00  0.00    +0.000 NA
ATOM      7  H   UNL     1      45.163  36.664  42.537  0.00  0.00    +0.000 HD
ATOM      8  H   UNL     1      43.852  36.800  44.602  0.00  0.00    +0.000 HD
ENDROOT
BRANCH   5  11
ATOM      9  O   UNL     1      44.139  34.558  47.882  0.00  0.00    +0.000 OA
ATOM     10  C   UNL     1      44.769  33.510  47.529  0.00  0.00    +0.000 C 
ATOM     11  C   UNL     1      45.684  33.111  46.433  0.00  0.00    +0.000 C 
ATOM     12  C   UNL     1      45.232  31.727  46.117  0.00  0.00    +0.000 C 
ATOM     13  H   UNL     1      46.092  31.184  45.653  0.00  0.00    +0.000 HD
ATOM     14  C   UNL     1      44.891  31.163  47.478  0.00  0.00    +0.000 C 
ATOM     15  H   UNL     1      44.004  30.498  47.422  0.00  0.00    +0.000 HD
ATOM     16  N   UNL     1      44.654  32.325  48.310  0.00  0.00    +0.000 N 
ATOM     17  H   UNL     1      44.437  32.138  49.334  0.00  0.00    +0.000 HD
ENDBRANCH   5  11
BRANCH   1  18
ATOM     18  C   UNL     1      46.961  34.798  41.971  0.00  0.00    +0.000 C 
ATOM     19  O   UNL     1      48.057  35.394  41.727  0.00  0.00    +0.000 OA
ATOM     20  H   UNL     1      46.792  34.295  41.026  0.00  0.00    +0.000 HD
ENDBRANCH   1  18
TORSDOF 2
