
 OpenBabel03242523193D

 37 40  0  0  1  0  0  0  0  0999 V2000
   44.5440   31.7960   42.8990 Cl  0  0  0  0  0  0  0  0  0  0  0  0
   44.5790   33.5520   42.8020 C   0  0  0  0  0  0  0  0  0  0  0  0
   45.4540   34.1910   43.7060 C   0  0  0  0  0  0  0  0  0  0  0  0
   45.4150   35.5650   43.5330 C   0  0  0  0  0  0  0  0  0  0  0  0
   44.7010   36.3030   42.6710 C   0  0  0  0  0  0  0  0  0  0  0  0
   43.8820   35.6070   41.8350 C   0  0  0  0  0  0  0  0  0  0  0  0
   43.8020   34.2510   41.8790 C   0  0  0  0  0  0  0  0  0  0  0  0
   46.0220   36.2230   44.1920 H   0  0  0  0  0  0  0  0  0  0  0  0
   44.7120   37.3780   42.5770 H   0  0  0  0  0  0  0  0  0  0  0  0
   43.2280   36.0270   41.0710 H   0  0  0  0  0  0  0  0  0  0  0  0
   44.3920   33.3630   39.0150 O   0  0  0  0  0  0  0  0  0  0  0  0
   43.2670   33.6420   39.5580 C   0  0  0  0  0  0  0  0  0  0  0  0
   42.9370   33.4040   41.0100 C   0  0  2  0  0  3  0  0  0  0  0  0
   41.4970   33.7190   41.0500 C   0  0  0  0  0  3  0  0  0  0  0  0
   41.2370   34.7460   41.3720 H   0  0  0  0  0  0  0  0  0  0  0  0
   40.9710   33.6410   39.6250 C   0  0  0  0  0  3  0  0  0  0  0  0
   40.8810   32.5590   39.3310 H   0  0  0  0  0  0  0  0  0  0  0  0
   42.1160   34.2240   38.9110 N   0  0  0  0  0  0  0  0  0  0  0  0
   42.1800   34.9040   38.1180 H   0  0  0  0  0  0  0  0  0  0  0  0
   46.3240   33.5290   44.7130 C   0  0  0  0  0  0  0  0  0  0  0  0
   45.7430   33.9000   45.7030 O   0  0  0  0  0  0  0  0  0  0  0  0
   47.3900   32.8000   44.0120 C   0  0  0  0  0  0  0  0  0  0  0  0
   48.2440   33.3090   43.1140 C   0  0  0  0  0  0  0  0  0  0  0  0
   49.0790   32.3770   42.5320 C   0  0  0  0  0  0  0  0  0  0  0  0
   48.9700   31.0330   42.9230 N   0  0  0  0  0  0  0  0  0  0  0  0
   48.1090   30.6110   43.8160 C   0  0  0  0  0  0  0  0  0  0  0  0
   47.2530   31.5100   44.4190 N   0  0  0  0  0  0  0  0  0  0  0  0
   49.8300   32.6160   41.7810 H   0  0  0  0  0  0  0  0  0  0  0  0
   48.1460   29.5440   44.0140 H   0  0  0  0  0  0  0  0  0  0  0  0
   48.4350   34.6800   42.8070 C   0  0  0  0  0  0  0  0  0  0  0  0
   49.4670   35.2660   42.1410 C   0  0  0  0  0  0  0  0  0  0  0  0
   48.2400   35.1030   41.2850 C   0  0  0  0  0  0  0  0  0  0  0  0
   47.9720   35.3750   43.5330 H   0  0  0  0  0  0  0  0  0  0  0  0
   50.3330   34.6370   41.7750 H   0  0  0  0  0  0  0  0  0  0  0  0
   49.8100   36.3250   42.1500 H   0  0  0  0  0  0  0  0  0  0  0  0
   47.5350   35.9340   41.1590 H   0  0  0  0  0  0  0  0  0  0  0  0
   48.1780   34.2240   40.6060 H   0  0  0  0  0  0  0  0  0  0  0  0
  2  1  1  0  0  0  0
  2  3  1  0  0  0  0
  3 20  1  0  0  0  0
  4  3  2  0  0  0  0
  4  8  1  0  0  0  0
  5  4  1  0  0  0  0
  6  7  1  0  0  0  0
  6  5  2  0  0  0  0
  7  2  2  0  0  0  0
  9  5  1  0  0  0  0
 10  6  1  0  0  0  0
 11 12  2  0  0  0  0
 12 13  1  0  0  0  0
 13 14  1  0  0  0  0
 13  7  1  1  0  0  0
 14 15  1  0  0  0  0
 16 14  1  0  0  0  0
 17 16  1  0  0  0  0
 18 12  1  0  0  0  0
 18 16  1  0  0  0  0
 19 18  1  0  0  0  0
 20 21  2  0  0  0  0
 22 27  1  0  0  0  0
 22 20  1  0  0  0  0
 23 22  2  0  0  0  0
 24 25  2  0  0  0  0
 24 23  1  0  0  0  0
 25 26  1  0  0  0  0
 26 29  1  0  0  0  0
 26 27  2  0  0  0  0
 28 24  1  0  0  0  0
 30 23  1  0  0  0  0
 30 33  1  0  0  0  0
 31 35  1  0  0  0  0
 31 30  1  0  0  0  0
 32 31  1  0  0  0  0
 32 30  1  0  0  0  0
 34 31  1  0  0  0  0
 36 32  1  0  0  0  0
 37 32  1  0  0  0  0
M  END
>  <minimizedAffinity>
-5.70180225

>  <minimizedRMSD>
1.04330206

$$$$
