
 OpenBabel03252506323D

 32 34  0  0  1  0  0  0  0  0999 V2000
   40.8630   30.2660   37.7470 C   0  0  0  0  0  0  0  0  0  0  0  0
   39.8730   31.2560   37.8710 C   0  0  0  0  0  0  0  0  0  0  0  0
   38.9380   31.1450   38.8960 C   0  0  0  0  0  0  0  0  0  0  0  0
   39.0530   30.0750   39.7130 N   0  0  0  0  0  0  0  0  0  0  0  0
   39.9980   29.1460   39.5830 C   0  0  0  0  0  0  0  0  0  0  0  0
   40.9040   29.2290   38.6100 N   0  0  0  0  0  0  0  0  0  0  0  0
   40.0390   28.0690   40.5000 N   0  0  0  0  0  0  0  0  0  0  0  0
   41.1830   27.1970   40.7290 C   0  0  0  0  0  0  0  0  0  0  0  0
   40.4910   25.8760   40.9930 C   0  0  0  0  0  0  0  0  0  0  0  0
   39.0310   26.1550   41.2010 C   0  0  0  0  0  0  0  0  0  0  0  0
   38.9670   27.6230   41.3850 C   0  0  1  0  0  0  0  0  0  0  0  0
   41.6110   30.2980   36.9790 H   0  0  0  0  0  0  0  0  0  0  0  0
   38.2150   31.9150   38.9420 H   0  0  0  0  0  0  0  0  0  0  0  0
   41.8420   27.1690   39.8350 H   0  0  0  0  0  0  0  0  0  0  0  0
   41.8120   27.5300   41.5770 H   0  0  0  0  0  0  0  0  0  0  0  0
   40.9490   25.3410   41.8670 H   0  0  0  0  0  0  0  0  0  0  0  0
   40.6650   25.2140   40.1110 H   0  0  0  0  0  0  0  0  0  0  0  0
   38.6840   25.6390   42.1430 H   0  0  0  0  0  0  0  0  0  0  0  0
   38.3950   25.7990   40.3490 H   0  0  0  0  0  0  0  0  0  0  0  0
   38.0140   28.0400   41.0050 H   0  0  0  0  0  0  0  0  0  0  0  0
   39.1960   30.4140   42.7240 O   0  0  0  0  0  0  0  0  0  0  0  0
   38.5260   29.3870   43.0350 C   0  0  0  0  0  0  0  0  0  0  0  0
   39.1740   28.0840   42.7980 C   0  0  1  0  0  3  0  0  0  0  0  0
   38.3340   27.1540   43.6790 C   0  0  0  0  0  3  0  0  0  0  0  0
   38.2440   26.1570   43.2180 H   0  0  0  0  0  0  0  0  0  0  0  0
   36.9450   27.7740   43.6800 C   0  0  0  0  0  3  0  0  0  0  0  0
   36.3790   27.5620   44.5920 H   0  0  0  0  0  0  0  0  0  0  0  0
   37.2120   29.2010   43.5950 N   0  0  0  0  0  0  0  0  0  0  0  0
   36.7130   30.0880   43.8250 H   0  0  0  0  0  0  0  0  0  0  0  0
   39.9530   32.3030   36.8960 N   0  0  0  0  0  0  0  0  0  0  0  0
   40.5610   33.0100   37.3740 H   0  0  0  0  0  0  0  0  0  0  0  0
   39.4520   32.2090   35.9720 H   0  0  0  0  0  0  0  0  0  0  0  0
  1  2  2  0  0  0  0
  1  6  1  0  0  0  0
  2  3  1  0  0  0  0
  3 13  1  0  0  0  0
  3  4  2  0  0  0  0
  5  4  1  0  0  0  0
  5  7  1  0  0  0  0
  6  5  2  0  0  0  0
  7  8  1  0  0  0  0
  7 11  1  0  0  0  0
  8  9  1  0  0  0  0
  8 15  1  0  0  0  0
  9 10  1  0  0  0  0
  9 16  1  0  0  0  0
 10 11  1  0  0  0  0
 10 18  1  0  0  0  0
 11 20  1  6  0  0  0
 11 23  1  0  0  0  0
 12  1  1  0  0  0  0
 14  8  1  0  0  0  0
 17  9  1  0  0  0  0
 19 10  1  0  0  0  0
 21 22  2  0  0  0  0
 22 28  1  0  0  0  0
 23 22  1  6  0  0  0
 23 24  1  0  0  0  0
 24 26  1  0  0  0  0
 25 24  1  0  0  0  0
 26 27  1  0  0  0  0
 28 26  1  0  0  0  0
 28 29  1  0  0  0  0
 30 31  1  0  0  0  0
 30  2  1  0  0  0  0
 32 30  1  0  0  0  0
M  END
>  <minimizedAffinity>
-5.30016327

$$$$

 OpenBabel03252506323D

 32 34  0  0  1  0  0  0  0  0999 V2000
   40.9730   31.6570   38.5400 C   0  0  0  0  0  0  0  0  0  0  0  0
   39.7800   31.5600   37.8040 C   0  0  0  0  0  0  0  0  0  0  0  0
   38.7450   30.7730   38.3030 C   0  0  0  0  0  0  0  0  0  0  0  0
   38.9690   30.1480   39.4810 N   0  0  0  0  0  0  0  0  0  0  0  0
   40.1060   30.2510   40.1660 C   0  0  0  0  0  0  0  0  0  0  0  0
   41.1100   30.9980   39.7100 N   0  0  0  0  0  0  0  0  0  0  0  0
   40.2350   29.5650   41.3980 N   0  0  0  0  0  0  0  0  0  0  0  0
   41.2260   29.8530   42.4250 C   0  0  0  0  0  0  0  0  0  0  0  0
   41.5110   28.4600   42.9490 C   0  0  0  0  0  0  0  0  0  0  0  0
   40.4530   27.5420   42.4100 C   0  0  0  0  0  0  0  0  0  0  0  0
   39.4180   28.4560   41.8790 C   0  0  1  0  0  0  0  0  0  0  0  0
   41.8030   32.2490   38.2080 H   0  0  0  0  0  0  0  0  0  0  0  0
   37.8720   30.7330   37.7100 H   0  0  0  0  0  0  0  0  0  0  0  0
   42.1220   30.3390   41.9830 H   0  0  0  0  0  0  0  0  0  0  0  0
   40.8470   30.5370   43.2080 H   0  0  0  0  0  0  0  0  0  0  0  0
   41.5540   28.4450   44.0700 H   0  0  0  0  0  0  0  0  0  0  0  0
   42.5310   28.1640   42.6060 H   0  0  0  0  0  0  0  0  0  0  0  0
   40.0230   26.9310   43.2570 H   0  0  0  0  0  0  0  0  0  0  0  0
   40.8460   26.8360   41.6320 H   0  0  0  0  0  0  0  0  0  0  0  0
   38.8920   28.0150   41.0090 H   0  0  0  0  0  0  0  0  0  0  0  0
   37.0350   30.4440   41.8000 O   0  0  0  0  0  0  0  0  0  0  0  0
   37.1270   29.2630   42.2420 C   0  0  0  0  0  0  0  0  0  0  0  0
   38.4010   28.9020   42.8900 C   0  0  1  0  0  3  0  0  0  0  0  0
   38.0050   27.6500   43.6790 C   0  0  0  0  0  3  0  0  0  0  0  0
   38.8420   26.9330   43.7170 H   0  0  0  0  0  0  0  0  0  0  0  0
   36.9020   27.0060   42.8530 C   0  0  0  0  0  3  0  0  0  0  0  0
   36.1920   26.4310   43.4560 H   0  0  0  0  0  0  0  0  0  0  0  0
   36.2210   28.1420   42.2540 N   0  0  0  0  0  0  0  0  0  0  0  0
   35.2820   28.3450   41.8460 H   0  0  0  0  0  0  0  0  0  0  0  0
   39.7670   32.3180   36.5880 N   0  0  0  0  0  0  0  0  0  0  0  0
   39.3690   33.2360   36.9000 H   0  0  0  0  0  0  0  0  0  0  0  0
   40.1140   31.8880   35.6900 H   0  0  0  0  0  0  0  0  0  0  0  0
  1  6  1  0  0  0  0
  2  3  1  0  0  0  0
  2  1  2  0  0  0  0
  3  4  2  0  0  0  0
  4  5  1  0  0  0  0
  5  7  1  0  0  0  0
  6  5  2  0  0  0  0
  7 11  1  0  0  0  0
  7  8  1  0  0  0  0
  8  9  1  0  0  0  0
  8 15  1  0  0  0  0
  9 16  1  0  0  0  0
 10  9  1  0  0  0  0
 10 18  1  0  0  0  0
 11 20  1  6  0  0  0
 11 10  1  0  0  0  0
 11 23  1  0  0  0  0
 12  1  1  0  0  0  0
 13  3  1  0  0  0  0
 14  8  1  0  0  0  0
 17  9  1  0  0  0  0
 19 10  1  0  0  0  0
 21 22  2  0  0  0  0
 22 28  1  0  0  0  0
 23 22  1  6  0  0  0
 23 24  1  0  0  0  0
 24 25  1  0  0  0  0
 26 27  1  0  0  0  0
 26 24  1  0  0  0  0
 28 26  1  0  0  0  0
 29 28  1  0  0  0  0
 30 31  1  0  0  0  0
 30  2  1  0  0  0  0
 32 30  1  0  0  0  0
M  END
>  <minimizedAffinity>
-5.27377987

$$$$

 OpenBabel03252506323D

 32 34  0  0  1  0  0  0  0  0999 V2000
   38.6770   32.3010   39.0080 C   0  0  0  0  0  0  0  0  0  0  0  0
   37.4270   32.6590   39.5410 C   0  0  0  0  0  0  0  0  0  0  0  0
   36.7670   31.7570   40.3720 C   0  0  0  0  0  0  0  0  0  0  0  0
   37.3890   30.5810   40.6100 N   0  0  0  0  0  0  0  0  0  0  0  0
   38.5750   30.2570   40.0980 C   0  0  0  0  0  0  0  0  0  0  0  0
   39.2260   31.1020   39.3000 N   0  0  0  0  0  0  0  0  0  0  0  0
   39.1460   29.0030   40.4200 N   0  0  0  0  0  0  0  0  0  0  0  0
   40.5490   28.6480   40.2600 C   0  0  0  0  0  0  0  0  0  0  0  0
   40.4350   27.1890   39.8670 C   0  0  0  0  0  0  0  0  0  0  0  0
   39.0250   26.7510   40.1340 C   0  0  0  0  0  0  0  0  0  0  0  0
   38.4610   27.8360   40.9680 C   0  0  1  0  0  0  0  0  0  0  0  0
   39.2330   32.9520   38.3640 H   0  0  0  0  0  0  0  0  0  0  0  0
   35.8310   32.0770   40.7430 H   0  0  0  0  0  0  0  0  0  0  0  0
   41.0270   29.2710   39.4740 H   0  0  0  0  0  0  0  0  0  0  0  0
   41.1380   28.7980   41.1850 H   0  0  0  0  0  0  0  0  0  0  0  0
   41.1860   26.5580   40.4120 H   0  0  0  0  0  0  0  0  0  0  0  0
   40.6990   27.1020   38.7860 H   0  0  0  0  0  0  0  0  0  0  0  0
   39.0400   25.7880   40.7230 H   0  0  0  0  0  0  0  0  0  0  0  0
   38.4380   26.5790   39.1940 H   0  0  0  0  0  0  0  0  0  0  0  0
   37.3750   27.9630   40.7920 H   0  0  0  0  0  0  0  0  0  0  0  0
   39.1470   29.8190   43.2570 O   0  0  0  0  0  0  0  0  0  0  0  0
   38.2930   28.8880   43.1800 C   0  0  0  0  0  0  0  0  0  0  0  0
   38.7030   27.6810   42.4410 C   0  0  1  0  0  3  0  0  0  0  0  0
   37.6810   26.6520   42.9360 C   0  0  0  0  0  3  0  0  0  0  0  0
   37.4270   25.9380   42.1350 H   0  0  0  0  0  0  0  0  0  0  0  0
   36.4270   27.4630   43.2270 C   0  0  0  0  0  3  0  0  0  0  0  0
   35.8040   27.0240   44.0120 H   0  0  0  0  0  0  0  0  0  0  0  0
   36.9490   28.7420   43.6790 N   0  0  0  0  0  0  0  0  0  0  0  0
   36.6120   29.5490   44.2490 H   0  0  0  0  0  0  0  0  0  0  0  0
   36.9690   33.9610   39.1570 N   0  0  0  0  0  0  0  0  0  0  0  0
   37.3450   34.5670   39.9260 H   0  0  0  0  0  0  0  0  0  0  0  0
   36.3990   34.0880   38.2780 H   0  0  0  0  0  0  0  0  0  0  0  0
  1  6  2  0  0  0  0
  1  2  1  0  0  0  0
  2  3  2  0  0  0  0
  3  4  1  0  0  0  0
  3 13  1  0  0  0  0
  5  7  1  0  0  0  0
  5  4  2  0  0  0  0
  6  5  1  0  0  0  0
  7 11  1  0  0  0  0
  8  7  1  0  0  0  0
  8 15  1  0  0  0  0
  9 10  1  0  0  0  0
  9  8  1  0  0  0  0
  9 16  1  0  0  0  0
 10 18  1  0  0  0  0
 10 11  1  0  0  0  0
 11 20  1  6  0  0  0
 11 23  1  0  0  0  0
 12  1  1  0  0  0  0
 14  8  1  0  0  0  0
 17  9  1  0  0  0  0
 19 10  1  0  0  0  0
 22 21  2  0  0  0  0
 22 28  1  0  0  0  0
 23 24  1  1  0  0  0
 23 22  1  0  0  0  0
 24 26  1  0  0  0  0
 25 24  1  0  0  0  0
 26 28  1  0  0  0  0
 26 27  1  0  0  0  0
 28 29  1  0  0  0  0
 30  2  1  0  0  0  0
 30 31  1  0  0  0  0
 32 30  1  0  0  0  0
M  END
>  <minimizedAffinity>
-5.26551628

$$$$

 OpenBabel03252506323D

 32 34  0  0  1  0  0  0  0  0999 V2000
   38.9580   31.9850   39.0560 C   0  0  0  0  0  0  0  0  0  0  0  0
   39.3290   31.3530   37.8570 C   0  0  0  0  0  0  0  0  0  0  0  0
   39.2770   29.9640   37.7860 C   0  0  0  0  0  0  0  0  0  0  0  0
   38.8650   29.3120   38.8960 N   0  0  0  0  0  0  0  0  0  0  0  0
   38.5170   29.9250   40.0250 C   0  0  0  0  0  0  0  0  0  0  0  0
   38.5580   31.2530   40.1180 N   0  0  0  0  0  0  0  0  0  0  0  0
   38.0870   29.1490   41.1280 N   0  0  0  0  0  0  0  0  0  0  0  0
   37.3400   29.6510   42.2730 C   0  0  0  0  0  0  0  0  0  0  0  0
   37.9200   28.8060   43.3890 C   0  0  0  0  0  0  0  0  0  0  0  0
   38.7090   27.6950   42.7610 C   0  0  0  0  0  0  0  0  0  0  0  0
   38.3000   27.7210   41.3380 C   0  0  1  0  0  0  0  0  0  0  0  0
   38.9760   33.0500   39.1710 H   0  0  0  0  0  0  0  0  0  0  0  0
   39.5680   29.5410   36.8620 H   0  0  0  0  0  0  0  0  0  0  0  0
   37.5190   30.7380   42.4160 H   0  0  0  0  0  0  0  0  0  0  0  0
   36.2460   29.5210   42.1600 H   0  0  0  0  0  0  0  0  0  0  0  0
   37.1160   28.4220   44.0710 H   0  0  0  0  0  0  0  0  0  0  0  0
   38.5610   29.4640   44.0210 H   0  0  0  0  0  0  0  0  0  0  0  0
   38.4030   26.7120   43.2260 H   0  0  0  0  0  0  0  0  0  0  0  0
   39.8160   27.8190   42.8950 H   0  0  0  0  0  0  0  0  0  0  0  0
   39.1240   27.3960   40.6720 H   0  0  0  0  0  0  0  0  0  0  0  0
   36.7290   27.1180   38.7300 O   0  0  0  0  0  0  0  0  0  0  0  0
   37.1290   26.3620   39.6620 C   0  0  0  0  0  0  0  0  0  0  0  0
   37.0730   26.9160   41.0260 C   0  0  1  0  0  3  0  0  0  0  0  0
   37.1640   25.6480   41.8810 C   0  0  0  0  0  3  0  0  0  0  0  0
   37.7200   25.8450   42.8130 H   0  0  0  0  0  0  0  0  0  0  0  0
   38.0050   24.6860   41.0550 C   0  0  0  0  0  3  0  0  0  0  0  0
   37.7700   23.6340   41.2470 H   0  0  0  0  0  0  0  0  0  0  0  0
   37.6510   25.0190   39.6850 N   0  0  0  0  0  0  0  0  0  0  0  0
   37.6790   24.5520   38.7510 H   0  0  0  0  0  0  0  0  0  0  0  0
   39.7230   32.2490   36.8100 N   0  0  0  0  0  0  0  0  0  0  0  0
   38.8180   32.4210   36.3100 H   0  0  0  0  0  0  0  0  0  0  0  0
   40.7290   32.5530   36.7210 H   0  0  0  0  0  0  0  0  0  0  0  0
  1 12  1  0  0  0  0
  1  6  1  0  0  0  0
  2  1  2  0  0  0  0
  3  2  1  0  0  0  0
  3  4  2  0  0  0  0
  4  5  1  0  0  0  0
  5  6  2  0  0  0  0
  5  7  1  0  0  0  0
  7 11  1  0  0  0  0
  7  8  1  0  0  0  0
  8 14  1  0  0  0  0
  8  9  1  0  0  0  0
  9 17  1  0  0  0  0
  9 16  1  0  0  0  0
 10 19  1  0  0  0  0
 10 18  1  0  0  0  0
 10  9  1  0  0  0  0
 11 20  1  6  0  0  0
 11 10  1  0  0  0  0
 13  3  1  0  0  0  0
 15  8  1  0  0  0  0
 21 22  2  0  0  0  0
 22 28  1  0  0  0  0
 23 22  1  6  0  0  0
 23 11  1  0  0  0  0
 23 24  1  0  0  0  0
 24 25  1  0  0  0  0
 26 27  1  0  0  0  0
 26 24  1  0  0  0  0
 28 26  1  0  0  0  0
 29 28  1  0  0  0  0
 30  2  1  0  0  0  0
 31 30  1  0  0  0  0
 32 30  1  0  0  0  0
M  END
>  <minimizedAffinity>
-5.11325169

$$$$

 OpenBabel03252506323D

 32 34  0  0  1  0  0  0  0  0999 V2000
   38.8800   33.5190   40.4320 C   0  0  0  0  0  0  0  0  0  0  0  0
   37.6540   33.1200   39.8710 C   0  0  0  0  0  0  0  0  0  0  0  0
   37.2390   31.8000   40.0330 C   0  0  0  0  0  0  0  0  0  0  0  0
   38.0600   30.9850   40.7320 N   0  0  0  0  0  0  0  0  0  0  0  0
   39.2180   31.3790   41.2580 C   0  0  0  0  0  0  0  0  0  0  0  0
   39.6370   32.6360   41.1160 N   0  0  0  0  0  0  0  0  0  0  0  0
   39.9990   30.4480   41.9830 N   0  0  0  0  0  0  0  0  0  0  0  0
   41.0700   30.7860   42.9110 C   0  0  0  0  0  0  0  0  0  0  0  0
   42.0360   29.6450   42.6640 C   0  0  0  0  0  0  0  0  0  0  0  0
   41.3170   28.5990   41.8630 C   0  0  0  0  0  0  0  0  0  0  0  0
   39.8930   28.9930   41.9520 C   0  0  1  0  0  0  0  0  0  0  0  0
   39.2510   34.5200   40.3410 H   0  0  0  0  0  0  0  0  0  0  0  0
   36.3120   31.5540   39.5900 H   0  0  0  0  0  0  0  0  0  0  0  0
   41.5040   31.7790   42.6680 H   0  0  0  0  0  0  0  0  0  0  0  0
   40.7270   30.8380   43.9610 H   0  0  0  0  0  0  0  0  0  0  0  0
   42.4420   29.2360   43.6270 H   0  0  0  0  0  0  0  0  0  0  0  0
   42.9190   30.0530   42.1160 H   0  0  0  0  0  0  0  0  0  0  0  0
   41.4630   27.5910   42.3500 H   0  0  0  0  0  0  0  0  0  0  0  0
   41.6820   28.5350   40.8050 H   0  0  0  0  0  0  0  0  0  0  0  0
   39.3340   28.7110   41.0380 H   0  0  0  0  0  0  0  0  0  0  0  0
   36.9490   29.1280   42.9300 O   0  0  0  0  0  0  0  0  0  0  0  0
   37.7600   28.1610   42.8400 C   0  0  0  0  0  0  0  0  0  0  0  0
   39.1700   28.4550   43.1520 C   0  0  1  0  0  3  0  0  0  0  0  0
   39.7330   27.0510   43.3970 C   0  0  0  0  0  3  0  0  0  0  0  0
   40.7800   26.9870   43.0560 H   0  0  0  0  0  0  0  0  0  0  0  0
   38.9120   26.1430   42.4950 C   0  0  0  0  0  3  0  0  0  0  0  0
   38.8220   25.1220   42.8790 H   0  0  0  0  0  0  0  0  0  0  0  0
   37.6020   26.7740   42.4840 N   0  0  0  0  0  0  0  0  0  0  0  0
   36.6160   26.4890   42.2900 H   0  0  0  0  0  0  0  0  0  0  0  0
   36.9490   34.1590   39.1810 N   0  0  0  0  0  0  0  0  0  0  0  0
   36.3450   34.5610   39.9370 H   0  0  0  0  0  0  0  0  0  0  0  0
   37.1270   34.3320   38.1550 H   0  0  0  0  0  0  0  0  0  0  0  0
  1  6  1  0  0  0  0
  2  3  1  0  0  0  0
  2  1  2  0  0  0  0
  3  4  2  0  0  0  0
  4  5  1  0  0  0  0
  5  7  1  0  0  0  0
  6  5  2  0  0  0  0
  7  8  1  0  0  0  0
  8 15  1  0  0  0  0
  9  8  1  0  0  0  0
  9 16  1  0  0  0  0
 10 11  1  0  0  0  0
 10 18  1  0  0  0  0
 10  9  1  0  0  0  0
 11 20  1  6  0  0  0
 11  7  1  0  0  0  0
 11 23  1  0  0  0  0
 12  1  1  0  0  0  0
 13  3  1  0  0  0  0
 14  8  1  0  0  0  0
 17  9  1  0  0  0  0
 19 10  1  0  0  0  0
 22 21  2  0  0  0  0
 23 22  1  6  0  0  0
 23 24  1  0  0  0  0
 25 24  1  0  0  0  0
 26 27  1  0  0  0  0
 26 24  1  0  0  0  0
 28 26  1  0  0  0  0
 28 22  1  0  0  0  0
 29 28  1  0  0  0  0
 30  2  1  0  0  0  0
 30 31  1  0  0  0  0
 32 30  1  0  0  0  0
M  END
>  <minimizedAffinity>
-5.0767746

$$$$

 OpenBabel03252506323D

 32 34  0  0  1  0  0  0  0  0999 V2000
   36.0950   28.6760   41.0470 C   0  0  0  0  0  0  0  0  0  0  0  0
   36.6440   29.8780   41.5260 C   0  0  0  0  0  0  0  0  0  0  0  0
   37.9160   29.8560   42.0930 C   0  0  0  0  0  0  0  0  0  0  0  0
   38.5420   28.6590   42.1410 N   0  0  0  0  0  0  0  0  0  0  0  0
   38.0080   27.5290   41.6810 C   0  0  0  0  0  0  0  0  0  0  0  0
   36.7920   27.5230   41.1350 N   0  0  0  0  0  0  0  0  0  0  0  0
   38.7520   26.3280   41.7680 N   0  0  0  0  0  0  0  0  0  0  0  0
   38.4890   25.1150   41.0060 C   0  0  0  0  0  0  0  0  0  0  0  0
   38.8560   24.0520   42.0220 C   0  0  0  0  0  0  0  0  0  0  0  0
   39.5820   24.7250   43.1490 C   0  0  0  0  0  0  0  0  0  0  0  0
   39.9090   26.0670   42.6180 C   0  0  1  0  0  0  0  0  0  0  0  0
   35.1220   28.6300   40.6000 H   0  0  0  0  0  0  0  0  0  0  0  0
   38.2800   30.7860   42.4380 H   0  0  0  0  0  0  0  0  0  0  0  0
   37.4240   25.0670   40.6960 H   0  0  0  0  0  0  0  0  0  0  0  0
   39.0930   25.0510   40.0810 H   0  0  0  0  0  0  0  0  0  0  0  0
   39.4640   23.2330   41.5550 H   0  0  0  0  0  0  0  0  0  0  0  0
   37.9130   23.5660   42.3670 H   0  0  0  0  0  0  0  0  0  0  0  0
   40.5350   24.1600   43.3680 H   0  0  0  0  0  0  0  0  0  0  0  0
   38.9750   24.7690   44.0910 H   0  0  0  0  0  0  0  0  0  0  0  0
   39.9230   26.8310   43.4210 H   0  0  0  0  0  0  0  0  0  0  0  0
   41.4530   28.3660   41.2140 O   0  0  0  0  0  0  0  0  0  0  0  0
   41.8380   27.4580   42.0060 C   0  0  0  0  0  0  0  0  0  0  0  0
   41.1990   26.1390   41.8530 C   0  0  1  0  0  3  0  0  0  0  0  0
   42.1850   25.2270   42.5900 C   0  0  0  0  0  3  0  0  0  0  0  0
   41.6520   24.4040   43.0940 H   0  0  0  0  0  0  0  0  0  0  0  0
   42.7820   26.1060   43.6790 C   0  0  0  0  0  3  0  0  0  0  0  0
   43.7990   25.8130   43.9590 H   0  0  0  0  0  0  0  0  0  0  0  0
   42.8080   27.4260   43.0710 N   0  0  0  0  0  0  0  0  0  0  0  0
   43.3290   28.3210   43.2050 H   0  0  0  0  0  0  0  0  0  0  0  0
   35.8010   31.0240   41.3610 N   0  0  0  0  0  0  0  0  0  0  0  0
   36.1010   31.3900   40.4250 H   0  0  0  0  0  0  0  0  0  0  0  0
   35.1040   31.2850   42.1090 H   0  0  0  0  0  0  0  0  0  0  0  0
  1  6  2  0  0  0  0
  1  2  1  0  0  0  0
  2  3  2  0  0  0  0
  3  4  1  0  0  0  0
  3 13  1  0  0  0  0
  5  7  1  0  0  0  0
  5  4  2  0  0  0  0
  6  5  1  0  0  0  0
  7 11  1  0  0  0  0
  8  7  1  0  0  0  0
  8  9  1  0  0  0  0
  9 17  1  0  0  0  0
  9 10  1  0  0  0  0
 10 18  1  0  0  0  0
 10 19  1  0  0  0  0
 11 10  1  0  0  0  0
 11 20  1  1  0  0  0
 12  1  1  0  0  0  0
 14  8  1  0  0  0  0
 15  8  1  0  0  0  0
 16  9  1  0  0  0  0
 21 22  2  0  0  0  0
 22 28  1  0  0  0  0
 23 22  1  1  0  0  0
 23 24  1  0  0  0  0
 23 11  1  0  0  0  0
 24 25  1  0  0  0  0
 24 26  1  0  0  0  0
 26 27  1  0  0  0  0
 28 29  1  0  0  0  0
 28 26  1  0  0  0  0
 30  2  1  0  0  0  0
 30 32  1  0  0  0  0
 31 30  1  0  0  0  0
M  END
>  <minimizedAffinity>
-4.94884014

$$$$

 OpenBabel03252506323D

 32 34  0  0  1  0  0  0  0  0999 V2000
   37.8700   31.5330   37.1450 C   0  0  0  0  0  0  0  0  0  0  0  0
   37.2150   30.4010   36.6300 C   0  0  0  0  0  0  0  0  0  0  0  0
   37.0030   29.3090   37.4680 C   0  0  0  0  0  0  0  0  0  0  0  0
   37.4490   29.4200   38.7390 N   0  0  0  0  0  0  0  0  0  0  0  0
   38.0660   30.5000   39.2120 C   0  0  0  0  0  0  0  0  0  0  0  0
   38.2820   31.5580   38.4300 N   0  0  0  0  0  0  0  0  0  0  0  0
   38.4850   30.5200   40.5640 N   0  0  0  0  0  0  0  0  0  0  0  0
   38.8260   31.7150   41.3240 C   0  0  0  0  0  0  0  0  0  0  0  0
   39.9490   31.1900   42.1960 C   0  0  0  0  0  0  0  0  0  0  0  0
   39.9490   29.6930   42.0930 C   0  0  0  0  0  0  0  0  0  0  0  0
   38.6530   29.3750   41.4520 C   0  0  1  0  0  0  0  0  0  0  0  0
   38.0610   32.4030   36.5500 H   0  0  0  0  0  0  0  0  0  0  0  0
   36.5080   28.4840   37.0300 H   0  0  0  0  0  0  0  0  0  0  0  0
   39.1510   32.5340   40.6480 H   0  0  0  0  0  0  0  0  0  0  0  0
   37.9740   32.1070   41.9120 H   0  0  0  0  0  0  0  0  0  0  0  0
   39.8420   31.5420   43.2570 H   0  0  0  0  0  0  0  0  0  0  0  0
   40.9060   31.6310   41.8290 H   0  0  0  0  0  0  0  0  0  0  0  0
   39.9790   29.2480   43.1310 H   0  0  0  0  0  0  0  0  0  0  0  0
   40.8250   29.2980   41.5150 H   0  0  0  0  0  0  0  0  0  0  0  0
   38.7210   28.4640   40.8260 H   0  0  0  0  0  0  0  0  0  0  0  0
   35.6420   28.7030   41.1070 O   0  0  0  0  0  0  0  0  0  0  0  0
   36.5150   28.2570   41.9070 C   0  0  0  0  0  0  0  0  0  0  0  0
   37.5040   29.2280   42.4070 C   0  0  1  0  0  3  0  0  0  0  0  0
   38.0590   28.5010   43.6360 C   0  0  0  0  0  3  0  0  0  0  0  0
   39.1290   28.7300   43.7740 H   0  0  0  0  0  0  0  0  0  0  0  0
   37.9600   27.0230   43.2880 C   0  0  0  0  0  3  0  0  0  0  0  0
   37.8360   26.3820   44.1660 H   0  0  0  0  0  0  0  0  0  0  0  0
   36.7660   26.9510   42.4620 N   0  0  0  0  0  0  0  0  0  0  0  0
   36.0730   26.2230   42.1780 H   0  0  0  0  0  0  0  0  0  0  0  0
   36.8240   30.5130   35.2570 N   0  0  0  0  0  0  0  0  0  0  0  0
   35.8530   30.9020   35.3310 H   0  0  0  0  0  0  0  0  0  0  0  0
   37.4870   30.2240   34.4890 H   0  0  0  0  0  0  0  0  0  0  0  0
  1  6  1  0  0  0  0
  2  1  2  0  0  0  0
  2  3  1  0  0  0  0
  3  4  2  0  0  0  0
  4  5  1  0  0  0  0
  5  7  1  0  0  0  0
  6  5  2  0  0  0  0
  7  8  1  0  0  0  0
  7 11  1  0  0  0  0
  8 15  1  0  0  0  0
  8  9  1  0  0  0  0
  9 16  1  0  0  0  0
 10  9  1  0  0  0  0
 10 18  1  0  0  0  0
 11 20  1  6  0  0  0
 11 10  1  0  0  0  0
 11 23  1  0  0  0  0
 12  1  1  0  0  0  0
 13  3  1  0  0  0  0
 14  8  1  0  0  0  0
 17  9  1  0  0  0  0
 19 10  1  0  0  0  0
 21 22  2  0  0  0  0
 22 28  1  0  0  0  0
 23 22  1  6  0  0  0
 23 24  1  0  0  0  0
 24 25  1  0  0  0  0
 26 24  1  0  0  0  0
 26 27  1  0  0  0  0
 28 26  1  0  0  0  0
 29 28  1  0  0  0  0
 30 31  1  0  0  0  0
 30  2  1  0  0  0  0
 32 30  1  0  0  0  0
M  END
>  <minimizedAffinity>
-4.85279703

$$$$

 OpenBabel03252506323D

 32 34  0  0  1  0  0  0  0  0999 V2000
   38.9440   24.7640   40.5350 C   0  0  0  0  0  0  0  0  0  0  0  0
   38.3890   24.9000   41.8190 C   0  0  0  0  0  0  0  0  0  0  0  0
   37.8560   26.1310   42.1930 C   0  0  0  0  0  0  0  0  0  0  0  0
   37.9110   27.1230   41.2760 N   0  0  0  0  0  0  0  0  0  0  0  0
   38.4400   26.9770   40.0630 C   0  0  0  0  0  0  0  0  0  0  0  0
   38.9570   25.8100   39.6820 N   0  0  0  0  0  0  0  0  0  0  0  0
   38.4380   28.0770   39.1720 N   0  0  0  0  0  0  0  0  0  0  0  0
   38.6270   27.9960   37.7300 C   0  0  0  0  0  0  0  0  0  0  0  0
   39.3970   29.2750   37.4680 C   0  0  0  0  0  0  0  0  0  0  0  0
   39.3160   30.1210   38.7050 C   0  0  0  0  0  0  0  0  0  0  0  0
   38.2480   29.4840   39.5090 C   0  0  1  0  0  0  0  0  0  0  0  0
   39.3680   23.8420   40.1900 H   0  0  0  0  0  0  0  0  0  0  0  0
   37.4530   26.1790   43.1680 H   0  0  0  0  0  0  0  0  0  0  0  0
   39.1990   27.0830   37.4580 H   0  0  0  0  0  0  0  0  0  0  0  0
   37.6710   27.9490   37.1750 H   0  0  0  0  0  0  0  0  0  0  0  0
   39.0070   29.8090   36.5620 H   0  0  0  0  0  0  0  0  0  0  0  0
   40.4510   28.9980   37.2240 H   0  0  0  0  0  0  0  0  0  0  0  0
   39.0030   31.1680   38.4190 H   0  0  0  0  0  0  0  0  0  0  0  0
   40.2920   30.1830   39.2540 H   0  0  0  0  0  0  0  0  0  0  0  0
   38.4300   29.6040   40.5950 H   0  0  0  0  0  0  0  0  0  0  0  0
   35.4400   28.8510   40.6710 O   0  0  0  0  0  0  0  0  0  0  0  0
   36.0040   29.9480   40.3900 C   0  0  0  0  0  0  0  0  0  0  0  0
   36.8600   29.9580   39.1900 C   0  0  1  0  0  3  0  0  0  0  0  0
   36.9750   31.4580   38.9030 C   0  0  0  0  0  3  0  0  0  0  0  0
   37.9680   31.7010   38.4880 H   0  0  0  0  0  0  0  0  0  0  0  0
   36.8890   32.1210   40.2700 C   0  0  0  0  0  3  0  0  0  0  0  0
   36.4670   33.1300   40.2330 H   0  0  0  0  0  0  0  0  0  0  0  0
   35.9930   31.2480   41.0120 N   0  0  0  0  0  0  0  0  0  0  0  0
   35.3710   31.3210   41.8470 H   0  0  0  0  0  0  0  0  0  0  0  0
   38.4330   23.7100   42.6150 N   0  0  0  0  0  0  0  0  0  0  0  0
   37.5160   23.2540   42.3890 H   0  0  0  0  0  0  0  0  0  0  0  0
   39.2700   23.5070   43.2240 H   0  0  0  0  0  0  0  0  0  0  0  0
  1  2  1  0  0  0  0
  2  3  2  0  0  0  0
  2 30  1  0  0  0  0
  3 13  1  0  0  0  0
  4  3  1  0  0  0  0
  5  4  2  0  0  0  0
  6  5  1  0  0  0  0
  6  1  2  0  0  0  0
  7 11  1  0  0  0  0
  7  5  1  0  0  0  0
  8  7  1  0  0  0  0
  9  8  1  0  0  0  0
  9 10  1  0  0  0  0
 10 19  1  0  0  0  0
 10 11  1  0  0  0  0
 11 20  1  1  0  0  0
 12  1  1  0  0  0  0
 14  8  1  0  0  0  0
 15  8  1  0  0  0  0
 16  9  1  0  0  0  0
 17  9  1  0  0  0  0
 18 10  1  0  0  0  0
 22 21  2  0  0  0  0
 22 28  1  0  0  0  0
 23 24  1  1  0  0  0
 23 11  1  0  0  0  0
 23 22  1  0  0  0  0
 24 26  1  0  0  0  0
 25 24  1  0  0  0  0
 26 28  1  0  0  0  0
 27 26  1  0  0  0  0
 28 29  1  0  0  0  0
 30 32  1  0  0  0  0
 31 30  1  0  0  0  0
M  END
>  <minimizedAffinity>
-4.84199142

$$$$

 OpenBabel03252506323D

 32 34  0  0  1  0  0  0  0  0999 V2000
   38.2420   27.0120   36.1690 C   0  0  0  0  0  0  0  0  0  0  0  0
   37.5420   28.2270   36.0890 C   0  0  0  0  0  0  0  0  0  0  0  0
   37.1140   28.8350   37.2670 C   0  0  0  0  0  0  0  0  0  0  0  0
   37.4100   28.1990   38.4230 N   0  0  0  0  0  0  0  0  0  0  0  0
   38.0750   27.0480   38.4810 C   0  0  0  0  0  0  0  0  0  0  0  0
   38.4950   26.4470   37.3690 N   0  0  0  0  0  0  0  0  0  0  0  0
   38.3450   26.4700   39.7450 N   0  0  0  0  0  0  0  0  0  0  0  0
   39.3470   25.4470   40.0090 C   0  0  0  0  0  0  0  0  0  0  0  0
   38.6520   24.6330   41.0810 C   0  0  0  0  0  0  0  0  0  0  0  0
   37.4670   25.4190   41.5590 C   0  0  0  0  0  0  0  0  0  0  0  0
   37.6900   26.7760   41.0130 C   0  0  1  0  0  0  0  0  0  0  0  0
   38.5980   26.4980   35.2990 H   0  0  0  0  0  0  0  0  0  0  0  0
   36.5910   29.7450   37.1490 H   0  0  0  0  0  0  0  0  0  0  0  0
   39.5630   24.8600   39.0910 H   0  0  0  0  0  0  0  0  0  0  0  0
   40.3120   25.8700   40.3490 H   0  0  0  0  0  0  0  0  0  0  0  0
   39.3540   24.3730   41.9170 H   0  0  0  0  0  0  0  0  0  0  0  0
   38.3490   23.6580   40.6300 H   0  0  0  0  0  0  0  0  0  0  0  0
   37.4760   25.4570   42.6880 H   0  0  0  0  0  0  0  0  0  0  0  0
   36.4910   24.9760   41.2300 H   0  0  0  0  0  0  0  0  0  0  0  0
   36.7330   27.2870   40.7890 H   0  0  0  0  0  0  0  0  0  0  0  0
   38.4990   29.7700   40.8740 O   0  0  0  0  0  0  0  0  0  0  0  0
   38.0580   29.0640   41.8260 C   0  0  0  0  0  0  0  0  0  0  0  0
   38.5290   27.6680   41.8810 C   0  0  1  0  0  3  0  0  0  0  0  0
   38.2040   27.2860   43.3280 C   0  0  0  0  0  3  0  0  0  0  0  0
   37.9150   26.2240   43.3950 H   0  0  0  0  0  0  0  0  0  0  0  0
   36.9710   28.1080   43.6760 C   0  0  0  0  0  3  0  0  0  0  0  0
   36.8980   28.3440   44.7420 H   0  0  0  0  0  0  0  0  0  0  0  0
   37.1580   29.3340   42.9180 N   0  0  0  0  0  0  0  0  0  0  0  0
   36.8190   30.3210   42.9610 H   0  0  0  0  0  0  0  0  0  0  0  0
   37.3520   28.7180   34.7560 N   0  0  0  0  0  0  0  0  0  0  0  0
   38.1960   29.3240   34.6180 H   0  0  0  0  0  0  0  0  0  0  0  0
   36.5040   28.4300   34.1990 H   0  0  0  0  0  0  0  0  0  0  0  0
  1  6  1  0  0  0  0
  2  1  2  0  0  0  0
  2  3  1  0  0  0  0
  3  4  2  0  0  0  0
  4  5  1  0  0  0  0
  5  7  1  0  0  0  0
  6  5  2  0  0  0  0
  7  8  1  0  0  0  0
  7 11  1  0  0  0  0
  8 15  1  0  0  0  0
  8  9  1  0  0  0  0
  9 10  1  0  0  0  0
  9 16  1  0  0  0  0
 10 18  1  0  0  0  0
 11 20  1  6  0  0  0
 11 10  1  0  0  0  0
 11 23  1  0  0  0  0
 12  1  1  0  0  0  0
 13  3  1  0  0  0  0
 14  8  1  0  0  0  0
 17  9  1  0  0  0  0
 19 10  1  0  0  0  0
 21 22  2  0  0  0  0
 22 28  1  0  0  0  0
 23 22  1  1  0  0  0
 23 24  1  0  0  0  0
 24 25  1  0  0  0  0
 24 26  1  0  0  0  0
 26 27  1  0  0  0  0
 28 29  1  0  0  0  0
 28 26  1  0  0  0  0
 30  2  1  0  0  0  0
 31 30  1  0  0  0  0
 32 30  1  0  0  0  0
M  END
>  <minimizedAffinity>
-4.83650732

$$$$
