
 OpenBabel03252502463D

 45 48  0  0  1  0  0  0  0  0999 V2000
   46.5850   35.1190   42.5720 C   0  0  0  0  0  0  0  0  0  0  0  0
   46.9570   35.5780   43.5220 H   0  0  0  0  0  0  0  0  0  0  0  0
   45.8980   35.8740   42.1100 H   0  0  0  0  0  0  0  0  0  0  0  0
   47.7620   34.7920   41.7080 C   0  0  1  0  0  0  0  0  0  0  0  0
   48.8900   35.7720   41.6780 C   0  0  0  0  0  0  0  0  0  0  0  0
   49.0120   34.4650   42.3790 C   0  0  2  0  0  0  0  0  0  0  0  0
   47.4830   34.3420   40.7610 H   0  0  0  0  0  0  0  0  0  0  0  0
   48.7510   36.7050   42.2760 H   0  0  0  0  0  0  0  0  0  0  0  0
   49.4280   35.9730   40.7170 H   0  0  0  0  0  0  0  0  0  0  0  0
   49.2130   34.5500   43.4420 H   0  0  0  0  0  0  0  0  0  0  0  0
   49.8390   33.5210   41.6470 N   0  0  0  0  0  0  0  0  0  0  0  0
   49.1140   32.6430   40.8020 C   0  0  0  0  0  0  0  0  0  0  0  0
   50.1480   31.7510   40.1440 C   0  0  0  0  0  0  0  0  0  0  0  0
   50.8540   30.9510   41.0980 N   0  0  0  0  0  0  0  0  0  0  0  0
   50.9330   31.5490   42.4140 C   0  0  0  0  0  0  0  0  0  0  0  0
   50.9950   33.0690   42.2930 C   0  0  0  0  0  0  0  0  0  0  0  0
   48.3850   32.0590   41.3900 H   0  0  0  0  0  0  0  0  0  0  0  0
   48.5730   33.1680   40.0030 H   0  0  0  0  0  0  0  0  0  0  0  0
   49.5990   31.0780   39.4410 H   0  0  0  0  0  0  0  0  0  0  0  0
   50.8110   32.3790   39.5300 H   0  0  0  0  0  0  0  0  0  0  0  0
   51.7520   30.6210   40.7290 H   0  0  0  0  0  0  0  0  0  0  0  0
   51.7970   31.1530   42.9700 H   0  0  0  0  0  0  0  0  0  0  0  0
   49.9960   31.2970   42.9680 H   0  0  0  0  0  0  0  0  0  0  0  0
   51.9230   33.3730   41.7770 H   0  0  0  0  0  0  0  0  0  0  0  0
   51.0210   33.4450   43.3380 H   0  0  0  0  0  0  0  0  0  0  0  0
   45.8930   33.8220   42.8650 C   0  0  0  0  0  0  0  0  0  0  0  0
   46.3350   32.9240   42.4570 H   0  0  0  0  0  0  0  0  0  0  0  0
   44.8730   33.8850   42.3820 H   0  0  0  0  0  0  0  0  0  0  0  0
   44.6980   34.7690   46.2840 C   0  0  0  0  0  0  0  0  0  0  0  0
   44.9570   34.8430   44.8980 C   0  0  0  0  0  0  0  0  0  0  0  0
   45.6060   33.7640   44.3360 C   0  0  0  0  0  0  0  0  0  0  0  0
   45.9600   32.7070   45.1050 N   0  0  0  0  0  0  0  0  0  0  0  0
   45.7050   32.6610   46.4040 C   0  0  0  0  0  0  0  0  0  0  0  0
   45.0820   33.6760   46.9910 N   0  0  0  0  0  0  0  0  0  0  0  0
   44.1870   35.5980   46.7690 H   0  0  0  0  0  0  0  0  0  0  0  0
   44.6660   35.6950   44.3080 H   0  0  0  0  0  0  0  0  0  0  0  0
   48.0000   32.6880   48.2510 O   0  0  0  0  0  0  0  0  0  0  0  0
   47.0560   31.8380   48.3040 C   0  0  0  0  0  0  0  0  0  0  0  0
   46.1080   31.4830   47.2190 C   0  0  1  0  0  3  0  0  0  0  0  0
   44.9100   30.8920   47.8920 C   0  0  0  0  0  3  0  0  0  0  0  0
   43.9840   31.4920   47.7610 H   0  0  0  0  0  0  0  0  0  0  0  0
   45.2900   30.7820   49.3450 C   0  0  0  0  0  3  0  0  0  0  0  0
   45.0930   29.7700   49.7380 H   0  0  0  0  0  0  0  0  0  0  0  0
   46.7180   31.0490   49.4290 N   0  0  0  0  0  0  0  0  0  0  0  0
   47.3530   30.7110   50.1840 H   0  0  0  0  0  0  0  0  0  0  0  0
  1 26  1  0  0  0  0
  1  2  1  0  0  0  0
  3  1  1  0  0  0  0
  4  7  1  6  0  0  0
  4  6  1  0  0  0  0
  4  1  1  0  0  0  0
  5  4  1  0  0  0  0
  5  8  1  0  0  0  0
  5  6  1  0  0  0  0
  6 10  1  1  0  0  0
  9  5  1  0  0  0  0
 11 16  1  0  0  0  0
 11  6  1  0  0  0  0
 12 17  1  0  0  0  0
 12 11  1  0  0  0  0
 13 12  1  0  0  0  0
 13 14  1  0  0  0  0
 14 15  1  0  0  0  0
 15 23  1  0  0  0  0
 15 22  1  0  0  0  0
 16 15  1  0  0  0  0
 16 25  1  0  0  0  0
 18 12  1  0  0  0  0
 19 13  1  0  0  0  0
 20 13  1  0  0  0  0
 21 14  1  0  0  0  0
 24 16  1  0  0  0  0
 26 31  1  0  0  0  0
 27 26  1  0  0  0  0
 28 26  1  0  0  0  0
 29 35  1  0  0  0  0
 29 34  1  0  0  0  0
 30 29  2  0  0  0  0
 31 30  1  0  0  0  0
 31 32  2  0  0  0  0
 32 33  1  0  0  0  0
 33 34  2  0  0  0  0
 36 30  1  0  0  0  0
 37 38  2  0  0  0  0
 38 44  1  0  0  0  0
 39 33  1  1  0  0  0
 39 40  1  0  0  0  0
 39 38  1  0  0  0  0
 40 42  1  0  0  0  0
 41 40  1  0  0  0  0
 42 44  1  0  0  0  0
 42 43  1  0  0  0  0
 44 45  1  0  0  0  0
M  END
>  <minimizedAffinity>
-5.85910892

>  <minimizedRMSD>
1.58460486

$$$$
