
     RDKit          3D

 35 37  0  0  0  0  0  0  0  0999 V2000
   44.5015   35.7515   45.0128 C   0  0  0  0  0  0  0  0  0  0  0  0
   45.1142   35.7019   43.7491 C   0  0  0  0  0  0  0  0  0  0  0  0
   46.0151   34.6753   43.4793 C   0  0  0  0  0  0  0  0  0  0  0  0
   46.2378   33.7844   44.4713 N   0  0  0  0  0  0  0  0  0  0  0  0
   45.6487   33.8451   45.6626 C   0  0  0  0  0  0  0  0  0  0  0  0
   44.7836   34.8176   45.9464 N   0  0  0  0  0  0  0  0  0  0  0  0
   45.9434   32.8541   46.6300 N   0  0  0  0  0  0  0  0  0  0  0  0
   45.1400   32.5601   47.8094 C   0  0  0  0  0  0  0  0  0  0  0  0
   46.2195   32.2059   48.8124 C   0  0  0  0  0  0  0  0  0  0  0  0
   47.5042   32.0236   48.0593 C   0  0  0  0  0  0  0  0  0  0  0  0
   47.0845   31.9442   46.6418 C   0  0  1  0  0  0  0  0  0  0  0  0
   44.7174   36.7482   42.8536 N   0  0  0  0  0  0  0  0  0  0  0  0
   43.8004   36.5175   45.2790 H   0  0  0  0  0  0  0  0  0  0  0  0
   46.4471   34.6856   42.5149 H   0  0  0  0  0  0  0  0  0  0  0  0
   44.5426   33.4474   48.1107 H   0  0  0  0  0  0  0  0  0  0  0  0
   44.4212   31.7354   47.6429 H   0  0  0  0  0  0  0  0  0  0  0  0
   45.9430   31.2952   49.4055 H   0  0  0  0  0  0  0  0  0  0  0  0
   46.2870   33.0385   49.5534 H   0  0  0  0  0  0  0  0  0  0  0  0
   47.9824   31.0488   48.3688 H   0  0  0  0  0  0  0  0  0  0  0  0
   48.2381   32.8506   48.2462 H   0  0  0  0  0  0  0  0  0  0  0  0
   47.8567   32.3561   45.9635 H   0  0  0  0  0  0  0  0  0  0  0  0
   43.9034   36.3183   42.3532 H   0  0  0  0  0  0  0  0  0  0  0  0
   45.2388   37.6646   42.8415 H   0  0  0  0  0  0  0  0  0  0  0  0
   44.3820   30.4678   46.2448 O   0  0  0  0  0  0  0  0  0  0  0  0
   45.4012   30.5678   45.5017 C   0  0  0  0  0  0  0  0  0  0  0  0
   46.7107   30.5663   46.1784 C   0  0  1  0  0  0  0  0  0  0  0  0
   47.6577   30.2322   45.0211 C   0  0  1  0  0  0  0  0  0  0  0  0
   48.6245   30.7488   45.1478 H   0  0  0  0  0  0  0  0  0  0  0  0
   46.9902   30.8282   43.7913 C   0  0  2  0  0  0  0  0  0  0  0  0
   47.2323   30.2939   42.8681 H   0  0  0  0  0  0  0  0  0  0  0  0
   45.5718   30.6881   44.0753 N   0  0  0  0  0  0  0  0  0  0  0  0
   46.7853   29.8184   46.9876 H   0  0  0  0  0  0  0  0  0  0  0  0
   47.7521   29.1334   44.9106 H   0  0  0  0  0  0  0  0  0  0  0  0
   47.2270   31.9007   43.6845 H   0  0  0  0  0  0  0  0  0  0  0  0
   44.6816   30.6539   43.5313 H   0  0  0  0  0  0  0  0  0  0  0  0
  1  6  2  0
  2  1  1  0
  3  2  2  0
  3  4  1  0
  4  5  2  0
  5  6  1  0
  5  7  1  0
  7 11  1  0
  7  8  1  0
  8  9  1  0
 10  9  1  0
 11 10  1  0
 12  2  1  0
  1 13  1  0
  3 14  1  0
  8 15  1  0
  8 16  1  0
  9 17  1  0
  9 18  1  0
 10 19  1  0
 10 20  1  0
 11 21  1  6
 12 22  1  0
 12 23  1  0
 24 25  2  0
 25 26  1  0
 26 27  1  0
 27 28  1  1
 27 29  1  0
 29 30  1  6
 29 31  1  0
 31 25  1  0
 26 32  1  1
 27 33  1  0
 29 34  1  0
 31 35  1  0
 11 26  1  0
M  ISO  8  13  14  14  14  15  13  16  13  17  13  18  13  19  13  20  13
M  ISO  3  21  13  28   8  30   8
M  END
>  <DihAtoms>  (1) 
6,10,25,24

>  <DihDeg>  (1) 
59.98601358501556

$$$$
