
 OpenBabel03252503563D

 20 21  0  0  1  0  0  0  0  0999 V2000
   46.0570   34.8100   43.2460 C   0  0  0  0  0  0  0  0  0  0  0  0
   45.3040   35.9650   43.5150 C   0  0  0  0  0  0  0  0  0  0  0  0
   44.6200   36.0060   44.7310 C   0  0  0  0  0  0  0  0  0  0  0  0
   44.7180   34.9340   45.5770 N   0  0  0  0  0  0  0  0  0  0  0  0
   45.4560   33.8520   45.2650 C   0  0  0  0  0  0  0  0  0  0  0  0
   46.1210   33.7900   44.1070 N   0  0  0  0  0  0  0  0  0  0  0  0
   45.2080   36.8160   42.8760 H   0  0  0  0  0  0  0  0  0  0  0  0
   44.0200   36.8520   45.0180 H   0  0  0  0  0  0  0  0  0  0  0  0
   47.7160   31.8410   45.5060 O   0  0  0  0  0  0  0  0  0  0  0  0
   46.7320   32.0140   46.2950 C   0  0  0  0  0  0  0  0  0  0  0  0
   45.4590   32.7750   46.2930 C   0  0  1  0  0  3  0  0  0  0  0  0
   45.3710   33.2700   47.6950 C   0  0  0  0  0  3  0  0  0  0  0  0
   44.2940   33.4550   47.9260 H   0  0  0  0  0  0  0  0  0  0  0  0
   45.9180   32.1110   48.4980 C   0  0  0  0  0  3  0  0  0  0  0  0
   46.5140   32.4730   49.3620 H   0  0  0  0  0  0  0  0  0  0  0  0
   46.7200   31.3560   47.5570 N   0  0  0  0  0  0  0  0  0  0  0  0
   47.1650   30.4620   47.9240 H   0  0  0  0  0  0  0  0  0  0  0  0
   46.7310   34.8340   41.9890 C   0  0  0  0  0  0  0  0  0  0  0  0
   47.8870   35.3060   41.7530 O   0  0  0  0  0  0  0  0  0  0  0  0
   46.4510   34.4870   41.0010 H   0  0  0  0  0  0  0  0  0  0  0  0
  1  2  2  0  0  0  0
  1  6  1  0  0  0  0
  2  3  1  0  0  0  0
  3  8  1  0  0  0  0
  3  4  2  0  0  0  0
  5  4  1  0  0  0  0
  6  5  2  0  0  0  0
  7  2  1  0  0  0  0
  9 10  2  0  0  0  0
 10 16  1  0  0  0  0
 11  5  1  6  0  0  0
 11 10  1  0  0  0  0
 11 12  1  0  0  0  0
 12 13  1  0  0  0  0
 12 14  1  0  0  0  0
 14 15  1  0  0  0  0
 16 17  1  0  0  0  0
 16 14  1  0  0  0  0
 18  1  1  0  0  0  0
 19 18  2  0  0  0  0
 20 18  1  0  0  0  0
M  END
>  <minimizedAffinity>
-3.74187136

>  <minimizedRMSD>
0.800058305

$$$$
