
 OpenBabel03252503563D

 20 21  0  0  1  0  0  0  0  0999 V2000
   48.9520   32.6290   40.9880 C   0  0  0  0  0  0  0  0  0  0  0  0
   48.5890   33.2810   39.7970 C   0  0  0  0  0  0  0  0  0  0  0  0
   47.5840   34.2450   39.8850 C   0  0  0  0  0  0  0  0  0  0  0  0
   47.0160   34.4950   41.1060 N   0  0  0  0  0  0  0  0  0  0  0  0
   47.4060   33.8360   42.2150 C   0  0  0  0  0  0  0  0  0  0  0  0
   48.3670   32.9100   42.1550 N   0  0  0  0  0  0  0  0  0  0  0  0
   49.0130   33.1080   38.8320 H   0  0  0  0  0  0  0  0  0  0  0  0
   47.2450   34.7930   39.0240 H   0  0  0  0  0  0  0  0  0  0  0  0
   44.3790   33.9610   42.3790 O   0  0  0  0  0  0  0  0  0  0  0  0
   45.2220   34.0760   43.3270 C   0  0  0  0  0  0  0  0  0  0  0  0
   46.6900   34.2270   43.4610 C   0  0  1  0  0  3  0  0  0  0  0  0
   47.0000   33.3660   44.6370 C   0  0  0  0  0  3  0  0  0  0  0  0
   47.9500   33.7410   45.0930 H   0  0  0  0  0  0  0  0  0  0  0  0
   45.8180   33.6010   45.5500 C   0  0  0  0  0  3  0  0  0  0  0  0
   45.5350   32.6680   46.0800 H   0  0  0  0  0  0  0  0  0  0  0  0
   44.7650   34.0750   44.6750 N   0  0  0  0  0  0  0  0  0  0  0  0
   43.8470   34.3420   45.1400 H   0  0  0  0  0  0  0  0  0  0  0  0
   49.9840   31.6570   40.8280 C   0  0  0  0  0  0  0  0  0  0  0  0
   51.2360   31.8760   40.7820 O   0  0  0  0  0  0  0  0  0  0  0  0
   49.9650   30.5790   40.7150 H   0  0  0  0  0  0  0  0  0  0  0  0
  1  6  1  0  0  0  0
  2  3  1  0  0  0  0
  2  1  2  0  0  0  0
  3  4  2  0  0  0  0
  4  5  1  0  0  0  0
  6  5  2  0  0  0  0
  7  2  1  0  0  0  0
  8  3  1  0  0  0  0
  9 10  2  0  0  0  0
 10 11  1  0  0  0  0
 10 16  1  0  0  0  0
 11  5  1  6  0  0  0
 11 12  1  0  0  0  0
 12 13  1  0  0  0  0
 12 14  1  0  0  0  0
 14 15  1  0  0  0  0
 16 17  1  0  0  0  0
 16 14  1  0  0  0  0
 18  1  1  0  0  0  0
 19 18  2  0  0  0  0
 20 18  1  0  0  0  0
M  END
>  <minimizedAffinity>
-3.57546258

>  <minimizedRMSD>
4.38818169

$$$$
