
     RDKit          3D

 22 23  0  0  0  0  0  0  0  0999 V2000
   45.5323   34.7102   44.2334 C   0  0  0  0  0  0  0  0  0  0  0  0
   46.5778   33.9101   43.7453 C   0  0  0  0  0  0  0  0  0  0  0  0
   47.1094   32.9319   44.6011 C   0  0  0  0  0  0  0  0  0  0  0  0
   46.5901   32.8109   45.8453 N   0  0  0  0  0  0  0  0  0  0  0  0
   45.5869   33.5998   46.2729 C   0  0  0  0  0  0  0  0  0  0  0  0
   45.0555   34.5441   45.4820 N   0  0  0  0  0  0  0  0  0  0  0  0
   44.9180   35.9309   43.0700 S   0  0  0  0  0  0  0  0  0  0  0  0
   47.0073   33.9853   42.7644 H   0  0  0  0  0  0  0  0  0  0  0  0
   47.9156   32.2961   44.2611 H   0  0  0  0  0  0  0  0  0  0  0  0
   44.2485   36.9812   43.6852 H   0  0  0  0  0  0  0  0  0  0  0  0
   43.4238   34.9624   47.3610 O   0  0  0  0  0  0  0  0  0  0  0  0
   43.6209   33.7326   47.6385 C   0  0  0  0  0  0  0  0  0  0  0  0
   45.0699   33.4020   47.6615 C   0  0  1  0  0  0  0  0  0  0  0  0
   45.0485   31.9627   48.0838 C   0  0  1  0  0  0  0  0  0  0  0  0
   45.8845   31.3699   47.6946 H   0  0  0  0  0  0  0  0  0  0  0  0
   43.6947   31.5032   47.5873 C   0  0  1  0  0  0  0  0  0  0  0  0
   43.8000   31.3290   46.4949 H   0  0  0  0  0  0  0  0  0  0  0  0
   42.8309   32.5890   47.9325 N   0  0  0  0  0  0  0  0  0  0  0  0
   45.6313   34.0435   48.3702 H   0  0  0  0  0  0  0  0  0  0  0  0
   44.9946   31.9593   49.1950 H   0  0  0  0  0  0  0  0  0  0  0  0
   43.4012   30.5414   48.0799 H   0  0  0  0  0  0  0  0  0  0  0  0
   41.8733   32.8344   48.3055 H   0  0  0  0  0  0  0  0  0  0  0  0
  1  6  2  0
  2  1  1  0
  2  3  2  0
  3  4  1  0
  4  5  2  0
  6  5  1  0
  7  1  1  0
  2  8  1  0
  3  9  1  0
  7 10  1  0
 11 12  2  0
 12 13  1  0
 13 14  1  0
 14 15  1  1
 14 16  1  0
 16 17  1  6
 16 18  1  0
 18 12  1  0
 13 19  1  1
 14 20  1  0
 16 21  1  0
 18 22  1  0
  5 13  1  0
M  ISO  5   8  14   9  14  10  11  15   8  17   8
M  END
>  <DihAtoms>  (1) 
3,4,12,11

>  <DihDeg>  (1) 
122.09189840388812

$$$$
