
 OpenBabel03252500243D

 37 39  0  0  1  0  0  0  0  0999 V2000
   48.4150   31.1330   48.4380 C   0  0  2  0  0  0  0  0  0  0  0  0
   46.9650   31.0740   48.7300 C   0  0  2  0  0  0  0  0  0  0  0  0
   46.4860   29.9320   47.9120 C   0  0  0  0  0  0  0  0  0  0  0  0
   47.5310   29.0380   47.7840 O   0  0  0  0  0  0  0  0  0  0  0  0
   48.6630   29.6100   48.2680 C   0  0  0  0  0  0  0  0  0  0  0  0
   48.8620   31.5100   47.5670 H   0  0  0  0  0  0  0  0  0  0  0  0
   46.9040   30.8220   49.8200 H   0  0  0  0  0  0  0  0  0  0  0  0
   45.7420   29.3630   48.5520 H   0  0  0  0  0  0  0  0  0  0  0  0
   45.9040   30.1370   47.0170 H   0  0  0  0  0  0  0  0  0  0  0  0
   49.5820   29.3960   47.7300 H   0  0  0  0  0  0  0  0  0  0  0  0
   48.8190   29.2080   49.3050 H   0  0  0  0  0  0  0  0  0  0  0  0
   46.3070   32.2530   48.4620 O   0  0  0  0  0  0  0  0  0  0  0  0
   47.3830   32.3900   46.1340 O   0  0  0  0  0  0  0  0  0  0  0  0
   46.0470   32.4050   46.8280 P   0  0  1  0  0  0  0  0  0  0  0  0
   45.1420   31.0850   46.2710 O   0  0  0  0  0  0  0  0  0  0  0  0
   45.2310   30.9500   45.3050 H   0  0  0  0  0  0  0  0  0  0  0  0
   45.2830   33.8740   46.4150 O   0  0  0  0  0  0  0  0  0  0  0  0
   44.9400   36.1210   43.6590 C   0  0  0  0  0  0  0  0  0  0  0  0
   44.8810   35.2710   42.5230 C   0  0  0  0  0  0  0  0  0  0  0  0
   44.9670   33.8880   42.7670 C   0  0  0  0  0  0  0  0  0  0  0  0
   45.0970   33.4660   44.0460 N   0  0  0  0  0  0  0  0  0  0  0  0
   45.1490   34.3080   45.0930 C   0  0  0  0  0  0  0  0  0  0  0  0
   45.0690   35.6290   44.8920 N   0  0  0  0  0  0  0  0  0  0  0  0
   44.7760   35.6690   41.5180 H   0  0  0  0  0  0  0  0  0  0  0  0
   44.9280   33.1920   41.9380 H   0  0  0  0  0  0  0  0  0  0  0  0
   44.8560   37.4700   43.4220 O   0  0  0  0  0  0  0  0  0  0  0  0
   44.2360   37.7910   42.6870 H   0  0  0  0  0  0  0  0  0  0  0  0
   49.1920   31.6520   49.4360 O   0  0  0  0  0  0  0  0  0  0  0  0
   50.1460   29.4910   51.4470 O   0  0  0  0  0  0  0  0  0  0  0  0
   50.5490   30.6590   51.1210 C   0  0  0  0  0  0  0  0  0  0  0  0
   50.4120   31.1960   49.7200 C   0  0  2  0  0  0  0  0  0  0  0  0
   51.3320   32.3930   49.8440 C   0  0  0  0  0  0  0  0  0  0  0  0
   52.3860   32.1680   49.6240 H   0  0  0  0  0  0  0  0  0  0  0  0
   51.1370   32.8350   51.2920 C   0  0  0  0  0  0  0  0  0  0  0  0
   52.0470   33.4030   51.5780 H   0  0  0  0  0  0  0  0  0  0  0  0
   51.1650   31.5790   52.0200 N   0  0  0  0  0  0  0  0  0  0  0  0
   51.5140   31.2920   52.9600 H   0  0  0  0  0  0  0  0  0  0  0  0
  1  6  1  6  0  0  0
  1  2  1  0  0  0  0
  1 28  1  0  0  0  0
  2  7  1  1  0  0  0
  3  8  1  0  0  0  0
  3  2  1  0  0  0  0
  4  3  1  0  0  0  0
  4  5  1  0  0  0  0
  5  1  1  0  0  0  0
  5 11  1  0  0  0  0
  9  3  1  0  0  0  0
 10  5  1  0  0  0  0
 12  2  1  0  0  0  0
 14 13  2  6  0  0  0
 14 12  1  0  0  0  0
 15 14  1  0  0  0  0
 16 15  1  0  0  0  0
 17 14  1  0  0  0  0
 18 23  1  0  0  0  0
 19 20  1  0  0  0  0
 19 18  2  0  0  0  0
 20 21  2  0  0  0  0
 21 22  1  0  0  0  0
 22 17  1  0  0  0  0
 23 22  2  0  0  0  0
 24 19  1  0  0  0  0
 25 20  1  0  0  0  0
 26 18  1  0  0  0  0
 27 26  1  0  0  0  0
 30 29  2  0  0  0  0
 30 36  1  0  0  0  0
 31 28  1  1  0  0  0
 31 32  1  0  0  0  0
 31 30  1  0  0  0  0
 32 34  1  0  0  0  0
 33 32  1  0  0  0  0
 34 35  1  0  0  0  0
 34 36  1  0  0  0  0
 36 37  1  0  0  0  0
M  END
>  <minimizedAffinity>
-5.78214884

>  <minimizedRMSD>
1.74173582

$$$$
