
 OpenBabel03242510123D

 42 45  0  0  1  0  0  0  0  0999 V2000
   46.7650   32.9570   38.7050 N   0  0  0  0  0  0  0  0  0  0  0  0
   45.9320   33.3130   37.5730 C   0  0  0  0  0  0  0  0  0  0  0  0
   45.0790   32.1470   37.1270 C   0  0  0  0  0  0  0  0  0  0  0  0
   45.8920   31.0270   36.6570 N   0  0  0  0  0  0  0  0  0  0  0  0
   47.2410   31.2430   37.1440 C   0  0  0  0  0  0  0  0  0  0  0  0
   47.1590   31.5690   38.6410 C   0  0  1  0  0  0  0  0  0  0  0  0
   45.2260   34.0970   37.9230 H   0  0  0  0  0  0  0  0  0  0  0  0
   46.5260   33.7530   36.7590 H   0  0  0  0  0  0  0  0  0  0  0  0
   44.4350   32.5380   36.3100 H   0  0  0  0  0  0  0  0  0  0  0  0
   44.4930   31.8230   38.0130 H   0  0  0  0  0  0  0  0  0  0  0  0
   45.5550   30.1410   37.1380 H   0  0  0  0  0  0  0  0  0  0  0  0
   47.7000   32.1030   36.5970 H   0  0  0  0  0  0  0  0  0  0  0  0
   47.8420   30.3710   36.9090 H   0  0  0  0  0  0  0  0  0  0  0  0
   46.2800   30.9900   39.0440 H   0  0  0  0  0  0  0  0  0  0  0  0
   44.8500   32.9560   41.1960 Br  0  0  0  0  0  0  0  0  0  0  0  0
   46.4660   33.9430   40.9520 C   0  0  0  0  0  0  0  0  0  0  0  0
   46.9110   34.7750   41.9510 C   0  0  0  0  0  0  0  0  0  0  0  0
   48.1050   35.5200   41.7850 C   0  0  0  0  0  0  0  0  0  0  0  0
   48.7890   35.3850   40.6120 C   0  0  0  0  0  0  0  0  0  0  0  0
   48.2990   34.5380   39.6470 C   0  0  0  0  0  0  0  0  0  0  0  0
   47.1700   33.8160   39.7730 C   0  0  0  0  0  0  0  0  0  0  0  0
   48.3680   36.1410   42.6220 H   0  0  0  0  0  0  0  0  0  0  0  0
   49.6830   35.9560   40.5130 H   0  0  0  0  0  0  0  0  0  0  0  0
   48.9010   34.4860   38.7430 H   0  0  0  0  0  0  0  0  0  0  0  0
   45.6330   34.0530   45.2960 C   0  0  0  0  0  0  0  0  0  0  0  0
   44.7000   35.0770   45.5280 C   0  0  0  0  0  0  0  0  0  0  0  0
   44.5370   36.0010   44.5070 C   0  0  0  0  0  0  0  0  0  0  0  0
   45.2540   35.8930   43.3610 N   0  0  0  0  0  0  0  0  0  0  0  0
   46.1470   34.8840   43.1790 C   0  0  0  0  0  0  0  0  0  0  0  0
   46.3120   33.9840   44.1650 N   0  0  0  0  0  0  0  0  0  0  0  0
   45.7310   33.3510   46.1190 H   0  0  0  0  0  0  0  0  0  0  0  0
   44.1010   35.2150   46.4170 H   0  0  0  0  0  0  0  0  0  0  0  0
   43.8320   36.8070   44.6360 H   0  0  0  0  0  0  0  0  0  0  0  0
   48.7180   31.3730   41.9330 O   0  0  0  0  0  0  0  0  0  0  0  0
   48.3240   30.9970   40.7680 C   0  0  0  0  0  0  0  0  0  0  0  0
   48.4040   31.1540   39.2820 C   0  0  1  0  0  0  0  0  0  0  0  0
   48.5990   29.6630   38.9420 C   0  0  0  0  0  0  0  0  0  0  0  0
   49.6110   29.3260   39.2380 H   0  0  0  0  0  0  0  0  0  0  0  0
   47.5040   28.9900   39.7610 C   0  0  0  0  0  0  0  0  0  0  0  0
   47.9160   28.0480   40.2270 H   0  0  0  0  0  0  0  0  0  0  0  0
   47.3580   29.9270   40.8880 N   0  0  0  0  0  0  0  0  0  0  0  0
   46.5770   29.6100   41.5390 H   0  0  0  0  0  0  0  0  0  0  0  0
  1 21  1  0  0  0  0
  2  7  1  0  0  0  0
  2  1  1  0  0  0  0
  3  2  1  0  0  0  0
  3 10  1  0  0  0  0
  4  3  1  0  0  0  0
  4 11  1  0  0  0  0
  4  5  1  0  0  0  0
  5  6  1  0  0  0  0
  6  1  1  0  0  0  0
  6 14  1  1  0  0  0
  6 36  1  0  0  0  0
  8  2  1  0  0  0  0
  9  3  1  0  0  0  0
 12  5  1  0  0  0  0
 13  5  1  0  0  0  0
 16 15  1  0  0  0  0
 16 17  1  0  0  0  0
 17 29  1  0  0  0  0
 18 17  2  0  0  0  0
 18 22  1  0  0  0  0
 19 18  1  0  0  0  0
 20 21  1  0  0  0  0
 20 19  2  0  0  0  0
 21 16  2  0  0  0  0
 23 19  1  0  0  0  0
 24 20  1  0  0  0  0
 25 26  1  0  0  0  0
 25 31  1  0  0  0  0
 26 32  1  0  0  0  0
 27 33  1  0  0  0  0
 27 26  2  0  0  0  0
 28 27  1  0  0  0  0
 29 28  2  0  0  0  0
 29 30  1  0  0  0  0
 30 25  2  0  0  0  0
 35 41  1  0  0  0  0
 35 34  2  0  0  0  0
 36 37  1  6  0  0  0
 36 35  1  0  0  0  0
 37 38  1  0  0  0  0
 37 39  1  0  0  0  0
 39 40  1  0  0  0  0
 39 41  1  0  0  0  0
 41 42  1  0  0  0  0
M  END
>  <minimizedAffinity>
-5.46492624

>  <minimizedRMSD>
1.12978351

$$$$
