
     RDKit          3D

 23 24  0  0  0  0  0  0  0  0999 V2000
   44.3817   35.8088   44.5917 C   0  0  0  0  0  0  0  0  0  0  0  0
   44.5656   35.3077   43.3035 C   0  0  0  0  0  0  0  0  0  0  0  0
   45.2075   34.0784   43.1508 C   0  0  0  0  0  0  0  0  0  0  0  0
   45.6124   33.4481   44.2681 N   0  0  0  0  0  0  0  0  0  0  0  0
   45.4287   33.9439   45.5155 C   0  0  0  0  0  0  0  0  0  0  0  0
   44.8090   35.1328   45.6795 N   0  0  0  0  0  0  0  0  0  0  0  0
   44.0671   36.1212   42.2419 N   0  0  0  0  0  0  0  0  0  0  0  0
   45.3297   33.7285   42.1534 H   0  0  0  0  0  0  0  0  0  0  0  0
   45.7806   33.3822   46.3692 H   0  0  0  0  0  0  0  0  0  0  0  0
   44.5358   36.8842   41.6843 H   0  0  0  0  0  0  0  0  0  0  0  0
   43.1012   35.7222   42.1960 H   0  0  0  0  0  0  0  0  0  0  0  0
   43.9223   36.7910   47.1646 O   0  0  0  0  0  0  0  0  0  0  0  0
   44.0404   37.5891   46.2283 C   0  0  0  0  0  0  0  0  0  0  0  0
   43.7138   37.1020   44.8690 C   0  0  1  0  0  0  0  0  0  0  0  0
   44.2507   38.1262   43.9150 C   0  0  1  0  0  0  0  0  0  0  0  0
   45.2523   37.8198   43.4943 H   0  0  0  0  0  0  0  0  0  0  0  0
   44.3567   39.3888   44.7069 C   0  0  1  0  0  0  0  0  0  0  0  0
   45.2751   39.9886   44.4544 H   0  0  0  0  0  0  0  0  0  0  0  0
   44.4268   38.9401   46.0603 N   0  0  0  0  0  0  0  0  0  0  0  0
   42.6192   36.9522   44.7615 H   0  0  0  0  0  0  0  0  0  0  0  0
   43.5971   38.2662   43.0145 H   0  0  0  0  0  0  0  0  0  0  0  0
   43.4575   40.0013   44.5195 H   0  0  0  0  0  0  0  0  0  0  0  0
   44.7270   39.5022   46.9017 H   0  0  0  0  0  0  0  0  0  0  0  0
  1  6  1  0
  2  1  2  0
  3  2  1  0
  3  4  2  0
  4  5  1  0
  5  6  2  0
  7  2  1  0
  3  8  1  0
  5  9  1  0
  7 10  1  0
  7 11  1  0
 12 13  2  0
 13 14  1  0
 14 15  1  0
 15 16  1  6
 15 17  1  0
 17 18  1  6
 17 19  1  0
 19 13  1  0
 14 20  1  1
 15 21  1  0
 17 22  1  0
 19 23  1  0
  1 14  1  0
M  ISO  4   8  14   9  14  16   8  18   8
M  END
>  <DihAtoms>  (1) 
5,0,13,12

>  <DihDeg>  (1) 
-26.432416087069615

$$$$
