
     RDKit          3D

 23 24  0  0  0  0  0  0  0  0999 V2000
   44.6623   36.0337   44.3239 C   0  0  0  0  0  0  0  0  0  0  0  0
   45.4629   35.5619   43.2839 C   0  0  0  0  0  0  0  0  0  0  0  0
   46.1729   34.3795   43.5252 C   0  0  0  0  0  0  0  0  0  0  0  0
   46.0531   33.7563   44.7373 N   0  0  0  0  0  0  0  0  0  0  0  0
   45.2620   34.2635   45.7026 C   0  0  0  0  0  0  0  0  0  0  0  0
   44.5575   35.4165   45.4941 N   0  0  0  0  0  0  0  0  0  0  0  0
   45.1223   33.6294   46.9751 N   0  0  0  0  0  0  0  0  0  0  0  0
   44.1033   36.9478   44.1598 H   0  0  0  0  0  0  0  0  0  0  0  0
   45.5686   36.0425   42.3198 H   0  0  0  0  0  0  0  0  0  0  0  0
   44.7501   32.6601   46.8309 H   0  0  0  0  0  0  0  0  0  0  0  0
   45.3467   34.0400   47.9140 H   0  0  0  0  0  0  0  0  0  0  0  0
   45.2773   32.0561   41.7059 O   0  0  0  0  0  0  0  0  0  0  0  0
   46.4271   32.5337   41.9599 C   0  0  0  0  0  0  0  0  0  0  0  0
   47.0636   33.7546   42.5203 C   0  0  2  0  0  0  0  0  0  0  0  0
   48.3450   33.2432   43.1249 C   0  0  2  0  0  0  0  0  0  0  0  0
   48.2363   33.0786   44.2282 H   0  0  0  0  0  0  0  0  0  0  0  0
   48.6876   31.9715   42.4112 C   0  0  2  0  0  0  0  0  0  0  0  0
   48.8431   31.1122   43.1061 H   0  0  0  0  0  0  0  0  0  0  0  0
   47.5126   31.6501   41.6141 N   0  0  0  0  0  0  0  0  0  0  0  0
   47.3289   34.4103   41.6784 H   0  0  0  0  0  0  0  0  0  0  0  0
   49.1088   34.0452   43.0137 H   0  0  0  0  0  0  0  0  0  0  0  0
   49.5755   32.0908   41.7487 H   0  0  0  0  0  0  0  0  0  0  0  0
   47.6343   30.8501   40.9329 H   0  0  0  0  0  0  0  0  0  0  0  0
  1  6  2  0
  2  3  2  0
  2  1  1  0
  3  4  1  0
  4  5  2  0
  5  7  1  0
  6  5  1  0
  1  8  1  0
  2  9  1  0
  7 10  1  0
  7 11  1  0
 12 13  2  0
 13 14  1  0
 14 15  1  0
 15 16  1  1
 15 17  1  0
 17 18  1  1
 17 19  1  0
 19 13  1  0
 14 20  1  6
 15 21  1  0
 17 22  1  0
 19 23  1  0
  3 14  1  0
M  ISO  4   8  14   9  14  16   8  18   8
M  END
>  <DihAtoms>  (1) 
1,2,13,12

>  <DihDeg>  (1) 
58.48768933036323

$$$$
