
 OpenBabel03252508383D

 41 44  0  0  1  0  0  0  0  0999 V2000
   45.1690   33.9810   40.7070 C   0  0  0  0  0  0  0  0  0  0  0  0
   44.1240   33.6410   39.8960 C   0  0  0  0  0  0  0  0  0  0  0  0
   44.4340   33.1230   38.6720 C   0  0  0  0  0  0  0  0  0  0  0  0
   45.7190   32.9300   38.2180 C   0  0  0  0  0  0  0  0  0  0  0  0
   46.7420   33.2850   39.0640 C   0  0  0  0  0  0  0  0  0  0  0  0
   46.4960   33.8100   40.3100 C   0  0  0  0  0  0  0  0  0  0  0  0
   43.6210   32.8470   38.0110 H   0  0  0  0  0  0  0  0  0  0  0  0
   45.8920   32.5140   37.2330 H   0  0  0  0  0  0  0  0  0  0  0  0
   47.7510   33.1310   38.7060 H   0  0  0  0  0  0  0  0  0  0  0  0
   40.8280   35.2330   40.7960 C   0  0  0  0  0  0  0  0  0  0  0  0
   42.1340   35.0870   40.2750 C   0  0  0  0  0  0  0  0  0  0  0  0
   42.7900   33.8590   40.4070 C   0  0  0  0  0  0  0  0  0  0  0  0
   42.0850   32.8850   41.0470 N   0  0  0  0  0  0  0  0  0  0  0  0
   40.8540   33.0460   41.5310 C   0  0  0  0  0  0  0  0  0  0  0  0
   40.2310   34.2210   41.4030 N   0  0  0  0  0  0  0  0  0  0  0  0
   40.2190   36.5080   40.6280 N   0  0  0  0  0  0  0  0  0  0  0  0
   42.6880   35.8580   39.7690 H   0  0  0  0  0  0  0  0  0  0  0  0
   40.3130   32.2590   42.0360 H   0  0  0  0  0  0  0  0  0  0  0  0
   40.0180   36.7810   39.6400 H   0  0  0  0  0  0  0  0  0  0  0  0
   39.9710   37.1630   41.4220 H   0  0  0  0  0  0  0  0  0  0  0  0
   47.6430   34.1530   41.1270 C   0  0  0  0  0  0  0  0  0  0  0  0
   48.1790   35.4100   40.8980 C   0  0  0  0  0  0  0  0  0  0  0  0
   49.2810   35.9170   41.5850 C   0  0  0  0  0  0  0  0  0  0  0  0
   49.8560   35.1020   42.5440 C   0  0  0  0  0  0  0  0  0  0  0  0
   49.3330   33.8470   42.7840 C   0  0  0  0  0  0  0  0  0  0  0  0
   48.2320   33.3680   42.0820 C   0  0  0  0  0  0  0  0  0  0  0  0
   47.7690   36.0890   40.1590 H   0  0  0  0  0  0  0  0  0  0  0  0
   49.6720   36.9030   41.3800 H   0  0  0  0  0  0  0  0  0  0  0  0
   50.7130   35.4330   43.1140 H   0  0  0  0  0  0  0  0  0  0  0  0
   49.8110   33.2490   43.5370 H   0  0  0  0  0  0  0  0  0  0  0  0
   49.1850   31.0770   40.6360 O   0  0  0  0  0  0  0  0  0  0  0  0
   48.4720   30.9480   41.6900 C   0  0  0  0  0  0  0  0  0  0  0  0
   47.6660   32.0430   42.3190 C   0  0  1  0  0  3  0  0  0  0  0  0
   47.6470   31.6290   43.7620 C   0  0  0  0  0  3  0  0  0  0  0  0
   48.2930   32.3300   44.3250 H   0  0  0  0  0  0  0  0  0  0  0  0
   48.1130   30.2030   43.8320 C   0  0  0  0  0  3  0  0  0  0  0  0
   49.0960   30.2150   44.3650 H   0  0  0  0  0  0  0  0  0  0  0  0
   48.3030   29.7640   42.4620 N   0  0  0  0  0  0  0  0  0  0  0  0
   48.3150   28.7970   42.0910 H   0  0  0  0  0  0  0  0  0  0  0  0
   44.7530   34.9720   43.1030 N   0  0  0  0  0  0  0  0  0  0  0  0
   44.9350   34.5360   42.0230 C   0  0  0  0  0  0  0  0  0  0  0  0
  1 41  1  0  0  0  0
  2 12  1  0  0  0  0
  2  1  2  0  0  0  0
  3  2  1  0  0  0  0
  4  3  2  0  0  0  0
  4  5  1  0  0  0  0
  5  6  2  0  0  0  0
  6  1  1  0  0  0  0
  6 21  1  0  0  0  0
  7  3  1  0  0  0  0
  8  4  1  0  0  0  0
  9  5  1  0  0  0  0
 10 15  1  0  0  0  0
 11 12  1  0  0  0  0
 11 10  2  0  0  0  0
 12 13  2  0  0  0  0
 13 14  1  0  0  0  0
 14 18  1  0  0  0  0
 15 14  2  0  0  0  0
 16 10  1  0  0  0  0
 16 20  1  0  0  0  0
 17 11  1  0  0  0  0
 19 16  1  0  0  0  0
 21 26  1  0  0  0  0
 22 21  2  0  0  0  0
 22 23  1  0  0  0  0
 23 24  2  0  0  0  0
 24 25  1  0  0  0  0
 24 29  1  0  0  0  0
 25 30  1  0  0  0  0
 26 25  2  0  0  0  0
 27 22  1  0  0  0  0
 28 23  1  0  0  0  0
 31 32  2  0  0  0  0
 32 33  1  0  0  0  0
 32 38  1  0  0  0  0
 33 26  1  1  0  0  0
 33 34  1  0  0  0  0
 34 36  1  0  0  0  0
 34 35  1  0  0  0  0
 36 37  1  0  0  0  0
 38 36  1  0  0  0  0
 39 38  1  0  0  0  0
 41 40  3  0  0  0  0
M  END
>  <minimizedAffinity>
-6.1799612

>  <minimizedRMSD>
1.17890859

$$$$
