
 OpenBabel03252506273D

 45 49  0  0  1  0  0  0  0  0999 V2000
   36.7870   27.8250   39.5470 C   0  0  0  0  0  0  0  0  0  0  0  0
   36.4250   29.1440   39.6790 C   0  0  0  0  0  0  0  0  0  0  0  0
   36.4300   29.6500   40.9720 C   0  0  0  0  0  0  0  0  0  0  0  0
   36.7750   28.8800   42.0620 C   0  0  0  0  0  0  0  0  0  0  0  0
   36.8660   29.0900   43.3880 N   0  0  0  0  0  0  0  0  0  0  0  0
   37.2520   27.9890   44.0310 C   0  0  0  0  0  0  0  0  0  0  0  0
   37.4400   26.9700   43.1210 C   0  0  0  0  0  0  0  0  0  0  0  0
   37.1360   27.5540   41.9050 C   0  0  0  0  0  0  0  0  0  0  0  0
   37.1350   27.0440   40.6350 C   0  0  0  0  0  0  0  0  0  0  0  0
   36.7710   27.4660   38.5160 H   0  0  0  0  0  0  0  0  0  0  0  0
   36.1700   30.6680   41.2340 H   0  0  0  0  0  0  0  0  0  0  0  0
   36.6630   29.9950   43.8690 H   0  0  0  0  0  0  0  0  0  0  0  0
   37.4120   27.8580   45.0980 H   0  0  0  0  0  0  0  0  0  0  0  0
   37.7490   25.9530   43.3140 H   0  0  0  0  0  0  0  0  0  0  0  0
   39.7400   26.2590   40.2080 O   0  0  0  0  0  0  0  0  0  0  0  0
   38.9240   25.3740   40.5920 C   0  0  0  0  0  0  0  0  0  0  0  0
   37.5050   25.6450   40.2980 C   0  0  1  0  0  3  0  0  0  0  0  0
   36.6800   24.6120   41.0210 C   0  0  0  0  0  3  0  0  0  0  0  0
   35.8470   24.2550   40.3820 H   0  0  0  0  0  0  0  0  0  0  0  0
   37.6600   23.4740   41.1820 C   0  0  0  0  0  3  0  0  0  0  0  0
   37.4520   22.8760   42.1090 H   0  0  0  0  0  0  0  0  0  0  0  0
   38.9770   24.1020   41.2720 N   0  0  0  0  0  0  0  0  0  0  0  0
   39.8920   23.8420   41.6970 H   0  0  0  0  0  0  0  0  0  0  0  0
   36.0330   30.1110   38.6720 C   0  0  0  0  0  0  0  0  0  0  0  0
   35.4670   30.9240   39.2000 H   0  0  0  0  0  0  0  0  0  0  0  0
   35.2960   29.6860   37.9540 H   0  0  0  0  0  0  0  0  0  0  0  0
   37.1280   30.7710   37.9080 C   0  0  0  0  0  0  0  0  0  0  0  0
   37.8350   29.9680   37.5860 H   0  0  0  0  0  0  0  0  0  0  0  0
   36.7130   31.2080   37.0040 H   0  0  0  0  0  0  0  0  0  0  0  0
   39.3700   32.7830   39.8240 C   0  0  0  0  0  0  0  0  0  0  0  0
   38.1610   33.5160   39.9150 C   0  0  0  0  0  0  0  0  0  0  0  0
   37.1960   32.8610   39.2210 C   0  0  0  0  0  0  0  0  0  0  0  0
   37.7810   31.7700   38.7220 N   0  0  0  0  0  0  0  0  0  0  0  0
   39.0760   31.7200   39.0790 N   0  0  0  0  0  0  0  0  0  0  0  0
   38.0100   34.4570   40.4510 H   0  0  0  0  0  0  0  0  0  0  0  0
   36.1510   33.1150   39.0650 H   0  0  0  0  0  0  0  0  0  0  0  0
   42.1350   34.8880   40.9070 C   0  0  0  0  0  0  0  0  0  0  0  0
   42.9520   34.0110   41.6160 C   0  0  0  0  0  0  0  0  0  0  0  0
   42.5380   32.6840   41.7160 C   0  0  0  0  0  0  0  0  0  0  0  0
   41.3740   32.3330   41.1210 N   0  0  0  0  0  0  0  0  0  0  0  0
   40.6050   33.1900   40.4460 C   0  0  0  0  0  0  0  0  0  0  0  0
   40.9940   34.4800   40.3410 N   0  0  0  0  0  0  0  0  0  0  0  0
   42.4930   35.9080   40.8530 H   0  0  0  0  0  0  0  0  0  0  0  0
   43.8880   34.2790   42.0980 H   0  0  0  0  0  0  0  0  0  0  0  0
   43.1120   31.9410   42.2470 H   0  0  0  0  0  0  0  0  0  0  0  0
  1  2  2  0  0  0  0
  1  9  1  0  0  0  0
  2  3  1  0  0  0  0
  3 11  1  0  0  0  0
  3  4  2  0  0  0  0
  4  5  1  0  0  0  0
  5 12  1  0  0  0  0
  5  6  1  0  0  0  0
  6 13  1  0  0  0  0
  7 14  1  0  0  0  0
  7  6  2  0  0  0  0
  8  4  1  0  0  0  0
  8  7  1  0  0  0  0
  9  8  2  0  0  0  0
 10  1  1  0  0  0  0
 15 16  2  0  0  0  0
 16 22  1  0  0  0  0
 17 16  1  0  0  0  0
 17  9  1  1  0  0  0
 17 18  1  0  0  0  0
 18 20  1  0  0  0  0
 19 18  1  0  0  0  0
 20 22  1  0  0  0  0
 20 21  1  0  0  0  0
 22 23  1  0  0  0  0
 24 25  1  0  0  0  0
 24  2  1  0  0  0  0
 26 24  1  0  0  0  0
 27 24  1  0  0  0  0
 27 33  1  0  0  0  0
 28 27  1  0  0  0  0
 29 27  1  0  0  0  0
 30 31  1  0  0  0  0
 30 41  1  0  0  0  0
 31 35  1  0  0  0  0
 32 31  2  0  0  0  0
 33 34  1  0  0  0  0
 33 32  1  0  0  0  0
 34 30  2  0  0  0  0
 36 32  1  0  0  0  0
 37 38  1  0  0  0  0
 38 39  2  0  0  0  0
 38 44  1  0  0  0  0
 39 45  1  0  0  0  0
 40 39  1  0  0  0  0
 41 40  2  0  0  0  0
 42 41  1  0  0  0  0
 42 37  2  0  0  0  0
 43 37  1  0  0  0  0
M  END
>  <minimizedAffinity>
-6.70904112

$$$$

 OpenBabel03252506273D

 45 49  0  0  1  0  0  0  0  0999 V2000
   36.6150   27.1420   40.3890 C   0  0  0  0  0  0  0  0  0  0  0  0
   36.1730   26.8830   39.1140 C   0  0  0  0  0  0  0  0  0  0  0  0
   36.3010   25.5710   38.6790 C   0  0  0  0  0  0  0  0  0  0  0  0
   36.8390   24.5820   39.4740 C   0  0  0  0  0  0  0  0  0  0  0  0
   37.0840   23.2670   39.3270 N   0  0  0  0  0  0  0  0  0  0  0  0
   37.6350   22.7470   40.4240 C   0  0  0  0  0  0  0  0  0  0  0  0
   37.7810   23.7360   41.3740 C   0  0  0  0  0  0  0  0  0  0  0  0
   37.2780   24.8650   40.7550 C   0  0  0  0  0  0  0  0  0  0  0  0
   37.1570   26.1560   41.1950 C   0  0  0  0  0  0  0  0  0  0  0  0
   36.4970   28.1830   40.6920 H   0  0  0  0  0  0  0  0  0  0  0  0
   35.9990   25.2150   37.7030 H   0  0  0  0  0  0  0  0  0  0  0  0
   36.8740   22.7080   38.4690 H   0  0  0  0  0  0  0  0  0  0  0  0
   37.9380   21.7180   40.5970 H   0  0  0  0  0  0  0  0  0  0  0  0
   38.1950   23.6470   42.3670 H   0  0  0  0  0  0  0  0  0  0  0  0
   39.6860   27.1090   41.7230 O   0  0  0  0  0  0  0  0  0  0  0  0
   38.7490   27.5040   42.4740 C   0  0  0  0  0  0  0  0  0  0  0  0
   37.5720   26.6190   42.5440 C   0  0  1  0  0  3  0  0  0  0  0  0
   36.4880   27.3530   43.2900 C   0  0  0  0  0  3  0  0  0  0  0  0
   35.9590   26.6730   43.9880 H   0  0  0  0  0  0  0  0  0  0  0  0
   37.2790   28.3400   44.1160 C   0  0  0  0  0  3  0  0  0  0  0  0
   36.6990   29.2830   44.3020 H   0  0  0  0  0  0  0  0  0  0  0  0
   38.4790   28.6310   43.3340 N   0  0  0  0  0  0  0  0  0  0  0  0
   39.1420   29.4320   43.2690 H   0  0  0  0  0  0  0  0  0  0  0  0
   35.5850   27.7720   38.1310 C   0  0  0  0  0  0  0  0  0  0  0  0
   34.6550   27.2700   37.7490 H   0  0  0  0  0  0  0  0  0  0  0  0
   36.2290   27.8780   37.2290 H   0  0  0  0  0  0  0  0  0  0  0  0
   35.1830   29.1260   38.6010 C   0  0  0  0  0  0  0  0  0  0  0  0
   34.2270   29.3840   38.0810 H   0  0  0  0  0  0  0  0  0  0  0  0
   34.9620   29.0800   39.6630 H   0  0  0  0  0  0  0  0  0  0  0  0
   37.6610   31.6960   38.6620 C   0  0  0  0  0  0  0  0  0  0  0  0
   37.7320   31.2470   37.3210 C   0  0  0  0  0  0  0  0  0  0  0  0
   36.8280   30.2490   37.1430 C   0  0  0  0  0  0  0  0  0  0  0  0
   36.2240   30.0880   38.3220 N   0  0  0  0  0  0  0  0  0  0  0  0
   36.7170   30.9480   39.2300 N   0  0  0  0  0  0  0  0  0  0  0  0
   38.3980   31.6270   36.5420 H   0  0  0  0  0  0  0  0  0  0  0  0
   36.5960   29.6650   36.2560 H   0  0  0  0  0  0  0  0  0  0  0  0
   38.6190   34.7830   40.3360 C   0  0  0  0  0  0  0  0  0  0  0  0
   40.0090   34.7840   40.2440 C   0  0  0  0  0  0  0  0  0  0  0  0
   40.6120   33.7060   39.5970 C   0  0  0  0  0  0  0  0  0  0  0  0
   39.8130   32.7320   39.1020 N   0  0  0  0  0  0  0  0  0  0  0  0
   38.4830   32.7510   39.2010 C   0  0  0  0  0  0  0  0  0  0  0  0
   37.8840   33.7890   39.8250 N   0  0  0  0  0  0  0  0  0  0  0  0
   38.1920   35.6370   40.8450 H   0  0  0  0  0  0  0  0  0  0  0  0
   40.6620   35.5570   40.6370 H   0  0  0  0  0  0  0  0  0  0  0  0
   41.6820   33.6300   39.4840 H   0  0  0  0  0  0  0  0  0  0  0  0
  1 10  1  0  0  0  0
  1  9  1  0  0  0  0
  2  1  2  0  0  0  0
  3  2  1  0  0  0  0
  3  4  2  0  0  0  0
  4  8  1  0  0  0  0
  5  4  1  0  0  0  0
  5  6  1  0  0  0  0
  6 13  1  0  0  0  0
  6  7  2  0  0  0  0
  7 14  1  0  0  0  0
  8  9  2  0  0  0  0
  8  7  1  0  0  0  0
 11  3  1  0  0  0  0
 12  5  1  0  0  0  0
 15 16  2  0  0  0  0
 16 17  1  0  0  0  0
 16 22  1  0  0  0  0
 17  9  1  6  0  0  0
 17 18  1  0  0  0  0
 18 19  1  0  0  0  0
 18 20  1  0  0  0  0
 20 21  1  0  0  0  0
 22 20  1  0  0  0  0
 23 22  1  0  0  0  0
 24 27  1  0  0  0  0
 24  2  1  0  0  0  0
 25 24  1  0  0  0  0
 26 24  1  0  0  0  0
 27 29  1  0  0  0  0
 28 27  1  0  0  0  0
 30 41  1  0  0  0  0
 30 34  2  0  0  0  0
 31 30  1  0  0  0  0
 32 31  2  0  0  0  0
 32 33  1  0  0  0  0
 33 27  1  0  0  0  0
 33 34  1  0  0  0  0
 35 31  1  0  0  0  0
 36 32  1  0  0  0  0
 37 43  1  0  0  0  0
 38 37  1  0  0  0  0
 38 44  1  0  0  0  0
 39 38  2  0  0  0  0
 40 41  2  0  0  0  0
 40 39  1  0  0  0  0
 41 42  1  0  0  0  0
 42 37  2  0  0  0  0
 45 39  1  0  0  0  0
M  END
>  <minimizedAffinity>
-6.69328403

$$$$

 OpenBabel03252506273D

 45 49  0  0  1  0  0  0  0  0999 V2000
   36.5950   27.1470   39.7840 C   0  0  0  0  0  0  0  0  0  0  0  0
   35.8870   28.3230   39.8430 C   0  0  0  0  0  0  0  0  0  0  0  0
   35.9480   29.0100   41.0480 C   0  0  0  0  0  0  0  0  0  0  0  0
   36.6710   28.5440   42.1250 C   0  0  0  0  0  0  0  0  0  0  0  0
   36.9050   28.9770   43.3770 N   0  0  0  0  0  0  0  0  0  0  0  0
   37.6940   28.1370   44.0450 C   0  0  0  0  0  0  0  0  0  0  0  0
   38.0260   27.0750   43.2300 C   0  0  0  0  0  0  0  0  0  0  0  0
   37.3760   27.3570   42.0430 C   0  0  0  0  0  0  0  0  0  0  0  0
   37.3240   26.6700   40.8590 C   0  0  0  0  0  0  0  0  0  0  0  0
   36.5220   26.6390   38.8210 H   0  0  0  0  0  0  0  0  0  0  0  0
   35.4460   29.9480   41.2460 H   0  0  0  0  0  0  0  0  0  0  0  0
   36.5240   29.8590   43.7900 H   0  0  0  0  0  0  0  0  0  0  0  0
   38.0510   28.2240   45.0690 H   0  0  0  0  0  0  0  0  0  0  0  0
   38.6460   26.2230   43.4660 H   0  0  0  0  0  0  0  0  0  0  0  0
   36.2970   24.2360   41.6350 O   0  0  0  0  0  0  0  0  0  0  0  0
   37.1040   24.2410   40.6620 C   0  0  0  0  0  0  0  0  0  0  0  0
   38.0300   25.3870   40.6070 C   0  0  1  0  0  3  0  0  0  0  0  0
   38.7420   25.3410   39.2810 C   0  0  0  0  0  3  0  0  0  0  0  0
   39.8160   25.5910   39.4010 H   0  0  0  0  0  0  0  0  0  0  0  0
   38.6450   23.8780   38.9160 C   0  0  0  0  0  3  0  0  0  0  0  0
   38.6140   23.7300   37.8040 H   0  0  0  0  0  0  0  0  0  0  0  0
   37.4030   23.4050   39.5250 N   0  0  0  0  0  0  0  0  0  0  0  0
   36.7280   22.6370   39.3230 H   0  0  0  0  0  0  0  0  0  0  0  0
   35.0750   28.9770   38.8360 C   0  0  0  0  0  0  0  0  0  0  0  0
   34.6710   29.9180   39.2990 H   0  0  0  0  0  0  0  0  0  0  0  0
   34.1680   28.3840   38.5850 H   0  0  0  0  0  0  0  0  0  0  0  0
   35.7570   29.3750   37.5730 C   0  0  0  0  0  0  0  0  0  0  0  0
   35.9390   28.4390   36.9890 H   0  0  0  0  0  0  0  0  0  0  0  0
   35.0790   29.9870   36.9850 H   0  0  0  0  0  0  0  0  0  0  0  0
   38.3130   31.6500   38.5920 C   0  0  0  0  0  0  0  0  0  0  0  0
   39.0640   30.6010   38.0070 C   0  0  0  0  0  0  0  0  0  0  0  0
   38.2110   29.6420   37.5650 C   0  0  0  0  0  0  0  0  0  0  0  0
   36.9850   30.0790   37.8610 N   0  0  0  0  0  0  0  0  0  0  0  0
   37.0410   31.2740   38.4730 N   0  0  0  0  0  0  0  0  0  0  0  0
   40.1520   30.5520   37.9180 H   0  0  0  0  0  0  0  0  0  0  0  0
   38.4150   28.6980   37.0670 H   0  0  0  0  0  0  0  0  0  0  0  0
   40.7800   34.1810   39.4610 C   0  0  0  0  0  0  0  0  0  0  0  0
   40.0600   35.0830   40.2410 C   0  0  0  0  0  0  0  0  0  0  0  0
   38.7120   34.8060   40.4640 C   0  0  0  0  0  0  0  0  0  0  0  0
   38.1910   33.6860   39.9110 N   0  0  0  0  0  0  0  0  0  0  0  0
   38.9000   32.8350   39.1660 C   0  0  0  0  0  0  0  0  0  0  0  0
   40.2070   33.0900   38.9420 N   0  0  0  0  0  0  0  0  0  0  0  0
   41.8230   34.4330   39.3120 H   0  0  0  0  0  0  0  0  0  0  0  0
   40.4640   35.9850   40.6900 H   0  0  0  0  0  0  0  0  0  0  0  0
   38.0830   35.4520   41.0560 H   0  0  0  0  0  0  0  0  0  0  0  0
  1  2  2  0  0  0  0
  1  9  1  0  0  0  0
  2  3  1  0  0  0  0
  3 11  1  0  0  0  0
  3  4  2  0  0  0  0
  4  5  1  0  0  0  0
  5 12  1  0  0  0  0
  5  6  1  0  0  0  0
  6 13  1  0  0  0  0
  7 14  1  0  0  0  0
  7  6  2  0  0  0  0
  8  4  1  0  0  0  0
  8  7  1  0  0  0  0
  9  8  2  0  0  0  0
 10  1  1  0  0  0  0
 16 15  2  0  0  0  0
 17 16  1  0  0  0  0
 17  9  1  6  0  0  0
 18 19  1  0  0  0  0
 18 17  1  0  0  0  0
 20 18  1  0  0  0  0
 20 22  1  0  0  0  0
 21 20  1  0  0  0  0
 22 16  1  0  0  0  0
 23 22  1  0  0  0  0
 24 25  1  0  0  0  0
 24  2  1  0  0  0  0
 26 24  1  0  0  0  0
 27 33  1  0  0  0  0
 27 24  1  0  0  0  0
 28 27  1  0  0  0  0
 29 27  1  0  0  0  0
 30 41  1  0  0  0  0
 31 30  1  0  0  0  0
 32 33  1  0  0  0  0
 32 31  2  0  0  0  0
 33 34  1  0  0  0  0
 34 30  2  0  0  0  0
 35 31  1  0  0  0  0
 36 32  1  0  0  0  0
 37 38  1  0  0  0  0
 38 39  2  0  0  0  0
 38 44  1  0  0  0  0
 39 45  1  0  0  0  0
 40 39  1  0  0  0  0
 41 40  2  0  0  0  0
 42 41  1  0  0  0  0
 42 37  2  0  0  0  0
 43 37  1  0  0  0  0
M  END
>  <minimizedAffinity>
-6.53020668

$$$$

 OpenBabel03252506273D

 45 49  0  0  1  0  0  0  0  0999 V2000
   38.5040   30.1250   40.6590 C   0  0  0  0  0  0  0  0  0  0  0  0
   39.7400   30.2670   41.2440 C   0  0  0  0  0  0  0  0  0  0  0  0
   40.2140   31.5670   41.3590 C   0  0  0  0  0  0  0  0  0  0  0  0
   39.4920   32.6550   40.9140 C   0  0  0  0  0  0  0  0  0  0  0  0
   39.6900   33.9860   40.8910 N   0  0  0  0  0  0  0  0  0  0  0  0
   38.6590   34.6220   40.3350 C   0  0  0  0  0  0  0  0  0  0  0  0
   37.7050   33.7020   39.9560 C   0  0  0  0  0  0  0  0  0  0  0  0
   38.2500   32.4880   40.3290 C   0  0  0  0  0  0  0  0  0  0  0  0
   37.7720   31.2110   40.2100 C   0  0  0  0  0  0  0  0  0  0  0  0
   38.1680   29.0900   40.5890 H   0  0  0  0  0  0  0  0  0  0  0  0
   41.1660   31.8380   41.7960 H   0  0  0  0  0  0  0  0  0  0  0  0
   40.5380   34.4750   41.2570 H   0  0  0  0  0  0  0  0  0  0  0  0
   38.5370   35.6920   40.1810 H   0  0  0  0  0  0  0  0  0  0  0  0
   36.7550   33.8880   39.4770 H   0  0  0  0  0  0  0  0  0  0  0  0
   37.4310   30.7920   37.5100 O   0  0  0  0  0  0  0  0  0  0  0  0
   36.6110   30.2320   38.2910 C   0  0  0  0  0  0  0  0  0  0  0  0
   36.4560   30.8650   39.6140 C   0  0  1  0  0  3  0  0  0  0  0  0
   35.6300   29.9430   40.4710 C   0  0  0  0  0  3  0  0  0  0  0  0
   34.8960   30.5160   41.0750 H   0  0  0  0  0  0  0  0  0  0  0  0
   34.8610   29.1490   39.4410 C   0  0  0  0  0  3  0  0  0  0  0  0
   34.6290   28.1140   39.8040 H   0  0  0  0  0  0  0  0  0  0  0  0
   35.7300   29.0900   38.2660 N   0  0  0  0  0  0  0  0  0  0  0  0
   35.8410   28.4360   37.4630 H   0  0  0  0  0  0  0  0  0  0  0  0
   40.6450   29.2650   41.7690 C   0  0  0  0  0  0  0  0  0  0  0  0
   41.5860   29.7990   42.0740 H   0  0  0  0  0  0  0  0  0  0  0  0
   40.9790   28.5520   40.9820 H   0  0  0  0  0  0  0  0  0  0  0  0
   40.1830   28.4920   42.9550 C   0  0  0  0  0  0  0  0  0  0  0  0
   41.0130   27.8000   43.2410 H   0  0  0  0  0  0  0  0  0  0  0  0
   40.0420   29.1750   43.7880 H   0  0  0  0  0  0  0  0  0  0  0  0
   37.5730   26.4870   41.5720 C   0  0  0  0  0  0  0  0  0  0  0  0
   36.9680   26.9910   42.7490 C   0  0  0  0  0  0  0  0  0  0  0  0
   37.8580   27.7870   43.3950 C   0  0  0  0  0  0  0  0  0  0  0  0
   38.9650   27.7780   42.6500 N   0  0  0  0  0  0  0  0  0  0  0  0
   38.8000   27.0040   41.5630 N   0  0  0  0  0  0  0  0  0  0  0  0
   35.9540   26.7840   43.0990 H   0  0  0  0  0  0  0  0  0  0  0  0
   37.7560   28.3430   44.3230 H   0  0  0  0  0  0  0  0  0  0  0  0
   35.9630   25.2840   38.5370 C   0  0  0  0  0  0  0  0  0  0  0  0
   35.6500   23.9600   38.8390 C   0  0  0  0  0  0  0  0  0  0  0  0
   36.0000   23.4880   40.1030 C   0  0  0  0  0  0  0  0  0  0  0  0
   36.6190   24.3410   40.9520 N   0  0  0  0  0  0  0  0  0  0  0  0
   36.9110   25.6050   40.6420 C   0  0  0  0  0  0  0  0  0  0  0  0
   36.5770   26.0770   39.4220 N   0  0  0  0  0  0  0  0  0  0  0  0
   35.6730   25.6100   37.5470 H   0  0  0  0  0  0  0  0  0  0  0  0
   35.1530   23.2660   38.1670 H   0  0  0  0  0  0  0  0  0  0  0  0
   35.7930   22.4770   40.4150 H   0  0  0  0  0  0  0  0  0  0  0  0
  1  2  1  0  0  0  0
  2  3  2  0  0  0  0
  2 24  1  0  0  0  0
  3 11  1  0  0  0  0
  4  3  1  0  0  0  0
  5  4  1  0  0  0  0
  5 12  1  0  0  0  0
  6  5  1  0  0  0  0
  7  8  1  0  0  0  0
  7  6  2  0  0  0  0
  8  4  2  0  0  0  0
  9  8  1  0  0  0  0
  9  1  2  0  0  0  0
 10  1  1  0  0  0  0
 13  6  1  0  0  0  0
 14  7  1  0  0  0  0
 15 16  2  0  0  0  0
 16 17  1  0  0  0  0
 17  9  1  1  0  0  0
 17 18  1  0  0  0  0
 18 19  1  0  0  0  0
 20 21  1  0  0  0  0
 20 18  1  0  0  0  0
 22 16  1  0  0  0  0
 22 20  1  0  0  0  0
 23 22  1  0  0  0  0
 24 25  1  0  0  0  0
 24 27  1  0  0  0  0
 26 24  1  0  0  0  0
 27 28  1  0  0  0  0
 27 29  1  0  0  0  0
 30 31  1  0  0  0  0
 31 35  1  0  0  0  0
 31 32  2  0  0  0  0
 32 36  1  0  0  0  0
 33 27  1  0  0  0  0
 33 32  1  0  0  0  0
 34 30  2  0  0  0  0
 34 33  1  0  0  0  0
 37 38  2  0  0  0  0
 37 42  1  0  0  0  0
 38 39  1  0  0  0  0
 39 45  1  0  0  0  0
 39 40  2  0  0  0  0
 41 40  1  0  0  0  0
 41 30  1  0  0  0  0
 42 41  2  0  0  0  0
 43 37  1  0  0  0  0
 44 38  1  0  0  0  0
M  END
>  <minimizedAffinity>
-6.25185061

$$$$

 OpenBabel03252506273D

 45 49  0  0  1  0  0  0  0  0999 V2000
   36.6510   28.8920   39.3260 C   0  0  0  0  0  0  0  0  0  0  0  0
   36.4900   29.0070   40.6860 C   0  0  0  0  0  0  0  0  0  0  0  0
   36.6150   30.2880   41.2080 C   0  0  0  0  0  0  0  0  0  0  0  0
   36.8850   31.3820   40.4140 C   0  0  0  0  0  0  0  0  0  0  0  0
   37.0580   32.6990   40.6310 N   0  0  0  0  0  0  0  0  0  0  0  0
   37.3080   33.3520   39.4970 C   0  0  0  0  0  0  0  0  0  0  0  0
   37.3100   32.4580   38.4460 C   0  0  0  0  0  0  0  0  0  0  0  0
   37.0440   31.2420   39.0470 C   0  0  0  0  0  0  0  0  0  0  0  0
   36.9230   29.9840   38.5210 C   0  0  0  0  0  0  0  0  0  0  0  0
   36.5450   27.8710   38.9570 H   0  0  0  0  0  0  0  0  0  0  0  0
   36.5140   30.5370   42.2560 H   0  0  0  0  0  0  0  0  0  0  0  0
   37.0060   33.1670   41.5640 H   0  0  0  0  0  0  0  0  0  0  0  0
   37.4880   34.4160   39.3620 H   0  0  0  0  0  0  0  0  0  0  0  0
   37.4830   32.6620   37.4000 H   0  0  0  0  0  0  0  0  0  0  0  0
   39.3280   29.2920   37.3710 O   0  0  0  0  0  0  0  0  0  0  0  0
   38.2750   28.8820   36.8040 C   0  0  0  0  0  0  0  0  0  0  0  0
   37.0570   29.6680   37.0760 C   0  0  1  0  0  3  0  0  0  0  0  0
   35.8850   28.9090   36.5130 C   0  0  0  0  0  3  0  0  0  0  0  0
   35.1710   29.5970   36.0140 H   0  0  0  0  0  0  0  0  0  0  0  0
   36.5340   28.0620   35.4440 C   0  0  0  0  0  3  0  0  0  0  0  0
   35.9890   27.0930   35.2960 H   0  0  0  0  0  0  0  0  0  0  0  0
   37.8940   27.8100   35.9170 N   0  0  0  0  0  0  0  0  0  0  0  0
   38.6040   27.0640   35.7590 H   0  0  0  0  0  0  0  0  0  0  0  0
   36.2050   27.9930   41.6830 C   0  0  0  0  0  0  0  0  0  0  0  0
   36.4890   27.0030   41.2340 H   0  0  0  0  0  0  0  0  0  0  0  0
   35.1130   27.9010   41.8800 H   0  0  0  0  0  0  0  0  0  0  0  0
   36.9240   28.1030   42.9820 C   0  0  0  0  0  0  0  0  0  0  0  0
   37.1710   29.1830   43.1300 H   0  0  0  0  0  0  0  0  0  0  0  0
   36.2480   27.8210   43.7830 H   0  0  0  0  0  0  0  0  0  0  0  0
   40.1960   26.6970   43.2440 C   0  0  0  0  0  0  0  0  0  0  0  0
   39.4430   25.6070   42.7430 C   0  0  0  0  0  0  0  0  0  0  0  0
   38.1520   25.9980   42.5890 C   0  0  0  0  0  0  0  0  0  0  0  0
   38.1070   27.2740   42.9760 N   0  0  0  0  0  0  0  0  0  0  0  0
   39.3220   27.6950   43.3670 N   0  0  0  0  0  0  0  0  0  0  0  0
   39.8200   24.6080   42.5140 H   0  0  0  0  0  0  0  0  0  0  0  0
   37.2900   25.4410   42.2320 H   0  0  0  0  0  0  0  0  0  0  0  0
   43.6140   25.4560   43.3950 C   0  0  0  0  0  0  0  0  0  0  0  0
   44.3020   26.4780   44.0440 C   0  0  0  0  0  0  0  0  0  0  0  0
   43.5720   27.6010   44.4300 C   0  0  0  0  0  0  0  0  0  0  0  0
   42.2480   27.6280   44.1500 N   0  0  0  0  0  0  0  0  0  0  0  0
   41.6080   26.6370   43.5270 C   0  0  0  0  0  0  0  0  0  0  0  0
   42.3020   25.5420   43.1470 N   0  0  0  0  0  0  0  0  0  0  0  0
   44.2170   24.6020   43.1130 H   0  0  0  0  0  0  0  0  0  0  0  0
   45.3630   26.4700   44.2740 H   0  0  0  0  0  0  0  0  0  0  0  0
   44.0290   28.4370   44.9370 H   0  0  0  0  0  0  0  0  0  0  0  0
  1  2  1  0  0  0  0
  2  3  2  0  0  0  0
  2 24  1  0  0  0  0
  3 11  1  0  0  0  0
  4  5  1  0  0  0  0
  4  3  1  0  0  0  0
  5 12  1  0  0  0  0
  6  5  1  0  0  0  0
  7  8  1  0  0  0  0
  7  6  2  0  0  0  0
  8  4  2  0  0  0  0
  9  8  1  0  0  0  0
  9  1  2  0  0  0  0
 10  1  1  0  0  0  0
 13  6  1  0  0  0  0
 14  7  1  0  0  0  0
 16 17  1  0  0  0  0
 16 15  2  0  0  0  0
 17  9  1  1  0  0  0
 18 17  1  0  0  0  0
 19 18  1  0  0  0  0
 20 22  1  0  0  0  0
 20 18  1  0  0  0  0
 21 20  1  0  0  0  0
 22 16  1  0  0  0  0
 23 22  1  0  0  0  0
 24 26  1  0  0  0  0
 24 27  1  0  0  0  0
 25 24  1  0  0  0  0
 27 28  1  0  0  0  0
 27 29  1  0  0  0  0
 30 34  2  0  0  0  0
 30 41  1  0  0  0  0
 31 30  1  0  0  0  0
 32 31  2  0  0  0  0
 32 33  1  0  0  0  0
 33 27  1  0  0  0  0
 33 34  1  0  0  0  0
 35 31  1  0  0  0  0
 36 32  1  0  0  0  0
 37 38  1  0  0  0  0
 38 44  1  0  0  0  0
 38 39  2  0  0  0  0
 39 45  1  0  0  0  0
 40 39  1  0  0  0  0
 41 40  2  0  0  0  0
 42 37  2  0  0  0  0
 42 41  1  0  0  0  0
 43 37  1  0  0  0  0
M  END
>  <minimizedAffinity>
-6.18493605

$$$$

 OpenBabel03252506273D

 45 49  0  0  1  0  0  0  0  0999 V2000
   36.6220   26.9730   40.2960 C   0  0  0  0  0  0  0  0  0  0  0  0
   36.2460   28.1150   40.9600 C   0  0  0  0  0  0  0  0  0  0  0  0
   36.9350   28.3920   42.1340 C   0  0  0  0  0  0  0  0  0  0  0  0
   37.9360   27.5730   42.6090 C   0  0  0  0  0  0  0  0  0  0  0  0
   38.7490   27.5830   43.6810 N   0  0  0  0  0  0  0  0  0  0  0  0
   39.5660   26.5310   43.6840 C   0  0  0  0  0  0  0  0  0  0  0  0
   39.3160   25.7540   42.5730 C   0  0  0  0  0  0  0  0  0  0  0  0
   38.2980   26.4270   41.9240 C   0  0  0  0  0  0  0  0  0  0  0  0
   37.6250   26.1440   40.7650 C   0  0  0  0  0  0  0  0  0  0  0  0
   36.0570   26.7920   39.3790 H   0  0  0  0  0  0  0  0  0  0  0  0
   36.7530   29.2530   42.7640 H   0  0  0  0  0  0  0  0  0  0  0  0
   38.7540   28.3170   44.4260 H   0  0  0  0  0  0  0  0  0  0  0  0
   40.3270   26.2760   44.4180 H   0  0  0  0  0  0  0  0  0  0  0  0
   39.8000   24.8340   42.2810 H   0  0  0  0  0  0  0  0  0  0  0  0
   36.2760   23.7610   41.0560 O   0  0  0  0  0  0  0  0  0  0  0  0
   36.7690   24.0130   39.9200 C   0  0  0  0  0  0  0  0  0  0  0  0
   37.8990   24.9600   39.9100 C   0  0  1  0  0  3  0  0  0  0  0  0
   38.1960   25.3070   38.4750 C   0  0  0  0  0  3  0  0  0  0  0  0
   39.2900   25.3450   38.2960 H   0  0  0  0  0  0  0  0  0  0  0  0
   37.6480   24.1100   37.7350 C   0  0  0  0  0  3  0  0  0  0  0  0
   37.2840   24.3880   36.7110 H   0  0  0  0  0  0  0  0  0  0  0  0
   36.5370   23.6220   38.5500 N   0  0  0  0  0  0  0  0  0  0  0  0
   35.6650   23.0830   38.3630 H   0  0  0  0  0  0  0  0  0  0  0  0
   35.2310   29.0970   40.6310 C   0  0  0  0  0  0  0  0  0  0  0  0
   35.4670   30.0240   41.2190 H   0  0  0  0  0  0  0  0  0  0  0  0
   34.2240   28.7910   40.9940 H   0  0  0  0  0  0  0  0  0  0  0  0
   35.1260   29.5060   39.2030 C   0  0  0  0  0  0  0  0  0  0  0  0
   35.0740   28.5690   38.5960 H   0  0  0  0  0  0  0  0  0  0  0  0
   34.1860   30.0290   39.0550 H   0  0  0  0  0  0  0  0  0  0  0  0
   37.7740   31.8880   38.9650 C   0  0  0  0  0  0  0  0  0  0  0  0
   37.9070   31.1730   37.7500 C   0  0  0  0  0  0  0  0  0  0  0  0
   36.9490   30.2130   37.6960 C   0  0  0  0  0  0  0  0  0  0  0  0
   36.2510   30.3300   38.8280 N   0  0  0  0  0  0  0  0  0  0  0  0
   36.7400   31.3260   39.5870 N   0  0  0  0  0  0  0  0  0  0  0  0
   38.6530   31.3490   36.9710 H   0  0  0  0  0  0  0  0  0  0  0  0
   36.7380   29.4760   36.9260 H   0  0  0  0  0  0  0  0  0  0  0  0
   38.8450   35.0980   40.3070 C   0  0  0  0  0  0  0  0  0  0  0  0
   40.2230   35.0890   40.1080 C   0  0  0  0  0  0  0  0  0  0  0  0
   40.7790   33.9620   39.5040 C   0  0  0  0  0  0  0  0  0  0  0  0
   39.9490   32.9530   39.1520 N   0  0  0  0  0  0  0  0  0  0  0  0
   38.6300   32.9820   39.3520 C   0  0  0  0  0  0  0  0  0  0  0  0
   38.0770   34.0670   39.9360 N   0  0  0  0  0  0  0  0  0  0  0  0
   38.4540   35.9910   40.7780 H   0  0  0  0  0  0  0  0  0  0  0  0
   40.9010   35.8910   40.3860 H   0  0  0  0  0  0  0  0  0  0  0  0
   41.8380   33.8760   39.3150 H   0  0  0  0  0  0  0  0  0  0  0  0
  1  9  2  0  0  0  0
  1  2  1  0  0  0  0
  2  3  2  0  0  0  0
  3  4  1  0  0  0  0
  3 11  1  0  0  0  0
  4  5  1  0  0  0  0
  5  6  1  0  0  0  0
  5 12  1  0  0  0  0
  6 13  1  0  0  0  0
  7  6  2  0  0  0  0
  8  7  1  0  0  0  0
  8  4  2  0  0  0  0
  9  8  1  0  0  0  0
 10  1  1  0  0  0  0
 14  7  1  0  0  0  0
 16 15  2  0  0  0  0
 17 16  1  0  0  0  0
 17  9  1  1  0  0  0
 18 17  1  0  0  0  0
 19 18  1  0  0  0  0
 20 18  1  0  0  0  0
 20 22  1  0  0  0  0
 21 20  1  0  0  0  0
 22 16  1  0  0  0  0
 23 22  1  0  0  0  0
 24  2  1  0  0  0  0
 24 26  1  0  0  0  0
 24 25  1  0  0  0  0
 27 24  1  0  0  0  0
 28 27  1  0  0  0  0
 29 27  1  0  0  0  0
 30 41  1  0  0  0  0
 30 34  2  0  0  0  0
 31 30  1  0  0  0  0
 32 31  2  0  0  0  0
 32 33  1  0  0  0  0
 33 27  1  0  0  0  0
 33 34  1  0  0  0  0
 35 31  1  0  0  0  0
 36 32  1  0  0  0  0
 37 43  1  0  0  0  0
 38 37  1  0  0  0  0
 38 44  1  0  0  0  0
 39 38  2  0  0  0  0
 40 41  2  0  0  0  0
 40 39  1  0  0  0  0
 41 42  1  0  0  0  0
 42 37  2  0  0  0  0
 45 39  1  0  0  0  0
M  END
>  <minimizedAffinity>
-6.16833448

$$$$

 OpenBabel03252506273D

 45 49  0  0  1  0  0  0  0  0999 V2000
   36.5340   28.9070   39.4110 C   0  0  0  0  0  0  0  0  0  0  0  0
   36.3840   29.0700   40.7670 C   0  0  0  0  0  0  0  0  0  0  0  0
   36.5500   30.3620   41.2480 C   0  0  0  0  0  0  0  0  0  0  0  0
   36.8490   31.4220   40.4180 C   0  0  0  0  0  0  0  0  0  0  0  0
   37.0620   32.7390   40.5920 N   0  0  0  0  0  0  0  0  0  0  0  0
   37.3250   33.3480   39.4370 C   0  0  0  0  0  0  0  0  0  0  0  0
   37.2940   32.4230   38.4150 C   0  0  0  0  0  0  0  0  0  0  0  0
   36.9950   31.2350   39.0560 C   0  0  0  0  0  0  0  0  0  0  0  0
   36.8330   29.9650   38.5700 C   0  0  0  0  0  0  0  0  0  0  0  0
   36.3950   27.8780   39.0740 H   0  0  0  0  0  0  0  0  0  0  0  0
   36.4630   30.6460   42.2880 H   0  0  0  0  0  0  0  0  0  0  0  0
   37.0300   33.2380   41.5110 H   0  0  0  0  0  0  0  0  0  0  0  0
   37.5360   34.4010   39.2680 H   0  0  0  0  0  0  0  0  0  0  0  0
   37.4660   32.5880   37.3620 H   0  0  0  0  0  0  0  0  0  0  0  0
   39.2390   29.3260   37.3920 O   0  0  0  0  0  0  0  0  0  0  0  0
   38.1920   28.8530   36.8650 C   0  0  0  0  0  0  0  0  0  0  0  0
   36.9490   29.6000   37.1350 C   0  0  1  0  0  3  0  0  0  0  0  0
   35.7970   28.7730   36.6270 C   0  0  0  0  0  3  0  0  0  0  0  0
   35.0450   29.4120   36.1200 H   0  0  0  0  0  0  0  0  0  0  0  0
   36.4570   27.9130   35.5760 C   0  0  0  0  0  3  0  0  0  0  0  0
   35.9500   26.9170   35.4760 H   0  0  0  0  0  0  0  0  0  0  0  0
   37.8360   27.7340   36.0270 N   0  0  0  0  0  0  0  0  0  0  0  0
   38.5730   27.0120   35.8810 H   0  0  0  0  0  0  0  0  0  0  0  0
   36.0740   28.0970   41.7960 C   0  0  0  0  0  0  0  0  0  0  0  0
   35.8690   27.1220   41.2760 H   0  0  0  0  0  0  0  0  0  0  0  0
   35.1200   28.3340   42.3180 H   0  0  0  0  0  0  0  0  0  0  0  0
   37.1290   27.8320   42.8130 C   0  0  0  0  0  0  0  0  0  0  0  0
   37.7510   28.7580   42.8910 H   0  0  0  0  0  0  0  0  0  0  0  0
   36.6570   27.6870   43.7810 H   0  0  0  0  0  0  0  0  0  0  0  0
   38.5060   24.8750   41.3620 C   0  0  0  0  0  0  0  0  0  0  0  0
   39.4730   25.2030   42.3430 C   0  0  0  0  0  0  0  0  0  0  0  0
   39.0790   26.3290   42.9900 C   0  0  0  0  0  0  0  0  0  0  0  0
   37.9180   26.6820   42.4360 N   0  0  0  0  0  0  0  0  0  0  0  0
   37.5730   25.8190   41.4650 N   0  0  0  0  0  0  0  0  0  0  0  0
   40.3930   24.6530   42.5580 H   0  0  0  0  0  0  0  0  0  0  0  0
   39.5590   26.8770   43.7970 H   0  0  0  0  0  0  0  0  0  0  0  0
   37.8750   21.5930   39.9190 C   0  0  0  0  0  0  0  0  0  0  0  0
   38.7560   21.5370   38.8420 C   0  0  0  0  0  0  0  0  0  0  0  0
   39.5720   22.6460   38.6200 C   0  0  0  0  0  0  0  0  0  0  0  0
   39.4560   23.7000   39.4600 N   0  0  0  0  0  0  0  0  0  0  0  0
   38.6040   23.7330   40.4860 C   0  0  0  0  0  0  0  0  0  0  0  0
   37.8070   22.6670   40.7140 N   0  0  0  0  0  0  0  0  0  0  0  0
   37.2600   20.7130   40.0560 H   0  0  0  0  0  0  0  0  0  0  0  0
   38.8600   20.6980   38.1600 H   0  0  0  0  0  0  0  0  0  0  0  0
   40.2820   22.6830   37.8090 H   0  0  0  0  0  0  0  0  0  0  0  0
  1  2  1  0  0  0  0
  2  3  2  0  0  0  0
  2 24  1  0  0  0  0
  3 11  1  0  0  0  0
  4  5  1  0  0  0  0
  4  3  1  0  0  0  0
  5 12  1  0  0  0  0
  6  5  1  0  0  0  0
  7  8  1  0  0  0  0
  7  6  2  0  0  0  0
  8  4  2  0  0  0  0
  9  8  1  0  0  0  0
  9  1  2  0  0  0  0
 10  1  1  0  0  0  0
 13  6  1  0  0  0  0
 14  7  1  0  0  0  0
 16 17  1  0  0  0  0
 16 15  2  0  0  0  0
 17  9  1  1  0  0  0
 18 17  1  0  0  0  0
 19 18  1  0  0  0  0
 20 22  1  0  0  0  0
 20 18  1  0  0  0  0
 21 20  1  0  0  0  0
 22 16  1  0  0  0  0
 23 22  1  0  0  0  0
 24 26  1  0  0  0  0
 24 27  1  0  0  0  0
 25 24  1  0  0  0  0
 27 28  1  0  0  0  0
 27 29  1  0  0  0  0
 30 34  2  0  0  0  0
 30 31  1  0  0  0  0
 31 35  1  0  0  0  0
 31 32  2  0  0  0  0
 32 36  1  0  0  0  0
 33 27  1  0  0  0  0
 33 32  1  0  0  0  0
 34 33  1  0  0  0  0
 37 43  1  0  0  0  0
 37 42  1  0  0  0  0
 38 37  2  0  0  0  0
 39 38  1  0  0  0  0
 39 40  2  0  0  0  0
 40 41  1  0  0  0  0
 41 42  2  0  0  0  0
 41 30  1  0  0  0  0
 44 38  1  0  0  0  0
 45 39  1  0  0  0  0
M  END
>  <minimizedAffinity>
-6.15374756

$$$$

 OpenBabel03252506273D

 45 49  0  0  1  0  0  0  0  0999 V2000
   36.9230   27.4020   41.1500 C   0  0  0  0  0  0  0  0  0  0  0  0
   37.1790   28.4530   41.9980 C   0  0  0  0  0  0  0  0  0  0  0  0
   38.1220   28.2200   42.9900 C   0  0  0  0  0  0  0  0  0  0  0  0
   38.7670   27.0090   43.1220 C   0  0  0  0  0  0  0  0  0  0  0  0
   39.6930   26.5070   43.9580 N   0  0  0  0  0  0  0  0  0  0  0  0
   39.9910   25.2440   43.6570 C   0  0  0  0  0  0  0  0  0  0  0  0
   39.2440   24.8460   42.5680 C   0  0  0  0  0  0  0  0  0  0  0  0
   38.4930   25.9640   42.2570 C   0  0  0  0  0  0  0  0  0  0  0  0
   37.5650   26.1820   41.2750 C   0  0  0  0  0  0  0  0  0  0  0  0
   36.1770   27.6260   40.3860 H   0  0  0  0  0  0  0  0  0  0  0  0
   38.4290   28.9490   43.7290 H   0  0  0  0  0  0  0  0  0  0  0  0
   40.1350   27.0280   44.7500 H   0  0  0  0  0  0  0  0  0  0  0  0
   40.7000   24.5860   44.1530 H   0  0  0  0  0  0  0  0  0  0  0  0
   39.2450   23.8850   42.0760 H   0  0  0  0  0  0  0  0  0  0  0  0
   38.9980   25.7470   38.9640 O   0  0  0  0  0  0  0  0  0  0  0  0
   38.3000   24.7890   39.4020 C   0  0  0  0  0  0  0  0  0  0  0  0
   37.1660   25.1680   40.2650 C   0  0  1  0  0  3  0  0  0  0  0  0
   36.6030   23.9070   40.8660 C   0  0  0  0  0  3  0  0  0  0  0  0
   35.4940   23.9340   40.8730 H   0  0  0  0  0  0  0  0  0  0  0  0
   37.0330   22.8570   39.8690 C   0  0  0  0  0  3  0  0  0  0  0  0
   37.1970   21.8620   40.3600 H   0  0  0  0  0  0  0  0  0  0  0  0
   38.2850   23.3500   39.2980 N   0  0  0  0  0  0  0  0  0  0  0  0
   39.1200   22.9090   38.8570 H   0  0  0  0  0  0  0  0  0  0  0  0
   36.6160   29.7890   42.0260 C   0  0  0  0  0  0  0  0  0  0  0  0
   37.3850   30.4600   42.4960 H   0  0  0  0  0  0  0  0  0  0  0  0
   35.7410   29.8560   42.7110 H   0  0  0  0  0  0  0  0  0  0  0  0
   36.2530   30.3960   40.7160 C   0  0  0  0  0  0  0  0  0  0  0  0
   36.2140   29.5660   39.9690 H   0  0  0  0  0  0  0  0  0  0  0  0
   35.2500   30.8060   40.7840 H   0  0  0  0  0  0  0  0  0  0  0  0
   39.0370   32.6090   40.3950 C   0  0  0  0  0  0  0  0  0  0  0  0
   38.1880   33.0450   39.3490 C   0  0  0  0  0  0  0  0  0  0  0  0
   37.0650   32.2820   39.3460 C   0  0  0  0  0  0  0  0  0  0  0  0
   37.2120   31.4110   40.3470 N   0  0  0  0  0  0  0  0  0  0  0  0
   38.3850   31.6020   40.9740 N   0  0  0  0  0  0  0  0  0  0  0  0
   38.3860   33.8600   38.6480 H   0  0  0  0  0  0  0  0  0  0  0  0
   36.1950   32.3190   38.6960 H   0  0  0  0  0  0  0  0  0  0  0  0
   41.6700   35.0980   40.7370 C   0  0  0  0  0  0  0  0  0  0  0  0
   42.7450   34.3670   41.2360 C   0  0  0  0  0  0  0  0  0  0  0  0
   42.5510   33.0030   41.4520 C   0  0  0  0  0  0  0  0  0  0  0  0
   41.3360   32.4800   41.1660 N   0  0  0  0  0  0  0  0  0  0  0  0
   40.3190   33.1990   40.6890 C   0  0  0  0  0  0  0  0  0  0  0  0
   40.4920   34.5210   40.4730 N   0  0  0  0  0  0  0  0  0  0  0  0
   41.8630   36.1520   40.5820 H   0  0  0  0  0  0  0  0  0  0  0  0
   43.7250   34.7740   41.4700 H   0  0  0  0  0  0  0  0  0  0  0  0
   43.3320   32.3660   41.8370 H   0  0  0  0  0  0  0  0  0  0  0  0
  1  9  2  0  0  0  0
  1  2  1  0  0  0  0
  2 24  1  0  0  0  0
  2  3  2  0  0  0  0
  3  4  1  0  0  0  0
  3 11  1  0  0  0  0
  4  5  1  0  0  0  0
  5 12  1  0  0  0  0
  6  5  1  0  0  0  0
  6 13  1  0  0  0  0
  7  6  2  0  0  0  0
  8  7  1  0  0  0  0
  8  4  2  0  0  0  0
  9  8  1  0  0  0  0
 10  1  1  0  0  0  0
 14  7  1  0  0  0  0
 15 16  2  0  0  0  0
 16 17  1  0  0  0  0
 17 18  1  0  0  0  0
 17  9  1  1  0  0  0
 18 19  1  0  0  0  0
 20 21  1  0  0  0  0
 20 18  1  0  0  0  0
 22 16  1  0  0  0  0
 22 20  1  0  0  0  0
 23 22  1  0  0  0  0
 24 25  1  0  0  0  0
 24 26  1  0  0  0  0
 27 29  1  0  0  0  0
 27 24  1  0  0  0  0
 28 27  1  0  0  0  0
 30 41  1  0  0  0  0
 30 34  2  0  0  0  0
 31 30  1  0  0  0  0
 32 31  2  0  0  0  0
 32 33  1  0  0  0  0
 33 27  1  0  0  0  0
 33 34  1  0  0  0  0
 35 31  1  0  0  0  0
 36 32  1  0  0  0  0
 37 38  1  0  0  0  0
 38 39  2  0  0  0  0
 38 44  1  0  0  0  0
 39 45  1  0  0  0  0
 40 39  1  0  0  0  0
 41 40  2  0  0  0  0
 42 41  1  0  0  0  0
 42 37  2  0  0  0  0
 43 37  1  0  0  0  0
M  END
>  <minimizedAffinity>
-6.14317274

$$$$

 OpenBabel03252506273D

 45 49  0  0  1  0  0  0  0  0999 V2000
   36.8460   30.9440   38.4020 C   0  0  0  0  0  0  0  0  0  0  0  0
   37.0610   31.9060   39.3600 C   0  0  0  0  0  0  0  0  0  0  0  0
   37.0120   31.4730   40.6790 C   0  0  0  0  0  0  0  0  0  0  0  0
   36.7620   30.1590   41.0130 C   0  0  0  0  0  0  0  0  0  0  0  0
   36.6550   29.4710   42.1650 N   0  0  0  0  0  0  0  0  0  0  0  0
   36.3940   28.1840   41.9420 C   0  0  0  0  0  0  0  0  0  0  0  0
   36.3150   27.9620   40.5830 C   0  0  0  0  0  0  0  0  0  0  0  0
   36.5490   29.2080   40.0320 C   0  0  0  0  0  0  0  0  0  0  0  0
   36.5950   29.6230   38.7280 C   0  0  0  0  0  0  0  0  0  0  0  0
   36.8940   31.3240   37.3810 H   0  0  0  0  0  0  0  0  0  0  0  0
   37.1600   32.1110   41.5410 H   0  0  0  0  0  0  0  0  0  0  0  0
   36.7610   29.8790   43.1210 H   0  0  0  0  0  0  0  0  0  0  0  0
   36.2570   27.3920   42.6740 H   0  0  0  0  0  0  0  0  0  0  0  0
   36.1150   27.0330   40.0710 H   0  0  0  0  0  0  0  0  0  0  0  0
   34.1070   29.0860   37.6770 O   0  0  0  0  0  0  0  0  0  0  0  0
   35.0990   28.9730   36.9030 C   0  0  0  0  0  0  0  0  0  0  0  0
   36.3960   28.7260   37.5600 C   0  0  1  0  0  3  0  0  0  0  0  0
   37.4730   28.8490   36.5150 C   0  0  0  0  0  3  0  0  0  0  0  0
   38.2400   28.0580   36.6420 H   0  0  0  0  0  0  0  0  0  0  0  0
   36.7170   28.5580   35.2400 C   0  0  0  0  0  3  0  0  0  0  0  0
   37.1580   29.1020   34.3630 H   0  0  0  0  0  0  0  0  0  0  0  0
   35.3500   29.0160   35.4820 N   0  0  0  0  0  0  0  0  0  0  0  0
   34.5650   29.3470   34.8830 H   0  0  0  0  0  0  0  0  0  0  0  0
   37.3360   33.3220   39.2180 C   0  0  0  0  0  0  0  0  0  0  0  0
   36.3450   33.8510   39.2230 H   0  0  0  0  0  0  0  0  0  0  0  0
   37.7690   33.5620   38.2210 H   0  0  0  0  0  0  0  0  0  0  0  0
   38.1710   33.9570   40.2740 C   0  0  0  0  0  0  0  0  0  0  0  0
   37.7600   34.9830   40.4450 H   0  0  0  0  0  0  0  0  0  0  0  0
   38.0430   33.4080   41.2020 H   0  0  0  0  0  0  0  0  0  0  0  0
   41.4980   33.2750   39.1740 C   0  0  0  0  0  0  0  0  0  0  0  0
   41.5400   34.6730   39.3980 C   0  0  0  0  0  0  0  0  0  0  0  0
   40.3200   35.0860   39.8290 C   0  0  0  0  0  0  0  0  0  0  0  0
   39.5570   33.9920   39.8700 N   0  0  0  0  0  0  0  0  0  0  0  0
   40.2540   32.9110   39.4800 N   0  0  0  0  0  0  0  0  0  0  0  0
   42.4020   35.3290   39.2530 H   0  0  0  0  0  0  0  0  0  0  0  0
   39.9730   36.0790   40.1000 H   0  0  0  0  0  0  0  0  0  0  0  0
   44.2570   30.9010   39.1610 C   0  0  0  0  0  0  0  0  0  0  0  0
   44.7690   31.0050   37.8700 C   0  0  0  0  0  0  0  0  0  0  0  0
   44.1500   31.9050   37.0030 C   0  0  0  0  0  0  0  0  0  0  0  0
   43.0970   32.6160   37.4680 N   0  0  0  0  0  0  0  0  0  0  0  0
   42.6230   32.5010   38.7100 C   0  0  0  0  0  0  0  0  0  0  0  0
   43.2120   31.6340   39.5610 N   0  0  0  0  0  0  0  0  0  0  0  0
   44.7660   30.1930   39.8020 H   0  0  0  0  0  0  0  0  0  0  0  0
   45.6120   30.4400   37.4830 H   0  0  0  0  0  0  0  0  0  0  0  0
   44.4840   32.0450   35.9870 H   0  0  0  0  0  0  0  0  0  0  0  0
  1  9  2  0  0  0  0
  1  2  1  0  0  0  0
  2  3  2  0  0  0  0
  3  4  1  0  0  0  0
  3 11  1  0  0  0  0
  4  5  1  0  0  0  0
  5 12  1  0  0  0  0
  6  5  1  0  0  0  0
  6 13  1  0  0  0  0
  7  6  2  0  0  0  0
  8  7  1  0  0  0  0
  8  4  2  0  0  0  0
  9  8  1  0  0  0  0
 10  1  1  0  0  0  0
 14  7  1  0  0  0  0
 16 17  1  0  0  0  0
 16 15  2  0  0  0  0
 17  9  1  1  0  0  0
 18 19  1  0  0  0  0
 18 17  1  0  0  0  0
 20 22  1  0  0  0  0
 20 18  1  0  0  0  0
 21 20  1  0  0  0  0
 22 16  1  0  0  0  0
 23 22  1  0  0  0  0
 24 25  1  0  0  0  0
 24  2  1  0  0  0  0
 24 27  1  0  0  0  0
 26 24  1  0  0  0  0
 27 28  1  0  0  0  0
 27 29  1  0  0  0  0
 30 31  1  0  0  0  0
 30 34  2  0  0  0  0
 31 32  2  0  0  0  0
 32 33  1  0  0  0  0
 32 36  1  0  0  0  0
 33 27  1  0  0  0  0
 34 33  1  0  0  0  0
 35 31  1  0  0  0  0
 37 42  1  0  0  0  0
 37 43  1  0  0  0  0
 38 37  2  0  0  0  0
 39 40  2  0  0  0  0
 39 38  1  0  0  0  0
 40 41  1  0  0  0  0
 41 30  1  0  0  0  0
 41 42  2  0  0  0  0
 44 38  1  0  0  0  0
 45 39  1  0  0  0  0
M  END
>  <minimizedAffinity>
-6.05908251

$$$$
