
 OpenBabel03242517393D

 33 35  0  0  1  0  0  0  0  0999 V2000
   36.5120   27.9150   38.4060 C   0  0  0  0  0  0  0  0  0  0  0  0
   35.3680   28.6720   38.5590 C   0  0  0  0  0  0  0  0  0  0  0  0
   34.9990   29.0450   39.8370 C   0  0  0  0  0  0  0  0  0  0  0  0
   35.7550   28.6690   40.9110 N   0  0  0  0  0  0  0  0  0  0  0  0
   36.8840   27.9170   40.7180 C   0  0  0  0  0  0  0  0  0  0  0  0
   37.2480   27.5520   39.4830 N   0  0  0  0  0  0  0  0  0  0  0  0
   36.7220   27.6690   37.3680 H   0  0  0  0  0  0  0  0  0  0  0  0
   34.1160   29.6440   40.0940 H   0  0  0  0  0  0  0  0  0  0  0  0
   36.1550   27.1310   43.6790 O   0  0  0  0  0  0  0  0  0  0  0  0
   36.9380   27.8880   43.0870 C   0  0  0  0  0  0  0  0  0  0  0  0
   37.7290   27.4920   41.8700 C   0  0  2  0  0  3  0  0  0  0  0  0
   38.9280   28.3790   42.0070 C   0  0  0  0  0  3  0  0  0  0  0  0
   39.8060   27.8830   42.4560 H   0  0  0  0  0  0  0  0  0  0  0  0
   38.4860   29.6080   42.7570 C   0  0  0  0  0  3  0  0  0  0  0  0
   38.3080   30.4800   42.0930 H   0  0  0  0  0  0  0  0  0  0  0  0
   37.2480   29.2360   43.4160 N   0  0  0  0  0  0  0  0  0  0  0  0
   36.7150   29.8940   44.0210 H   0  0  0  0  0  0  0  0  0  0  0  0
   34.5270   29.0990   37.4520 C   0  0  0  0  0  3  0  0  0  0  0  0
   33.3010   28.6940   37.2110 C   0  0  0  0  0  3  0  0  0  0  0  0
   32.5060   29.1930   36.0380 C   0  0  0  0  0  0  0  0  0  0  0  0
   31.9380   28.2940   35.6830 H   0  0  0  0  0  0  0  0  0  0  0  0
   33.1450   29.5890   35.2320 H   0  0  0  0  0  0  0  0  0  0  0  0
   31.4890   30.1780   36.4890 C   0  0  0  0  0  0  0  0  0  0  0  0
   30.9050   30.0200   37.7460 C   0  0  0  0  0  0  0  0  0  0  0  0
   29.9550   30.9360   38.1710 C   0  0  0  0  0  0  0  0  0  0  0  0
   29.5670   32.0140   37.3740 C   0  0  0  0  0  0  0  0  0  0  0  0
   30.1440   32.1780   36.1220 C   0  0  0  0  0  0  0  0  0  0  0  0
   31.0870   31.2550   35.7190 C   0  0  0  0  0  0  0  0  0  0  0  0
   31.1480   29.2140   38.4240 H   0  0  0  0  0  0  0  0  0  0  0  0
   29.4650   30.8750   39.1270 H   0  0  0  0  0  0  0  0  0  0  0  0
   28.8360   32.7470   37.6640 H   0  0  0  0  0  0  0  0  0  0  0  0
   29.8670   32.9940   35.4900 H   0  0  0  0  0  0  0  0  0  0  0  0
   31.5160   31.4050   34.7480 H   0  0  0  0  0  0  0  0  0  0  0  0
  1  2  2  0  0  0  0
  1  6  1  0  0  0  0
  2  3  1  0  0  0  0
  3  8  1  0  0  0  0
  3  4  2  0  0  0  0
  5  4  1  0  0  0  0
  6  5  2  0  0  0  0
  7  1  1  0  0  0  0
 10 16  1  0  0  0  0
 10  9  2  0  0  0  0
 11  5  1  6  0  0  0
 11 12  1  0  0  0  0
 11 10  1  0  0  0  0
 12 13  1  0  0  0  0
 12 14  1  0  0  0  0
 14 16  1  0  0  0  0
 15 14  1  0  0  0  0
 16 17  1  0  0  0  0
 18  2  1  0  0  0  0
 19 18  2  0  0  0  0
 20 23  1  0  0  0  0
 20 19  1  0  0  0  0
 21 20  1  0  0  0  0
 22 20  1  0  0  0  0
 23 24  1  0  0  0  0
 24 25  2  0  0  0  0
 24 29  1  0  0  0  0
 25 30  1  0  0  0  0
 26 31  1  0  0  0  0
 26 25  1  0  0  0  0
 27 26  2  0  0  0  0
 28 27  1  0  0  0  0
 28 23  2  0  0  0  0
 32 27  1  0  0  0  0
 33 28  1  0  0  0  0
M  END
>  <minimizedAffinity>
-6.10136747

$$$$

 OpenBabel03242517393D

 33 35  0  0  1  0  0  0  0  0999 V2000
   37.0340   29.2030   38.9260 C   0  0  0  0  0  0  0  0  0  0  0  0
   35.6570   29.1480   39.0030 C   0  0  0  0  0  0  0  0  0  0  0  0
   35.0730   29.1530   40.2560 C   0  0  0  0  0  0  0  0  0  0  0  0
   35.8500   29.2130   41.3780 N   0  0  0  0  0  0  0  0  0  0  0  0
   37.2140   29.2660   41.2590 C   0  0  0  0  0  0  0  0  0  0  0  0
   37.7860   29.2610   40.0500 N   0  0  0  0  0  0  0  0  0  0  0  0
   37.4020   29.1930   37.9030 H   0  0  0  0  0  0  0  0  0  0  0  0
   33.9940   29.1140   40.4530 H   0  0  0  0  0  0  0  0  0  0  0  0
   40.3460   29.3250   41.5870 O   0  0  0  0  0  0  0  0  0  0  0  0
   39.3780   28.6930   42.0360 C   0  0  0  0  0  0  0  0  0  0  0  0
   38.0860   29.3310   42.4660 C   0  0  2  0  0  3  0  0  0  0  0  0
   37.6230   28.3620   43.5110 C   0  0  0  0  0  3  0  0  0  0  0  0
   37.8530   28.6700   44.5450 H   0  0  0  0  0  0  0  0  0  0  0  0
   38.1890   27.0150   43.1470 C   0  0  0  0  0  3  0  0  0  0  0  0
   37.4480   26.3530   42.6520 H   0  0  0  0  0  0  0  0  0  0  0  0
   39.2840   27.2880   42.2350 N   0  0  0  0  0  0  0  0  0  0  0  0
   39.8730   26.5340   41.8240 H   0  0  0  0  0  0  0  0  0  0  0  0
   34.7840   29.0840   37.8420 C   0  0  0  0  0  3  0  0  0  0  0  0
   33.4900   28.8590   37.8590 C   0  0  0  0  0  3  0  0  0  0  0  0
   32.6660   28.8110   36.6030 C   0  0  0  0  0  0  0  0  0  0  0  0
   32.0490   27.8820   36.7100 H   0  0  0  0  0  0  0  0  0  0  0  0
   33.2860   28.7610   35.6940 H   0  0  0  0  0  0  0  0  0  0  0  0
   31.7080   29.9460   36.5740 C   0  0  0  0  0  0  0  0  0  0  0  0
   30.9500   30.2220   37.7120 C   0  0  0  0  0  0  0  0  0  0  0  0
   30.0540   31.2790   37.6900 C   0  0  0  0  0  0  0  0  0  0  0  0
   29.8910   32.0790   36.5570 C   0  0  0  0  0  0  0  0  0  0  0  0
   30.6420   31.8120   35.4210 C   0  0  0  0  0  0  0  0  0  0  0  0
   31.5260   30.7540   35.4650 C   0  0  0  0  0  0  0  0  0  0  0  0
   31.0150   29.6530   38.6290 H   0  0  0  0  0  0  0  0  0  0  0  0
   29.4390   31.5480   38.5310 H   0  0  0  0  0  0  0  0  0  0  0  0
   29.2090   32.9080   36.4970 H   0  0  0  0  0  0  0  0  0  0  0  0
   30.5380   32.4060   34.5390 H   0  0  0  0  0  0  0  0  0  0  0  0
   32.0940   30.5690   34.5740 H   0  0  0  0  0  0  0  0  0  0  0  0
  1  2  2  0  0  0  0
  1  6  1  0  0  0  0
  2  3  1  0  0  0  0
  3  8  1  0  0  0  0
  3  4  2  0  0  0  0
  5  4  1  0  0  0  0
  6  5  2  0  0  0  0
  7  1  1  0  0  0  0
  9 10  2  0  0  0  0
 10 16  1  0  0  0  0
 10 11  1  0  0  0  0
 11  5  1  6  0  0  0
 11 12  1  0  0  0  0
 12 13  1  0  0  0  0
 14 12  1  0  0  0  0
 15 14  1  0  0  0  0
 16 14  1  0  0  0  0
 17 16  1  0  0  0  0
 18 19  2  0  0  0  0
 18  2  1  0  0  0  0
 20 21  1  0  0  0  0
 20 19  1  0  0  0  0
 22 20  1  0  0  0  0
 23 20  1  0  0  0  0
 23 24  1  0  0  0  0
 24 29  1  0  0  0  0
 25 24  2  0  0  0  0
 25 30  1  0  0  0  0
 26 25  1  0  0  0  0
 27 28  1  0  0  0  0
 27 26  2  0  0  0  0
 28 23  2  0  0  0  0
 31 26  1  0  0  0  0
 32 27  1  0  0  0  0
 33 28  1  0  0  0  0
M  END
>  <minimizedAffinity>
-5.54590654

$$$$

 OpenBabel03242517393D

 33 35  0  0  1  0  0  0  0  0999 V2000
   34.7020   29.0960   39.8750 C   0  0  0  0  0  0  0  0  0  0  0  0
   35.2750   28.9380   38.6290 C   0  0  0  0  0  0  0  0  0  0  0  0
   36.6440   28.7640   38.5580 C   0  0  0  0  0  0  0  0  0  0  0  0
   37.3970   28.7480   39.6990 N   0  0  0  0  0  0  0  0  0  0  0  0
   36.7900   28.9080   40.9160 C   0  0  0  0  0  0  0  0  0  0  0  0
   35.4640   29.0780   40.9920 N   0  0  0  0  0  0  0  0  0  0  0  0
   33.6230   29.2270   39.8310 H   0  0  0  0  0  0  0  0  0  0  0  0
   37.2200   28.6280   37.6340 H   0  0  0  0  0  0  0  0  0  0  0  0
   39.8900   29.0730   41.4450 O   0  0  0  0  0  0  0  0  0  0  0  0
   38.9310   28.3590   41.7720 C   0  0  0  0  0  0  0  0  0  0  0  0
   37.5850   28.8960   42.1770 C   0  0  2  0  0  3  0  0  0  0  0  0
   37.1100   27.8130   43.0960 C   0  0  0  0  0  3  0  0  0  0  0  0
   37.2640   28.0310   44.1670 H   0  0  0  0  0  0  0  0  0  0  0  0
   37.7630   26.5330   42.6460 C   0  0  0  0  0  3  0  0  0  0  0  0
   37.0860   25.8880   42.0470 H   0  0  0  0  0  0  0  0  0  0  0  0
   38.8950   26.9390   41.8350 N   0  0  0  0  0  0  0  0  0  0  0  0
   39.5440   26.2540   41.3930 H   0  0  0  0  0  0  0  0  0  0  0  0
   34.5220   28.9460   37.3840 C   0  0  0  0  0  3  0  0  0  0  0  0
   33.2140   28.9080   37.2730 C   0  0  0  0  0  3  0  0  0  0  0  0
   32.5200   28.9210   35.9400 C   0  0  0  0  0  0  0  0  0  0  0  0
   31.7770   28.0850   36.0040 H   0  0  0  0  0  0  0  0  0  0  0  0
   33.2160   28.7560   35.1010 H   0  0  0  0  0  0  0  0  0  0  0  0
   31.7310   30.1700   35.7830 C   0  0  0  0  0  0  0  0  0  0  0  0
   31.7430   30.8280   34.5530 C   0  0  0  0  0  0  0  0  0  0  0  0
   31.0090   31.9940   34.4030 C   0  0  0  0  0  0  0  0  0  0  0  0
   30.2560   32.5280   35.4490 C   0  0  0  0  0  0  0  0  0  0  0  0
   30.2390   31.8790   36.6760 C   0  0  0  0  0  0  0  0  0  0  0  0
   30.9770   30.7200   36.8040 C   0  0  0  0  0  0  0  0  0  0  0  0
   32.2990   30.4820   33.6930 H   0  0  0  0  0  0  0  0  0  0  0  0
   30.9730   32.5520   33.4830 H   0  0  0  0  0  0  0  0  0  0  0  0
   29.6730   33.4280   35.3760 H   0  0  0  0  0  0  0  0  0  0  0  0
   29.6720   32.2640   37.4960 H   0  0  0  0  0  0  0  0  0  0  0  0
   30.9460   30.2390   37.7620 H   0  0  0  0  0  0  0  0  0  0  0  0
  1  6  1  0  0  0  0
  2  1  2  0  0  0  0
  3  2  1  0  0  0  0
  3  4  2  0  0  0  0
  4  5  1  0  0  0  0
  5  6  2  0  0  0  0
  7  1  1  0  0  0  0
  8  3  1  0  0  0  0
  9 10  2  0  0  0  0
 10 16  1  0  0  0  0
 10 11  1  0  0  0  0
 11  5  1  6  0  0  0
 11 12  1  0  0  0  0
 12 13  1  0  0  0  0
 14 12  1  0  0  0  0
 15 14  1  0  0  0  0
 16 14  1  0  0  0  0
 17 16  1  0  0  0  0
 18  2  1  0  0  0  0
 19 18  2  0  0  0  0
 20 21  1  0  0  0  0
 20 19  1  0  0  0  0
 22 20  1  0  0  0  0
 23 20  1  0  0  0  0
 23 28  1  0  0  0  0
 24 23  2  0  0  0  0
 25 24  1  0  0  0  0
 25 26  2  0  0  0  0
 26 27  1  0  0  0  0
 27 28  2  0  0  0  0
 27 32  1  0  0  0  0
 28 33  1  0  0  0  0
 29 24  1  0  0  0  0
 30 25  1  0  0  0  0
 31 26  1  0  0  0  0
M  END
>  <minimizedAffinity>
-5.50233173

$$$$

 OpenBabel03242517393D

 33 35  0  0  1  0  0  0  0  0999 V2000
   35.8960   29.3200   36.3730 C   0  0  0  0  0  0  0  0  0  0  0  0
   34.5690   28.9740   36.5290 C   0  0  0  0  0  0  0  0  0  0  0  0
   34.0920   28.7780   37.8110 C   0  0  0  0  0  0  0  0  0  0  0  0
   34.9210   28.9280   38.8850 N   0  0  0  0  0  0  0  0  0  0  0  0
   36.2330   29.2730   38.6900 C   0  0  0  0  0  0  0  0  0  0  0  0
   36.7020   29.4640   37.4510 N   0  0  0  0  0  0  0  0  0  0  0  0
   36.1800   29.4520   35.3320 H   0  0  0  0  0  0  0  0  0  0  0  0
   33.0610   28.5010   38.0690 H   0  0  0  0  0  0  0  0  0  0  0  0
   35.9940   28.4420   41.7180 O   0  0  0  0  0  0  0  0  0  0  0  0
   36.2680   29.4520   41.0530 C   0  0  0  0  0  0  0  0  0  0  0  0
   37.1610   29.4420   39.8430 C   0  0  2  0  0  3  0  0  0  0  0  0
   37.7120   30.8350   39.8830 C   0  0  0  0  0  3  0  0  0  0  0  0
   38.7140   30.9110   40.3390 H   0  0  0  0  0  0  0  0  0  0  0  0
   36.6790   31.6990   40.5590 C   0  0  0  0  0  3  0  0  0  0  0  0
   36.0760   32.2950   39.8420 H   0  0  0  0  0  0  0  0  0  0  0  0
   35.8160   30.7810   41.2780 N   0  0  0  0  0  0  0  0  0  0  0  0
   35.0090   31.1030   41.8530 H   0  0  0  0  0  0  0  0  0  0  0  0
   33.6430   28.8010   35.4200 C   0  0  0  0  0  3  0  0  0  0  0  0
   32.3450   29.0050   35.4580 C   0  0  0  0  0  3  0  0  0  0  0  0
   31.4650   28.8010   34.2580 C   0  0  0  0  0  0  0  0  0  0  0  0
   30.5890   28.2220   34.6490 H   0  0  0  0  0  0  0  0  0  0  0  0
   31.9700   28.2400   33.4540 H   0  0  0  0  0  0  0  0  0  0  0  0
   30.9270   30.1040   33.7880 C   0  0  0  0  0  0  0  0  0  0  0  0
   30.0430   30.1210   32.7090 C   0  0  0  0  0  0  0  0  0  0  0  0
   29.5400   31.3340   32.2660 C   0  0  0  0  0  0  0  0  0  0  0  0
   29.8930   32.5410   32.8730 C   0  0  0  0  0  0  0  0  0  0  0  0
   30.7710   32.5310   33.9470 C   0  0  0  0  0  0  0  0  0  0  0  0
   31.2610   31.3130   34.3710 C   0  0  0  0  0  0  0  0  0  0  0  0
   29.7190   29.2330   32.1840 H   0  0  0  0  0  0  0  0  0  0  0  0
   28.8540   31.4210   31.4410 H   0  0  0  0  0  0  0  0  0  0  0  0
   29.5260   33.5020   32.5620 H   0  0  0  0  0  0  0  0  0  0  0  0
   31.0600   33.4400   34.4310 H   0  0  0  0  0  0  0  0  0  0  0  0
   31.9380   31.3350   35.2020 H   0  0  0  0  0  0  0  0  0  0  0  0
  1  2  2  0  0  0  0
  1  6  1  0  0  0  0
  2  3  1  0  0  0  0
  3  8  1  0  0  0  0
  3  4  2  0  0  0  0
  5  4  1  0  0  0  0
  6  5  2  0  0  0  0
  7  1  1  0  0  0  0
 10 16  1  0  0  0  0
 10  9  2  0  0  0  0
 11  5  1  6  0  0  0
 11 12  1  0  0  0  0
 11 10  1  0  0  0  0
 12 13  1  0  0  0  0
 12 14  1  0  0  0  0
 14 16  1  0  0  0  0
 15 14  1  0  0  0  0
 16 17  1  0  0  0  0
 18 19  2  0  0  0  0
 18  2  1  0  0  0  0
 20 21  1  0  0  0  0
 20 19  1  0  0  0  0
 22 20  1  0  0  0  0
 23 20  1  0  0  0  0
 23 28  1  0  0  0  0
 24 23  2  0  0  0  0
 25 24  1  0  0  0  0
 25 26  2  0  0  0  0
 26 27  1  0  0  0  0
 27 28  2  0  0  0  0
 27 32  1  0  0  0  0
 28 33  1  0  0  0  0
 29 24  1  0  0  0  0
 30 25  1  0  0  0  0
 31 26  1  0  0  0  0
M  END
>  <minimizedAffinity>
-5.31644583

$$$$

 OpenBabel03242517393D

 33 35  0  0  1  0  0  0  0  0999 V2000
   36.8690   28.0090   40.4130 C   0  0  0  0  0  0  0  0  0  0  0  0
   37.2470   28.9370   41.3630 C   0  0  0  0  0  0  0  0  0  0  0  0
   37.5990   28.4790   42.6190 C   0  0  0  0  0  0  0  0  0  0  0  0
   37.5710   27.1410   42.8970 N   0  0  0  0  0  0  0  0  0  0  0  0
   37.1900   26.2520   41.9270 C   0  0  0  0  0  0  0  0  0  0  0  0
   36.8470   26.6890   40.7090 N   0  0  0  0  0  0  0  0  0  0  0  0
   36.6100   28.4610   39.4590 H   0  0  0  0  0  0  0  0  0  0  0  0
   37.9170   29.1090   43.4590 H   0  0  0  0  0  0  0  0  0  0  0  0
   39.3170   24.2870   43.1650 O   0  0  0  0  0  0  0  0  0  0  0  0
   38.5880   24.3530   42.1650 C   0  0  0  0  0  0  0  0  0  0  0  0
   37.1490   24.7880   42.2030 C   0  0  2  0  0  3  0  0  0  0  0  0
   36.5930   24.0410   41.0290 C   0  0  0  0  0  3  0  0  0  0  0  0
   36.0780   23.1020   41.2960 H   0  0  0  0  0  0  0  0  0  0  0  0
   37.7240   23.8470   40.0530 C   0  0  0  0  0  3  0  0  0  0  0  0
   37.6950   24.5670   39.2080 H   0  0  0  0  0  0  0  0  0  0  0  0
   38.9380   24.0440   40.8220 N   0  0  0  0  0  0  0  0  0  0  0  0
   39.8880   23.9610   40.4020 H   0  0  0  0  0  0  0  0  0  0  0  0
   37.2950   30.3700   41.1200 C   0  0  0  0  0  3  0  0  0  0  0  0
   36.8600   30.9870   40.0450 C   0  0  0  0  0  3  0  0  0  0  0  0
   36.9520   32.4780   39.8820 C   0  0  0  0  0  0  0  0  0  0  0  0
   36.6850   32.8860   40.8910 H   0  0  0  0  0  0  0  0  0  0  0  0
   36.2590   32.8610   39.1140 H   0  0  0  0  0  0  0  0  0  0  0  0
   38.3590   32.8810   39.6270 C   0  0  0  0  0  0  0  0  0  0  0  0
   38.8880   33.9660   40.3260 C   0  0  0  0  0  0  0  0  0  0  0  0
   40.2000   34.3470   40.0920 C   0  0  0  0  0  0  0  0  0  0  0  0
   41.0070   33.6720   39.1750 C   0  0  0  0  0  0  0  0  0  0  0  0
   40.4880   32.5920   38.4760 C   0  0  0  0  0  0  0  0  0  0  0  0
   39.1800   32.2300   38.7240 C   0  0  0  0  0  0  0  0  0  0  0  0
   38.3310   34.5420   41.0520 H   0  0  0  0  0  0  0  0  0  0  0  0
   40.6720   35.1730   40.5950 H   0  0  0  0  0  0  0  0  0  0  0  0
   42.0280   33.9340   38.9630 H   0  0  0  0  0  0  0  0  0  0  0  0
   41.0820   32.0560   37.7670 H   0  0  0  0  0  0  0  0  0  0  0  0
   38.8040   31.3920   38.1700 H   0  0  0  0  0  0  0  0  0  0  0  0
  1  6  2  0  0  0  0
  1  2  1  0  0  0  0
  2  3  2  0  0  0  0
  3  4  1  0  0  0  0
  3  8  1  0  0  0  0
  5  4  2  0  0  0  0
  6  5  1  0  0  0  0
  7  1  1  0  0  0  0
 10 11  1  0  0  0  0
 10  9  2  0  0  0  0
 11  5  1  6  0  0  0
 12 13  1  0  0  0  0
 12 11  1  0  0  0  0
 14 16  1  0  0  0  0
 14 12  1  0  0  0  0
 15 14  1  0  0  0  0
 16 10  1  0  0  0  0
 17 16  1  0  0  0  0
 18  2  1  0  0  0  0
 19 18  2  0  0  0  0
 20 19  1  0  0  0  0
 20 21  1  0  0  0  0
 22 20  1  0  0  0  0
 23 20  1  0  0  0  0
 23 24  1  0  0  0  0
 24 29  1  0  0  0  0
 25 24  2  0  0  0  0
 25 30  1  0  0  0  0
 26 25  1  0  0  0  0
 27 28  1  0  0  0  0
 27 26  2  0  0  0  0
 28 23  2  0  0  0  0
 31 26  1  0  0  0  0
 32 27  1  0  0  0  0
 33 28  1  0  0  0  0
M  END
>  <minimizedAffinity>
-5.29603386

$$$$

 OpenBabel03242517393D

 33 35  0  0  1  0  0  0  0  0999 V2000
   36.9070   29.2690   38.1200 C   0  0  0  0  0  0  0  0  0  0  0  0
   35.7750   29.4470   38.8910 C   0  0  0  0  0  0  0  0  0  0  0  0
   35.9170   30.0450   40.1290 C   0  0  0  0  0  0  0  0  0  0  0  0
   37.1490   30.4440   40.5650 N   0  0  0  0  0  0  0  0  0  0  0  0
   38.2480   30.2490   39.7700 C   0  0  0  0  0  0  0  0  0  0  0  0
   38.1180   29.6700   38.5700 N   0  0  0  0  0  0  0  0  0  0  0  0
   36.6990   28.7920   37.1660 H   0  0  0  0  0  0  0  0  0  0  0  0
   35.1000   30.2440   40.8340 H   0  0  0  0  0  0  0  0  0  0  0  0
   39.4460   30.7550   42.6390 O   0  0  0  0  0  0  0  0  0  0  0  0
   39.3730   31.3400   41.5480 C   0  0  0  0  0  0  0  0  0  0  0  0
   39.6040   30.6730   40.2210 C   0  0  2  0  0  3  0  0  0  0  0  0
   40.0990   31.8260   39.4030 C   0  0  0  0  0  3  0  0  0  0  0  0
   41.1980   31.8740   39.3120 H   0  0  0  0  0  0  0  0  0  0  0  0
   39.4910   33.0750   39.9870 C   0  0  0  0  0  3  0  0  0  0  0  0
   38.6200   33.4440   39.4060 H   0  0  0  0  0  0  0  0  0  0  0  0
   39.0670   32.7110   41.3250 N   0  0  0  0  0  0  0  0  0  0  0  0
   38.6160   33.3880   41.9740 H   0  0  0  0  0  0  0  0  0  0  0  0
   34.4420   29.0420   38.4750 C   0  0  0  0  0  3  0  0  0  0  0  0
   33.9720   29.0700   37.2480 C   0  0  0  0  0  3  0  0  0  0  0  0
   32.5760   28.6300   36.9120 C   0  0  0  0  0  0  0  0  0  0  0  0
   32.2610   28.0070   37.7890 H   0  0  0  0  0  0  0  0  0  0  0  0
   32.5320   28.0380   35.9830 H   0  0  0  0  0  0  0  0  0  0  0  0
   31.6610   29.8000   36.8820 C   0  0  0  0  0  0  0  0  0  0  0  0
   30.8820   30.0790   38.0050 C   0  0  0  0  0  0  0  0  0  0  0  0
   30.0260   31.1690   37.9820 C   0  0  0  0  0  0  0  0  0  0  0  0
   29.9240   31.9980   36.8640 C   0  0  0  0  0  0  0  0  0  0  0  0
   30.6970   31.7280   35.7430 C   0  0  0  0  0  0  0  0  0  0  0  0
   31.5410   30.6370   35.7870 C   0  0  0  0  0  0  0  0  0  0  0  0
   30.9000   29.4880   38.9100 H   0  0  0  0  0  0  0  0  0  0  0  0
   29.3980   31.4420   38.8120 H   0  0  0  0  0  0  0  0  0  0  0  0
   29.2750   32.8530   36.8040 H   0  0  0  0  0  0  0  0  0  0  0  0
   30.6400   32.3450   34.8720 H   0  0  0  0  0  0  0  0  0  0  0  0
   32.1260   30.4510   34.9080 H   0  0  0  0  0  0  0  0  0  0  0  0
  1  6  2  0  0  0  0
  1  2  1  0  0  0  0
  2  3  2  0  0  0  0
  3  4  1  0  0  0  0
  3  8  1  0  0  0  0
  5  4  2  0  0  0  0
  6  5  1  0  0  0  0
  7  1  1  0  0  0  0
 10  9  2  0  0  0  0
 11  5  1  6  0  0  0
 11 10  1  0  0  0  0
 12 14  1  0  0  0  0
 12 11  1  0  0  0  0
 13 12  1  0  0  0  0
 14 16  1  0  0  0  0
 15 14  1  0  0  0  0
 16 10  1  0  0  0  0
 16 17  1  0  0  0  0
 18  2  1  0  0  0  0
 19 18  2  0  0  0  0
 20 19  1  0  0  0  0
 20 21  1  0  0  0  0
 22 20  1  0  0  0  0
 23 20  1  0  0  0  0
 23 24  1  0  0  0  0
 24 29  1  0  0  0  0
 25 24  2  0  0  0  0
 25 30  1  0  0  0  0
 26 25  1  0  0  0  0
 27 28  1  0  0  0  0
 27 26  2  0  0  0  0
 28 23  2  0  0  0  0
 31 26  1  0  0  0  0
 32 27  1  0  0  0  0
 33 28  1  0  0  0  0
M  END
>  <minimizedAffinity>
-5.20272732

$$$$

 OpenBabel03242517393D

 33 35  0  0  1  0  0  0  0  0999 V2000
   38.4960   29.1540   42.0810 C   0  0  0  0  0  0  0  0  0  0  0  0
   37.3990   28.6750   41.3930 C   0  0  0  0  0  0  0  0  0  0  0  0
   36.7490   29.5300   40.5240 C   0  0  0  0  0  0  0  0  0  0  0  0
   37.1930   30.8120   40.3580 N   0  0  0  0  0  0  0  0  0  0  0  0
   38.2850   31.2500   41.0590 C   0  0  0  0  0  0  0  0  0  0  0  0
   38.9190   30.4270   41.9030 N   0  0  0  0  0  0  0  0  0  0  0  0
   38.9400   28.4120   42.7400 H   0  0  0  0  0  0  0  0  0  0  0  0
   35.8690   29.2740   39.9200 H   0  0  0  0  0  0  0  0  0  0  0  0
   37.1210   33.7430   39.5270 O   0  0  0  0  0  0  0  0  0  0  0  0
   38.1890   33.1190   39.6050 C   0  0  0  0  0  0  0  0  0  0  0  0
   38.7900   32.6430   40.8990 C   0  0  2  0  0  3  0  0  0  0  0  0
   40.2480   32.6440   40.5550 C   0  0  0  0  0  3  0  0  0  0  0  0
   40.7920   33.5420   40.8980 H   0  0  0  0  0  0  0  0  0  0  0  0
   40.3520   32.4130   39.0700 C   0  0  0  0  0  3  0  0  0  0  0  0
   40.6140   31.3650   38.8120 H   0  0  0  0  0  0  0  0  0  0  0  0
   39.0430   32.7350   38.5350 N   0  0  0  0  0  0  0  0  0  0  0  0
   38.8220   32.6760   37.5190 H   0  0  0  0  0  0  0  0  0  0  0  0
   36.8860   27.3210   41.5310 C   0  0  0  0  0  3  0  0  0  0  0  0
   37.2780   26.4320   42.4160 C   0  0  0  0  0  3  0  0  0  0  0  0
   36.6880   25.0520   42.4840 C   0  0  0  0  0  0  0  0  0  0  0  0
   35.5810   25.2190   42.4260 H   0  0  0  0  0  0  0  0  0  0  0  0
   36.9500   24.5270   43.4170 H   0  0  0  0  0  0  0  0  0  0  0  0
   37.0570   24.2750   41.2740 C   0  0  0  0  0  0  0  0  0  0  0  0
   38.3880   23.9010   41.0890 C   0  0  0  0  0  0  0  0  0  0  0  0
   38.7380   23.1760   39.9610 C   0  0  0  0  0  0  0  0  0  0  0  0
   37.7920   22.8080   39.0030 C   0  0  0  0  0  0  0  0  0  0  0  0
   36.4660   23.1750   39.1790 C   0  0  0  0  0  0  0  0  0  0  0  0
   36.1400   23.8970   40.3090 C   0  0  0  0  0  0  0  0  0  0  0  0
   39.1820   24.1450   41.7820 H   0  0  0  0  0  0  0  0  0  0  0  0
   39.7450   22.8550   39.7560 H   0  0  0  0  0  0  0  0  0  0  0  0
   38.0200   22.2460   38.1150 H   0  0  0  0  0  0  0  0  0  0  0  0
   35.7190   22.9080   38.4620 H   0  0  0  0  0  0  0  0  0  0  0  0
   35.1080   24.1680   40.4210 H   0  0  0  0  0  0  0  0  0  0  0  0
  1  7  1  0  0  0  0
  2 18  1  0  0  0  0
  2  1  2  0  0  0  0
  3  2  1  0  0  0  0
  4  3  2  0  0  0  0
  4  5  1  0  0  0  0
  5  6  2  0  0  0  0
  6  1  1  0  0  0  0
  8  3  1  0  0  0  0
  9 10  2  0  0  0  0
 10 11  1  0  0  0  0
 11  5  1  6  0  0  0
 12 13  1  0  0  0  0
 12 11  1  0  0  0  0
 14 12  1  0  0  0  0
 15 14  1  0  0  0  0
 16 14  1  0  0  0  0
 16 10  1  0  0  0  0
 17 16  1  0  0  0  0
 18 19  2  0  0  0  0
 19 20  1  0  0  0  0
 20 22  1  0  0  0  0
 21 20  1  0  0  0  0
 23 20  1  0  0  0  0
 24 23  1  0  0  0  0
 24 29  1  0  0  0  0
 25 24  2  0  0  0  0
 26 27  2  0  0  0  0
 26 25  1  0  0  0  0
 27 28  1  0  0  0  0
 28 33  1  0  0  0  0
 28 23  2  0  0  0  0
 30 25  1  0  0  0  0
 31 26  1  0  0  0  0
 32 27  1  0  0  0  0
M  END
>  <minimizedAffinity>
-5.19489479

$$$$

 OpenBabel03242517393D

 33 35  0  0  1  0  0  0  0  0999 V2000
   36.5230   28.8170   38.2080 C   0  0  0  0  0  0  0  0  0  0  0  0
   35.9550   28.8610   39.4660 C   0  0  0  0  0  0  0  0  0  0  0  0
   34.5830   28.9990   39.5570 C   0  0  0  0  0  0  0  0  0  0  0  0
   33.8220   29.0870   38.4260 N   0  0  0  0  0  0  0  0  0  0  0  0
   34.4240   29.0400   37.1960 C   0  0  0  0  0  0  0  0  0  0  0  0
   35.7520   28.9070   37.1000 N   0  0  0  0  0  0  0  0  0  0  0  0
   37.6050   28.7080   38.2350 H   0  0  0  0  0  0  0  0  0  0  0  0
   34.0110   29.0460   40.4930 H   0  0  0  0  0  0  0  0  0  0  0  0
   31.5520   30.2020   36.6290 O   0  0  0  0  0  0  0  0  0  0  0  0
   32.1900   29.1610   36.4130 C   0  0  0  0  0  0  0  0  0  0  0  0
   33.6190   29.1350   35.9450 C   0  0  2  0  0  3  0  0  0  0  0  0
   33.6500   27.8400   35.1920 C   0  0  0  0  0  3  0  0  0  0  0  0
   33.5350   27.9510   34.1000 H   0  0  0  0  0  0  0  0  0  0  0  0
   32.6150   26.9420   35.8160 C   0  0  0  0  0  3  0  0  0  0  0  0
   33.0530   26.1890   36.5060 H   0  0  0  0  0  0  0  0  0  0  0  0
   31.7300   27.8230   36.5540 N   0  0  0  0  0  0  0  0  0  0  0  0
   30.9040   27.4750   37.0840 H   0  0  0  0  0  0  0  0  0  0  0  0
   36.7180   28.7710   40.7010 C   0  0  0  0  0  3  0  0  0  0  0  0
   36.3200   28.2000   41.8150 C   0  0  0  0  0  3  0  0  0  0  0  0
   37.1800   28.1540   43.0470 C   0  0  0  0  0  0  0  0  0  0  0  0
   36.4530   28.0250   43.8900 H   0  0  0  0  0  0  0  0  0  0  0  0
   37.7690   29.0750   43.1830 H   0  0  0  0  0  0  0  0  0  0  0  0
   38.0280   26.9350   43.0360 C   0  0  0  0  0  0  0  0  0  0  0  0
   37.5830   25.8070   42.3470 C   0  0  0  0  0  0  0  0  0  0  0  0
   38.3700   24.6660   42.3350 C   0  0  0  0  0  0  0  0  0  0  0  0
   39.6000   24.6160   42.9930 C   0  0  0  0  0  0  0  0  0  0  0  0
   40.0500   25.7350   43.6800 C   0  0  0  0  0  0  0  0  0  0  0  0
   39.2510   26.8590   43.6800 C   0  0  0  0  0  0  0  0  0  0  0  0
   36.6440   25.7620   41.8120 H   0  0  0  0  0  0  0  0  0  0  0  0
   38.0890   23.7620   41.8240 H   0  0  0  0  0  0  0  0  0  0  0  0
   40.2420   23.7540   43.0080 H   0  0  0  0  0  0  0  0  0  0  0  0
   40.9880   25.7260   44.1940 H   0  0  0  0  0  0  0  0  0  0  0  0
   39.6220   27.7090   44.2180 H   0  0  0  0  0  0  0  0  0  0  0  0
  1  7  1  0  0  0  0
  1  2  1  0  0  0  0
  2  3  2  0  0  0  0
  2 18  1  0  0  0  0
  3  8  1  0  0  0  0
  4  3  1  0  0  0  0
  5  4  2  0  0  0  0
  6  5  1  0  0  0  0
  6  1  2  0  0  0  0
 10 16  1  0  0  0  0
 10  9  2  0  0  0  0
 11 10  1  0  0  0  0
 11  5  1  1  0  0  0
 12 14  1  0  0  0  0
 12 11  1  0  0  0  0
 13 12  1  0  0  0  0
 14 15  1  0  0  0  0
 14 16  1  0  0  0  0
 16 17  1  0  0  0  0
 18 19  2  0  0  0  0
 19 20  1  0  0  0  0
 20 22  1  0  0  0  0
 20 21  1  0  0  0  0
 23 20  1  0  0  0  0
 23 28  1  0  0  0  0
 24 23  2  0  0  0  0
 25 24  1  0  0  0  0
 25 26  2  0  0  0  0
 26 31  1  0  0  0  0
 26 27  1  0  0  0  0
 27 28  2  0  0  0  0
 27 32  1  0  0  0  0
 28 33  1  0  0  0  0
 29 24  1  0  0  0  0
 30 25  1  0  0  0  0
M  END
>  <minimizedAffinity>
-5.1591177

$$$$

 OpenBabel03242517393D

 33 35  0  0  1  0  0  0  0  0999 V2000
   37.8980   31.8270   40.9080 C   0  0  0  0  0  0  0  0  0  0  0  0
   38.3450   30.5220   40.8840 C   0  0  0  0  0  0  0  0  0  0  0  0
   39.5670   30.2620   40.2910 C   0  0  0  0  0  0  0  0  0  0  0  0
   40.3010   31.2790   39.7500 N   0  0  0  0  0  0  0  0  0  0  0  0
   39.8220   32.5620   39.7940 C   0  0  0  0  0  0  0  0  0  0  0  0
   38.6400   32.8210   40.3660 N   0  0  0  0  0  0  0  0  0  0  0  0
   36.9300   31.9350   41.3920 H   0  0  0  0  0  0  0  0  0  0  0  0
   40.0330   29.2720   40.2070 H   0  0  0  0  0  0  0  0  0  0  0  0
   41.5120   32.8020   37.1480 O   0  0  0  0  0  0  0  0  0  0  0  0
   41.6490   33.0300   38.3590 C   0  0  0  0  0  0  0  0  0  0  0  0
   40.6010   33.6910   39.2110 C   0  0  2  0  0  3  0  0  0  0  0  0
   41.4520   34.3460   40.2550 C   0  0  0  0  0  3  0  0  0  0  0  0
   41.6490   35.4160   40.0710 H   0  0  0  0  0  0  0  0  0  0  0  0
   42.7050   33.5200   40.3850 C   0  0  0  0  0  3  0  0  0  0  0  0
   42.6910   32.8470   41.2680 H   0  0  0  0  0  0  0  0  0  0  0  0
   42.7770   32.7310   39.1700 N   0  0  0  0  0  0  0  0  0  0  0  0
   43.5560   32.0660   38.9780 H   0  0  0  0  0  0  0  0  0  0  0  0
   37.6050   29.4020   41.4450 C   0  0  0  0  0  3  0  0  0  0  0  0
   37.6770   28.9710   42.6830 C   0  0  0  0  0  3  0  0  0  0  0  0
   36.8710   27.8030   43.1750 C   0  0  0  0  0  0  0  0  0  0  0  0
   35.9360   27.8290   42.5580 H   0  0  0  0  0  0  0  0  0  0  0  0
   36.6280   27.8790   44.2480 H   0  0  0  0  0  0  0  0  0  0  0  0
   37.5560   26.5280   42.8390 C   0  0  0  0  0  0  0  0  0  0  0  0
   36.8180   25.4960   42.2590 C   0  0  0  0  0  0  0  0  0  0  0  0
   37.4520   24.3040   41.9450 C   0  0  0  0  0  0  0  0  0  0  0  0
   38.8120   24.1090   42.1920 C   0  0  0  0  0  0  0  0  0  0  0  0
   39.5530   25.1310   42.7680 C   0  0  0  0  0  0  0  0  0  0  0  0
   38.9010   26.3080   43.0740 C   0  0  0  0  0  0  0  0  0  0  0  0
   35.7620   25.5650   42.0350 H   0  0  0  0  0  0  0  0  0  0  0  0
   36.9450   23.4680   41.4960 H   0  0  0  0  0  0  0  0  0  0  0  0
   39.3420   23.2020   41.9630 H   0  0  0  0  0  0  0  0  0  0  0  0
   40.5950   25.0100   42.9700 H   0  0  0  0  0  0  0  0  0  0  0  0
   39.4970   27.0810   43.5190 H   0  0  0  0  0  0  0  0  0  0  0  0
  1  7  1  0  0  0  0
  2  1  1  0  0  0  0
  2 18  1  0  0  0  0
  3  2  2  0  0  0  0
  4  5  2  0  0  0  0
  4  3  1  0  0  0  0
  5  6  1  0  0  0  0
  6  1  2  0  0  0  0
  8  3  1  0  0  0  0
  9 10  2  0  0  0  0
 10 16  1  0  0  0  0
 10 11  1  0  0  0  0
 11  5  1  1  0  0  0
 11 12  1  0  0  0  0
 12 14  1  0  0  0  0
 13 12  1  0  0  0  0
 14 15  1  0  0  0  0
 16 14  1  0  0  0  0
 17 16  1  0  0  0  0
 18 19  2  0  0  0  0
 19 20  1  0  0  0  0
 20 22  1  0  0  0  0
 21 20  1  0  0  0  0
 23 28  1  0  0  0  0
 23 20  1  0  0  0  0
 24 23  2  0  0  0  0
 25 26  2  0  0  0  0
 25 24  1  0  0  0  0
 26 27  1  0  0  0  0
 27 32  1  0  0  0  0
 27 28  2  0  0  0  0
 28 33  1  0  0  0  0
 29 24  1  0  0  0  0
 30 25  1  0  0  0  0
 31 26  1  0  0  0  0
M  END
>  <minimizedAffinity>
-5.07425499

$$$$
