
 OpenBabel03252508323D

 32 34  0  0  1  0  0  0  0  0999 V2000
   45.0040   34.1240   41.5170 N   0  0  0  0  0  0  0  0  0  0  0  0
   46.0030   33.4630   40.7560 C   0  0  1  0  0  0  0  0  0  0  0  0
   45.6910   33.3380   39.2960 C   0  0  0  0  0  0  0  0  0  0  0  0
   44.3540   33.1090   38.9540 N   0  0  0  0  0  0  0  0  0  0  0  0
   43.3900   33.8050   39.6990 C   0  0  0  0  0  0  0  0  0  0  0  0
   43.9820   34.7340   40.7130 C   0  0  0  0  0  0  0  0  0  0  0  0
   46.1280   32.4380   41.1640 H   0  0  0  0  0  0  0  0  0  0  0  0
   45.9530   34.3480   38.8590 H   0  0  0  0  0  0  0  0  0  0  0  0
   46.3500   32.5690   38.8440 H   0  0  0  0  0  0  0  0  0  0  0  0
   44.2230   32.9730   37.9530 H   0  0  0  0  0  0  0  0  0  0  0  0
   42.7030   33.0930   40.1890 H   0  0  0  0  0  0  0  0  0  0  0  0
   42.8210   34.4700   38.9850 H   0  0  0  0  0  0  0  0  0  0  0  0
   43.1780   35.2530   41.2570 H   0  0  0  0  0  0  0  0  0  0  0  0
   44.4740   35.5430   40.1100 H   0  0  0  0  0  0  0  0  0  0  0  0
   44.6770   35.3070   43.5520 C   0  0  0  0  0  0  0  0  0  0  0  0
   45.1020   34.1270   42.9170 C   0  0  0  0  0  0  0  0  0  0  0  0
   45.5920   33.0990   43.7030 C   0  0  0  0  0  0  0  0  0  0  0  0
   45.6640   33.2260   45.0580 N   0  0  0  0  0  0  0  0  0  0  0  0
   45.2440   34.3850   45.6550 C   0  0  0  0  0  0  0  0  0  0  0  0
   44.7630   35.3980   44.9120 N   0  0  0  0  0  0  0  0  0  0  0  0
   44.2710   36.2120   43.1300 H   0  0  0  0  0  0  0  0  0  0  0  0
   45.9080   32.1830   43.2270 H   0  0  0  0  0  0  0  0  0  0  0  0
   45.3000   34.4850   46.7290 H   0  0  0  0  0  0  0  0  0  0  0  0
   48.9360   32.1840   41.8830 O   0  0  0  0  0  0  0  0  0  0  0  0
   48.4190   33.2560   41.4330 C   0  0  0  0  0  0  0  0  0  0  0  0
   47.3620   34.1010   40.8340 C   0  0  2  0  0  3  0  0  0  0  0  0
   47.4010   35.2860   41.7710 C   0  0  0  0  0  3  0  0  0  0  0  0
   47.2510   35.0180   42.8190 H   0  0  0  0  0  0  0  0  0  0  0  0
   48.8940   35.6310   41.6430 C   0  0  0  0  0  3  0  0  0  0  0  0
   49.0970   36.2060   40.7300 H   0  0  0  0  0  0  0  0  0  0  0  0
   49.4490   34.2680   41.5810 N   0  0  0  0  0  0  0  0  0  0  0  0
   50.5110   34.3630   41.6640 H   0  0  0  0  0  0  0  0  0  0  0  0
  1 16  1  0  0  0  0
  2 26  1  0  0  0  0
  2  7  1  1  0  0  0
  2  1  1  0  0  0  0
  3  2  1  0  0  0  0
  4  3  1  0  0  0  0
  4  5  1  0  0  0  0
  5 11  1  0  0  0  0
  5  6  1  0  0  0  0
  6 13  1  0  0  0  0
  6  1  1  0  0  0  0
  8  3  1  0  0  0  0
  9  3  1  0  0  0  0
 10  4  1  0  0  0  0
 12  5  1  0  0  0  0
 14  6  1  0  0  0  0
 15 20  1  0  0  0  0
 16 15  2  0  0  0  0
 16 17  1  0  0  0  0
 17 18  2  0  0  0  0
 18 19  1  0  0  0  0
 19 23  1  0  0  0  0
 20 19  2  0  0  0  0
 21 15  1  0  0  0  0
 22 17  1  0  0  0  0
 25 31  1  0  0  0  0
 25 24  2  0  0  0  0
 26 25  1  1  0  0  0
 26 27  1  0  0  0  0
 27 28  1  0  0  0  0
 29 27  1  0  0  0  0
 30 29  1  0  0  0  0
 31 29  1  0  0  0  0
 31 32  1  0  0  0  0
M  END
>  <minimizedAffinity>
-4.71239233

>  <minimizedRMSD>
1.6819998

$$$$
