
 OpenBabel03242510383D

 31 33  0  0  1  0  0  0  0  0999 V2000
   47.5360   31.8430   44.7360 Cl  0  0  0  0  0  0  0  0  0  0  0  0
   46.7640   31.8630   46.3130 C   0  0  0  0  0  0  0  0  0  0  0  0
   45.8680   32.8670   46.5740 C   0  0  0  0  0  0  0  0  0  0  0  0
   45.2540   32.8870   47.7890 C   0  0  0  0  0  0  0  0  0  0  0  0
   45.5630   31.8870   48.7200 C   0  0  0  0  0  0  0  0  0  0  0  0
   46.4680   30.8870   48.4410 C   0  0  0  0  0  0  0  0  0  0  0  0
   47.0920   30.8690   47.1960 C   0  0  0  0  0  0  0  0  0  0  0  0
   44.5390   33.6460   48.0620 H   0  0  0  0  0  0  0  0  0  0  0  0
   45.0660   31.9200   49.6830 H   0  0  0  0  0  0  0  0  0  0  0  0
   46.6770   30.1290   49.1970 H   0  0  0  0  0  0  0  0  0  0  0  0
   49.7420   30.4020   48.4350 O   0  0  0  0  0  0  0  0  0  0  0  0
   48.9340   29.4900   48.1070 C   0  0  0  0  0  0  0  0  0  0  0  0
   48.0590   29.7710   46.9400 C   0  0  1  0  0  0  0  0  0  0  0  0
   47.3360   28.4400   46.7700 C   0  0  0  0  0  0  0  0  0  0  0  0
   47.2990   28.1390   45.7050 H   0  0  0  0  0  0  0  0  0  0  0  0
   48.0720   27.4340   47.6260 C   0  0  0  0  0  0  0  0  0  0  0  0
   48.8150   26.8750   46.9910 H   0  0  0  0  0  0  0  0  0  0  0  0
   48.7010   28.1980   48.6700 N   0  0  0  0  0  0  0  0  0  0  0  0
   48.9670   27.9540   49.6510 H   0  0  0  0  0  0  0  0  0  0  0  0
   44.5200   35.8190   44.9030 C   0  0  0  0  0  0  0  0  0  0  0  0
   45.1310   35.7960   43.6280 C   0  0  0  0  0  0  0  0  0  0  0  0
   46.0170   34.7250   43.3780 C   0  0  0  0  0  0  0  0  0  0  0  0
   46.2090   33.8160   44.3640 N   0  0  0  0  0  0  0  0  0  0  0  0
   45.5990   33.8830   45.5640 C   0  0  0  0  0  0  0  0  0  0  0  0
   44.7500   34.8940   45.8280 N   0  0  0  0  0  0  0  0  0  0  0  0
   43.8310   36.6270   45.1350 H   0  0  0  0  0  0  0  0  0  0  0  0
   44.9150   36.5610   42.9190 H   0  0  0  0  0  0  0  0  0  0  0  0
   46.6340   34.7310   42.0490 C   0  0  0  0  0  0  0  0  0  0  0  0
   47.3180   33.5400   41.8840 F   0  0  0  0  0  0  0  0  0  0  0  0
   47.5780   35.7270   42.0490 F   0  0  0  0  0  0  0  0  0  0  0  0
   45.7090   34.8290   41.0340 F   0  0  0  0  0  0  0  0  0  0  0  0
  1  2  1  0  0  0  0
  2  3  2  0  0  0  0
  2  7  1  0  0  0  0
  3  4  1  0  0  0  0
  4  8  1  0  0  0  0
  4  5  2  0  0  0  0
  5  9  1  0  0  0  0
  6  5  1  0  0  0  0
  6 10  1  0  0  0  0
  7  6  2  0  0  0  0
 12 11  2  0  0  0  0
 12 18  1  0  0  0  0
 13  7  1  1  0  0  0
 13 12  1  0  0  0  0
 14 13  1  0  0  0  0
 14 16  1  0  0  0  0
 15 14  1  0  0  0  0
 16 18  1  0  0  0  0
 17 16  1  0  0  0  0
 18 19  1  0  0  0  0
 20 26  1  0  0  0  0
 20 25  1  0  0  0  0
 21 20  2  0  0  0  0
 22 21  1  0  0  0  0
 22 23  2  0  0  0  0
 23 24  1  0  0  0  0
 24 25  2  0  0  0  0
 24  3  1  0  0  0  0
 27 21  1  0  0  0  0
 28 22  1  0  0  0  0
 29 28  1  0  0  0  0
 30 28  1  0  0  0  0
 31 28  1  0  0  0  0
M  END
>  <minimizedAffinity>
-6.37257099

>  <minimizedRMSD>
0.301823318

$$$$
