
 OpenBabel03242519573D

 28 30  0  0  1  0  0  0  0  0999 V2000
   44.5800   33.0900   41.2530 Br  0  0  0  0  0  0  0  0  0  0  0  0
   46.2520   33.9940   41.0520 C   0  0  0  0  0  0  0  0  0  0  0  0
   46.8270   34.7540   42.0630 C   0  0  0  0  0  0  0  0  0  0  0  0
   48.0290   35.3570   41.8060 C   0  0  0  0  0  0  0  0  0  0  0  0
   48.6880   35.2440   40.6000 C   0  0  0  0  0  0  0  0  0  0  0  0
   48.1240   34.4870   39.5800 C   0  0  0  0  0  0  0  0  0  0  0  0
   46.9120   33.8810   39.8440 C   0  0  0  0  0  0  0  0  0  0  0  0
   48.4700   35.9450   42.5920 H   0  0  0  0  0  0  0  0  0  0  0  0
   49.6360   35.7340   40.4300 H   0  0  0  0  0  0  0  0  0  0  0  0
   48.6560   34.4180   38.6600 H   0  0  0  0  0  0  0  0  0  0  0  0
   44.4870   35.9190   44.8010 C   0  0  0  0  0  0  0  0  0  0  0  0
   45.1800   35.8540   43.5900 C   0  0  0  0  0  0  0  0  0  0  0  0
   46.0890   34.8430   43.3250 C   0  0  0  0  0  0  0  0  0  0  0  0
   46.2570   33.9250   44.3210 N   0  0  0  0  0  0  0  0  0  0  0  0
   45.5830   33.9940   45.4890 C   0  0  0  0  0  0  0  0  0  0  0  0
   44.7160   34.9800   45.7130 N   0  0  0  0  0  0  0  0  0  0  0  0
   43.7780   36.7190   44.9920 H   0  0  0  0  0  0  0  0  0  0  0  0
   45.0110   36.6120   42.8240 H   0  0  0  0  0  0  0  0  0  0  0  0
   45.8560   33.1670   46.1590 H   0  0  0  0  0  0  0  0  0  0  0  0
   47.7960   34.1050   37.1610 O   0  0  0  0  0  0  0  0  0  0  0  0
   46.6290   33.6450   37.3960 C   0  0  0  0  0  0  0  0  0  0  0  0
   46.3200   33.0680   38.7310 C   0  0  2  0  0  0  0  0  0  0  0  0
   44.8240   33.0600   38.7420 C   0  0  0  0  0  0  0  0  0  0  0  0
   44.3780   32.2940   39.4170 H   0  0  0  0  0  0  0  0  0  0  0  0
   44.4860   32.7580   37.2970 C   0  0  0  0  0  0  0  0  0  0  0  0
   44.7360   31.6920   37.0540 H   0  0  0  0  0  0  0  0  0  0  0  0
   45.4640   33.5630   36.5820 N   0  0  0  0  0  0  0  0  0  0  0  0
   45.5010   34.0700   35.6520 H   0  0  0  0  0  0  0  0  0  0  0  0
  2  1  1  0  0  0  0
  2  3  1  0  0  0  0
  3 13  1  0  0  0  0
  4  3  2  0  0  0  0
  4  8  1  0  0  0  0
  5  4  1  0  0  0  0
  6  7  1  0  0  0  0
  6  5  2  0  0  0  0
  7  2  2  0  0  0  0
  9  5  1  0  0  0  0
 10  6  1  0  0  0  0
 11 17  1  0  0  0  0
 11 16  1  0  0  0  0
 12 11  2  0  0  0  0
 13 12  1  0  0  0  0
 13 14  2  0  0  0  0
 14 15  1  0  0  0  0
 15 16  2  0  0  0  0
 15 19  1  0  0  0  0
 18 12  1  0  0  0  0
 20 21  2  0  0  0  0
 21 22  1  0  0  0  0
 22 23  1  0  0  0  0
 22  7  1  1  0  0  0
 23 24  1  0  0  0  0
 25 23  1  0  0  0  0
 26 25  1  0  0  0  0
 27 25  1  0  0  0  0
 27 21  1  0  0  0  0
 28 27  1  0  0  0  0
M  END
>  <minimizedAffinity>
-6.22748089

>  <minimizedRMSD>
0.254596204

$$$$
