
     RDKit          3D

 49 53  0  0  0  0  0  0  0  0999 V2000
   47.3366   32.3051   47.9387 C   0  0  0  0  0  0  0  0  0  0  0  0
   46.8344   31.0334   48.0284 C   0  0  0  0  0  0  0  0  0  0  0  0
   45.9427   30.6753   47.0771 C   0  0  0  0  0  0  0  0  0  0  0  0
   45.5899   31.5195   46.1113 N   0  0  0  0  0  0  0  0  0  0  0  0
   46.0740   32.7593   45.9946 C   0  0  0  0  0  0  0  0  0  0  0  0
   46.9670   33.1206   46.9644 N   0  0  0  0  0  0  0  0  0  0  0  0
   45.3721   29.3993   47.0464 N   0  0  0  0  0  0  0  0  0  0  0  0
   44.2564   28.9682   46.2035 C   0  0  0  0  0  0  0  0  0  0  0  0
   44.2310   27.4558   46.3028 C   0  0  0  0  0  0  0  0  0  0  0  0
   44.8201   27.1991   47.6609 C   0  0  0  0  0  0  0  0  0  0  0  0
   45.8089   28.2820   47.8646 C   0  0  0  0  0  0  0  0  0  0  0  0
   45.8460   33.8222   45.0374 C   0  0  0  0  0  0  0  0  0  0  0  0
   44.9018   34.7688   45.2498 N   0  0  0  0  0  0  0  0  0  0  0  0
   44.6511   35.7982   44.4364 C   0  0  0  0  0  0  0  0  0  0  0  0
   45.3777   35.9327   43.3104 N   0  0  0  0  0  0  0  0  0  0  0  0
   46.3468   35.0406   43.0038 C   0  0  0  0  0  0  0  0  0  0  0  0
   47.0676   35.2116   41.8640 C   0  0  0  0  0  0  0  0  0  0  0  0
   48.0487   34.3320   41.5361 C   0  0  0  0  0  0  0  0  0  0  0  0
   48.2768   33.2708   42.3971 C   0  0  0  0  0  0  0  0  0  0  0  0
   47.5291   33.1262   43.5473 C   0  0  0  0  0  0  0  0  0  0  0  0
   46.5505   34.0036   43.8843 C   0  0  0  0  0  0  0  0  0  0  0  0
   47.3162   30.1637   49.0118 N   0  0  0  0  0  0  0  0  0  0  0  0
   48.0593   32.6231   48.7076 H   0  0  0  0  0  0  0  0  0  0  0  0
   44.3607   29.3411   45.1778 H   0  0  0  0  0  0  0  0  0  0  0  0
   43.2734   29.3093   46.6346 H   0  0  0  0  0  0  0  0  0  0  0  0
   43.2328   27.0491   46.1456 H   0  0  0  0  0  0  0  0  0  0  0  0
   44.9230   27.0913   45.4985 H   0  0  0  0  0  0  0  0  0  0  0  0
   45.3046   26.1821   47.6237 H   0  0  0  0  0  0  0  0  0  0  0  0
   44.0018   27.1258   48.3898 H   0  0  0  0  0  0  0  0  0  0  0  0
   45.6256   28.5686   48.9303 H   0  0  0  0  0  0  0  0  0  0  0  0
   46.8127   27.9311   47.6405 H   0  0  0  0  0  0  0  0  0  0  0  0
   43.8956   36.5243   44.6400 H   0  0  0  0  0  0  0  0  0  0  0  0
   46.8269   36.0648   41.2441 H   0  0  0  0  0  0  0  0  0  0  0  0
   48.5779   34.5246   40.6273 H   0  0  0  0  0  0  0  0  0  0  0  0
   49.0745   32.6483   41.9934 H   0  0  0  0  0  0  0  0  0  0  0  0
   46.7195   30.4813   49.8340 H   0  0  0  0  0  0  0  0  0  0  0  0
   48.0320   29.4071   49.0465 H   0  0  0  0  0  0  0  0  0  0  0  0
   50.4812   32.4114   44.2278 O   0  0  0  0  0  0  0  0  0  0  0  0
   49.4293   31.7061   44.2587 C   0  0  0  0  0  0  0  0  0  0  0  0
   47.8921   31.8855   44.2575 C   0  0  2  0  0  0  0  0  0  0  0  0
   47.7014   30.6732   43.3894 C   0  0  2  0  0  0  0  0  0  0  0  0
   48.2705   30.8639   42.4358 H   0  0  0  0  0  0  0  0  0  0  0  0
   48.4337   29.6161   44.1416 C   0  0  1  0  0  0  0  0  0  0  0  0
   48.0006   29.5072   45.1401 H   0  0  0  0  0  0  0  0  0  0  0  0
   49.7180   30.3152   44.3150 N   0  0  0  0  0  0  0  0  0  0  0  0
   47.9449   31.8036   45.2907 H   0  0  0  0  0  0  0  0  0  0  0  0
   46.6866   30.4623   43.0896 H   0  0  0  0  0  0  0  0  0  0  0  0
   48.5382   28.6654   43.5971 H   0  0  0  0  0  0  0  0  0  0  0  0
   50.5554   29.7196   44.4416 H   0  0  0  0  0  0  0  0  0  0  0  0
  1  2  2  0
  2 22  1  0
  3  2  1  0
  4  3  2  0
  5  4  1  0
  5  6  2  0
  6  1  1  0
  7  3  1  0
  7 11  1  0
  8  9  1  0
  8  7  1  0
  9 10  1  0
 11 10  1  0
 12 13  2  0
 12  5  1  0
 14 13  1  0
 15 14  2  0
 16 15  1  0
 16 21  2  0
 17 16  1  0
 18 17  2  0
 18 19  1  0
 19 20  2  0
 20 21  1  0
 21 12  1  0
  1 23  1  0
  8 24  1  0
  8 25  1  0
  9 26  1  0
  9 27  1  0
 10 28  1  0
 10 29  1  0
 11 30  1  0
 11 31  1  0
 14 32  1  0
 17 33  1  0
 18 34  1  0
 19 35  1  0
 22 36  1  0
 22 37  1  0
 38 39  2  0
 39 40  1  0
 40 41  1  0
 41 42  1  6
 41 43  1  0
 43 44  1  1
 43 45  1  0
 45 39  1  0
 40 46  1  1
 41 47  1  0
 43 48  1  0
 45 49  1  0
 20 40  1  0
M  ISO  8  23  14  24  13  25  13  26  13  27  13  28  13  29  13  30  13
M  ISO  7  31  13  32  14  33  14  34  14  35  14  42   8  44   8
M  END
>  <DihAtoms>  (1) 
18,19,39,38

>  <DihDeg>  (1) 
27.47578931648877

$$$$
