
 OpenBabel03242514103D

 46 49  0  0  1  0  0  0  0  0999 V2000
   47.4620   33.6520   42.6160 C   0  0  0  0  0  0  0  0  0  0  0  0
   48.2700   34.7860   42.5500 C   0  0  0  0  0  0  0  0  0  0  0  0
   48.6630   35.3900   41.3600 C   0  0  0  0  0  0  0  0  0  0  0  0
   48.1720   34.7540   40.2090 C   0  0  0  0  0  0  0  0  0  0  0  0
   47.3580   33.6110   40.2840 C   0  0  0  0  0  0  0  0  0  0  0  0
   47.0220   33.0860   41.4760 N   0  0  0  0  0  0  0  0  0  0  0  0
   48.5950   35.2000   43.4950 H   0  0  0  0  0  0  0  0  0  0  0  0
   49.2820   36.2560   41.3510 H   0  0  0  0  0  0  0  0  0  0  0  0
   48.5060   35.2590   39.3150 H   0  0  0  0  0  0  0  0  0  0  0  0
   46.8680   33.0150   39.0470 C   0  0  1  0  0  0  0  0  0  0  0  0
   45.3250   33.3240   38.8590 C   0  0  0  0  0  0  0  0  0  0  0  0
   44.9160   32.2720   37.7950 C   0  0  0  0  0  0  0  0  0  0  0  0
   45.5130   32.8270   36.4970 C   0  0  0  0  0  0  0  0  0  0  0  0
   46.9940   32.8510   36.5670 C   0  0  0  0  0  0  0  0  0  0  0  0
   47.6040   33.2800   37.8490 C   0  0  2  0  0  0  0  0  0  0  0  0
   46.8020   31.9050   39.2540 H   0  0  0  0  0  0  0  0  0  0  0  0
   44.7940   33.0940   39.7830 H   0  0  0  0  0  0  0  0  0  0  0  0
   45.2080   34.3500   38.4740 H   0  0  0  0  0  0  0  0  0  0  0  0
   43.8300   32.2530   37.6760 H   0  0  0  0  0  0  0  0  0  0  0  0
   45.3730   31.3160   38.0600 H   0  0  0  0  0  0  0  0  0  0  0  0
   45.0430   33.8050   36.3200 H   0  0  0  0  0  0  0  0  0  0  0  0
   45.1750   32.1410   35.6970 H   0  0  0  0  0  0  0  0  0  0  0  0
   47.3700   33.4720   35.7250 H   0  0  0  0  0  0  0  0  0  0  0  0
   47.3300   31.8110   36.2830 H   0  0  0  0  0  0  0  0  0  0  0  0
   47.7770   34.3960   37.7390 H   0  0  0  0  0  0  0  0  0  0  0  0
   49.1790   32.3730   37.9860 S   0  0  0  0  0  0  0  0  0  0  0  0
   49.0820   31.2970   38.8850 H   0  0  0  0  0  0  0  0  0  0  0  0
   47.1820   31.5160   45.5580 C   0  0  0  0  0  0  0  0  0  0  0  0
   46.2990   32.1970   46.3900 C   0  0  0  0  0  0  0  0  0  0  0  0
   45.8150   33.3910   45.9120 C   0  0  0  0  0  0  0  0  0  0  0  0
   46.2170   33.8270   44.6820 N   0  0  0  0  0  0  0  0  0  0  0  0
   47.0980   33.1010   43.9030 C   0  0  0  0  0  0  0  0  0  0  0  0
   47.5570   31.9830   44.3410 N   0  0  0  0  0  0  0  0  0  0  0  0
   44.9240   34.2180   46.5970 N   0  0  0  0  0  0  0  0  0  0  0  0
   47.5790   30.5720   45.9090 H   0  0  0  0  0  0  0  0  0  0  0  0
   45.6460   34.8040   47.1000 H   0  0  0  0  0  0  0  0  0  0  0  0
   43.8880   34.3090   46.6600 H   0  0  0  0  0  0  0  0  0  0  0  0
   47.8940   31.9190   48.8460 O   0  0  0  0  0  0  0  0  0  0  0  0
   47.0020   31.1190   48.4480 C   0  0  0  0  0  0  0  0  0  0  0  0
   45.8730   31.7050   47.7240 C   0  0  2  0  0  0  0  0  0  0  0  0
   44.8360   30.6120   47.5880 C   0  0  0  0  0  0  0  0  0  0  0  0
   43.9800   30.8360   48.2660 H   0  0  0  0  0  0  0  0  0  0  0  0
   45.5020   29.3410   48.0600 C   0  0  0  0  0  0  0  0  0  0  0  0
   44.9440   28.8200   48.8490 H   0  0  0  0  0  0  0  0  0  0  0  0
   46.8070   29.7170   48.5290 N   0  0  0  0  0  0  0  0  0  0  0  0
   47.5400   29.1020   48.8850 H   0  0  0  0  0  0  0  0  0  0  0  0
  1 32  1  0  0  0  0
  2  1  1  0  0  0  0
  2  7  1  0  0  0  0
  3  2  2  0  0  0  0
  4  5  2  0  0  0  0
  4  3  1  0  0  0  0
  5  6  1  0  0  0  0
  6  1  2  0  0  0  0
  8  3  1  0  0  0  0
  9  4  1  0  0  0  0
 10 16  1  1  0  0  0
 10  5  1  0  0  0  0
 11 10  1  0  0  0  0
 11 17  1  0  0  0  0
 12 20  1  0  0  0  0
 12 11  1  0  0  0  0
 13 14  1  0  0  0  0
 13 12  1  0  0  0  0
 14 15  1  0  0  0  0
 15 25  1  6  0  0  0
 15 26  1  0  0  0  0
 15 10  1  0  0  0  0
 18 11  1  0  0  0  0
 19 12  1  0  0  0  0
 21 13  1  0  0  0  0
 22 13  1  0  0  0  0
 23 14  1  0  0  0  0
 24 14  1  0  0  0  0
 26 27  1  0  0  0  0
 28 35  1  0  0  0  0
 28 29  1  0  0  0  0
 30 29  2  0  0  0  0
 30 34  1  0  0  0  0
 31 30  1  0  0  0  0
 32 33  1  0  0  0  0
 32 31  2  0  0  0  0
 33 28  2  0  0  0  0
 34 37  1  0  0  0  0
 34 36  1  0  0  0  0
 39 45  1  0  0  0  0
 39 38  2  0  0  0  0
 40 29  1  6  0  0  0
 40 39  1  0  0  0  0
 41 40  1  0  0  0  0
 41 43  1  0  0  0  0
 41 42  1  0  0  0  0
 43 45  1  0  0  0  0
 43 44  1  0  0  0  0
 45 46  1  0  0  0  0
M  END
>  <minimizedAffinity>
-6.6736722

>  <minimizedRMSD>
1.33747244

$$$$
