
     RDKit          3D

 35 37  0  0  0  0  0  0  0  0999 V2000
   44.7054   35.1705   44.1894 C   0  0  0  0  0  0  0  0  0  0  0  0
   44.7432   34.1035   43.2739 C   0  0  0  0  0  0  0  0  0  0  0  0
   45.2290   32.8832   43.7089 C   0  0  0  0  0  0  0  0  0  0  0  0
   45.6625   32.7179   44.9914 N   0  0  0  0  0  0  0  0  0  0  0  0
   45.6168   33.7720   45.8645 C   0  0  0  0  0  0  0  0  0  0  0  0
   45.1471   34.9682   45.4654 N   0  0  0  0  0  0  0  0  0  0  0  0
   44.2940   34.4004   41.9785 N   0  0  0  0  0  0  0  0  0  0  0  0
   44.5483   33.4768   40.9296 C   0  0  1  0  0  0  0  0  0  0  0  0
   43.8468   33.7886   39.6436 C   0  0  0  0  0  0  0  0  0  0  0  0
   42.5577   34.3246   39.7408 N   0  0  0  0  0  0  0  0  0  0  0  0
   42.3455   35.2625   40.7629 C   0  0  0  0  0  0  0  0  0  0  0  0
   43.5826   35.5719   41.5491 C   0  0  0  0  0  0  0  0  0  0  0  0
   44.3690   36.1847   44.0525 H   0  0  0  0  0  0  0  0  0  0  0  0
   45.2489   32.0529   43.0186 H   0  0  0  0  0  0  0  0  0  0  0  0
   45.9604   33.6411   46.8804 H   0  0  0  0  0  0  0  0  0  0  0  0
   44.2125   32.4729   41.2638 H   0  0  0  0  0  0  0  0  0  0  0  0
   44.4792   34.5915   39.1587 H   0  0  0  0  0  0  0  0  0  0  0  0
   43.8509   32.8893   38.9957 H   0  0  0  0  0  0  0  0  0  0  0  0
   42.1170   34.4553   38.8319 H   0  0  0  0  0  0  0  0  0  0  0  0
   41.5438   34.9149   41.4374 H   0  0  0  0  0  0  0  0  0  0  0  0
   42.0528   36.2386   40.2759 H   0  0  0  0  0  0  0  0  0  0  0  0
   43.3540   36.3158   42.3266 H   0  0  0  0  0  0  0  0  0  0  0  0
   44.2500   36.1202   40.8307 H   0  0  0  0  0  0  0  0  0  0  0  0
   46.0881   31.1107   39.0503 O   0  0  0  0  0  0  0  0  0  0  0  0
   46.3323   32.1320   39.7699 C   0  0  0  0  0  0  0  0  0  0  0  0
   46.0023   33.3249   40.5806 C   0  0  2  0  0  0  0  0  0  0  0  0
   46.8738   33.0778   41.7901 C   0  0  2  0  0  0  0  0  0  0  0  0
   46.6882   32.1149   42.2716 H   0  0  0  0  0  0  0  0  0  0  0  0
   48.2248   32.9255   41.0712 C   0  0  1  0  0  0  0  0  0  0  0  0
   48.6594   33.9010   40.8200 H   0  0  0  0  0  0  0  0  0  0  0  0
   47.7780   32.1869   39.8778 N   0  0  0  0  0  0  0  0  0  0  0  0
   46.4632   34.1825   40.0670 H   0  0  0  0  0  0  0  0  0  0  0  0
   46.8986   33.9368   42.4929 H   0  0  0  0  0  0  0  0  0  0  0  0
   48.8596   32.3392   41.7320 H   0  0  0  0  0  0  0  0  0  0  0  0
   48.6598   31.8624   39.3665 H   0  0  0  0  0  0  0  0  0  0  0  0
  1  6  2  0
  2  3  2  0
  2  1  1  0
  3  4  1  0
  4  5  2  0
  6  5  1  0
  7  2  1  0
  8  7  1  0
  9 10  1  0
  9  8  1  0
 10 11  1  0
 11 12  1  0
 12  7  1  0
  1 13  1  0
  3 14  1  0
  5 15  1  0
  8 16  1  1
  9 17  1  0
  9 18  1  0
 10 19  1  0
 11 20  1  0
 11 21  1  0
 12 22  1  0
 12 23  1  0
 24 25  2  0
 25 26  1  0
 26 27  1  0
 27 28  1  1
 27 29  1  0
 29 30  1  6
 29 31  1  0
 31 25  1  0
 26 32  1  6
 27 33  1  0
 29 34  1  0
 31 35  1  0
  8 26  1  0
M  ISO  8  13  14  14  14  15  14  16  13  17  13  18  13  19   5  20  13
M  ISO  5  21  13  22  13  23  13  28   8  30   8
M  END
>  <DihAtoms>  (1) 
6,7,25,24

>  <DihDeg>  (1) 
-60.79263914721102

$$$$
