
 OpenBabel03242518253D

 45 49  0  0  1  0  0  0  0  0999 V2000
   43.3030   34.3590   41.3070 C   0  0  0  0  0  0  0  0  0  0  0  0
   42.2170   33.5810   40.9170 C   0  0  0  0  0  0  0  0  0  0  0  0
   42.1680   32.2600   41.3810 C   0  0  0  0  0  0  0  0  0  0  0  0
   43.1570   31.7970   42.1730 N   0  0  0  0  0  0  0  0  0  0  0  0
   44.2010   32.5840   42.5330 C   0  0  0  0  0  0  0  0  0  0  0  0
   44.2760   33.8590   42.1040 N   0  0  0  0  0  0  0  0  0  0  0  0
   43.4730   35.3980   41.0260 H   0  0  0  0  0  0  0  0  0  0  0  0
   41.3250   31.6850   41.0670 H   0  0  0  0  0  0  0  0  0  0  0  0
   41.2600   34.2050   40.0850 N   0  0  0  0  0  0  0  0  0  0  0  0
   41.4900   34.1620   38.6650 C   0  0  0  0  0  0  0  0  0  0  0  0
   40.5060   34.9470   37.8780 C   0  0  0  0  0  0  0  0  0  0  0  0
   39.1600   34.6290   38.2520 N   0  0  0  0  0  0  0  0  0  0  0  0
   38.8930   34.4310   39.6170 C   0  0  0  0  0  0  0  0  0  0  0  0
   40.0750   34.8840   40.4760 C   0  0  0  0  0  0  0  0  0  0  0  0
   42.5300   34.4440   38.4300 H   0  0  0  0  0  0  0  0  0  0  0  0
   41.3990   33.0840   38.3580 H   0  0  0  0  0  0  0  0  0  0  0  0
   40.6660   36.0380   38.1020 H   0  0  0  0  0  0  0  0  0  0  0  0
   40.6550   34.7510   36.8110 H   0  0  0  0  0  0  0  0  0  0  0  0
   38.4530   35.1650   37.7170 H   0  0  0  0  0  0  0  0  0  0  0  0
   38.6200   33.4150   39.9040 H   0  0  0  0  0  0  0  0  0  0  0  0
   38.0470   35.1130   39.9180 H   0  0  0  0  0  0  0  0  0  0  0  0
   40.1330   35.9860   40.4440 H   0  0  0  0  0  0  0  0  0  0  0  0
   39.8070   34.5770   41.5290 H   0  0  0  0  0  0  0  0  0  0  0  0
   45.9440   30.9140   43.0310 C   0  0  0  0  0  0  0  0  0  0  0  0
   45.2470   32.0140   43.4010 C   0  0  0  0  0  0  0  0  0  0  0  0
   45.5320   32.6000   44.6190 C   0  0  0  0  0  0  0  0  0  0  0  0
   46.5170   32.0600   45.4310 C   0  0  0  0  0  0  0  0  0  0  0  0
   47.2250   30.9270   45.0330 C   0  0  0  0  0  0  0  0  0  0  0  0
   46.9310   30.3420   43.8080 C   0  0  0  0  0  0  0  0  0  0  0  0
   48.1390   30.6240   46.0510 O   0  0  0  0  0  0  0  0  0  0  0  0
   47.7970   31.3960   47.1930 C   0  0  1  0  0  0  0  0  0  0  0  0
   47.0070   32.4300   46.6800 O   0  0  0  0  0  0  0  0  0  0  0  0
   45.7320   30.4400   42.0780 H   0  0  0  0  0  0  0  0  0  0  0  0
   45.0190   33.4740   44.9750 H   0  0  0  0  0  0  0  0  0  0  0  0
   47.4660   29.4590   43.4710 H   0  0  0  0  0  0  0  0  0  0  0  0
   48.7070   31.8080   47.6430 H   0  0  0  0  0  0  0  0  0  0  0  0
   45.8780   32.5800   49.2670 O   0  0  0  0  0  0  0  0  0  0  0  0
   45.9460   31.3810   48.8430 C   0  0  0  0  0  0  0  0  0  0  0  0
   47.0130   30.5770   48.1970 C   0  0  1  0  0  0  0  0  0  0  0  0
   46.2130   29.5560   47.4230 C   0  0  0  0  0  0  0  0  0  0  0  0
   46.8310   28.6720   47.2100 H   0  0  0  0  0  0  0  0  0  0  0  0
   45.0620   29.2350   48.3570 C   0  0  0  0  0  0  0  0  0  0  0  0
   44.1490   28.9180   47.8170 H   0  0  0  0  0  0  0  0  0  0  0  0
   44.7960   30.5290   48.9660 N   0  0  0  0  0  0  0  0  0  0  0  0
   43.8640   30.7490   49.4210 H   0  0  0  0  0  0  0  0  0  0  0  0
  1  6  1  0  0  0  0
  2  1  2  0  0  0  0
  2  3  1  0  0  0  0
  3  4  2  0  0  0  0
  4  5  1  0  0  0  0
  5 25  1  0  0  0  0
  6  5  2  0  0  0  0
  7  1  1  0  0  0  0
  8  3  1  0  0  0  0
  9 14  1  0  0  0  0
  9  2  1  0  0  0  0
 10  9  1  0  0  0  0
 11 17  1  0  0  0  0
 11 12  1  0  0  0  0
 11 10  1  0  0  0  0
 12 13  1  0  0  0  0
 13 20  1  0  0  0  0
 13 21  1  0  0  0  0
 13 14  1  0  0  0  0
 14 23  1  0  0  0  0
 15 10  1  0  0  0  0
 16 10  1  0  0  0  0
 18 11  1  0  0  0  0
 19 12  1  0  0  0  0
 22 14  1  0  0  0  0
 24 25  2  0  0  0  0
 24 29  1  0  0  0  0
 25 26  1  0  0  0  0
 26 34  1  0  0  0  0
 26 27  2  0  0  0  0
 27 32  1  0  0  0  0
 28 27  1  0  0  0  0
 28 30  1  0  0  0  0
 29 28  2  0  0  0  0
 30 31  1  0  0  0  0
 31 36  1  1  0  0  0
 31 39  1  0  0  0  0
 32 31  1  0  0  0  0
 33 24  1  0  0  0  0
 35 29  1  0  0  0  0
 38 44  1  0  0  0  0
 38 37  2  0  0  0  0
 39 40  1  6  0  0  0
 39 38  1  0  0  0  0
 40 42  1  0  0  0  0
 41 40  1  0  0  0  0
 42 44  1  0  0  0  0
 43 42  1  0  0  0  0
 44 45  1  0  0  0  0
M  END
>  <minimizedAffinity>
-5.55770493

>  <minimizedRMSD>
1.51334417

$$$$
