
 OpenBabel03252505533D

 33 35  0  0  1  0  0  0  0  0999 V2000
   47.2530   30.5300   47.5960 C   0  0  0  0  0  0  0  0  0  0  0  0
   47.9760   29.8020   46.6700 C   0  0  0  0  0  0  0  0  0  0  0  0
   49.1980   29.3100   47.0090 C   0  0  0  0  0  0  0  0  0  0  0  0
   49.7200   29.5060   48.2090 N   0  0  0  0  0  0  0  0  0  0  0  0
   49.0220   30.2140   49.1200 C   0  0  0  0  0  0  0  0  0  0  0  0
   47.8000   30.7280   48.8330 N   0  0  0  0  0  0  0  0  0  0  0  0
   47.4660   29.7040   45.7380 H   0  0  0  0  0  0  0  0  0  0  0  0
   49.6910   28.7540   46.2230 H   0  0  0  0  0  0  0  0  0  0  0  0
   50.7510   32.6640   49.9320 O   0  0  0  0  0  0  0  0  0  0  0  0
   50.6150   31.5390   50.4770 C   0  0  0  0  0  0  0  0  0  0  0  0
   49.6160   30.4380   50.4880 C   0  0  2  0  0  3  0  0  0  0  0  0
   50.5010   29.2560   50.8750 C   0  0  0  0  0  3  0  0  0  0  0  0
   49.9120   28.3840   51.2140 H   0  0  0  0  0  0  0  0  0  0  0  0
   51.2670   29.9180   52.0170 C   0  0  0  0  0  3  0  0  0  0  0  0
   50.5400   30.2630   52.7980 H   0  0  0  0  0  0  0  0  0  0  0  0
   51.6940   31.1400   51.3470 N   0  0  0  0  0  0  0  0  0  0  0  0
   52.6450   31.5480   51.5550 H   0  0  0  0  0  0  0  0  0  0  0  0
   45.9440   31.1610   47.4980 C   0  0  0  0  0  0  0  0  0  0  0  0
   45.3330   30.7450   46.6830 H   0  0  0  0  0  0  0  0  0  0  0  0
   45.3820   30.9480   48.4450 H   0  0  0  0  0  0  0  0  0  0  0  0
   46.1250   32.5530   47.4560 O   0  0  0  0  0  0  0  0  0  0  0  0
   44.9220   34.9260   45.0940 C   0  0  0  0  0  0  0  0  0  0  0  0
   45.7040   34.7060   43.9630 C   0  0  0  0  0  0  0  0  0  0  0  0
   46.6750   33.6970   44.0430 C   0  0  0  0  0  0  0  0  0  0  0  0
   46.8020   33.0010   45.1900 N   0  0  0  0  0  0  0  0  0  0  0  0
   46.0190   33.2550   46.2550 C   0  0  0  0  0  0  0  0  0  0  0  0
   45.0840   34.2080   46.2140 N   0  0  0  0  0  0  0  0  0  0  0  0
   44.1470   35.6940   45.1070 H   0  0  0  0  0  0  0  0  0  0  0  0
   47.2830   33.5240   43.1660 H   0  0  0  0  0  0  0  0  0  0  0  0
   45.4730   35.5410   42.7430 C   0  0  0  0  0  0  0  0  0  0  0  0
   45.3300   36.8340   43.2270 F   0  0  0  0  0  0  0  0  0  0  0  0
   44.2500   35.1140   42.2100 F   0  0  0  0  0  0  0  0  0  0  0  0
   46.5100   35.3860   41.8830 F   0  0  0  0  0  0  0  0  0  0  0  0
  1  6  1  0  0  0  0
  2  3  1  0  0  0  0
  2  1  2  0  0  0  0
  3  4  2  0  0  0  0
  4  5  1  0  0  0  0
  6  5  2  0  0  0  0
  7  2  1  0  0  0  0
  8  3  1  0  0  0  0
  9 10  2  0  0  0  0
 10 11  1  0  0  0  0
 10 16  1  0  0  0  0
 11  5  1  6  0  0  0
 11 12  1  0  0  0  0
 12 13  1  0  0  0  0
 12 14  1  0  0  0  0
 14 15  1  0  0  0  0
 16 17  1  0  0  0  0
 16 14  1  0  0  0  0
 18  1  1  0  0  0  0
 18 20  1  0  0  0  0
 19 18  1  0  0  0  0
 21 18  1  0  0  0  0
 22 28  1  0  0  0  0
 22 27  1  0  0  0  0
 23 24  1  0  0  0  0
 23 22  2  0  0  0  0
 24 25  2  0  0  0  0
 25 26  1  0  0  0  0
 26 21  1  0  0  0  0
 27 26  2  0  0  0  0
 29 24  1  0  0  0  0
 30 31  1  0  0  0  0
 30 23  1  0  0  0  0
 32 30  1  0  0  0  0
 33 30  1  0  0  0  0
M  END
>  <minimizedAffinity>
-5.68661642

>  <minimizedRMSD>
0.915347397

$$$$
