REMARK  Name = 
REMARK  2 active torsions:
REMARK  status: ('A' for Active; 'I' for Inactive)
REMARK    1  A    between atoms: CA_1  and  C_7
REMARK    2  A    between atoms: C_5  and  C_14
REMARK                            x       y       z     vdW  Elec       q    Type
REMARK                         _______ _______ _______ _____ _____    ______ ____
ROOT
ATOM      1  CA  UNL     1      46.220  34.836  43.190  0.00  0.00    +0.000 A 
ATOM      2  C   UNL     1      45.320  35.912  43.280  0.00  0.00    +0.000 A 
ATOM      3  C   UNL     1      44.564  36.008  44.449  0.00  0.00    +0.000 A 
ATOM      4  N   UNL     1      44.737  35.063  45.424  0.00  0.00    +0.000 NA
ATOM      5  C   UNL     1      45.616  34.052  45.281  0.00  0.00    +0.000 A 
ATOM      6  N   UNL     1      46.352  33.940  44.171  0.00  0.00    +0.000 NA
ATOM      7  H   UNL     1      45.163  36.664  42.537  0.00  0.00    +0.000 HD
ATOM      8  H   UNL     1      43.852  36.800  44.602  0.00  0.00    +0.000 HD
ENDROOT
BRANCH   5  11
ATOM      9  O   UNL     1      43.329  33.721  47.247  0.00  0.00    +0.000 OA
ATOM     10  C   UNL     1      44.395  33.030  47.160  0.00  0.00    +0.000 C 
ATOM     11  C   UNL     1      45.684  33.111  46.433  0.00  0.00    +0.000 C 
ATOM     12  C   UNL     1      45.931  31.693  46.048  0.00  0.00    +0.000 C 
ATOM     13  H   UNL     1      47.033  31.564  45.908  0.00  0.00    +0.000 HD
ATOM     14  C   UNL     1      45.433  30.924  47.250  0.00  0.00    +0.000 C 
ATOM     15  H   UNL     1      44.941  29.978  46.941  0.00  0.00    +0.000 HD
ATOM     16  N   UNL     1      44.514  31.828  47.912  0.00  0.00    +0.000 N 
ATOM     17  H   UNL     1      44.081  31.482  48.820  0.00  0.00    +0.000 HD
ENDBRANCH   5  11
BRANCH   1  18
ATOM     18  C   UNL     1      46.961  34.798  41.971  0.00  0.00    +0.000 C 
ATOM     19  O   UNL     1      48.057  35.394  41.727  0.00  0.00    +0.000 OA
ATOM     20  H   UNL     1      46.792  34.295  41.026  0.00  0.00    +0.000 HD
ENDBRANCH   1  18
TORSDOF 2
