
 OpenBabel03252503053D

 20 21  0  0  1  0  0  0  0  0999 V2000
   45.5710   35.7940   43.2110 C   0  0  0  0  0  0  0  0  0  0  0  0
   46.2290   34.5570   43.3770 C   0  0  0  0  0  0  0  0  0  0  0  0
   45.9730   33.8520   44.5560 C   0  0  0  0  0  0  0  0  0  0  0  0
   45.1280   34.3750   45.4670 N   0  0  0  0  0  0  0  0  0  0  0  0
   44.5120   35.5710   45.2730 C   0  0  0  0  0  0  0  0  0  0  0  0
   44.7390   36.2720   44.1440 N   0  0  0  0  0  0  0  0  0  0  0  0
   45.7640   36.3470   42.2960 H   0  0  0  0  0  0  0  0  0  0  0  0
   43.8360   35.9700   46.0220 H   0  0  0  0  0  0  0  0  0  0  0  0
   47.1370   32.8310   47.2630 O   0  0  0  0  0  0  0  0  0  0  0  0
   46.9880   32.2630   46.1600 C   0  0  0  0  0  0  0  0  0  0  0  0
   46.6560   32.5530   44.7420 C   0  0  1  0  0  3  0  0  0  0  0  0
   45.7810   31.3760   44.3650 C   0  0  0  0  0  3  0  0  0  0  0  0
   45.7740   31.2750   43.2540 H   0  0  0  0  0  0  0  0  0  0  0  0
   46.4610   30.2280   45.0470 C   0  0  0  0  0  3  0  0  0  0  0  0
   45.6800   29.5160   45.3980 H   0  0  0  0  0  0  0  0  0  0  0  0
   47.1800   30.8360   46.1330 N   0  0  0  0  0  0  0  0  0  0  0  0
   47.7090   30.1060   46.6980 H   0  0  0  0  0  0  0  0  0  0  0  0
   47.1130   34.0530   42.3770 C   0  0  0  0  0  0  0  0  0  0  0  0
   47.5270   34.8580   41.5070 O   0  0  0  0  0  0  0  0  0  0  0  0
   47.5370   33.0660   42.1860 H   0  0  0  0  0  0  0  0  0  0  0  0
  1  2  2  0  0  0  0
  1  6  1  0  0  0  0
  2  3  1  0  0  0  0
  3  4  2  0  0  0  0
  5  4  1  0  0  0  0
  5  8  1  0  0  0  0
  6  5  2  0  0  0  0
  7  1  1  0  0  0  0
 10  9  2  0  0  0  0
 11  3  1  1  0  0  0
 11 10  1  0  0  0  0
 12 11  1  0  0  0  0
 12 14  1  0  0  0  0
 13 12  1  0  0  0  0
 14 15  1  0  0  0  0
 14 16  1  0  0  0  0
 16 10  1  0  0  0  0
 16 17  1  0  0  0  0
 18  2  1  0  0  0  0
 19 18  2  0  0  0  0
 20 18  1  0  0  0  0
M  END
>  <minimizedAffinity>
-3.94003844

>  <minimizedRMSD>
1.07870638

$$$$
