
 OpenBabel03252505533D

 33 35  0  0  1  0  0  0  0  0999 V2000
   47.2300   30.4720   47.5210 C   0  0  0  0  0  0  0  0  0  0  0  0
   47.9760   29.7570   46.6030 C   0  0  0  0  0  0  0  0  0  0  0  0
   49.2040   29.2890   46.9540 C   0  0  0  0  0  0  0  0  0  0  0  0
   49.7110   29.4980   48.1580 N   0  0  0  0  0  0  0  0  0  0  0  0
   48.9910   30.1940   49.0610 C   0  0  0  0  0  0  0  0  0  0  0  0
   47.7610   30.6830   48.7630 N   0  0  0  0  0  0  0  0  0  0  0  0
   47.4760   29.6460   45.6670 H   0  0  0  0  0  0  0  0  0  0  0  0
   49.7150   28.7410   46.1740 H   0  0  0  0  0  0  0  0  0  0  0  0
   50.6800   32.6710   49.8790 O   0  0  0  0  0  0  0  0  0  0  0  0
   50.5530   31.5460   50.4280 C   0  0  0  0  0  0  0  0  0  0  0  0
   49.5690   30.4330   50.4350 C   0  0  2  0  0  3  0  0  0  0  0  0
   50.4640   29.2640   50.8360 C   0  0  0  0  0  3  0  0  0  0  0  0
   49.8840   28.3860   51.1750 H   0  0  0  0  0  0  0  0  0  0  0  0
   51.2100   29.9420   51.9830 C   0  0  0  0  0  3  0  0  0  0  0  0
   50.4710   30.2820   52.7540 H   0  0  0  0  0  0  0  0  0  0  0  0
   51.6280   31.1660   51.3110 N   0  0  0  0  0  0  0  0  0  0  0  0
   52.5710   31.5880   51.5270 H   0  0  0  0  0  0  0  0  0  0  0  0
   45.9100   31.0770   47.4090 C   0  0  0  0  0  0  0  0  0  0  0  0
   45.3310   30.6800   46.5620 H   0  0  0  0  0  0  0  0  0  0  0  0
   45.3280   30.8160   48.3320 H   0  0  0  0  0  0  0  0  0  0  0  0
   46.0590   32.4740   47.4250 O   0  0  0  0  0  0  0  0  0  0  0  0
   44.9620   34.9350   45.1040 C   0  0  0  0  0  0  0  0  0  0  0  0
   45.7790   34.7440   43.9930 C   0  0  0  0  0  0  0  0  0  0  0  0
   46.7360   33.7220   44.0720 C   0  0  0  0  0  0  0  0  0  0  0  0
   46.8180   32.9870   45.1990 N   0  0  0  0  0  0  0  0  0  0  0  0
   46.0010   33.2150   46.2460 C   0  0  0  0  0  0  0  0  0  0  0  0
   45.0780   34.1800   46.2050 N   0  0  0  0  0  0  0  0  0  0  0  0
   44.1940   35.7120   45.1170 H   0  0  0  0  0  0  0  0  0  0  0  0
   47.3720   33.5710   43.2110 H   0  0  0  0  0  0  0  0  0  0  0  0
   45.5980   35.6210   42.7950 C   0  0  0  0  0  0  0  0  0  0  0  0
   45.2260   36.8520   43.3160 F   0  0  0  0  0  0  0  0  0  0  0  0
   44.5190   35.0820   42.0820 F   0  0  0  0  0  0  0  0  0  0  0  0
   46.7470   35.6510   42.0760 F   0  0  0  0  0  0  0  0  0  0  0  0
  1  6  1  0  0  0  0
  2  3  1  0  0  0  0
  2  1  2  0  0  0  0
  3  4  2  0  0  0  0
  4  5  1  0  0  0  0
  6  5  2  0  0  0  0
  7  2  1  0  0  0  0
  8  3  1  0  0  0  0
  9 10  2  0  0  0  0
 10 11  1  0  0  0  0
 10 16  1  0  0  0  0
 11  5  1  6  0  0  0
 11 12  1  0  0  0  0
 12 13  1  0  0  0  0
 12 14  1  0  0  0  0
 14 15  1  0  0  0  0
 16 17  1  0  0  0  0
 16 14  1  0  0  0  0
 18 21  1  0  0  0  0
 18  1  1  0  0  0  0
 18 20  1  0  0  0  0
 19 18  1  0  0  0  0
 22 28  1  0  0  0  0
 22 27  1  0  0  0  0
 23 24  1  0  0  0  0
 23 22  2  0  0  0  0
 24 25  2  0  0  0  0
 25 26  1  0  0  0  0
 26 21  1  0  0  0  0
 27 26  2  0  0  0  0
 29 24  1  0  0  0  0
 30 31  1  0  0  0  0
 30 23  1  0  0  0  0
 32 30  1  0  0  0  0
 33 30  1  0  0  0  0
M  END
>  <minimizedAffinity>
-5.69443893

>  <minimizedRMSD>
1.14594698

$$$$
