
     RDKit          3D

 23 24  0  0  0  0  0  0  0  0999 V2000
   45.0994   35.3586   44.1754 C   0  0  0  0  0  0  0  0  0  0  0  0
   46.1277   34.7904   43.3808 C   0  0  0  0  0  0  0  0  0  0  0  0
   46.8580   33.7147   43.9203 C   0  0  0  0  0  0  0  0  0  0  0  0
   46.5307   33.2911   45.1656 N   0  0  0  0  0  0  0  0  0  0  0  0
   45.5569   33.8429   45.8955 C   0  0  0  0  0  0  0  0  0  0  0  0
   44.8377   34.8781   45.4039 N   0  0  0  0  0  0  0  0  0  0  0  0
   44.3537   36.4460   43.6425 N   0  0  0  0  0  0  0  0  0  0  0  0
   47.6490   33.2628   43.3336 H   0  0  0  0  0  0  0  0  0  0  0  0
   45.3859   33.4188   46.8789 H   0  0  0  0  0  0  0  0  0  0  0  0
   43.3557   36.4913   43.3274 H   0  0  0  0  0  0  0  0  0  0  0  0
   45.0752   37.2219   43.6420 H   0  0  0  0  0  0  0  0  0  0  0  0
   48.6424   34.5891   41.6763 O   0  0  0  0  0  0  0  0  0  0  0  0
   47.4238   34.4010   41.4224 C   0  0  0  0  0  0  0  0  0  0  0  0
   46.4226   35.3017   42.0459 C   0  0  1  0  0  0  0  0  0  0  0  0
   45.2878   35.2320   41.0701 C   0  0  1  0  0  0  0  0  0  0  0  0
   44.3163   35.5535   41.4531 H   0  0  0  0  0  0  0  0  0  0  0  0
   45.3021   33.7852   40.6258 C   0  0  2  0  0  0  0  0  0  0  0  0
   44.8044   33.6203   39.6562 H   0  0  0  0  0  0  0  0  0  0  0  0
   46.6944   33.4725   40.6271 N   0  0  0  0  0  0  0  0  0  0  0  0
   46.7741   36.3509   42.0925 H   0  0  0  0  0  0  0  0  0  0  0  0
   45.5688   35.8209   40.1757 H   0  0  0  0  0  0  0  0  0  0  0  0
   44.7137   33.2091   41.3813 H   0  0  0  0  0  0  0  0  0  0  0  0
   47.2846   32.7154   40.1735 H   0  0  0  0  0  0  0  0  0  0  0  0
  1  6  2  0
  2  3  2  0
  2  1  1  0
  3  4  1  0
  4  5  2  0
  6  5  1  0
  7  1  1  0
  3  8  1  0
  5  9  1  0
  7 10  1  0
  7 11  1  0
 12 13  2  0
 13 14  1  0
 14 15  1  0
 15 16  1  1
 15 17  1  0
 17 18  1  6
 17 19  1  0
 19 13  1  0
 14 20  1  1
 15 21  1  0
 17 22  1  0
 19 23  1  0
  2 14  1  0
M  ISO  4   8  14   9  14  16   8  18   8
M  END
>  <DihAtoms>  (1) 
2,1,13,12

>  <DihDeg>  (1) 
-23.29694255895411

$$$$
