
     RDKit          3D

 44 47  0  0  0  0  0  0  0  0999 V2000
   45.1271   33.9426   40.6919 C   0  0  0  0  0  0  0  0  0  0  0  0
   44.0767   33.6422   39.8724 C   0  0  0  0  0  0  0  0  0  0  0  0
   44.3802   33.1563   38.6328 C   0  0  0  0  0  0  0  0  0  0  0  0
   45.6624   32.9569   38.1740 C   0  0  0  0  0  0  0  0  0  0  0  0
   46.6901   33.2717   39.0299 C   0  0  0  0  0  0  0  0  0  0  0  0
   46.4514   33.7647   40.2904 C   0  0  0  0  0  0  0  0  0  0  0  0
   40.7949   35.2484   40.7970 C   0  0  0  0  0  0  0  0  0  0  0  0
   42.0976   35.0984   40.2697 C   0  0  0  0  0  0  0  0  0  0  0  0
   42.7457   33.8646   40.3885 C   0  0  0  0  0  0  0  0  0  0  0  0
   42.0366   32.8897   41.0229 N   0  0  0  0  0  0  0  0  0  0  0  0
   40.8095   33.0554   41.5116 C   0  0  0  0  0  0  0  0  0  0  0  0
   40.1932   34.2347   41.3966 N   0  0  0  0  0  0  0  0  0  0  0  0
   40.1942   36.5292   40.6418 N   0  0  0  0  0  0  0  0  0  0  0  0
   47.6033   34.0670   41.1167 C   0  0  0  0  0  0  0  0  0  0  0  0
   48.1324   35.3369   40.9544 C   0  0  0  0  0  0  0  0  0  0  0  0
   49.2366   35.8097   41.6603 C   0  0  0  0  0  0  0  0  0  0  0  0
   49.8219   34.9460   42.5689 C   0  0  0  0  0  0  0  0  0  0  0  0
   49.3059   33.6773   42.7417 C   0  0  0  0  0  0  0  0  0  0  0  0
   48.2022   33.2325   42.0228 C   0  0  0  0  0  0  0  0  0  0  0  0
   44.7237   34.8697   43.1163 N   0  0  0  0  0  0  0  0  0  0  0  0
   44.8997   34.4629   42.0242 C   0  0  0  0  0  0  0  0  0  0  0  0
   43.5628   32.9110   37.9653 H   0  0  0  0  0  0  0  0  0  0  0  0
   45.8289   32.5673   37.1770 H   0  0  0  0  0  0  0  0  0  0  0  0
   47.6969   33.1141   38.6668 H   0  0  0  0  0  0  0  0  0  0  0  0
   42.6557   35.8705   39.7688 H   0  0  0  0  0  0  0  0  0  0  0  0
   40.2645   32.2666   42.0122 H   0  0  0  0  0  0  0  0  0  0  0  0
   39.9922   36.8120   39.6575 H   0  0  0  0  0  0  0  0  0  0  0  0
   39.9533   37.1795   41.4420 H   0  0  0  0  0  0  0  0  0  0  0  0
   47.7141   36.0542   40.2570 H   0  0  0  0  0  0  0  0  0  0  0  0
   49.6227   36.8081   41.5074 H   0  0  0  0  0  0  0  0  0  0  0  0
   50.6819   35.2494   43.1500 H   0  0  0  0  0  0  0  0  0  0  0  0
   49.7921   33.0404   43.4581 H   0  0  0  0  0  0  0  0  0  0  0  0
   49.8573   30.8993   41.7684 O   0  0  0  0  0  0  0  0  0  0  0  0
   48.6970   30.8354   42.3008 C   0  0  0  0  0  0  0  0  0  0  0  0
   47.6427   31.8941   42.1900 C   0  0  1  0  0  0  0  0  0  0  0  0
   46.8702   31.7030   43.4628 C   0  0  1  0  0  0  0  0  0  0  0  0
   47.0904   32.5608   44.1269 H   0  0  0  0  0  0  0  0  0  0  0  0
   47.2751   30.3786   44.0450 C   0  0  1  0  0  0  0  0  0  0  0  0
   47.8195   30.6015   44.9961 H   0  0  0  0  0  0  0  0  0  0  0  0
   48.1810   29.7691   43.0902 N   0  0  0  0  0  0  0  0  0  0  0  0
   47.0178   31.5680   41.3379 H   0  0  0  0  0  0  0  0  0  0  0  0
   45.7744   31.7288   43.2869 H   0  0  0  0  0  0  0  0  0  0  0  0
   46.3964   29.7419   44.2902 H   0  0  0  0  0  0  0  0  0  0  0  0
   48.4233   28.7677   42.9806 H   0  0  0  0  0  0  0  0  0  0  0  0
  1 21  1  0
  2  9  1  0
  2  1  2  0
  3  2  1  0
  4  3  2  0
  4  5  1  0
  5  6  2  0
  6  1  1  0
  6 14  1  0
  7 12  2  0
  8  9  2  0
  8  7  1  0
  9 10  1  0
 10 11  2  0
 12 11  1  0
 13  7  1  0
 14 19  1  0
 15 14  2  0
 15 16  1  0
 16 17  2  0
 17 18  1  0
 19 18  2  0
 21 20  3  0
  3 22  1  0
  4 23  1  0
  5 24  1  0
  8 25  1  0
 11 26  1  0
 13 27  1  0
 13 28  1  0
 15 29  1  0
 16 30  1  0
 17 31  1  0
 18 32  1  0
 33 34  2  0
 34 35  1  0
 35 36  1  0
 36 37  1  1
 36 38  1  0
 38 39  1  1
 38 40  1  0
 40 34  1  0
 35 41  1  6
 36 42  1  0
 38 43  1  0
 40 44  1  0
 19 35  1  0
M  ISO  8  22  14  23  14  24  14  25  14  26  14  29  14  30  14  31  14
M  ISO  3  32  14  37   8  39   8
M  END
>  <DihAtoms>  (1) 
13,18,34,33

>  <DihDeg>  (1) 
153.0617385576072

$$$$
