REMARK  Name = 
REMARK  5 active torsions:
REMARK  status: ('A' for Active; 'I' for Inactive)
REMARK    1  A    between atoms: C_1  and  C_13
REMARK    2  A    between atoms: C_6  and  N_7
REMARK    3  A    between atoms: C_13  and  C_14
REMARK    4  A    between atoms: C_14  and  C_17
REMARK    5  A    between atoms: C_19  and  C_42
REMARK                            x       y       z     vdW  Elec       q    Type
REMARK                         _______ _______ _______ _____ _____    ______ ____
ROOT
ATOM      1  C   UNL     1      45.688  33.685  40.661  0.00  0.00    +0.000 A 
ATOM      2  C   UNL     1      46.174  33.339  39.418  0.00  0.00    +0.000 A 
ATOM      3  C   UNL     1      47.408  33.696  38.938  0.00  0.00    +0.000 A 
ATOM      4  C   UNL     1      48.197  34.466  39.803  0.00  0.00    +0.000 A 
ATOM      5  C   UNL     1      47.765  34.838  41.048  0.00  0.00    +0.000 A 
ATOM      6  C   UNL     1      46.529  34.459  41.482  0.00  0.00    +0.000 A 
ATOM      7  H   UNL     1      45.633  32.739  38.702  0.00  0.00    +0.000 HD
ATOM      8  H   UNL     1      47.810  33.440  37.975  0.00  0.00    +0.000 HD
ATOM      9  H   UNL     1      49.194  34.782  39.472  0.00  0.00    +0.000 HD
ATOM     10  H   UNL     1      48.441  35.436  41.655  0.00  0.00    +0.000 HD
ENDROOT
BRANCH   6  11
ATOM     11  N   UNL     1      46.178  34.883  42.779  0.00  0.00    +0.000 N 
ATOM     12  C   UNL     1      45.322  35.997  43.061  0.00  0.00    +0.000 C 
ATOM     13  C   UNL     1      44.753  35.910  44.464  0.00  0.00    +0.000 C 
ATOM     14  N   UNL     1      44.417  34.593  44.891  0.00  0.00    +0.000 NA
ATOM     15  C   UNL     1      45.464  33.645  44.765  0.00  0.00    +0.000 C 
ATOM     16  C   UNL     1      46.633  34.255  44.029  0.00  0.00    +0.000 C 
ATOM     17  H   UNL     1      44.597  36.277  42.306  0.00  0.00    +0.000 HD
ATOM     18  H   UNL     1      46.025  36.883  43.113  0.00  0.00    +0.000 HD
ATOM     19  H   UNL     1      43.802  36.495  44.450  0.00  0.00    +0.000 HD
ATOM     20  H   UNL     1      45.434  36.367  45.228  0.00  0.00    +0.000 HD
ATOM     21  H   UNL     1      43.992  34.671  45.818  0.00  0.00    +0.000 HD
ATOM     22  H   UNL     1      45.837  33.231  45.709  0.00  0.00    +0.000 HD
ATOM     23  H   UNL     1      45.084  32.804  44.124  0.00  0.00    +0.000 HD
ATOM     24  H   UNL     1      47.089  35.027  44.664  0.00  0.00    +0.000 HD
ATOM     25  H   UNL     1      47.376  33.477  43.806  0.00  0.00    +0.000 HD
ENDBRANCH   6  11
BRANCH   1  26
ATOM     26  C   UNL     1      44.367  33.303  41.168  0.00  0.00    +0.000 C 
ATOM     27  H   UNL     1      43.927  34.011  41.873  0.00  0.00    +0.000 HD
ATOM     28  H   UNL     1      44.546  32.370  41.780  0.00  0.00    +0.000 HD
BRANCH  26  29
ATOM     29  C   UNL     1      43.398  33.027  40.038  0.00  0.00    +0.000 C 
ATOM     30  H   UNL     1      43.780  33.175  39.041  0.00  0.00    +0.000 HD
ATOM     31  H   UNL     1      43.004  31.977  40.182  0.00  0.00    +0.000 HD
BRANCH  29  34
ATOM     32  C   UNL     1      40.797  35.699  39.439  0.00  0.00    +0.000 A 
ATOM     33  C   UNL     1      41.946  34.895  39.264  0.00  0.00    +0.000 A 
ATOM     34  C   UNL     1      42.204  33.892  40.199  0.00  0.00    +0.000 A 
ATOM     35  N   UNL     1      41.326  33.741  41.239  0.00  0.00    +0.000 NA
ATOM     36  C   UNL     1      40.245  34.525  41.371  0.00  0.00    +0.000 A 
ATOM     37  N   UNL     1      39.980  35.499  40.478  0.00  0.00    +0.000 NA
ATOM     38  H   UNL     1      40.640  36.463  38.689  0.00  0.00    +0.000 HD
ATOM     39  H   UNL     1      42.588  35.072  38.424  0.00  0.00    +0.000 HD
BRANCH  36  42
ATOM     40  O   UNL     1      37.791  32.507  41.906  0.00  0.00    +0.000 OA
ATOM     41  C   UNL     1      38.717  33.016  42.609  0.00  0.00    +0.000 C 
ATOM     42  C   UNL     1      39.289  34.360  42.505  0.00  0.00    +0.000 C 
ATOM     43  C   UNL     1      39.987  34.572  43.837  0.00  0.00    +0.000 C 
ATOM     44  H   UNL     1      40.877  35.236  43.653  0.00  0.00    +0.000 HD
ATOM     45  C   UNL     1      40.371  33.197  44.322  0.00  0.00    +0.000 C 
ATOM     46  H   UNL     1      41.369  32.959  43.893  0.00  0.00    +0.000 HD
ATOM     47  N   UNL     1      39.395  32.347  43.668  0.00  0.00    +0.000 N 
ATOM     48  H   UNL     1      39.235  31.345  43.976  0.00  0.00    +0.000 HD
ENDBRANCH  36  42
ENDBRANCH  29  34
ENDBRANCH  26  29
ENDBRANCH   1  26
TORSDOF 5
