
 OpenBabel03252503563D

 20 21  0  0  1  0  0  0  0  0999 V2000
   46.1200   34.8130   43.1520 C   0  0  0  0  0  0  0  0  0  0  0  0
   45.3670   35.9770   43.3860 C   0  0  0  0  0  0  0  0  0  0  0  0
   44.6540   36.0390   44.5840 C   0  0  0  0  0  0  0  0  0  0  0  0
   44.7250   34.9790   45.4470 N   0  0  0  0  0  0  0  0  0  0  0  0
   45.4650   33.8880   45.1680 C   0  0  0  0  0  0  0  0  0  0  0  0
   46.1570   33.8060   44.0270 N   0  0  0  0  0  0  0  0  0  0  0  0
   45.2920   36.8190   42.7320 H   0  0  0  0  0  0  0  0  0  0  0  0
   44.0530   36.8920   44.8440 H   0  0  0  0  0  0  0  0  0  0  0  0
   47.6990   31.8600   45.4830 O   0  0  0  0  0  0  0  0  0  0  0  0
   46.7000   32.0530   46.2490 C   0  0  0  0  0  0  0  0  0  0  0  0
   45.4360   32.8260   46.2110 C   0  0  1  0  0  3  0  0  0  0  0  0
   45.3260   33.3420   47.6050 C   0  0  0  0  0  3  0  0  0  0  0  0
   44.2450   33.5410   47.8110 H   0  0  0  0  0  0  0  0  0  0  0  0
   45.8450   32.1890   48.4350 C   0  0  0  0  0  3  0  0  0  0  0  0
   46.4270   32.5580   49.3050 H   0  0  0  0  0  0  0  0  0  0  0  0
   46.6580   31.4130   47.5210 N   0  0  0  0  0  0  0  0  0  0  0  0
   47.0860   30.5200   47.9080 H   0  0  0  0  0  0  0  0  0  0  0  0
   46.8240   34.8160   41.9100 C   0  0  0  0  0  0  0  0  0  0  0  0
   47.9650   35.3290   41.6830 O   0  0  0  0  0  0  0  0  0  0  0  0
   46.5860   34.4160   40.9320 H   0  0  0  0  0  0  0  0  0  0  0  0
  1  2  2  0  0  0  0
  1  6  1  0  0  0  0
  2  3  1  0  0  0  0
  3  8  1  0  0  0  0
  3  4  2  0  0  0  0
  5  4  1  0  0  0  0
  6  5  2  0  0  0  0
  7  2  1  0  0  0  0
  9 10  2  0  0  0  0
 10 16  1  0  0  0  0
 11  5  1  6  0  0  0
 11 10  1  0  0  0  0
 11 12  1  0  0  0  0
 12 13  1  0  0  0  0
 12 14  1  0  0  0  0
 14 15  1  0  0  0  0
 16 17  1  0  0  0  0
 16 14  1  0  0  0  0
 18  1  1  0  0  0  0
 19 18  2  0  0  0  0
 20 18  1  0  0  0  0
M  END
>  <minimizedAffinity>
-3.74186611

>  <minimizedRMSD>
0.591689348

$$$$
