
     RDKit          3D

 23 24  0  0  0  0  0  0  0  0999 V2000
   44.6623   36.0337   44.3239 C   0  0  0  0  0  0  0  0  0  0  0  0
   45.4629   35.5619   43.2839 C   0  0  0  0  0  0  0  0  0  0  0  0
   46.1729   34.3795   43.5252 C   0  0  0  0  0  0  0  0  0  0  0  0
   46.0531   33.7563   44.7373 N   0  0  0  0  0  0  0  0  0  0  0  0
   45.2620   34.2635   45.7026 C   0  0  0  0  0  0  0  0  0  0  0  0
   44.5575   35.4165   45.4941 N   0  0  0  0  0  0  0  0  0  0  0  0
   45.1223   33.6294   46.9751 N   0  0  0  0  0  0  0  0  0  0  0  0
   44.1033   36.9478   44.1598 H   0  0  0  0  0  0  0  0  0  0  0  0
   45.5686   36.0425   42.3198 H   0  0  0  0  0  0  0  0  0  0  0  0
   44.7501   32.6601   46.8309 H   0  0  0  0  0  0  0  0  0  0  0  0
   45.3467   34.0400   47.9140 H   0  0  0  0  0  0  0  0  0  0  0  0
   45.9069   34.8978   40.4969 O   0  0  0  0  0  0  0  0  0  0  0  0
   46.5556   34.0210   41.1489 C   0  0  0  0  0  0  0  0  0  0  0  0
   47.0636   33.7546   42.5203 C   0  0  2  0  0  0  0  0  0  0  0  0
   47.0705   32.2511   42.6123 C   0  0  2  0  0  0  0  0  0  0  0  0
   46.1531   31.8716   43.1323 H   0  0  0  0  0  0  0  0  0  0  0  0
   47.1634   31.7283   41.2115 C   0  0  2  0  0  0  0  0  0  0  0  0
   46.3505   31.0052   40.9633 H   0  0  0  0  0  0  0  0  0  0  0  0
   46.9601   32.8877   40.3548 N   0  0  0  0  0  0  0  0  0  0  0  0
   48.1075   34.0975   42.5630 H   0  0  0  0  0  0  0  0  0  0  0  0
   47.9267   31.9613   43.2618 H   0  0  0  0  0  0  0  0  0  0  0  0
   48.1573   31.2704   41.0019 H   0  0  0  0  0  0  0  0  0  0  0  0
   47.1340   32.7236   39.3244 H   0  0  0  0  0  0  0  0  0  0  0  0
  1  6  2  0
  2  3  2  0
  2  1  1  0
  3  4  1  0
  4  5  2  0
  5  7  1  0
  6  5  1  0
  1  8  1  0
  2  9  1  0
  7 10  1  0
  7 11  1  0
 12 13  2  0
 13 14  1  0
 14 15  1  0
 15 16  1  1
 15 17  1  0
 17 18  1  6
 17 19  1  0
 19 13  1  0
 14 20  1  6
 15 21  1  0
 17 22  1  0
 19 23  1  0
  3 14  1  0
M  ISO  4   8  14   9  14  16   8  18   8
M  END
>  <DihAtoms>  (1) 
1,2,13,12

>  <DihDeg>  (1) 
58.48768933036323

$$$$
