
 OpenBabel03252502073D

 48 52  0  0  1  0  0  0  0  0999 V2000
   45.7080   33.8340   45.3060 C   0  0  0  0  0  0  0  0  0  0  0  0
   44.7980   34.7500   45.6600 N   0  0  0  0  0  0  0  0  0  0  0  0
   44.4690   35.8210   44.9460 C   0  0  0  0  0  0  0  0  0  0  0  0
   45.0730   36.0510   43.7600 N   0  0  0  0  0  0  0  0  0  0  0  0
   45.9980   35.2100   43.3000 C   0  0  0  0  0  0  0  0  0  0  0  0
   46.6180   35.4430   42.0800 C   0  0  0  0  0  0  0  0  0  0  0  0
   47.5760   34.5820   41.5870 C   0  0  0  0  0  0  0  0  0  0  0  0
   47.8970   33.4800   42.3470 C   0  0  0  0  0  0  0  0  0  0  0  0
   47.2390   33.2970   43.5680 C   0  0  0  0  0  0  0  0  0  0  0  0
   46.2920   34.1210   44.0860 C   0  0  0  0  0  0  0  0  0  0  0  0
   43.7030   36.4950   45.3560 H   0  0  0  0  0  0  0  0  0  0  0  0
   46.3340   36.3200   41.5170 H   0  0  0  0  0  0  0  0  0  0  0  0
   48.0070   34.8250   40.6470 H   0  0  0  0  0  0  0  0  0  0  0  0
   47.5730   32.0330   47.8290 C   0  0  0  0  0  0  0  0  0  0  0  0
   47.0780   30.7260   47.8240 C   0  0  0  0  0  0  0  0  0  0  0  0
   46.0640   30.4510   46.9460 C   0  0  0  0  0  0  0  0  0  0  0  0
   45.6020   31.4150   46.1440 N   0  0  0  0  0  0  0  0  0  0  0  0
   46.0550   32.6510   46.1300 C   0  0  0  0  0  0  0  0  0  0  0  0
   47.0540   32.9450   46.9930 N   0  0  0  0  0  0  0  0  0  0  0  0
   45.5170   29.1900   46.9050 N   0  0  0  0  0  0  0  0  0  0  0  0
   44.2970   28.8380   46.1230 C   0  0  0  0  0  0  0  0  0  0  0  0
   44.2440   27.3330   46.1130 C   0  0  0  0  0  0  0  0  0  0  0  0
   44.9320   26.9720   47.3890 C   0  0  0  0  0  0  0  0  0  0  0  0
   45.9770   28.0180   47.5760 C   0  0  0  0  0  0  0  0  0  0  0  0
   48.3800   32.2970   48.5180 H   0  0  0  0  0  0  0  0  0  0  0  0
   43.4650   29.3150   46.6460 H   0  0  0  0  0  0  0  0  0  0  0  0
   44.4370   29.2370   45.0940 H   0  0  0  0  0  0  0  0  0  0  0  0
   44.7930   26.9490   45.2290 H   0  0  0  0  0  0  0  0  0  0  0  0
   43.1890   27.0180   46.0840 H   0  0  0  0  0  0  0  0  0  0  0  0
   45.3500   25.9350   47.3770 H   0  0  0  0  0  0  0  0  0  0  0  0
   44.1600   26.9920   48.1850 H   0  0  0  0  0  0  0  0  0  0  0  0
   46.0240   28.1250   48.7020 H   0  0  0  0  0  0  0  0  0  0  0  0
   46.9410   27.6100   47.1860 H   0  0  0  0  0  0  0  0  0  0  0  0
   47.6700   29.8130   48.6530 N   0  0  0  0  0  0  0  0  0  0  0  0
   48.3890   29.0730   48.4560 H   0  0  0  0  0  0  0  0  0  0  0  0
   47.2400   30.0030   49.6050 H   0  0  0  0  0  0  0  0  0  0  0  0
   50.9630   33.9660   42.4520 O   0  0  0  0  0  0  0  0  0  0  0  0
   50.2900   33.0800   41.9110 C   0  0  0  0  0  0  0  0  0  0  0  0
   48.9190   32.5860   41.7910 C   0  0  2  0  0  0  0  0  0  0  0  0
   48.7900   32.2190   40.3610 C   0  0  0  0  0  0  0  0  0  0  0  0
   47.9150   31.5820   40.1640 H   0  0  0  0  0  0  0  0  0  0  0  0
   50.1130   31.5060   40.1190 C   0  0  0  0  0  0  0  0  0  0  0  0
   50.0060   30.4720   40.4360 H   0  0  0  0  0  0  0  0  0  0  0  0
   51.0210   32.1520   41.0800 N   0  0  0  0  0  0  0  0  0  0  0  0
   52.0170   31.7980   40.9550 H   0  0  0  0  0  0  0  0  0  0  0  0
   47.7040   32.1060   44.2160 N   0  0  0  0  0  0  0  0  0  0  0  0
   47.0900   31.3660   43.7970 H   0  0  0  0  0  0  0  0  0  0  0  0
   48.4420   31.8980   44.9170 H   0  0  0  0  0  0  0  0  0  0  0  0
  1  2  1  0  0  0  0
  1 18  1  0  0  0  0
  3 11  1  0  0  0  0
  3  2  2  0  0  0  0
  4  3  1  0  0  0  0
  5  4  2  0  0  0  0
  5 10  1  0  0  0  0
  6  5  1  0  0  0  0
  7  6  2  0  0  0  0
  7  8  1  0  0  0  0
  8  9  2  0  0  0  0
  9 10  1  0  0  0  0
  9 46  1  0  0  0  0
 10  1  2  0  0  0  0
 12  6  1  0  0  0  0
 13  7  1  0  0  0  0
 14 25  1  0  0  0  0
 15 14  1  0  0  0  0
 15 34  1  0  0  0  0
 16 15  2  0  0  0  0
 17 16  1  0  0  0  0
 18 17  2  0  0  0  0
 18 19  1  0  0  0  0
 19 14  2  0  0  0  0
 20 16  1  0  0  0  0
 20 24  1  0  0  0  0
 21 26  1  0  0  0  0
 21 20  1  0  0  0  0
 22 21  1  0  0  0  0
 22 23  1  0  0  0  0
 23 24  1  0  0  0  0
 23 31  1  0  0  0  0
 24 32  1  0  0  0  0
 27 21  1  0  0  0  0
 28 22  1  0  0  0  0
 29 22  1  0  0  0  0
 30 23  1  0  0  0  0
 33 24  1  0  0  0  0
 34 36  1  0  0  0  0
 35 34  1  0  0  0  0
 38 37  2  0  0  0  0
 39 38  1  0  0  0  0
 39  8  1  6  0  0  0
 40 39  1  0  0  0  0
 41 40  1  0  0  0  0
 42 40  1  0  0  0  0
 42 43  1  0  0  0  0
 42 44  1  0  0  0  0
 44 38  1  0  0  0  0
 45 44  1  0  0  0  0
 46 48  1  0  0  0  0
 47 46  1  0  0  0  0
M  END
>  <minimizedAffinity>
-7.4876833

>  <minimizedRMSD>
0.886330783

$$$$
