
 OpenBabel03242518243D

 32 34  0  0  1  0  0  0  0  0999 V2000
   39.1740   28.1420   40.4930 C   0  0  0  0  0  0  0  0  0  0  0  0
   38.5940   27.9970   41.7470 C   0  0  0  0  0  0  0  0  0  0  0  0
   38.0970   29.1290   42.3730 C   0  0  0  0  0  0  0  0  0  0  0  0
   38.1920   30.3310   41.7440 N   0  0  0  0  0  0  0  0  0  0  0  0
   38.7590   30.4460   40.5290 C   0  0  0  0  0  0  0  0  0  0  0  0
   39.2450   29.3540   39.9090 N   0  0  0  0  0  0  0  0  0  0  0  0
   39.6080   27.3830   39.8620 H   0  0  0  0  0  0  0  0  0  0  0  0
   37.6610   28.9820   43.3310 H   0  0  0  0  0  0  0  0  0  0  0  0
   38.5680   26.6750   42.2770 N   0  0  0  0  0  0  0  0  0  0  0  0
   37.6540   25.7450   41.6720 C   0  0  0  0  0  0  0  0  0  0  0  0
   37.6870   24.3820   42.2800 C   0  0  0  0  0  0  0  0  0  0  0  0
   38.9850   23.8900   42.5460 N   0  0  0  0  0  0  0  0  0  0  0  0
   39.9610   24.8080   42.9840 C   0  0  0  0  0  0  0  0  0  0  0  0
   39.3480   26.1470   43.3540 C   0  0  0  0  0  0  0  0  0  0  0  0
   36.6320   26.1570   41.8230 H   0  0  0  0  0  0  0  0  0  0  0  0
   37.8140   25.7250   40.5680 H   0  0  0  0  0  0  0  0  0  0  0  0
   37.1880   23.6880   41.5530 H   0  0  0  0  0  0  0  0  0  0  0  0
   37.1020   24.3480   43.2240 H   0  0  0  0  0  0  0  0  0  0  0  0
   39.3850   23.3090   41.7550 H   0  0  0  0  0  0  0  0  0  0  0  0
   40.8220   24.9470   42.2960 H   0  0  0  0  0  0  0  0  0  0  0  0
   40.4040   24.3970   43.9370 H   0  0  0  0  0  0  0  0  0  0  0  0
   40.1560   26.7610   43.7340 H   0  0  0  0  0  0  0  0  0  0  0  0
   38.6600   25.9410   44.2110 H   0  0  0  0  0  0  0  0  0  0  0  0
   36.7880   31.6430   38.5060 O   0  0  0  0  0  0  0  0  0  0  0  0
   37.5180   32.2380   39.3600 C   0  0  0  0  0  0  0  0  0  0  0  0
   38.8100   31.7970   39.9370 C   0  0  1  0  0  3  0  0  0  0  0  0
   39.1010   32.8670   40.9610 C   0  0  0  0  0  3  0  0  0  0  0  0
   40.1950   33.1010   41.0460 H   0  0  0  0  0  0  0  0  0  0  0  0
   38.3710   34.0970   40.4070 C   0  0  0  0  0  3  0  0  0  0  0  0
   38.1600   34.8480   41.1700 H   0  0  0  0  0  0  0  0  0  0  0  0
   37.1410   33.5030   39.9040 N   0  0  0  0  0  0  0  0  0  0  0  0
   36.2030   33.9950   39.9760 H   0  0  0  0  0  0  0  0  0  0  0  0
  1  2  1  0  0  0  0
  2  9  1  0  0  0  0
  2  3  2  0  0  0  0
  3  8  1  0  0  0  0
  4  3  1  0  0  0  0
  5  4  2  0  0  0  0
  6  1  2  0  0  0  0
  6  5  1  0  0  0  0
  7  1  1  0  0  0  0
  9 14  1  0  0  0  0
 10 15  1  0  0  0  0
 10  9  1  0  0  0  0
 10 11  1  0  0  0  0
 11 12  1  0  0  0  0
 11 18  1  0  0  0  0
 12 13  1  0  0  0  0
 13 14  1  0  0  0  0
 13 21  1  0  0  0  0
 14 22  1  0  0  0  0
 14 23  1  0  0  0  0
 16 10  1  0  0  0  0
 17 11  1  0  0  0  0
 19 12  1  0  0  0  0
 20 13  1  0  0  0  0
 24 25  2  0  0  0  0
 25 31  1  0  0  0  0
 25 26  1  0  0  0  0
 26  5  1  1  0  0  0
 26 27  1  0  0  0  0
 27 28  1  0  0  0  0
 29 27  1  0  0  0  0
 29 30  1  0  0  0  0
 31 32  1  0  0  0  0
 31 29  1  0  0  0  0
M  END
>  <minimizedAffinity>
-5.04145813

$$$$

 OpenBabel03242518243D

 32 34  0  0  1  0  0  0  0  0999 V2000
   39.2980   29.1120   40.6160 C   0  0  0  0  0  0  0  0  0  0  0  0
   38.3520   30.0600   40.9870 C   0  0  0  0  0  0  0  0  0  0  0  0
   37.4650   29.7360   42.0010 C   0  0  0  0  0  0  0  0  0  0  0  0
   37.5510   28.5160   42.5940 N   0  0  0  0  0  0  0  0  0  0  0  0
   38.4770   27.6140   42.2170 C   0  0  0  0  0  0  0  0  0  0  0  0
   39.3450   27.9150   41.2330 N   0  0  0  0  0  0  0  0  0  0  0  0
   40.0610   29.1870   39.8570 H   0  0  0  0  0  0  0  0  0  0  0  0
   36.7540   30.4830   42.2590 H   0  0  0  0  0  0  0  0  0  0  0  0
   38.3860   31.2930   40.2740 N   0  0  0  0  0  0  0  0  0  0  0  0
   37.1820   32.0780   40.2670 C   0  0  0  0  0  0  0  0  0  0  0  0
   37.2970   33.3540   39.5020 C   0  0  0  0  0  0  0  0  0  0  0  0
   38.4970   34.0650   39.7250 N   0  0  0  0  0  0  0  0  0  0  0  0
   39.6810   33.3210   39.9060 C   0  0  0  0  0  0  0  0  0  0  0  0
   39.4840   31.8570   39.5510 C   0  0  0  0  0  0  0  0  0  0  0  0
   36.3990   31.4580   39.7750 H   0  0  0  0  0  0  0  0  0  0  0  0
   36.8300   32.2360   41.3140 H   0  0  0  0  0  0  0  0  0  0  0  0
   36.4380   34.0030   39.8190 H   0  0  0  0  0  0  0  0  0  0  0  0
   37.1930   33.1800   38.4090 H   0  0  0  0  0  0  0  0  0  0  0  0
   38.4210   34.7880   40.4960 H   0  0  0  0  0  0  0  0  0  0  0  0
   40.1560   33.4220   40.9040 H   0  0  0  0  0  0  0  0  0  0  0  0
   40.4410   33.7170   39.1710 H   0  0  0  0  0  0  0  0  0  0  0  0
   40.4510   31.3810   39.6580 H   0  0  0  0  0  0  0  0  0  0  0  0
   39.2270   31.8390   38.4630 H   0  0  0  0  0  0  0  0  0  0  0  0
   36.8680   25.1090   41.4800 O   0  0  0  0  0  0  0  0  0  0  0  0
   37.9710   25.1960   42.1040 C   0  0  0  0  0  0  0  0  0  0  0  0
   38.4820   26.3190   42.9260 C   0  0  1  0  0  3  0  0  0  0  0  0
   39.8740   25.8630   43.2890 C   0  0  0  0  0  3  0  0  0  0  0  0
   40.1800   26.1800   44.3200 H   0  0  0  0  0  0  0  0  0  0  0  0
   39.7670   24.3340   43.2490 C   0  0  0  0  0  3  0  0  0  0  0  0
   40.7330   23.8410   43.1240 H   0  0  0  0  0  0  0  0  0  0  0  0
   38.9210   24.1300   42.0820 N   0  0  0  0  0  0  0  0  0  0  0  0
   39.0660   23.3210   41.4120 H   0  0  0  0  0  0  0  0  0  0  0  0
  1  2  2  0  0  0  0
  1  6  1  0  0  0  0
  2  3  1  0  0  0  0
  3  8  1  0  0  0  0
  3  4  2  0  0  0  0
  5  4  1  0  0  0  0
  6  5  2  0  0  0  0
  7  1  1  0  0  0  0
  9  2  1  0  0  0  0
 10  9  1  0  0  0  0
 10 16  1  0  0  0  0
 11 12  1  0  0  0  0
 11 17  1  0  0  0  0
 11 10  1  0  0  0  0
 12 13  1  0  0  0  0
 12 19  1  0  0  0  0
 13 20  1  0  0  0  0
 14 22  1  0  0  0  0
 14 13  1  0  0  0  0
 14  9  1  0  0  0  0
 15 10  1  0  0  0  0
 18 11  1  0  0  0  0
 21 13  1  0  0  0  0
 23 14  1  0  0  0  0
 24 25  2  0  0  0  0
 25 26  1  0  0  0  0
 26  5  1  6  0  0  0
 26 27  1  0  0  0  0
 27 28  1  0  0  0  0
 29 27  1  0  0  0  0
 30 29  1  0  0  0  0
 31 25  1  0  0  0  0
 31 29  1  0  0  0  0
 32 31  1  0  0  0  0
M  END
>  <minimizedAffinity>
-4.8710618

$$$$

 OpenBabel03242518243D

 32 34  0  0  1  0  0  0  0  0999 V2000
   40.0180   30.3510   39.5720 C   0  0  0  0  0  0  0  0  0  0  0  0
   39.8800   31.7140   39.3400 C   0  0  0  0  0  0  0  0  0  0  0  0
   38.9100   32.4030   40.0500 C   0  0  0  0  0  0  0  0  0  0  0  0
   38.1350   31.7280   40.9410 N   0  0  0  0  0  0  0  0  0  0  0  0
   38.2890   30.4070   41.1480 C   0  0  0  0  0  0  0  0  0  0  0  0
   39.2270   29.7250   40.4650 N   0  0  0  0  0  0  0  0  0  0  0  0
   40.7110   29.6600   39.1180 H   0  0  0  0  0  0  0  0  0  0  0  0
   38.8310   33.4430   39.8480 H   0  0  0  0  0  0  0  0  0  0  0  0
   40.7640   32.2790   38.3760 N   0  0  0  0  0  0  0  0  0  0  0  0
   41.3060   33.5780   38.6690 C   0  0  0  0  0  0  0  0  0  0  0  0
   42.2230   34.1010   37.6140 C   0  0  0  0  0  0  0  0  0  0  0  0
   43.1360   33.1500   37.1060 N   0  0  0  0  0  0  0  0  0  0  0  0
   42.6900   31.8200   36.9610 C   0  0  0  0  0  0  0  0  0  0  0  0
   41.1850   31.7100   37.1330 C   0  0  0  0  0  0  0  0  0  0  0  0
   40.4430   34.2760   38.7420 H   0  0  0  0  0  0  0  0  0  0  0  0
   41.7770   33.5690   39.6800 H   0  0  0  0  0  0  0  0  0  0  0  0
   42.8080   34.9400   38.0770 H   0  0  0  0  0  0  0  0  0  0  0  0
   41.6540   34.5280   36.7600 H   0  0  0  0  0  0  0  0  0  0  0  0
   44.0690   33.1500   37.6090 H   0  0  0  0  0  0  0  0  0  0  0  0
   43.2140   31.0740   37.5940 H   0  0  0  0  0  0  0  0  0  0  0  0
   42.9020   31.5100   35.8960 H   0  0  0  0  0  0  0  0  0  0  0  0
   40.9290   30.6750   36.9440 H   0  0  0  0  0  0  0  0  0  0  0  0
   40.7390   32.3160   36.3060 H   0  0  0  0  0  0  0  0  0  0  0  0
   35.8490   28.6440   40.5570 O   0  0  0  0  0  0  0  0  0  0  0  0
   36.6010   28.6510   41.5810 C   0  0  0  0  0  0  0  0  0  0  0  0
   37.3950   29.7740   42.1370 C   0  0  1  0  0  3  0  0  0  0  0  0
   38.1520   29.1210   43.2680 C   0  0  0  0  0  3  0  0  0  0  0  0
   38.2860   29.8010   44.1500 H   0  0  0  0  0  0  0  0  0  0  0  0
   37.2450   27.9530   43.6740 C   0  0  0  0  0  3  0  0  0  0  0  0
   37.7770   27.1650   44.2100 H   0  0  0  0  0  0  0  0  0  0  0  0
   36.7810   27.4790   42.3770 N   0  0  0  0  0  0  0  0  0  0  0  0
   36.6380   26.4490   42.1680 H   0  0  0  0  0  0  0  0  0  0  0  0
  1  6  1  0  0  0  0
  2  1  2  0  0  0  0
  2  3  1  0  0  0  0
  3  4  2  0  0  0  0
  4  5  1  0  0  0  0
  6  5  2  0  0  0  0
  7  1  1  0  0  0  0
  8  3  1  0  0  0  0
  9 10  1  0  0  0  0
  9  2  1  0  0  0  0
 10 15  1  0  0  0  0
 10 16  1  0  0  0  0
 11 17  1  0  0  0  0
 11 10  1  0  0  0  0
 12 19  1  0  0  0  0
 12 11  1  0  0  0  0
 13 12  1  0  0  0  0
 13 14  1  0  0  0  0
 13 20  1  0  0  0  0
 14  9  1  0  0  0  0
 18 11  1  0  0  0  0
 21 13  1  0  0  0  0
 22 14  1  0  0  0  0
 23 14  1  0  0  0  0
 24 25  2  0  0  0  0
 25 26  1  0  0  0  0
 25 31  1  0  0  0  0
 26  5  1  6  0  0  0
 26 27  1  0  0  0  0
 27 29  1  0  0  0  0
 27 28  1  0  0  0  0
 29 30  1  0  0  0  0
 31 29  1  0  0  0  0
 32 31  1  0  0  0  0
M  END
>  <minimizedAffinity>
-4.78763485

$$$$

 OpenBabel03242518243D

 32 34  0  0  1  0  0  0  0  0999 V2000
   38.5670   28.2730   40.4540 C   0  0  0  0  0  0  0  0  0  0  0  0
   38.9010   27.8060   41.7190 C   0  0  0  0  0  0  0  0  0  0  0  0
   39.0460   28.7320   42.7410 C   0  0  0  0  0  0  0  0  0  0  0  0
   38.8580   30.0510   42.4720 N   0  0  0  0  0  0  0  0  0  0  0  0
   38.5350   30.4790   41.2370 C   0  0  0  0  0  0  0  0  0  0  0  0
   38.3910   29.5900   40.2350 N   0  0  0  0  0  0  0  0  0  0  0  0
   38.4140   27.7060   39.5490 H   0  0  0  0  0  0  0  0  0  0  0  0
   39.3020   28.3410   43.6950 H   0  0  0  0  0  0  0  0  0  0  0  0
   39.0660   26.3970   41.8450 N   0  0  0  0  0  0  0  0  0  0  0  0
   39.6430   25.9120   43.0690 C   0  0  0  0  0  0  0  0  0  0  0  0
   39.7810   24.4270   43.1260 C   0  0  0  0  0  0  0  0  0  0  0  0
   38.6580   23.7150   42.6480 N   0  0  0  0  0  0  0  0  0  0  0  0
   37.9590   24.2490   41.5460 C   0  0  0  0  0  0  0  0  0  0  0  0
   38.7250   25.3860   40.8920 C   0  0  0  0  0  0  0  0  0  0  0  0
   40.6650   26.3490   43.1350 H   0  0  0  0  0  0  0  0  0  0  0  0
   39.0800   26.3230   43.9390 H   0  0  0  0  0  0  0  0  0  0  0  0
   39.9400   24.1550   44.2030 H   0  0  0  0  0  0  0  0  0  0  0  0
   40.6760   24.0830   42.5640 H   0  0  0  0  0  0  0  0  0  0  0  0
   37.9650   23.4610   43.4090 H   0  0  0  0  0  0  0  0  0  0  0  0
   36.9100   24.5500   41.7520 H   0  0  0  0  0  0  0  0  0  0  0  0
   37.8890   23.4350   40.7670 H   0  0  0  0  0  0  0  0  0  0  0  0
   38.1470   25.6890   40.0270 H   0  0  0  0  0  0  0  0  0  0  0  0
   39.6740   24.9350   40.5120 H   0  0  0  0  0  0  0  0  0  0  0  0
   40.6980   32.5200   40.4850 O   0  0  0  0  0  0  0  0  0  0  0  0
   39.4450   32.5690   40.2790 C   0  0  0  0  0  0  0  0  0  0  0  0
   38.3550   31.9320   41.0550 C   0  0  1  0  0  3  0  0  0  0  0  0
   37.1270   32.2670   40.2440 C   0  0  0  0  0  3  0  0  0  0  0  0
   36.2230   32.4560   40.8820 H   0  0  0  0  0  0  0  0  0  0  0  0
   37.5150   33.5690   39.5330 C   0  0  0  0  0  3  0  0  0  0  0  0
   36.9160   33.7640   38.6420 H   0  0  0  0  0  0  0  0  0  0  0  0
   38.9040   33.3070   39.1820 N   0  0  0  0  0  0  0  0  0  0  0  0
   39.3300   33.6400   38.2700 H   0  0  0  0  0  0  0  0  0  0  0  0
  1  2  1  0  0  0  0
  2  9  1  0  0  0  0
  2  3  2  0  0  0  0
  3  8  1  0  0  0  0
  4  3  1  0  0  0  0
  5  4  2  0  0  0  0
  6  1  2  0  0  0  0
  6  5  1  0  0  0  0
  7  1  1  0  0  0  0
  9 10  1  0  0  0  0
 10 11  1  0  0  0  0
 10 15  1  0  0  0  0
 10 16  1  0  0  0  0
 11 17  1  0  0  0  0
 12 11  1  0  0  0  0
 12 19  1  0  0  0  0
 13 20  1  0  0  0  0
 13 12  1  0  0  0  0
 14 13  1  0  0  0  0
 14  9  1  0  0  0  0
 18 11  1  0  0  0  0
 21 13  1  0  0  0  0
 22 14  1  0  0  0  0
 23 14  1  0  0  0  0
 25 24  2  0  0  0  0
 25 26  1  0  0  0  0
 26  5  1  6  0  0  0
 27 28  1  0  0  0  0
 27 26  1  0  0  0  0
 29 27  1  0  0  0  0
 30 29  1  0  0  0  0
 31 29  1  0  0  0  0
 31 25  1  0  0  0  0
 32 31  1  0  0  0  0
M  END
>  <minimizedAffinity>
-4.74683619

$$$$

 OpenBabel03242518243D

 32 34  0  0  1  0  0  0  0  0999 V2000
   38.9210   28.5460   41.8150 C   0  0  0  0  0  0  0  0  0  0  0  0
   39.4320   27.6170   40.9180 C   0  0  0  0  0  0  0  0  0  0  0  0
   39.7740   28.0540   39.6480 C   0  0  0  0  0  0  0  0  0  0  0  0
   39.5990   29.3640   39.3270 N   0  0  0  0  0  0  0  0  0  0  0  0
   39.1010   30.2450   40.2150 C   0  0  0  0  0  0  0  0  0  0  0  0
   38.7650   29.8350   41.4520 N   0  0  0  0  0  0  0  0  0  0  0  0
   38.6040   28.3910   42.8350 H   0  0  0  0  0  0  0  0  0  0  0  0
   40.1610   27.3180   38.9870 H   0  0  0  0  0  0  0  0  0  0  0  0
   39.5560   26.2820   41.3980 N   0  0  0  0  0  0  0  0  0  0  0  0
   39.6560   26.1060   42.8210 C   0  0  0  0  0  0  0  0  0  0  0  0
   39.7820   24.6800   43.2460 C   0  0  0  0  0  0  0  0  0  0  0  0
   38.9170   23.7890   42.5720 N   0  0  0  0  0  0  0  0  0  0  0  0
   38.6580   24.0280   41.2060 C   0  0  0  0  0  0  0  0  0  0  0  0
   39.5960   25.0750   40.6320 C   0  0  0  0  0  0  0  0  0  0  0  0
   40.5790   26.6360   43.1450 H   0  0  0  0  0  0  0  0  0  0  0  0
   38.8110   26.6300   43.3260 H   0  0  0  0  0  0  0  0  0  0  0  0
   39.5420   24.6440   44.3420 H   0  0  0  0  0  0  0  0  0  0  0  0
   40.8230   24.3130   43.1240 H   0  0  0  0  0  0  0  0  0  0  0  0
   37.9980   23.6310   43.0760 H   0  0  0  0  0  0  0  0  0  0  0  0
   37.6030   24.2680   40.9590 H   0  0  0  0  0  0  0  0  0  0  0  0
   38.8850   23.0720   40.6510 H   0  0  0  0  0  0  0  0  0  0  0  0
   39.3680   25.1460   39.5750 H   0  0  0  0  0  0  0  0  0  0  0  0
   40.6240   24.6440   40.7180 H   0  0  0  0  0  0  0  0  0  0  0  0
   36.7140   31.4450   38.7090 O   0  0  0  0  0  0  0  0  0  0  0  0
   37.5490   32.0220   39.4740 C   0  0  0  0  0  0  0  0  0  0  0  0
   38.9530   31.6430   39.7630 C   0  0  1  0  0  3  0  0  0  0  0  0
   39.3580   32.6400   40.8210 C   0  0  0  0  0  3  0  0  0  0  0  0
   40.4310   32.9560   40.7310 H   0  0  0  0  0  0  0  0  0  0  0  0
   38.4580   33.8480   40.5330 C   0  0  0  0  0  3  0  0  0  0  0  0
   38.3430   34.5100   41.3930 H   0  0  0  0  0  0  0  0  0  0  0  0
   37.1970   33.2000   40.2020 N   0  0  0  0  0  0  0  0  0  0  0  0
   36.2590   33.6030   40.4900 H   0  0  0  0  0  0  0  0  0  0  0  0
  1  7  1  0  0  0  0
  2  9  1  0  0  0  0
  2  1  2  0  0  0  0
  3  2  1  0  0  0  0
  4  3  2  0  0  0  0
  4  5  1  0  0  0  0
  5  6  2  0  0  0  0
  6  1  1  0  0  0  0
  8  3  1  0  0  0  0
  9 10  1  0  0  0  0
 10 15  1  0  0  0  0
 10 11  1  0  0  0  0
 10 16  1  0  0  0  0
 11 17  1  0  0  0  0
 12 19  1  0  0  0  0
 12 11  1  0  0  0  0
 13 12  1  0  0  0  0
 14 23  1  0  0  0  0
 14 13  1  0  0  0  0
 14  9  1  0  0  0  0
 18 11  1  0  0  0  0
 20 13  1  0  0  0  0
 21 13  1  0  0  0  0
 22 14  1  0  0  0  0
 24 25  2  0  0  0  0
 25 26  1  0  0  0  0
 25 31  1  0  0  0  0
 26  5  1  1  0  0  0
 26 27  1  0  0  0  0
 28 27  1  0  0  0  0
 29 27  1  0  0  0  0
 29 30  1  0  0  0  0
 31 32  1  0  0  0  0
 31 29  1  0  0  0  0
M  END
>  <minimizedAffinity>
-4.53081083

$$$$

 OpenBabel03242518243D

 32 34  0  0  1  0  0  0  0  0999 V2000
   39.3020   29.3230   40.3350 C   0  0  0  0  0  0  0  0  0  0  0  0
   38.6460   30.4720   40.7590 C   0  0  0  0  0  0  0  0  0  0  0  0
   37.4250   30.3300   41.3990 C   0  0  0  0  0  0  0  0  0  0  0  0
   36.9160   29.0830   41.5880 N   0  0  0  0  0  0  0  0  0  0  0  0
   37.5700   27.9850   41.1670 C   0  0  0  0  0  0  0  0  0  0  0  0
   38.7580   28.1080   40.5440 N   0  0  0  0  0  0  0  0  0  0  0  0
   40.2490   29.2400   39.8260 H   0  0  0  0  0  0  0  0  0  0  0  0
   36.9510   31.2280   41.7100 H   0  0  0  0  0  0  0  0  0  0  0  0
   39.3040   31.7060   40.4900 N   0  0  0  0  0  0  0  0  0  0  0  0
   38.5680   32.9110   40.7540 C   0  0  0  0  0  0  0  0  0  0  0  0
   39.3250   34.1610   40.4480 C   0  0  0  0  0  0  0  0  0  0  0  0
   40.6700   34.1520   40.8790 N   0  0  0  0  0  0  0  0  0  0  0  0
   41.3820   32.9370   40.7920 C   0  0  0  0  0  0  0  0  0  0  0  0
   40.6270   31.9000   39.9800 C   0  0  0  0  0  0  0  0  0  0  0  0
   37.6720   32.8900   40.0940 H   0  0  0  0  0  0  0  0  0  0  0  0
   38.1770   32.8920   41.7980 H   0  0  0  0  0  0  0  0  0  0  0  0
   38.7930   35.0010   40.9690 H   0  0  0  0  0  0  0  0  0  0  0  0
   39.3100   34.3860   39.3600 H   0  0  0  0  0  0  0  0  0  0  0  0
   40.8070   34.5650   41.8450 H   0  0  0  0  0  0  0  0  0  0  0  0
   41.7120   32.5120   41.7630 H   0  0  0  0  0  0  0  0  0  0  0  0
   42.3320   33.1460   40.2200 H   0  0  0  0  0  0  0  0  0  0  0  0
   41.2710   31.0320   39.9150 H   0  0  0  0  0  0  0  0  0  0  0  0
   40.5410   32.3240   38.9490 H   0  0  0  0  0  0  0  0  0  0  0  0
   36.2990   26.1230   39.0870 O   0  0  0  0  0  0  0  0  0  0  0  0
   36.8130   25.8330   40.2120 C   0  0  0  0  0  0  0  0  0  0  0  0
   36.9270   26.6810   41.4220 C   0  0  1  0  0  3  0  0  0  0  0  0
   37.7290   25.8140   42.3630 C   0  0  0  0  0  3  0  0  0  0  0  0
   37.4150   25.9310   43.4340 H   0  0  0  0  0  0  0  0  0  0  0  0
   37.3990   24.3900   41.9010 C   0  0  0  0  0  3  0  0  0  0  0  0
   38.1460   23.6570   42.2090 H   0  0  0  0  0  0  0  0  0  0  0  0
   37.3870   24.5470   40.4540 N   0  0  0  0  0  0  0  0  0  0  0  0
   37.7550   23.7980   39.7990 H   0  0  0  0  0  0  0  0  0  0  0  0
  1  6  2  0  0  0  0
  1  2  1  0  0  0  0
  2  3  2  0  0  0  0
  3  4  1  0  0  0  0
  3  8  1  0  0  0  0
  5  4  2  0  0  0  0
  6  5  1  0  0  0  0
  7  1  1  0  0  0  0
  9 10  1  0  0  0  0
  9  2  1  0  0  0  0
 10 16  1  0  0  0  0
 11 10  1  0  0  0  0
 11 12  1  0  0  0  0
 11 17  1  0  0  0  0
 12 19  1  0  0  0  0
 13 12  1  0  0  0  0
 13 20  1  0  0  0  0
 14  9  1  0  0  0  0
 14 13  1  0  0  0  0
 15 10  1  0  0  0  0
 18 11  1  0  0  0  0
 21 13  1  0  0  0  0
 22 14  1  0  0  0  0
 23 14  1  0  0  0  0
 24 25  2  0  0  0  0
 25 31  1  0  0  0  0
 25 26  1  0  0  0  0
 26  5  1  6  0  0  0
 26 27  1  0  0  0  0
 27 28  1  0  0  0  0
 29 30  1  0  0  0  0
 29 27  1  0  0  0  0
 31 29  1  0  0  0  0
 32 31  1  0  0  0  0
M  END
>  <minimizedAffinity>
-4.41723347

$$$$

 OpenBabel03242518243D

 32 34  0  0  1  0  0  0  0  0999 V2000
   41.6830   30.7400   38.7960 C   0  0  0  0  0  0  0  0  0  0  0  0
   42.4820   31.8700   38.6760 C   0  0  0  0  0  0  0  0  0  0  0  0
   42.0700   33.0330   39.3070 C   0  0  0  0  0  0  0  0  0  0  0  0
   40.9100   33.0270   40.0170 N   0  0  0  0  0  0  0  0  0  0  0  0
   40.1530   31.9180   40.1180 C   0  0  0  0  0  0  0  0  0  0  0  0
   40.5410   30.7820   39.5090 N   0  0  0  0  0  0  0  0  0  0  0  0
   41.8430   29.7580   38.3780 H   0  0  0  0  0  0  0  0  0  0  0  0
   42.7040   33.8780   39.1950 H   0  0  0  0  0  0  0  0  0  0  0  0
   43.6680   31.7220   37.9000 N   0  0  0  0  0  0  0  0  0  0  0  0
   43.5440   31.0400   36.6410 C   0  0  0  0  0  0  0  0  0  0  0  0
   44.8280   30.9270   35.8870 C   0  0  0  0  0  0  0  0  0  0  0  0
   45.6090   32.1040   35.8780 N   0  0  0  0  0  0  0  0  0  0  0  0
   45.6230   32.8940   37.0460 C   0  0  0  0  0  0  0  0  0  0  0  0
   44.9870   32.1720   38.2210 C   0  0  0  0  0  0  0  0  0  0  0  0
   43.1950   30.0090   36.8690 H   0  0  0  0  0  0  0  0  0  0  0  0
   42.7330   31.5100   36.0360 H   0  0  0  0  0  0  0  0  0  0  0  0
   44.5620   30.6720   34.8270 H   0  0  0  0  0  0  0  0  0  0  0  0
   45.4540   30.0960   36.2790 H   0  0  0  0  0  0  0  0  0  0  0  0
   45.4240   32.7260   35.0400 H   0  0  0  0  0  0  0  0  0  0  0  0
   45.1950   33.9130   36.9330 H   0  0  0  0  0  0  0  0  0  0  0  0
   46.7030   33.0540   37.3290 H   0  0  0  0  0  0  0  0  0  0  0  0
   45.0980   32.8240   39.0790 H   0  0  0  0  0  0  0  0  0  0  0  0
   45.6240   31.2720   38.4060 H   0  0  0  0  0  0  0  0  0  0  0  0
   38.0650   34.1610   39.9800 O   0  0  0  0  0  0  0  0  0  0  0  0
   37.9140   32.9480   40.3250 C   0  0  0  0  0  0  0  0  0  0  0  0
   38.9120   32.0220   40.9120 C   0  0  1  0  0  3  0  0  0  0  0  0
   38.1580   30.7170   40.9820 C   0  0  0  0  0  3  0  0  0  0  0  0
   38.4260   30.1090   41.8860 H   0  0  0  0  0  0  0  0  0  0  0  0
   36.6940   31.1590   41.0950 C   0  0  0  0  0  3  0  0  0  0  0  0
   35.9890   30.3820   40.7920 H   0  0  0  0  0  0  0  0  0  0  0  0
   36.6570   32.2850   40.1740 N   0  0  0  0  0  0  0  0  0  0  0  0
   35.8180   32.4870   39.5580 H   0  0  0  0  0  0  0  0  0  0  0  0
  1  6  1  0  0  0  0
  2  1  2  0  0  0  0
  2  3  1  0  0  0  0
  3  4  2  0  0  0  0
  4  5  1  0  0  0  0
  6  5  2  0  0  0  0
  7  1  1  0  0  0  0
  8  3  1  0  0  0  0
  9 14  1  0  0  0  0
  9  2  1  0  0  0  0
 10 15  1  0  0  0  0
 10  9  1  0  0  0  0
 11 18  1  0  0  0  0
 11 10  1  0  0  0  0
 12 11  1  0  0  0  0
 12 13  1  0  0  0  0
 13 21  1  0  0  0  0
 13 14  1  0  0  0  0
 14 23  1  0  0  0  0
 14 22  1  0  0  0  0
 16 10  1  0  0  0  0
 17 11  1  0  0  0  0
 19 12  1  0  0  0  0
 20 13  1  0  0  0  0
 24 25  2  0  0  0  0
 25 26  1  0  0  0  0
 26  5  1  6  0  0  0
 26 27  1  0  0  0  0
 27 29  1  0  0  0  0
 27 28  1  0  0  0  0
 30 29  1  0  0  0  0
 31 25  1  0  0  0  0
 31 29  1  0  0  0  0
 32 31  1  0  0  0  0
M  END
>  <minimizedAffinity>
-4.39350986

$$$$

 OpenBabel03242518243D

 32 34  0  0  1  0  0  0  0  0999 V2000
   41.0770   30.0350   39.0160 C   0  0  0  0  0  0  0  0  0  0  0  0
   41.0510   31.4180   38.8800 C   0  0  0  0  0  0  0  0  0  0  0  0
   39.8580   32.0780   39.1280 C   0  0  0  0  0  0  0  0  0  0  0  0
   38.7650   31.3560   39.4940 N   0  0  0  0  0  0  0  0  0  0  0  0
   38.8150   30.0170   39.6190 C   0  0  0  0  0  0  0  0  0  0  0  0
   39.9670   29.3630   39.3800 N   0  0  0  0  0  0  0  0  0  0  0  0
   41.9060   29.3610   38.8660 H   0  0  0  0  0  0  0  0  0  0  0  0
   39.8730   33.1340   39.0150 H   0  0  0  0  0  0  0  0  0  0  0  0
   42.2750   32.0330   38.4900 N   0  0  0  0  0  0  0  0  0  0  0  0
   43.0070   31.4130   37.4200 C   0  0  0  0  0  0  0  0  0  0  0  0
   44.2760   32.1170   37.0690 C   0  0  0  0  0  0  0  0  0  0  0  0
   44.1690   33.5240   37.0110 N   0  0  0  0  0  0  0  0  0  0  0  0
   43.3240   34.1610   37.9430 C   0  0  0  0  0  0  0  0  0  0  0  0
   42.8790   33.2090   39.0390 C   0  0  0  0  0  0  0  0  0  0  0  0
   43.2740   30.3900   37.7660 H   0  0  0  0  0  0  0  0  0  0  0  0
   42.3380   31.2720   36.5390 H   0  0  0  0  0  0  0  0  0  0  0  0
   44.5870   31.7440   36.0570 H   0  0  0  0  0  0  0  0  0  0  0  0
   45.0910   31.8590   37.7800 H   0  0  0  0  0  0  0  0  0  0  0  0
   43.9530   33.8910   36.0400 H   0  0  0  0  0  0  0  0  0  0  0  0
   42.4520   34.6910   37.5060 H   0  0  0  0  0  0  0  0  0  0  0  0
   43.9330   34.9600   38.4570 H   0  0  0  0  0  0  0  0  0  0  0  0
   42.2910   33.7940   39.7360 H   0  0  0  0  0  0  0  0  0  0  0  0
   43.8120   32.9010   39.5730 H   0  0  0  0  0  0  0  0  0  0  0  0
   37.6780   29.7860   42.4580 O   0  0  0  0  0  0  0  0  0  0  0  0
   37.0630   29.7610   41.3460 C   0  0  0  0  0  0  0  0  0  0  0  0
   37.5700   29.3330   40.0200 C   0  0  1  0  0  3  0  0  0  0  0  0
   36.4140   29.6480   39.1020 C   0  0  0  0  0  3  0  0  0  0  0  0
   36.2990   28.9000   38.2750 H   0  0  0  0  0  0  0  0  0  0  0  0
   35.1930   29.5590   40.0270 C   0  0  0  0  0  3  0  0  0  0  0  0
   34.3270   30.1010   39.6440 H   0  0  0  0  0  0  0  0  0  0  0  0
   35.7010   30.1780   41.2420 N   0  0  0  0  0  0  0  0  0  0  0  0
   35.0990   30.7970   41.8580 H   0  0  0  0  0  0  0  0  0  0  0  0
  1  6  1  0  0  0  0
  2  1  2  0  0  0  0
  2  3  1  0  0  0  0
  3  4  2  0  0  0  0
  4  5  1  0  0  0  0
  6  5  2  0  0  0  0
  7  1  1  0  0  0  0
  8  3  1  0  0  0  0
  9  2  1  0  0  0  0
  9 14  1  0  0  0  0
 10 15  1  0  0  0  0
 10  9  1  0  0  0  0
 11 10  1  0  0  0  0
 11 18  1  0  0  0  0
 12 11  1  0  0  0  0
 12 13  1  0  0  0  0
 13 21  1  0  0  0  0
 13 14  1  0  0  0  0
 14 23  1  0  0  0  0
 14 22  1  0  0  0  0
 16 10  1  0  0  0  0
 17 11  1  0  0  0  0
 19 12  1  0  0  0  0
 20 13  1  0  0  0  0
 25 24  2  0  0  0  0
 26  5  1  6  0  0  0
 26 25  1  0  0  0  0
 27 26  1  0  0  0  0
 27 29  1  0  0  0  0
 28 27  1  0  0  0  0
 29 31  1  0  0  0  0
 30 29  1  0  0  0  0
 31 25  1  0  0  0  0
 31 32  1  0  0  0  0
M  END
>  <minimizedAffinity>
-4.38449383

$$$$

 OpenBabel03242518243D

 32 34  0  0  1  0  0  0  0  0999 V2000
   37.2610   29.1760   41.0220 C   0  0  0  0  0  0  0  0  0  0  0  0
   37.6220   28.9480   39.7000 C   0  0  0  0  0  0  0  0  0  0  0  0
   38.1720   27.7180   39.3750 C   0  0  0  0  0  0  0  0  0  0  0  0
   38.3340   26.7850   40.3510 N   0  0  0  0  0  0  0  0  0  0  0  0
   37.9760   27.0300   41.6250 C   0  0  0  0  0  0  0  0  0  0  0  0
   37.4420   28.2210   41.9550 N   0  0  0  0  0  0  0  0  0  0  0  0
   36.8240   30.0620   41.4550 H   0  0  0  0  0  0  0  0  0  0  0  0
   38.4370   27.5770   38.3560 H   0  0  0  0  0  0  0  0  0  0  0  0
   37.3910   30.0210   38.7920 N   0  0  0  0  0  0  0  0  0  0  0  0
   38.0500   31.2680   39.0710 C   0  0  0  0  0  0  0  0  0  0  0  0
   37.7600   32.3400   38.0740 C   0  0  0  0  0  0  0  0  0  0  0  0
   37.7890   31.9140   36.7280 N   0  0  0  0  0  0  0  0  0  0  0  0
   37.3030   30.6230   36.4350 C   0  0  0  0  0  0  0  0  0  0  0  0
   36.5720   30.0150   37.6190 C   0  0  0  0  0  0  0  0  0  0  0  0
   37.6730   31.6140   40.0590 H   0  0  0  0  0  0  0  0  0  0  0  0
   39.1430   31.0930   39.2060 H   0  0  0  0  0  0  0  0  0  0  0  0
   38.5430   33.1330   38.2100 H   0  0  0  0  0  0  0  0  0  0  0  0
   36.7730   32.8150   38.2680 H   0  0  0  0  0  0  0  0  0  0  0  0
   38.7340   32.0420   36.2650 H   0  0  0  0  0  0  0  0  0  0  0  0
   38.0570   29.9140   36.0330 H   0  0  0  0  0  0  0  0  0  0  0  0
   36.5310   30.7320   35.6190 H   0  0  0  0  0  0  0  0  0  0  0  0
   36.1840   29.0610   37.2850 H   0  0  0  0  0  0  0  0  0  0  0  0
   35.6930   30.6800   37.8080 H   0  0  0  0  0  0  0  0  0  0  0  0
   36.6060   24.2860   41.6730 O   0  0  0  0  0  0  0  0  0  0  0  0
   37.7450   24.6190   42.1270 C   0  0  0  0  0  0  0  0  0  0  0  0
   38.1970   25.9480   42.6050 C   0  0  1  0  0  3  0  0  0  0  0  0
   39.6610   25.7200   42.8950 C   0  0  0  0  0  3  0  0  0  0  0  0
   40.0230   26.3000   43.7840 H   0  0  0  0  0  0  0  0  0  0  0  0
   39.7280   24.2220   43.2180 C   0  0  0  0  0  3  0  0  0  0  0  0
   40.7290   23.8030   43.0950 H   0  0  0  0  0  0  0  0  0  0  0  0
   38.8070   23.6690   42.2360 N   0  0  0  0  0  0  0  0  0  0  0  0
   38.9810   22.7400   41.7550 H   0  0  0  0  0  0  0  0  0  0  0  0
  1  7  1  0  0  0  0
  1  6  1  0  0  0  0
  2  1  2  0  0  0  0
  3  2  1  0  0  0  0
  3  4  2  0  0  0  0
  4  5  1  0  0  0  0
  5  6  2  0  0  0  0
  8  3  1  0  0  0  0
  9 10  1  0  0  0  0
  9  2  1  0  0  0  0
 10 16  1  0  0  0  0
 10 15  1  0  0  0  0
 11 17  1  0  0  0  0
 11 18  1  0  0  0  0
 11 10  1  0  0  0  0
 12 11  1  0  0  0  0
 13 12  1  0  0  0  0
 13 14  1  0  0  0  0
 14 23  1  0  0  0  0
 14  9  1  0  0  0  0
 19 12  1  0  0  0  0
 20 13  1  0  0  0  0
 21 13  1  0  0  0  0
 22 14  1  0  0  0  0
 24 25  2  0  0  0  0
 25 31  1  0  0  0  0
 25 26  1  0  0  0  0
 26  5  1  6  0  0  0
 26 27  1  0  0  0  0
 27 29  1  0  0  0  0
 27 28  1  0  0  0  0
 30 29  1  0  0  0  0
 31 29  1  0  0  0  0
 32 31  1  0  0  0  0
M  END
>  <minimizedAffinity>
-4.35023594

$$$$
