
 OpenBabel03252508233D

 48 51  0  0  1  0  0  0  0  0999 V2000
   45.5940   34.4270   41.2640 C   0  0  0  0  0  0  0  0  0  0  0  0
   46.2830   35.0980   42.2520 C   0  0  0  0  0  0  0  0  0  0  0  0
   45.6950   35.7600   43.2990 C   0  0  0  0  0  0  0  0  0  0  0  0
   44.2940   35.7270   43.3280 C   0  0  0  0  0  0  0  0  0  0  0  0
   43.5590   35.0750   42.3740 C   0  0  0  0  0  0  0  0  0  0  0  0
   44.1900   34.4300   41.3510 C   0  0  0  0  0  0  0  0  0  0  0  0
   47.3600   35.1580   42.3050 H   0  0  0  0  0  0  0  0  0  0  0  0
   46.2080   36.2910   44.0800 H   0  0  0  0  0  0  0  0  0  0  0  0
   43.7680   36.2410   44.1420 H   0  0  0  0  0  0  0  0  0  0  0  0
   42.4760   35.0990   42.4730 H   0  0  0  0  0  0  0  0  0  0  0  0
   43.3490   33.7820   40.4240 N   0  0  0  0  0  0  0  0  0  0  0  0
   42.8340   34.3940   39.2350 C   0  0  0  0  0  0  0  0  0  0  0  0
   42.3890   33.3490   38.2300 C   0  0  0  0  0  0  0  0  0  0  0  0
   43.2170   32.1910   38.1670 N   0  0  0  0  0  0  0  0  0  0  0  0
   43.4410   31.5560   39.4140 C   0  0  0  0  0  0  0  0  0  0  0  0
   42.8750   32.3940   40.5350 C   0  0  0  0  0  0  0  0  0  0  0  0
   43.4020   35.2100   38.8040 H   0  0  0  0  0  0  0  0  0  0  0  0
   41.8640   34.8750   39.5670 H   0  0  0  0  0  0  0  0  0  0  0  0
   42.4450   33.8390   37.2280 H   0  0  0  0  0  0  0  0  0  0  0  0
   41.3310   33.0190   38.4000 H   0  0  0  0  0  0  0  0  0  0  0  0
   42.8530   31.5950   37.4190 H   0  0  0  0  0  0  0  0  0  0  0  0
   43.0280   30.5440   39.5060 H   0  0  0  0  0  0  0  0  0  0  0  0
   44.5520   31.5100   39.5760 H   0  0  0  0  0  0  0  0  0  0  0  0
   41.7790   32.3910   40.4630 H   0  0  0  0  0  0  0  0  0  0  0  0
   43.1810   31.9720   41.5030 H   0  0  0  0  0  0  0  0  0  0  0  0
   46.2290   33.7230   40.1460 C   0  0  0  0  0  0  0  0  0  0  0  0
   45.6470   33.7180   39.2220 H   0  0  0  0  0  0  0  0  0  0  0  0
   46.2630   32.6390   40.4630 H   0  0  0  0  0  0  0  0  0  0  0  0
   47.6230   34.2490   39.8790 C   0  0  0  0  0  0  0  0  0  0  0  0
   47.7030   35.3110   39.7140 H   0  0  0  0  0  0  0  0  0  0  0  0
   48.2800   33.9080   40.7330 H   0  0  0  0  0  0  0  0  0  0  0  0
   48.2900   33.2460   36.2990 C   0  0  0  0  0  0  0  0  0  0  0  0
   47.7340   33.9120   37.4150 C   0  0  0  0  0  0  0  0  0  0  0  0
   48.1820   33.5620   38.6890 C   0  0  0  0  0  0  0  0  0  0  0  0
   49.1400   32.5890   38.7890 N   0  0  0  0  0  0  0  0  0  0  0  0
   49.6440   31.9790   37.7050 C   0  0  0  0  0  0  0  0  0  0  0  0
   49.2230   32.3040   36.4670 N   0  0  0  0  0  0  0  0  0  0  0  0
   47.9100   33.5520   35.3330 H   0  0  0  0  0  0  0  0  0  0  0  0
   46.9870   34.6650   37.2590 H   0  0  0  0  0  0  0  0  0  0  0  0
   52.8640   32.0600   37.8040 O   0  0  0  0  0  0  0  0  0  0  0  0
   51.9550   31.3870   38.3800 C   0  0  0  0  0  0  0  0  0  0  0  0
   50.6880   30.9180   37.8150 C   0  0  1  0  0  3  0  0  0  0  0  0
   50.2420   29.8170   38.7620 C   0  0  0  0  0  3  0  0  0  0  0  0
   49.1180   29.8140   38.7740 H   0  0  0  0  0  0  0  0  0  0  0  0
   50.8430   30.1600   40.1020 C   0  0  0  0  0  3  0  0  0  0  0  0
   50.1270   30.8330   40.6250 H   0  0  0  0  0  0  0  0  0  0  0  0
   52.0030   30.9500   39.7350 N   0  0  0  0  0  0  0  0  0  0  0  0
   52.7780   31.1560   40.4290 H   0  0  0  0  0  0  0  0  0  0  0  0
  1  6  2  0  0  0  0
  1  2  1  0  0  0  0
  2  7  1  0  0  0  0
  2  3  2  0  0  0  0
  3  4  1  0  0  0  0
  3  8  1  0  0  0  0
  4  9  1  0  0  0  0
  5 10  1  0  0  0  0
  5  4  2  0  0  0  0
  6  5  1  0  0  0  0
 11 16  1  0  0  0  0
 11  6  1  0  0  0  0
 12 18  1  0  0  0  0
 12 11  1  0  0  0  0
 13 20  1  0  0  0  0
 13 12  1  0  0  0  0
 14 13  1  0  0  0  0
 14 15  1  0  0  0  0
 15 22  1  0  0  0  0
 15 23  1  0  0  0  0
 15 16  1  0  0  0  0
 16 25  1  0  0  0  0
 17 12  1  0  0  0  0
 19 13  1  0  0  0  0
 21 14  1  0  0  0  0
 24 16  1  0  0  0  0
 26 28  1  0  0  0  0
 26  1  1  0  0  0  0
 27 26  1  0  0  0  0
 29 26  1  0  0  0  0
 29 31  1  0  0  0  0
 30 29  1  0  0  0  0
 32 37  2  0  0  0  0
 32 33  1  0  0  0  0
 33 34  2  0  0  0  0
 34 35  1  0  0  0  0
 34 29  1  0  0  0  0
 36 35  2  0  0  0  0
 37 36  1  0  0  0  0
 38 32  1  0  0  0  0
 39 33  1  0  0  0  0
 40 41  2  0  0  0  0
 41 47  1  0  0  0  0
 42 36  1  1  0  0  0
 42 41  1  0  0  0  0
 42 43  1  0  0  0  0
 43 44  1  0  0  0  0
 43 45  1  0  0  0  0
 45 46  1  0  0  0  0
 47 45  1  0  0  0  0
 47 48  1  0  0  0  0
M  END
>  <minimizedAffinity>
-4.77651739

>  <minimizedRMSD>
8.43389797

$$$$
