
 OpenBabel03242517373D

 33 35  0  0  1  0  0  0  0  0999 V2000
   44.6870   35.5650   43.0660 C   0  0  0  0  0  0  0  0  0  0  0  0
   43.8120   34.8870   42.2410 C   0  0  0  0  0  0  0  0  0  0  0  0
   43.9220   33.5120   42.1630 C   0  0  0  0  0  0  0  0  0  0  0  0
   44.8740   32.8540   42.8890 N   0  0  0  0  0  0  0  0  0  0  0  0
   45.7240   33.5630   43.6960 C   0  0  0  0  0  0  0  0  0  0  0  0
   45.6240   34.8950   43.7770 N   0  0  0  0  0  0  0  0  0  0  0  0
   44.5260   36.6400   43.0630 H   0  0  0  0  0  0  0  0  0  0  0  0
   43.2900   32.8580   41.5480 H   0  0  0  0  0  0  0  0  0  0  0  0
   46.6820   30.5640   43.7640 O   0  0  0  0  0  0  0  0  0  0  0  0
   46.3210   31.4390   44.5630 C   0  0  0  0  0  0  0  0  0  0  0  0
   46.7740   32.8720   44.4990 C   0  0  2  0  0  0  0  0  0  0  0  0
   46.6850   33.2650   45.9420 C   0  0  0  0  0  0  0  0  0  0  0  0
   47.6480   33.2260   46.4790 H   0  0  0  0  0  0  0  0  0  0  0  0
   45.6130   32.4110   46.5670 C   0  0  0  0  0  0  0  0  0  0  0  0
   44.6480   32.9470   46.6870 H   0  0  0  0  0  0  0  0  0  0  0  0
   45.4400   31.2870   45.6680 N   0  0  0  0  0  0  0  0  0  0  0  0
   44.7610   30.5190   45.8550 H   0  0  0  0  0  0  0  0  0  0  0  0
   42.7800   35.5370   41.4480 C   0  0  0  0  0  0  0  0  0  0  0  0
   41.4860   35.4700   41.6590 C   0  0  0  0  0  0  0  0  0  0  0  0
   40.4910   36.1780   40.7840 C   0  0  0  0  0  0  0  0  0  0  0  0
   41.1120   36.8700   40.1590 H   0  0  0  0  0  0  0  0  0  0  0  0
   39.7470   36.7470   41.3650 H   0  0  0  0  0  0  0  0  0  0  0  0
   39.8600   35.2180   39.8420 C   0  0  0  0  0  0  0  0  0  0  0  0
   40.2780   35.2030   38.5110 C   0  0  0  0  0  0  0  0  0  0  0  0
   39.6930   34.3100   37.6280 C   0  0  0  0  0  0  0  0  0  0  0  0
   38.6950   33.4220   38.0350 C   0  0  0  0  0  0  0  0  0  0  0  0
   38.2740   33.4310   39.3570 C   0  0  0  0  0  0  0  0  0  0  0  0
   38.8700   34.3290   40.2190 C   0  0  0  0  0  0  0  0  0  0  0  0
   41.0440   35.8550   38.1150 H   0  0  0  0  0  0  0  0  0  0  0  0
   39.9670   34.2430   36.5890 H   0  0  0  0  0  0  0  0  0  0  0  0
   38.2150   32.7140   37.3840 H   0  0  0  0  0  0  0  0  0  0  0  0
   37.5110   32.7640   39.6980 H   0  0  0  0  0  0  0  0  0  0  0  0
   38.5260   34.3150   41.2350 H   0  0  0  0  0  0  0  0  0  0  0  0
  1  6  1  0  0  0  0
  2  1  2  0  0  0  0
  3  2  1  0  0  0  0
  3  4  2  0  0  0  0
  4  5  1  0  0  0  0
  5  6  2  0  0  0  0
  7  1  1  0  0  0  0
  8  3  1  0  0  0  0
  9 10  2  0  0  0  0
 10 16  1  0  0  0  0
 11  5  1  6  0  0  0
 11 10  1  0  0  0  0
 11 12  1  0  0  0  0
 12 13  1  0  0  0  0
 12 14  1  0  0  0  0
 14 15  1  0  0  0  0
 16 17  1  0  0  0  0
 16 14  1  0  0  0  0
 18 19  2  0  0  0  0
 18  2  1  0  0  0  0
 20 22  1  0  0  0  0
 20 19  1  0  0  0  0
 21 20  1  0  0  0  0
 23 28  1  0  0  0  0
 23 20  1  0  0  0  0
 24 23  2  0  0  0  0
 25 26  2  0  0  0  0
 25 24  1  0  0  0  0
 26 27  1  0  0  0  0
 27 32  1  0  0  0  0
 27 28  2  0  0  0  0
 28 33  1  0  0  0  0
 29 24  1  0  0  0  0
 30 25  1  0  0  0  0
 31 26  1  0  0  0  0
M  END
>  <minimizedAffinity>
-6.11603403

>  <minimizedRMSD>
1.7085855

$$$$
