
 OpenBabel03252508233D

 48 51  0  0  1  0  0  0  0  0999 V2000
   45.0100   34.1100   40.7180 C   0  0  0  0  0  0  0  0  0  0  0  0
   46.0560   34.4050   41.5660 C   0  0  0  0  0  0  0  0  0  0  0  0
   45.9790   35.2720   42.6260 C   0  0  0  0  0  0  0  0  0  0  0  0
   44.7310   35.8790   42.8250 C   0  0  0  0  0  0  0  0  0  0  0  0
   43.6580   35.6220   42.0140 C   0  0  0  0  0  0  0  0  0  0  0  0
   43.7830   34.7520   40.9720 C   0  0  0  0  0  0  0  0  0  0  0  0
   47.0410   33.9710   41.4860 H   0  0  0  0  0  0  0  0  0  0  0  0
   46.7780   35.5190   43.3000 H   0  0  0  0  0  0  0  0  0  0  0  0
   44.6100   36.5830   43.6570 H   0  0  0  0  0  0  0  0  0  0  0  0
   42.7260   36.1360   42.2390 H   0  0  0  0  0  0  0  0  0  0  0  0
   42.6220   34.5470   40.2010 N   0  0  0  0  0  0  0  0  0  0  0  0
   42.2470   35.3500   39.0750 C   0  0  0  0  0  0  0  0  0  0  0  0
   41.2600   34.6210   38.1850 C   0  0  0  0  0  0  0  0  0  0  0  0
   41.4990   33.2230   38.0490 N   0  0  0  0  0  0  0  0  0  0  0  0
   41.6120   32.5200   39.2750 C   0  0  0  0  0  0  0  0  0  0  0  0
   41.6250   33.4900   40.4320 C   0  0  0  0  0  0  0  0  0  0  0  0
   43.0380   35.8580   38.5350 H   0  0  0  0  0  0  0  0  0  0  0  0
   41.6330   36.1900   39.5220 H   0  0  0  0  0  0  0  0  0  0  0  0
   41.3720   35.0660   37.1670 H   0  0  0  0  0  0  0  0  0  0  0  0
   40.1990   34.7680   38.5170 H   0  0  0  0  0  0  0  0  0  0  0  0
   40.8120   32.8580   37.3850 H   0  0  0  0  0  0  0  0  0  0  0  0
   40.8270   31.7780   39.4640 H   0  0  0  0  0  0  0  0  0  0  0  0
   42.6090   32.0020   39.2780 H   0  0  0  0  0  0  0  0  0  0  0  0
   40.6340   33.9550   40.5170 H   0  0  0  0  0  0  0  0  0  0  0  0
   41.8600   32.9540   41.3620 H   0  0  0  0  0  0  0  0  0  0  0  0
   45.0990   33.1850   39.5850 C   0  0  0  0  0  0  0  0  0  0  0  0
   44.9390   33.6440   38.6080 H   0  0  0  0  0  0  0  0  0  0  0  0
   44.2250   32.4800   39.7130 H   0  0  0  0  0  0  0  0  0  0  0  0
   46.4080   32.4250   39.5920 C   0  0  0  0  0  0  0  0  0  0  0  0
   47.0600   32.6130   40.4300 H   0  0  0  0  0  0  0  0  0  0  0  0
   46.1590   31.3260   39.4960 H   0  0  0  0  0  0  0  0  0  0  0  0
   48.7210   34.1180   37.1330 C   0  0  0  0  0  0  0  0  0  0  0  0
   48.0110   33.8460   38.3250 C   0  0  0  0  0  0  0  0  0  0  0  0
   47.1610   32.7410   38.3540 C   0  0  0  0  0  0  0  0  0  0  0  0
   47.0600   31.9770   37.2220 N   0  0  0  0  0  0  0  0  0  0  0  0
   47.7510   32.2680   36.1090 C   0  0  0  0  0  0  0  0  0  0  0  0
   48.5770   33.3320   36.0620 N   0  0  0  0  0  0  0  0  0  0  0  0
   49.3670   34.9860   37.1590 H   0  0  0  0  0  0  0  0  0  0  0  0
   48.1410   34.4900   39.1720 H   0  0  0  0  0  0  0  0  0  0  0  0
   47.7340   29.0860   35.5950 O   0  0  0  0  0  0  0  0  0  0  0  0
   47.1180   30.0880   35.1130 C   0  0  0  0  0  0  0  0  0  0  0  0
   47.6400   31.4350   34.8750 C   0  0  1  0  0  3  0  0  0  0  0  0
   46.6560   32.0490   33.8950 C   0  0  0  0  0  3  0  0  0  0  0  0
   46.6160   33.1540   34.0990 H   0  0  0  0  0  0  0  0  0  0  0  0
   45.3400   31.3570   34.1480 C   0  0  0  0  0  3  0  0  0  0  0  0
   44.8160   31.9210   34.9510 H   0  0  0  0  0  0  0  0  0  0  0  0
   45.7540   30.0810   34.7020 N   0  0  0  0  0  0  0  0  0  0  0  0
   45.0850   29.2620   34.7740 H   0  0  0  0  0  0  0  0  0  0  0  0
  1  6  2  0  0  0  0
  1  2  1  0  0  0  0
  2  3  2  0  0  0  0
  3  4  1  0  0  0  0
  3  8  1  0  0  0  0
  4  9  1  0  0  0  0
  5 10  1  0  0  0  0
  5  4  2  0  0  0  0
  6  5  1  0  0  0  0
  7  2  1  0  0  0  0
 11 16  1  0  0  0  0
 11  6  1  0  0  0  0
 12 18  1  0  0  0  0
 12 11  1  0  0  0  0
 13 20  1  0  0  0  0
 13 12  1  0  0  0  0
 14 13  1  0  0  0  0
 14 15  1  0  0  0  0
 15 23  1  0  0  0  0
 15 22  1  0  0  0  0
 15 16  1  0  0  0  0
 16 24  1  0  0  0  0
 16 25  1  0  0  0  0
 17 12  1  0  0  0  0
 19 13  1  0  0  0  0
 21 14  1  0  0  0  0
 26 29  1  0  0  0  0
 26 28  1  0  0  0  0
 26  1  1  0  0  0  0
 27 26  1  0  0  0  0
 29 30  1  0  0  0  0
 31 29  1  0  0  0  0
 32 38  1  0  0  0  0
 32 33  1  0  0  0  0
 33 34  2  0  0  0  0
 33 39  1  0  0  0  0
 34 29  1  0  0  0  0
 35 34  1  0  0  0  0
 36 35  2  0  0  0  0
 37 36  1  0  0  0  0
 37 32  2  0  0  0  0
 41 40  2  0  0  0  0
 42 41  1  0  0  0  0
 42 36  1  1  0  0  0
 43 44  1  0  0  0  0
 43 45  1  0  0  0  0
 43 42  1  0  0  0  0
 45 47  1  0  0  0  0
 45 46  1  0  0  0  0
 47 48  1  0  0  0  0
 47 41  1  0  0  0  0
M  END
>  <minimizedAffinity>
-5.23188353

>  <minimizedRMSD>
7.69685125

$$$$
