
 OpenBabel03252502103D

 48 52  0  0  1  0  0  0  0  0999 V2000
   36.2760   29.0420   38.2940 C   0  0  0  0  0  0  0  0  0  0  0  0
   35.3570   29.1520   37.3270 N   0  0  0  0  0  0  0  0  0  0  0  0
   34.6800   28.1430   36.7920 C   0  0  0  0  0  0  0  0  0  0  0  0
   34.8990   26.8810   37.2240 N   0  0  0  0  0  0  0  0  0  0  0  0
   35.7920   26.6430   38.1840 C   0  0  0  0  0  0  0  0  0  0  0  0
   36.0180   25.3480   38.6300 C   0  0  0  0  0  0  0  0  0  0  0  0
   36.9360   25.0820   39.6240 C   0  0  0  0  0  0  0  0  0  0  0  0
   37.6230   26.1480   40.1600 C   0  0  0  0  0  0  0  0  0  0  0  0
   37.3540   27.4310   39.6710 C   0  0  0  0  0  0  0  0  0  0  0  0
   36.4580   27.7310   38.6950 C   0  0  0  0  0  0  0  0  0  0  0  0
   33.9510   28.3750   36.0020 H   0  0  0  0  0  0  0  0  0  0  0  0
   35.4550   24.5430   38.1800 H   0  0  0  0  0  0  0  0  0  0  0  0
   37.0560   24.0680   39.9140 H   0  0  0  0  0  0  0  0  0  0  0  0
   36.7970   31.7830   40.5960 C   0  0  0  0  0  0  0  0  0  0  0  0
   37.9930   32.3970   40.2110 C   0  0  0  0  0  0  0  0  0  0  0  0
   38.6540   31.8500   39.1440 C   0  0  0  0  0  0  0  0  0  0  0  0
   38.1430   30.7830   38.5240 N   0  0  0  0  0  0  0  0  0  0  0  0
   37.0180   30.1910   38.8660 C   0  0  0  0  0  0  0  0  0  0  0  0
   36.3500   30.7130   39.9210 N   0  0  0  0  0  0  0  0  0  0  0  0
   39.8470   32.3920   38.7280 N   0  0  0  0  0  0  0  0  0  0  0  0
   40.7310   31.7660   37.7030 C   0  0  0  0  0  0  0  0  0  0  0  0
   41.7390   32.8250   37.3380 C   0  0  0  0  0  0  0  0  0  0  0  0
   41.8280   33.6380   38.5890 C   0  0  0  0  0  0  0  0  0  0  0  0
   40.4590   33.6010   39.1740 C   0  0  0  0  0  0  0  0  0  0  0  0
   36.2380   32.1850   41.4450 H   0  0  0  0  0  0  0  0  0  0  0  0
   41.1600   30.8840   38.1830 H   0  0  0  0  0  0  0  0  0  0  0  0
   40.0940   31.5070   36.8290 H   0  0  0  0  0  0  0  0  0  0  0  0
   41.3540   33.4250   36.4870 H   0  0  0  0  0  0  0  0  0  0  0  0
   42.6860   32.3330   37.0700 H   0  0  0  0  0  0  0  0  0  0  0  0
   42.1960   34.6770   38.4030 H   0  0  0  0  0  0  0  0  0  0  0  0
   42.5830   33.1450   39.2350 H   0  0  0  0  0  0  0  0  0  0  0  0
   40.6630   33.6260   40.2870 H   0  0  0  0  0  0  0  0  0  0  0  0
   39.9280   34.5320   38.8580 H   0  0  0  0  0  0  0  0  0  0  0  0
   38.3850   33.5180   40.8900 N   0  0  0  0  0  0  0  0  0  0  0  0
   38.2960   34.5350   40.6440 H   0  0  0  0  0  0  0  0  0  0  0  0
   38.8290   33.1450   41.7800 H   0  0  0  0  0  0  0  0  0  0  0  0
   40.5610   25.2510   39.6960 O   0  0  0  0  0  0  0  0  0  0  0  0
   39.8900   25.3620   40.7300 C   0  0  0  0  0  0  0  0  0  0  0  0
   38.5920   25.8280   41.2150 C   0  0  2  0  0  3  0  0  0  0  0  0
   38.1910   24.8080   42.2130 C   0  0  0  0  0  3  0  0  0  0  0  0
   37.3720   25.1490   42.8640 H   0  0  0  0  0  0  0  0  0  0  0  0
   39.5000   24.5970   42.9620 C   0  0  0  0  0  3  0  0  0  0  0  0
   39.5830   25.3680   43.7240 H   0  0  0  0  0  0  0  0  0  0  0  0
   40.5180   24.8960   41.9430 N   0  0  0  0  0  0  0  0  0  0  0  0
   41.4950   24.7040   42.3190 H   0  0  0  0  0  0  0  0  0  0  0  0
   38.1620   28.4050   40.3430 N   0  0  0  0  0  0  0  0  0  0  0  0
   37.5870   28.6300   41.1900 H   0  0  0  0  0  0  0  0  0  0  0  0
   39.0840   28.8440   40.1520 H   0  0  0  0  0  0  0  0  0  0  0  0
  1 10  1  0  0  0  0
  1 18  1  0  0  0  0
  2  1  2  0  0  0  0
  3  4  2  0  0  0  0
  3  2  1  0  0  0  0
  4  5  1  0  0  0  0
  5  6  2  0  0  0  0
  5 10  1  0  0  0  0
  6  7  1  0  0  0  0
  7 13  1  0  0  0  0
  7  8  2  0  0  0  0
  9  8  1  0  0  0  0
  9 46  1  0  0  0  0
 10  9  2  0  0  0  0
 11  3  1  0  0  0  0
 12  6  1  0  0  0  0
 14 25  1  0  0  0  0
 15 14  1  0  0  0  0
 15 34  1  0  0  0  0
 16 15  2  0  0  0  0
 17 18  2  0  0  0  0
 17 16  1  0  0  0  0
 18 19  1  0  0  0  0
 19 14  2  0  0  0  0
 20 16  1  0  0  0  0
 20 24  1  0  0  0  0
 21 26  1  0  0  0  0
 21 20  1  0  0  0  0
 22 21  1  0  0  0  0
 22 23  1  0  0  0  0
 23 24  1  0  0  0  0
 23 31  1  0  0  0  0
 24 32  1  0  0  0  0
 27 21  1  0  0  0  0
 28 22  1  0  0  0  0
 29 22  1  0  0  0  0
 30 23  1  0  0  0  0
 33 24  1  0  0  0  0
 34 36  1  0  0  0  0
 35 34  1  0  0  0  0
 37 38  2  0  0  0  0
 38 39  1  0  0  0  0
 38 44  1  0  0  0  0
 39  8  1  6  0  0  0
 39 40  1  0  0  0  0
 40 41  1  0  0  0  0
 40 42  1  0  0  0  0
 42 43  1  0  0  0  0
 44 45  1  0  0  0  0
 44 42  1  0  0  0  0
 46 47  1  0  0  0  0
 48 46  1  0  0  0  0
M  END
>  <minimizedAffinity>
-6.27699947

$$$$

 OpenBabel03252502103D

 48 52  0  0  1  0  0  0  0  0999 V2000
   36.7040   29.1050   37.7210 C   0  0  0  0  0  0  0  0  0  0  0  0
   35.9640   29.0590   36.6060 N   0  0  0  0  0  0  0  0  0  0  0  0
   35.2760   28.0050   36.1830 C   0  0  0  0  0  0  0  0  0  0  0  0
   35.2910   26.8600   36.9010 N   0  0  0  0  0  0  0  0  0  0  0  0
   35.9930   26.7810   38.0300 C   0  0  0  0  0  0  0  0  0  0  0  0
   36.0080   25.6060   38.7700 C   0  0  0  0  0  0  0  0  0  0  0  0
   36.7270   25.5070   39.9430 C   0  0  0  0  0  0  0  0  0  0  0  0
   37.4300   26.6160   40.3570 C   0  0  0  0  0  0  0  0  0  0  0  0
   37.3770   27.7720   39.5710 C   0  0  0  0  0  0  0  0  0  0  0  0
   36.6820   27.9070   38.4130 C   0  0  0  0  0  0  0  0  0  0  0  0
   34.7090   28.1040   35.2470 H   0  0  0  0  0  0  0  0  0  0  0  0
   35.4410   24.7610   38.4060 H   0  0  0  0  0  0  0  0  0  0  0  0
   36.6910   24.5770   40.4550 H   0  0  0  0  0  0  0  0  0  0  0  0
   37.1310   32.2720   39.4150 C   0  0  0  0  0  0  0  0  0  0  0  0
   38.4410   32.6840   39.1530 C   0  0  0  0  0  0  0  0  0  0  0  0
   39.2110   31.8490   38.3890 C   0  0  0  0  0  0  0  0  0  0  0  0
   38.6940   30.7050   37.9310 N   0  0  0  0  0  0  0  0  0  0  0  0
   37.4640   30.2990   38.1620 C   0  0  0  0  0  0  0  0  0  0  0  0
   36.6860   31.1080   38.9190 N   0  0  0  0  0  0  0  0  0  0  0  0
   40.5160   32.1840   38.1130 N   0  0  0  0  0  0  0  0  0  0  0  0
   41.4870   31.2660   37.4510 C   0  0  0  0  0  0  0  0  0  0  0  0
   42.6630   32.1280   37.0710 C   0  0  0  0  0  0  0  0  0  0  0  0
   42.6240   33.2080   38.1030 C   0  0  0  0  0  0  0  0  0  0  0  0
   41.1780   33.4160   38.3940 C   0  0  0  0  0  0  0  0  0  0  0  0
   36.4810   32.9070   40.0240 H   0  0  0  0  0  0  0  0  0  0  0  0
   41.7140   30.4960   38.1910 H   0  0  0  0  0  0  0  0  0  0  0  0
   40.9890   30.8530   36.5460 H   0  0  0  0  0  0  0  0  0  0  0  0
   42.5100   32.5330   36.0500 H   0  0  0  0  0  0  0  0  0  0  0  0
   43.5770   31.5160   37.1160 H   0  0  0  0  0  0  0  0  0  0  0  0
   43.1410   34.1420   37.7700 H   0  0  0  0  0  0  0  0  0  0  0  0
   43.1870   32.8300   38.9810 H   0  0  0  0  0  0  0  0  0  0  0  0
   41.1820   33.6920   39.4910 H   0  0  0  0  0  0  0  0  0  0  0  0
   40.8280   34.2810   37.7790 H   0  0  0  0  0  0  0  0  0  0  0  0
   38.8370   33.9030   39.6320 N   0  0  0  0  0  0  0  0  0  0  0  0
   38.9160   34.8350   39.1540 H   0  0  0  0  0  0  0  0  0  0  0  0
   39.0670   33.7230   40.6530 H   0  0  0  0  0  0  0  0  0  0  0  0
   36.8520   28.1590   42.9900 O   0  0  0  0  0  0  0  0  0  0  0  0
   37.7520   27.3680   42.6830 C   0  0  0  0  0  0  0  0  0  0  0  0
   38.1820   26.4740   41.6090 C   0  0  2  0  0  3  0  0  0  0  0  0
   39.6490   26.6690   41.5410 C   0  0  0  0  0  3  0  0  0  0  0  0
   40.1580   25.8750   40.9740 H   0  0  0  0  0  0  0  0  0  0  0  0
   40.0150   26.6730   43.0190 C   0  0  0  0  0  3  0  0  0  0  0  0
   40.1270   25.6410   43.3450 H   0  0  0  0  0  0  0  0  0  0  0  0
   38.7980   27.1910   43.6620 N   0  0  0  0  0  0  0  0  0  0  0  0
   38.9510   27.3240   44.7070 H   0  0  0  0  0  0  0  0  0  0  0  0
   38.1680   28.8140   40.1560 N   0  0  0  0  0  0  0  0  0  0  0  0
   37.4950   29.2610   40.8240 H   0  0  0  0  0  0  0  0  0  0  0  0
   39.1500   29.1350   40.0430 H   0  0  0  0  0  0  0  0  0  0  0  0
  1 18  1  0  0  0  0
  1 10  1  0  0  0  0
  2  1  2  0  0  0  0
  3  2  1  0  0  0  0
  3  4  2  0  0  0  0
  4  5  1  0  0  0  0
  5 10  2  0  0  0  0
  5  6  1  0  0  0  0
  6  7  2  0  0  0  0
  7  8  1  0  0  0  0
  7 13  1  0  0  0  0
  9 46  1  0  0  0  0
  9  8  2  0  0  0  0
 10  9  1  0  0  0  0
 11  3  1  0  0  0  0
 12  6  1  0  0  0  0
 14 25  1  0  0  0  0
 15 14  1  0  0  0  0
 15 34  1  0  0  0  0
 16 15  2  0  0  0  0
 17 18  2  0  0  0  0
 17 16  1  0  0  0  0
 18 19  1  0  0  0  0
 19 14  2  0  0  0  0
 20 16  1  0  0  0  0
 20 24  1  0  0  0  0
 21 20  1  0  0  0  0
 21 26  1  0  0  0  0
 22 29  1  0  0  0  0
 22 21  1  0  0  0  0
 22 23  1  0  0  0  0
 23 24  1  0  0  0  0
 23 31  1  0  0  0  0
 24 32  1  0  0  0  0
 27 21  1  0  0  0  0
 28 22  1  0  0  0  0
 30 23  1  0  0  0  0
 33 24  1  0  0  0  0
 34 36  1  0  0  0  0
 35 34  1  0  0  0  0
 38 37  2  0  0  0  0
 38 44  1  0  0  0  0
 39  8  1  6  0  0  0
 39 38  1  0  0  0  0
 40 39  1  0  0  0  0
 40 42  1  0  0  0  0
 41 40  1  0  0  0  0
 42 43  1  0  0  0  0
 42 44  1  0  0  0  0
 44 45  1  0  0  0  0
 46 47  1  0  0  0  0
 48 46  1  0  0  0  0
M  END
>  <minimizedAffinity>
-6.25480795

$$$$

 OpenBabel03252502103D

 48 52  0  0  1  0  0  0  0  0999 V2000
   38.2050   29.1070   41.3600 C   0  0  0  0  0  0  0  0  0  0  0  0
   38.0580   29.5910   42.6000 N   0  0  0  0  0  0  0  0  0  0  0  0
   37.6110   28.9040   43.6450 C   0  0  0  0  0  0  0  0  0  0  0  0
   37.2620   27.6070   43.4980 N   0  0  0  0  0  0  0  0  0  0  0  0
   37.3630   27.0120   42.3110 C   0  0  0  0  0  0  0  0  0  0  0  0
   37.0070   25.6790   42.1580 C   0  0  0  0  0  0  0  0  0  0  0  0
   37.1070   25.0450   40.9370 C   0  0  0  0  0  0  0  0  0  0  0  0
   37.5740   25.7820   39.8720 C   0  0  0  0  0  0  0  0  0  0  0  0
   37.9170   27.1210   40.0850 C   0  0  0  0  0  0  0  0  0  0  0  0
   37.8330   27.7780   41.2710 C   0  0  0  0  0  0  0  0  0  0  0  0
   37.5400   29.4260   44.6100 H   0  0  0  0  0  0  0  0  0  0  0  0
   36.6450   25.1400   43.0220 H   0  0  0  0  0  0  0  0  0  0  0  0
   36.8160   24.0250   40.8960 H   0  0  0  0  0  0  0  0  0  0  0  0
   37.8690   31.3090   38.5100 C   0  0  0  0  0  0  0  0  0  0  0  0
   39.1540   31.4600   37.9780 C   0  0  0  0  0  0  0  0  0  0  0  0
   40.1710   30.8070   38.6200 C   0  0  0  0  0  0  0  0  0  0  0  0
   39.9050   30.0640   39.6980 N   0  0  0  0  0  0  0  0  0  0  0  0
   38.7040   29.9040   40.2140 C   0  0  0  0  0  0  0  0  0  0  0  0
   37.6850   30.5450   39.5980 N   0  0  0  0  0  0  0  0  0  0  0  0
   41.4610   30.9320   38.1620 N   0  0  0  0  0  0  0  0  0  0  0  0
   42.6560   30.4150   38.8900 C   0  0  0  0  0  0  0  0  0  0  0  0
   43.7920   30.4870   37.9040 C   0  0  0  0  0  0  0  0  0  0  0  0
   43.3890   31.6230   37.0210 C   0  0  0  0  0  0  0  0  0  0  0  0
   41.9020   31.5570   36.9580 C   0  0  0  0  0  0  0  0  0  0  0  0
   37.0280   31.8160   38.0310 H   0  0  0  0  0  0  0  0  0  0  0  0
   42.7730   31.0650   39.7600 H   0  0  0  0  0  0  0  0  0  0  0  0
   42.4420   29.3610   39.1720 H   0  0  0  0  0  0  0  0  0  0  0  0
   43.8540   29.5340   37.3400 H   0  0  0  0  0  0  0  0  0  0  0  0
   44.7260   30.6760   38.4570 H   0  0  0  0  0  0  0  0  0  0  0  0
   43.8720   31.5800   36.0140 H   0  0  0  0  0  0  0  0  0  0  0  0
   43.7550   32.5500   37.5090 H   0  0  0  0  0  0  0  0  0  0  0  0
   41.6070   32.6460   36.8740 H   0  0  0  0  0  0  0  0  0  0  0  0
   41.6260   31.0090   36.0240 H   0  0  0  0  0  0  0  0  0  0  0  0
   39.2910   32.2020   36.8380 N   0  0  0  0  0  0  0  0  0  0  0  0
   39.3870   31.9070   35.8340 H   0  0  0  0  0  0  0  0  0  0  0  0
   39.2800   33.2090   37.1750 H   0  0  0  0  0  0  0  0  0  0  0  0
   35.2010   25.2230   37.9470 O   0  0  0  0  0  0  0  0  0  0  0  0
   36.3890   24.8810   37.9060 C   0  0  0  0  0  0  0  0  0  0  0  0
   37.6670   25.0750   38.5890 C   0  0  2  0  0  3  0  0  0  0  0  0
   38.2780   23.7250   38.6050 C   0  0  0  0  0  3  0  0  0  0  0  0
   39.3530   23.7480   38.8380 H   0  0  0  0  0  0  0  0  0  0  0  0
   37.9860   23.2530   37.1870 C   0  0  0  0  0  3  0  0  0  0  0  0
   38.7630   23.6410   36.5320 H   0  0  0  0  0  0  0  0  0  0  0  0
   36.7470   23.9680   36.8460 N   0  0  0  0  0  0  0  0  0  0  0  0
   36.3830   23.6600   35.8950 H   0  0  0  0  0  0  0  0  0  0  0  0
   38.3770   27.7220   38.8680 N   0  0  0  0  0  0  0  0  0  0  0  0
   39.3980   27.4810   38.8680 H   0  0  0  0  0  0  0  0  0  0  0  0
   37.9240   28.2650   38.1070 H   0  0  0  0  0  0  0  0  0  0  0  0
  1  2  1  0  0  0  0
  2  3  2  0  0  0  0
  3 11  1  0  0  0  0
  4  3  1  0  0  0  0
  5  4  2  0  0  0  0
  6  5  1  0  0  0  0
  6 12  1  0  0  0  0
  7  6  2  0  0  0  0
  8  9  2  0  0  0  0
  8  7  1  0  0  0  0
  9 10  1  0  0  0  0
 10  1  2  0  0  0  0
 10  5  1  0  0  0  0
 13  7  1  0  0  0  0
 14 19  1  0  0  0  0
 15 14  2  0  0  0  0
 15 16  1  0  0  0  0
 16 17  2  0  0  0  0
 17 18  1  0  0  0  0
 18  1  1  0  0  0  0
 19 18  2  0  0  0  0
 20 16  1  0  0  0  0
 20 21  1  0  0  0  0
 21 27  1  0  0  0  0
 21 26  1  0  0  0  0
 22 29  1  0  0  0  0
 22 21  1  0  0  0  0
 23 31  1  0  0  0  0
 23 22  1  0  0  0  0
 24 23  1  0  0  0  0
 24 20  1  0  0  0  0
 25 14  1  0  0  0  0
 28 22  1  0  0  0  0
 30 23  1  0  0  0  0
 32 24  1  0  0  0  0
 33 24  1  0  0  0  0
 34 36  1  0  0  0  0
 34 15  1  0  0  0  0
 35 34  1  0  0  0  0
 38 37  2  0  0  0  0
 38 39  1  0  0  0  0
 39 40  1  0  0  0  0
 39  8  1  1  0  0  0
 40 41  1  0  0  0  0
 42 40  1  0  0  0  0
 43 42  1  0  0  0  0
 44 42  1  0  0  0  0
 44 38  1  0  0  0  0
 45 44  1  0  0  0  0
 46  9  1  0  0  0  0
 47 46  1  0  0  0  0
 48 46  1  0  0  0  0
M  END
>  <minimizedAffinity>
-6.20203638

$$$$

 OpenBabel03252502103D

 48 52  0  0  1  0  0  0  0  0999 V2000
   37.1850   27.3880   40.8950 C   0  0  0  0  0  0  0  0  0  0  0  0
   37.4630   26.7290   42.0270 N   0  0  0  0  0  0  0  0  0  0  0  0
   37.3090   25.4230   42.2120 C   0  0  0  0  0  0  0  0  0  0  0  0
   36.8380   24.6520   41.2080 N   0  0  0  0  0  0  0  0  0  0  0  0
   36.5250   25.1930   40.0320 C   0  0  0  0  0  0  0  0  0  0  0  0
   36.0420   24.4020   38.9980 C   0  0  0  0  0  0  0  0  0  0  0  0
   35.7150   24.9450   37.7730 C   0  0  0  0  0  0  0  0  0  0  0  0
   35.8840   26.3020   37.6100 C   0  0  0  0  0  0  0  0  0  0  0  0
   36.3740   27.0480   38.6870 C   0  0  0  0  0  0  0  0  0  0  0  0
   36.7070   26.5500   39.9050 C   0  0  0  0  0  0  0  0  0  0  0  0
   37.5770   25.0090   43.1950 H   0  0  0  0  0  0  0  0  0  0  0  0
   35.9260   23.3420   39.1720 H   0  0  0  0  0  0  0  0  0  0  0  0
   35.3510   24.2790   37.0300 H   0  0  0  0  0  0  0  0  0  0  0  0
   36.1450   30.8510   41.0160 C   0  0  0  0  0  0  0  0  0  0  0  0
   37.2160   31.6000   40.5160 C   0  0  0  0  0  0  0  0  0  0  0  0
   38.3350   30.9060   40.1420 C   0  0  0  0  0  0  0  0  0  0  0  0
   38.3600   29.5750   40.2600 N   0  0  0  0  0  0  0  0  0  0  0  0
   37.3640   28.8500   40.7240 C   0  0  0  0  0  0  0  0  0  0  0  0
   36.2500   29.5160   41.1030 N   0  0  0  0  0  0  0  0  0  0  0  0
   39.4320   31.5830   39.6630 N   0  0  0  0  0  0  0  0  0  0  0  0
   40.7540   30.9450   39.4040 C   0  0  0  0  0  0  0  0  0  0  0  0
   41.5420   31.9570   38.6120 C   0  0  0  0  0  0  0  0  0  0  0  0
   40.9640   33.2560   39.0730 C   0  0  0  0  0  0  0  0  0  0  0  0
   39.5270   32.9690   39.3380 C   0  0  0  0  0  0  0  0  0  0  0  0
   35.2330   31.3650   41.3300 H   0  0  0  0  0  0  0  0  0  0  0  0
   41.1710   30.7220   40.3880 H   0  0  0  0  0  0  0  0  0  0  0  0
   40.5680   30.0290   38.8020 H   0  0  0  0  0  0  0  0  0  0  0  0
   41.3690   31.7940   37.5280 H   0  0  0  0  0  0  0  0  0  0  0  0
   42.6090   31.8430   38.8580 H   0  0  0  0  0  0  0  0  0  0  0  0
   41.1160   34.0820   38.3350 H   0  0  0  0  0  0  0  0  0  0  0  0
   41.5200   33.5430   39.9890 H   0  0  0  0  0  0  0  0  0  0  0  0
   39.2910   33.6590   40.2040 H   0  0  0  0  0  0  0  0  0  0  0  0
   38.9460   33.2740   38.4330 H   0  0  0  0  0  0  0  0  0  0  0  0
   37.0490   32.9510   40.3920 N   0  0  0  0  0  0  0  0  0  0  0  0
   36.8180   33.5400   39.5520 H   0  0  0  0  0  0  0  0  0  0  0  0
   37.2050   33.3270   41.3720 H   0  0  0  0  0  0  0  0  0  0  0  0
   32.9900   26.7050   36.5550 O   0  0  0  0  0  0  0  0  0  0  0  0
   34.0910   26.8650   36.0140 C   0  0  0  0  0  0  0  0  0  0  0  0
   35.5260   26.8440   36.2940 C   0  0  2  0  0  3  0  0  0  0  0  0
   36.1180   26.1820   35.1070 C   0  0  0  0  0  3  0  0  0  0  0  0
   37.2050   26.3290   35.0360 H   0  0  0  0  0  0  0  0  0  0  0  0
   35.3490   26.8560   33.9790 C   0  0  0  0  0  3  0  0  0  0  0  0
   35.8410   27.7980   33.7480 H   0  0  0  0  0  0  0  0  0  0  0  0
   34.0620   27.1920   34.6070 N   0  0  0  0  0  0  0  0  0  0  0  0
   33.3880   27.6020   33.8920 H   0  0  0  0  0  0  0  0  0  0  0  0
   36.4800   28.4320   38.3320 N   0  0  0  0  0  0  0  0  0  0  0  0
   37.4300   28.4810   37.8920 H   0  0  0  0  0  0  0  0  0  0  0  0
   35.8550   29.2580   38.4230 H   0  0  0  0  0  0  0  0  0  0  0  0
  1  2  1  0  0  0  0
  2  3  2  0  0  0  0
  3 11  1  0  0  0  0
  4  3  1  0  0  0  0
  5  4  2  0  0  0  0
  6 12  1  0  0  0  0
  6  5  1  0  0  0  0
  7  6  2  0  0  0  0
  8  7  1  0  0  0  0
  8  9  2  0  0  0  0
  9 10  1  0  0  0  0
 10  5  1  0  0  0  0
 10  1  2  0  0  0  0
 13  7  1  0  0  0  0
 14 19  1  0  0  0  0
 14 25  1  0  0  0  0
 15 14  2  0  0  0  0
 16 17  2  0  0  0  0
 16 15  1  0  0  0  0
 17 18  1  0  0  0  0
 18  1  1  0  0  0  0
 18 19  2  0  0  0  0
 20 16  1  0  0  0  0
 21 20  1  0  0  0  0
 21 26  1  0  0  0  0
 22 29  1  0  0  0  0
 22 23  1  0  0  0  0
 22 21  1  0  0  0  0
 23 24  1  0  0  0  0
 23 31  1  0  0  0  0
 24 20  1  0  0  0  0
 24 32  1  0  0  0  0
 27 21  1  0  0  0  0
 28 22  1  0  0  0  0
 30 23  1  0  0  0  0
 33 24  1  0  0  0  0
 34 15  1  0  0  0  0
 34 36  1  0  0  0  0
 35 34  1  0  0  0  0
 38 39  1  0  0  0  0
 38 37  2  0  0  0  0
 39  8  1  1  0  0  0
 40 39  1  0  0  0  0
 41 40  1  0  0  0  0
 42 44  1  0  0  0  0
 42 40  1  0  0  0  0
 43 42  1  0  0  0  0
 44 38  1  0  0  0  0
 45 44  1  0  0  0  0
 46 48  1  0  0  0  0
 46  9  1  0  0  0  0
 47 46  1  0  0  0  0
M  END
>  <minimizedAffinity>
-6.19494581

$$$$

 OpenBabel03252502103D

 48 52  0  0  1  0  0  0  0  0999 V2000
   38.7860   30.6300   39.9410 C   0  0  0  0  0  0  0  0  0  0  0  0
   38.7690   30.6220   41.2800 N   0  0  0  0  0  0  0  0  0  0  0  0
   37.7680   30.1810   42.0320 C   0  0  0  0  0  0  0  0  0  0  0  0
   36.6530   29.6910   41.4490 N   0  0  0  0  0  0  0  0  0  0  0  0
   36.5500   29.6470   40.1210 C   0  0  0  0  0  0  0  0  0  0  0  0
   35.4050   29.1420   39.5200 C   0  0  0  0  0  0  0  0  0  0  0  0
   35.2810   29.0870   38.1470 C   0  0  0  0  0  0  0  0  0  0  0  0
   36.3350   29.5510   37.3920 C   0  0  0  0  0  0  0  0  0  0  0  0
   37.4620   30.0490   38.0530 C   0  0  0  0  0  0  0  0  0  0  0  0
   37.6210   30.1180   39.4000 C   0  0  0  0  0  0  0  0  0  0  0  0
   37.8860   30.2310   43.1240 H   0  0  0  0  0  0  0  0  0  0  0  0
   34.6030   28.7890   40.1520 H   0  0  0  0  0  0  0  0  0  0  0  0
   34.3770   28.6880   37.7580 H   0  0  0  0  0  0  0  0  0  0  0  0
   40.7270   33.1720   38.2500 C   0  0  0  0  0  0  0  0  0  0  0  0
   41.7890   32.5060   37.6290 C   0  0  0  0  0  0  0  0  0  0  0  0
   41.8580   31.1500   37.8060 C   0  0  0  0  0  0  0  0  0  0  0  0
   40.9290   30.5290   38.5400 N   0  0  0  0  0  0  0  0  0  0  0  0
   39.9200   31.1350   39.1300 C   0  0  0  0  0  0  0  0  0  0  0  0
   39.8360   32.4760   38.9720 N   0  0  0  0  0  0  0  0  0  0  0  0
   42.8890   30.4380   37.2420 N   0  0  0  0  0  0  0  0  0  0  0  0
   43.1570   28.9980   37.5230 C   0  0  0  0  0  0  0  0  0  0  0  0
   44.1540   28.5620   36.4810 C   0  0  0  0  0  0  0  0  0  0  0  0
   44.8880   29.8280   36.1780 C   0  0  0  0  0  0  0  0  0  0  0  0
   43.8720   30.9090   36.3200 C   0  0  0  0  0  0  0  0  0  0  0  0
   40.6360   34.2550   38.1380 H   0  0  0  0  0  0  0  0  0  0  0  0
   43.5330   28.9640   38.5470 H   0  0  0  0  0  0  0  0  0  0  0  0
   42.1950   28.4530   37.4040 H   0  0  0  0  0  0  0  0  0  0  0  0
   43.6140   28.1790   35.5900 H   0  0  0  0  0  0  0  0  0  0  0  0
   44.7960   27.7800   36.9140 H   0  0  0  0  0  0  0  0  0  0  0  0
   45.3740   29.8150   35.1720 H   0  0  0  0  0  0  0  0  0  0  0  0
   45.7050   29.9080   36.9240 H   0  0  0  0  0  0  0  0  0  0  0  0
   44.4850   31.7770   36.7100 H   0  0  0  0  0  0  0  0  0  0  0  0
   43.4780   31.1410   35.3010 H   0  0  0  0  0  0  0  0  0  0  0  0
   42.6440   33.2440   36.8580 N   0  0  0  0  0  0  0  0  0  0  0  0
   42.6920   33.3700   35.8160 H   0  0  0  0  0  0  0  0  0  0  0  0
   43.3000   33.7010   37.5560 H   0  0  0  0  0  0  0  0  0  0  0  0
   37.9230   27.6770   35.4910 O   0  0  0  0  0  0  0  0  0  0  0  0
   37.0900   28.5620   35.2630 C   0  0  0  0  0  0  0  0  0  0  0  0
   36.1680   29.4770   35.9360 C   0  0  2  0  0  3  0  0  0  0  0  0
   36.2960   30.7430   35.1760 C   0  0  0  0  0  3  0  0  0  0  0  0
   35.4760   31.4470   35.3810 H   0  0  0  0  0  0  0  0  0  0  0  0
   36.2950   30.2280   33.7430 C   0  0  0  0  0  3  0  0  0  0  0  0
   35.2620   30.0980   33.4290 H   0  0  0  0  0  0  0  0  0  0  0  0
   36.8730   28.8820   33.8720 N   0  0  0  0  0  0  0  0  0  0  0  0
   37.0070   28.4350   32.9140 H   0  0  0  0  0  0  0  0  0  0  0  0
   38.4470   30.4850   37.1080 N   0  0  0  0  0  0  0  0  0  0  0  0
   38.9780   29.6030   36.9100 H   0  0  0  0  0  0  0  0  0  0  0  0
   38.6730   31.3950   36.6580 H   0  0  0  0  0  0  0  0  0  0  0  0
  1  2  1  0  0  0  0
  2  3  2  0  0  0  0
  3 11  1  0  0  0  0
  4  3  1  0  0  0  0
  5  4  2  0  0  0  0
  6  5  1  0  0  0  0
  6 12  1  0  0  0  0
  7  6  2  0  0  0  0
  8  9  2  0  0  0  0
  8  7  1  0  0  0  0
  9 10  1  0  0  0  0
 10  1  2  0  0  0  0
 10  5  1  0  0  0  0
 13  7  1  0  0  0  0
 14 19  1  0  0  0  0
 15 16  1  0  0  0  0
 15 14  2  0  0  0  0
 16 17  2  0  0  0  0
 17 18  1  0  0  0  0
 18  1  1  0  0  0  0
 19 18  2  0  0  0  0
 20 21  1  0  0  0  0
 20 16  1  0  0  0  0
 21 26  1  0  0  0  0
 22 29  1  0  0  0  0
 22 21  1  0  0  0  0
 23 24  1  0  0  0  0
 23 22  1  0  0  0  0
 23 31  1  0  0  0  0
 24 32  1  0  0  0  0
 24 20  1  0  0  0  0
 25 14  1  0  0  0  0
 27 21  1  0  0  0  0
 28 22  1  0  0  0  0
 30 23  1  0  0  0  0
 33 24  1  0  0  0  0
 34 36  1  0  0  0  0
 34 15  1  0  0  0  0
 35 34  1  0  0  0  0
 38 37  2  0  0  0  0
 38 39  1  0  0  0  0
 39  8  1  1  0  0  0
 40 41  1  0  0  0  0
 40 39  1  0  0  0  0
 42 44  1  0  0  0  0
 42 40  1  0  0  0  0
 43 42  1  0  0  0  0
 44 38  1  0  0  0  0
 45 44  1  0  0  0  0
 46  9  1  0  0  0  0
 47 46  1  0  0  0  0
 48 46  1  0  0  0  0
M  END
>  <minimizedAffinity>
-6.19093132

$$$$

 OpenBabel03252502103D

 48 52  0  0  1  0  0  0  0  0999 V2000
   36.6350   27.1780   37.3560 C   0  0  0  0  0  0  0  0  0  0  0  0
   36.1760   27.2940   36.1030 N   0  0  0  0  0  0  0  0  0  0  0  0
   36.2140   26.3400   35.1800 C   0  0  0  0  0  0  0  0  0  0  0  0
   36.7500   25.1360   35.4780 N   0  0  0  0  0  0  0  0  0  0  0  0
   37.2410   24.8990   36.6940 C   0  0  0  0  0  0  0  0  0  0  0  0
   37.7900   23.6620   37.0030 C   0  0  0  0  0  0  0  0  0  0  0  0
   38.3020   23.3970   38.2560 C   0  0  0  0  0  0  0  0  0  0  0  0
   38.2490   24.4050   39.1930 C   0  0  0  0  0  0  0  0  0  0  0  0
   37.6840   25.6300   38.8250 C   0  0  0  0  0  0  0  0  0  0  0  0
   37.1710   25.9270   37.6030 C   0  0  0  0  0  0  0  0  0  0  0  0
   35.8010   26.5690   34.1880 H   0  0  0  0  0  0  0  0  0  0  0  0
   37.8110   22.9010   36.2360 H   0  0  0  0  0  0  0  0  0  0  0  0
   38.7060   22.4290   38.4190 H   0  0  0  0  0  0  0  0  0  0  0  0
   35.1340   29.0840   40.0390 C   0  0  0  0  0  0  0  0  0  0  0  0
   36.0140   30.1360   40.3130 C   0  0  0  0  0  0  0  0  0  0  0  0
   37.1640   30.1890   39.5740 C   0  0  0  0  0  0  0  0  0  0  0  0
   37.3950   29.2620   38.6380 N   0  0  0  0  0  0  0  0  0  0  0  0
   36.5800   28.2660   38.3610 C   0  0  0  0  0  0  0  0  0  0  0  0
   35.4390   28.1930   39.0840 N   0  0  0  0  0  0  0  0  0  0  0  0
   38.0840   31.1840   39.8080 N   0  0  0  0  0  0  0  0  0  0  0  0
   39.4410   31.2250   39.1910 C   0  0  0  0  0  0  0  0  0  0  0  0
   39.9680   32.6090   39.4680 C   0  0  0  0  0  0  0  0  0  0  0  0
   39.2740   32.9770   40.7390 C   0  0  0  0  0  0  0  0  0  0  0  0
   37.9370   32.3240   40.6540 C   0  0  0  0  0  0  0  0  0  0  0  0
   34.2050   29.0010   40.6080 H   0  0  0  0  0  0  0  0  0  0  0  0
   40.0060   30.4240   39.6710 H   0  0  0  0  0  0  0  0  0  0  0  0
   39.3130   31.0610   38.0980 H   0  0  0  0  0  0  0  0  0  0  0  0
   39.6850   33.2870   38.6360 H   0  0  0  0  0  0  0  0  0  0  0  0
   41.0630   32.5540   39.5710 H   0  0  0  0  0  0  0  0  0  0  0  0
   39.2110   34.0820   40.8930 H   0  0  0  0  0  0  0  0  0  0  0  0
   39.8940   32.5760   41.5670 H   0  0  0  0  0  0  0  0  0  0  0  0
   37.7170   32.0660   41.7330 H   0  0  0  0  0  0  0  0  0  0  0  0
   37.2100   33.0860   40.2830 H   0  0  0  0  0  0  0  0  0  0  0  0
   35.6410   31.0530   41.2560 N   0  0  0  0  0  0  0  0  0  0  0  0
   35.2240   32.0120   41.1530 H   0  0  0  0  0  0  0  0  0  0  0  0
   35.8650   30.5850   42.1820 H   0  0  0  0  0  0  0  0  0  0  0  0
   36.6240   24.2620   41.8370 O   0  0  0  0  0  0  0  0  0  0  0  0
   37.8360   24.1550   41.6110 C   0  0  0  0  0  0  0  0  0  0  0  0
   38.8010   24.0880   40.5150 C   0  0  2  0  0  3  0  0  0  0  0  0
   39.9410   24.9100   40.9850 C   0  0  0  0  0  3  0  0  0  0  0  0
   40.8570   24.7420   40.3990 H   0  0  0  0  0  0  0  0  0  0  0  0
   40.0640   24.4450   42.4300 C   0  0  0  0  0  3  0  0  0  0  0  0
   40.6610   23.5370   42.4450 H   0  0  0  0  0  0  0  0  0  0  0  0
   38.6880   24.0550   42.7730 N   0  0  0  0  0  0  0  0  0  0  0  0
   38.6170   23.7830   43.8000 H   0  0  0  0  0  0  0  0  0  0  0  0
   37.7190   26.5500   39.9230 N   0  0  0  0  0  0  0  0  0  0  0  0
   36.8350   26.3210   40.4380 H   0  0  0  0  0  0  0  0  0  0  0  0
   38.3830   27.2850   40.2380 H   0  0  0  0  0  0  0  0  0  0  0  0
  1 10  1  0  0  0  0
  1 18  1  0  0  0  0
  2  1  2  0  0  0  0
  3  4  2  0  0  0  0
  3  2  1  0  0  0  0
  4  5  1  0  0  0  0
  5  6  2  0  0  0  0
  5 10  1  0  0  0  0
  6  7  1  0  0  0  0
  7 13  1  0  0  0  0
  7  8  2  0  0  0  0
  9  8  1  0  0  0  0
  9 46  1  0  0  0  0
 10  9  2  0  0  0  0
 11  3  1  0  0  0  0
 12  6  1  0  0  0  0
 14 15  1  0  0  0  0
 14 25  1  0  0  0  0
 15 34  1  0  0  0  0
 16 20  1  0  0  0  0
 16 15  2  0  0  0  0
 17 16  1  0  0  0  0
 18 17  2  0  0  0  0
 18 19  1  0  0  0  0
 19 14  2  0  0  0  0
 20 24  1  0  0  0  0
 21 22  1  0  0  0  0
 21 26  1  0  0  0  0
 21 20  1  0  0  0  0
 22 29  1  0  0  0  0
 22 23  1  0  0  0  0
 23 30  1  0  0  0  0
 23 31  1  0  0  0  0
 24 23  1  0  0  0  0
 24 32  1  0  0  0  0
 27 21  1  0  0  0  0
 28 22  1  0  0  0  0
 33 24  1  0  0  0  0
 34 36  1  0  0  0  0
 35 34  1  0  0  0  0
 38 37  2  0  0  0  0
 38 44  1  0  0  0  0
 39  8  1  6  0  0  0
 39 40  1  0  0  0  0
 39 38  1  0  0  0  0
 40 42  1  0  0  0  0
 41 40  1  0  0  0  0
 42 43  1  0  0  0  0
 42 44  1  0  0  0  0
 44 45  1  0  0  0  0
 46 48  1  0  0  0  0
 46 47  1  0  0  0  0
M  END
>  <minimizedAffinity>
-6.13386774

$$$$

 OpenBabel03252502103D

 48 52  0  0  1  0  0  0  0  0999 V2000
   35.7170   29.0050   36.8500 C   0  0  0  0  0  0  0  0  0  0  0  0
   36.6660   29.0680   35.9080 N   0  0  0  0  0  0  0  0  0  0  0  0
   36.4560   29.3270   34.6220 C   0  0  0  0  0  0  0  0  0  0  0  0
   35.2000   29.5510   34.1780 N   0  0  0  0  0  0  0  0  0  0  0  0
   34.1690   29.5140   35.0210 C   0  0  0  0  0  0  0  0  0  0  0  0
   32.8780   29.7460   34.5670 C   0  0  0  0  0  0  0  0  0  0  0  0
   31.7990   29.7150   35.4250 C   0  0  0  0  0  0  0  0  0  0  0  0
   32.0470   29.4440   36.7530 C   0  0  0  0  0  0  0  0  0  0  0  0
   33.3680   29.2190   37.1530 C   0  0  0  0  0  0  0  0  0  0  0  0
   34.4550   29.2420   36.3380 C   0  0  0  0  0  0  0  0  0  0  0  0
   37.3280   29.3490   33.9540 H   0  0  0  0  0  0  0  0  0  0  0  0
   32.7320   29.9550   33.5160 H   0  0  0  0  0  0  0  0  0  0  0  0
   30.8420   29.9010   35.0060 H   0  0  0  0  0  0  0  0  0  0  0  0
   36.2580   29.8550   40.3250 C   0  0  0  0  0  0  0  0  0  0  0  0
   36.5190   28.6520   40.9870 C   0  0  0  0  0  0  0  0  0  0  0  0
   36.4930   27.5110   40.2310 C   0  0  0  0  0  0  0  0  0  0  0  0
   36.2320   27.5880   38.9230 N   0  0  0  0  0  0  0  0  0  0  0  0
   35.9860   28.7090   38.2780 C   0  0  0  0  0  0  0  0  0  0  0  0
   36.0030   29.8490   39.0070 N   0  0  0  0  0  0  0  0  0  0  0  0
   36.7190   26.2910   40.8250 N   0  0  0  0  0  0  0  0  0  0  0  0
   36.5330   24.9830   40.1330 C   0  0  0  0  0  0  0  0  0  0  0  0
   37.1790   23.9580   41.0290 C   0  0  0  0  0  0  0  0  0  0  0  0
   37.0370   24.5700   42.3850 C   0  0  0  0  0  0  0  0  0  0  0  0
   37.1500   26.0390   42.1610 C   0  0  0  0  0  0  0  0  0  0  0  0
   36.2650   30.7900   40.8900 H   0  0  0  0  0  0  0  0  0  0  0  0
   35.4540   24.8630   40.0180 H   0  0  0  0  0  0  0  0  0  0  0  0
   37.0620   25.0460   39.1570 H   0  0  0  0  0  0  0  0  0  0  0  0
   38.2450   23.8380   40.7450 H   0  0  0  0  0  0  0  0  0  0  0  0
   36.6370   23.0060   40.9230 H   0  0  0  0  0  0  0  0  0  0  0  0
   37.7880   24.1810   43.1160 H   0  0  0  0  0  0  0  0  0  0  0  0
   36.0390   24.2710   42.7650 H   0  0  0  0  0  0  0  0  0  0  0  0
   36.4620   26.4650   42.9510 H   0  0  0  0  0  0  0  0  0  0  0  0
   38.2070   26.3340   42.3700 H   0  0  0  0  0  0  0  0  0  0  0  0
   36.8270   28.7080   42.3180 N   0  0  0  0  0  0  0  0  0  0  0  0
   37.7550   28.6700   42.8090 H   0  0  0  0  0  0  0  0  0  0  0  0
   35.8880   28.8040   42.8030 H   0  0  0  0  0  0  0  0  0  0  0  0
   29.4600   27.7960   36.2660 O   0  0  0  0  0  0  0  0  0  0  0  0
   29.7580   28.6160   37.1430 C   0  0  0  0  0  0  0  0  0  0  0  0
   30.8760   29.4190   37.6360 C   0  0  2  0  0  3  0  0  0  0  0  0
   30.2610   30.7230   37.9800 C   0  0  0  0  0  3  0  0  0  0  0  0
   30.9100   31.3450   38.6140 H   0  0  0  0  0  0  0  0  0  0  0  0
   28.9910   30.2720   38.6880 C   0  0  0  0  0  3  0  0  0  0  0  0
   29.2350   30.0680   39.7280 H   0  0  0  0  0  0  0  0  0  0  0  0
   28.7000   28.9760   38.0570 N   0  0  0  0  0  0  0  0  0  0  0  0
   27.7750   28.5840   38.4090 H   0  0  0  0  0  0  0  0  0  0  0  0
   33.4290   28.9530   38.5590 N   0  0  0  0  0  0  0  0  0  0  0  0
   33.4910   29.9160   38.9690 H   0  0  0  0  0  0  0  0  0  0  0  0
   33.4150   28.0900   39.1400 H   0  0  0  0  0  0  0  0  0  0  0  0
  1 18  1  0  0  0  0
  2  1  2  0  0  0  0
  3  2  1  0  0  0  0
  4  3  2  0  0  0  0
  4  5  1  0  0  0  0
  5 10  1  0  0  0  0
  6  5  2  0  0  0  0
  6  7  1  0  0  0  0
  7  8  2  0  0  0  0
  8  9  1  0  0  0  0
  9 46  1  0  0  0  0
 10  1  1  0  0  0  0
 10  9  2  0  0  0  0
 11  3  1  0  0  0  0
 12  6  1  0  0  0  0
 13  7  1  0  0  0  0
 14 25  1  0  0  0  0
 14 15  1  0  0  0  0
 15 34  1  0  0  0  0
 16 20  1  0  0  0  0
 16 15  2  0  0  0  0
 17 16  1  0  0  0  0
 18 17  2  0  0  0  0
 18 19  1  0  0  0  0
 19 14  2  0  0  0  0
 20 24  1  0  0  0  0
 21 20  1  0  0  0  0
 21 22  1  0  0  0  0
 22 23  1  0  0  0  0
 23 31  1  0  0  0  0
 23 30  1  0  0  0  0
 24 33  1  0  0  0  0
 24 23  1  0  0  0  0
 24 32  1  0  0  0  0
 26 21  1  0  0  0  0
 27 21  1  0  0  0  0
 28 22  1  0  0  0  0
 29 22  1  0  0  0  0
 34 36  1  0  0  0  0
 34 35  1  0  0  0  0
 37 38  2  0  0  0  0
 38 39  1  0  0  0  0
 38 44  1  0  0  0  0
 39  8  1  6  0  0  0
 39 40  1  0  0  0  0
 40 41  1  0  0  0  0
 40 42  1  0  0  0  0
 42 43  1  0  0  0  0
 44 45  1  0  0  0  0
 44 42  1  0  0  0  0
 46 47  1  0  0  0  0
 46 48  1  0  0  0  0
M  END
>  <minimizedAffinity>
-6.10442209

$$$$

 OpenBabel03252502103D

 48 52  0  0  1  0  0  0  0  0999 V2000
   39.4800   31.8810   39.9490 C   0  0  0  0  0  0  0  0  0  0  0  0
   38.6200   32.8470   39.6020 N   0  0  0  0  0  0  0  0  0  0  0  0
   37.3230   32.8610   39.8890 C   0  0  0  0  0  0  0  0  0  0  0  0
   36.7780   31.8400   40.5870 N   0  0  0  0  0  0  0  0  0  0  0  0
   37.5330   30.8190   40.9890 C   0  0  0  0  0  0  0  0  0  0  0  0
   36.9750   29.7700   41.7070 C   0  0  0  0  0  0  0  0  0  0  0  0
   37.7410   28.7050   42.1330 C   0  0  0  0  0  0  0  0  0  0  0  0
   39.0820   28.7180   41.8210 C   0  0  0  0  0  0  0  0  0  0  0  0
   39.5880   29.8010   41.0950 C   0  0  0  0  0  0  0  0  0  0  0  0
   38.8670   30.8660   40.6590 C   0  0  0  0  0  0  0  0  0  0  0  0
   36.7300   33.7180   39.5420 H   0  0  0  0  0  0  0  0  0  0  0  0
   35.9180   29.8030   41.9290 H   0  0  0  0  0  0  0  0  0  0  0  0
   37.2460   27.9400   42.6770 H   0  0  0  0  0  0  0  0  0  0  0  0
   42.9600   32.7210   40.4700 C   0  0  0  0  0  0  0  0  0  0  0  0
   43.6520   32.2290   39.3600 C   0  0  0  0  0  0  0  0  0  0  0  0
   42.9150   31.5740   38.4100 C   0  0  0  0  0  0  0  0  0  0  0  0
   41.5960   31.4380   38.5730 N   0  0  0  0  0  0  0  0  0  0  0  0
   40.9220   31.8960   39.6070 C   0  0  0  0  0  0  0  0  0  0  0  0
   41.6330   32.5430   40.5600 N   0  0  0  0  0  0  0  0  0  0  0  0
   43.5380   31.0460   37.3040 N   0  0  0  0  0  0  0  0  0  0  0  0
   42.8610   30.1630   36.3110 C   0  0  0  0  0  0  0  0  0  0  0  0
   43.8010   30.0820   35.1360 C   0  0  0  0  0  0  0  0  0  0  0  0
   45.1390   30.2810   35.7720 C   0  0  0  0  0  0  0  0  0  0  0  0
   44.8960   31.2200   36.9020 C   0  0  0  0  0  0  0  0  0  0  0  0
   43.5100   33.2480   41.2540 H   0  0  0  0  0  0  0  0  0  0  0  0
   42.7010   29.2120   36.8250 H   0  0  0  0  0  0  0  0  0  0  0  0
   41.9080   30.6570   36.0230 H   0  0  0  0  0  0  0  0  0  0  0  0
   43.5650   30.8940   34.4180 H   0  0  0  0  0  0  0  0  0  0  0  0
   43.6870   29.0950   34.6620 H   0  0  0  0  0  0  0  0  0  0  0  0
   45.9080   30.6540   35.0510 H   0  0  0  0  0  0  0  0  0  0  0  0
   45.4810   29.2820   36.1110 H   0  0  0  0  0  0  0  0  0  0  0  0
   45.6490   30.8790   37.6750 H   0  0  0  0  0  0  0  0  0  0  0  0
   45.1460   32.2500   36.5480 H   0  0  0  0  0  0  0  0  0  0  0  0
   44.9950   32.4790   39.2800 N   0  0  0  0  0  0  0  0  0  0  0  0
   45.5260   33.2050   38.7380 H   0  0  0  0  0  0  0  0  0  0  0  0
   45.4360   31.7520   39.9150 H   0  0  0  0  0  0  0  0  0  0  0  0
   39.3410   25.9930   40.3530 O   0  0  0  0  0  0  0  0  0  0  0  0
   39.7650   26.3790   41.4490 C   0  0  0  0  0  0  0  0  0  0  0  0
   39.8660   27.5700   42.2910 C   0  0  2  0  0  3  0  0  0  0  0  0
   39.5830   27.0730   43.6580 C   0  0  0  0  0  3  0  0  0  0  0  0
   39.8840   27.7860   44.4400 H   0  0  0  0  0  0  0  0  0  0  0  0
   40.3970   25.7860   43.6780 C   0  0  0  0  0  3  0  0  0  0  0  0
   41.4230   26.0370   43.9390 H   0  0  0  0  0  0  0  0  0  0  0  0
   40.4060   25.3750   42.2660 N   0  0  0  0  0  0  0  0  0  0  0  0
   40.8810   24.4290   42.1520 H   0  0  0  0  0  0  0  0  0  0  0  0
   40.9930   29.6390   40.8640 N   0  0  0  0  0  0  0  0  0  0  0  0
   41.4150   30.0500   41.7310 H   0  0  0  0  0  0  0  0  0  0  0  0
   41.5640   29.2340   40.0950 H   0  0  0  0  0  0  0  0  0  0  0  0
  1 10  1  0  0  0  0
  2  3  1  0  0  0  0
  2  1  2  0  0  0  0
  3  4  2  0  0  0  0
  4  5  1  0  0  0  0
  5  6  1  0  0  0  0
  6 12  1  0  0  0  0
  6  7  2  0  0  0  0
  7 13  1  0  0  0  0
  8  7  1  0  0  0  0
  9  8  2  0  0  0  0
 10  5  2  0  0  0  0
 10  9  1  0  0  0  0
 11  3  1  0  0  0  0
 14 19  1  0  0  0  0
 14 25  1  0  0  0  0
 15 14  2  0  0  0  0
 16 17  2  0  0  0  0
 16 15  1  0  0  0  0
 17 18  1  0  0  0  0
 18  1  1  0  0  0  0
 18 19  2  0  0  0  0
 20 16  1  0  0  0  0
 21 26  1  0  0  0  0
 21 20  1  0  0  0  0
 22 23  1  0  0  0  0
 22 21  1  0  0  0  0
 23 31  1  0  0  0  0
 23 24  1  0  0  0  0
 24 20  1  0  0  0  0
 24 32  1  0  0  0  0
 27 21  1  0  0  0  0
 28 22  1  0  0  0  0
 29 22  1  0  0  0  0
 30 23  1  0  0  0  0
 33 24  1  0  0  0  0
 34 15  1  0  0  0  0
 34 36  1  0  0  0  0
 35 34  1  0  0  0  0
 37 38  2  0  0  0  0
 38 44  1  0  0  0  0
 38 39  1  0  0  0  0
 39  8  1  6  0  0  0
 39 40  1  0  0  0  0
 40 42  1  0  0  0  0
 40 41  1  0  0  0  0
 42 43  1  0  0  0  0
 44 42  1  0  0  0  0
 45 44  1  0  0  0  0
 46  9  1  0  0  0  0
 46 47  1  0  0  0  0
 48 46  1  0  0  0  0
M  END
>  <minimizedAffinity>
-6.08881426

$$$$

 OpenBabel03252502103D

 48 52  0  0  1  0  0  0  0  0999 V2000
   36.8090   24.8290   38.9880 C   0  0  0  0  0  0  0  0  0  0  0  0
   36.9970   23.5110   39.1300 N   0  0  0  0  0  0  0  0  0  0  0  0
   37.3280   22.9000   40.2610 C   0  0  0  0  0  0  0  0  0  0  0  0
   37.5010   23.6210   41.3900 N   0  0  0  0  0  0  0  0  0  0  0  0
   37.3420   24.9440   41.3760 C   0  0  0  0  0  0  0  0  0  0  0  0
   37.5170   25.6870   42.5350 C   0  0  0  0  0  0  0  0  0  0  0  0
   37.3550   27.0570   42.5410 C   0  0  0  0  0  0  0  0  0  0  0  0
   37.0110   27.6640   41.3530 C   0  0  0  0  0  0  0  0  0  0  0  0
   36.8480   26.8640   40.2170 C   0  0  0  0  0  0  0  0  0  0  0  0
   36.9990   25.5150   40.1740 C   0  0  0  0  0  0  0  0  0  0  0  0
   37.4520   21.8080   40.2380 H   0  0  0  0  0  0  0  0  0  0  0  0
   37.7860   25.1680   43.4440 H   0  0  0  0  0  0  0  0  0  0  0  0
   37.5050   27.5590   43.4640 H   0  0  0  0  0  0  0  0  0  0  0  0
   37.4910   26.4490   35.8270 C   0  0  0  0  0  0  0  0  0  0  0  0
   36.2480   26.7810   35.2790 C   0  0  0  0  0  0  0  0  0  0  0  0
   35.1400   26.4270   36.0000 C   0  0  0  0  0  0  0  0  0  0  0  0
   35.2840   25.7990   37.1710 N   0  0  0  0  0  0  0  0  0  0  0  0
   36.4430   25.4790   37.7070 C   0  0  0  0  0  0  0  0  0  0  0  0
   37.5510   25.8170   37.0090 N   0  0  0  0  0  0  0  0  0  0  0  0
   33.8860   26.7030   35.5080 N   0  0  0  0  0  0  0  0  0  0  0  0
   32.6230   26.2000   36.1210 C   0  0  0  0  0  0  0  0  0  0  0  0
   31.5160   26.9840   35.4650 C   0  0  0  0  0  0  0  0  0  0  0  0
   32.0930   27.3060   34.1250 C   0  0  0  0  0  0  0  0  0  0  0  0
   33.5520   27.4850   34.3620 C   0  0  0  0  0  0  0  0  0  0  0  0
   38.4030   26.7100   35.2830 H   0  0  0  0  0  0  0  0  0  0  0  0
   32.6010   25.1290   35.9120 H   0  0  0  0  0  0  0  0  0  0  0  0
   32.6720   26.4200   37.2100 H   0  0  0  0  0  0  0  0  0  0  0  0
   31.3130   27.9020   36.0540 H   0  0  0  0  0  0  0  0  0  0  0  0
   30.6190   26.3480   35.4110 H   0  0  0  0  0  0  0  0  0  0  0  0
   31.6140   28.2000   33.6520 H   0  0  0  0  0  0  0  0  0  0  0  0
   31.8690   26.4420   33.4660 H   0  0  0  0  0  0  0  0  0  0  0  0
   34.0100   27.1040   33.4010 H   0  0  0  0  0  0  0  0  0  0  0  0
   33.7470   28.5790   34.4760 H   0  0  0  0  0  0  0  0  0  0  0  0
   36.2320   27.4730   34.1000 N   0  0  0  0  0  0  0  0  0  0  0  0
   36.0970   28.4970   33.9070 H   0  0  0  0  0  0  0  0  0  0  0  0
   36.3940   26.7320   33.3570 H   0  0  0  0  0  0  0  0  0  0  0  0
   34.5180   29.2240   40.3550 O   0  0  0  0  0  0  0  0  0  0  0  0
   35.6060   29.6120   40.7970 C   0  0  0  0  0  0  0  0  0  0  0  0
   36.8460   29.1210   41.3960 C   0  0  2  0  0  3  0  0  0  0  0  0
   37.9050   29.9390   40.7580 C   0  0  0  0  0  3  0  0  0  0  0  0
   38.8650   29.8840   41.2930 H   0  0  0  0  0  0  0  0  0  0  0  0
   37.2750   31.3250   40.8050 C   0  0  0  0  0  3  0  0  0  0  0  0
   37.4740   31.7560   41.7830 H   0  0  0  0  0  0  0  0  0  0  0  0
   35.8330   31.0370   40.7540 N   0  0  0  0  0  0  0  0  0  0  0  0
   35.2700   31.9390   40.6960 H   0  0  0  0  0  0  0  0  0  0  0  0
   36.4960   27.6660   39.0830 N   0  0  0  0  0  0  0  0  0  0  0  0
   35.4530   27.7280   39.1650 H   0  0  0  0  0  0  0  0  0  0  0  0
   37.0330   28.1270   38.3220 H   0  0  0  0  0  0  0  0  0  0  0  0
  1  2  2  0  0  0  0
  1 10  1  0  0  0  0
  2  3  1  0  0  0  0
  3  4  2  0  0  0  0
  5  4  1  0  0  0  0
  5  6  1  0  0  0  0
  6  7  2  0  0  0  0
  6 12  1  0  0  0  0
  7 13  1  0  0  0  0
  8  7  1  0  0  0  0
  9  8  2  0  0  0  0
 10  9  1  0  0  0  0
 10  5  2  0  0  0  0
 11  3  1  0  0  0  0
 14 19  1  0  0  0  0
 15 14  2  0  0  0  0
 15 16  1  0  0  0  0
 16 17  2  0  0  0  0
 17 18  1  0  0  0  0
 18  1  1  0  0  0  0
 19 18  2  0  0  0  0
 20 16  1  0  0  0  0
 20 21  1  0  0  0  0
 21 27  1  0  0  0  0
 22 28  1  0  0  0  0
 22 21  1  0  0  0  0
 23 24  1  0  0  0  0
 23 22  1  0  0  0  0
 24 33  1  0  0  0  0
 24 20  1  0  0  0  0
 25 14  1  0  0  0  0
 26 21  1  0  0  0  0
 29 22  1  0  0  0  0
 30 23  1  0  0  0  0
 31 23  1  0  0  0  0
 32 24  1  0  0  0  0
 34 15  1  0  0  0  0
 35 34  1  0  0  0  0
 36 34  1  0  0  0  0
 37 38  2  0  0  0  0
 38 39  1  0  0  0  0
 39  8  1  6  0  0  0
 40 42  1  0  0  0  0
 40 41  1  0  0  0  0
 40 39  1  0  0  0  0
 42 43  1  0  0  0  0
 44 38  1  0  0  0  0
 44 42  1  0  0  0  0
 45 44  1  0  0  0  0
 46 47  1  0  0  0  0
 46  9  1  0  0  0  0
 48 46  1  0  0  0  0
M  END
>  <minimizedAffinity>
-6.03188038

$$$$
