
 OpenBabel03252509333D

 40 42  0  0  1  0  0  0  0  0999 V2000
   46.1980   33.4860   41.8770 C   0  0  1  0  0  0  0  0  0  0  0  0
   45.9140   34.1800   40.5510 C   0  0  0  0  0  0  0  0  0  0  0  0
   45.9110   33.0350   39.5860 C   0  0  0  0  0  0  0  0  0  0  0  0
   46.7720   31.9620   40.1920 C   0  0  0  0  0  0  0  0  0  0  0  0
   47.3360   32.5850   41.4790 C   0  0  1  0  0  0  0  0  0  0  0  0
   45.3340   32.8240   42.1090 H   0  0  0  0  0  0  0  0  0  0  0  0
   46.6340   34.9700   40.3310 H   0  0  0  0  0  0  0  0  0  0  0  0
   44.8620   34.5660   40.6330 H   0  0  0  0  0  0  0  0  0  0  0  0
   44.8980   32.6510   39.3420 H   0  0  0  0  0  0  0  0  0  0  0  0
   46.3730   33.4080   38.6350 H   0  0  0  0  0  0  0  0  0  0  0  0
   47.5820   31.6810   39.5010 H   0  0  0  0  0  0  0  0  0  0  0  0
   46.1710   31.0570   40.4150 H   0  0  0  0  0  0  0  0  0  0  0  0
   47.3560   31.7410   42.2110 H   0  0  0  0  0  0  0  0  0  0  0  0
   49.5680   32.2630   39.0630 O   0  0  0  0  0  0  0  0  0  0  0  0
   49.5260   32.4050   40.3360 C   0  0  0  0  0  0  0  0  0  0  0  0
   48.6550   33.2170   41.2700 C   0  0  2  0  0  3  0  0  0  0  0  0
   49.4770   33.1340   42.5370 C   0  0  0  0  0  3  0  0  0  0  0  0
   48.8870   33.1640   43.4640 H   0  0  0  0  0  0  0  0  0  0  0  0
   50.0510   31.7150   42.4390 C   0  0  0  0  0  3  0  0  0  0  0  0
   49.2350   31.0110   42.5950 H   0  0  0  0  0  0  0  0  0  0  0  0
   50.4850   31.6590   41.0720 N   0  0  0  0  0  0  0  0  0  0  0  0
   51.3470   31.1460   40.7900 H   0  0  0  0  0  0  0  0  0  0  0  0
   46.4830   34.3670   42.8860 O   0  0  0  0  0  0  0  0  0  0  0  0
   44.9720   35.1920   44.8190 O   0  0  0  0  0  0  0  0  0  0  0  0
   45.6320   33.9630   44.2670 P   0  0  1  0  0  0  0  0  0  0  0  0
   44.5490   32.7190   43.9600 O   0  0  0  0  0  0  0  0  0  0  0  0
   43.6750   33.1590   43.7240 H   0  0  0  0  0  0  0  0  0  0  0  0
   46.7270   33.3590   45.4150 O   0  0  0  0  0  0  0  0  0  0  0  0
   46.5710   32.0040   45.4720 C   0  0  0  0  0  0  0  0  0  0  0  0
   45.9710   31.5110   44.7250 H   0  0  0  0  0  0  0  0  0  0  0  0
   47.6060   31.5610   45.3620 H   0  0  0  0  0  0  0  0  0  0  0  0
   45.8060   31.9600   49.1130 C   0  0  0  0  0  0  0  0  0  0  0  0
   46.2580   32.4160   47.8710 C   0  0  0  0  0  0  0  0  0  0  0  0
   46.1060   31.5510   46.7890 C   0  0  0  0  0  0  0  0  0  0  0  0
   45.5320   30.3220   46.9930 N   0  0  0  0  0  0  0  0  0  0  0  0
   45.1080   29.9220   48.2140 C   0  0  0  0  0  0  0  0  0  0  0  0
   45.2490   30.7360   49.2500 N   0  0  0  0  0  0  0  0  0  0  0  0
   45.9300   32.6400   49.9490 H   0  0  0  0  0  0  0  0  0  0  0  0
   46.7050   33.3870   47.7390 H   0  0  0  0  0  0  0  0  0  0  0  0
   44.6620   28.9460   48.3320 H   0  0  0  0  0  0  0  0  0  0  0  0
  1  6  1  1  0  0  0
  1 23  1  0  0  0  0
  2  8  1  0  0  0  0
  2  1  1  0  0  0  0
  3  4  1  0  0  0  0
  3  2  1  0  0  0  0
  4 12  1  0  0  0  0
  4  5  1  0  0  0  0
  5  1  1  0  0  0  0
  5 13  1  1  0  0  0
  7  2  1  0  0  0  0
  9  3  1  0  0  0  0
 10  3  1  0  0  0  0
 11  4  1  0  0  0  0
 14 15  2  0  0  0  0
 15 21  1  0  0  0  0
 16 15  1  6  0  0  0
 16  5  1  0  0  0  0
 16 17  1  0  0  0  0
 17 18  1  0  0  0  0
 19 17  1  0  0  0  0
 19 20  1  0  0  0  0
 21 19  1  0  0  0  0
 22 21  1  0  0  0  0
 23 25  1  0  0  0  0
 25 24  2  1  0  0  0
 25 28  1  0  0  0  0
 26 25  1  0  0  0  0
 27 26  1  0  0  0  0
 28 29  1  0  0  0  0
 29 34  1  0  0  0  0
 30 29  1  0  0  0  0
 31 29  1  0  0  0  0
 32 37  1  0  0  0  0
 32 38  1  0  0  0  0
 33 32  2  0  0  0  0
 34 35  2  0  0  0  0
 34 33  1  0  0  0  0
 35 36  1  0  0  0  0
 36 40  1  0  0  0  0
 36 37  2  0  0  0  0
 39 33  1  0  0  0  0
M  END
>  <minimizedAffinity>
-4.72278976

>  <minimizedRMSD>
2.33241892

$$$$
