
 OpenBabel03252500173D

 20 21  0  0  1  0  0  0  0  0999 V2000
   44.5430   36.0460   44.5020 C   0  0  0  0  0  0  0  0  0  0  0  0
   45.3370   35.7210   43.4020 C   0  0  0  0  0  0  0  0  0  0  0  0
   46.1370   34.5780   43.5210 C   0  0  0  0  0  0  0  0  0  0  0  0
   46.1050   33.8500   44.6790 N   0  0  0  0  0  0  0  0  0  0  0  0
   45.3150   34.2170   45.7080 C   0  0  0  0  0  0  0  0  0  0  0  0
   44.5230   35.3280   45.6180 N   0  0  0  0  0  0  0  0  0  0  0  0
   45.2650   33.4710   46.9250 N   0  0  0  0  0  0  0  0  0  0  0  0
   43.9150   36.9270   44.4320 H   0  0  0  0  0  0  0  0  0  0  0  0
   45.3750   36.2850   42.4800 H   0  0  0  0  0  0  0  0  0  0  0  0
   44.9570   32.4930   46.7110 H   0  0  0  0  0  0  0  0  0  0  0  0
   45.4940   33.8190   47.8880 H   0  0  0  0  0  0  0  0  0  0  0  0
   47.9380   32.0900   43.8070 O   0  0  0  0  0  0  0  0  0  0  0  0
   47.9230   33.0280   42.9490 C   0  0  0  0  0  0  0  0  0  0  0  0
   47.0330   34.1050   42.4410 C   0  0  2  0  0  3  0  0  0  0  0  0
   47.9910   35.1710   41.9790 C   0  0  0  0  0  3  0  0  0  0  0  0
   48.1200   35.9670   42.7580 H   0  0  0  0  0  0  0  0  0  0  0  0
   49.2890   34.4890   41.6730 C   0  0  0  0  0  3  0  0  0  0  0  0
   50.1550   34.9390   42.2150 H   0  0  0  0  0  0  0  0  0  0  0  0
   49.1410   33.1350   42.1850 N   0  0  0  0  0  0  0  0  0  0  0  0
   49.9190   32.4660   41.9260 H   0  0  0  0  0  0  0  0  0  0  0  0
  1  6  1  0  0  0  0
  2  3  1  0  0  0  0
  2  1  2  0  0  0  0
  3  4  2  0  0  0  0
  4  5  1  0  0  0  0
  5  7  1  0  0  0  0
  6  5  2  0  0  0  0
  7 11  1  0  0  0  0
  8  1  1  0  0  0  0
  9  2  1  0  0  0  0
 10  7  1  0  0  0  0
 13 12  2  0  0  0  0
 14 13  1  0  0  0  0
 14  3  1  1  0  0  0
 15 14  1  0  0  0  0
 15 16  1  0  0  0  0
 17 15  1  0  0  0  0
 17 19  1  0  0  0  0
 17 18  1  0  0  0  0
 19 13  1  0  0  0  0
 20 19  1  0  0  0  0
M  END
>  <minimizedAffinity>
-4.67792988

>  <minimizedRMSD>
0.354710519

$$$$
