
 OpenBabel03252508323D

 32 34  0  0  1  0  0  0  0  0999 V2000
   45.6610   33.8910   43.2530 N   0  0  0  0  0  0  0  0  0  0  0  0
   46.2520   33.4300   42.0480 C   0  0  1  0  0  0  0  0  0  0  0  0
   45.9310   34.2580   40.8420 C   0  0  0  0  0  0  0  0  0  0  0  0
   44.6410   34.7960   40.7700 N   0  0  0  0  0  0  0  0  0  0  0  0
   44.0970   35.2780   41.9710 C   0  0  0  0  0  0  0  0  0  0  0  0
   45.0400   35.1800   43.1300 C   0  0  0  0  0  0  0  0  0  0  0  0
   45.8890   32.3980   41.8560 H   0  0  0  0  0  0  0  0  0  0  0  0
   46.6310   35.1440   40.9070 H   0  0  0  0  0  0  0  0  0  0  0  0
   46.1680   33.6800   39.9260 H   0  0  0  0  0  0  0  0  0  0  0  0
   44.4710   35.2950   39.8990 H   0  0  0  0  0  0  0  0  0  0  0  0
   43.1560   34.7490   42.2000 H   0  0  0  0  0  0  0  0  0  0  0  0
   43.9030   36.3830   41.8390 H   0  0  0  0  0  0  0  0  0  0  0  0
   44.5600   35.5790   44.0360 H   0  0  0  0  0  0  0  0  0  0  0  0
   45.8540   35.9190   42.9010 H   0  0  0  0  0  0  0  0  0  0  0  0
   45.7060   33.7780   45.6270 C   0  0  0  0  0  0  0  0  0  0  0  0
   45.7370   33.0880   44.4020 C   0  0  0  0  0  0  0  0  0  0  0  0
   45.8600   31.7110   44.4280 C   0  0  0  0  0  0  0  0  0  0  0  0
   45.9510   31.0370   45.6090 N   0  0  0  0  0  0  0  0  0  0  0  0
   45.9190   31.7300   46.7900 C   0  0  0  0  0  0  0  0  0  0  0  0
   45.7980   33.0700   46.7910 N   0  0  0  0  0  0  0  0  0  0  0  0
   45.6170   34.8340   45.8230 H   0  0  0  0  0  0  0  0  0  0  0  0
   45.8710   31.1700   43.4930 H   0  0  0  0  0  0  0  0  0  0  0  0
   45.9900   31.1960   47.7260 H   0  0  0  0  0  0  0  0  0  0  0  0
   48.5920   35.8610   41.7080 O   0  0  0  0  0  0  0  0  0  0  0  0
   48.4720   34.6020   41.8540 C   0  0  0  0  0  0  0  0  0  0  0  0
   47.7510   33.3320   42.0940 C   0  0  2  0  0  3  0  0  0  0  0  0
   48.3190   32.4860   40.9780 C   0  0  0  0  0  3  0  0  0  0  0  0
   48.1840   32.9250   39.9860 H   0  0  0  0  0  0  0  0  0  0  0  0
   49.8130   32.6530   41.3010 C   0  0  0  0  0  3  0  0  0  0  0  0
   50.1260   31.9860   42.1150 H   0  0  0  0  0  0  0  0  0  0  0  0
   49.8120   34.0690   41.7070 N   0  0  0  0  0  0  0  0  0  0  0  0
   50.8370   34.3660   41.7970 H   0  0  0  0  0  0  0  0  0  0  0  0
  1 16  1  0  0  0  0
  2  7  1  6  0  0  0
  2 26  1  0  0  0  0
  2  1  1  0  0  0  0
  3  8  1  0  0  0  0
  3  2  1  0  0  0  0
  4  3  1  0  0  0  0
  4  5  1  0  0  0  0
  5 11  1  0  0  0  0
  5  6  1  0  0  0  0
  6  1  1  0  0  0  0
  6 13  1  0  0  0  0
  9  3  1  0  0  0  0
 10  4  1  0  0  0  0
 12  5  1  0  0  0  0
 14  6  1  0  0  0  0
 15 21  1  0  0  0  0
 15 20  1  0  0  0  0
 16 17  1  0  0  0  0
 16 15  2  0  0  0  0
 17 18  2  0  0  0  0
 18 19  1  0  0  0  0
 19 20  2  0  0  0  0
 19 23  1  0  0  0  0
 22 17  1  0  0  0  0
 24 25  2  0  0  0  0
 25 26  1  0  0  0  0
 26 27  1  6  0  0  0
 27 29  1  0  0  0  0
 28 27  1  0  0  0  0
 29 31  1  0  0  0  0
 29 30  1  0  0  0  0
 31 32  1  0  0  0  0
 31 25  1  0  0  0  0
M  END
>  <minimizedAffinity>
-4.62459707

>  <minimizedRMSD>
2.21202874

$$$$
