
 OpenBabel03252501313D

 20 21  0  0  1  0  0  0  0  0999 V2000
   46.4640   34.6100   42.1230 C   0  0  0  0  0  0  0  0  0  0  0  0
   46.5180   34.2590   40.7740 C   0  0  0  0  0  0  0  0  0  0  0  0
   47.7680   34.0760   40.1820 C   0  0  0  0  0  0  0  0  0  0  0  0
   48.8520   34.2520   40.9580 N   0  0  0  0  0  0  0  0  0  0  0  0
   48.7890   34.5940   42.2680 C   0  0  0  0  0  0  0  0  0  0  0  0
   47.5860   34.7740   42.8550 N   0  0  0  0  0  0  0  0  0  0  0  0
   47.7700   33.8090   39.1510 H   0  0  0  0  0  0  0  0  0  0  0  0
   49.7030   34.7190   42.8300 H   0  0  0  0  0  0  0  0  0  0  0  0
   45.3440   32.7430   43.8710 O   0  0  0  0  0  0  0  0  0  0  0  0
   45.0980   33.9440   44.0340 C   0  0  0  0  0  0  0  0  0  0  0  0
   45.1920   34.8280   42.8510 C   0  0  1  0  0  0  0  0  0  0  0  0
   45.1810   36.2330   43.3740 C   0  0  0  0  0  0  0  0  0  0  0  0
   46.2230   36.6610   43.4430 H   0  0  0  0  0  0  0  0  0  0  0  0
   44.5370   36.1500   44.7200 C   0  0  0  0  0  0  0  0  0  0  0  0
   45.0150   36.8320   45.4770 H   0  0  0  0  0  0  0  0  0  0  0  0
   44.7230   34.7890   45.1060 N   0  0  0  0  0  0  0  0  0  0  0  0
   44.6090   34.3800   46.0730 H   0  0  0  0  0  0  0  0  0  0  0  0
   45.2590   34.1170   40.1170 N   0  0  0  0  0  0  0  0  0  0  0  0
   44.6740   34.8240   39.5960 H   0  0  0  0  0  0  0  0  0  0  0  0
   45.1060   33.1010   40.3150 H   0  0  0  0  0  0  0  0  0  0  0  0
  1  6  1  0  0  0  0
  2  1  2  0  0  0  0
  3  2  1  0  0  0  0
  3  4  2  0  0  0  0
  4  5  1  0  0  0  0
  5  8  1  0  0  0  0
  5  6  2  0  0  0  0
  7  3  1  0  0  0  0
  9 10  2  0  0  0  0
 10 16  1  0  0  0  0
 11  1  1  1  0  0  0
 11 12  1  0  0  0  0
 11 10  1  0  0  0  0
 12 13  1  0  0  0  0
 12 14  1  0  0  0  0
 14 16  1  0  0  0  0
 14 15  1  0  0  0  0
 16 17  1  0  0  0  0
 18 20  1  0  0  0  0
 18  2  1  0  0  0  0
 19 18  1  0  0  0  0
M  END
>  <minimizedAffinity>
-4.32216978

>  <minimizedRMSD>
3.94256806

$$$$
