
 OpenBabel03252500533D

 24 25  0  0  1  0  0  0  0  0999 V2000
   46.2670   33.9860   44.3290 C   0  0  0  0  0  0  0  0  0  0  0  0
   46.6490   34.3930   43.0530 C   0  0  0  0  0  0  0  0  0  0  0  0
   45.9660   35.5350   42.5190 C   0  0  0  0  0  0  0  0  0  0  0  0
   45.0030   36.1380   43.2810 N   0  0  0  0  0  0  0  0  0  0  0  0
   44.6880   35.6870   44.5040 C   0  0  0  0  0  0  0  0  0  0  0  0
   45.3020   34.6350   45.0230 N   0  0  0  0  0  0  0  0  0  0  0  0
   46.1260   35.9930   41.5520 H   0  0  0  0  0  0  0  0  0  0  0  0
   43.9280   36.1550   45.1130 H   0  0  0  0  0  0  0  0  0  0  0  0
   49.6740   34.6790   43.0400 O   0  0  0  0  0  0  0  0  0  0  0  0
   48.8220   34.7170   42.0870 C   0  0  0  0  0  0  0  0  0  0  0  0
   47.6300   33.7970   42.1330 C   0  0  2  0  0  0  0  0  0  0  0  0
   47.1470   33.8500   40.6910 C   0  0  0  0  0  0  0  0  0  0  0  0
   46.1150   34.2880   40.6150 H   0  0  0  0  0  0  0  0  0  0  0  0
   48.1470   34.6380   39.9100 C   0  0  0  0  0  0  0  0  0  0  0  0
   47.6850   35.2780   39.1230 H   0  0  0  0  0  0  0  0  0  0  0  0
   48.7640   35.5050   40.9040 N   0  0  0  0  0  0  0  0  0  0  0  0
   49.1430   36.4880   40.9520 H   0  0  0  0  0  0  0  0  0  0  0  0
   46.9420   32.8230   44.8820 C   0  0  0  0  0  0  0  0  0  0  0  0
   48.0460   32.9740   44.6810 H   0  0  0  0  0  0  0  0  0  0  0  0
   46.6920   31.8980   44.3600 H   0  0  0  0  0  0  0  0  0  0  0  0
   46.6890   32.7340   46.3690 C   0  0  0  0  0  0  0  0  0  0  0  0
   46.0230   33.5020   46.7740 H   0  0  0  0  0  0  0  0  0  0  0  0
   46.1000   31.7660   46.5110 H   0  0  0  0  0  0  0  0  0  0  0  0
   47.6160   32.5460   46.9480 H   0  0  0  0  0  0  0  0  0  0  0  0
  1 18  1  0  0  0  0
  1  6  1  0  0  0  0
  2  1  2  0  0  0  0
  3  2  1  0  0  0  0
  3  4  2  0  0  0  0
  4  5  1  0  0  0  0
  5  6  2  0  0  0  0
  5  8  1  0  0  0  0
  7  3  1  0  0  0  0
 10 11  1  0  0  0  0
 10  9  2  0  0  0  0
 11  2  1  1  0  0  0
 12 11  1  0  0  0  0
 13 12  1  0  0  0  0
 14 12  1  0  0  0  0
 14 16  1  0  0  0  0
 15 14  1  0  0  0  0
 16 17  1  0  0  0  0
 16 10  1  0  0  0  0
 18 21  1  0  0  0  0
 19 18  1  0  0  0  0
 20 18  1  0  0  0  0
 21 23  1  0  0  0  0
 21 22  1  0  0  0  0
 21 24  1  0  0  0  0
M  END
>  <minimizedAffinity>
-4.60555029

>  <minimizedRMSD>
2.53566408

$$$$
