
 OpenBabel03252509333D

 40 42  0  0  1  0  0  0  0  0999 V2000
   45.0720   34.1020   41.8760 C   0  0  1  0  0  0  0  0  0  0  0  0
   44.2680   34.9230   40.8760 C   0  0  0  0  0  0  0  0  0  0  0  0
   44.1060   33.9680   39.7340 C   0  0  0  0  0  0  0  0  0  0  0  0
   45.2630   33.0110   39.8110 C   0  0  0  0  0  0  0  0  0  0  0  0
   46.1290   33.5250   40.9730 C   0  0  1  0  0  0  0  0  0  0  0  0
   44.4370   33.2500   42.2070 H   0  0  0  0  0  0  0  0  0  0  0  0
   44.7540   35.8680   40.6250 H   0  0  0  0  0  0  0  0  0  0  0  0
   43.2600   35.0700   41.3490 H   0  0  0  0  0  0  0  0  0  0  0  0
   43.1350   33.4300   39.7280 H   0  0  0  0  0  0  0  0  0  0  0  0
   44.1690   34.5720   38.7920 H   0  0  0  0  0  0  0  0  0  0  0  0
   45.8280   33.0120   38.8660 H   0  0  0  0  0  0  0  0  0  0  0  0
   44.9050   31.9780   40.0040 H   0  0  0  0  0  0  0  0  0  0  0  0
   46.5100   32.5980   41.4660 H   0  0  0  0  0  0  0  0  0  0  0  0
   47.5950   33.9020   38.0350 O   0  0  0  0  0  0  0  0  0  0  0  0
   47.8950   33.9150   39.2800 C   0  0  0  0  0  0  0  0  0  0  0  0
   47.1990   34.4370   40.5190 C   0  0  2  0  0  3  0  0  0  0  0  0
   48.3500   34.4120   41.4990 C   0  0  0  0  0  3  0  0  0  0  0  0
   48.0550   34.2330   42.5420 H   0  0  0  0  0  0  0  0  0  0  0  0
   49.1140   33.1600   41.0470 C   0  0  0  0  0  3  0  0  0  0  0  0
   48.5130   32.2900   41.3070 H   0  0  0  0  0  0  0  0  0  0  0  0
   49.1400   33.3220   39.6220 N   0  0  0  0  0  0  0  0  0  0  0  0
   49.9620   33.0290   39.0500 H   0  0  0  0  0  0  0  0  0  0  0  0
   45.5480   34.8530   42.9170 O   0  0  0  0  0  0  0  0  0  0  0  0
   44.8480   34.8450   45.4090 O   0  0  0  0  0  0  0  0  0  0  0  0
   45.4630   33.9860   44.3440 P   0  0  1  0  0  0  0  0  0  0  0  0
   44.6460   32.5380   44.1170 O   0  0  0  0  0  0  0  0  0  0  0  0
   43.6820   32.7210   44.3390 H   0  0  0  0  0  0  0  0  0  0  0  0
   47.0390   33.5660   44.8120 O   0  0  0  0  0  0  0  0  0  0  0  0
   47.1210   32.2030   44.8380 C   0  0  0  0  0  0  0  0  0  0  0  0
   46.4680   31.6240   44.2070 H   0  0  0  0  0  0  0  0  0  0  0  0
   48.1690   31.9420   44.5010 H   0  0  0  0  0  0  0  0  0  0  0  0
   47.0520   32.0110   48.5530 C   0  0  0  0  0  0  0  0  0  0  0  0
   47.1540   32.5500   47.2670 C   0  0  0  0  0  0  0  0  0  0  0  0
   47.0180   31.6650   46.2000 C   0  0  0  0  0  0  0  0  0  0  0  0
   46.7950   30.3370   46.4600 N   0  0  0  0  0  0  0  0  0  0  0  0
   46.7030   29.8580   47.7220 C   0  0  0  0  0  0  0  0  0  0  0  0
   46.8320   30.6910   48.7450 N   0  0  0  0  0  0  0  0  0  0  0  0
   47.1600   32.7080   49.3770 H   0  0  0  0  0  0  0  0  0  0  0  0
   47.3300   33.5980   47.0930 H   0  0  0  0  0  0  0  0  0  0  0  0
   46.5270   28.8050   47.8830 H   0  0  0  0  0  0  0  0  0  0  0  0
  1  6  1  1  0  0  0
  1 23  1  0  0  0  0
  2  8  1  0  0  0  0
  2  1  1  0  0  0  0
  3  4  1  0  0  0  0
  3  2  1  0  0  0  0
  4 12  1  0  0  0  0
  4  5  1  0  0  0  0
  5 13  1  1  0  0  0
  5  1  1  0  0  0  0
  7  2  1  0  0  0  0
  9  3  1  0  0  0  0
 10  3  1  0  0  0  0
 11  4  1  0  0  0  0
 14 15  2  0  0  0  0
 15 21  1  0  0  0  0
 16 15  1  6  0  0  0
 16  5  1  0  0  0  0
 16 17  1  0  0  0  0
 17 18  1  0  0  0  0
 19 20  1  0  0  0  0
 19 17  1  0  0  0  0
 21 19  1  0  0  0  0
 22 21  1  0  0  0  0
 23 25  1  0  0  0  0
 25 28  1  0  0  0  0
 25 24  2  1  0  0  0
 26 27  1  0  0  0  0
 26 25  1  0  0  0  0
 28 29  1  0  0  0  0
 29 34  1  0  0  0  0
 30 29  1  0  0  0  0
 31 29  1  0  0  0  0
 32 37  1  0  0  0  0
 32 38  1  0  0  0  0
 33 32  2  0  0  0  0
 34 35  2  0  0  0  0
 34 33  1  0  0  0  0
 35 36  1  0  0  0  0
 36 40  1  0  0  0  0
 36 37  2  0  0  0  0
 39 33  1  0  0  0  0
M  END
>  <minimizedAffinity>
-5.0525918

>  <minimizedRMSD>
2.7930963

$$$$
