REMARK  Name = 
REMARK  1 active torsions:
REMARK  status: ('A' for Active; 'I' for Inactive)
REMARK    1  A    between atoms: C_2  and  C_14
REMARK                            x       y       z     vdW  Elec       q    Type
REMARK                         _______ _______ _______ _____ _____    ______ ____
ROOT
ATOM      1  C   UNL     1      45.099  35.359  44.175  0.00  0.00    +0.000 A 
ATOM      2  C   UNL     1      46.128  34.790  43.381  0.00  0.00    +0.000 A 
ATOM      3  C   UNL     1      46.858  33.715  43.920  0.00  0.00    +0.000 A 
ATOM      4  N   UNL     1      46.531  33.291  45.166  0.00  0.00    +0.000 NA
ATOM      5  C   UNL     1      45.557  33.843  45.895  0.00  0.00    +0.000 A 
ATOM      6  N   UNL     1      44.838  34.878  45.404  0.00  0.00    +0.000 NA
ATOM      7  N   UNL     1      44.354  36.446  43.642  0.00  0.00    +0.000 N 
ATOM      8  H   UNL     1      47.649  33.263  43.334  0.00  0.00    +0.000 HD
ATOM      9  H   UNL     1      45.386  33.419  46.879  0.00  0.00    +0.000 HD
ATOM     10  H   UNL     1      43.356  36.491  43.327  0.00  0.00    +0.000 HD
ATOM     11  H   UNL     1      45.075  37.222  43.642  0.00  0.00    +0.000 HD
ENDROOT
BRANCH   2  14
ATOM     12  O   UNL     1      48.642  34.589  41.676  0.00  0.00    +0.000 OA
ATOM     13  C   UNL     1      47.424  34.401  41.422  0.00  0.00    +0.000 C 
ATOM     14  C   UNL     1      46.423  35.302  42.046  0.00  0.00    +0.000 C 
ATOM     15  C   UNL     1      45.288  35.232  41.070  0.00  0.00    +0.000 C 
ATOM     16  H   UNL     1      44.316  35.553  41.453  0.00  0.00    +0.000 HD
ATOM     17  C   UNL     1      45.302  33.785  40.626  0.00  0.00    +0.000 C 
ATOM     18  H   UNL     1      44.804  33.620  39.656  0.00  0.00    +0.000 HD
ATOM     19  N   UNL     1      46.694  33.472  40.627  0.00  0.00    +0.000 N 
ATOM     20  H   UNL     1      47.285  32.715  40.173  0.00  0.00    +0.000 HD
ENDBRANCH   2  14
TORSDOF 1
