
 OpenBabel03252502463D

 45 48  0  0  1  0  0  0  0  0999 V2000
   46.6480   35.4110   42.2410 C   0  0  0  0  0  0  0  0  0  0  0  0
   46.9650   35.8530   43.2180 H   0  0  0  0  0  0  0  0  0  0  0  0
   46.0610   36.2080   41.7150 H   0  0  0  0  0  0  0  0  0  0  0  0
   47.8720   34.9920   41.4890 C   0  0  1  0  0  0  0  0  0  0  0  0
   49.0770   35.8710   41.5850 C   0  0  0  0  0  0  0  0  0  0  0  0
   49.0180   34.5520   42.2710 C   0  0  2  0  0  0  0  0  0  0  0  0
   47.6490   34.5770   40.5110 H   0  0  0  0  0  0  0  0  0  0  0  0
   48.9600   36.8070   42.1840 H   0  0  0  0  0  0  0  0  0  0  0  0
   49.7210   36.0350   40.6840 H   0  0  0  0  0  0  0  0  0  0  0  0
   49.1210   34.6090   43.3490 H   0  0  0  0  0  0  0  0  0  0  0  0
   49.8300   33.5480   41.6050 N   0  0  0  0  0  0  0  0  0  0  0  0
   49.0950   32.6560   40.7820 C   0  0  0  0  0  0  0  0  0  0  0  0
   50.1130   31.6990   40.1930 C   0  0  0  0  0  0  0  0  0  0  0  0
   50.7660   30.9220   41.2010 N   0  0  0  0  0  0  0  0  0  0  0  0
   50.8340   31.5770   42.4900 C   0  0  0  0  0  0  0  0  0  0  0  0
   50.9520   33.0870   42.3020 C   0  0  0  0  0  0  0  0  0  0  0  0
   48.3310   32.1260   41.3770 H   0  0  0  0  0  0  0  0  0  0  0  0
   48.5930   33.1610   39.9460 H   0  0  0  0  0  0  0  0  0  0  0  0
   49.5590   31.0140   39.5080 H   0  0  0  0  0  0  0  0  0  0  0  0
   50.8130   32.2750   39.5690 H   0  0  0  0  0  0  0  0  0  0  0  0
   51.6610   30.5440   40.8720 H   0  0  0  0  0  0  0  0  0  0  0  0
   51.6690   31.1790   43.0860 H   0  0  0  0  0  0  0  0  0  0  0  0
   49.8750   31.3830   43.0300 H   0  0  0  0  0  0  0  0  0  0  0  0
   51.9030   33.3350   41.7960 H   0  0  0  0  0  0  0  0  0  0  0  0
   50.9650   33.5100   43.3280 H   0  0  0  0  0  0  0  0  0  0  0  0
   45.8410   34.1700   42.4760 C   0  0  0  0  0  0  0  0  0  0  0  0
   46.1790   33.2630   41.9930 H   0  0  0  0  0  0  0  0  0  0  0  0
   44.8170   34.3630   42.0390 H   0  0  0  0  0  0  0  0  0  0  0  0
   44.7060   34.9220   45.9630 C   0  0  0  0  0  0  0  0  0  0  0  0
   44.9230   35.0650   44.5750 C   0  0  0  0  0  0  0  0  0  0  0  0
   45.5990   34.0380   43.9500 C   0  0  0  0  0  0  0  0  0  0  0  0
   46.0180   32.9660   44.6630 N   0  0  0  0  0  0  0  0  0  0  0  0
   45.8010   32.8550   45.9660 C   0  0  0  0  0  0  0  0  0  0  0  0
   45.1540   33.8180   46.6120 N   0  0  0  0  0  0  0  0  0  0  0  0
   44.1760   35.7080   46.4970 H   0  0  0  0  0  0  0  0  0  0  0  0
   44.5810   35.9280   44.0300 H   0  0  0  0  0  0  0  0  0  0  0  0
   45.7640   32.6830   48.9070 O   0  0  0  0  0  0  0  0  0  0  0  0
   45.8440   31.6740   48.1380 C   0  0  0  0  0  0  0  0  0  0  0  0
   46.2750   31.6620   46.7180 C   0  0  1  0  0  3  0  0  0  0  0  0
   45.6970   30.4180   46.1200 C   0  0  0  0  0  3  0  0  0  0  0  0
   44.9490   30.6140   45.3210 H   0  0  0  0  0  0  0  0  0  0  0  0
   45.0850   29.6740   47.2760 C   0  0  0  0  0  3  0  0  0  0  0  0
   45.4170   28.6230   47.3040 H   0  0  0  0  0  0  0  0  0  0  0  0
   45.5300   30.3400   48.4900 N   0  0  0  0  0  0  0  0  0  0  0  0
   45.5990   29.8980   49.4330 H   0  0  0  0  0  0  0  0  0  0  0  0
  1 26  1  0  0  0  0
  1  2  1  0  0  0  0
  3  1  1  0  0  0  0
  4  7  1  6  0  0  0
  4  5  1  0  0  0  0
  4  1  1  0  0  0  0
  4  6  1  0  0  0  0
  5  8  1  0  0  0  0
  5  6  1  0  0  0  0
  6 10  1  1  0  0  0
  9  5  1  0  0  0  0
 11  6  1  0  0  0  0
 11 16  1  0  0  0  0
 12 17  1  0  0  0  0
 12 11  1  0  0  0  0
 13 12  1  0  0  0  0
 13 14  1  0  0  0  0
 14 15  1  0  0  0  0
 15 23  1  0  0  0  0
 15 22  1  0  0  0  0
 16 15  1  0  0  0  0
 16 25  1  0  0  0  0
 18 12  1  0  0  0  0
 19 13  1  0  0  0  0
 20 13  1  0  0  0  0
 21 14  1  0  0  0  0
 24 16  1  0  0  0  0
 26 31  1  0  0  0  0
 27 26  1  0  0  0  0
 28 26  1  0  0  0  0
 29 35  1  0  0  0  0
 29 34  1  0  0  0  0
 30 29  2  0  0  0  0
 31 30  1  0  0  0  0
 31 32  2  0  0  0  0
 32 33  1  0  0  0  0
 33 34  2  0  0  0  0
 36 30  1  0  0  0  0
 38 44  1  0  0  0  0
 38 37  2  0  0  0  0
 39 33  1  6  0  0  0
 39 38  1  0  0  0  0
 40 39  1  0  0  0  0
 40 42  1  0  0  0  0
 41 40  1  0  0  0  0
 42 43  1  0  0  0  0
 42 44  1  0  0  0  0
 44 45  1  0  0  0  0
M  END
>  <minimizedAffinity>
-5.58698034

>  <minimizedRMSD>
1.49393332

$$$$
