REMARK  Name = 
REMARK  1 active torsions:
REMARK  status: ('A' for Active; 'I' for Inactive)
REMARK    1  A    between atoms: C_3  and  C_14
REMARK                            x       y       z     vdW  Elec       q    Type
REMARK                         _______ _______ _______ _____ _____    ______ ____
ROOT
ATOM      1  C   UNL     1      44.662  36.034  44.324  0.00  0.00    +0.000 A 
ATOM      2  C   UNL     1      45.463  35.562  43.284  0.00  0.00    +0.000 A 
ATOM      3  C   UNL     1      46.173  34.380  43.525  0.00  0.00    +0.000 A 
ATOM      4  N   UNL     1      46.053  33.756  44.737  0.00  0.00    +0.000 NA
ATOM      5  C   UNL     1      45.262  34.264  45.703  0.00  0.00    +0.000 A 
ATOM      6  N   UNL     1      44.557  35.416  45.494  0.00  0.00    +0.000 NA
ATOM      7  N   UNL     1      45.122  33.629  46.975  0.00  0.00    +0.000 N 
ATOM      8  H   UNL     1      44.103  36.948  44.160  0.00  0.00    +0.000 HD
ATOM      9  H   UNL     1      45.569  36.042  42.320  0.00  0.00    +0.000 HD
ATOM     10  H   UNL     1      44.750  32.660  46.831  0.00  0.00    +0.000 HD
ATOM     11  H   UNL     1      45.347  34.040  47.914  0.00  0.00    +0.000 HD
ENDROOT
BRANCH   3  14
ATOM     12  O   UNL     1      48.455  32.447  44.279  0.00  0.00    +0.000 OA
ATOM     13  C   UNL     1      48.188  33.056  43.196  0.00  0.00    +0.000 C 
ATOM     14  C   UNL     1      47.064  33.755  42.520  0.00  0.00    +0.000 C 
ATOM     15  C   UNL     1      47.750  34.772  41.647  0.00  0.00    +0.000 C 
ATOM     16  H   UNL     1      47.772  35.780  42.137  0.00  0.00    +0.000 HD
ATOM     17  C   UNL     1      49.132  34.260  41.383  0.00  0.00    +0.000 C 
ATOM     18  H   UNL     1      49.927  34.996  41.652  0.00  0.00    +0.000 HD
ATOM     19  N   UNL     1      49.299  33.126  42.280  0.00  0.00    +0.000 N 
ATOM     20  H   UNL     1      50.175  32.553  42.126  0.00  0.00    +0.000 HD
ENDBRANCH   3  14
TORSDOF 1
