REMARK  Name = 
REMARK  2 active torsions:
REMARK  status: ('A' for Active; 'I' for Inactive)
REMARK    1  A    between atoms: C_2  and  N_12
REMARK    2  A    between atoms: C_11  and  C_26
REMARK                            x       y       z     vdW  Elec       q    Type
REMARK                         _______ _______ _______ _____ _____    ______ ____
ROOT
ATOM      1  C   UNL     1      44.502  35.752  45.013  0.00  0.00    +0.000 A 
ATOM      2  C   UNL     1      45.114  35.702  43.749  0.00  0.00    +0.000 A 
ATOM      3  C   UNL     1      46.015  34.675  43.479  0.00  0.00    +0.000 A 
ATOM      4  N   UNL     1      46.238  33.784  44.471  0.00  0.00    +0.000 NA
ATOM      5  C   UNL     1      45.649  33.845  45.663  0.00  0.00    +0.000 A 
ATOM      6  N   UNL     1      44.784  34.818  45.946  0.00  0.00    +0.000 NA
ATOM      7  N   UNL     1      45.943  32.854  46.630  0.00  0.00    +0.000 N 
ATOM      8  C   UNL     1      45.140  32.560  47.809  0.00  0.00    +0.000 C 
ATOM      9  C   UNL     1      46.219  32.206  48.812  0.00  0.00    +0.000 C 
ATOM     10  C   UNL     1      47.504  32.024  48.059  0.00  0.00    +0.000 C 
ATOM     11  C   UNL     1      47.084  31.944  46.642  0.00  0.00    +0.000 C 
ATOM     12  H   UNL     1      43.800  36.517  45.279  0.00  0.00    +0.000 HD
ATOM     13  H   UNL     1      46.447  34.686  42.515  0.00  0.00    +0.000 HD
ATOM     14  H   UNL     1      44.543  33.447  48.111  0.00  0.00    +0.000 HD
ATOM     15  H   UNL     1      44.421  31.735  47.643  0.00  0.00    +0.000 HD
ATOM     16  H   UNL     1      45.943  31.295  49.406  0.00  0.00    +0.000 HD
ATOM     17  H   UNL     1      46.287  33.038  49.553  0.00  0.00    +0.000 HD
ATOM     18  H   UNL     1      47.982  31.049  48.369  0.00  0.00    +0.000 HD
ATOM     19  H   UNL     1      48.238  32.851  48.246  0.00  0.00    +0.000 HD
ATOM     20  H   UNL     1      47.857  32.356  45.964  0.00  0.00    +0.000 HD
ENDROOT
BRANCH  11  23
ATOM     21  O   UNL     1      44.718  30.033  47.266  0.00  0.00    +0.000 OA
ATOM     22  C   UNL     1      45.248  30.384  46.172  0.00  0.00    +0.000 C 
ATOM     23  C   UNL     1      46.711  30.566  46.178  0.00  0.00    +0.000 C 
ATOM     24  C   UNL     1      47.037  30.515  44.682  0.00  0.00    +0.000 C 
ATOM     25  H   UNL     1      47.878  31.188  44.444  0.00  0.00    +0.000 HD
ATOM     26  C   UNL     1      45.802  31.081  43.998  0.00  0.00    +0.000 C 
ATOM     27  H   UNL     1      45.647  30.683  42.991  0.00  0.00    +0.000 HD
ATOM     28  N   UNL     1      44.713  30.657  44.861  0.00  0.00    +0.000 N 
ATOM     29  H   UNL     1      43.684  30.506  44.777  0.00  0.00    +0.000 HD
ENDBRANCH  11  23
BRANCH   2  30
ATOM     30  N   UNL     1      44.717  36.748  42.854  0.00  0.00    +0.000 N 
ATOM     31  H   UNL     1      43.903  36.318  42.353  0.00  0.00    +0.000 HD
ATOM     32  H   UNL     1      45.239  37.665  42.842  0.00  0.00    +0.000 HD
ENDBRANCH   2  30
TORSDOF 2
