REMARK  Name = 
REMARK  5 active torsions:
REMARK  status: ('A' for Active; 'I' for Inactive)
REMARK    1  A    between atoms: C_2  and  C_7
REMARK    2  A    between atoms: C_5  and  O_11
REMARK    3  A    between atoms: O_11  and  C_12
REMARK    4  A    between atoms: C_12  and  C_13
REMARK    5  A    between atoms: C_17  and  C_27
REMARK                            x       y       z     vdW  Elec       q    Type
REMARK                         _______ _______ _______ _____ _____    ______ ____
ROOT
ATOM      1  C   UNL     1      46.521  30.770  48.011  0.00  0.00    +0.000 A 
ATOM      2  C   UNL     1      47.085  29.652  47.425  0.00  0.00    +0.000 A 
ATOM      3  C   UNL     1      48.315  29.232  47.826  0.00  0.00    +0.000 A 
ATOM      4  N   UNL     1      48.995  29.865  48.769  0.00  0.00    +0.000 NA
ATOM      5  C   UNL     1      48.453  30.956  49.347  0.00  0.00    +0.000 A 
ATOM      6  N   UNL     1      47.230  31.418  48.984  0.00  0.00    +0.000 NA
ATOM      7  H   UNL     1      46.456  29.219  46.680  0.00  0.00    +0.000 HD
ATOM      8  H   UNL     1      48.677  28.351  47.314  0.00  0.00    +0.000 HD
ENDROOT
BRANCH   5  11
ATOM      9  O   UNL     1      50.807  32.919  48.835  0.00  0.00    +0.000 OA
ATOM     10  C   UNL     1      50.458  32.310  49.879  0.00  0.00    +0.000 C 
ATOM     11  C   UNL     1      49.227  31.679  50.422  0.00  0.00    +0.000 C 
ATOM     12  C   UNL     1      49.831  30.673  51.398  0.00  0.00    +0.000 C 
ATOM     13  H   UNL     1      49.086  30.287  52.118  0.00  0.00    +0.000 HD
ATOM     14  C   UNL     1      50.853  31.594  52.059  0.00  0.00    +0.000 C 
ATOM     15  H   UNL     1      50.321  32.466  52.520  0.00  0.00    +0.000 HD
ATOM     16  N   UNL     1      51.493  32.140  50.870  0.00  0.00    +0.000 N 
ATOM     17  H   UNL     1      52.531  32.329  50.871  0.00  0.00    +0.000 HD
ENDBRANCH   5  11
BRANCH   1  18
ATOM     18  C   UNL     1      45.242  31.425  47.774  0.00  0.00    +0.000 C 
ATOM     19  H   UNL     1      44.693  30.989  46.926  0.00  0.00    +0.000 HD
ATOM     20  H   UNL     1      44.596  31.264  48.677  0.00  0.00    +0.000 HD
BRANCH  18  21
ATOM     21  O   UNL     1      45.461  32.810  47.693  0.00  0.00    +0.000 OA
BRANCH  21  26
ATOM     22  C   UNL     1      44.828  35.159  45.098  0.00  0.00    +0.000 A 
ATOM     23  C   UNL     1      45.703  34.787  44.081  0.00  0.00    +0.000 A 
ATOM     24  C   UNL     1      46.532  33.681  44.324  0.00  0.00    +0.000 A 
ATOM     25  N   UNL     1      46.443  33.044  45.508  0.00  0.00    +0.000 NA
ATOM     26  C   UNL     1      45.578  33.447  46.458  0.00  0.00    +0.000 A 
ATOM     27  N   UNL     1      44.774  34.495  46.261  0.00  0.00    +0.000 NA
ATOM     28  H   UNL     1      44.153  36.009  44.983  0.00  0.00    +0.000 HD
ATOM     29  H   UNL     1      47.212  33.390  43.536  0.00  0.00    +0.000 HD
BRANCH  23  30
ATOM     30  C   UNL     1      45.715  35.569  42.806  0.00  0.00    +0.000 C 
ATOM     31  F   UNL     1      45.206  36.812  43.155  0.00  0.00    +0.000 F 
ATOM     32  F   UNL     1      44.809  34.927  41.952  0.00  0.00    +0.000 F 
ATOM     33  F   UNL     1      46.976  35.609  42.309  0.00  0.00    +0.000 F 
ENDBRANCH  23  30
ENDBRANCH  21  26
ENDBRANCH  18  21
ENDBRANCH   1  18
TORSDOF 5
