
 OpenBabel03242523203D

 37 40  0  0  1  0  0  0  0  0999 V2000
   44.5270   31.7950   42.9030 Cl  0  0  0  0  0  0  0  0  0  0  0  0
   44.5680   33.5510   42.8010 C   0  0  0  0  0  0  0  0  0  0  0  0
   45.4520   34.1880   43.6980 C   0  0  0  0  0  0  0  0  0  0  0  0
   45.4180   35.5620   43.5210 C   0  0  0  0  0  0  0  0  0  0  0  0
   44.7010   36.3010   42.6620 C   0  0  0  0  0  0  0  0  0  0  0  0
   43.8750   35.6070   41.8320 C   0  0  0  0  0  0  0  0  0  0  0  0
   43.7880   34.2500   41.8810 C   0  0  0  0  0  0  0  0  0  0  0  0
   46.0310   36.2190   44.1740 H   0  0  0  0  0  0  0  0  0  0  0  0
   44.7170   37.3750   42.5640 H   0  0  0  0  0  0  0  0  0  0  0  0
   43.2170   36.0270   41.0720 H   0  0  0  0  0  0  0  0  0  0  0  0
   44.3180   33.4230   38.9870 O   0  0  0  0  0  0  0  0  0  0  0  0
   43.2040   33.6740   39.5630 C   0  0  0  0  0  0  0  0  0  0  0  0
   42.9150   33.4050   41.0190 C   0  0  2  0  0  3  0  0  0  0  0  0
   41.4720   33.6950   41.1010 C   0  0  0  0  0  3  0  0  0  0  0  0
   41.2040   34.7120   41.4490 H   0  0  0  0  0  0  0  0  0  0  0  0
   40.9110   33.6350   39.6890 C   0  0  0  0  0  3  0  0  0  0  0  0
   40.8290   32.5570   39.3790 H   0  0  0  0  0  0  0  0  0  0  0  0
   42.0270   34.2500   38.9570 N   0  0  0  0  0  0  0  0  0  0  0  0
   42.0600   34.9440   38.1760 H   0  0  0  0  0  0  0  0  0  0  0  0
   46.3250   33.5260   44.7010 C   0  0  0  0  0  0  0  0  0  0  0  0
   45.7470   33.8950   45.6940 O   0  0  0  0  0  0  0  0  0  0  0  0
   47.3900   32.7980   43.9960 C   0  0  0  0  0  0  0  0  0  0  0  0
   48.2470   33.3110   43.1040 C   0  0  0  0  0  0  0  0  0  0  0  0
   49.0800   32.3810   42.5150 C   0  0  0  0  0  0  0  0  0  0  0  0
   48.9630   31.0340   42.8940 N   0  0  0  0  0  0  0  0  0  0  0  0
   48.0990   30.6070   43.7810 C   0  0  0  0  0  0  0  0  0  0  0  0
   47.2460   31.5050   44.3910 N   0  0  0  0  0  0  0  0  0  0  0  0
   49.8330   32.6230   41.7690 H   0  0  0  0  0  0  0  0  0  0  0  0
   48.1300   29.5390   43.9690 H   0  0  0  0  0  0  0  0  0  0  0  0
   48.4450   34.6850   42.8100 C   0  0  0  0  0  0  0  0  0  0  0  0
   49.4830   35.2720   42.1530 C   0  0  0  0  0  0  0  0  0  0  0  0
   48.2590   35.1210   41.2910 C   0  0  0  0  0  0  0  0  0  0  0  0
   47.9820   35.3750   43.5410 H   0  0  0  0  0  0  0  0  0  0  0  0
   50.3480   34.6420   41.7860 H   0  0  0  0  0  0  0  0  0  0  0  0
   49.8300   36.3290   42.1730 H   0  0  0  0  0  0  0  0  0  0  0  0
   47.5580   35.9560   41.1700 H   0  0  0  0  0  0  0  0  0  0  0  0
   48.1960   34.2480   40.6040 H   0  0  0  0  0  0  0  0  0  0  0  0
  2  1  1  0  0  0  0
  2  3  1  0  0  0  0
  3 20  1  0  0  0  0
  4  3  2  0  0  0  0
  4  8  1  0  0  0  0
  5  4  1  0  0  0  0
  6  7  1  0  0  0  0
  6  5  2  0  0  0  0
  7  2  2  0  0  0  0
  9  5  1  0  0  0  0
 10  6  1  0  0  0  0
 11 12  2  0  0  0  0
 12 13  1  0  0  0  0
 13 14  1  0  0  0  0
 13  7  1  1  0  0  0
 14 15  1  0  0  0  0
 16 14  1  0  0  0  0
 17 16  1  0  0  0  0
 18 12  1  0  0  0  0
 18 16  1  0  0  0  0
 19 18  1  0  0  0  0
 20 21  2  0  0  0  0
 22 27  1  0  0  0  0
 22 20  1  0  0  0  0
 23 22  2  0  0  0  0
 24 25  2  0  0  0  0
 24 23  1  0  0  0  0
 25 26  1  0  0  0  0
 26 29  1  0  0  0  0
 26 27  2  0  0  0  0
 28 24  1  0  0  0  0
 30 23  1  0  0  0  0
 30 33  1  0  0  0  0
 31 35  1  0  0  0  0
 31 30  1  0  0  0  0
 32 31  1  0  0  0  0
 32 30  1  0  0  0  0
 34 31  1  0  0  0  0
 36 32  1  0  0  0  0
 37 32  1  0  0  0  0
M  END
>  <minimizedAffinity>
-5.70161676

>  <minimizedRMSD>
0.501693249

$$$$
