
 OpenBabel03242511033D

 46 49  0  0  1  0  0  0  0  0999 V2000
   37.3650   32.3800   39.9210 C   0  0  0  0  0  3  0  0  0  0  0  0
   37.3540   31.4110   40.7940 C   0  0  0  0  0  3  0  0  0  0  0  0
   40.7090   33.5930   39.0050 C   0  0  0  0  0  0  0  0  0  0  0  0
   40.6580   34.8680   39.5690 C   0  0  0  0  0  0  0  0  0  0  0  0
   39.5560   35.3500   40.2460 C   0  0  0  0  0  0  0  0  0  0  0  0
   38.4630   34.5200   40.3610 C   0  0  0  0  0  0  0  0  0  0  0  0
   38.5200   33.2430   39.7940 C   0  0  0  0  0  0  0  0  0  0  0  0
   39.6160   32.8430   39.1540 N   0  0  0  0  0  0  0  0  0  0  0  0
   41.5250   35.5090   39.4710 H   0  0  0  0  0  0  0  0  0  0  0  0
   39.6120   36.3660   40.6540 H   0  0  0  0  0  0  0  0  0  0  0  0
   37.6240   34.9180   40.8900 H   0  0  0  0  0  0  0  0  0  0  0  0
   44.1280   30.2050   35.3520 C   0  0  0  0  0  0  0  0  0  0  0  0
   45.3570   30.8170   35.6300 C   0  0  0  0  0  0  0  0  0  0  0  0
   45.3800   31.8210   36.5860 C   0  0  0  0  0  0  0  0  0  0  0  0
   44.2230   32.1860   37.2240 N   0  0  0  0  0  0  0  0  0  0  0  0
   43.0530   31.5590   36.9160 C   0  0  0  0  0  0  0  0  0  0  0  0
   43.0140   30.5760   35.9850 N   0  0  0  0  0  0  0  0  0  0  0  0
   41.9220   33.1740   38.3080 C   0  0  0  0  0  0  0  0  0  0  0  0
   42.9370   33.9210   38.3890 O   0  0  0  0  0  0  0  0  0  0  0  0
   41.8630   31.9510   37.5880 N   0  0  0  0  0  0  0  0  0  0  0  0
   44.1510   29.4230   34.5970 H   0  0  0  0  0  0  0  0  0  0  0  0
   46.3030   30.5940   35.1820 H   0  0  0  0  0  0  0  0  0  0  0  0
   46.2980   32.3320   36.8460 H   0  0  0  0  0  0  0  0  0  0  0  0
   41.0180   31.3470   37.5320 H   0  0  0  0  0  0  0  0  0  0  0  0
   36.2480   30.4370   41.0480 C   0  0  0  0  0  0  0  0  0  0  0  0
   35.6800   30.2700   40.1070 H   0  0  0  0  0  0  0  0  0  0  0  0
   35.5750   30.9490   41.7280 H   0  0  0  0  0  0  0  0  0  0  0  0
   35.8770   28.1290   39.2210 Cl  0  0  0  0  0  0  0  0  0  0  0  0
   36.6250   28.0420   40.8130 C   0  0  0  0  0  0  0  0  0  0  0  0
   36.7660   29.1650   41.6130 C   0  0  0  0  0  0  0  0  0  0  0  0
   37.3530   29.0960   42.8600 C   0  0  0  0  0  0  0  0  0  0  0  0
   37.8200   27.8560   43.3280 C   0  0  0  0  0  0  0  0  0  0  0  0
   37.6710   26.7450   42.5150 C   0  0  0  0  0  0  0  0  0  0  0  0
   37.0750   26.8170   41.2490 C   0  0  0  0  0  0  0  0  0  0  0  0
   37.4390   30.0060   43.4470 H   0  0  0  0  0  0  0  0  0  0  0  0
   38.2750   27.8140   44.3010 H   0  0  0  0  0  0  0  0  0  0  0  0
   38.0280   25.7750   42.8630 H   0  0  0  0  0  0  0  0  0  0  0  0
   38.9240   26.1300   39.1870 O   0  0  0  0  0  0  0  0  0  0  0  0
   38.2700   25.2520   39.8400 C   0  0  0  0  0  0  0  0  0  0  0  0
   36.9330   25.5970   40.4030 C   0  0  1  0  0  3  0  0  0  0  0  0
   36.5700   24.3780   41.1790 C   0  0  0  0  0  3  0  0  0  0  0  0
   36.1680   24.5940   42.1900 H   0  0  0  0  0  0  0  0  0  0  0  0
   37.7670   23.4700   41.2120 C   0  0  0  0  0  3  0  0  0  0  0  0
   37.4980   22.4130   40.9490 H   0  0  0  0  0  0  0  0  0  0  0  0
   38.6350   23.9100   40.1360 N   0  0  0  0  0  0  0  0  0  0  0  0
   39.3850   23.3690   39.6610 H   0  0  0  0  0  0  0  0  0  0  0  0
  1  2  2  0  0  0  0
  2 25  1  0  0  0  0
  3  8  2  0  0  0  0
  3  4  1  0  0  0  0
  4  5  2  0  0  0  0
  5  6  1  0  0  0  0
  5 10  1  0  0  0  0
  6 11  1  0  0  0  0
  7  1  1  0  0  0  0
  7  6  2  0  0  0  0
  8  7  1  0  0  0  0
  9  4  1  0  0  0  0
 12 13  2  0  0  0  0
 12 17  1  0  0  0  0
 13 14  1  0  0  0  0
 14 23  1  0  0  0  0
 14 15  2  0  0  0  0
 16 15  1  0  0  0  0
 16 20  1  0  0  0  0
 17 16  2  0  0  0  0
 18 19  2  0  0  0  0
 18  3  1  0  0  0  0
 20 18  1  0  0  0  0
 21 12  1  0  0  0  0
 22 13  1  0  0  0  0
 24 20  1  0  0  0  0
 25 30  1  0  0  0  0
 25 27  1  0  0  0  0
 26 25  1  0  0  0  0
 28 29  1  0  0  0  0
 29 34  2  0  0  0  0
 29 30  1  0  0  0  0
 30 31  2  0  0  0  0
 31 32  1  0  0  0  0
 31 35  1  0  0  0  0
 32 36  1  0  0  0  0
 33 37  1  0  0  0  0
 33 32  2  0  0  0  0
 34 33  1  0  0  0  0
 38 39  2  0  0  0  0
 39 45  1  0  0  0  0
 39 40  1  0  0  0  0
 40 41  1  0  0  0  0
 40 34  1  1  0  0  0
 41 43  1  0  0  0  0
 41 42  1  0  0  0  0
 44 43  1  0  0  0  0
 45 43  1  0  0  0  0
 46 45  1  0  0  0  0
M  END
>  <minimizedAffinity>
-7.53993845

$$$$

 OpenBabel03242511033D

 46 49  0  0  1  0  0  0  0  0999 V2000
   37.3850   32.4100   39.9150 C   0  0  0  0  0  3  0  0  0  0  0  0
   37.3360   31.4720   40.8200 C   0  0  0  0  0  3  0  0  0  0  0  0
   40.7490   33.5250   38.9530 C   0  0  0  0  0  0  0  0  0  0  0  0
   40.7460   34.7970   39.5260 C   0  0  0  0  0  0  0  0  0  0  0  0
   39.6710   35.3090   40.2240 C   0  0  0  0  0  0  0  0  0  0  0  0
   38.5550   34.5110   40.3520 C   0  0  0  0  0  0  0  0  0  0  0  0
   38.5630   33.2370   39.7750 C   0  0  0  0  0  0  0  0  0  0  0  0
   39.6360   32.8080   39.1150 N   0  0  0  0  0  0  0  0  0  0  0  0
   41.6310   35.4120   39.4180 H   0  0  0  0  0  0  0  0  0  0  0  0
   39.7650   36.3200   40.6380 H   0  0  0  0  0  0  0  0  0  0  0  0
   37.7370   34.9320   40.8970 H   0  0  0  0  0  0  0  0  0  0  0  0
   44.0160   30.0270   35.2650 C   0  0  0  0  0  0  0  0  0  0  0  0
   45.2620   30.6180   35.5070 C   0  0  0  0  0  0  0  0  0  0  0  0
   45.3260   31.6330   36.4480 C   0  0  0  0  0  0  0  0  0  0  0  0
   44.1930   32.0290   37.1090 N   0  0  0  0  0  0  0  0  0  0  0  0
   43.0040   31.4210   36.8360 C   0  0  0  0  0  0  0  0  0  0  0  0
   42.9240   30.4270   35.9200 N   0  0  0  0  0  0  0  0  0  0  0  0
   41.9370   33.0750   38.2330 C   0  0  0  0  0  0  0  0  0  0  0  0
   42.9670   33.8030   38.2810 O   0  0  0  0  0  0  0  0  0  0  0  0
   41.8370   31.8440   37.5310 N   0  0  0  0  0  0  0  0  0  0  0  0
   44.0060   29.2350   34.5200 H   0  0  0  0  0  0  0  0  0  0  0  0
   46.1930   30.3710   35.0400 H   0  0  0  0  0  0  0  0  0  0  0  0
   46.2600   32.1300   36.6800 H   0  0  0  0  0  0  0  0  0  0  0  0
   40.9800   31.2560   37.5020 H   0  0  0  0  0  0  0  0  0  0  0  0
   36.2020   30.5360   41.0920 C   0  0  0  0  0  0  0  0  0  0  0  0
   35.2850   30.9100   40.5850 H   0  0  0  0  0  0  0  0  0  0  0  0
   36.0210   30.6190   42.1590 H   0  0  0  0  0  0  0  0  0  0  0  0
   37.5540   28.9850   43.2310 Cl  0  0  0  0  0  0  0  0  0  0  0  0
   37.1680   28.3650   41.6290 C   0  0  0  0  0  0  0  0  0  0  0  0
   36.5330   29.1480   40.6780 C   0  0  0  0  0  0  0  0  0  0  0  0
   36.2310   28.6620   39.4230 C   0  0  0  0  0  0  0  0  0  0  0  0
   36.5750   27.3370   39.1020 C   0  0  0  0  0  0  0  0  0  0  0  0
   37.2090   26.5690   40.0650 C   0  0  0  0  0  0  0  0  0  0  0  0
   37.5140   27.0650   41.3390 C   0  0  0  0  0  0  0  0  0  0  0  0
   35.7340   29.3170   38.7140 H   0  0  0  0  0  0  0  0  0  0  0  0
   36.3350   26.9680   38.1220 H   0  0  0  0  0  0  0  0  0  0  0  0
   37.4830   25.5380   39.8330 H   0  0  0  0  0  0  0  0  0  0  0  0
   36.4330   24.5910   42.2630 O   0  0  0  0  0  0  0  0  0  0  0  0
   37.6870   24.8120   42.2080 C   0  0  0  0  0  0  0  0  0  0  0  0
   38.1970   26.2050   42.3480 C   0  0  1  0  0  3  0  0  0  0  0  0
   39.6590   26.0540   42.1050 C   0  0  0  0  0  3  0  0  0  0  0  0
   40.0800   26.8170   41.4180 H   0  0  0  0  0  0  0  0  0  0  0  0
   39.9140   24.6490   41.6370 C   0  0  0  0  0  3  0  0  0  0  0  0
   40.7650   24.1720   42.1900 H   0  0  0  0  0  0  0  0  0  0  0  0
   38.7450   23.8800   42.0210 N   0  0  0  0  0  0  0  0  0  0  0  0
   38.6710   22.8500   42.1400 H   0  0  0  0  0  0  0  0  0  0  0  0
  1  2  2  0  0  0  0
  2 25  1  0  0  0  0
  3  8  2  0  0  0  0
  3  4  1  0  0  0  0
  4  5  2  0  0  0  0
  5  6  1  0  0  0  0
  5 10  1  0  0  0  0
  6 11  1  0  0  0  0
  7  1  1  0  0  0  0
  7  6  2  0  0  0  0
  8  7  1  0  0  0  0
  9  4  1  0  0  0  0
 12 13  2  0  0  0  0
 12 17  1  0  0  0  0
 13 14  1  0  0  0  0
 14 23  1  0  0  0  0
 14 15  2  0  0  0  0
 16 15  1  0  0  0  0
 16 20  1  0  0  0  0
 17 16  2  0  0  0  0
 18 19  2  0  0  0  0
 18  3  1  0  0  0  0
 20 18  1  0  0  0  0
 21 12  1  0  0  0  0
 22 13  1  0  0  0  0
 24 20  1  0  0  0  0
 25 27  1  0  0  0  0
 26 25  1  0  0  0  0
 29 28  1  0  0  0  0
 30 25  1  0  0  0  0
 30 29  2  0  0  0  0
 31 30  1  0  0  0  0
 32 31  2  0  0  0  0
 32 33  1  0  0  0  0
 33 34  2  0  0  0  0
 34 29  1  0  0  0  0
 35 31  1  0  0  0  0
 36 32  1  0  0  0  0
 37 33  1  0  0  0  0
 39 38  2  0  0  0  0
 39 40  1  0  0  0  0
 40 34  1  6  0  0  0
 41 40  1  0  0  0  0
 42 41  1  0  0  0  0
 43 45  1  0  0  0  0
 43 41  1  0  0  0  0
 43 44  1  0  0  0  0
 45 46  1  0  0  0  0
 45 39  1  0  0  0  0
M  END
>  <minimizedAffinity>
-7.3964901

$$$$

 OpenBabel03242511033D

 46 49  0  0  1  0  0  0  0  0999 V2000
   36.2250   26.6960   39.4970 C   0  0  0  0  0  3  0  0  0  0  0  0
   36.1090   27.9370   39.8810 C   0  0  0  0  0  3  0  0  0  0  0  0
   38.6950   25.2850   41.8190 C   0  0  0  0  0  0  0  0  0  0  0  0
   38.3040   23.9460   41.7920 C   0  0  0  0  0  0  0  0  0  0  0  0
   37.2480   23.4830   41.0320 C   0  0  0  0  0  0  0  0  0  0  0  0
   36.5600   24.4010   40.2700 C   0  0  0  0  0  0  0  0  0  0  0  0
   36.9560   25.7420   40.3010 C   0  0  0  0  0  0  0  0  0  0  0  0
   37.9840   26.1180   41.0580 N   0  0  0  0  0  0  0  0  0  0  0  0
   38.8550   23.2360   42.3960 H   0  0  0  0  0  0  0  0  0  0  0  0
   37.0170   22.4130   41.0770 H   0  0  0  0  0  0  0  0  0  0  0  0
   35.7480   24.0160   39.6910 H   0  0  0  0  0  0  0  0  0  0  0  0
   43.0050   28.9230   43.9900 C   0  0  0  0  0  0  0  0  0  0  0  0
   43.6470   27.9810   44.8040 C   0  0  0  0  0  0  0  0  0  0  0  0
   43.1770   26.6780   44.7830 C   0  0  0  0  0  0  0  0  0  0  0  0
   42.1160   26.3440   43.9820 N   0  0  0  0  0  0  0  0  0  0  0  0
   41.5250   27.2980   43.2090 C   0  0  0  0  0  0  0  0  0  0  0  0
   41.9730   28.5770   43.2180 N   0  0  0  0  0  0  0  0  0  0  0  0
   39.8260   25.6750   42.6560 C   0  0  0  0  0  0  0  0  0  0  0  0
   40.1950   24.8760   43.5610 O   0  0  0  0  0  0  0  0  0  0  0  0
   40.4260   26.9350   42.3840 N   0  0  0  0  0  0  0  0  0  0  0  0
   43.4010   29.9340   44.0340 H   0  0  0  0  0  0  0  0  0  0  0  0
   44.4780   28.1550   45.4550 H   0  0  0  0  0  0  0  0  0  0  0  0
   43.6310   25.9040   45.3890 H   0  0  0  0  0  0  0  0  0  0  0  0
   40.1090   27.5820   41.6340 H   0  0  0  0  0  0  0  0  0  0  0  0
   35.3900   29.0400   39.1720 C   0  0  0  0  0  0  0  0  0  0  0  0
   34.5790   29.4320   39.8250 H   0  0  0  0  0  0  0  0  0  0  0  0
   34.9030   28.5590   38.3290 H   0  0  0  0  0  0  0  0  0  0  0  0
   36.1300   30.8630   41.3940 Cl  0  0  0  0  0  0  0  0  0  0  0  0
   36.7140   31.0050   39.7380 C   0  0  0  0  0  0  0  0  0  0  0  0
   36.3260   30.1140   38.7500 C   0  0  0  0  0  0  0  0  0  0  0  0
   36.7840   30.2250   37.4540 C   0  0  0  0  0  0  0  0  0  0  0  0
   37.6680   31.2680   37.1280 C   0  0  0  0  0  0  0  0  0  0  0  0
   38.0460   32.1490   38.1290 C   0  0  0  0  0  0  0  0  0  0  0  0
   37.5790   32.0330   39.4450 C   0  0  0  0  0  0  0  0  0  0  0  0
   36.4490   29.5010   36.7170 H   0  0  0  0  0  0  0  0  0  0  0  0
   38.0200   31.3450   36.1160 H   0  0  0  0  0  0  0  0  0  0  0  0
   38.7320   32.9640   37.8940 H   0  0  0  0  0  0  0  0  0  0  0  0
   39.5580   31.4240   41.4090 O   0  0  0  0  0  0  0  0  0  0  0  0
   39.3640   32.6070   40.9770 C   0  0  0  0  0  0  0  0  0  0  0  0
   38.0100   33.0020   40.4930 C   0  0  1  0  0  3  0  0  0  0  0  0
   38.2280   34.3810   39.9720 C   0  0  0  0  0  3  0  0  0  0  0  0
   37.7630   34.5640   38.9820 H   0  0  0  0  0  0  0  0  0  0  0  0
   39.7050   34.6560   39.9780 C   0  0  0  0  0  3  0  0  0  0  0  0
   39.9430   35.6510   40.4400 H   0  0  0  0  0  0  0  0  0  0  0  0
   40.2920   33.6800   40.8780 N   0  0  0  0  0  0  0  0  0  0  0  0
   41.2100   33.7330   41.3640 H   0  0  0  0  0  0  0  0  0  0  0  0
  1  2  2  0  0  0  0
  1  7  1  0  0  0  0
  3 18  1  0  0  0  0
  4  3  1  0  0  0  0
  4  9  1  0  0  0  0
  5 10  1  0  0  0  0
  5  4  2  0  0  0  0
  6  7  2  0  0  0  0
  6  5  1  0  0  0  0
  7  8  1  0  0  0  0
  8  3  2  0  0  0  0
 11  6  1  0  0  0  0
 12 21  1  0  0  0  0
 12 13  1  0  0  0  0
 13 22  1  0  0  0  0
 14 13  2  0  0  0  0
 14 23  1  0  0  0  0
 15 14  1  0  0  0  0
 16 17  1  0  0  0  0
 16 15  2  0  0  0  0
 17 12  2  0  0  0  0
 18 19  2  0  0  0  0
 20 18  1  0  0  0  0
 20 16  1  0  0  0  0
 24 20  1  0  0  0  0
 25 26  1  0  0  0  0
 25  2  1  0  0  0  0
 27 25  1  0  0  0  0
 29 28  1  0  0  0  0
 30 25  1  0  0  0  0
 30 29  2  0  0  0  0
 31 30  1  0  0  0  0
 32 31  2  0  0  0  0
 32 33  1  0  0  0  0
 33 34  2  0  0  0  0
 34 29  1  0  0  0  0
 35 31  1  0  0  0  0
 36 32  1  0  0  0  0
 37 33  1  0  0  0  0
 39 38  2  0  0  0  0
 40 34  1  6  0  0  0
 40 39  1  0  0  0  0
 41 43  1  0  0  0  0
 41 40  1  0  0  0  0
 42 41  1  0  0  0  0
 43 44  1  0  0  0  0
 43 45  1  0  0  0  0
 45 39  1  0  0  0  0
 45 46  1  0  0  0  0
M  END
>  <minimizedAffinity>
-7.01842451

$$$$

 OpenBabel03242511033D

 46 49  0  0  1  0  0  0  0  0999 V2000
   37.2060   31.4560   39.7200 C   0  0  0  0  0  3  0  0  0  0  0  0
   36.5590   30.9200   40.7180 C   0  0  0  0  0  3  0  0  0  0  0  0
   40.2240   33.3830   40.5350 C   0  0  0  0  0  0  0  0  0  0  0  0
   39.7390   34.6750   40.3300 C   0  0  0  0  0  0  0  0  0  0  0  0
   38.4450   34.9410   39.9310 C   0  0  0  0  0  0  0  0  0  0  0  0
   37.6050   33.8670   39.7290 C   0  0  0  0  0  0  0  0  0  0  0  0
   38.0970   32.5750   39.9350 C   0  0  0  0  0  0  0  0  0  0  0  0
   39.3570   32.3910   40.3210 N   0  0  0  0  0  0  0  0  0  0  0  0
   40.4110   35.5080   40.4940 H   0  0  0  0  0  0  0  0  0  0  0  0
   38.1570   35.9900   39.7960 H   0  0  0  0  0  0  0  0  0  0  0  0
   36.6100   34.1020   39.4200 H   0  0  0  0  0  0  0  0  0  0  0  0
   44.7790   31.2450   43.8810 C   0  0  0  0  0  0  0  0  0  0  0  0
   45.8030   32.0100   43.3080 C   0  0  0  0  0  0  0  0  0  0  0  0
   45.4550   32.9350   42.3360 C   0  0  0  0  0  0  0  0  0  0  0  0
   44.1440   33.0790   41.9650 N   0  0  0  0  0  0  0  0  0  0  0  0
   43.1850   32.3100   42.5540 C   0  0  0  0  0  0  0  0  0  0  0  0
   43.5090   31.4020   43.5050 N   0  0  0  0  0  0  0  0  0  0  0  0
   41.6100   33.2050   40.9590 C   0  0  0  0  0  0  0  0  0  0  0  0
   42.5170   33.7090   40.2390 O   0  0  0  0  0  0  0  0  0  0  0  0
   41.8300   32.4730   42.1570 N   0  0  0  0  0  0  0  0  0  0  0  0
   45.0920   30.5300   44.6390 H   0  0  0  0  0  0  0  0  0  0  0  0
   46.8470   31.9630   43.5380 H   0  0  0  0  0  0  0  0  0  0  0  0
   46.2000   33.5560   41.8560 H   0  0  0  0  0  0  0  0  0  0  0  0
   41.0710   32.0640   42.7380 H   0  0  0  0  0  0  0  0  0  0  0  0
   35.6090   29.7670   40.6650 C   0  0  0  0  0  0  0  0  0  0  0  0
   35.2640   29.6200   39.6170 H   0  0  0  0  0  0  0  0  0  0  0  0
   34.7430   30.0920   41.2320 H   0  0  0  0  0  0  0  0  0  0  0  0
   35.9040   27.6140   38.6440 Cl  0  0  0  0  0  0  0  0  0  0  0  0
   36.3890   27.4830   40.3320 C   0  0  0  0  0  0  0  0  0  0  0  0
   36.2220   28.5330   41.2210 C   0  0  0  0  0  0  0  0  0  0  0  0
   36.6020   28.4310   42.5430 C   0  0  0  0  0  0  0  0  0  0  0  0
   37.1750   27.2310   42.9980 C   0  0  0  0  0  0  0  0  0  0  0  0
   37.3360   26.1920   42.0950 C   0  0  0  0  0  0  0  0  0  0  0  0
   36.9480   26.2990   40.7530 C   0  0  0  0  0  0  0  0  0  0  0  0
   36.4480   29.2830   43.1980 H   0  0  0  0  0  0  0  0  0  0  0  0
   37.4680   27.1610   44.0290 H   0  0  0  0  0  0  0  0  0  0  0  0
   37.7790   25.2540   42.4310 H   0  0  0  0  0  0  0  0  0  0  0  0
   39.4120   25.7850   39.4060 O   0  0  0  0  0  0  0  0  0  0  0  0
   38.5960   24.8570   39.7180 C   0  0  0  0  0  0  0  0  0  0  0  0
   37.1380   25.1580   39.8120 C   0  0  1  0  0  3  0  0  0  0  0  0
   36.5620   23.8770   40.3110 C   0  0  0  0  0  3  0  0  0  0  0  0
   35.8320   24.0060   41.1350 H   0  0  0  0  0  0  0  0  0  0  0  0
   37.6980   22.9650   40.6800 C   0  0  0  0  0  3  0  0  0  0  0  0
   37.5630   21.9360   40.2540 H   0  0  0  0  0  0  0  0  0  0  0  0
   38.8720   23.4930   40.0100 N   0  0  0  0  0  0  0  0  0  0  0  0
   39.7530   22.9920   39.7800 H   0  0  0  0  0  0  0  0  0  0  0  0
  1  7  1  0  0  0  0
  1  2  2  0  0  0  0
  3 18  1  0  0  0  0
  4  9  1  0  0  0  0
  4  3  1  0  0  0  0
  5  4  2  0  0  0  0
  6  5  1  0  0  0  0
  6  7  2  0  0  0  0
  7  8  1  0  0  0  0
  8  3  2  0  0  0  0
 10  5  1  0  0  0  0
 11  6  1  0  0  0  0
 12 21  1  0  0  0  0
 13 22  1  0  0  0  0
 13 12  2  0  0  0  0
 14 13  1  0  0  0  0
 15 14  2  0  0  0  0
 15 16  1  0  0  0  0
 16 17  2  0  0  0  0
 17 12  1  0  0  0  0
 18 20  1  0  0  0  0
 19 18  2  0  0  0  0
 20 16  1  0  0  0  0
 20 24  1  0  0  0  0
 23 14  1  0  0  0  0
 25  2  1  0  0  0  0
 25 30  1  0  0  0  0
 25 27  1  0  0  0  0
 26 25  1  0  0  0  0
 28 29  1  0  0  0  0
 29 34  2  0  0  0  0
 29 30  1  0  0  0  0
 30 31  2  0  0  0  0
 31 32  1  0  0  0  0
 31 35  1  0  0  0  0
 32 36  1  0  0  0  0
 33 37  1  0  0  0  0
 33 32  2  0  0  0  0
 34 33  1  0  0  0  0
 38 39  2  0  0  0  0
 39 40  1  0  0  0  0
 39 45  1  0  0  0  0
 40 41  1  0  0  0  0
 40 34  1  1  0  0  0
 41 43  1  0  0  0  0
 41 42  1  0  0  0  0
 44 43  1  0  0  0  0
 45 43  1  0  0  0  0
 46 45  1  0  0  0  0
M  END
>  <minimizedAffinity>
-6.86883783

$$$$

 OpenBabel03242511033D

 46 49  0  0  1  0  0  0  0  0999 V2000
   38.1360   30.7310   41.6130 C   0  0  0  0  0  3  0  0  0  0  0  0
   38.7110   29.8660   42.4020 C   0  0  0  0  0  3  0  0  0  0  0  0
   40.5490   31.8900   39.0990 C   0  0  0  0  0  0  0  0  0  0  0  0
   40.3950   33.2690   39.2450 C   0  0  0  0  0  0  0  0  0  0  0  0
   39.5200   33.8390   40.1470 C   0  0  0  0  0  0  0  0  0  0  0  0
   38.7710   32.9910   40.9330 C   0  0  0  0  0  0  0  0  0  0  0  0
   38.9290   31.6100   40.7820 C   0  0  0  0  0  0  0  0  0  0  0  0
   39.7920   31.1290   39.8910 N   0  0  0  0  0  0  0  0  0  0  0  0
   40.9920   33.9220   38.6210 H   0  0  0  0  0  0  0  0  0  0  0  0
   39.4710   34.9340   40.1890 H   0  0  0  0  0  0  0  0  0  0  0  0
   38.1020   33.4600   41.6230 H   0  0  0  0  0  0  0  0  0  0  0  0
   45.7660   31.5870   36.0650 C   0  0  0  0  0  0  0  0  0  0  0  0
   45.3780   30.6200   35.1280 C   0  0  0  0  0  0  0  0  0  0  0  0
   44.0690   30.1700   35.1660 C   0  0  0  0  0  0  0  0  0  0  0  0
   43.1980   30.6690   36.1000 N   0  0  0  0  0  0  0  0  0  0  0  0
   43.6260   31.6090   36.9900 C   0  0  0  0  0  0  0  0  0  0  0  0
   44.9030   32.0600   36.9650 N   0  0  0  0  0  0  0  0  0  0  0  0
   41.5020   31.3840   38.1150 C   0  0  0  0  0  0  0  0  0  0  0  0
   41.1950   30.3380   37.4790 O   0  0  0  0  0  0  0  0  0  0  0  0
   42.7100   32.1150   37.9520 N   0  0  0  0  0  0  0  0  0  0  0  0
   46.8010   31.9150   36.0040 H   0  0  0  0  0  0  0  0  0  0  0  0
   45.9900   30.1800   34.3690 H   0  0  0  0  0  0  0  0  0  0  0  0
   43.7080   29.4240   34.4690 H   0  0  0  0  0  0  0  0  0  0  0  0
   42.9470   32.9760   38.4840 H   0  0  0  0  0  0  0  0  0  0  0  0
   38.0410   28.8910   43.3160 C   0  0  0  0  0  0  0  0  0  0  0  0
   36.9370   28.9600   43.1850 H   0  0  0  0  0  0  0  0  0  0  0  0
   38.2560   29.2530   44.3160 H   0  0  0  0  0  0  0  0  0  0  0  0
   36.6720   27.5250   41.0650 Cl  0  0  0  0  0  0  0  0  0  0  0  0
   37.9400   26.8090   42.0560 C   0  0  0  0  0  0  0  0  0  0  0  0
   38.5360   27.5090   43.0930 C   0  0  0  0  0  0  0  0  0  0  0  0
   39.5290   26.9470   43.8690 C   0  0  0  0  0  0  0  0  0  0  0  0
   39.9470   25.6330   43.5980 C   0  0  0  0  0  0  0  0  0  0  0  0
   39.3400   24.9490   42.5570 C   0  0  0  0  0  0  0  0  0  0  0  0
   38.3320   25.5210   41.7710 C   0  0  0  0  0  0  0  0  0  0  0  0
   39.9630   27.5380   44.6690 H   0  0  0  0  0  0  0  0  0  0  0  0
   40.7210   25.2050   44.2080 H   0  0  0  0  0  0  0  0  0  0  0  0
   39.6520   23.9280   42.3330 H   0  0  0  0  0  0  0  0  0  0  0  0
   39.2650   25.6370   39.0760 O   0  0  0  0  0  0  0  0  0  0  0  0
   38.7020   24.6010   39.5620 C   0  0  0  0  0  0  0  0  0  0  0  0
   37.7030   24.7510   40.6590 C   0  0  1  0  0  3  0  0  0  0  0  0
   37.3860   23.3410   41.0210 C   0  0  0  0  0  3  0  0  0  0  0  0
   37.3750   23.1510   42.1130 H   0  0  0  0  0  0  0  0  0  0  0  0
   38.3400   22.4430   40.2850 C   0  0  0  0  0  3  0  0  0  0  0  0
   37.8100   21.5940   39.7790 H   0  0  0  0  0  0  0  0  0  0  0  0
   38.8860   23.2380   39.2010 N   0  0  0  0  0  0  0  0  0  0  0  0
   39.3310   22.9000   38.3240 H   0  0  0  0  0  0  0  0  0  0  0  0
  1  2  2  0  0  0  0
  2 25  1  0  0  0  0
  3  4  2  0  0  0  0
  3  8  1  0  0  0  0
  4  5  1  0  0  0  0
  5 10  1  0  0  0  0
  5  6  2  0  0  0  0
  6 11  1  0  0  0  0
  7  6  1  0  0  0  0
  7  1  1  0  0  0  0
  8  7  2  0  0  0  0
  9  4  1  0  0  0  0
 12 17  1  0  0  0  0
 13 14  1  0  0  0  0
 13 12  2  0  0  0  0
 14 15  2  0  0  0  0
 15 16  1  0  0  0  0
 16 20  1  0  0  0  0
 17 16  2  0  0  0  0
 18  3  1  0  0  0  0
 19 18  2  0  0  0  0
 20 18  1  0  0  0  0
 20 24  1  0  0  0  0
 21 12  1  0  0  0  0
 22 13  1  0  0  0  0
 23 14  1  0  0  0  0
 25 27  1  0  0  0  0
 26 25  1  0  0  0  0
 28 29  1  0  0  0  0
 29 30  1  0  0  0  0
 30 25  1  0  0  0  0
 30 31  2  0  0  0  0
 31 35  1  0  0  0  0
 32 31  1  0  0  0  0
 32 36  1  0  0  0  0
 33 32  2  0  0  0  0
 34 29  2  0  0  0  0
 34 33  1  0  0  0  0
 37 33  1  0  0  0  0
 38 39  2  0  0  0  0
 39 40  1  0  0  0  0
 40 41  1  0  0  0  0
 40 34  1  1  0  0  0
 41 42  1  0  0  0  0
 43 41  1  0  0  0  0
 44 43  1  0  0  0  0
 45 39  1  0  0  0  0
 45 43  1  0  0  0  0
 46 45  1  0  0  0  0
M  END
>  <minimizedAffinity>
-6.80026197

$$$$

 OpenBabel03242511033D

 46 49  0  0  1  0  0  0  0  0999 V2000
   37.0160   31.9470   39.7580 C   0  0  0  0  0  3  0  0  0  0  0  0
   36.8160   31.0590   40.6930 C   0  0  0  0  0  3  0  0  0  0  0  0
   40.2560   33.5670   40.3620 C   0  0  0  0  0  0  0  0  0  0  0  0
   39.8800   34.9030   40.2200 C   0  0  0  0  0  0  0  0  0  0  0  0
   38.5890   35.2970   39.9310 C   0  0  0  0  0  0  0  0  0  0  0  0
   37.6390   34.3100   39.7790 C   0  0  0  0  0  0  0  0  0  0  0  0
   38.0220   32.9730   39.9220 C   0  0  0  0  0  0  0  0  0  0  0  0
   39.2860   32.6650   40.2010 N   0  0  0  0  0  0  0  0  0  0  0  0
   40.6370   35.6670   40.3440 H   0  0  0  0  0  0  0  0  0  0  0  0
   38.3910   36.3710   39.8390 H   0  0  0  0  0  0  0  0  0  0  0  0
   36.6480   34.6430   39.5550 H   0  0  0  0  0  0  0  0  0  0  0  0
   44.8850   31.4580   43.6240 C   0  0  0  0  0  0  0  0  0  0  0  0
   45.9170   31.8960   42.7840 C   0  0  0  0  0  0  0  0  0  0  0  0
   45.5710   32.6360   41.6640 C   0  0  0  0  0  0  0  0  0  0  0  0
   44.2540   32.9180   41.4080 N   0  0  0  0  0  0  0  0  0  0  0  0
   43.2880   32.4670   42.2570 C   0  0  0  0  0  0  0  0  0  0  0  0
   43.6090   31.7430   43.3560 N   0  0  0  0  0  0  0  0  0  0  0  0
   41.6490   33.2520   40.6690 C   0  0  0  0  0  0  0  0  0  0  0  0
   42.5080   33.4280   39.7610 O   0  0  0  0  0  0  0  0  0  0  0  0
   41.9270   32.7680   41.9760 N   0  0  0  0  0  0  0  0  0  0  0  0
   45.1960   30.8800   44.4910 H   0  0  0  0  0  0  0  0  0  0  0  0
   46.9650   31.7230   42.9090 H   0  0  0  0  0  0  0  0  0  0  0  0
   46.3220   33.0040   40.9770 H   0  0  0  0  0  0  0  0  0  0  0  0
   41.2070   32.6280   42.7130 H   0  0  0  0  0  0  0  0  0  0  0  0
   35.8240   29.9400   40.6790 C   0  0  0  0  0  0  0  0  0  0  0  0
   34.9780   30.2040   40.0060 H   0  0  0  0  0  0  0  0  0  0  0  0
   35.4200   29.9130   41.6860 H   0  0  0  0  0  0  0  0  0  0  0  0
   36.2630   28.1200   42.9820 Cl  0  0  0  0  0  0  0  0  0  0  0  0
   36.6960   27.7560   41.3140 C   0  0  0  0  0  0  0  0  0  0  0  0
   36.4600   28.6560   40.2870 C   0  0  0  0  0  0  0  0  0  0  0  0
   36.7990   28.3700   38.9810 C   0  0  0  0  0  0  0  0  0  0  0  0
   37.3980   27.1340   38.6850 C   0  0  0  0  0  0  0  0  0  0  0  0
   37.6260   26.2460   39.7240 C   0  0  0  0  0  0  0  0  0  0  0  0
   37.2810   26.5390   41.0500 C   0  0  0  0  0  0  0  0  0  0  0  0
   36.5930   29.1110   38.2140 H   0  0  0  0  0  0  0  0  0  0  0  0
   37.6580   26.9210   37.6650 H   0  0  0  0  0  0  0  0  0  0  0  0
   38.0900   25.2810   39.5120 H   0  0  0  0  0  0  0  0  0  0  0  0
   36.2010   23.8970   41.0560 O   0  0  0  0  0  0  0  0  0  0  0  0
   37.3150   24.1820   41.6060 C   0  0  0  0  0  0  0  0  0  0  0  0
   37.5430   25.5560   42.1400 C   0  0  1  0  0  3  0  0  0  0  0  0
   38.9680   25.5170   42.5720 C   0  0  0  0  0  3  0  0  0  0  0  0
   39.5560   26.4020   42.2560 H   0  0  0  0  0  0  0  0  0  0  0  0
   39.5670   24.2230   42.0960 C   0  0  0  0  0  3  0  0  0  0  0  0
   40.1350   23.7010   42.9100 H   0  0  0  0  0  0  0  0  0  0  0  0
   38.4480   23.3460   41.8040 N   0  0  0  0  0  0  0  0  0  0  0  0
   38.4510   22.3080   41.7440 H   0  0  0  0  0  0  0  0  0  0  0  0
  1  7  1  0  0  0  0
  1  2  2  0  0  0  0
  3 18  1  0  0  0  0
  4  9  1  0  0  0  0
  4  3  1  0  0  0  0
  5  4  2  0  0  0  0
  6  7  2  0  0  0  0
  6  5  1  0  0  0  0
  7  8  1  0  0  0  0
  8  3  2  0  0  0  0
 10  5  1  0  0  0  0
 11  6  1  0  0  0  0
 12 21  1  0  0  0  0
 13 22  1  0  0  0  0
 13 12  2  0  0  0  0
 14 13  1  0  0  0  0
 15 14  2  0  0  0  0
 15 16  1  0  0  0  0
 16 17  2  0  0  0  0
 17 12  1  0  0  0  0
 18 20  1  0  0  0  0
 19 18  2  0  0  0  0
 20 16  1  0  0  0  0
 20 24  1  0  0  0  0
 23 14  1  0  0  0  0
 25  2  1  0  0  0  0
 25 27  1  0  0  0  0
 26 25  1  0  0  0  0
 29 28  1  0  0  0  0
 30 25  1  0  0  0  0
 30 29  2  0  0  0  0
 31 30  1  0  0  0  0
 32 31  2  0  0  0  0
 32 33  1  0  0  0  0
 33 34  2  0  0  0  0
 34 29  1  0  0  0  0
 35 31  1  0  0  0  0
 36 32  1  0  0  0  0
 37 33  1  0  0  0  0
 38 39  2  0  0  0  0
 39 45  1  0  0  0  0
 39 40  1  0  0  0  0
 40 34  1  6  0  0  0
 40 41  1  0  0  0  0
 42 41  1  0  0  0  0
 43 41  1  0  0  0  0
 43 44  1  0  0  0  0
 45 43  1  0  0  0  0
 46 45  1  0  0  0  0
M  END
>  <minimizedAffinity>
-6.79324436

$$$$

 OpenBabel03242511033D

 46 49  0  0  1  0  0  0  0  0999 V2000
   36.7740   30.4620   40.8540 C   0  0  0  0  0  3  0  0  0  0  0  0
   37.4710   30.8090   39.8080 C   0  0  0  0  0  3  0  0  0  0  0  0
   37.0010   26.8130   41.2050 C   0  0  0  0  0  0  0  0  0  0  0  0
   37.2540   26.7250   42.5750 C   0  0  0  0  0  0  0  0  0  0  0  0
   37.3540   27.8300   43.3960 C   0  0  0  0  0  0  0  0  0  0  0  0
   37.1930   29.0710   42.8200 C   0  0  0  0  0  0  0  0  0  0  0  0
   36.9400   29.1530   41.4470 C   0  0  0  0  0  0  0  0  0  0  0  0
   36.8570   28.0450   40.7140 N   0  0  0  0  0  0  0  0  0  0  0  0
   37.3770   25.7430   43.0130 H   0  0  0  0  0  0  0  0  0  0  0  0
   37.5550   27.6590   44.4600 H   0  0  0  0  0  0  0  0  0  0  0  0
   37.2750   29.9090   43.4790 H   0  0  0  0  0  0  0  0  0  0  0  0
   38.0030   21.0130   39.8380 C   0  0  0  0  0  0  0  0  0  0  0  0
   37.4100   21.0180   38.5690 C   0  0  0  0  0  0  0  0  0  0  0  0
   36.9200   22.2220   38.0870 C   0  0  0  0  0  0  0  0  0  0  0  0
   37.0230   23.3580   38.8470 N   0  0  0  0  0  0  0  0  0  0  0  0
   37.6080   23.2980   40.0770 C   0  0  0  0  0  0  0  0  0  0  0  0
   38.0930   22.1300   40.5610 N   0  0  0  0  0  0  0  0  0  0  0  0
   36.9130   25.5840   40.4210 C   0  0  0  0  0  0  0  0  0  0  0  0
   36.1450   25.5760   39.4200 O   0  0  0  0  0  0  0  0  0  0  0  0
   37.7060   24.4860   40.8520 N   0  0  0  0  0  0  0  0  0  0  0  0
   38.3750   20.0510   40.1810 H   0  0  0  0  0  0  0  0  0  0  0  0
   37.2900   20.1820   37.9120 H   0  0  0  0  0  0  0  0  0  0  0  0
   36.4510   22.2910   37.1140 H   0  0  0  0  0  0  0  0  0  0  0  0
   38.3350   24.5090   41.6800 H   0  0  0  0  0  0  0  0  0  0  0  0
   37.4200   32.1150   39.0810 C   0  0  0  0  0  0  0  0  0  0  0  0
   36.4140   32.5720   39.2120 H   0  0  0  0  0  0  0  0  0  0  0  0
   37.5050   31.8540   38.0310 H   0  0  0  0  0  0  0  0  0  0  0  0
   40.1300   31.1050   38.4150 Cl  0  0  0  0  0  0  0  0  0  0  0  0
   39.7980   32.6190   39.2520 C   0  0  0  0  0  0  0  0  0  0  0  0
   38.5030   33.0280   39.5290 C   0  0  0  0  0  0  0  0  0  0  0  0
   38.2420   34.2140   40.1840 C   0  0  0  0  0  0  0  0  0  0  0  0
   39.3180   35.0270   40.5780 C   0  0  0  0  0  0  0  0  0  0  0  0
   40.6060   34.6030   40.2920 C   0  0  0  0  0  0  0  0  0  0  0  0
   40.8670   33.3980   39.6270 C   0  0  0  0  0  0  0  0  0  0  0  0
   37.2100   34.4880   40.3770 H   0  0  0  0  0  0  0  0  0  0  0  0
   39.1050   35.9490   41.0880 H   0  0  0  0  0  0  0  0  0  0  0  0
   41.4530   35.2220   40.5910 H   0  0  0  0  0  0  0  0  0  0  0  0
   42.2860   34.2110   37.2880 O   0  0  0  0  0  0  0  0  0  0  0  0
   42.8730   33.9550   38.3910 C   0  0  0  0  0  0  0  0  0  0  0  0
   42.2680   32.9760   39.3380 C   0  0  1  0  0  3  0  0  0  0  0  0
   43.1670   33.0550   40.5230 C   0  0  0  0  0  3  0  0  0  0  0  0
   42.6280   33.1180   41.4900 H   0  0  0  0  0  0  0  0  0  0  0  0
   44.1180   34.2000   40.3140 C   0  0  0  0  0  3  0  0  0  0  0  0
   45.1800   33.9050   40.5260 H   0  0  0  0  0  0  0  0  0  0  0  0
   44.0910   34.4910   38.8930 N   0  0  0  0  0  0  0  0  0  0  0  0
   44.8080   34.9920   38.3320 H   0  0  0  0  0  0  0  0  0  0  0  0
  1  7  1  0  0  0  0
  2  1  2  0  0  0  0
  3  4  1  0  0  0  0
  4  9  1  0  0  0  0
  4  5  2  0  0  0  0
  5 10  1  0  0  0  0
  6  5  1  0  0  0  0
  6 11  1  0  0  0  0
  7  6  2  0  0  0  0
  8  3  2  0  0  0  0
  8  7  1  0  0  0  0
 12 21  1  0  0  0  0
 12 17  1  0  0  0  0
 13 12  2  0  0  0  0
 14 13  1  0  0  0  0
 14 15  2  0  0  0  0
 15 16  1  0  0  0  0
 16 17  2  0  0  0  0
 16 20  1  0  0  0  0
 18 20  1  0  0  0  0
 18  3  1  0  0  0  0
 19 18  2  0  0  0  0
 20 24  1  0  0  0  0
 22 13  1  0  0  0  0
 23 14  1  0  0  0  0
 25 26  1  0  0  0  0
 25 30  1  0  0  0  0
 25  2  1  0  0  0  0
 27 25  1  0  0  0  0
 28 29  1  0  0  0  0
 29 30  2  0  0  0  0
 29 34  1  0  0  0  0
 30 31  1  0  0  0  0
 31 35  1  0  0  0  0
 31 32  2  0  0  0  0
 32 36  1  0  0  0  0
 33 32  1  0  0  0  0
 33 37  1  0  0  0  0
 34 33  2  0  0  0  0
 38 39  2  0  0  0  0
 39 45  1  0  0  0  0
 39 40  1  0  0  0  0
 40 34  1  1  0  0  0
 40 41  1  0  0  0  0
 41 42  1  0  0  0  0
 43 41  1  0  0  0  0
 43 44  1  0  0  0  0
 45 43  1  0  0  0  0
 46 45  1  0  0  0  0
M  END
>  <minimizedAffinity>
-6.69630814

$$$$

 OpenBabel03242511033D

 46 49  0  0  1  0  0  0  0  0999 V2000
   36.5510   27.8160   40.5460 C   0  0  0  0  0  3  0  0  0  0  0  0
   36.7890   29.0340   40.9480 C   0  0  0  0  0  3  0  0  0  0  0  0
   34.2870   28.1760   37.6770 C   0  0  0  0  0  0  0  0  0  0  0  0
   34.7200   27.1000   36.9010 C   0  0  0  0  0  0  0  0  0  0  0  0
   35.7370   26.2520   37.2880 C   0  0  0  0  0  0  0  0  0  0  0  0
   36.3430   26.4930   38.5010 C   0  0  0  0  0  0  0  0  0  0  0  0
   35.9060   27.5730   39.2750 C   0  0  0  0  0  0  0  0  0  0  0  0
   34.9180   28.3510   38.8390 N   0  0  0  0  0  0  0  0  0  0  0  0
   34.2330   26.9230   35.9500 H   0  0  0  0  0  0  0  0  0  0  0  0
   36.0060   25.4340   36.6090 H   0  0  0  0  0  0  0  0  0  0  0  0
   37.1280   25.8210   38.7760 H   0  0  0  0  0  0  0  0  0  0  0  0
   29.1590   31.3620   37.9450 C   0  0  0  0  0  0  0  0  0  0  0  0
   29.0540   31.6570   36.5800 C   0  0  0  0  0  0  0  0  0  0  0  0
   30.0070   31.1230   35.7270 C   0  0  0  0  0  0  0  0  0  0  0  0
   31.0100   30.3340   36.2260 N   0  0  0  0  0  0  0  0  0  0  0  0
   31.0670   30.0780   37.5630 C   0  0  0  0  0  0  0  0  0  0  0  0
   30.1440   30.5910   38.4100 N   0  0  0  0  0  0  0  0  0  0  0  0
   33.2020   29.0170   37.1800 C   0  0  0  0  0  0  0  0  0  0  0  0
   33.2980   29.4730   36.0070 O   0  0  0  0  0  0  0  0  0  0  0  0
   32.1150   29.2570   38.0640 N   0  0  0  0  0  0  0  0  0  0  0  0
   28.3940   31.7980   38.5830 H   0  0  0  0  0  0  0  0  0  0  0  0
   28.3070   32.2590   36.1080 H   0  0  0  0  0  0  0  0  0  0  0  0
   29.9800   31.3140   34.6610 H   0  0  0  0  0  0  0  0  0  0  0  0
   32.0510   28.8740   39.0280 H   0  0  0  0  0  0  0  0  0  0  0  0
   37.4430   29.4530   42.2250 C   0  0  0  0  0  0  0  0  0  0  0  0
   36.9160   28.9800   43.0830 H   0  0  0  0  0  0  0  0  0  0  0  0
   37.2560   30.5200   42.2980 H   0  0  0  0  0  0  0  0  0  0  0  0
   38.1300   27.2210   44.0570 Cl  0  0  0  0  0  0  0  0  0  0  0  0
   39.2870   28.0960   43.0570 C   0  0  0  0  0  0  0  0  0  0  0  0
   38.8930   29.1300   42.2230 C   0  0  0  0  0  0  0  0  0  0  0  0
   39.8000   29.8150   41.4400 C   0  0  0  0  0  0  0  0  0  0  0  0
   41.1570   29.4520   41.4910 C   0  0  0  0  0  0  0  0  0  0  0  0
   41.5330   28.4160   42.3310 C   0  0  0  0  0  0  0  0  0  0  0  0
   40.6100   27.7230   43.1240 C   0  0  0  0  0  0  0  0  0  0  0  0
   39.4400   30.6170   40.8040 H   0  0  0  0  0  0  0  0  0  0  0  0
   41.8550   29.9910   40.8770 H   0  0  0  0  0  0  0  0  0  0  0  0
   42.5820   28.1220   42.3820 H   0  0  0  0  0  0  0  0  0  0  0  0
   40.5510   24.9790   42.3410 O   0  0  0  0  0  0  0  0  0  0  0  0
   41.4050   25.4360   43.1700 C   0  0  0  0  0  0  0  0  0  0  0  0
   41.0540   26.6130   44.0160 C   0  0  1  0  0  3  0  0  0  0  0  0
   42.3270   26.9030   44.7330 C   0  0  0  0  0  3  0  0  0  0  0  0
   42.5990   27.9780   44.7460 H   0  0  0  0  0  0  0  0  0  0  0  0
   43.4050   26.0400   44.1410 C   0  0  0  0  0  3  0  0  0  0  0  0
   44.0070   25.5190   44.9320 H   0  0  0  0  0  0  0  0  0  0  0  0
   42.7230   24.9730   43.4330 N   0  0  0  0  0  0  0  0  0  0  0  0
   43.1040   24.0440   43.1590 H   0  0  0  0  0  0  0  0  0  0  0  0
  1  2  2  0  0  0  0
  2 25  1  0  0  0  0
  3  8  1  0  0  0  0
  4  5  1  0  0  0  0
  4  3  2  0  0  0  0
  5  6  2  0  0  0  0
  6 11  1  0  0  0  0
  6  7  1  0  0  0  0
  7  1  1  0  0  0  0
  8  7  2  0  0  0  0
  9  4  1  0  0  0  0
 10  5  1  0  0  0  0
 12 17  1  0  0  0  0
 12 21  1  0  0  0  0
 13 12  2  0  0  0  0
 14 15  2  0  0  0  0
 14 13  1  0  0  0  0
 15 16  1  0  0  0  0
 16 20  1  0  0  0  0
 16 17  2  0  0  0  0
 18  3  1  0  0  0  0
 18 20  1  0  0  0  0
 19 18  2  0  0  0  0
 20 24  1  0  0  0  0
 22 13  1  0  0  0  0
 23 14  1  0  0  0  0
 25 27  1  0  0  0  0
 25 26  1  0  0  0  0
 29 34  1  0  0  0  0
 29 28  1  0  0  0  0
 30 25  1  0  0  0  0
 30 29  2  0  0  0  0
 31 32  2  0  0  0  0
 31 30  1  0  0  0  0
 32 33  1  0  0  0  0
 33 37  1  0  0  0  0
 33 34  2  0  0  0  0
 35 31  1  0  0  0  0
 36 32  1  0  0  0  0
 38 39  2  0  0  0  0
 39 45  1  0  0  0  0
 39 40  1  0  0  0  0
 40 34  1  6  0  0  0
 40 41  1  0  0  0  0
 41 42  1  0  0  0  0
 43 41  1  0  0  0  0
 43 44  1  0  0  0  0
 45 43  1  0  0  0  0
 46 45  1  0  0  0  0
M  END
>  <minimizedAffinity>
-6.64958763

$$$$

 OpenBabel03242511033D

 46 49  0  0  1  0  0  0  0  0999 V2000
   35.6340   28.4880   38.7260 C   0  0  0  0  0  3  0  0  0  0  0  0
   34.3760   28.8010   38.5800 C   0  0  0  0  0  3  0  0  0  0  0  0
   38.0610   30.6840   40.3900 C   0  0  0  0  0  0  0  0  0  0  0  0
   37.9050   30.2510   41.7070 C   0  0  0  0  0  0  0  0  0  0  0  0
   37.0230   29.2550   42.0740 C   0  0  0  0  0  0  0  0  0  0  0  0
   36.2700   28.6700   41.0790 C   0  0  0  0  0  0  0  0  0  0  0  0
   36.4310   29.1090   39.7610 C   0  0  0  0  0  0  0  0  0  0  0  0
   37.3010   30.0750   39.4790 N   0  0  0  0  0  0  0  0  0  0  0  0
   38.5040   30.7190   42.4770 H   0  0  0  0  0  0  0  0  0  0  0  0
   36.9710   28.9830   43.1350 H   0  0  0  0  0  0  0  0  0  0  0  0
   35.5950   27.9020   41.3910 H   0  0  0  0  0  0  0  0  0  0  0  0
   42.2310   33.6950   37.2160 C   0  0  0  0  0  0  0  0  0  0  0  0
   42.5470   34.6510   38.1890 C   0  0  0  0  0  0  0  0  0  0  0  0
   41.9250   34.5500   39.4240 C   0  0  0  0  0  0  0  0  0  0  0  0
   41.0320   33.5390   39.6610 N   0  0  0  0  0  0  0  0  0  0  0  0
   40.7580   32.6330   38.6790 C   0  0  0  0  0  0  0  0  0  0  0  0
   41.3580   32.7170   37.4680 N   0  0  0  0  0  0  0  0  0  0  0  0
   39.0220   31.7460   40.1030 C   0  0  0  0  0  0  0  0  0  0  0  0
   39.0740   32.7260   40.8970 O   0  0  0  0  0  0  0  0  0  0  0  0
   39.8280   31.5900   38.9430 N   0  0  0  0  0  0  0  0  0  0  0  0
   42.7380   33.8070   36.2610 H   0  0  0  0  0  0  0  0  0  0  0  0
   43.2300   35.4680   38.0890 H   0  0  0  0  0  0  0  0  0  0  0  0
   42.1280   35.2580   40.2170 H   0  0  0  0  0  0  0  0  0  0  0  0
   39.7730   30.7760   38.2990 H   0  0  0  0  0  0  0  0  0  0  0  0
   33.4200   28.2540   37.5680 C   0  0  0  0  0  0  0  0  0  0  0  0
   32.9710   27.3120   37.9550 H   0  0  0  0  0  0  0  0  0  0  0  0
   34.0380   27.9760   36.7210 H   0  0  0  0  0  0  0  0  0  0  0  0
   33.6170   29.1630   34.7500 Cl  0  0  0  0  0  0  0  0  0  0  0  0
   32.4120   29.7230   35.9060 C   0  0  0  0  0  0  0  0  0  0  0  0
   32.3800   29.2530   37.2090 C   0  0  0  0  0  0  0  0  0  0  0  0
   31.4370   29.6910   38.1150 C   0  0  0  0  0  0  0  0  0  0  0  0
   30.4830   30.6380   37.7030 C   0  0  0  0  0  0  0  0  0  0  0  0
   30.5300   31.0970   36.3970 C   0  0  0  0  0  0  0  0  0  0  0  0
   31.4890   30.6490   35.4790 C   0  0  0  0  0  0  0  0  0  0  0  0
   31.4550   29.2910   39.1240 H   0  0  0  0  0  0  0  0  0  0  0  0
   29.7520   30.9730   38.4160 H   0  0  0  0  0  0  0  0  0  0  0  0
   29.7970   31.8320   36.0610 H   0  0  0  0  0  0  0  0  0  0  0  0
   30.4990   29.1600   33.2560 O   0  0  0  0  0  0  0  0  0  0  0  0
   30.4770   30.4340   33.2910 C   0  0  0  0  0  0  0  0  0  0  0  0
   31.5060   31.1680   34.0810 C   0  0  1  0  0  3  0  0  0  0  0  0
   31.0670   32.5870   33.9700 C   0  0  0  0  0  3  0  0  0  0  0  0
   31.0830   33.1370   34.9340 H   0  0  0  0  0  0  0  0  0  0  0  0
   29.7160   32.6090   33.3120 C   0  0  0  0  0  3  0  0  0  0  0  0
   29.6680   33.3630   32.4820 H   0  0  0  0  0  0  0  0  0  0  0  0
   29.5680   31.3240   32.6550 N   0  0  0  0  0  0  0  0  0  0  0  0
   28.9280   31.0790   31.8730 H   0  0  0  0  0  0  0  0  0  0  0  0
  1  7  1  0  0  0  0
  2  1  2  0  0  0  0
  3  4  1  0  0  0  0
  4  5  2  0  0  0  0
  4  9  1  0  0  0  0
  5 10  1  0  0  0  0
  6 11  1  0  0  0  0
  6  5  1  0  0  0  0
  7  6  2  0  0  0  0
  8  7  1  0  0  0  0
  8  3  2  0  0  0  0
 12 17  2  0  0  0  0
 12 13  1  0  0  0  0
 13 14  2  0  0  0  0
 14 15  1  0  0  0  0
 14 23  1  0  0  0  0
 16 20  1  0  0  0  0
 16 15  2  0  0  0  0
 17 16  1  0  0  0  0
 18  3  1  0  0  0  0
 18 19  2  0  0  0  0
 20 18  1  0  0  0  0
 21 12  1  0  0  0  0
 22 13  1  0  0  0  0
 24 20  1  0  0  0  0
 25 26  1  0  0  0  0
 25  2  1  0  0  0  0
 27 25  1  0  0  0  0
 28 29  1  0  0  0  0
 29 30  1  0  0  0  0
 30 25  1  0  0  0  0
 30 31  2  0  0  0  0
 31 35  1  0  0  0  0
 32 31  1  0  0  0  0
 32 36  1  0  0  0  0
 33 32  2  0  0  0  0
 34 29  2  0  0  0  0
 34 33  1  0  0  0  0
 37 33  1  0  0  0  0
 38 39  2  0  0  0  0
 39 40  1  0  0  0  0
 40 34  1  1  0  0  0
 41 40  1  0  0  0  0
 41 42  1  0  0  0  0
 43 41  1  0  0  0  0
 44 43  1  0  0  0  0
 45 39  1  0  0  0  0
 45 43  1  0  0  0  0
 46 45  1  0  0  0  0
M  END
>  <minimizedAffinity>
-6.61440325

$$$$
