
 OpenBabel03252508233D

 48 51  0  0  1  0  0  0  0  0999 V2000
   45.4480   34.1760   40.7940 C   0  0  0  0  0  0  0  0  0  0  0  0
   45.8850   33.4890   39.6810 C   0  0  0  0  0  0  0  0  0  0  0  0
   47.1290   32.9270   39.5540 C   0  0  0  0  0  0  0  0  0  0  0  0
   47.9830   33.0850   40.6530 C   0  0  0  0  0  0  0  0  0  0  0  0
   47.6010   33.7570   41.7830 C   0  0  0  0  0  0  0  0  0  0  0  0
   46.3530   34.3000   41.8640 C   0  0  0  0  0  0  0  0  0  0  0  0
   45.2830   33.3150   38.8020 H   0  0  0  0  0  0  0  0  0  0  0  0
   47.4940   32.3870   38.6990 H   0  0  0  0  0  0  0  0  0  0  0  0
   48.9920   32.6560   40.6070 H   0  0  0  0  0  0  0  0  0  0  0  0
   48.3270   33.8330   42.5900 H   0  0  0  0  0  0  0  0  0  0  0  0
   46.0500   34.9640   43.0690 N   0  0  0  0  0  0  0  0  0  0  0  0
   45.3720   36.2240   43.1490 C   0  0  0  0  0  0  0  0  0  0  0  0
   44.7730   36.4380   44.5260 C   0  0  0  0  0  0  0  0  0  0  0  0
   44.2320   35.2670   45.1300 N   0  0  0  0  0  0  0  0  0  0  0  0
   45.1220   34.1650   45.1870 C   0  0  0  0  0  0  0  0  0  0  0  0
   46.3830   34.4730   44.4150 C   0  0  0  0  0  0  0  0  0  0  0  0
   44.7110   36.4910   42.3330 H   0  0  0  0  0  0  0  0  0  0  0  0
   46.2020   36.9920   43.0970 H   0  0  0  0  0  0  0  0  0  0  0  0
   43.9240   37.1500   44.3880 H   0  0  0  0  0  0  0  0  0  0  0  0
   45.5040   36.8990   45.2400 H   0  0  0  0  0  0  0  0  0  0  0  0
   43.8090   35.5480   46.0170 H   0  0  0  0  0  0  0  0  0  0  0  0
   45.4110   33.8480   46.1960 H   0  0  0  0  0  0  0  0  0  0  0  0
   44.6280   33.3020   44.6630 H   0  0  0  0  0  0  0  0  0  0  0  0
   46.9420   35.2560   44.9460 H   0  0  0  0  0  0  0  0  0  0  0  0
   47.0010   33.5680   44.3390 H   0  0  0  0  0  0  0  0  0  0  0  0
   44.1180   34.7780   40.9240 C   0  0  0  0  0  0  0  0  0  0  0  0
   43.7830   35.3370   40.0490 H   0  0  0  0  0  0  0  0  0  0  0  0
   44.2270   35.5590   41.7330 H   0  0  0  0  0  0  0  0  0  0  0  0
   43.0780   33.7470   41.3090 C   0  0  0  0  0  0  0  0  0  0  0  0
   43.2000   32.7680   40.8750 H   0  0  0  0  0  0  0  0  0  0  0  0
   43.0510   33.7020   42.4390 H   0  0  0  0  0  0  0  0  0  0  0  0
   40.2050   36.0680   40.5170 C   0  0  0  0  0  0  0  0  0  0  0  0
   41.4930   35.6200   40.8890 C   0  0  0  0  0  0  0  0  0  0  0  0
   41.7340   34.2470   40.9300 C   0  0  0  0  0  0  0  0  0  0  0  0
   40.7040   33.4040   40.6070 N   0  0  0  0  0  0  0  0  0  0  0  0
   39.4940   33.8670   40.2580 C   0  0  0  0  0  0  0  0  0  0  0  0
   39.2430   35.1900   40.2140 N   0  0  0  0  0  0  0  0  0  0  0  0
   40.0680   37.1410   40.5010 H   0  0  0  0  0  0  0  0  0  0  0  0
   42.2510   36.3400   41.1290 H   0  0  0  0  0  0  0  0  0  0  0  0
   38.3990   32.6980   37.4620 O   0  0  0  0  0  0  0  0  0  0  0  0
   38.5580   32.2420   38.6360 C   0  0  0  0  0  0  0  0  0  0  0  0
   38.3730   32.9470   39.9060 C   0  0  1  0  0  3  0  0  0  0  0  0
   38.2410   31.8360   40.9340 C   0  0  0  0  0  3  0  0  0  0  0  0
   38.6680   32.2160   41.9030 H   0  0  0  0  0  0  0  0  0  0  0  0
   39.0100   30.6670   40.3730 C   0  0  0  0  0  3  0  0  0  0  0  0
   40.0680   30.7760   40.6990 H   0  0  0  0  0  0  0  0  0  0  0  0
   38.9610   30.9120   38.9440 N   0  0  0  0  0  0  0  0  0  0  0  0
   39.2060   30.1570   38.2410 H   0  0  0  0  0  0  0  0  0  0  0  0
  1 26  1  0  0  0  0
  1  6  1  0  0  0  0
  2  1  2  0  0  0  0
  3  2  1  0  0  0  0
  3  4  2  0  0  0  0
  4  5  1  0  0  0  0
  5  6  2  0  0  0  0
  5 10  1  0  0  0  0
  6 11  1  0  0  0  0
  7  2  1  0  0  0  0
  8  3  1  0  0  0  0
  9  4  1  0  0  0  0
 11 12  1  0  0  0  0
 11 16  1  0  0  0  0
 12 13  1  0  0  0  0
 13 14  1  0  0  0  0
 13 20  1  0  0  0  0
 14 15  1  0  0  0  0
 14 21  1  0  0  0  0
 15 22  1  0  0  0  0
 16 24  1  0  0  0  0
 16 15  1  0  0  0  0
 17 12  1  0  0  0  0
 18 12  1  0  0  0  0
 19 13  1  0  0  0  0
 23 15  1  0  0  0  0
 25 16  1  0  0  0  0
 26 29  1  0  0  0  0
 26 28  1  0  0  0  0
 27 26  1  0  0  0  0
 29 31  1  0  0  0  0
 30 29  1  0  0  0  0
 32 33  1  0  0  0  0
 33 34  2  0  0  0  0
 33 39  1  0  0  0  0
 34 29  1  0  0  0  0
 35 34  1  0  0  0  0
 36 35  2  0  0  0  0
 37 36  1  0  0  0  0
 37 32  2  0  0  0  0
 38 32  1  0  0  0  0
 40 41  2  0  0  0  0
 41 47  1  0  0  0  0
 41 42  1  0  0  0  0
 42 36  1  1  0  0  0
 42 43  1  0  0  0  0
 43 44  1  0  0  0  0
 45 46  1  0  0  0  0
 45 43  1  0  0  0  0
 47 45  1  0  0  0  0
 48 47  1  0  0  0  0
M  END
>  <minimizedAffinity>
-6.14452982

>  <minimizedRMSD>
2.86324549

$$$$
