
     RDKit          3D

 23 24  0  0  0  0  0  0  0  0999 V2000
   46.2198   34.8359   43.1896 C   0  0  0  0  0  0  0  0  0  0  0  0
   45.3204   35.9123   43.2803 C   0  0  0  0  0  0  0  0  0  0  0  0
   44.5636   36.0077   44.4493 C   0  0  0  0  0  0  0  0  0  0  0  0
   44.7374   35.0632   45.4244 N   0  0  0  0  0  0  0  0  0  0  0  0
   45.6159   34.0521   45.2812 C   0  0  0  0  0  0  0  0  0  0  0  0
   46.3519   33.9396   44.1713 N   0  0  0  0  0  0  0  0  0  0  0  0
   46.9606   34.7978   41.9711 C   0  0  0  0  0  0  0  0  0  0  0  0
   48.0574   35.3944   41.7268 O   0  0  0  0  0  0  0  0  0  0  0  0
   45.1631   36.6639   42.5368 H   0  0  0  0  0  0  0  0  0  0  0  0
   43.8517   36.7997   44.6020 H   0  0  0  0  0  0  0  0  0  0  0  0
   46.7920   34.2947   41.0264 H   0  0  0  0  0  0  0  0  0  0  0  0
   44.1388   34.5577   47.8824 O   0  0  0  0  0  0  0  0  0  0  0  0
   44.7691   33.5097   47.5291 C   0  0  0  0  0  0  0  0  0  0  0  0
   45.6841   33.1110   46.4329 C   0  0  1  0  0  0  0  0  0  0  0  0
   45.2317   31.7267   46.1172 C   0  0  2  0  0  0  0  0  0  0  0  0
   46.0922   31.1842   45.6529 H   0  0  0  0  0  0  0  0  0  0  0  0
   44.8910   31.1628   47.4778 C   0  0  1  0  0  0  0  0  0  0  0  0
   44.0041   30.4985   47.4215 H   0  0  0  0  0  0  0  0  0  0  0  0
   44.6535   32.3250   48.3099 N   0  0  0  0  0  0  0  0  0  0  0  0
   46.7153   33.1306   46.8196 H   0  0  0  0  0  0  0  0  0  0  0  0
   44.3462   31.7422   45.4526 H   0  0  0  0  0  0  0  0  0  0  0  0
   45.8002   30.6454   47.8500 H   0  0  0  0  0  0  0  0  0  0  0  0
   44.4373   32.1381   49.3345 H   0  0  0  0  0  0  0  0  0  0  0  0
  1  2  2  0
  1  6  1  0
  2  3  1  0
  3  4  2  0
  5  4  1  0
  6  5  2  0
  7  1  1  0
  8  7  2  0
  2  9  1  0
  3 10  1  0
  7 11  1  0
 12 13  2  0
 13 14  1  0
 14 15  1  0
 15 16  1  6
 15 17  1  0
 17 18  1  6
 17 19  1  0
 19 13  1  0
 14 20  1  1
 15 21  1  0
 17 22  1  0
 19 23  1  0
  5 14  1  0
M  ISO  5   9  14  10  14  11   6  16   8  18   8
M  END
>  <DihAtoms>  (1) 
3,4,13,12

>  <DihDeg>  (1) 
-61.12811506294052

$$$$
