
 OpenBabel03242522413D

 47 50  0  0  1  0  0  0  0  0999 V2000
   46.7910   32.7590   44.3000 C   0  0  0  0  0  0  0  0  0  0  0  0
   47.7920   33.0310   44.6630 H   0  0  0  0  0  0  0  0  0  0  0  0
   46.7540   32.2880   43.3290 H   0  0  0  0  0  0  0  0  0  0  0  0
   46.3800   34.7740   43.0200 C   0  0  0  0  0  0  0  0  0  0  0  0
   46.0790   34.0380   44.1430 C   0  0  0  0  0  0  0  0  0  0  0  0
   45.1950   34.3860   45.0890 C   0  0  0  0  0  0  0  0  0  0  0  0
   44.5260   35.5700   44.9480 C   0  0  0  0  0  0  0  0  0  0  0  0
   44.7370   36.3820   43.8800 C   0  0  0  0  0  0  0  0  0  0  0  0
   45.6610   35.9550   42.9460 C   0  0  0  0  0  0  0  0  0  0  0  0
   44.8870   33.8870   45.9650 H   0  0  0  0  0  0  0  0  0  0  0  0
   43.7860   35.9660   45.6460 H   0  0  0  0  0  0  0  0  0  0  0  0
   44.2330   37.3280   43.7200 H   0  0  0  0  0  0  0  0  0  0  0  0
   45.8230   36.6260   42.0810 H   0  0  0  0  0  0  0  0  0  0  0  0
   47.5560   34.4820   41.8180 S   0  0  0  0  0  0  0  0  0  0  0  0
   48.4530   35.6480   41.5330 O   0  0  0  0  0  0  0  0  0  0  0  0
   46.7520   34.3040   40.4960 O   0  0  0  0  0  0  0  0  0  0  0  0
   50.8940   33.8580   42.5130 O   0  0  0  0  0  0  0  0  0  0  0  0
   49.9570   33.2220   41.9650 C   0  0  0  0  0  0  0  0  0  0  0  0
   48.5050   33.0930   41.6740 C   0  0  2  0  0  3  0  0  0  0  0  0
   48.6690   32.8620   40.1610 C   0  0  0  0  0  3  0  0  0  0  0  0
   49.1570   33.7070   39.6600 H   0  0  0  0  0  0  0  0  0  0  0  0
   49.5640   31.6270   40.2130 C   0  0  0  0  0  3  0  0  0  0  0  0
   50.0490   31.5020   39.2490 H   0  0  0  0  0  0  0  0  0  0  0  0
   50.4780   32.0600   41.2810 N   0  0  0  0  0  0  0  0  0  0  0  0
   51.3310   31.4250   41.3240 H   0  0  0  0  0  0  0  0  0  0  0  0
   46.1310   31.7530   45.1880 C   0  0  0  0  0  0  0  0  0  0  0  0
   45.9860   30.7400   44.7220 H   0  0  0  0  0  0  0  0  0  0  0  0
   45.0810   32.0030   45.4770 H   0  0  0  0  0  0  0  0  0  0  0  0
   47.0760   32.4930   47.3450 C   0  0  0  0  0  0  0  0  0  0  0  0
   47.0080   31.5140   46.3280 C   0  0  0  0  0  0  0  0  0  0  0  0
   47.7570   30.3640   46.4930 C   0  0  0  0  0  0  0  0  0  0  0  0
   48.5070   30.2390   47.6110 N   0  0  0  0  0  0  0  0  0  0  0  0
   48.5500   31.1760   48.5520 C   0  0  0  0  0  0  0  0  0  0  0  0
   47.8370   32.3210   48.4400 N   0  0  0  0  0  0  0  0  0  0  0  0
   46.5940   33.4490   47.4230 H   0  0  0  0  0  0  0  0  0  0  0  0
   47.7050   29.6210   45.7170 H   0  0  0  0  0  0  0  0  0  0  0  0
   49.4050   30.9380   49.7640 C   0  0  0  0  0  0  0  0  0  0  0  0
   48.8160   31.3440   50.6340 H   0  0  0  0  0  0  0  0  0  0  0  0
   49.5100   29.8430   49.9450 H   0  0  0  0  0  0  0  0  0  0  0  0
   50.6860   31.6310   49.7160 C   0  0  0  0  0  0  0  0  0  0  0  0
   51.8720   31.0930   49.2310 C   0  0  0  0  0  0  0  0  0  0  0  0
   52.8570   32.0380   49.3470 C   0  0  0  0  0  0  0  0  0  0  0  0
   52.2390   33.1280   49.9020 N   0  0  0  0  0  0  0  0  0  0  0  0
   50.9470   32.8870   50.1210 N   0  0  0  0  0  0  0  0  0  0  0  0
   52.0060   30.1020   48.8310 H   0  0  0  0  0  0  0  0  0  0  0  0
   53.9090   32.0090   49.0850 H   0  0  0  0  0  0  0  0  0  0  0  0
   52.7220   34.0340   50.1230 H   0  0  0  0  0  0  0  0  0  0  0  0
  1  2  1  0  0  0  0
  1 26  1  0  0  0  0
  3  1  1  0  0  0  0
  4  5  1  0  0  0  0
  5  1  1  0  0  0  0
  5  6  2  0  0  0  0
  6 10  1  0  0  0  0
  7  6  1  0  0  0  0
  7 11  1  0  0  0  0
  8  7  2  0  0  0  0
  9  4  2  0  0  0  0
  9  8  1  0  0  0  0
 12  8  1  0  0  0  0
 13  9  1  0  0  0  0
 14  4  1  0  0  0  0
 15 14  2  0  0  0  0
 16 14  2  0  0  0  0
 18 17  2  0  0  0  0
 19 14  1  6  0  0  0
 19 18  1  0  0  0  0
 20 22  1  0  0  0  0
 20 19  1  0  0  0  0
 21 20  1  0  0  0  0
 22 24  1  0  0  0  0
 23 22  1  0  0  0  0
 24 25  1  0  0  0  0
 24 18  1  0  0  0  0
 26 28  1  0  0  0  0
 26 30  1  0  0  0  0
 27 26  1  0  0  0  0
 29 35  1  0  0  0  0
 29 34  1  0  0  0  0
 30 31  1  0  0  0  0
 30 29  2  0  0  0  0
 31 32  2  0  0  0  0
 32 33  1  0  0  0  0
 33 37  1  0  0  0  0
 34 33  2  0  0  0  0
 36 31  1  0  0  0  0
 37 39  1  0  0  0  0
 37 38  1  0  0  0  0
 40 37  1  0  0  0  0
 40 44  2  0  0  0  0
 41 42  2  0  0  0  0
 41 40  1  0  0  0  0
 42 43  1  0  0  0  0
 43 44  1  0  0  0  0
 43 47  1  0  0  0  0
 45 41  1  0  0  0  0
 46 42  1  0  0  0  0
M  END
>  <minimizedAffinity>
-6.59731531

>  <minimizedRMSD>
0.268181652

$$$$
