
 OpenBabel03242522413D

 47 50  0  0  1  0  0  0  0  0999 V2000
   46.7860   32.6860   44.4770 C   0  0  0  0  0  0  0  0  0  0  0  0
   47.7730   33.0070   44.8380 H   0  0  0  0  0  0  0  0  0  0  0  0
   46.7760   32.1620   43.5330 H   0  0  0  0  0  0  0  0  0  0  0  0
   46.1950   34.5170   43.0070 C   0  0  0  0  0  0  0  0  0  0  0  0
   46.0390   33.9330   44.2420 C   0  0  0  0  0  0  0  0  0  0  0  0
   45.2650   34.3990   45.2330 C   0  0  0  0  0  0  0  0  0  0  0  0
   44.5640   35.5530   45.0200 C   0  0  0  0  0  0  0  0  0  0  0  0
   44.6370   36.2210   43.8400 C   0  0  0  0  0  0  0  0  0  0  0  0
   45.4530   35.6780   42.8660 C   0  0  0  0  0  0  0  0  0  0  0  0
   45.0690   34.0170   46.1960 H   0  0  0  0  0  0  0  0  0  0  0  0
   43.9040   36.0360   45.7430 H   0  0  0  0  0  0  0  0  0  0  0  0
   44.1020   37.1370   43.6190 H   0  0  0  0  0  0  0  0  0  0  0  0
   45.5030   36.2310   41.9090 H   0  0  0  0  0  0  0  0  0  0  0  0
   47.2290   34.0740   41.7220 S   0  0  0  0  0  0  0  0  0  0  0  0
   48.4110   34.9770   41.5390 O   0  0  0  0  0  0  0  0  0  0  0  0
   46.3900   34.2970   40.4290 O   0  0  0  0  0  0  0  0  0  0  0  0
   49.0220   32.7720   39.0580 O   0  0  0  0  0  0  0  0  0  0  0  0
   48.4140   32.2930   40.0490 C   0  0  0  0  0  0  0  0  0  0  0  0
   47.7520   32.5100   41.3640 C   0  0  2  0  0  3  0  0  0  0  0  0
   46.4770   31.7160   41.0280 C   0  0  0  0  0  3  0  0  0  0  0  0
   45.9350   32.1390   40.1730 H   0  0  0  0  0  0  0  0  0  0  0  0
   47.1230   30.3740   40.6950 C   0  0  0  0  0  3  0  0  0  0  0  0
   46.4160   29.7730   40.1280 H   0  0  0  0  0  0  0  0  0  0  0  0
   48.2560   30.8650   39.8940 N   0  0  0  0  0  0  0  0  0  0  0  0
   48.7190   30.0630   39.3700 H   0  0  0  0  0  0  0  0  0  0  0  0
   46.1420   31.7090   45.4100 C   0  0  0  0  0  0  0  0  0  0  0  0
   45.9590   30.6920   44.9690 H   0  0  0  0  0  0  0  0  0  0  0  0
   45.1090   31.9860   45.7350 H   0  0  0  0  0  0  0  0  0  0  0  0
   47.1950   32.4750   47.5080 C   0  0  0  0  0  0  0  0  0  0  0  0
   47.0590   31.4740   46.5190 C   0  0  0  0  0  0  0  0  0  0  0  0
   47.7850   30.3090   46.6810 C   0  0  0  0  0  0  0  0  0  0  0  0
   48.5770   30.1900   47.7700 N   0  0  0  0  0  0  0  0  0  0  0  0
   48.6840   31.1470   48.6860 C   0  0  0  0  0  0  0  0  0  0  0  0
   47.9960   32.3090   48.5750 N   0  0  0  0  0  0  0  0  0  0  0  0
   46.7420   33.4450   47.5810 H   0  0  0  0  0  0  0  0  0  0  0  0
   47.6820   29.5490   45.9270 H   0  0  0  0  0  0  0  0  0  0  0  0
   49.5820   30.9150   49.8670 C   0  0  0  0  0  0  0  0  0  0  0  0
   49.0170   31.3100   50.7580 H   0  0  0  0  0  0  0  0  0  0  0  0
   49.7070   29.8210   50.0390 H   0  0  0  0  0  0  0  0  0  0  0  0
   50.8520   31.6250   49.7790 C   0  0  0  0  0  0  0  0  0  0  0  0
   52.0330   31.0960   49.2740 C   0  0  0  0  0  0  0  0  0  0  0  0
   53.0070   32.0560   49.3530 C   0  0  0  0  0  0  0  0  0  0  0  0
   52.3870   33.1450   49.9080 N   0  0  0  0  0  0  0  0  0  0  0  0
   51.1040   32.8890   50.1610 N   0  0  0  0  0  0  0  0  0  0  0  0
   52.1710   30.1020   48.8830 H   0  0  0  0  0  0  0  0  0  0  0  0
   54.0530   32.0380   49.0670 H   0  0  0  0  0  0  0  0  0  0  0  0
   52.8630   34.0600   50.1050 H   0  0  0  0  0  0  0  0  0  0  0  0
  1  2  1  0  0  0  0
  1 26  1  0  0  0  0
  3  1  1  0  0  0  0
  4  5  1  0  0  0  0
  5  1  1  0  0  0  0
  5  6  2  0  0  0  0
  6 10  1  0  0  0  0
  7  6  1  0  0  0  0
  7 11  1  0  0  0  0
  8  7  2  0  0  0  0
  9  4  2  0  0  0  0
  9  8  1  0  0  0  0
 12  8  1  0  0  0  0
 13  9  1  0  0  0  0
 14  4  1  0  0  0  0
 15 14  2  0  0  0  0
 16 14  2  0  0  0  0
 17 18  2  0  0  0  0
 18 19  1  0  0  0  0
 19 14  1  6  0  0  0
 20 19  1  0  0  0  0
 21 20  1  0  0  0  0
 22 20  1  0  0  0  0
 23 22  1  0  0  0  0
 24 18  1  0  0  0  0
 24 22  1  0  0  0  0
 25 24  1  0  0  0  0
 26 28  1  0  0  0  0
 26 30  1  0  0  0  0
 27 26  1  0  0  0  0
 29 35  1  0  0  0  0
 29 34  1  0  0  0  0
 30 31  1  0  0  0  0
 30 29  2  0  0  0  0
 31 32  2  0  0  0  0
 32 33  1  0  0  0  0
 33 37  1  0  0  0  0
 34 33  2  0  0  0  0
 36 31  1  0  0  0  0
 37 39  1  0  0  0  0
 37 38  1  0  0  0  0
 40 37  1  0  0  0  0
 40 44  2  0  0  0  0
 41 42  2  0  0  0  0
 41 40  1  0  0  0  0
 42 43  1  0  0  0  0
 43 47  1  0  0  0  0
 43 44  1  0  0  0  0
 45 41  1  0  0  0  0
 46 42  1  0  0  0  0
M  END
>  <minimizedAffinity>
-5.93632174

>  <minimizedRMSD>
0.352487862

$$$$
