
 OpenBabel03242522413D

 47 50  0  0  1  0  0  0  0  0999 V2000
   46.7910   32.7600   44.2990 C   0  0  0  0  0  0  0  0  0  0  0  0
   47.7920   33.0320   44.6620 H   0  0  0  0  0  0  0  0  0  0  0  0
   46.7540   32.2890   43.3280 H   0  0  0  0  0  0  0  0  0  0  0  0
   46.3800   34.7740   43.0190 C   0  0  0  0  0  0  0  0  0  0  0  0
   46.0790   34.0390   44.1420 C   0  0  0  0  0  0  0  0  0  0  0  0
   45.1950   34.3870   45.0880 C   0  0  0  0  0  0  0  0  0  0  0  0
   44.5260   35.5710   44.9460 C   0  0  0  0  0  0  0  0  0  0  0  0
   44.7380   36.3830   43.8780 C   0  0  0  0  0  0  0  0  0  0  0  0
   45.6620   35.9560   42.9440 C   0  0  0  0  0  0  0  0  0  0  0  0
   44.8870   33.8880   45.9640 H   0  0  0  0  0  0  0  0  0  0  0  0
   43.7860   35.9680   45.6440 H   0  0  0  0  0  0  0  0  0  0  0  0
   44.2340   37.3290   43.7180 H   0  0  0  0  0  0  0  0  0  0  0  0
   45.8240   36.6260   42.0790 H   0  0  0  0  0  0  0  0  0  0  0  0
   47.5570   34.4820   41.8170 S   0  0  0  0  0  0  0  0  0  0  0  0
   48.4530   35.6490   41.5310 O   0  0  0  0  0  0  0  0  0  0  0  0
   46.7520   34.3030   40.4950 O   0  0  0  0  0  0  0  0  0  0  0  0
   50.8940   33.8590   42.5140 O   0  0  0  0  0  0  0  0  0  0  0  0
   49.9570   33.2230   41.9650 C   0  0  0  0  0  0  0  0  0  0  0  0
   48.5050   33.0940   41.6730 C   0  0  2  0  0  3  0  0  0  0  0  0
   48.6700   32.8620   40.1600 C   0  0  0  0  0  3  0  0  0  0  0  0
   49.1600   33.7060   39.6600 H   0  0  0  0  0  0  0  0  0  0  0  0
   49.5650   31.6270   40.2140 C   0  0  0  0  0  3  0  0  0  0  0  0
   50.0500   31.5000   39.2500 H   0  0  0  0  0  0  0  0  0  0  0  0
   50.4790   32.0600   41.2830 N   0  0  0  0  0  0  0  0  0  0  0  0
   51.3320   31.4250   41.3260 H   0  0  0  0  0  0  0  0  0  0  0  0
   46.1310   31.7540   45.1870 C   0  0  0  0  0  0  0  0  0  0  0  0
   45.9850   30.7420   44.7200 H   0  0  0  0  0  0  0  0  0  0  0  0
   45.0800   32.0040   45.4760 H   0  0  0  0  0  0  0  0  0  0  0  0
   47.0750   32.4930   47.3450 C   0  0  0  0  0  0  0  0  0  0  0  0
   47.0070   31.5150   46.3270 C   0  0  0  0  0  0  0  0  0  0  0  0
   47.7570   30.3650   46.4910 C   0  0  0  0  0  0  0  0  0  0  0  0
   48.5070   30.2390   47.6090 N   0  0  0  0  0  0  0  0  0  0  0  0
   48.5490   31.1750   48.5510 C   0  0  0  0  0  0  0  0  0  0  0  0
   47.8360   32.3210   48.4400 N   0  0  0  0  0  0  0  0  0  0  0  0
   46.5930   33.4490   47.4230 H   0  0  0  0  0  0  0  0  0  0  0  0
   47.7060   29.6220   45.7150 H   0  0  0  0  0  0  0  0  0  0  0  0
   49.4040   30.9370   49.7630 C   0  0  0  0  0  0  0  0  0  0  0  0
   48.8150   31.3430   50.6330 H   0  0  0  0  0  0  0  0  0  0  0  0
   49.5090   29.8420   49.9440 H   0  0  0  0  0  0  0  0  0  0  0  0
   50.6850   31.6300   49.7150 C   0  0  0  0  0  0  0  0  0  0  0  0
   51.8720   31.0920   49.2330 C   0  0  0  0  0  0  0  0  0  0  0  0
   52.8560   32.0370   49.3490 C   0  0  0  0  0  0  0  0  0  0  0  0
   52.2370   33.1280   49.9010 N   0  0  0  0  0  0  0  0  0  0  0  0
   50.9450   32.8870   50.1190 N   0  0  0  0  0  0  0  0  0  0  0  0
   52.0060   30.1000   48.8330 H   0  0  0  0  0  0  0  0  0  0  0  0
   53.9090   32.0080   49.0880 H   0  0  0  0  0  0  0  0  0  0  0  0
   52.7200   34.0340   50.1220 H   0  0  0  0  0  0  0  0  0  0  0  0
  1  2  1  0  0  0  0
  1 26  1  0  0  0  0
  3  1  1  0  0  0  0
  4  5  1  0  0  0  0
  5  1  1  0  0  0  0
  5  6  2  0  0  0  0
  6 10  1  0  0  0  0
  7  6  1  0  0  0  0
  7 11  1  0  0  0  0
  8  7  2  0  0  0  0
  9  4  2  0  0  0  0
  9  8  1  0  0  0  0
 12  8  1  0  0  0  0
 13  9  1  0  0  0  0
 14  4  1  0  0  0  0
 15 14  2  0  0  0  0
 16 14  2  0  0  0  0
 18 17  2  0  0  0  0
 19 14  1  6  0  0  0
 19 18  1  0  0  0  0
 20 22  1  0  0  0  0
 20 19  1  0  0  0  0
 21 20  1  0  0  0  0
 22 24  1  0  0  0  0
 23 22  1  0  0  0  0
 24 25  1  0  0  0  0
 24 18  1  0  0  0  0
 26 28  1  0  0  0  0
 26 30  1  0  0  0  0
 27 26  1  0  0  0  0
 29 35  1  0  0  0  0
 29 34  1  0  0  0  0
 30 31  1  0  0  0  0
 30 29  2  0  0  0  0
 31 32  2  0  0  0  0
 32 33  1  0  0  0  0
 33 37  1  0  0  0  0
 34 33  2  0  0  0  0
 36 31  1  0  0  0  0
 37 39  1  0  0  0  0
 37 38  1  0  0  0  0
 40 37  1  0  0  0  0
 40 44  2  0  0  0  0
 41 42  2  0  0  0  0
 41 40  1  0  0  0  0
 42 43  1  0  0  0  0
 43 44  1  0  0  0  0
 43 47  1  0  0  0  0
 45 41  1  0  0  0  0
 46 42  1  0  0  0  0
M  END
>  <minimizedAffinity>
-6.59909105

>  <minimizedRMSD>
0.521665871

$$$$
