
 OpenBabel03242519243D

 40 43  0  0  1  0  0  0  0  0999 V2000
   47.9000   33.8740   42.8820 C   0  0  0  0  0  0  0  0  0  0  0  0
   48.5380   35.1010   42.6420 C   0  0  0  0  0  0  0  0  0  0  0  0
   49.9080   35.1270   42.3100 C   0  0  0  0  0  0  0  0  0  0  0  0
   50.5340   33.9070   42.2470 N   0  0  0  0  0  0  0  0  0  0  0  0
   49.8760   32.7320   42.4870 C   0  0  0  0  0  0  0  0  0  0  0  0
   48.5880   32.7350   42.7960 N   0  0  0  0  0  0  0  0  0  0  0  0
   48.1210   36.0980   42.6720 H   0  0  0  0  0  0  0  0  0  0  0  0
   50.4540   36.0320   42.1150 H   0  0  0  0  0  0  0  0  0  0  0  0
   46.4660   33.9710   43.2250 C   0  0  0  0  0  0  0  0  0  0  0  0
   45.7410   34.9840   42.4560 C   0  0  0  0  0  0  0  0  0  0  0  0
   45.2760   36.1450   43.2550 C   0  0  0  0  0  0  0  0  0  0  0  0
   44.4920   35.7530   44.4940 C   0  0  0  0  0  0  0  0  0  0  0  0
   44.9720   34.4810   45.1510 C   0  0  0  0  0  0  0  0  0  0  0  0
   46.4090   34.1930   44.7470 C   0  0  0  0  0  0  0  0  0  0  0  0
   46.0050   32.9460   43.1080 H   0  0  0  0  0  0  0  0  0  0  0  0
   46.4400   35.3980   41.6810 H   0  0  0  0  0  0  0  0  0  0  0  0
   44.8860   34.5390   41.9040 H   0  0  0  0  0  0  0  0  0  0  0  0
   46.0080   36.9070   43.5080 H   0  0  0  0  0  0  0  0  0  0  0  0
   44.5140   36.6780   42.6130 H   0  0  0  0  0  0  0  0  0  0  0  0
   43.3930   35.6900   44.2980 H   0  0  0  0  0  0  0  0  0  0  0  0
   44.6180   36.5570   45.2480 H   0  0  0  0  0  0  0  0  0  0  0  0
   44.8800   34.4750   46.2350 H   0  0  0  0  0  0  0  0  0  0  0  0
   44.3520   33.6620   44.7030 H   0  0  0  0  0  0  0  0  0  0  0  0
   46.9890   35.0870   45.0370 H   0  0  0  0  0  0  0  0  0  0  0  0
   46.7330   33.2590   45.2440 H   0  0  0  0  0  0  0  0  0  0  0  0
   50.6950   31.5360   42.3840 C   0  0  0  0  0  0  0  0  0  0  0  0
   51.5380   31.4410   41.3320 N   0  0  0  0  0  0  0  0  0  0  0  0
   52.2180   30.2870   41.3890 C   0  0  0  0  0  0  0  0  0  0  0  0
   51.7850   29.6500   42.5050 N   0  0  0  0  0  0  0  0  0  0  0  0
   50.8550   30.4090   43.1150 N   0  0  0  0  0  0  0  0  0  0  0  0
   52.9660   29.8910   40.7190 H   0  0  0  0  0  0  0  0  0  0  0  0
   50.5960   27.2230   41.9080 O   0  0  0  0  0  0  0  0  0  0  0  0
   51.8380   27.2460   42.1210 C   0  0  0  0  0  0  0  0  0  0  0  0
   52.1980   28.3730   43.0240 C   0  0  1  0  0  3  0  0  0  0  0  0
   53.7120   28.3040   42.9730 C   0  0  0  0  0  3  0  0  0  0  0  0
   54.0930   28.6470   43.9670 H   0  0  0  0  0  0  0  0  0  0  0  0
   53.9790   26.8250   42.7670 C   0  0  0  0  0  3  0  0  0  0  0  0
   53.6910   26.2770   43.6810 H   0  0  0  0  0  0  0  0  0  0  0  0
   53.0050   26.4980   41.7440 N   0  0  0  0  0  0  0  0  0  0  0  0
   52.8490   25.9380   40.8680 H   0  0  0  0  0  0  0  0  0  0  0  0
  1  9  1  0  0  0  0
  2  7  1  0  0  0  0
  2  1  2  0  0  0  0
  3  2  1  0  0  0  0
  4  3  2  0  0  0  0
  4  5  1  0  0  0  0
  5  6  2  0  0  0  0
  6  1  1  0  0  0  0
  8  3  1  0  0  0  0
  9 14  1  0  0  0  0
 10  9  1  0  0  0  0
 10 11  1  0  0  0  0
 11 18  1  0  0  0  0
 11 12  1  0  0  0  0
 12 13  1  0  0  0  0
 12 21  1  0  0  0  0
 13 22  1  0  0  0  0
 14 24  1  0  0  0  0
 14 13  1  0  0  0  0
 14 25  1  0  0  0  0
 15  9  1  0  0  0  0
 16 10  1  0  0  0  0
 17 10  1  0  0  0  0
 19 11  1  0  0  0  0
 20 12  1  0  0  0  0
 23 13  1  0  0  0  0
 26  5  1  0  0  0  0
 26 30  2  0  0  0  0
 27 28  2  0  0  0  0
 27 26  1  0  0  0  0
 28 29  1  0  0  0  0
 29 30  1  0  0  0  0
 31 28  1  0  0  0  0
 32 33  2  0  0  0  0
 33 34  1  0  0  0  0
 34 29  1  6  0  0  0
 35 34  1  0  0  0  0
 35 36  1  0  0  0  0
 37 35  1  0  0  0  0
 37 38  1  0  0  0  0
 39 33  1  0  0  0  0
 39 37  1  0  0  0  0
 40 39  1  0  0  0  0
M  END
>  <minimizedAffinity>
-4.21212292

>  <minimizedRMSD>
0.960519791

$$$$
