REMARK  Name = 
REMARK  7 active torsions:
REMARK  status: ('A' for Active; 'I' for Inactive)
REMARK    1  A    between atoms: C_1  and  C_3
REMARK    2  A    between atoms: C_1  and  C_14
REMARK    3  A    between atoms: C_6  and  C_8
REMARK    4  A    between atoms: C_8  and  C_9
REMARK    5  A    between atoms: C_14  and  C_16
REMARK    6  A    between atoms: C_15  and  S_21
REMARK    7  A    between atoms: S_21  and  C_41
REMARK                            x       y       z     vdW  Elec       q    Type
REMARK                         _______ _______ _______ _____ _____    ______ ____
ROOT
ATOM      1  C   UNL     1      46.744  32.720  44.359  0.00  0.00    +0.000 C 
ATOM      2  H   UNL     1      47.750  32.991  44.709  0.00  0.00    +0.000 HD
ATOM      3  H   UNL     1      46.695  32.230  43.398  0.00  0.00    +0.000 HD
ENDROOT
BRANCH   1   5
ATOM      4  C   UNL     1      46.281  34.676  43.009  0.00  0.00    +0.000 A 
ATOM      5  C   UNL     1      46.040  34.001  44.183  0.00  0.00    +0.000 A 
ATOM      6  C   UNL     1      45.221  34.409  45.163  0.00  0.00    +0.000 A 
ATOM      7  C   UNL     1      44.560  35.595  45.004  0.00  0.00    +0.000 A 
ATOM      8  C   UNL     1      44.716  36.351  43.887  0.00  0.00    +0.000 A 
ATOM      9  C   UNL     1      45.575  35.864  42.920  0.00  0.00    +0.000 A 
ATOM     10  H   UNL     1      44.961  33.958  46.080  0.00  0.00    +0.000 HD
ATOM     11  H   UNL     1      43.870  36.037  45.726  0.00  0.00    +0.000 HD
ATOM     12  H   UNL     1      44.216  37.296  43.711  0.00  0.00    +0.000 HD
ATOM     13  H   UNL     1      45.692  36.489  42.015  0.00  0.00    +0.000 HD
BRANCH   4  14
ATOM     14  S   UNL     1      47.377  34.307  41.753  0.00  0.00    +0.000 S 
ATOM     15  O   UNL     1      48.363  35.395  41.452  0.00  0.00    +0.000 OA
ATOM     16  O   UNL     1      46.507  34.230  40.463  0.00  0.00    +0.000 OA
BRANCH  14  19
ATOM     17  O   UNL     1      46.873  31.654  39.581  0.00  0.00    +0.000 OA
ATOM     18  C   UNL     1      47.616  31.874  40.571  0.00  0.00    +0.000 C 
ATOM     19  C   UNL     1      48.190  32.843  41.544  0.00  0.00    +0.000 C 
ATOM     20  C   UNL     1      47.870  32.011  42.798  0.00  0.00    +0.000 C 
ATOM     21  H   UNL     1      46.794  31.833  42.918  0.00  0.00    +0.000 HD
ATOM     22  C   UNL     1      48.628  30.739  42.430  0.00  0.00    +0.000 C 
ATOM     23  H   UNL     1      48.262  29.920  43.044  0.00  0.00    +0.000 HD
ATOM     24  N   UNL     1      48.228  30.643  41.017  0.00  0.00    +0.000 N 
ATOM     25  H   UNL     1      48.474  29.686  40.623  0.00  0.00    +0.000 HD
ENDBRANCH  14  19
ENDBRANCH   4  14
ENDBRANCH   1   5
BRANCH   1  26
ATOM     26  C   UNL     1      46.083  31.736  45.272  0.00  0.00    +0.000 C 
ATOM     27  H   UNL     1      45.908  30.722  44.820  0.00  0.00    +0.000 HD
ATOM     28  H   UNL     1      45.044  32.010  45.580  0.00  0.00    +0.000 HD
BRANCH  26  30
ATOM     29  C   UNL     1      47.106  32.490  47.389  0.00  0.00    +0.000 A 
ATOM     30  C   UNL     1      46.979  31.492  46.396  0.00  0.00    +0.000 A 
ATOM     31  C   UNL     1      47.692  30.321  46.569  0.00  0.00    +0.000 A 
ATOM     32  N   UNL     1      48.465  30.194  47.671  0.00  0.00    +0.000 NA
ATOM     33  C   UNL     1      48.563  31.149  48.590  0.00  0.00    +0.000 A 
ATOM     34  N   UNL     1      47.887  32.316  48.469  0.00  0.00    +0.000 NA
ATOM     35  H   UNL     1      46.659  33.464  47.456  0.00  0.00    +0.000 HD
ATOM     36  H   UNL     1      47.596  29.563  45.812  0.00  0.00    +0.000 HD
BRANCH  33  37
ATOM     37  C   UNL     1      49.439  30.908  49.786  0.00  0.00    +0.000 C 
ATOM     38  H   UNL     1      48.853  31.286  50.671  0.00  0.00    +0.000 HD
ATOM     39  H   UNL     1      49.570  29.813  49.946  0.00  0.00    +0.000 HD
BRANCH  37  40
ATOM     40  C   UNL     1      50.704  31.630  49.734  0.00  0.00    +0.000 A 
ATOM     41  C   UNL     1      51.899  31.121  49.240  0.00  0.00    +0.000 A 
ATOM     42  C   UNL     1      52.863  32.087  49.355  0.00  0.00    +0.000 A 
ATOM     43  N   UNL     1      52.224  33.160  49.919  0.00  0.00    +0.000 N 
ATOM     44  N   UNL     1      50.939  32.889  50.144  0.00  0.00    +0.000 NA
ATOM     45  H   UNL     1      52.052  30.135  48.833  0.00  0.00    +0.000 HD
ATOM     46  H   UNL     1      53.914  32.083  49.087  0.00  0.00    +0.000 HD
ATOM     47  H   UNL     1      52.688  34.075  50.142  0.00  0.00    +0.000 HD
ENDBRANCH  37  40
ENDBRANCH  33  37
ENDBRANCH  26  30
ENDBRANCH   1  26
TORSDOF 7
