
 OpenBabel03242522413D

 47 50  0  0  1  0  0  0  0  0999 V2000
   46.7870   32.6850   44.4770 C   0  0  0  0  0  0  0  0  0  0  0  0
   47.7740   33.0060   44.8380 H   0  0  0  0  0  0  0  0  0  0  0  0
   46.7770   32.1620   43.5320 H   0  0  0  0  0  0  0  0  0  0  0  0
   46.1960   34.5170   43.0070 C   0  0  0  0  0  0  0  0  0  0  0  0
   46.0390   33.9320   44.2420 C   0  0  0  0  0  0  0  0  0  0  0  0
   45.2660   34.3980   45.2330 C   0  0  0  0  0  0  0  0  0  0  0  0
   44.5640   35.5520   45.0200 C   0  0  0  0  0  0  0  0  0  0  0  0
   44.6370   36.2200   43.8400 C   0  0  0  0  0  0  0  0  0  0  0  0
   45.4530   35.6770   42.8660 C   0  0  0  0  0  0  0  0  0  0  0  0
   45.0700   34.0160   46.1960 H   0  0  0  0  0  0  0  0  0  0  0  0
   43.9040   36.0340   45.7440 H   0  0  0  0  0  0  0  0  0  0  0  0
   44.1020   37.1360   43.6200 H   0  0  0  0  0  0  0  0  0  0  0  0
   45.5020   36.2310   41.9100 H   0  0  0  0  0  0  0  0  0  0  0  0
   47.2290   34.0740   41.7220 S   0  0  0  0  0  0  0  0  0  0  0  0
   48.4110   34.9770   41.5390 O   0  0  0  0  0  0  0  0  0  0  0  0
   46.3900   34.2970   40.4290 O   0  0  0  0  0  0  0  0  0  0  0  0
   49.0220   32.7720   39.0570 O   0  0  0  0  0  0  0  0  0  0  0  0
   48.4140   32.2930   40.0490 C   0  0  0  0  0  0  0  0  0  0  0  0
   47.7530   32.5100   41.3640 C   0  0  2  0  0  3  0  0  0  0  0  0
   46.4780   31.7150   41.0280 C   0  0  0  0  0  3  0  0  0  0  0  0
   45.9340   32.1380   40.1730 H   0  0  0  0  0  0  0  0  0  0  0  0
   47.1240   30.3730   40.6940 C   0  0  0  0  0  3  0  0  0  0  0  0
   46.4170   29.7730   40.1290 H   0  0  0  0  0  0  0  0  0  0  0  0
   48.2560   30.8660   39.8940 N   0  0  0  0  0  0  0  0  0  0  0  0
   48.7190   30.0640   39.3700 H   0  0  0  0  0  0  0  0  0  0  0  0
   46.1430   31.7080   45.4090 C   0  0  0  0  0  0  0  0  0  0  0  0
   45.9610   30.6910   44.9680 H   0  0  0  0  0  0  0  0  0  0  0  0
   45.1100   31.9840   45.7340 H   0  0  0  0  0  0  0  0  0  0  0  0
   47.1960   32.4740   47.5080 C   0  0  0  0  0  0  0  0  0  0  0  0
   47.0600   31.4730   46.5180 C   0  0  0  0  0  0  0  0  0  0  0  0
   47.7860   30.3090   46.6810 C   0  0  0  0  0  0  0  0  0  0  0  0
   48.5780   30.1900   47.7700 N   0  0  0  0  0  0  0  0  0  0  0  0
   48.6840   31.1470   48.6860 C   0  0  0  0  0  0  0  0  0  0  0  0
   47.9960   32.3080   48.5750 N   0  0  0  0  0  0  0  0  0  0  0  0
   46.7420   33.4440   47.5810 H   0  0  0  0  0  0  0  0  0  0  0  0
   47.6840   29.5490   45.9270 H   0  0  0  0  0  0  0  0  0  0  0  0
   49.5820   30.9150   49.8670 C   0  0  0  0  0  0  0  0  0  0  0  0
   49.0170   31.3110   50.7580 H   0  0  0  0  0  0  0  0  0  0  0  0
   49.7060   29.8210   50.0400 H   0  0  0  0  0  0  0  0  0  0  0  0
   50.8520   31.6250   49.7790 C   0  0  0  0  0  0  0  0  0  0  0  0
   52.0330   31.0960   49.2750 C   0  0  0  0  0  0  0  0  0  0  0  0
   53.0080   32.0550   49.3540 C   0  0  0  0  0  0  0  0  0  0  0  0
   52.3880   33.1450   49.9080 N   0  0  0  0  0  0  0  0  0  0  0  0
   51.1040   32.8890   50.1600 N   0  0  0  0  0  0  0  0  0  0  0  0
   52.1710   30.1010   48.8850 H   0  0  0  0  0  0  0  0  0  0  0  0
   54.0540   32.0370   49.0680 H   0  0  0  0  0  0  0  0  0  0  0  0
   52.8630   34.0600   50.1050 H   0  0  0  0  0  0  0  0  0  0  0  0
  1  2  1  0  0  0  0
  1 26  1  0  0  0  0
  3  1  1  0  0  0  0
  4  5  1  0  0  0  0
  5  1  1  0  0  0  0
  5  6  2  0  0  0  0
  6 10  1  0  0  0  0
  7  6  1  0  0  0  0
  7 11  1  0  0  0  0
  8  7  2  0  0  0  0
  9  4  2  0  0  0  0
  9  8  1  0  0  0  0
 12  8  1  0  0  0  0
 13  9  1  0  0  0  0
 14  4  1  0  0  0  0
 15 14  2  0  0  0  0
 16 14  2  0  0  0  0
 17 18  2  0  0  0  0
 18 19  1  0  0  0  0
 19 14  1  6  0  0  0
 20 19  1  0  0  0  0
 21 20  1  0  0  0  0
 22 20  1  0  0  0  0
 23 22  1  0  0  0  0
 24 18  1  0  0  0  0
 24 22  1  0  0  0  0
 25 24  1  0  0  0  0
 26 28  1  0  0  0  0
 26 30  1  0  0  0  0
 27 26  1  0  0  0  0
 29 35  1  0  0  0  0
 29 34  1  0  0  0  0
 30 31  1  0  0  0  0
 30 29  2  0  0  0  0
 31 32  2  0  0  0  0
 32 33  1  0  0  0  0
 33 37  1  0  0  0  0
 34 33  2  0  0  0  0
 36 31  1  0  0  0  0
 37 39  1  0  0  0  0
 37 38  1  0  0  0  0
 40 37  1  0  0  0  0
 40 44  2  0  0  0  0
 41 42  2  0  0  0  0
 41 40  1  0  0  0  0
 42 43  1  0  0  0  0
 43 47  1  0  0  0  0
 43 44  1  0  0  0  0
 45 41  1  0  0  0  0
 46 42  1  0  0  0  0
M  END
>  <minimizedAffinity>
-5.93684912

>  <minimizedRMSD>
0.39023605

$$$$
