
 OpenBabel03242522443D

 47 50  0  0  1  0  0  0  0  0999 V2000
   37.0920   28.0300   39.4620 C   0  0  0  0  0  0  0  0  0  0  0  0
   38.1200   28.0440   39.0750 H   0  0  0  0  0  0  0  0  0  0  0  0
   36.4770   28.8770   39.1990 H   0  0  0  0  0  0  0  0  0  0  0  0
   37.6180   29.2940   41.4590 C   0  0  0  0  0  0  0  0  0  0  0  0
   37.2320   28.0860   40.9270 C   0  0  0  0  0  0  0  0  0  0  0  0
   36.9710   26.9730   41.6270 C   0  0  0  0  0  0  0  0  0  0  0  0
   37.0940   27.0190   42.9880 C   0  0  0  0  0  0  0  0  0  0  0  0
   37.4670   28.1560   43.6290 C   0  0  0  0  0  0  0  0  0  0  0  0
   37.7180   29.2630   42.8400 C   0  0  0  0  0  0  0  0  0  0  0  0
   36.6550   26.0170   41.3140 H   0  0  0  0  0  0  0  0  0  0  0  0
   36.9130   26.1850   43.6690 H   0  0  0  0  0  0  0  0  0  0  0  0
   37.5790   28.2470   44.7030 H   0  0  0  0  0  0  0  0  0  0  0  0
   38.0200   30.1830   43.3750 H   0  0  0  0  0  0  0  0  0  0  0  0
   38.0780   30.7320   40.6610 S   0  0  0  0  0  0  0  0  0  0  0  0
   39.0760   31.5630   41.4090 O   0  0  0  0  0  0  0  0  0  0  0  0
   36.7970   31.6170   40.6470 O   0  0  0  0  0  0  0  0  0  0  0  0
   40.3620   32.7110   38.9650 O   0  0  0  0  0  0  0  0  0  0  0  0
   39.4300   31.9320   38.6360 C   0  0  0  0  0  0  0  0  0  0  0  0
   38.4530   30.8800   39.0220 C   0  0  2  0  0  3  0  0  0  0  0  0
   37.2300   31.5600   38.3800 C   0  0  0  0  0  3  0  0  0  0  0  0
   37.0260   32.5480   38.8130 H   0  0  0  0  0  0  0  0  0  0  0  0
   37.7450   31.6540   36.9470 C   0  0  0  0  0  3  0  0  0  0  0  0
   37.1550   32.3900   36.4070 H   0  0  0  0  0  0  0  0  0  0  0  0
   39.1200   32.0940   37.2330 N   0  0  0  0  0  0  0  0  0  0  0  0
   39.5950   32.4370   36.3450 H   0  0  0  0  0  0  0  0  0  0  0  0
   36.3120   26.8700   38.9290 C   0  0  0  0  0  0  0  0  0  0  0  0
   35.8720   26.1990   39.7160 H   0  0  0  0  0  0  0  0  0  0  0  0
   36.9130   26.1350   38.3390 H   0  0  0  0  0  0  0  0  0  0  0  0
   34.8090   28.7530   38.3870 C   0  0  0  0  0  0  0  0  0  0  0  0
   35.1610   27.3960   38.2040 C   0  0  0  0  0  0  0  0  0  0  0  0
   34.4060   26.6520   37.3170 C   0  0  0  0  0  0  0  0  0  0  0  0
   33.3820   27.2590   36.6760 N   0  0  0  0  0  0  0  0  0  0  0  0
   33.0770   28.5380   36.8650 C   0  0  0  0  0  0  0  0  0  0  0  0
   33.7820   29.3120   37.7240 N   0  0  0  0  0  0  0  0  0  0  0  0
   35.2430   29.5040   39.0200 H   0  0  0  0  0  0  0  0  0  0  0  0
   34.6730   25.6190   37.1810 H   0  0  0  0  0  0  0  0  0  0  0  0
   31.9270   29.1240   36.0960 C   0  0  0  0  0  0  0  0  0  0  0  0
   32.3920   29.6590   35.2200 H   0  0  0  0  0  0  0  0  0  0  0  0
   31.3040   28.3070   35.6650 H   0  0  0  0  0  0  0  0  0  0  0  0
   31.1490   30.0900   36.8610 C   0  0  0  0  0  0  0  0  0  0  0  0
   30.7740   31.3510   36.4150 C   0  0  0  0  0  0  0  0  0  0  0  0
   30.0540   31.9660   37.4060 C   0  0  0  0  0  0  0  0  0  0  0  0
   30.0130   31.0560   38.4300 N   0  0  0  0  0  0  0  0  0  0  0  0
   30.6640   29.9390   38.1060 N   0  0  0  0  0  0  0  0  0  0  0  0
   31.0040   31.7830   35.4550 H   0  0  0  0  0  0  0  0  0  0  0  0
   29.5900   32.9450   37.4490 H   0  0  0  0  0  0  0  0  0  0  0  0
   29.5300   31.2200   39.3480 H   0  0  0  0  0  0  0  0  0  0  0  0
  1  5  1  0  0  0  0
  2  1  1  0  0  0  0
  3  1  1  0  0  0  0
  4  9  1  0  0  0  0
  5  4  2  0  0  0  0
  5  6  1  0  0  0  0
  6  7  2  0  0  0  0
  7  8  1  0  0  0  0
  7 11  1  0  0  0  0
  8 12  1  0  0  0  0
  9 13  1  0  0  0  0
  9  8  2  0  0  0  0
 10  6  1  0  0  0  0
 14 15  2  0  0  0  0
 14  4  1  0  0  0  0
 16 14  2  0  0  0  0
 18 17  2  0  0  0  0
 18 19  1  0  0  0  0
 19 14  1  1  0  0  0
 20 21  1  0  0  0  0
 20 19  1  0  0  0  0
 22 24  1  0  0  0  0
 22 20  1  0  0  0  0
 23 22  1  0  0  0  0
 24 18  1  0  0  0  0
 25 24  1  0  0  0  0
 26  1  1  0  0  0  0
 26 27  1  0  0  0  0
 28 26  1  0  0  0  0
 29 35  1  0  0  0  0
 30 29  1  0  0  0  0
 30 26  1  0  0  0  0
 31 30  2  0  0  0  0
 32 33  2  0  0  0  0
 32 31  1  0  0  0  0
 33 34  1  0  0  0  0
 34 29  2  0  0  0  0
 36 31  1  0  0  0  0
 37 40  1  0  0  0  0
 37 33  1  0  0  0  0
 38 37  1  0  0  0  0
 39 37  1  0  0  0  0
 40 44  2  0  0  0  0
 41 40  1  0  0  0  0
 41 42  2  0  0  0  0
 42 46  1  0  0  0  0
 42 43  1  0  0  0  0
 43 47  1  0  0  0  0
 44 43  1  0  0  0  0
 45 41  1  0  0  0  0
M  END
>  <minimizedAffinity>
-6.35612631

$$$$

 OpenBabel03242522443D

 47 50  0  0  1  0  0  0  0  0999 V2000
   37.0800   27.0930   39.0500 C   0  0  0  0  0  0  0  0  0  0  0  0
   37.7240   26.9470   38.1710 H   0  0  0  0  0  0  0  0  0  0  0  0
   37.5390   27.5860   39.8940 H   0  0  0  0  0  0  0  0  0  0  0  0
   37.4250   25.2940   40.6330 C   0  0  0  0  0  0  0  0  0  0  0  0
   36.7530   25.7360   39.5180 C   0  0  0  0  0  0  0  0  0  0  0  0
   35.8310   25.0410   38.8370 C   0  0  0  0  0  0  0  0  0  0  0  0
   35.5180   23.7820   39.2680 C   0  0  0  0  0  0  0  0  0  0  0  0
   36.1150   23.2360   40.3590 C   0  0  0  0  0  0  0  0  0  0  0  0
   37.0530   24.0150   41.0110 C   0  0  0  0  0  0  0  0  0  0  0  0
   35.2550   25.2980   37.9910 H   0  0  0  0  0  0  0  0  0  0  0  0
   34.7900   23.1150   38.8020 H   0  0  0  0  0  0  0  0  0  0  0  0
   35.9030   22.2460   40.7430 H   0  0  0  0  0  0  0  0  0  0  0  0
   37.5310   23.5590   41.8980 H   0  0  0  0  0  0  0  0  0  0  0  0
   38.6850   26.0450   41.5070 S   0  0  0  0  0  0  0  0  0  0  0  0
   39.9100   26.3430   40.6950 O   0  0  0  0  0  0  0  0  0  0  0  0
   39.1710   24.9720   42.5260 O   0  0  0  0  0  0  0  0  0  0  0  0
   35.9000   27.4570   43.0100 O   0  0  0  0  0  0  0  0  0  0  0  0
   37.1280   27.7300   42.9580 C   0  0  0  0  0  0  0  0  0  0  0  0
   38.5110   27.3130   42.6070 C   0  0  2  0  0  3  0  0  0  0  0  0
   38.8640   28.5900   41.8220 C   0  0  0  0  0  3  0  0  0  0  0  0
   38.2050   28.7450   40.9580 H   0  0  0  0  0  0  0  0  0  0  0  0
   38.6170   29.6140   42.9260 C   0  0  0  0  0  3  0  0  0  0  0  0
   38.5060   30.5980   42.4770 H   0  0  0  0  0  0  0  0  0  0  0  0
   37.3620   29.0650   43.4630 N   0  0  0  0  0  0  0  0  0  0  0  0
   36.8940   29.7660   44.1120 H   0  0  0  0  0  0  0  0  0  0  0  0
   35.9100   27.9740   38.7430 C   0  0  0  0  0  0  0  0  0  0  0  0
   35.0260   27.8320   39.4220 H   0  0  0  0  0  0  0  0  0  0  0  0
   35.4390   27.7920   37.7450 H   0  0  0  0  0  0  0  0  0  0  0  0
   36.0050   29.9790   40.1810 C   0  0  0  0  0  0  0  0  0  0  0  0
   36.3200   29.3570   38.9510 C   0  0  0  0  0  0  0  0  0  0  0  0
   37.0340   30.0940   38.0240 C   0  0  0  0  0  0  0  0  0  0  0  0
   37.3900   31.3580   38.3430 N   0  0  0  0  0  0  0  0  0  0  0  0
   37.0820   31.9160   39.5090 C   0  0  0  0  0  0  0  0  0  0  0  0
   36.3840   31.2400   40.4520 N   0  0  0  0  0  0  0  0  0  0  0  0
   35.4620   29.6060   41.0280 H   0  0  0  0  0  0  0  0  0  0  0  0
   37.2710   29.6200   37.0880 H   0  0  0  0  0  0  0  0  0  0  0  0
   37.5350   33.3230   39.7740 C   0  0  0  0  0  0  0  0  0  0  0  0
   37.4520   33.8590   38.7860 H   0  0  0  0  0  0  0  0  0  0  0  0
   36.8180   33.8290   40.4620 H   0  0  0  0  0  0  0  0  0  0  0  0
   38.9170   33.4130   40.2280 C   0  0  0  0  0  0  0  0  0  0  0  0
   39.9160   34.1590   39.6140 C   0  0  0  0  0  0  0  0  0  0  0  0
   41.0760   33.9980   40.3230 C   0  0  0  0  0  0  0  0  0  0  0  0
   40.7480   33.1540   41.3520 N   0  0  0  0  0  0  0  0  0  0  0  0
   39.4630   32.8070   41.2970 N   0  0  0  0  0  0  0  0  0  0  0  0
   39.8070   34.7650   38.7290 H   0  0  0  0  0  0  0  0  0  0  0  0
   42.0700   34.4060   40.1710 H   0  0  0  0  0  0  0  0  0  0  0  0
   41.4220   32.8270   42.0880 H   0  0  0  0  0  0  0  0  0  0  0  0
  1  5  1  0  0  0  0
  1  3  1  0  0  0  0
  2  1  1  0  0  0  0
  4  9  1  0  0  0  0
  4 14  1  0  0  0  0
  5  4  2  0  0  0  0
  6  7  2  0  0  0  0
  6  5  1  0  0  0  0
  7  8  1  0  0  0  0
  8 12  1  0  0  0  0
  8  9  2  0  0  0  0
  9 13  1  0  0  0  0
 10  6  1  0  0  0  0
 11  7  1  0  0  0  0
 14 16  2  0  0  0  0
 15 14  2  0  0  0  0
 18 17  2  0  0  0  0
 18 24  1  0  0  0  0
 19 14  1  6  0  0  0
 19 18  1  0  0  0  0
 20 19  1  0  0  0  0
 20 22  1  0  0  0  0
 21 20  1  0  0  0  0
 22 24  1  0  0  0  0
 23 22  1  0  0  0  0
 24 25  1  0  0  0  0
 26 30  1  0  0  0  0
 26  1  1  0  0  0  0
 26 27  1  0  0  0  0
 28 26  1  0  0  0  0
 29 34  1  0  0  0  0
 29 35  1  0  0  0  0
 30 29  2  0  0  0  0
 31 32  2  0  0  0  0
 31 30  1  0  0  0  0
 32 33  1  0  0  0  0
 33 37  1  0  0  0  0
 33 34  2  0  0  0  0
 36 31  1  0  0  0  0
 37 40  1  0  0  0  0
 37 39  1  0  0  0  0
 38 37  1  0  0  0  0
 40 44  2  0  0  0  0
 41 40  1  0  0  0  0
 41 42  2  0  0  0  0
 42 43  1  0  0  0  0
 43 47  1  0  0  0  0
 44 43  1  0  0  0  0
 45 41  1  0  0  0  0
 46 42  1  0  0  0  0
M  END
>  <minimizedAffinity>
-6.08795357

$$$$

 OpenBabel03242522443D

 47 50  0  0  1  0  0  0  0  0999 V2000
   38.6500   27.2450   43.3240 C   0  0  0  0  0  0  0  0  0  0  0  0
   39.5630   27.6820   42.8950 H   0  0  0  0  0  0  0  0  0  0  0  0
   38.7210   26.9170   44.3500 H   0  0  0  0  0  0  0  0  0  0  0  0
   39.5110   25.3890   42.0290 C   0  0  0  0  0  0  0  0  0  0  0  0
   38.4030   26.0240   42.5390 C   0  0  0  0  0  0  0  0  0  0  0  0
   37.1340   25.6210   42.3850 C   0  0  0  0  0  0  0  0  0  0  0  0
   36.8970   24.4850   41.6610 C   0  0  0  0  0  0  0  0  0  0  0  0
   37.9110   23.7710   41.1080 C   0  0  0  0  0  0  0  0  0  0  0  0
   39.1920   24.2480   41.3120 C   0  0  0  0  0  0  0  0  0  0  0  0
   36.2300   26.0260   42.7480 H   0  0  0  0  0  0  0  0  0  0  0  0
   35.9130   24.0550   41.4620 H   0  0  0  0  0  0  0  0  0  0  0  0
   37.7780   22.8660   40.5280 H   0  0  0  0  0  0  0  0  0  0  0  0
   40.0080   23.6560   40.8570 H   0  0  0  0  0  0  0  0  0  0  0  0
   41.1490   25.8690   42.0700 S   0  0  0  0  0  0  0  0  0  0  0  0
   42.0430   25.1000   41.1440 O   0  0  0  0  0  0  0  0  0  0  0  0
   41.6550   25.4690   43.4880 O   0  0  0  0  0  0  0  0  0  0  0  0
   43.9400   27.3580   40.6540 O   0  0  0  0  0  0  0  0  0  0  0  0
   43.0360   27.7200   41.4520 C   0  0  0  0  0  0  0  0  0  0  0  0
   41.7180   27.4580   42.0860 C   0  0  2  0  0  3  0  0  0  0  0  0
   42.1850   27.7130   43.5300 C   0  0  0  0  0  3  0  0  0  0  0  0
   42.9810   27.0240   43.8400 H   0  0  0  0  0  0  0  0  0  0  0  0
   42.6950   29.1410   43.3580 C   0  0  0  0  0  3  0  0  0  0  0  0
   43.3540   29.3840   44.1880 H   0  0  0  0  0  0  0  0  0  0  0  0
   43.3980   28.9740   42.0760 N   0  0  0  0  0  0  0  0  0  0  0  0
   44.0220   29.8120   41.8790 H   0  0  0  0  0  0  0  0  0  0  0  0
   37.5260   28.2310   43.3620 C   0  0  0  0  0  0  0  0  0  0  0  0
   37.2890   28.6320   44.3850 H   0  0  0  0  0  0  0  0  0  0  0  0
   36.5310   27.8170   43.0640 H   0  0  0  0  0  0  0  0  0  0  0  0
   37.0130   29.9360   41.6510 C   0  0  0  0  0  0  0  0  0  0  0  0
   37.9260   29.4000   42.5890 C   0  0  0  0  0  0  0  0  0  0  0  0
   39.1400   30.0430   42.7410 C   0  0  0  0  0  0  0  0  0  0  0  0
   39.3860   31.1410   41.9920 N   0  0  0  0  0  0  0  0  0  0  0  0
   38.5070   31.6240   41.1200 C   0  0  0  0  0  0  0  0  0  0  0  0
   37.3040   31.0330   40.9310 N   0  0  0  0  0  0  0  0  0  0  0  0
   36.0330   29.6020   41.3680 H   0  0  0  0  0  0  0  0  0  0  0  0
   39.8340   29.6330   43.4530 H   0  0  0  0  0  0  0  0  0  0  0  0
   38.8690   32.8580   40.3430 C   0  0  0  0  0  0  0  0  0  0  0  0
   37.9020   33.4180   40.1980 H   0  0  0  0  0  0  0  0  0  0  0  0
   39.5190   33.5180   40.9620 H   0  0  0  0  0  0  0  0  0  0  0  0
   39.4330   32.5720   39.0300 C   0  0  0  0  0  0  0  0  0  0  0  0
   40.7850   32.6170   38.7100 C   0  0  0  0  0  0  0  0  0  0  0  0
   40.9290   32.2890   37.3880 C   0  0  0  0  0  0  0  0  0  0  0  0
   39.6560   32.0550   36.9400 N   0  0  0  0  0  0  0  0  0  0  0  0
   38.7650   32.2230   37.9170 N   0  0  0  0  0  0  0  0  0  0  0  0
   41.5910   32.8650   39.3810 H   0  0  0  0  0  0  0  0  0  0  0  0
   41.8130   32.2120   36.7640 H   0  0  0  0  0  0  0  0  0  0  0  0
   39.4160   31.7780   35.9560 H   0  0  0  0  0  0  0  0  0  0  0  0
  1 26  1  0  0  0  0
  1  3  1  0  0  0  0
  2  1  1  0  0  0  0
  4 14  1  0  0  0  0
  4  5  1  0  0  0  0
  5  1  1  0  0  0  0
  6  5  2  0  0  0  0
  6 10  1  0  0  0  0
  7  6  1  0  0  0  0
  8  9  1  0  0  0  0
  8  7  2  0  0  0  0
  9  4  2  0  0  0  0
 11  7  1  0  0  0  0
 12  8  1  0  0  0  0
 13  9  1  0  0  0  0
 14 16  2  0  0  0  0
 15 14  2  0  0  0  0
 17 18  2  0  0  0  0
 18 24  1  0  0  0  0
 18 19  1  0  0  0  0
 19 14  1  1  0  0  0
 19 20  1  0  0  0  0
 20 21  1  0  0  0  0
 22 20  1  0  0  0  0
 22 23  1  0  0  0  0
 24 22  1  0  0  0  0
 25 24  1  0  0  0  0
 26 27  1  0  0  0  0
 28 26  1  0  0  0  0
 29 30  1  0  0  0  0
 30 31  2  0  0  0  0
 30 26  1  0  0  0  0
 31 36  1  0  0  0  0
 32 31  1  0  0  0  0
 33 32  2  0  0  0  0
 34 33  1  0  0  0  0
 34 29  2  0  0  0  0
 35 29  1  0  0  0  0
 37 39  1  0  0  0  0
 37 33  1  0  0  0  0
 38 37  1  0  0  0  0
 40 37  1  0  0  0  0
 41 40  1  0  0  0  0
 41 45  1  0  0  0  0
 42 41  2  0  0  0  0
 43 42  1  0  0  0  0
 43 44  1  0  0  0  0
 44 40  2  0  0  0  0
 46 42  1  0  0  0  0
 47 43  1  0  0  0  0
M  END
>  <minimizedAffinity>
-5.97821426

$$$$

 OpenBabel03242522443D

 47 50  0  0  1  0  0  0  0  0999 V2000
   36.3920   26.6330   38.6450 C   0  0  0  0  0  0  0  0  0  0  0  0
   37.3740   26.7450   38.1630 H   0  0  0  0  0  0  0  0  0  0  0  0
   35.8680   27.5510   38.8660 H   0  0  0  0  0  0  0  0  0  0  0  0
   36.8140   26.8770   41.0170 C   0  0  0  0  0  0  0  0  0  0  0  0
   36.6740   26.0170   39.9520 C   0  0  0  0  0  0  0  0  0  0  0  0
   36.7670   24.6810   40.0120 C   0  0  0  0  0  0  0  0  0  0  0  0
   37.0230   24.1020   41.2230 C   0  0  0  0  0  0  0  0  0  0  0  0
   37.1800   24.8470   42.3480 C   0  0  0  0  0  0  0  0  0  0  0  0
   37.0680   26.2170   42.2080 C   0  0  0  0  0  0  0  0  0  0  0  0
   36.6590   23.9460   39.2630 H   0  0  0  0  0  0  0  0  0  0  0  0
   37.1240   23.0300   41.4040 H   0  0  0  0  0  0  0  0  0  0  0  0
   37.3830   24.4390   43.3310 H   0  0  0  0  0  0  0  0  0  0  0  0
   37.1970   26.8120   43.1320 H   0  0  0  0  0  0  0  0  0  0  0  0
   36.8240   28.5840   41.0360 S   0  0  0  0  0  0  0  0  0  0  0  0
   37.2400   29.1860   42.3440 O   0  0  0  0  0  0  0  0  0  0  0  0
   35.3300   29.0020   40.8970 O   0  0  0  0  0  0  0  0  0  0  0  0
   39.6690   30.5540   40.8580 O   0  0  0  0  0  0  0  0  0  0  0  0
   38.6490   30.3830   40.1410 C   0  0  0  0  0  0  0  0  0  0  0  0
   37.4350   29.5860   39.8240 C   0  0  2  0  0  3  0  0  0  0  0  0
   36.4740   30.7870   39.7580 C   0  0  0  0  0  3  0  0  0  0  0  0
   36.4210   31.3320   40.7090 H   0  0  0  0  0  0  0  0  0  0  0  0
   37.1820   31.5900   38.6720 C   0  0  0  0  0  3  0  0  0  0  0  0
   36.8330   32.6190   38.7080 H   0  0  0  0  0  0  0  0  0  0  0  0
   38.5680   31.4210   39.1380 N   0  0  0  0  0  0  0  0  0  0  0  0
   39.2170   32.0980   38.6360 H   0  0  0  0  0  0  0  0  0  0  0  0
   35.4250   25.8950   37.7750 C   0  0  0  0  0  0  0  0  0  0  0  0
   34.8130   25.1180   38.3090 H   0  0  0  0  0  0  0  0  0  0  0  0
   35.8970   25.2750   36.9740 H   0  0  0  0  0  0  0  0  0  0  0  0
   34.6720   28.2310   37.5040 C   0  0  0  0  0  0  0  0  0  0  0  0
   34.4500   26.8550   37.2700 C   0  0  0  0  0  0  0  0  0  0  0  0
   33.3300   26.5000   36.5430 C   0  0  0  0  0  0  0  0  0  0  0  0
   32.5150   27.4820   36.0960 N   0  0  0  0  0  0  0  0  0  0  0  0
   32.7500   28.7690   36.3290 C   0  0  0  0  0  0  0  0  0  0  0  0
   33.8320   29.1710   37.0370 N   0  0  0  0  0  0  0  0  0  0  0  0
   35.4590   28.7260   38.0410 H   0  0  0  0  0  0  0  0  0  0  0  0
   33.1610   25.4530   36.3670 H   0  0  0  0  0  0  0  0  0  0  0  0
   31.7910   29.7860   35.7790 C   0  0  0  0  0  0  0  0  0  0  0  0
   32.4320   30.5640   35.2760 H   0  0  0  0  0  0  0  0  0  0  0  0
   31.1710   29.3270   34.9750 H   0  0  0  0  0  0  0  0  0  0  0  0
   30.9930   30.4450   36.8050 C   0  0  0  0  0  0  0  0  0  0  0  0
   30.4590   31.7240   36.7080 C   0  0  0  0  0  0  0  0  0  0  0  0
   29.7740   31.9980   37.8620 C   0  0  0  0  0  0  0  0  0  0  0  0
   29.9130   30.8730   38.6320 N   0  0  0  0  0  0  0  0  0  0  0  0
   30.6380   29.9480   38.0030 N   0  0  0  0  0  0  0  0  0  0  0  0
   30.5600   32.3950   35.8710 H   0  0  0  0  0  0  0  0  0  0  0  0
   29.2230   32.8790   38.1740 H   0  0  0  0  0  0  0  0  0  0  0  0
   29.5000   30.7570   39.5900 H   0  0  0  0  0  0  0  0  0  0  0  0
  1  3  1  0  0  0  0
  1  5  1  0  0  0  0
  2  1  1  0  0  0  0
  4 14  1  0  0  0  0
  4  9  1  0  0  0  0
  5  6  1  0  0  0  0
  5  4  2  0  0  0  0
  6  7  2  0  0  0  0
  7 11  1  0  0  0  0
  7  8  1  0  0  0  0
  8 12  1  0  0  0  0
  9  8  2  0  0  0  0
  9 13  1  0  0  0  0
 10  6  1  0  0  0  0
 14 15  2  0  0  0  0
 16 14  2  0  0  0  0
 18 17  2  0  0  0  0
 19 18  1  0  0  0  0
 19 14  1  1  0  0  0
 20 19  1  0  0  0  0
 20 21  1  0  0  0  0
 22 23  1  0  0  0  0
 22 24  1  0  0  0  0
 22 20  1  0  0  0  0
 24 18  1  0  0  0  0
 25 24  1  0  0  0  0
 26 27  1  0  0  0  0
 26  1  1  0  0  0  0
 28 26  1  0  0  0  0
 29 35  1  0  0  0  0
 30 29  1  0  0  0  0
 30 26  1  0  0  0  0
 31 30  2  0  0  0  0
 32 33  2  0  0  0  0
 32 31  1  0  0  0  0
 33 34  1  0  0  0  0
 34 29  2  0  0  0  0
 36 31  1  0  0  0  0
 37 33  1  0  0  0  0
 37 40  1  0  0  0  0
 38 37  1  0  0  0  0
 39 37  1  0  0  0  0
 40 44  2  0  0  0  0
 41 40  1  0  0  0  0
 41 42  2  0  0  0  0
 42 46  1  0  0  0  0
 42 43  1  0  0  0  0
 43 47  1  0  0  0  0
 44 43  1  0  0  0  0
 45 41  1  0  0  0  0
M  END
>  <minimizedAffinity>
-5.95597124

$$$$

 OpenBabel03242522443D

 47 50  0  0  1  0  0  0  0  0999 V2000
   37.3290   26.6800   42.6350 C   0  0  0  0  0  0  0  0  0  0  0  0
   36.4510   26.4090   43.2370 H   0  0  0  0  0  0  0  0  0  0  0  0
   37.2590   27.6100   42.0900 H   0  0  0  0  0  0  0  0  0  0  0  0
   37.4450   26.0530   40.2990 C   0  0  0  0  0  0  0  0  0  0  0  0
   37.4300   25.6300   41.6070 C   0  0  0  0  0  0  0  0  0  0  0  0
   37.5060   24.3550   42.0160 C   0  0  0  0  0  0  0  0  0  0  0  0
   37.6050   23.3760   41.0670 C   0  0  0  0  0  0  0  0  0  0  0  0
   37.6300   23.6700   39.7420 C   0  0  0  0  0  0  0  0  0  0  0  0
   37.5500   25.0060   39.3990 C   0  0  0  0  0  0  0  0  0  0  0  0
   37.5200   23.9390   42.9840 H   0  0  0  0  0  0  0  0  0  0  0  0
   37.6710   22.3040   41.2680 H   0  0  0  0  0  0  0  0  0  0  0  0
   37.7080   22.9330   38.9510 H   0  0  0  0  0  0  0  0  0  0  0  0
   37.5720   25.2320   38.3160 H   0  0  0  0  0  0  0  0  0  0  0  0
   37.2460   27.6270   39.6670 S   0  0  0  0  0  0  0  0  0  0  0  0
   36.4980   27.6840   38.3700 O   0  0  0  0  0  0  0  0  0  0  0  0
   38.6810   28.0980   39.2870 O   0  0  0  0  0  0  0  0  0  0  0  0
   34.1880   29.1790   40.1740 O   0  0  0  0  0  0  0  0  0  0  0  0
   35.3880   29.4470   40.4460 C   0  0  0  0  0  0  0  0  0  0  0  0
   36.8020   28.9990   40.5440 C   0  0  2  0  0  3  0  0  0  0  0  0
   37.3960   30.1910   39.7720 C   0  0  0  0  0  3  0  0  0  0  0  0
   37.0130   30.2570   38.7460 H   0  0  0  0  0  0  0  0  0  0  0  0
   36.8750   31.3200   40.6560 C   0  0  0  0  0  3  0  0  0  0  0  0
   36.9220   32.2540   40.1010 H   0  0  0  0  0  0  0  0  0  0  0  0
   35.5060   30.8260   40.8660 N   0  0  0  0  0  0  0  0  0  0  0  0
   34.8920   31.5880   41.2830 H   0  0  0  0  0  0  0  0  0  0  0  0
   38.5460   26.8780   43.4820 C   0  0  0  0  0  0  0  0  0  0  0  0
   39.2790   26.0260   43.4560 H   0  0  0  0  0  0  0  0  0  0  0  0
   38.3450   26.9460   44.5800 H   0  0  0  0  0  0  0  0  0  0  0  0
   38.8020   29.3200   43.2250 C   0  0  0  0  0  0  0  0  0  0  0  0
   39.2830   28.0190   42.9530 C   0  0  0  0  0  0  0  0  0  0  0  0
   40.4510   27.9070   42.2230 C   0  0  0  0  0  0  0  0  0  0  0  0
   41.0670   29.0390   41.8150 N   0  0  0  0  0  0  0  0  0  0  0  0
   40.5930   30.2500   42.0880 C   0  0  0  0  0  0  0  0  0  0  0  0
   39.4520   30.4170   42.7980 N   0  0  0  0  0  0  0  0  0  0  0  0
   37.9260   29.6400   43.7580 H   0  0  0  0  0  0  0  0  0  0  0  0
   40.8150   26.9160   42.0150 H   0  0  0  0  0  0  0  0  0  0  0  0
   41.3560   31.4480   41.6000 C   0  0  0  0  0  0  0  0  0  0  0  0
   41.3120   32.1970   42.4400 H   0  0  0  0  0  0  0  0  0  0  0  0
   42.4320   31.1860   41.4740 H   0  0  0  0  0  0  0  0  0  0  0  0
   40.7770   32.0600   40.4110 C   0  0  0  0  0  0  0  0  0  0  0  0
   40.9360   31.5970   39.1110 C   0  0  0  0  0  0  0  0  0  0  0  0
   40.2470   32.4270   38.2660 C   0  0  0  0  0  0  0  0  0  0  0  0
   39.6880   33.3760   39.0810 N   0  0  0  0  0  0  0  0  0  0  0  0
   40.0030   33.1590   40.3570 N   0  0  0  0  0  0  0  0  0  0  0  0
   41.5020   30.7310   38.8070 H   0  0  0  0  0  0  0  0  0  0  0  0
   40.1240   32.4080   37.1890 H   0  0  0  0  0  0  0  0  0  0  0  0
   39.0900   34.1700   38.7420 H   0  0  0  0  0  0  0  0  0  0  0  0
  1  2  1  0  0  0  0
  1 26  1  0  0  0  0
  3  1  1  0  0  0  0
  4  5  1  0  0  0  0
  5  6  2  0  0  0  0
  5  1  1  0  0  0  0
  6 10  1  0  0  0  0
  7 11  1  0  0  0  0
  7  6  1  0  0  0  0
  8  7  2  0  0  0  0
  9  8  1  0  0  0  0
  9  4  2  0  0  0  0
 12  8  1  0  0  0  0
 13  9  1  0  0  0  0
 14  4  1  0  0  0  0
 15 14  2  0  0  0  0
 16 14  2  0  0  0  0
 17 18  2  0  0  0  0
 18 19  1  0  0  0  0
 18 24  1  0  0  0  0
 19 14  1  6  0  0  0
 20 19  1  0  0  0  0
 20 22  1  0  0  0  0
 21 20  1  0  0  0  0
 22 24  1  0  0  0  0
 23 22  1  0  0  0  0
 24 25  1  0  0  0  0
 26 28  1  0  0  0  0
 27 26  1  0  0  0  0
 29 35  1  0  0  0  0
 30 29  1  0  0  0  0
 30 26  1  0  0  0  0
 31 30  2  0  0  0  0
 32 33  2  0  0  0  0
 32 31  1  0  0  0  0
 33 34  1  0  0  0  0
 34 29  2  0  0  0  0
 36 31  1  0  0  0  0
 37 33  1  0  0  0  0
 37 38  1  0  0  0  0
 39 37  1  0  0  0  0
 40 37  1  0  0  0  0
 41 40  1  0  0  0  0
 42 43  1  0  0  0  0
 42 41  2  0  0  0  0
 43 44  1  0  0  0  0
 44 40  2  0  0  0  0
 45 41  1  0  0  0  0
 46 42  1  0  0  0  0
 47 43  1  0  0  0  0
M  END
>  <minimizedAffinity>
-5.95295

$$$$

 OpenBabel03242522443D

 47 50  0  0  1  0  0  0  0  0999 V2000
   36.8510   30.6840   39.0620 C   0  0  0  0  0  0  0  0  0  0  0  0
   37.5170   30.3290   39.8610 H   0  0  0  0  0  0  0  0  0  0  0  0
   35.8140   30.8120   39.3340 H   0  0  0  0  0  0  0  0  0  0  0  0
   37.1880   28.3550   38.4910 C   0  0  0  0  0  0  0  0  0  0  0  0
   36.8620   29.6160   38.0480 C   0  0  0  0  0  0  0  0  0  0  0  0
   36.5510   29.9430   36.7860 C   0  0  0  0  0  0  0  0  0  0  0  0
   36.5540   28.9550   35.8410 C   0  0  0  0  0  0  0  0  0  0  0  0
   36.8590   27.6700   36.1570 C   0  0  0  0  0  0  0  0  0  0  0  0
   37.1670   27.4100   37.4790 C   0  0  0  0  0  0  0  0  0  0  0  0
   36.2740   30.8660   36.3580 H   0  0  0  0  0  0  0  0  0  0  0  0
   36.3230   29.0910   34.7820 H   0  0  0  0  0  0  0  0  0  0  0  0
   36.8750   26.8510   35.4480 H   0  0  0  0  0  0  0  0  0  0  0  0
   37.4120   26.3600   37.7230 H   0  0  0  0  0  0  0  0  0  0  0  0
   37.7020   27.8500   40.0390 S   0  0  0  0  0  0  0  0  0  0  0  0
   39.1800   27.9570   40.2660 O   0  0  0  0  0  0  0  0  0  0  0  0
   37.4330   26.3160   40.0770 O   0  0  0  0  0  0  0  0  0  0  0  0
   38.4620   30.1590   42.5100 O   0  0  0  0  0  0  0  0  0  0  0  0
   37.6350   29.2180   42.3830 C   0  0  0  0  0  0  0  0  0  0  0  0
   36.9560   28.2290   41.5050 C   0  0  2  0  0  3  0  0  0  0  0  0
   37.2030   27.0150   42.4180 C   0  0  0  0  0  3  0  0  0  0  0  0
   38.2720   26.8210   42.5760 H   0  0  0  0  0  0  0  0  0  0  0  0
   36.5180   27.5330   43.6790 C   0  0  0  0  0  3  0  0  0  0  0  0
   36.8610   26.9520   44.5320 H   0  0  0  0  0  0  0  0  0  0  0  0
   37.0310   28.9120   43.6600 N   0  0  0  0  0  0  0  0  0  0  0  0
   36.8470   29.3930   44.5920 H   0  0  0  0  0  0  0  0  0  0  0  0
   37.2410   32.0440   38.5750 C   0  0  0  0  0  0  0  0  0  0  0  0
   36.7180   32.8940   39.0920 H   0  0  0  0  0  0  0  0  0  0  0  0
   36.9760   32.2530   37.5100 H   0  0  0  0  0  0  0  0  0  0  0  0
   39.0100   32.8080   40.1190 C   0  0  0  0  0  0  0  0  0  0  0  0
   38.6540   32.2410   38.8740 C   0  0  0  0  0  0  0  0  0  0  0  0
   39.6770   31.8740   38.0200 C   0  0  0  0  0  0  0  0  0  0  0  0
   40.9530   32.0730   38.4210 N   0  0  0  0  0  0  0  0  0  0  0  0
   41.2580   32.6060   39.5990 C   0  0  0  0  0  0  0  0  0  0  0  0
   40.2950   32.9840   40.4720 N   0  0  0  0  0  0  0  0  0  0  0  0
   38.3930   33.1670   40.9200 H   0  0  0  0  0  0  0  0  0  0  0  0
   39.4050   31.4440   37.0720 H   0  0  0  0  0  0  0  0  0  0  0  0
   42.7070   32.7760   39.9580 C   0  0  0  0  0  0  0  0  0  0  0  0
   42.7460   33.6690   40.6430 H   0  0  0  0  0  0  0  0  0  0  0  0
   43.0530   31.9060   40.5620 H   0  0  0  0  0  0  0  0  0  0  0  0
   43.5620   33.0450   38.8080 C   0  0  0  0  0  0  0  0  0  0  0  0
   44.5200   32.1760   38.2990 C   0  0  0  0  0  0  0  0  0  0  0  0
   45.1180   32.7730   37.2220 C   0  0  0  0  0  0  0  0  0  0  0  0
   44.5050   33.9930   37.1060 N   0  0  0  0  0  0  0  0  0  0  0  0
   43.5780   34.1550   38.0500 N   0  0  0  0  0  0  0  0  0  0  0  0
   44.7590   31.1970   38.6810 H   0  0  0  0  0  0  0  0  0  0  0  0
   45.9050   32.4280   36.5600 H   0  0  0  0  0  0  0  0  0  0  0  0
   44.7360   34.7040   36.3690 H   0  0  0  0  0  0  0  0  0  0  0  0
  1  3  1  0  0  0  0
  1  2  1  0  0  0  0
  4 14  1  0  0  0  0
  5  4  1  0  0  0  0
  5  1  1  0  0  0  0
  6  5  2  0  0  0  0
  7  8  2  0  0  0  0
  7  6  1  0  0  0  0
  8  9  1  0  0  0  0
  9 13  1  0  0  0  0
  9  4  2  0  0  0  0
 10  6  1  0  0  0  0
 11  7  1  0  0  0  0
 12  8  1  0  0  0  0
 14 16  2  0  0  0  0
 14 15  2  0  0  0  0
 18 17  2  0  0  0  0
 18 24  1  0  0  0  0
 19 14  1  6  0  0  0
 19 18  1  0  0  0  0
 19 20  1  0  0  0  0
 20 21  1  0  0  0  0
 20 22  1  0  0  0  0
 22 23  1  0  0  0  0
 24 22  1  0  0  0  0
 24 25  1  0  0  0  0
 26 30  1  0  0  0  0
 26  1  1  0  0  0  0
 26 27  1  0  0  0  0
 28 26  1  0  0  0  0
 29 34  1  0  0  0  0
 29 35  1  0  0  0  0
 30 29  2  0  0  0  0
 31 32  2  0  0  0  0
 31 30  1  0  0  0  0
 32 33  1  0  0  0  0
 33 37  1  0  0  0  0
 33 34  2  0  0  0  0
 36 31  1  0  0  0  0
 37 39  1  0  0  0  0
 37 38  1  0  0  0  0
 40 37  1  0  0  0  0
 41 45  1  0  0  0  0
 41 40  1  0  0  0  0
 42 41  2  0  0  0  0
 43 42  1  0  0  0  0
 43 44  1  0  0  0  0
 44 40  2  0  0  0  0
 46 42  1  0  0  0  0
 47 43  1  0  0  0  0
M  END
>  <minimizedAffinity>
-5.86898279

$$$$

 OpenBabel03242522443D

 47 50  0  0  1  0  0  0  0  0999 V2000
   38.1880   31.3810   38.5340 C   0  0  0  0  0  0  0  0  0  0  0  0
   38.4350   32.2670   37.9310 H   0  0  0  0  0  0  0  0  0  0  0  0
   38.9450   31.0610   39.2340 H   0  0  0  0  0  0  0  0  0  0  0  0
   39.1100   29.3960   37.4990 C   0  0  0  0  0  0  0  0  0  0  0  0
   38.0590   30.2810   37.5650 C   0  0  0  0  0  0  0  0  0  0  0  0
   36.9390   30.2170   36.8300 C   0  0  0  0  0  0  0  0  0  0  0  0
   36.8110   29.1940   35.9320 C   0  0  0  0  0  0  0  0  0  0  0  0
   37.7820   28.2580   35.7770 C   0  0  0  0  0  0  0  0  0  0  0  0
   38.9050   28.3890   36.5710 C   0  0  0  0  0  0  0  0  0  0  0  0
   36.0820   30.8300   36.8220 H   0  0  0  0  0  0  0  0  0  0  0  0
   35.9530   29.0330   35.2750 H   0  0  0  0  0  0  0  0  0  0  0  0
   37.7290   27.4290   35.0820 H   0  0  0  0  0  0  0  0  0  0  0  0
   39.6880   27.6190   36.4360 H   0  0  0  0  0  0  0  0  0  0  0  0
   40.6170   29.4430   38.3010 S   0  0  0  0  0  0  0  0  0  0  0  0
   41.1180   28.1060   38.7560 O   0  0  0  0  0  0  0  0  0  0  0  0
   40.3470   30.2080   39.6310 O   0  0  0  0  0  0  0  0  0  0  0  0
   41.0060   32.7450   37.3230 O   0  0  0  0  0  0  0  0  0  0  0  0
   41.7430   31.7240   37.3540 C   0  0  0  0  0  0  0  0  0  0  0  0
   41.9690   30.3310   37.8210 C   0  0  2  0  0  3  0  0  0  0  0  0
   42.3640   29.7690   36.4430 C   0  0  0  0  0  3  0  0  0  0  0  0
   41.5600   29.8730   35.7030 H   0  0  0  0  0  0  0  0  0  0  0  0
   43.5430   30.6900   36.1470 C   0  0  0  0  0  3  0  0  0  0  0  0
   43.7560   30.6600   35.0820 H   0  0  0  0  0  0  0  0  0  0  0  0
   42.9500   31.9610   36.5950 N   0  0  0  0  0  0  0  0  0  0  0  0
   43.5380   32.7840   36.2660 H   0  0  0  0  0  0  0  0  0  0  0  0
   36.9980   31.6180   39.4100 C   0  0  0  0  0  0  0  0  0  0  0  0
   36.0160   31.6550   38.8650 H   0  0  0  0  0  0  0  0  0  0  0  0
   36.9890   32.6090   39.9270 H   0  0  0  0  0  0  0  0  0  0  0  0
   37.8310   30.3400   41.3520 C   0  0  0  0  0  0  0  0  0  0  0  0
   36.8760   30.4850   40.3190 C   0  0  0  0  0  0  0  0  0  0  0  0
   35.8560   29.5550   40.2540 C   0  0  0  0  0  0  0  0  0  0  0  0
   35.8260   28.5660   41.1750 N   0  0  0  0  0  0  0  0  0  0  0  0
   36.7370   28.4560   42.1370 C   0  0  0  0  0  0  0  0  0  0  0  0
   37.7570   29.3390   42.2460 N   0  0  0  0  0  0  0  0  0  0  0  0
   38.6970   30.9310   41.5850 H   0  0  0  0  0  0  0  0  0  0  0  0
   35.1320   29.6650   39.4670 H   0  0  0  0  0  0  0  0  0  0  0  0
   36.6100   27.3280   43.1210 C   0  0  0  0  0  0  0  0  0  0  0  0
   37.0540   27.7150   44.0820 H   0  0  0  0  0  0  0  0  0  0  0  0
   35.5350   27.1300   43.3340 H   0  0  0  0  0  0  0  0  0  0  0  0
   37.3430   26.1310   42.7290 C   0  0  0  0  0  0  0  0  0  0  0  0
   36.7700   24.9660   42.2320 C   0  0  0  0  0  0  0  0  0  0  0  0
   37.7690   24.0660   41.9770 C   0  0  0  0  0  0  0  0  0  0  0  0
   38.9260   24.7100   42.3290 N   0  0  0  0  0  0  0  0  0  0  0  0
   38.6730   25.9400   42.7760 N   0  0  0  0  0  0  0  0  0  0  0  0
   35.7190   24.7920   42.0710 H   0  0  0  0  0  0  0  0  0  0  0  0
   37.7370   23.0540   41.5880 H   0  0  0  0  0  0  0  0  0  0  0  0
   39.8850   24.2890   42.2530 H   0  0  0  0  0  0  0  0  0  0  0  0
  1  3  1  0  0  0  0
  1 26  1  0  0  0  0
  2  1  1  0  0  0  0
  4  5  1  0  0  0  0
  4 14  1  0  0  0  0
  5  1  1  0  0  0  0
  6  5  2  0  0  0  0
  7  6  1  0  0  0  0
  8  7  2  0  0  0  0
  8  9  1  0  0  0  0
  9  4  2  0  0  0  0
 10  6  1  0  0  0  0
 11  7  1  0  0  0  0
 12  8  1  0  0  0  0
 13  9  1  0  0  0  0
 14 15  2  0  0  0  0
 14 16  2  0  0  0  0
 17 18  2  0  0  0  0
 18 19  1  0  0  0  0
 19 14  1  6  0  0  0
 20 19  1  0  0  0  0
 21 20  1  0  0  0  0
 22 20  1  0  0  0  0
 22 24  1  0  0  0  0
 23 22  1  0  0  0  0
 24 18  1  0  0  0  0
 25 24  1  0  0  0  0
 26 28  1  0  0  0  0
 26 30  1  0  0  0  0
 27 26  1  0  0  0  0
 29 35  1  0  0  0  0
 29 34  1  0  0  0  0
 30 29  2  0  0  0  0
 31 30  1  0  0  0  0
 31 32  2  0  0  0  0
 32 33  1  0  0  0  0
 33 34  2  0  0  0  0
 33 37  1  0  0  0  0
 36 31  1  0  0  0  0
 37 39  1  0  0  0  0
 37 38  1  0  0  0  0
 40 44  2  0  0  0  0
 40 37  1  0  0  0  0
 41 40  1  0  0  0  0
 42 41  2  0  0  0  0
 42 43  1  0  0  0  0
 43 44  1  0  0  0  0
 45 41  1  0  0  0  0
 46 42  1  0  0  0  0
 47 43  1  0  0  0  0
M  END
>  <minimizedAffinity>
-5.8118372

$$$$

 OpenBabel03242522443D

 47 50  0  0  1  0  0  0  0  0999 V2000
   37.3730   27.2580   42.6890 C   0  0  0  0  0  0  0  0  0  0  0  0
   36.6380   26.5590   43.1110 H   0  0  0  0  0  0  0  0  0  0  0  0
   37.1770   27.5990   41.6830 H   0  0  0  0  0  0  0  0  0  0  0  0
   38.8760   25.8490   41.4170 C   0  0  0  0  0  0  0  0  0  0  0  0
   38.6280   26.4930   42.6060 C   0  0  0  0  0  0  0  0  0  0  0  0
   39.4320   26.4840   43.6800 C   0  0  0  0  0  0  0  0  0  0  0  0
   40.6010   25.7800   43.6080 C   0  0  0  0  0  0  0  0  0  0  0  0
   40.9560   25.1040   42.4860 C   0  0  0  0  0  0  0  0  0  0  0  0
   40.0780   25.1610   41.4200 C   0  0  0  0  0  0  0  0  0  0  0  0
   39.3380   26.9560   44.6180 H   0  0  0  0  0  0  0  0  0  0  0  0
   41.3370   25.6930   44.4100 H   0  0  0  0  0  0  0  0  0  0  0  0
   41.8700   24.5320   42.3770 H   0  0  0  0  0  0  0  0  0  0  0  0
   40.3790   24.6070   40.5120 H   0  0  0  0  0  0  0  0  0  0  0  0
   37.8810   25.7030   40.0370 S   0  0  0  0  0  0  0  0  0  0  0  0
   36.5670   25.0280   40.2890 O   0  0  0  0  0  0  0  0  0  0  0  0
   38.6310   24.7120   39.0970 O   0  0  0  0  0  0  0  0  0  0  0  0
   39.4280   28.7410   39.4130 O   0  0  0  0  0  0  0  0  0  0  0  0
   38.4010   28.1510   38.9860 C   0  0  0  0  0  0  0  0  0  0  0  0
   37.5970   26.9050   38.8870 C   0  0  2  0  0  3  0  0  0  0  0  0
   36.2590   27.5510   39.2890 C   0  0  0  0  0  3  0  0  0  0  0  0
   36.2920   27.9900   40.2950 H   0  0  0  0  0  0  0  0  0  0  0  0
   36.1810   28.6160   38.1990 C   0  0  0  0  0  3  0  0  0  0  0  0
   35.4670   29.3790   38.5000 H   0  0  0  0  0  0  0  0  0  0  0  0
   37.5800   29.0710   38.2310 N   0  0  0  0  0  0  0  0  0  0  0  0
   37.6900   29.9800   37.6900 H   0  0  0  0  0  0  0  0  0  0  0  0
   37.4400   28.5330   43.4680 C   0  0  0  0  0  0  0  0  0  0  0  0
   38.2730   28.5790   44.2220 H   0  0  0  0  0  0  0  0  0  0  0  0
   36.5550   28.7270   44.1230 H   0  0  0  0  0  0  0  0  0  0  0  0
   36.6930   30.0560   41.6740 C   0  0  0  0  0  0  0  0  0  0  0  0
   37.7240   29.6170   42.5350 C   0  0  0  0  0  0  0  0  0  0  0  0
   38.9390   30.2710   42.4650 C   0  0  0  0  0  0  0  0  0  0  0  0
   39.0750   31.2870   41.5830 N   0  0  0  0  0  0  0  0  0  0  0  0
   38.0860   31.6790   40.7870 C   0  0  0  0  0  0  0  0  0  0  0  0
   36.8750   31.0730   40.8140 N   0  0  0  0  0  0  0  0  0  0  0  0
   35.6880   29.6960   41.5540 H   0  0  0  0  0  0  0  0  0  0  0  0
   39.7240   29.9350   43.1200 H   0  0  0  0  0  0  0  0  0  0  0  0
   38.3310   32.8270   39.8490 C   0  0  0  0  0  0  0  0  0  0  0  0
   37.3250   33.0730   39.4040 H   0  0  0  0  0  0  0  0  0  0  0  0
   38.6440   33.7280   40.4260 H   0  0  0  0  0  0  0  0  0  0  0  0
   39.2450   32.5030   38.7610 C   0  0  0  0  0  0  0  0  0  0  0  0
   40.5860   32.8600   38.7070 C   0  0  0  0  0  0  0  0  0  0  0  0
   41.1160   32.3810   37.5380 C   0  0  0  0  0  0  0  0  0  0  0  0
   40.0770   31.7440   36.9130 N   0  0  0  0  0  0  0  0  0  0  0  0
   38.9630   31.8150   37.6400 N   0  0  0  0  0  0  0  0  0  0  0  0
   41.1280   33.4190   39.4520 H   0  0  0  0  0  0  0  0  0  0  0  0
   42.1180   32.4490   37.1270 H   0  0  0  0  0  0  0  0  0  0  0  0
   40.1520   31.2630   35.9830 H   0  0  0  0  0  0  0  0  0  0  0  0
  1  2  1  0  0  0  0
  1 26  1  0  0  0  0
  3  1  1  0  0  0  0
  4  9  2  0  0  0  0
  4  5  1  0  0  0  0
  5  1  1  0  0  0  0
  5  6  2  0  0  0  0
  6 10  1  0  0  0  0
  7  6  1  0  0  0  0
  7 11  1  0  0  0  0
  8  7  2  0  0  0  0
  9  8  1  0  0  0  0
 12  8  1  0  0  0  0
 13  9  1  0  0  0  0
 14 15  2  0  0  0  0
 14  4  1  0  0  0  0
 16 14  2  0  0  0  0
 18 17  2  0  0  0  0
 19 18  1  0  0  0  0
 19 20  1  0  0  0  0
 19 14  1  1  0  0  0
 20 21  1  0  0  0  0
 22 24  1  0  0  0  0
 22 23  1  0  0  0  0
 22 20  1  0  0  0  0
 24 18  1  0  0  0  0
 25 24  1  0  0  0  0
 26 28  1  0  0  0  0
 26 27  1  0  0  0  0
 29 30  1  0  0  0  0
 30 26  1  0  0  0  0
 31 30  2  0  0  0  0
 31 36  1  0  0  0  0
 32 31  1  0  0  0  0
 33 34  1  0  0  0  0
 33 32  2  0  0  0  0
 34 29  2  0  0  0  0
 35 29  1  0  0  0  0
 37 39  1  0  0  0  0
 37 33  1  0  0  0  0
 38 37  1  0  0  0  0
 40 37  1  0  0  0  0
 41 40  1  0  0  0  0
 41 45  1  0  0  0  0
 42 41  2  0  0  0  0
 43 42  1  0  0  0  0
 43 44  1  0  0  0  0
 44 40  2  0  0  0  0
 46 42  1  0  0  0  0
 47 43  1  0  0  0  0
M  END
>  <minimizedAffinity>
-5.8064518

$$$$

 OpenBabel03242522443D

 47 50  0  0  1  0  0  0  0  0999 V2000
   37.0900   28.5780   42.4060 C   0  0  0  0  0  0  0  0  0  0  0  0
   36.1310   28.6490   42.9380 H   0  0  0  0  0  0  0  0  0  0  0  0
   37.2510   29.3060   41.6250 H   0  0  0  0  0  0  0  0  0  0  0  0
   36.5590   27.2630   40.4440 C   0  0  0  0  0  0  0  0  0  0  0  0
   37.0570   27.2730   41.7260 C   0  0  0  0  0  0  0  0  0  0  0  0
   37.5150   26.2040   42.3930 C   0  0  0  0  0  0  0  0  0  0  0  0
   37.4930   24.9900   41.7660 C   0  0  0  0  0  0  0  0  0  0  0  0
   37.0240   24.8530   40.4990 C   0  0  0  0  0  0  0  0  0  0  0  0
   36.5720   26.0010   39.8750 C   0  0  0  0  0  0  0  0  0  0  0  0
   37.9280   26.1160   43.3600 H   0  0  0  0  0  0  0  0  0  0  0  0
   37.8330   24.0470   42.1990 H   0  0  0  0  0  0  0  0  0  0  0  0
   36.9860   23.9160   39.9560 H   0  0  0  0  0  0  0  0  0  0  0  0
   36.1940   25.8760   38.8430 H   0  0  0  0  0  0  0  0  0  0  0  0
   35.8550   28.5330   39.5460 S   0  0  0  0  0  0  0  0  0  0  0  0
   34.6410   29.1410   40.1810 O   0  0  0  0  0  0  0  0  0  0  0  0
   35.2990   27.8590   38.2560 O   0  0  0  0  0  0  0  0  0  0  0  0
   39.2330   29.1220   39.0440 O   0  0  0  0  0  0  0  0  0  0  0  0
   38.1710   29.7700   38.8560 C   0  0  0  0  0  0  0  0  0  0  0  0
   36.6860   29.7890   38.7840 C   0  0  2  0  0  3  0  0  0  0  0  0
   36.5010   31.0170   39.6930 C   0  0  0  0  0  3  0  0  0  0  0  0
   36.9030   30.8540   40.7020 H   0  0  0  0  0  0  0  0  0  0  0  0
   37.3300   32.0200   38.8970 C   0  0  0  0  0  3  0  0  0  0  0  0
   37.5830   32.8590   39.5410 H   0  0  0  0  0  0  0  0  0  0  0  0
   38.4770   31.1560   38.5760 N   0  0  0  0  0  0  0  0  0  0  0  0
   39.2890   31.7340   38.2050 H   0  0  0  0  0  0  0  0  0  0  0  0
   38.2520   28.8050   43.3210 C   0  0  0  0  0  0  0  0  0  0  0  0
   38.7890   27.8690   43.6370 H   0  0  0  0  0  0  0  0  0  0  0  0
   37.9850   29.2380   44.3170 H   0  0  0  0  0  0  0  0  0  0  0  0
   38.9320   30.9020   42.2090 C   0  0  0  0  0  0  0  0  0  0  0  0
   39.2520   29.5800   42.5970 C   0  0  0  0  0  0  0  0  0  0  0  0
   40.5150   29.1110   42.2930 C   0  0  0  0  0  0  0  0  0  0  0  0
   41.3710   29.9350   41.6470 N   0  0  0  0  0  0  0  0  0  0  0  0
   41.0430   31.1750   41.2970 C   0  0  0  0  0  0  0  0  0  0  0  0
   39.8180   31.6840   41.5700 N   0  0  0  0  0  0  0  0  0  0  0  0
   38.0240   31.4610   42.3330 H   0  0  0  0  0  0  0  0  0  0  0  0
   40.7570   28.1050   42.5860 H   0  0  0  0  0  0  0  0  0  0  0  0
   42.0680   32.0180   40.5940 C   0  0  0  0  0  0  0  0  0  0  0  0
   42.0350   33.0220   41.1030 H   0  0  0  0  0  0  0  0  0  0  0  0
   43.0880   31.6090   40.7800 H   0  0  0  0  0  0  0  0  0  0  0  0
   41.7850   32.2150   39.1780 C   0  0  0  0  0  0  0  0  0  0  0  0
   42.2250   31.3910   38.1490 C   0  0  0  0  0  0  0  0  0  0  0  0
   41.7620   31.8930   36.9620 C   0  0  0  0  0  0  0  0  0  0  0  0
   41.0520   33.0140   37.3040 N   0  0  0  0  0  0  0  0  0  0  0  0
   41.0640   33.2050   38.6230 N   0  0  0  0  0  0  0  0  0  0  0  0
   42.8290   30.5040   38.2560 H   0  0  0  0  0  0  0  0  0  0  0  0
   41.8860   31.5450   35.9420 H   0  0  0  0  0  0  0  0  0  0  0  0
   40.5610   33.6370   36.6160 H   0  0  0  0  0  0  0  0  0  0  0  0
  1  2  1  0  0  0  0
  1 26  1  0  0  0  0
  3  1  1  0  0  0  0
  4  5  1  0  0  0  0
  5  6  2  0  0  0  0
  5  1  1  0  0  0  0
  6 10  1  0  0  0  0
  7 11  1  0  0  0  0
  7  6  1  0  0  0  0
  8  7  2  0  0  0  0
  9  4  2  0  0  0  0
  9  8  1  0  0  0  0
 12  8  1  0  0  0  0
 13  9  1  0  0  0  0
 14 15  2  0  0  0  0
 14  4  1  0  0  0  0
 16 14  2  0  0  0  0
 18 17  2  0  0  0  0
 19 18  1  0  0  0  0
 19 14  1  1  0  0  0
 19 20  1  0  0  0  0
 20 21  1  0  0  0  0
 22 23  1  0  0  0  0
 22 20  1  0  0  0  0
 24 18  1  0  0  0  0
 24 22  1  0  0  0  0
 25 24  1  0  0  0  0
 26 27  1  0  0  0  0
 26 28  1  0  0  0  0
 29 35  1  0  0  0  0
 29 30  1  0  0  0  0
 30 26  1  0  0  0  0
 31 36  1  0  0  0  0
 31 30  2  0  0  0  0
 32 31  1  0  0  0  0
 33 34  1  0  0  0  0
 33 32  2  0  0  0  0
 34 29  2  0  0  0  0
 37 39  1  0  0  0  0
 37 38  1  0  0  0  0
 37 33  1  0  0  0  0
 40 37  1  0  0  0  0
 41 45  1  0  0  0  0
 41 40  1  0  0  0  0
 42 43  1  0  0  0  0
 42 41  2  0  0  0  0
 43 44  1  0  0  0  0
 44 40  2  0  0  0  0
 46 42  1  0  0  0  0
 47 43  1  0  0  0  0
M  END
>  <minimizedAffinity>
-5.68750668

$$$$
