
 OpenBabel03242522413D

 47 50  0  0  1  0  0  0  0  0999 V2000
   46.7810   32.7750   44.2720 C   0  0  0  0  0  0  0  0  0  0  0  0
   47.7820   33.0410   44.6370 H   0  0  0  0  0  0  0  0  0  0  0  0
   46.7420   32.2980   43.3030 H   0  0  0  0  0  0  0  0  0  0  0  0
   46.3950   34.7890   42.9850 C   0  0  0  0  0  0  0  0  0  0  0  0
   46.0780   34.0580   44.1060 C   0  0  0  0  0  0  0  0  0  0  0  0
   45.1870   34.4130   45.0430 C   0  0  0  0  0  0  0  0  0  0  0  0
   44.5270   35.6010   44.8930 C   0  0  0  0  0  0  0  0  0  0  0  0
   44.7550   36.4100   43.8270 C   0  0  0  0  0  0  0  0  0  0  0  0
   45.6850   35.9760   42.9020 C   0  0  0  0  0  0  0  0  0  0  0  0
   44.8680   33.9180   45.9170 H   0  0  0  0  0  0  0  0  0  0  0  0
   43.7840   36.0040   45.5840 H   0  0  0  0  0  0  0  0  0  0  0  0
   44.2590   37.3590   43.6600 H   0  0  0  0  0  0  0  0  0  0  0  0
   45.8590   36.6440   42.0380 H   0  0  0  0  0  0  0  0  0  0  0  0
   47.5810   34.4880   41.7950 S   0  0  0  0  0  0  0  0  0  0  0  0
   48.4670   35.6590   41.4930 O   0  0  0  0  0  0  0  0  0  0  0  0
   46.7850   34.2760   40.4720 O   0  0  0  0  0  0  0  0  0  0  0  0
   50.9140   33.9090   42.5400 O   0  0  0  0  0  0  0  0  0  0  0  0
   49.9920   33.2550   41.9890 C   0  0  0  0  0  0  0  0  0  0  0  0
   48.5440   33.1070   41.6820 C   0  0  2  0  0  3  0  0  0  0  0  0
   48.7290   32.8560   40.1750 C   0  0  0  0  0  3  0  0  0  0  0  0
   49.2150   33.6990   39.6680 H   0  0  0  0  0  0  0  0  0  0  0  0
   49.6360   31.6300   40.2560 C   0  0  0  0  0  3  0  0  0  0  0  0
   50.1340   31.4960   39.2990 H   0  0  0  0  0  0  0  0  0  0  0  0
   50.5330   32.0890   41.3290 N   0  0  0  0  0  0  0  0  0  0  0  0
   51.3910   31.4640   41.3920 H   0  0  0  0  0  0  0  0  0  0  0  0
   46.1100   31.7780   45.1630 C   0  0  0  0  0  0  0  0  0  0  0  0
   45.9540   30.7660   44.7000 H   0  0  0  0  0  0  0  0  0  0  0  0
   45.0620   32.0400   45.4520 H   0  0  0  0  0  0  0  0  0  0  0  0
   47.0610   32.5120   47.3200 C   0  0  0  0  0  0  0  0  0  0  0  0
   46.9850   31.5330   46.3040 C   0  0  0  0  0  0  0  0  0  0  0  0
   47.7250   30.3780   46.4690 C   0  0  0  0  0  0  0  0  0  0  0  0
   48.4740   30.2470   47.5870 N   0  0  0  0  0  0  0  0  0  0  0  0
   48.5240   31.1840   48.5280 C   0  0  0  0  0  0  0  0  0  0  0  0
   47.8200   32.3350   48.4150 N   0  0  0  0  0  0  0  0  0  0  0  0
   46.5860   33.4720   47.3970 H   0  0  0  0  0  0  0  0  0  0  0  0
   47.6670   29.6340   45.6950 H   0  0  0  0  0  0  0  0  0  0  0  0
   49.3770   30.9410   49.7400 C   0  0  0  0  0  0  0  0  0  0  0  0
   48.7930   31.3560   50.6100 H   0  0  0  0  0  0  0  0  0  0  0  0
   49.4710   29.8450   49.9250 H   0  0  0  0  0  0  0  0  0  0  0  0
   50.6650   31.6200   49.6900 C   0  0  0  0  0  0  0  0  0  0  0  0
   51.8410   31.0760   49.1880 C   0  0  0  0  0  0  0  0  0  0  0  0
   52.8370   32.0080   49.3070 C   0  0  0  0  0  0  0  0  0  0  0  0
   52.2360   33.0970   49.8820 N   0  0  0  0  0  0  0  0  0  0  0  0
   50.9430   32.8680   50.1090 N   0  0  0  0  0  0  0  0  0  0  0  0
   51.9600   30.0890   48.7730 H   0  0  0  0  0  0  0  0  0  0  0  0
   53.8870   31.9710   49.0360 H   0  0  0  0  0  0  0  0  0  0  0  0
   52.7310   33.9950   50.1100 H   0  0  0  0  0  0  0  0  0  0  0  0
  1  2  1  0  0  0  0
  1 26  1  0  0  0  0
  3  1  1  0  0  0  0
  4  5  1  0  0  0  0
  5  1  1  0  0  0  0
  5  6  2  0  0  0  0
  6 10  1  0  0  0  0
  7  6  1  0  0  0  0
  7 11  1  0  0  0  0
  8  7  2  0  0  0  0
  9  4  2  0  0  0  0
  9  8  1  0  0  0  0
 12  8  1  0  0  0  0
 13  9  1  0  0  0  0
 14  4  1  0  0  0  0
 15 14  2  0  0  0  0
 16 14  2  0  0  0  0
 18 17  2  0  0  0  0
 19 14  1  6  0  0  0
 19 18  1  0  0  0  0
 20 22  1  0  0  0  0
 20 19  1  0  0  0  0
 21 20  1  0  0  0  0
 22 24  1  0  0  0  0
 23 22  1  0  0  0  0
 24 25  1  0  0  0  0
 24 18  1  0  0  0  0
 26 28  1  0  0  0  0
 26 30  1  0  0  0  0
 27 26  1  0  0  0  0
 29 35  1  0  0  0  0
 29 34  1  0  0  0  0
 30 31  1  0  0  0  0
 30 29  2  0  0  0  0
 31 32  2  0  0  0  0
 32 33  1  0  0  0  0
 33 37  1  0  0  0  0
 34 33  2  0  0  0  0
 36 31  1  0  0  0  0
 37 39  1  0  0  0  0
 37 38  1  0  0  0  0
 40 37  1  0  0  0  0
 40 44  2  0  0  0  0
 41 42  2  0  0  0  0
 41 40  1  0  0  0  0
 42 43  1  0  0  0  0
 43 44  1  0  0  0  0
 43 47  1  0  0  0  0
 45 41  1  0  0  0  0
 46 42  1  0  0  0  0
M  END
>  <minimizedAffinity>
-6.59155226

>  <minimizedRMSD>
0.843197346

$$$$
