
 OpenBabel03252509073D

 41 44  0  0  1  0  0  0  0  0999 V2000
   47.6050   31.8200   38.9120 C   0  0  0  0  0  0  0  0  0  0  0  0
   47.1600   33.1070   38.9390 C   0  0  0  0  0  0  0  0  0  0  0  0
   47.8080   34.0510   38.1660 C   0  0  0  0  0  0  0  0  0  0  0  0
   48.8830   33.6940   37.3850 C   0  0  0  0  0  0  0  0  0  0  0  0
   49.3520   32.3850   37.3430 C   0  0  0  0  0  0  0  0  0  0  0  0
   48.6930   31.4430   38.1250 C   0  0  0  0  0  0  0  0  0  0  0  0
   47.4860   35.0900   38.1600 H   0  0  0  0  0  0  0  0  0  0  0  0
   49.3710   34.4540   36.7920 H   0  0  0  0  0  0  0  0  0  0  0  0
   50.1930   32.0720   36.7390 H   0  0  0  0  0  0  0  0  0  0  0  0
   49.0490   30.4270   38.0980 H   0  0  0  0  0  0  0  0  0  0  0  0
   45.3750   35.3570   43.2100 Cl  0  0  0  0  0  0  0  0  0  0  0  0
   45.2030   34.5900   41.6590 C   0  0  0  0  0  0  0  0  0  0  0  0
   46.2810   34.1850   40.9590 C   0  0  0  0  0  0  0  0  0  0  0  0
   46.0340   33.5810   39.7310 C   0  0  0  0  0  0  0  0  0  0  0  0
   44.7650   33.4010   39.2440 C   0  0  0  0  0  0  0  0  0  0  0  0
   43.6930   33.8180   39.9690 C   0  0  0  0  0  0  0  0  0  0  0  0
   43.9230   34.4170   41.1870 C   0  0  0  0  0  0  0  0  0  0  0  0
   44.5880   32.9280   38.2800 H   0  0  0  0  0  0  0  0  0  0  0  0
   42.6610   33.7030   39.6350 H   0  0  0  0  0  0  0  0  0  0  0  0
   43.0560   34.7510   41.7700 H   0  0  0  0  0  0  0  0  0  0  0  0
   49.5790   35.7500   41.9140 C   0  0  0  0  0  0  0  0  0  0  0  0
   48.3030   35.5690   41.3750 C   0  0  0  0  0  0  0  0  0  0  0  0
   47.6000   34.3840   41.5070 C   0  0  0  0  0  0  0  0  0  0  0  0
   48.2430   33.4080   42.2010 N   0  0  0  0  0  0  0  0  0  0  0  0
   49.4710   33.5820   42.7190 C   0  0  0  0  0  0  0  0  0  0  0  0
   50.1280   34.7380   42.5770 N   0  0  0  0  0  0  0  0  0  0  0  0
   50.0510   36.7060   41.7620 H   0  0  0  0  0  0  0  0  0  0  0  0
   47.8140   36.3670   40.8240 H   0  0  0  0  0  0  0  0  0  0  0  0
   49.9920   32.8070   43.2760 H   0  0  0  0  0  0  0  0  0  0  0  0
   46.8420   30.6070   39.8110 S   0  0  0  0  0  0  0  0  0  0  0  0
   45.5070   30.2030   39.2240 O   0  0  0  0  0  0  0  0  0  0  0  0
   47.7380   29.3550   39.5660 O   0  0  0  0  0  0  0  0  0  0  0  0
   45.2540   28.2860   41.6530 O   0  0  0  0  0  0  0  0  0  0  0  0
   45.9550   29.2630   42.0240 C   0  0  0  0  0  0  0  0  0  0  0  0
   46.6080   30.5130   41.4660 C   0  0  1  0  0  3  0  0  0  0  0  0
   47.9980   30.0280   42.0320 C   0  0  0  0  0  3  0  0  0  0  0  0
   48.7550   30.7870   41.7910 H   0  0  0  0  0  0  0  0  0  0  0  0
   47.6590   29.9510   43.4930 C   0  0  0  0  0  3  0  0  0  0  0  0
   48.3650   29.3060   44.0470 H   0  0  0  0  0  0  0  0  0  0  0  0
   46.3250   29.3300   43.4190 N   0  0  0  0  0  0  0  0  0  0  0  0
   45.8590   29.0420   44.3240 H   0  0  0  0  0  0  0  0  0  0  0  0
  1  2  1  0  0  0  0
  1 30  1  0  0  0  0
  2 14  1  0  0  0  0
  3  2  2  0  0  0  0
  4  3  1  0  0  0  0
  5  4  2  0  0  0  0
  5  6  1  0  0  0  0
  6  1  2  0  0  0  0
  7  3  1  0  0  0  0
  8  4  1  0  0  0  0
  9  5  1  0  0  0  0
 10  6  1  0  0  0  0
 12 11  1  0  0  0  0
 13 23  1  0  0  0  0
 13 12  2  0  0  0  0
 14 13  1  0  0  0  0
 15 14  2  0  0  0  0
 15 16  1  0  0  0  0
 16 17  2  0  0  0  0
 17 12  1  0  0  0  0
 17 20  1  0  0  0  0
 18 15  1  0  0  0  0
 19 16  1  0  0  0  0
 21 26  1  0  0  0  0
 22 23  1  0  0  0  0
 22 21  2  0  0  0  0
 23 24  2  0  0  0  0
 24 25  1  0  0  0  0
 25 29  1  0  0  0  0
 26 25  2  0  0  0  0
 27 21  1  0  0  0  0
 28 22  1  0  0  0  0
 31 30  2  0  0  0  0
 32 30  2  0  0  0  0
 33 34  2  0  0  0  0
 34 40  1  0  0  0  0
 35 30  1  6  0  0  0
 35 34  1  0  0  0  0
 35 36  1  0  0  0  0
 36 38  1  0  0  0  0
 37 36  1  0  0  0  0
 38 39  1  0  0  0  0
 40 38  1  0  0  0  0
 40 41  1  0  0  0  0
M  END
>  <minimizedAffinity>
-4.55812359

>  <minimizedRMSD>
1.64864326

$$$$
