
 OpenBabel03252509073D

 41 44  0  0  1  0  0  0  0  0999 V2000
   47.5980   31.8180   38.9230 C   0  0  0  0  0  0  0  0  0  0  0  0
   47.1540   33.1060   38.9450 C   0  0  0  0  0  0  0  0  0  0  0  0
   47.8040   34.0460   38.1690 C   0  0  0  0  0  0  0  0  0  0  0  0
   48.8780   33.6850   37.3890 C   0  0  0  0  0  0  0  0  0  0  0  0
   49.3450   32.3750   37.3520 C   0  0  0  0  0  0  0  0  0  0  0  0
   48.6850   31.4370   38.1370 C   0  0  0  0  0  0  0  0  0  0  0  0
   47.4830   35.0860   38.1580 H   0  0  0  0  0  0  0  0  0  0  0  0
   49.3670   34.4420   36.7940 H   0  0  0  0  0  0  0  0  0  0  0  0
   50.1860   32.0590   36.7490 H   0  0  0  0  0  0  0  0  0  0  0  0
   49.0390   30.4200   38.1140 H   0  0  0  0  0  0  0  0  0  0  0  0
   45.3710   35.3720   43.2090 Cl  0  0  0  0  0  0  0  0  0  0  0  0
   45.1980   34.6010   41.6600 C   0  0  0  0  0  0  0  0  0  0  0  0
   46.2760   34.1910   40.9610 C   0  0  0  0  0  0  0  0  0  0  0  0
   46.0280   33.5840   39.7340 C   0  0  0  0  0  0  0  0  0  0  0  0
   44.7590   33.4070   39.2470 C   0  0  0  0  0  0  0  0  0  0  0  0
   43.6880   33.8280   39.9700 C   0  0  0  0  0  0  0  0  0  0  0  0
   43.9180   34.4290   41.1870 C   0  0  0  0  0  0  0  0  0  0  0  0
   44.5820   32.9310   38.2850 H   0  0  0  0  0  0  0  0  0  0  0  0
   42.6560   33.7130   39.6360 H   0  0  0  0  0  0  0  0  0  0  0  0
   43.0520   34.7670   41.7680 H   0  0  0  0  0  0  0  0  0  0  0  0
   49.5780   35.7520   41.9120 C   0  0  0  0  0  0  0  0  0  0  0  0
   48.3020   35.5720   41.3730 C   0  0  0  0  0  0  0  0  0  0  0  0
   47.5950   34.3890   41.5090 C   0  0  0  0  0  0  0  0  0  0  0  0
   48.2350   33.4150   42.2080 N   0  0  0  0  0  0  0  0  0  0  0  0
   49.4630   33.5880   42.7270 C   0  0  0  0  0  0  0  0  0  0  0  0
   50.1230   34.7410   42.5800 N   0  0  0  0  0  0  0  0  0  0  0  0
   50.0520   36.7060   41.7560 H   0  0  0  0  0  0  0  0  0  0  0  0
   47.8150   36.3690   40.8180 H   0  0  0  0  0  0  0  0  0  0  0  0
   49.9810   32.8140   43.2880 H   0  0  0  0  0  0  0  0  0  0  0  0
   46.8320   30.6100   39.8260 S   0  0  0  0  0  0  0  0  0  0  0  0
   45.4950   30.2090   39.2430 O   0  0  0  0  0  0  0  0  0  0  0  0
   47.7240   29.3550   39.5830 O   0  0  0  0  0  0  0  0  0  0  0  0
   45.2480   28.2950   41.6800 O   0  0  0  0  0  0  0  0  0  0  0  0
   45.9490   29.2720   42.0440 C   0  0  0  0  0  0  0  0  0  0  0  0
   46.6010   30.5200   41.4820 C   0  0  1  0  0  3  0  0  0  0  0  0
   47.9910   30.0380   42.0460 C   0  0  0  0  0  3  0  0  0  0  0  0
   48.7490   30.7960   41.8010 H   0  0  0  0  0  0  0  0  0  0  0  0
   47.6560   29.9650   43.5080 C   0  0  0  0  0  3  0  0  0  0  0  0
   48.3630   29.3230   44.0630 H   0  0  0  0  0  0  0  0  0  0  0  0
   46.3230   29.3450   43.4400 N   0  0  0  0  0  0  0  0  0  0  0  0
   45.8580   29.0590   44.3460 H   0  0  0  0  0  0  0  0  0  0  0  0
  1  2  1  0  0  0  0
  1 30  1  0  0  0  0
  2 14  1  0  0  0  0
  3  2  2  0  0  0  0
  4  3  1  0  0  0  0
  5  4  2  0  0  0  0
  5  6  1  0  0  0  0
  6  1  2  0  0  0  0
  7  3  1  0  0  0  0
  8  4  1  0  0  0  0
  9  5  1  0  0  0  0
 10  6  1  0  0  0  0
 12 11  1  0  0  0  0
 13 23  1  0  0  0  0
 13 12  2  0  0  0  0
 14 13  1  0  0  0  0
 15 14  2  0  0  0  0
 15 16  1  0  0  0  0
 16 17  2  0  0  0  0
 17 12  1  0  0  0  0
 17 20  1  0  0  0  0
 18 15  1  0  0  0  0
 19 16  1  0  0  0  0
 21 26  1  0  0  0  0
 22 23  1  0  0  0  0
 22 21  2  0  0  0  0
 23 24  2  0  0  0  0
 24 25  1  0  0  0  0
 25 29  1  0  0  0  0
 26 25  2  0  0  0  0
 27 21  1  0  0  0  0
 28 22  1  0  0  0  0
 31 30  2  0  0  0  0
 32 30  2  0  0  0  0
 33 34  2  0  0  0  0
 34 40  1  0  0  0  0
 35 30  1  6  0  0  0
 35 34  1  0  0  0  0
 35 36  1  0  0  0  0
 36 38  1  0  0  0  0
 37 36  1  0  0  0  0
 38 39  1  0  0  0  0
 40 38  1  0  0  0  0
 40 41  1  0  0  0  0
M  END
>  <minimizedAffinity>
-4.55988407

>  <minimizedRMSD>
1.06560636

$$$$
