
 OpenBabel03252509073D

 41 44  0  0  1  0  0  0  0  0999 V2000
   48.0410   32.3600   40.8370 C   0  0  0  0  0  0  0  0  0  0  0  0
   47.4020   33.4810   40.3970 C   0  0  0  0  0  0  0  0  0  0  0  0
   47.7270   33.9870   39.1540 C   0  0  0  0  0  0  0  0  0  0  0  0
   48.6790   33.3680   38.3760 C   0  0  0  0  0  0  0  0  0  0  0  0
   49.3410   32.2230   38.8060 C   0  0  0  0  0  0  0  0  0  0  0  0
   49.0070   31.7220   40.0590 C   0  0  0  0  0  0  0  0  0  0  0  0
   47.2420   34.8800   38.7660 H   0  0  0  0  0  0  0  0  0  0  0  0
   48.9130   33.7880   37.4090 H   0  0  0  0  0  0  0  0  0  0  0  0
   50.0920   31.7130   38.2190 H   0  0  0  0  0  0  0  0  0  0  0  0
   49.5140   30.8350   40.4000 H   0  0  0  0  0  0  0  0  0  0  0  0
   42.4320   34.4350   41.3400 Cl  0  0  0  0  0  0  0  0  0  0  0  0
   44.1400   34.6560   41.5830 C   0  0  0  0  0  0  0  0  0  0  0  0
   45.0420   33.9490   40.8750 C   0  0  0  0  0  0  0  0  0  0  0  0
   46.3830   34.2040   41.1450 C   0  0  0  0  0  0  0  0  0  0  0  0
   46.7810   35.1230   42.0810 C   0  0  0  0  0  0  0  0  0  0  0  0
   45.8520   35.8250   42.7820 C   0  0  0  0  0  0  0  0  0  0  0  0
   44.5220   35.5840   42.5250 C   0  0  0  0  0  0  0  0  0  0  0  0
   47.8340   35.3100   42.2820 H   0  0  0  0  0  0  0  0  0  0  0  0
   46.1060   36.5690   43.5380 H   0  0  0  0  0  0  0  0  0  0  0  0
   43.7740   36.1520   43.0920 H   0  0  0  0  0  0  0  0  0  0  0  0
   43.9590   30.7390   39.2120 C   0  0  0  0  0  0  0  0  0  0  0  0
   44.4060   31.6520   40.1710 C   0  0  0  0  0  0  0  0  0  0  0  0
   44.5870   32.9960   39.8930 C   0  0  0  0  0  0  0  0  0  0  0  0
   44.2970   33.3630   38.6170 N   0  0  0  0  0  0  0  0  0  0  0  0
   43.8670   32.4850   37.6940 C   0  0  0  0  0  0  0  0  0  0  0  0
   43.7020   31.1920   37.9900 N   0  0  0  0  0  0  0  0  0  0  0  0
   43.8480   29.7120   39.5180 H   0  0  0  0  0  0  0  0  0  0  0  0
   44.6300   31.3290   41.1840 H   0  0  0  0  0  0  0  0  0  0  0  0
   43.6330   32.7710   36.6720 H   0  0  0  0  0  0  0  0  0  0  0  0
   47.6710   31.6690   42.3360 S   0  0  0  0  0  0  0  0  0  0  0  0
   46.8860   30.3840   42.2050 O   0  0  0  0  0  0  0  0  0  0  0  0
   49.0580   31.1940   42.8680 O   0  0  0  0  0  0  0  0  0  0  0  0
   44.5180   31.7500   43.4990 O   0  0  0  0  0  0  0  0  0  0  0  0
   45.5820   32.1490   44.0370 C   0  0  0  0  0  0  0  0  0  0  0  0
   47.0400   32.4000   43.7040 C   0  0  1  0  0  3  0  0  0  0  0  0
   47.4640   31.4500   44.8880 C   0  0  0  0  0  3  0  0  0  0  0  0
   48.5620   31.4230   44.9360 H   0  0  0  0  0  0  0  0  0  0  0  0
   46.8250   32.1790   46.0350 C   0  0  0  0  0  3  0  0  0  0  0  0
   46.6900   31.5270   46.9160 H   0  0  0  0  0  0  0  0  0  0  0  0
   45.5260   32.5250   45.4320 N   0  0  0  0  0  0  0  0  0  0  0  0
   44.7900   32.9650   46.0510 H   0  0  0  0  0  0  0  0  0  0  0  0
  1 30  1  0  0  0  0
  2  1  1  0  0  0  0
  2 14  1  0  0  0  0
  3  2  2  0  0  0  0
  4  5  2  0  0  0  0
  4  3  1  0  0  0  0
  5  6  1  0  0  0  0
  6 10  1  0  0  0  0
  6  1  2  0  0  0  0
  7  3  1  0  0  0  0
  8  4  1  0  0  0  0
  9  5  1  0  0  0  0
 11 12  1  0  0  0  0
 12 17  1  0  0  0  0
 13 14  1  0  0  0  0
 13 12  2  0  0  0  0
 14 15  2  0  0  0  0
 15 18  1  0  0  0  0
 15 16  1  0  0  0  0
 16 19  1  0  0  0  0
 17 16  2  0  0  0  0
 17 20  1  0  0  0  0
 21 27  1  0  0  0  0
 21 22  1  0  0  0  0
 22 28  1  0  0  0  0
 23 22  2  0  0  0  0
 23 13  1  0  0  0  0
 24 23  1  0  0  0  0
 25 26  1  0  0  0  0
 25 24  2  0  0  0  0
 26 21  2  0  0  0  0
 29 25  1  0  0  0  0
 30 32  2  0  0  0  0
 31 30  2  0  0  0  0
 33 34  2  0  0  0  0
 34 40  1  0  0  0  0
 35 30  1  6  0  0  0
 35 34  1  0  0  0  0
 35 36  1  0  0  0  0
 36 37  1  0  0  0  0
 36 38  1  0  0  0  0
 38 39  1  0  0  0  0
 40 38  1  0  0  0  0
 40 41  1  0  0  0  0
M  END
>  <minimizedAffinity>
-4.93507433

>  <minimizedRMSD>
3.86003423

$$$$
