
 OpenBabel03252509073D

 41 44  0  0  1  0  0  0  0  0999 V2000
   47.7610   31.9610   39.0890 C   0  0  0  0  0  0  0  0  0  0  0  0
   47.1200   33.1400   38.8520 C   0  0  0  0  0  0  0  0  0  0  0  0
   47.5780   33.9520   37.8330 C   0  0  0  0  0  0  0  0  0  0  0  0
   48.6610   33.5740   37.0730 C   0  0  0  0  0  0  0  0  0  0  0  0
   49.3280   32.3740   37.2980 C   0  0  0  0  0  0  0  0  0  0  0  0
   48.8590   31.5640   38.3270 C   0  0  0  0  0  0  0  0  0  0  0  0
   47.0960   34.9020   37.6110 H   0  0  0  0  0  0  0  0  0  0  0  0
   48.9970   34.2310   36.2840 H   0  0  0  0  0  0  0  0  0  0  0  0
   50.1800   32.0490   36.7180 H   0  0  0  0  0  0  0  0  0  0  0  0
   49.3690   30.6330   38.5080 H   0  0  0  0  0  0  0  0  0  0  0  0
   42.1960   34.6380   38.9340 Cl  0  0  0  0  0  0  0  0  0  0  0  0
   43.7430   34.3130   39.6580 C   0  0  0  0  0  0  0  0  0  0  0  0
   44.7740   33.8490   38.9230 C   0  0  0  0  0  0  0  0  0  0  0  0
   45.9680   33.6240   39.5990 C   0  0  0  0  0  0  0  0  0  0  0  0
   46.1050   33.8560   40.9440 C   0  0  0  0  0  0  0  0  0  0  0  0
   45.0520   34.3240   41.6640 C   0  0  0  0  0  0  0  0  0  0  0  0
   43.8640   34.5530   41.0070 C   0  0  0  0  0  0  0  0  0  0  0  0
   47.0470   33.6740   41.4590 H   0  0  0  0  0  0  0  0  0  0  0  0
   45.0990   34.5280   42.7340 H   0  0  0  0  0  0  0  0  0  0  0  0
   43.0160   34.9310   41.5910 H   0  0  0  0  0  0  0  0  0  0  0  0
   43.8690   32.2620   35.6220 C   0  0  0  0  0  0  0  0  0  0  0  0
   44.0410   32.4660   36.9930 C   0  0  0  0  0  0  0  0  0  0  0  0
   44.5940   33.6240   37.5100 C   0  0  0  0  0  0  0  0  0  0  0  0
   44.9580   34.5510   36.5850 N   0  0  0  0  0  0  0  0  0  0  0  0
   44.7930   34.3540   35.2650 C   0  0  0  0  0  0  0  0  0  0  0  0
   44.2550   33.2250   34.7920 N   0  0  0  0  0  0  0  0  0  0  0  0
   43.4290   31.3290   35.3100 H   0  0  0  0  0  0  0  0  0  0  0  0
   43.7410   31.7060   37.7100 H   0  0  0  0  0  0  0  0  0  0  0  0
   45.0810   35.0900   34.5190 H   0  0  0  0  0  0  0  0  0  0  0  0
   47.2370   30.9040   40.3020 S   0  0  0  0  0  0  0  0  0  0  0  0
   47.0010   31.6050   41.6210 O   0  0  0  0  0  0  0  0  0  0  0  0
   45.8020   30.5060   39.8410 O   0  0  0  0  0  0  0  0  0  0  0  0
   49.1270   28.7440   38.5520 O   0  0  0  0  0  0  0  0  0  0  0  0
   48.7940   28.7190   39.7640 C   0  0  0  0  0  0  0  0  0  0  0  0
   47.8580   29.4100   40.7360 C   0  0  1  0  0  3  0  0  0  0  0  0
   49.0840   29.7500   41.6640 C   0  0  0  0  0  3  0  0  0  0  0  0
   48.7150   30.2860   42.5500 H   0  0  0  0  0  0  0  0  0  0  0  0
   49.5690   28.3590   41.9570 C   0  0  0  0  0  3  0  0  0  0  0  0
   50.6180   28.3500   42.3030 H   0  0  0  0  0  0  0  0  0  0  0  0
   49.4500   27.7550   40.6190 N   0  0  0  0  0  0  0  0  0  0  0  0
   49.8310   26.7770   40.4770 H   0  0  0  0  0  0  0  0  0  0  0  0
  1 30  1  0  0  0  0
  2  1  1  0  0  0  0
  2 14  1  0  0  0  0
  3  2  2  0  0  0  0
  4  5  2  0  0  0  0
  4  3  1  0  0  0  0
  5  6  1  0  0  0  0
  6 10  1  0  0  0  0
  6  1  2  0  0  0  0
  7  3  1  0  0  0  0
  8  4  1  0  0  0  0
  9  5  1  0  0  0  0
 11 12  1  0  0  0  0
 12 17  1  0  0  0  0
 13 14  1  0  0  0  0
 13 12  2  0  0  0  0
 14 15  2  0  0  0  0
 15 18  1  0  0  0  0
 15 16  1  0  0  0  0
 16 19  1  0  0  0  0
 17 20  1  0  0  0  0
 17 16  2  0  0  0  0
 21 22  1  0  0  0  0
 22 23  2  0  0  0  0
 22 28  1  0  0  0  0
 23 13  1  0  0  0  0
 24 23  1  0  0  0  0
 25 24  2  0  0  0  0
 26 25  1  0  0  0  0
 26 21  2  0  0  0  0
 27 21  1  0  0  0  0
 29 25  1  0  0  0  0
 30 31  2  0  0  0  0
 32 30  2  0  0  0  0
 33 34  2  0  0  0  0
 34 40  1  0  0  0  0
 34 35  1  0  0  0  0
 35 30  1  6  0  0  0
 35 36  1  0  0  0  0
 36 38  1  0  0  0  0
 36 37  1  0  0  0  0
 38 39  1  0  0  0  0
 40 38  1  0  0  0  0
 41 40  1  0  0  0  0
M  END
>  <minimizedAffinity>
3.96838951

>  <minimizedRMSD>
4.57506514

$$$$
