REMARK  Name = 
REMARK  4 active torsions:
REMARK  status: ('A' for Active; 'I' for Inactive)
REMARK    1  A    between atoms: C_2  and  N_12
REMARK    2  A    between atoms: C_11  and  S_13
REMARK    3  A    between atoms: S_13  and  C_16
REMARK    4  A    between atoms: N_19  and  C_38
REMARK                            x       y       z     vdW  Elec       q    Type
REMARK                         _______ _______ _______ _____ _____    ______ ____
ROOT
ATOM      1  C   UNL     1      44.503  35.535  45.121  0.00  0.00    +0.000 A 
ATOM      2  C   UNL     1      45.167  35.508  43.876  0.00  0.00    +0.000 A 
ATOM      3  C   UNL     1      46.088  34.541  43.640  0.00  0.00    +0.000 A 
ATOM      4  N   UNL     1      46.312  33.649  44.634  0.00  0.00    +0.000 NA
ATOM      5  C   UNL     1      45.686  33.679  45.801  0.00  0.00    +0.000 A 
ATOM      6  N   UNL     1      44.777  34.616  46.063  0.00  0.00    +0.000 NA
ATOM      7  N   UNL     1      46.009  32.680  46.785  0.00  0.00    +0.000 N 
ATOM      8  C   UNL     1      45.263  32.449  47.969  0.00  0.00    +0.000 C 
ATOM      9  C   UNL     1      46.334  32.115  48.993  0.00  0.00    +0.000 C 
ATOM     10  C   UNL     1      47.618  32.008  48.235  0.00  0.00    +0.000 C 
ATOM     11  C   UNL     1      47.133  31.773  46.804  0.00  0.00    +0.000 C 
ATOM     12  H   UNL     1      43.774  36.299  45.310  0.00  0.00    +0.000 HD
ATOM     13  H   UNL     1      46.601  34.503  42.707  0.00  0.00    +0.000 HD
ATOM     14  H   UNL     1      44.437  31.822  48.061  0.00  0.00    +0.000 HD
ATOM     15  H   UNL     1      44.906  33.474  48.312  0.00  0.00    +0.000 HD
ATOM     16  H   UNL     1      46.340  32.749  49.874  0.00  0.00    +0.000 HD
ATOM     17  H   UNL     1      46.113  31.073  49.370  0.00  0.00    +0.000 HD
ATOM     18  H   UNL     1      48.204  31.129  48.527  0.00  0.00    +0.000 HD
ATOM     19  H   UNL     1      48.167  32.971  48.301  0.00  0.00    +0.000 HD
ATOM     20  H   UNL     1      47.924  32.088  46.108  0.00  0.00    +0.000 HD
ENDROOT
BRANCH   2  21
ATOM     21  N   UNL     1      44.817  36.526  42.925  0.00  0.00    +0.000 N 
ATOM     22  H   UNL     1      43.833  36.860  42.871  0.00  0.00    +0.000 HD
ATOM     23  H   UNL     1      45.553  36.926  42.291  0.00  0.00    +0.000 HD
ENDBRANCH   2  21
BRANCH  11  24
ATOM     24  S   UNL     1      46.627  30.077  46.639  0.00  0.00    +0.000 S 
BRANCH  24  27
ATOM     25  O   UNL     1      45.610  30.509  43.489  0.00  0.00    +0.000 OA
ATOM     26  C   UNL     1      44.978  29.987  44.421  0.00  0.00    +0.000 C 
ATOM     27  C   UNL     1      45.078  29.781  45.889  0.00  0.00    +0.000 C 
ATOM     28  C   UNL     1      44.542  28.379  46.032  0.00  0.00    +0.000 C 
ATOM     29  C   UNL     1      43.225  28.582  45.275  0.00  0.00    +0.000 C 
ATOM     30  N   UNL     1      43.727  29.334  44.131  0.00  0.00    +0.000 N 
ATOM     31  H   UNL     1      44.196  30.381  46.236  0.00  0.00    +0.000 HD
ATOM     32  H   UNL     1      44.373  28.119  47.090  0.00  0.00    +0.000 HD
ATOM     33  H   UNL     1      45.155  27.637  45.489  0.00  0.00    +0.000 HD
ATOM     34  H   UNL     1      42.511  29.155  45.887  0.00  0.00    +0.000 HD
ATOM     35  H   UNL     1      42.840  27.592  44.956  0.00  0.00    +0.000 HD
BRANCH  30  38
ATOM     36  O   UNL     1      44.221  30.690  41.263  0.00  0.00    +0.000 OA
ATOM     37  C   UNL     1      43.768  29.605  41.700  0.00  0.00    +0.000 C 
ATOM     38  C   UNL     1      42.952  29.345  42.888  0.00  0.00    +0.000 C 
ATOM     39  C   UNL     1      42.358  27.953  42.656  0.00  0.00    +0.000 C 
ATOM     40  H   UNL     1      42.329  27.379  43.617  0.00  0.00    +0.000 HD
ATOM     41  C   UNL     1      43.235  27.298  41.634  0.00  0.00    +0.000 C 
ATOM     42  H   UNL     1      43.900  26.593  42.178  0.00  0.00    +0.000 HD
ATOM     43  N   UNL     1      44.018  28.381  41.028  0.00  0.00    +0.000 N 
ATOM     44  H   UNL     1      44.640  28.124  40.207  0.00  0.00    +0.000 HD
ENDBRANCH  30  38
ENDBRANCH  24  27
ENDBRANCH  11  24
TORSDOF 4
