
 OpenBabel03252509073D

 41 44  0  0  1  0  0  0  0  0999 V2000
   47.6170   31.7400   39.1580 C   0  0  0  0  0  0  0  0  0  0  0  0
   47.1490   33.0140   39.0390 C   0  0  0  0  0  0  0  0  0  0  0  0
   47.7750   33.8730   38.1570 C   0  0  0  0  0  0  0  0  0  0  0  0
   48.8500   33.4460   37.4130 C   0  0  0  0  0  0  0  0  0  0  0  0
   49.3430   32.1490   37.5190 C   0  0  0  0  0  0  0  0  0  0  0  0
   48.7060   31.2930   38.4100 C   0  0  0  0  0  0  0  0  0  0  0  0
   47.4340   34.8990   38.0320 H   0  0  0  0  0  0  0  0  0  0  0  0
   49.3210   34.1410   36.7320 H   0  0  0  0  0  0  0  0  0  0  0  0
   50.1850   31.7830   36.9480 H   0  0  0  0  0  0  0  0  0  0  0  0
   49.0790   30.2870   38.4980 H   0  0  0  0  0  0  0  0  0  0  0  0
   45.3370   35.5440   43.1400 Cl  0  0  0  0  0  0  0  0  0  0  0  0
   45.1760   34.6940   41.6310 C   0  0  0  0  0  0  0  0  0  0  0  0
   46.2570   34.2250   40.9770 C   0  0  0  0  0  0  0  0  0  0  0  0
   46.0190   33.5570   39.7800 C   0  0  0  0  0  0  0  0  0  0  0  0
   44.7550   33.3790   39.2790 C   0  0  0  0  0  0  0  0  0  0  0  0
   43.6810   33.8600   39.9570 C   0  0  0  0  0  0  0  0  0  0  0  0
   43.9020   34.5220   41.1440 C   0  0  0  0  0  0  0  0  0  0  0  0
   44.5860   32.8550   38.3400 H   0  0  0  0  0  0  0  0  0  0  0  0
   42.6530   33.7490   39.6110 H   0  0  0  0  0  0  0  0  0  0  0  0
   43.0320   34.9080   41.6890 H   0  0  0  0  0  0  0  0  0  0  0  0
   49.5770   35.7640   41.8980 C   0  0  0  0  0  0  0  0  0  0  0  0
   48.3080   35.5810   41.3450 C   0  0  0  0  0  0  0  0  0  0  0  0
   47.5710   34.4250   41.5390 C   0  0  0  0  0  0  0  0  0  0  0  0
   48.1730   33.4810   42.3080 N   0  0  0  0  0  0  0  0  0  0  0  0
   49.3950   33.6580   42.8400 C   0  0  0  0  0  0  0  0  0  0  0  0
   50.0850   34.7840   42.6370 N   0  0  0  0  0  0  0  0  0  0  0  0
   50.0770   36.6970   41.6950 H   0  0  0  0  0  0  0  0  0  0  0  0
   47.8510   36.3540   40.7330 H   0  0  0  0  0  0  0  0  0  0  0  0
   49.8840   32.9070   43.4570 H   0  0  0  0  0  0  0  0  0  0  0  0
   46.8810   30.6270   40.1970 S   0  0  0  0  0  0  0  0  0  0  0  0
   45.5530   30.1310   39.6700 O   0  0  0  0  0  0  0  0  0  0  0  0
   47.8020   29.3730   40.0970 O   0  0  0  0  0  0  0  0  0  0  0  0
   44.0770   31.1310   41.9850 O   0  0  0  0  0  0  0  0  0  0  0  0
   45.2360   30.8320   42.3750 C   0  0  0  0  0  0  0  0  0  0  0  0
   46.6550   30.7240   41.8540 C   0  0  1  0  0  3  0  0  0  0  0  0
   46.7150   29.2290   42.3480 C   0  0  0  0  0  3  0  0  0  0  0  0
   47.7110   28.8250   42.1170 H   0  0  0  0  0  0  0  0  0  0  0  0
   46.4720   29.4400   43.8150 C   0  0  0  0  0  3  0  0  0  0  0  0
   46.1260   28.5190   44.3140 H   0  0  0  0  0  0  0  0  0  0  0  0
   45.3960   30.4450   43.7580 N   0  0  0  0  0  0  0  0  0  0  0  0
   44.9250   30.7240   44.6650 H   0  0  0  0  0  0  0  0  0  0  0  0
  1 30  1  0  0  0  0
  2  1  1  0  0  0  0
  2 14  1  0  0  0  0
  3  2  2  0  0  0  0
  4  5  2  0  0  0  0
  4  3  1  0  0  0  0
  5  6  1  0  0  0  0
  6 10  1  0  0  0  0
  6  1  2  0  0  0  0
  7  3  1  0  0  0  0
  8  4  1  0  0  0  0
  9  5  1  0  0  0  0
 12 11  1  0  0  0  0
 13 23  1  0  0  0  0
 13 12  2  0  0  0  0
 14 13  1  0  0  0  0
 15 14  2  0  0  0  0
 15 16  1  0  0  0  0
 16 17  2  0  0  0  0
 17 12  1  0  0  0  0
 17 20  1  0  0  0  0
 18 15  1  0  0  0  0
 19 16  1  0  0  0  0
 21 26  1  0  0  0  0
 22 23  1  0  0  0  0
 22 21  2  0  0  0  0
 23 24  2  0  0  0  0
 24 25  1  0  0  0  0
 25 29  1  0  0  0  0
 26 25  2  0  0  0  0
 27 21  1  0  0  0  0
 28 22  1  0  0  0  0
 31 30  2  0  0  0  0
 32 30  2  0  0  0  0
 33 34  2  0  0  0  0
 34 40  1  0  0  0  0
 35 30  1  6  0  0  0
 35 36  1  0  0  0  0
 35 34  1  0  0  0  0
 36 38  1  0  0  0  0
 37 36  1  0  0  0  0
 38 39  1  0  0  0  0
 40 38  1  0  0  0  0
 40 41  1  0  0  0  0
M  END
>  <minimizedAffinity>
-4.63972092

>  <minimizedRMSD>
0.828771114

$$$$
