
 OpenBabel03252509073D

 41 44  0  0  1  0  0  0  0  0999 V2000
   47.5780   31.7950   39.0510 C   0  0  0  0  0  0  0  0  0  0  0  0
   47.1340   33.0820   38.9930 C   0  0  0  0  0  0  0  0  0  0  0  0
   47.7830   33.9730   38.1610 C   0  0  0  0  0  0  0  0  0  0  0  0
   48.8580   33.5650   37.4060 C   0  0  0  0  0  0  0  0  0  0  0  0
   49.3260   32.2560   37.4500 C   0  0  0  0  0  0  0  0  0  0  0  0
   48.6650   31.3670   38.2900 C   0  0  0  0  0  0  0  0  0  0  0  0
   47.4610   35.0100   38.0870 H   0  0  0  0  0  0  0  0  0  0  0  0
   49.3470   34.2850   36.7650 H   0  0  0  0  0  0  0  0  0  0  0  0
   50.1670   31.9040   36.8670 H   0  0  0  0  0  0  0  0  0  0  0  0
   49.0200   30.3510   38.3300 H   0  0  0  0  0  0  0  0  0  0  0  0
   45.3370   35.4990   43.1680 Cl  0  0  0  0  0  0  0  0  0  0  0  0
   45.1710   34.6930   41.6360 C   0  0  0  0  0  0  0  0  0  0  0  0
   46.2500   34.2390   40.9670 C   0  0  0  0  0  0  0  0  0  0  0  0
   46.0070   33.6070   39.7520 C   0  0  0  0  0  0  0  0  0  0  0  0
   44.7420   33.4470   39.2480 C   0  0  0  0  0  0  0  0  0  0  0  0
   43.6700   33.9120   39.9420 C   0  0  0  0  0  0  0  0  0  0  0  0
   43.8950   34.5390   41.1460 C   0  0  0  0  0  0  0  0  0  0  0  0
   44.5690   32.9510   38.2950 H   0  0  0  0  0  0  0  0  0  0  0  0
   42.6410   33.8140   39.5940 H   0  0  0  0  0  0  0  0  0  0  0  0
   43.0280   34.9120   41.7040 H   0  0  0  0  0  0  0  0  0  0  0  0
   49.5790   35.7380   41.9180 C   0  0  0  0  0  0  0  0  0  0  0  0
   48.3080   35.5750   41.3620 C   0  0  0  0  0  0  0  0  0  0  0  0
   47.5640   34.4200   41.5310 C   0  0  0  0  0  0  0  0  0  0  0  0
   48.1610   33.4550   42.2800 N   0  0  0  0  0  0  0  0  0  0  0  0
   49.3850   33.6130   42.8150 C   0  0  0  0  0  0  0  0  0  0  0  0
   50.0820   34.7390   42.6360 N   0  0  0  0  0  0  0  0  0  0  0  0
   50.0850   36.6710   41.7340 H   0  0  0  0  0  0  0  0  0  0  0  0
   47.8560   36.3630   40.7670 H   0  0  0  0  0  0  0  0  0  0  0  0
   49.8690   32.8460   43.4150 H   0  0  0  0  0  0  0  0  0  0  0  0
   46.8120   30.6440   40.0260 S   0  0  0  0  0  0  0  0  0  0  0  0
   46.8560   29.2560   39.4280 O   0  0  0  0  0  0  0  0  0  0  0  0
   47.7520   30.5350   41.2650 O   0  0  0  0  0  0  0  0  0  0  0  0
   44.6660   28.1950   40.8610 O   0  0  0  0  0  0  0  0  0  0  0  0
   44.6300   29.4220   41.1360 C   0  0  0  0  0  0  0  0  0  0  0  0
   45.3140   30.7240   40.7700 C   0  0  1  0  0  3  0  0  0  0  0  0
   45.6420   30.9720   42.2900 C   0  0  0  0  0  3  0  0  0  0  0  0
   46.1700   31.9320   42.3830 H   0  0  0  0  0  0  0  0  0  0  0  0
   44.2470   30.9920   42.8460 C   0  0  0  0  0  3  0  0  0  0  0  0
   44.2330   30.8050   43.9360 H   0  0  0  0  0  0  0  0  0  0  0  0
   43.6570   29.8610   42.1110 N   0  0  0  0  0  0  0  0  0  0  0  0
   42.6800   29.5510   42.3740 H   0  0  0  0  0  0  0  0  0  0  0  0
  1 30  1  0  0  0  0
  2  1  1  0  0  0  0
  2 14  1  0  0  0  0
  3  2  2  0  0  0  0
  4  5  2  0  0  0  0
  4  3  1  0  0  0  0
  5  6  1  0  0  0  0
  6 10  1  0  0  0  0
  6  1  2  0  0  0  0
  7  3  1  0  0  0  0
  8  4  1  0  0  0  0
  9  5  1  0  0  0  0
 12 11  1  0  0  0  0
 13 23  1  0  0  0  0
 13 12  2  0  0  0  0
 14 13  1  0  0  0  0
 15 14  2  0  0  0  0
 15 16  1  0  0  0  0
 16 17  2  0  0  0  0
 17 12  1  0  0  0  0
 17 20  1  0  0  0  0
 18 15  1  0  0  0  0
 19 16  1  0  0  0  0
 21 26  1  0  0  0  0
 22 23  1  0  0  0  0
 22 21  2  0  0  0  0
 23 24  2  0  0  0  0
 24 25  1  0  0  0  0
 25 29  1  0  0  0  0
 26 25  2  0  0  0  0
 27 21  1  0  0  0  0
 28 22  1  0  0  0  0
 30 32  2  0  0  0  0
 31 30  2  0  0  0  0
 33 34  2  0  0  0  0
 34 40  1  0  0  0  0
 35 30  1  6  0  0  0
 35 34  1  0  0  0  0
 35 36  1  0  0  0  0
 36 37  1  0  0  0  0
 36 38  1  0  0  0  0
 38 39  1  0  0  0  0
 40 41  1  0  0  0  0
 40 38  1  0  0  0  0
M  END
>  <minimizedAffinity>
-4.60807323

>  <minimizedRMSD>
0.952620029

$$$$
