
 OpenBabel03252506213D

 35 37  0  0  1  0  0  0  0  0999 V2000
   45.0960   35.8900   42.9500 C   0  0  0  0  0  0  0  0  0  0  0  0
   44.0860   35.7100   41.9980 C   0  0  0  0  0  0  0  0  0  0  0  0
   44.2810   34.7290   41.0220 C   0  0  0  0  0  0  0  0  0  0  0  0
   45.4330   34.0050   41.0430 N   0  0  0  0  0  0  0  0  0  0  0  0
   46.3840   34.2130   41.9840 C   0  0  0  0  0  0  0  0  0  0  0  0
   46.2120   35.1560   42.9340 N   0  0  0  0  0  0  0  0  0  0  0  0
   43.1910   36.3190   42.0340 H   0  0  0  0  0  0  0  0  0  0  0  0
   43.5180   34.5600   40.2650 H   0  0  0  0  0  0  0  0  0  0  0  0
   48.8950   35.6680   41.1050 Cl  0  0  0  0  0  0  0  0  0  0  0  0
   48.7840   33.9910   41.5320 C   0  0  0  0  0  0  0  0  0  0  0  0
   47.6000   33.3810   41.9280 C   0  0  0  0  0  0  0  0  0  0  0  0
   47.4980   32.0650   42.2670 C   0  0  0  0  0  0  0  0  0  0  0  0
   48.6360   31.3130   42.2090 C   0  0  0  0  0  0  0  0  0  0  0  0
   49.8700   31.8110   41.8290 C   0  0  0  0  0  0  0  0  0  0  0  0
   49.8820   33.1540   41.5030 C   0  0  0  0  0  0  0  0  0  0  0  0
   46.5330   31.6650   42.5670 H   0  0  0  0  0  0  0  0  0  0  0  0
   48.5760   30.2620   42.4740 H   0  0  0  0  0  0  0  0  0  0  0  0
   50.7720   31.2230   41.7810 H   0  0  0  0  0  0  0  0  0  0  0  0
   50.8490   33.5670   41.2000 H   0  0  0  0  0  0  0  0  0  0  0  0
   44.9130   36.9240   43.9960 C   0  0  0  0  0  0  0  0  0  0  0  0
   45.4840   38.0990   43.8020 C   0  0  0  0  0  0  0  0  0  0  0  0
   45.2950   39.1490   44.8700 C   0  0  0  0  0  0  0  0  0  0  0  0
   44.5330   38.8260   45.6070 H   0  0  0  0  0  0  0  0  0  0  0  0
   46.2940   39.3290   45.2690 H   0  0  0  0  0  0  0  0  0  0  0  0
   44.7530   40.3180   44.1800 N   0  0  0  0  0  0  0  0  0  0  0  0
   43.7760   40.1790   43.9120 H   0  0  0  0  0  0  0  0  0  0  0  0
   44.6800   40.2880   47.0690 O   0  0  0  0  0  0  0  0  0  0  0  0
   44.3710   41.3080   46.3630 C   0  0  0  0  0  0  0  0  0  0  0  0
   44.9010   41.5080   44.9910 C   0  0  2  0  0  0  0  0  0  0  0  0
   44.0880   42.6770   44.4920 C   0  0  0  0  0  0  0  0  0  0  0  0
   44.7400   43.5900   44.5980 H   0  0  0  0  0  0  0  0  0  0  0  0
   42.9570   42.8670   45.4820 C   0  0  0  0  0  0  0  0  0  0  0  0
   42.6530   43.9320   45.5540 H   0  0  0  0  0  0  0  0  0  0  0  0
   43.5020   42.3940   46.7410 N   0  0  0  0  0  0  0  0  0  0  0  0
   43.3690   42.6910   47.7380 H   0  0  0  0  0  0  0  0  0  0  0  0
  1 20  1  0  0  0  0
  2  7  1  0  0  0  0
  2  1  2  0  0  0  0
  3  4  2  0  0  0  0
  3  2  1  0  0  0  0
  4  5  1  0  0  0  0
  5  6  2  0  0  0  0
  6  1  1  0  0  0  0
  8  3  1  0  0  0  0
  9 10  1  0  0  0  0
 10 11  1  0  0  0  0
 11  5  1  0  0  0  0
 11 12  2  0  0  0  0
 12 16  1  0  0  0  0
 13 12  1  0  0  0  0
 13 17  1  0  0  0  0
 14 13  2  0  0  0  0
 15 10  2  0  0  0  0
 15 14  1  0  0  0  0
 18 14  1  0  0  0  0
 19 15  1  0  0  0  0
 21 20  2  0  0  0  0
 21 22  1  0  0  0  0
 22 24  1  0  0  0  0
 22 23  1  0  0  0  0
 25 22  1  0  0  0  0
 26 25  1  0  0  0  0
 28 34  1  0  0  0  0
 28 27  2  0  0  0  0
 29 25  1  6  0  0  0
 29 28  1  0  0  0  0
 30 31  1  0  0  0  0
 30 29  1  0  0  0  0
 30 32  1  0  0  0  0
 32 33  1  0  0  0  0
 32 34  1  0  0  0  0
 34 35  1  0  0  0  0
M  END
>  <minimizedAffinity>
-4.69535303

>  <minimizedRMSD>
0.7895118

$$$$
