
 OpenBabel03252509073D

 41 44  0  0  1  0  0  0  0  0999 V2000
   47.6280   31.8220   38.9770 C   0  0  0  0  0  0  0  0  0  0  0  0
   47.1620   33.1020   38.9520 C   0  0  0  0  0  0  0  0  0  0  0  0
   47.7880   34.0220   38.1340 C   0  0  0  0  0  0  0  0  0  0  0  0
   48.8610   33.6490   37.3600 C   0  0  0  0  0  0  0  0  0  0  0  0
   49.3510   32.3470   37.3690 C   0  0  0  0  0  0  0  0  0  0  0  0
   48.7140   31.4290   38.1960 C   0  0  0  0  0  0  0  0  0  0  0  0
   47.4480   35.0550   38.0860 H   0  0  0  0  0  0  0  0  0  0  0  0
   49.3320   34.3910   36.7300 H   0  0  0  0  0  0  0  0  0  0  0  0
   50.1920   32.0230   36.7710 H   0  0  0  0  0  0  0  0  0  0  0  0
   49.0860   30.4190   38.2090 H   0  0  0  0  0  0  0  0  0  0  0  0
   45.3680   35.3950   43.1980 Cl  0  0  0  0  0  0  0  0  0  0  0  0
   45.2000   34.6200   41.6500 C   0  0  0  0  0  0  0  0  0  0  0  0
   46.2790   34.2000   40.9600 C   0  0  0  0  0  0  0  0  0  0  0  0
   46.0340   33.5910   39.7340 C   0  0  0  0  0  0  0  0  0  0  0  0
   44.7670   33.4210   39.2390 C   0  0  0  0  0  0  0  0  0  0  0  0
   43.6940   33.8530   39.9540 C   0  0  0  0  0  0  0  0  0  0  0  0
   43.9220   34.4560   41.1700 C   0  0  0  0  0  0  0  0  0  0  0  0
   44.5920   32.9440   38.2770 H   0  0  0  0  0  0  0  0  0  0  0  0
   42.6640   33.7450   39.6140 H   0  0  0  0  0  0  0  0  0  0  0  0
   43.0540   34.8030   41.7440 H   0  0  0  0  0  0  0  0  0  0  0  0
   49.5850   35.7390   41.9280 C   0  0  0  0  0  0  0  0  0  0  0  0
   48.3120   35.5670   41.3810 C   0  0  0  0  0  0  0  0  0  0  0  0
   47.5960   34.3900   41.5160 C   0  0  0  0  0  0  0  0  0  0  0  0
   48.2240   33.4120   42.2200 N   0  0  0  0  0  0  0  0  0  0  0  0
   49.4510   33.5780   42.7470 C   0  0  0  0  0  0  0  0  0  0  0  0
   50.1200   34.7260   42.6020 N   0  0  0  0  0  0  0  0  0  0  0  0
   50.0670   36.6900   41.7740 H   0  0  0  0  0  0  0  0  0  0  0  0
   47.8340   36.3670   40.8220 H   0  0  0  0  0  0  0  0  0  0  0  0
   49.9590   32.8010   43.3120 H   0  0  0  0  0  0  0  0  0  0  0  0
   46.8910   30.6370   39.9330 S   0  0  0  0  0  0  0  0  0  0  0  0
   46.7930   29.3020   39.2290 O   0  0  0  0  0  0  0  0  0  0  0  0
   47.9380   30.3770   41.0590 O   0  0  0  0  0  0  0  0  0  0  0  0
   44.7230   28.2350   40.8450 O   0  0  0  0  0  0  0  0  0  0  0  0
   44.7730   29.4430   41.1890 C   0  0  0  0  0  0  0  0  0  0  0  0
   45.4790   30.7350   40.8280 C   0  0  1  0  0  3  0  0  0  0  0  0
   45.9680   30.8760   42.3200 C   0  0  0  0  0  3  0  0  0  0  0  0
   46.5480   31.8050   42.4110 H   0  0  0  0  0  0  0  0  0  0  0  0
   44.6380   30.9220   43.0150 C   0  0  0  0  0  3  0  0  0  0  0  0
   44.7230   30.6700   44.0870 H   0  0  0  0  0  0  0  0  0  0  0  0
   43.9240   29.8640   42.2800 N   0  0  0  0  0  0  0  0  0  0  0  0
   42.9630   29.5790   42.6250 H   0  0  0  0  0  0  0  0  0  0  0  0
  1 30  1  0  0  0  0
  2  1  1  0  0  0  0
  2 14  1  0  0  0  0
  3  2  2  0  0  0  0
  4  5  2  0  0  0  0
  4  3  1  0  0  0  0
  5  6  1  0  0  0  0
  6 10  1  0  0  0  0
  6  1  2  0  0  0  0
  7  3  1  0  0  0  0
  8  4  1  0  0  0  0
  9  5  1  0  0  0  0
 12 11  1  0  0  0  0
 13 23  1  0  0  0  0
 13 12  2  0  0  0  0
 14 13  1  0  0  0  0
 15 14  2  0  0  0  0
 15 16  1  0  0  0  0
 16 17  2  0  0  0  0
 17 12  1  0  0  0  0
 17 20  1  0  0  0  0
 18 15  1  0  0  0  0
 19 16  1  0  0  0  0
 21 26  1  0  0  0  0
 22 23  1  0  0  0  0
 22 21  2  0  0  0  0
 23 24  2  0  0  0  0
 24 25  1  0  0  0  0
 25 29  1  0  0  0  0
 26 25  2  0  0  0  0
 27 21  1  0  0  0  0
 28 22  1  0  0  0  0
 30 32  2  0  0  0  0
 31 30  2  0  0  0  0
 33 34  2  0  0  0  0
 34 40  1  0  0  0  0
 35 30  1  6  0  0  0
 35 34  1  0  0  0  0
 35 36  1  0  0  0  0
 36 37  1  0  0  0  0
 36 38  1  0  0  0  0
 38 39  1  0  0  0  0
 40 41  1  0  0  0  0
 40 38  1  0  0  0  0
M  END
>  <minimizedAffinity>
-4.6067605

>  <minimizedRMSD>
0.44708392

$$$$
