
 OpenBabel03252509073D

 41 44  0  0  1  0  0  0  0  0999 V2000
   46.4410   31.5390   39.7880 C   0  0  0  0  0  0  0  0  0  0  0  0
   46.2910   32.8720   39.5480 C   0  0  0  0  0  0  0  0  0  0  0  0
   47.0910   33.4700   38.5940 C   0  0  0  0  0  0  0  0  0  0  0  0
   48.0210   32.7310   37.9010 C   0  0  0  0  0  0  0  0  0  0  0  0
   48.1890   31.3690   38.1300 C   0  0  0  0  0  0  0  0  0  0  0  0
   47.3790   30.7770   39.0920 C   0  0  0  0  0  0  0  0  0  0  0  0
   47.0040   34.5320   38.3730 H   0  0  0  0  0  0  0  0  0  0  0  0
   48.6330   33.2270   37.1610 H   0  0  0  0  0  0  0  0  0  0  0  0
   48.9090   30.7600   37.6000 H   0  0  0  0  0  0  0  0  0  0  0  0
   47.5010   29.7230   39.2750 H   0  0  0  0  0  0  0  0  0  0  0  0
   45.2620   36.2940   43.2530 Cl  0  0  0  0  0  0  0  0  0  0  0  0
   44.8460   35.2810   41.9020 C   0  0  0  0  0  0  0  0  0  0  0  0
   45.7730   34.5110   41.2980 C   0  0  0  0  0  0  0  0  0  0  0  0
   45.3360   33.7360   40.2280 C   0  0  0  0  0  0  0  0  0  0  0  0
   44.0340   33.7450   39.7990 C   0  0  0  0  0  0  0  0  0  0  0  0
   43.1180   34.5290   40.4260 C   0  0  0  0  0  0  0  0  0  0  0  0
   43.5360   35.3000   41.4860 C   0  0  0  0  0  0  0  0  0  0  0  0
   43.7080   33.1340   38.9600 H   0  0  0  0  0  0  0  0  0  0  0  0
   42.0690   34.5780   40.1320 H   0  0  0  0  0  0  0  0  0  0  0  0
   42.7940   35.9320   41.9900 H   0  0  0  0  0  0  0  0  0  0  0  0
   49.3840   35.4560   41.8550 C   0  0  0  0  0  0  0  0  0  0  0  0
   48.0720   35.4540   41.3750 C   0  0  0  0  0  0  0  0  0  0  0  0
   47.1320   34.5220   41.7810 C   0  0  0  0  0  0  0  0  0  0  0  0
   47.5800   33.6080   42.6820 N   0  0  0  0  0  0  0  0  0  0  0  0
   48.8430   33.6110   43.1430 C   0  0  0  0  0  0  0  0  0  0  0  0
   49.7300   34.5230   42.7340 N   0  0  0  0  0  0  0  0  0  0  0  0
   50.0470   36.2200   41.4830 H   0  0  0  0  0  0  0  0  0  0  0  0
   47.7420   36.1970   40.6540 H   0  0  0  0  0  0  0  0  0  0  0  0
   49.2090   32.8840   43.8640 H   0  0  0  0  0  0  0  0  0  0  0  0
   45.4760   30.7350   40.9210 S   0  0  0  0  0  0  0  0  0  0  0  0
   44.0740   30.4810   40.4130 O   0  0  0  0  0  0  0  0  0  0  0  0
   46.1020   29.3090   40.9850 O   0  0  0  0  0  0  0  0  0  0  0  0
   43.4800   29.2770   43.2000 O   0  0  0  0  0  0  0  0  0  0  0  0
   44.3810   30.1400   43.3570 C   0  0  0  0  0  0  0  0  0  0  0  0
   45.2700   31.0650   42.5500 C   0  0  1  0  0  3  0  0  0  0  0  0
   46.5390   30.4370   43.2410 C   0  0  0  0  0  3  0  0  0  0  0  0
   47.4340   30.9450   42.8550 H   0  0  0  0  0  0  0  0  0  0  0  0
   46.2290   30.7630   44.6740 C   0  0  0  0  0  3  0  0  0  0  0  0
   46.7960   30.1240   45.3760 H   0  0  0  0  0  0  0  0  0  0  0  0
   44.7930   30.4380   44.7110 N   0  0  0  0  0  0  0  0  0  0  0  0
   44.2990   30.4660   45.6460 H   0  0  0  0  0  0  0  0  0  0  0  0
  1 30  1  0  0  0  0
  2  1  1  0  0  0  0
  2 14  1  0  0  0  0
  3  2  2  0  0  0  0
  4  5  2  0  0  0  0
  4  3  1  0  0  0  0
  5  6  1  0  0  0  0
  6 10  1  0  0  0  0
  6  1  2  0  0  0  0
  7  3  1  0  0  0  0
  8  4  1  0  0  0  0
  9  5  1  0  0  0  0
 12 11  1  0  0  0  0
 13 23  1  0  0  0  0
 13 12  2  0  0  0  0
 14 13  1  0  0  0  0
 15 14  2  0  0  0  0
 15 16  1  0  0  0  0
 16 17  2  0  0  0  0
 17 12  1  0  0  0  0
 17 20  1  0  0  0  0
 18 15  1  0  0  0  0
 19 16  1  0  0  0  0
 21 26  1  0  0  0  0
 22 23  1  0  0  0  0
 22 21  2  0  0  0  0
 23 24  2  0  0  0  0
 24 25  1  0  0  0  0
 25 29  1  0  0  0  0
 26 25  2  0  0  0  0
 27 21  1  0  0  0  0
 28 22  1  0  0  0  0
 30 32  2  0  0  0  0
 31 30  2  0  0  0  0
 33 34  2  0  0  0  0
 34 40  1  0  0  0  0
 35 30  1  6  0  0  0
 35 36  1  0  0  0  0
 35 34  1  0  0  0  0
 36 38  1  0  0  0  0
 37 36  1  0  0  0  0
 38 40  1  0  0  0  0
 38 39  1  0  0  0  0
 40 41  1  0  0  0  0
M  END
>  <minimizedAffinity>
-4.89478636

>  <minimizedRMSD>
1.50205922

$$$$
