
 OpenBabel03252506333D

 33 35  0  0  1  0  0  0  0  0999 V2000
   44.4970   35.7430   45.0460 C   0  0  0  0  0  0  0  0  0  0  0  0
   45.0770   35.6570   43.7650 C   0  0  0  0  0  0  0  0  0  0  0  0
   45.9160   34.6220   43.4810 C   0  0  0  0  0  0  0  0  0  0  0  0
   46.1440   33.7230   44.4710 N   0  0  0  0  0  0  0  0  0  0  0  0
   45.5870   33.8150   45.6850 C   0  0  0  0  0  0  0  0  0  0  0  0
   44.7680   34.8160   45.9770 N   0  0  0  0  0  0  0  0  0  0  0  0
   45.9070   32.8060   46.6330 N   0  0  0  0  0  0  0  0  0  0  0  0
   45.1650   32.5900   47.8800 C   0  0  0  0  0  0  0  0  0  0  0  0
   46.2780   32.2430   48.8440 C   0  0  0  0  0  0  0  0  0  0  0  0
   47.5070   32.0000   48.0250 C   0  0  0  0  0  0  0  0  0  0  0  0
   46.9500   31.8130   46.6210 C   0  0  1  0  0  0  0  0  0  0  0  0
   43.8140   36.5280   45.3750 H   0  0  0  0  0  0  0  0  0  0  0  0
   46.3590   34.5580   42.5010 H   0  0  0  0  0  0  0  0  0  0  0  0
   44.5640   31.6680   47.7140 H   0  0  0  0  0  0  0  0  0  0  0  0
   44.5650   33.4550   48.1700 H   0  0  0  0  0  0  0  0  0  0  0  0
   46.3720   33.0670   49.5850 H   0  0  0  0  0  0  0  0  0  0  0  0
   46.0080   31.3310   49.4510 H   0  0  0  0  0  0  0  0  0  0  0  0
   47.9700   31.0380   48.3330 H   0  0  0  0  0  0  0  0  0  0  0  0
   48.1860   32.8500   48.0950 H   0  0  0  0  0  0  0  0  0  0  0  0
   47.7490   32.0510   45.8900 H   0  0  0  0  0  0  0  0  0  0  0  0
   44.7270   36.6920   42.8300 N   0  0  0  0  0  0  0  0  0  0  0  0
   43.9890   36.5580   42.0870 H   0  0  0  0  0  0  0  0  0  0  0  0
   45.2110   37.6150   42.8740 H   0  0  0  0  0  0  0  0  0  0  0  0
   46.3260   30.1490   46.4790 S   0  0  0  0  0  0  0  0  0  0  0  0
   43.5290   28.7470   45.2980 O   0  0  0  0  0  0  0  0  0  0  0  0
   44.5500   29.0920   44.6520 C   0  0  0  0  0  0  0  0  0  0  0  0
   45.9270   29.5740   44.8660 C   0  0  1  0  0  3  0  0  0  0  0  0
   46.1030   30.5420   43.7300 C   0  0  0  0  0  3  0  0  0  0  0  0
   47.1590   30.7820   43.5050 H   0  0  0  0  0  0  0  0  0  0  0  0
   45.6490   29.6310   42.5790 C   0  0  0  0  0  3  0  0  0  0  0  0
   45.4320   30.1700   41.6610 H   0  0  0  0  0  0  0  0  0  0  0  0
   44.4660   29.0390   43.2120 N   0  0  0  0  0  0  0  0  0  0  0  0
   43.7210   28.6580   42.5860 H   0  0  0  0  0  0  0  0  0  0  0  0
  1 12  1  0  0  0  0
  1  6  1  0  0  0  0
  2  1  2  0  0  0  0
  3  2  1  0  0  0  0
  3  4  2  0  0  0  0
  4  5  1  0  0  0  0
  5  6  2  0  0  0  0
  5  7  1  0  0  0  0
  7  8  1  0  0  0  0
  8 15  1  0  0  0  0
  8  9  1  0  0  0  0
  9 17  1  0  0  0  0
  9 16  1  0  0  0  0
 10 19  1  0  0  0  0
 10 18  1  0  0  0  0
 10  9  1  0  0  0  0
 11 20  1  6  0  0  0
 11  7  1  0  0  0  0
 11 10  1  0  0  0  0
 13  3  1  0  0  0  0
 14  8  1  0  0  0  0
 21 23  1  0  0  0  0
 21  2  1  0  0  0  0
 22 21  1  0  0  0  0
 24 11  1  0  0  0  0
 26 27  1  0  0  0  0
 26 25  2  0  0  0  0
 27 24  1  1  0  0  0
 28 27  1  0  0  0  0
 29 28  1  0  0  0  0
 30 32  1  0  0  0  0
 30 28  1  0  0  0  0
 31 30  1  0  0  0  0
 32 26  1  0  0  0  0
 33 32  1  0  0  0  0
M  END
>  <minimizedAffinity>
-4.95082855

>  <minimizedRMSD>
0.315906823

$$$$
