
 OpenBabel03252506333D

 33 35  0  0  1  0  0  0  0  0999 V2000
   44.4450   35.7360   44.9950 C   0  0  0  0  0  0  0  0  0  0  0  0
   45.1210   35.7410   43.7590 C   0  0  0  0  0  0  0  0  0  0  0  0
   46.0630   34.7880   43.5110 C   0  0  0  0  0  0  0  0  0  0  0  0
   46.2930   33.8780   44.4910 N   0  0  0  0  0  0  0  0  0  0  0  0
   45.6440   33.8840   45.6620 C   0  0  0  0  0  0  0  0  0  0  0  0
   44.7250   34.8040   45.9190 N   0  0  0  0  0  0  0  0  0  0  0  0
   45.9780   32.8730   46.6040 N   0  0  0  0  0  0  0  0  0  0  0  0
   45.1680   32.5570   47.7860 C   0  0  0  0  0  0  0  0  0  0  0  0
   46.2340   32.2700   48.8210 C   0  0  0  0  0  0  0  0  0  0  0  0
   47.5350   32.1560   48.0900 C   0  0  0  0  0  0  0  0  0  0  0  0
   47.0980   31.9710   46.6430 C   0  0  1  0  0  0  0  0  0  0  0  0
   43.6770   36.4520   45.2930 H   0  0  0  0  0  0  0  0  0  0  0  0
   46.5790   34.7930   42.5660 H   0  0  0  0  0  0  0  0  0  0  0  0
   44.6600   31.5950   47.5500 H   0  0  0  0  0  0  0  0  0  0  0  0
   44.4780   33.3590   48.0520 H   0  0  0  0  0  0  0  0  0  0  0  0
   46.2050   33.0740   49.5880 H   0  0  0  0  0  0  0  0  0  0  0  0
   45.9970   31.3200   49.3810 H   0  0  0  0  0  0  0  0  0  0  0  0
   48.0530   31.2250   48.4050 H   0  0  0  0  0  0  0  0  0  0  0  0
   48.1330   33.0560   48.2330 H   0  0  0  0  0  0  0  0  0  0  0  0
   47.9260   32.2970   45.9810 H   0  0  0  0  0  0  0  0  0  0  0  0
   44.7540   36.7730   42.8290 N   0  0  0  0  0  0  0  0  0  0  0  0
   44.0850   36.6050   42.0300 H   0  0  0  0  0  0  0  0  0  0  0  0
   45.1540   37.7320   42.9340 H   0  0  0  0  0  0  0  0  0  0  0  0
   46.6290   30.2670   46.4100 S   0  0  0  0  0  0  0  0  0  0  0  0
   44.9070   30.9280   43.6200 O   0  0  0  0  0  0  0  0  0  0  0  0
   45.9170   30.1920   43.7450 C   0  0  0  0  0  0  0  0  0  0  0  0
   46.7800   29.6050   44.7880 C   0  0  1  0  0  3  0  0  0  0  0  0
   48.1370   29.6650   44.1470 C   0  0  0  0  0  3  0  0  0  0  0  0
   48.8840   28.9950   44.6110 H   0  0  0  0  0  0  0  0  0  0  0  0
   47.7890   29.0030   42.8040 C   0  0  0  0  0  3  0  0  0  0  0  0
   48.5430   29.1530   42.0380 H   0  0  0  0  0  0  0  0  0  0  0  0
   46.5230   29.6950   42.5330 N   0  0  0  0  0  0  0  0  0  0  0  0
   46.2070   29.7520   41.5400 H   0  0  0  0  0  0  0  0  0  0  0  0
  1 12  1  0  0  0  0
  1  6  1  0  0  0  0
  2  1  2  0  0  0  0
  3  2  1  0  0  0  0
  3  4  2  0  0  0  0
  4  5  1  0  0  0  0
  5  6  2  0  0  0  0
  5  7  1  0  0  0  0
  7 11  1  0  0  0  0
  7  8  1  0  0  0  0
  8 15  1  0  0  0  0
  8  9  1  0  0  0  0
  9 17  1  0  0  0  0
  9 16  1  0  0  0  0
 10 19  1  0  0  0  0
 10 18  1  0  0  0  0
 10  9  1  0  0  0  0
 11 20  1  6  0  0  0
 11 10  1  0  0  0  0
 13  3  1  0  0  0  0
 14  8  1  0  0  0  0
 21 23  1  0  0  0  0
 21  2  1  0  0  0  0
 22 21  1  0  0  0  0
 24 11  1  0  0  0  0
 25 26  2  0  0  0  0
 26 27  1  0  0  0  0
 27 24  1  1  0  0  0
 28 29  1  0  0  0  0
 28 27  1  0  0  0  0
 30 28  1  0  0  0  0
 31 30  1  0  0  0  0
 32 30  1  0  0  0  0
 32 26  1  0  0  0  0
 33 32  1  0  0  0  0
M  END
>  <minimizedAffinity>
-4.8448844

>  <minimizedRMSD>
0.879488647

$$$$
