
 OpenBabel03252506333D

 33 35  0  0  1  0  0  0  0  0999 V2000
   44.4910   35.6090   45.1020 C   0  0  0  0  0  0  0  0  0  0  0  0
   45.1290   35.5810   43.8460 C   0  0  0  0  0  0  0  0  0  0  0  0
   46.0400   34.6030   43.5830 C   0  0  0  0  0  0  0  0  0  0  0  0
   46.2800   33.7020   44.5680 N   0  0  0  0  0  0  0  0  0  0  0  0
   45.6690   33.7400   45.7580 C   0  0  0  0  0  0  0  0  0  0  0  0
   44.7790   34.6840   46.0310 N   0  0  0  0  0  0  0  0  0  0  0  0
   46.0090   32.7340   46.7040 N   0  0  0  0  0  0  0  0  0  0  0  0
   45.2300   32.4530   47.9150 C   0  0  0  0  0  0  0  0  0  0  0  0
   46.3210   32.1560   48.9200 C   0  0  0  0  0  0  0  0  0  0  0  0
   47.5960   32.0020   48.1510 C   0  0  0  0  0  0  0  0  0  0  0  0
   47.1100   31.8070   46.7210 C   0  0  1  0  0  0  0  0  0  0  0  0
   43.7490   36.3460   45.4140 H   0  0  0  0  0  0  0  0  0  0  0  0
   46.5260   34.5830   42.6220 H   0  0  0  0  0  0  0  0  0  0  0  0
   44.6930   31.5000   47.7090 H   0  0  0  0  0  0  0  0  0  0  0  0
   44.5670   33.2750   48.1910 H   0  0  0  0  0  0  0  0  0  0  0  0
   46.3340   32.9710   49.6770 H   0  0  0  0  0  0  0  0  0  0  0  0
   46.0810   31.2190   49.5010 H   0  0  0  0  0  0  0  0  0  0  0  0
   48.1020   31.0630   48.4630 H   0  0  0  0  0  0  0  0  0  0  0  0
   48.2180   32.8900   48.2620 H   0  0  0  0  0  0  0  0  0  0  0  0
   47.9230   32.1050   46.0290 H   0  0  0  0  0  0  0  0  0  0  0  0
   44.7560   36.6090   42.9130 N   0  0  0  0  0  0  0  0  0  0  0  0
   44.0580   36.4450   42.1370 H   0  0  0  0  0  0  0  0  0  0  0  0
   45.1800   37.5590   42.9910 H   0  0  0  0  0  0  0  0  0  0  0  0
   46.5940   30.1110   46.5280 S   0  0  0  0  0  0  0  0  0  0  0  0
   46.0390   30.6150   43.2690 O   0  0  0  0  0  0  0  0  0  0  0  0
   45.2820   30.0550   44.1010 C   0  0  0  0  0  0  0  0  0  0  0  0
   45.1640   29.8110   45.5510 C   0  0  1  0  0  3  0  0  0  0  0  0
   44.5850   28.4250   45.5910 C   0  0  0  0  0  3  0  0  0  0  0  0
   44.1170   28.1610   46.5580 H   0  0  0  0  0  0  0  0  0  0  0  0
   43.4080   28.6380   44.6260 C   0  0  0  0  0  3  0  0  0  0  0  0
   42.9660   27.7120   44.2710 H   0  0  0  0  0  0  0  0  0  0  0  0
   44.1060   29.4000   43.5830 N   0  0  0  0  0  0  0  0  0  0  0  0
   43.6980   29.3900   42.6220 H   0  0  0  0  0  0  0  0  0  0  0  0
  1 12  1  0  0  0  0
  1  6  1  0  0  0  0
  2  1  2  0  0  0  0
  3  2  1  0  0  0  0
  3  4  2  0  0  0  0
  4  5  1  0  0  0  0
  5  6  2  0  0  0  0
  5  7  1  0  0  0  0
  7 11  1  0  0  0  0
  7  8  1  0  0  0  0
  8 15  1  0  0  0  0
  8  9  1  0  0  0  0
  9 17  1  0  0  0  0
  9 16  1  0  0  0  0
 10 19  1  0  0  0  0
 10 18  1  0  0  0  0
 10  9  1  0  0  0  0
 11 20  1  6  0  0  0
 11 10  1  0  0  0  0
 13  3  1  0  0  0  0
 14  8  1  0  0  0  0
 21 23  1  0  0  0  0
 21  2  1  0  0  0  0
 22 21  1  0  0  0  0
 24 11  1  0  0  0  0
 25 26  2  0  0  0  0
 26 27  1  0  0  0  0
 27 28  1  0  0  0  0
 27 24  1  1  0  0  0
 28 29  1  0  0  0  0
 30 28  1  0  0  0  0
 31 30  1  0  0  0  0
 32 26  1  0  0  0  0
 32 30  1  0  0  0  0
 33 32  1  0  0  0  0
M  END
>  <minimizedAffinity>
-5.07099342

>  <minimizedRMSD>
0.890876293

$$$$
