
 OpenBabel03242516473D

 42 46  0  0  1  0  0  0  0  0999 V2000
   37.6890   29.6400   42.2790 C   0  0  0  0  0  0  0  0  0  0  0  0
   36.5140   29.7660   41.6340 N   0  0  0  0  0  0  0  0  0  0  0  0
   36.6420   30.5650   40.5680 C   0  0  0  0  0  0  0  0  0  0  0  0
   37.9420   30.9590   40.5400 N   0  0  0  0  0  0  0  0  0  0  0  0
   38.5810   30.4180   41.5520 N   0  0  0  0  0  0  0  0  0  0  0  0
   35.8660   30.8380   39.8760 H   0  0  0  0  0  0  0  0  0  0  0  0
   40.9050   31.1220   39.6570 O   0  0  0  0  0  0  0  0  0  0  0  0
   40.0240   32.0100   39.8610 C   0  0  0  0  0  0  0  0  0  0  0  0
   38.5810   31.8330   39.5710 C   0  0  2  0  0  0  0  0  0  0  0  0
   38.0350   33.2470   39.6640 C   0  0  0  0  0  0  0  0  0  0  0  0
   38.9070   33.8320   40.7800 C   0  0  0  0  0  0  0  0  0  0  0  0
   40.2180   33.3340   40.3980 N   0  0  0  0  0  0  0  0  0  0  0  0
   38.5090   31.4040   38.5560 H   0  0  0  0  0  0  0  0  0  0  0  0
   36.9670   33.2700   39.9120 H   0  0  0  0  0  0  0  0  0  0  0  0
   38.2410   33.7290   38.6950 H   0  0  0  0  0  0  0  0  0  0  0  0
   38.5510   33.4040   41.7280 H   0  0  0  0  0  0  0  0  0  0  0  0
   38.8180   34.9160   40.6800 H   0  0  0  0  0  0  0  0  0  0  0  0
   41.6110   34.2310   38.0850 O   0  0  0  0  0  0  0  0  0  0  0  0
   42.1410   34.2490   39.2250 C   0  0  0  0  0  0  0  0  0  0  0  0
   41.4600   34.0050   40.5190 C   0  0  2  0  0  3  0  0  0  0  0  0
   42.5070   33.2990   41.3030 C   0  0  0  0  0  3  0  0  0  0  0  0
   42.3440   33.3220   42.3960 H   0  0  0  0  0  0  0  0  0  0  0  0
   43.7550   34.1100   40.9260 C   0  0  0  0  0  3  0  0  0  0  0  0
   44.6690   33.4520   40.9310 H   0  0  0  0  0  0  0  0  0  0  0  0
   43.4990   34.5030   39.5710 N   0  0  0  0  0  0  0  0  0  0  0  0
   44.2320   34.9210   38.9310 H   0  0  0  0  0  0  0  0  0  0  0  0
   38.3280   27.4100   43.5150 C   0  0  1  0  0  0  0  0  0  0  0  0
   38.0630   28.8750   43.4760 C   0  0  2  0  0  0  0  0  0  0  0  0
   37.0800   27.9880   44.0540 C   0  0  0  0  0  0  0  0  0  0  0  0
   39.1020   27.1030   44.2340 H   0  0  0  0  0  0  0  0  0  0  0  0
   38.7030   29.5030   44.1650 H   0  0  0  0  0  0  0  0  0  0  0  0
   36.0900   27.8590   43.5440 H   0  0  0  0  0  0  0  0  0  0  0  0
   36.9360   28.0490   45.1720 H   0  0  0  0  0  0  0  0  0  0  0  0
   37.1810   25.9080   41.9030 C   0  0  0  0  0  0  0  0  0  0  0  0
   38.3370   26.5800   42.2910 C   0  0  0  0  0  0  0  0  0  0  0  0
   39.4410   26.4440   41.4840 C   0  0  0  0  0  0  0  0  0  0  0  0
   39.3320   25.6710   40.3750 N   0  0  0  0  0  0  0  0  0  0  0  0
   38.2210   25.0380   40.0230 C   0  0  0  0  0  0  0  0  0  0  0  0
   37.1380   25.1680   40.8080 N   0  0  0  0  0  0  0  0  0  0  0  0
   36.2880   25.9890   42.5110 H   0  0  0  0  0  0  0  0  0  0  0  0
   40.3700   26.9540   41.7500 H   0  0  0  0  0  0  0  0  0  0  0  0
   38.1560   24.4260   39.1330 H   0  0  0  0  0  0  0  0  0  0  0  0
  1 28  1  0  0  0  0
  2  1  1  0  0  0  0
  3  2  2  0  0  0  0
  4  3  1  0  0  0  0
  4  5  1  0  0  0  0
  5  1  2  0  0  0  0
  6  3  1  0  0  0  0
  7  8  2  0  0  0  0
  8 12  1  0  0  0  0
  9 13  1  6  0  0  0
  9 10  1  0  0  0  0
  9  8  1  0  0  0  0
  9  4  1  0  0  0  0
 10 14  1  0  0  0  0
 10 11  1  0  0  0  0
 11 16  1  0  0  0  0
 12 11  1  0  0  0  0
 15 10  1  0  0  0  0
 17 11  1  0  0  0  0
 18 19  2  0  0  0  0
 19 25  1  0  0  0  0
 19 20  1  0  0  0  0
 20 12  1  6  0  0  0
 20 21  1  0  0  0  0
 21 22  1  0  0  0  0
 23 24  1  0  0  0  0
 23 21  1  0  0  0  0
 25 23  1  0  0  0  0
 26 25  1  0  0  0  0
 27 29  1  0  0  0  0
 27 30  1  1  0  0  0
 28 27  1  0  0  0  0
 28 29  1  0  0  0  0
 28 31  1  1  0  0  0
 29 33  1  0  0  0  0
 32 29  1  0  0  0  0
 34 35  1  0  0  0  0
 34 40  1  0  0  0  0
 35 27  1  0  0  0  0
 36 41  1  0  0  0  0
 36 35  2  0  0  0  0
 37 36  1  0  0  0  0
 38 37  2  0  0  0  0
 38 39  1  0  0  0  0
 39 34  2  0  0  0  0
 42 38  1  0  0  0  0
M  END
>  <minimizedAffinity>
-6.31287909

$$$$

 OpenBabel03242516473D

 42 46  0  0  1  0  0  0  0  0999 V2000
   37.4250   25.9550   42.1500 C   0  0  0  0  0  0  0  0  0  0  0  0
   36.9150   26.8550   43.0110 N   0  0  0  0  0  0  0  0  0  0  0  0
   36.5850   27.9850   42.3740 C   0  0  0  0  0  0  0  0  0  0  0  0
   36.8990   27.7920   41.0660 N   0  0  0  0  0  0  0  0  0  0  0  0
   37.4010   26.5880   40.9140 N   0  0  0  0  0  0  0  0  0  0  0  0
   36.1570   28.8670   42.8160 H   0  0  0  0  0  0  0  0  0  0  0  0
   39.0190   29.2610   39.3540 O   0  0  0  0  0  0  0  0  0  0  0  0
   37.8990   29.6240   39.8250 C   0  0  0  0  0  0  0  0  0  0  0  0
   36.7270   28.7280   39.9680 C   0  0  2  0  0  0  0  0  0  0  0  0
   35.5880   29.6940   40.2440 C   0  0  0  0  0  0  0  0  0  0  0  0
   36.3010   30.7730   41.0650 C   0  0  0  0  0  0  0  0  0  0  0  0
   37.5300   30.9320   40.3050 N   0  0  0  0  0  0  0  0  0  0  0  0
   36.6190   28.1870   39.0120 H   0  0  0  0  0  0  0  0  0  0  0  0
   34.7630   29.2250   40.7950 H   0  0  0  0  0  0  0  0  0  0  0  0
   35.2590   30.0800   39.2660 H   0  0  0  0  0  0  0  0  0  0  0  0
   36.4730   30.3570   42.0670 H   0  0  0  0  0  0  0  0  0  0  0  0
   35.6530   31.6510   41.0150 H   0  0  0  0  0  0  0  0  0  0  0  0
   39.6990   31.6850   41.9860 O   0  0  0  0  0  0  0  0  0  0  0  0
   39.2220   32.4720   41.1290 C   0  0  0  0  0  0  0  0  0  0  0  0
   38.2420   32.1340   40.0680 C   0  0  2  0  0  3  0  0  0  0  0  0
   37.4230   33.3710   39.9850 C   0  0  0  0  0  3  0  0  0  0  0  0
   36.8580   33.4750   39.0400 H   0  0  0  0  0  0  0  0  0  0  0  0
   38.5090   34.4520   40.0860 C   0  0  0  0  0  3  0  0  0  0  0  0
   38.1030   35.3710   40.5970 H   0  0  0  0  0  0  0  0  0  0  0  0
   39.4870   33.8600   40.9500 N   0  0  0  0  0  0  0  0  0  0  0  0
   40.2890   34.3960   41.3870 H   0  0  0  0  0  0  0  0  0  0  0  0
   39.3250   24.2060   42.6450 C   0  0  1  0  0  0  0  0  0  0  0  0
   37.9140   24.5850   42.3540 C   0  0  2  0  0  0  0  0  0  0  0  0
   38.7200   23.9850   41.3150 C   0  0  0  0  0  0  0  0  0  0  0  0
   39.4380   23.3350   43.3060 H   0  0  0  0  0  0  0  0  0  0  0  0
   37.1270   23.9540   42.8650 H   0  0  0  0  0  0  0  0  0  0  0  0
   39.0030   24.5970   40.4190 H   0  0  0  0  0  0  0  0  0  0  0  0
   38.4450   22.9370   41.0000 H   0  0  0  0  0  0  0  0  0  0  0  0
   41.3830   25.3860   41.9100 C   0  0  0  0  0  0  0  0  0  0  0  0
   40.3810   25.2180   42.8620 C   0  0  0  0  0  0  0  0  0  0  0  0
   40.4230   26.0350   43.9660 C   0  0  0  0  0  0  0  0  0  0  0  0
   41.4290   26.9410   44.0550 N   0  0  0  0  0  0  0  0  0  0  0  0
   42.3750   27.0850   43.1370 C   0  0  0  0  0  0  0  0  0  0  0  0
   42.3390   26.2890   42.0550 N   0  0  0  0  0  0  0  0  0  0  0  0
   41.3880   24.7630   41.0250 H   0  0  0  0  0  0  0  0  0  0  0  0
   39.6560   25.9380   44.7380 H   0  0  0  0  0  0  0  0  0  0  0  0
   43.1690   27.8150   43.2280 H   0  0  0  0  0  0  0  0  0  0  0  0
  1 28  1  0  0  0  0
  1  2  1  0  0  0  0
  3  6  1  0  0  0  0
  3  2  2  0  0  0  0
  4  3  1  0  0  0  0
  5  4  1  0  0  0  0
  5  1  2  0  0  0  0
  7  8  2  0  0  0  0
  8  9  1  0  0  0  0
  8 12  1  0  0  0  0
  9 13  1  6  0  0  0
  9 10  1  0  0  0  0
  9  4  1  0  0  0  0
 10 14  1  0  0  0  0
 10 11  1  0  0  0  0
 11 16  1  0  0  0  0
 12 11  1  0  0  0  0
 15 10  1  0  0  0  0
 17 11  1  0  0  0  0
 19 18  2  0  0  0  0
 20 12  1  1  0  0  0
 20 19  1  0  0  0  0
 21 20  1  0  0  0  0
 21 23  1  0  0  0  0
 22 21  1  0  0  0  0
 23 24  1  0  0  0  0
 23 25  1  0  0  0  0
 25 19  1  0  0  0  0
 25 26  1  0  0  0  0
 27 35  1  0  0  0  0
 27 30  1  1  0  0  0
 28 27  1  0  0  0  0
 28 31  1  1  0  0  0
 29 28  1  0  0  0  0
 29 27  1  0  0  0  0
 32 29  1  0  0  0  0
 33 29  1  0  0  0  0
 34 39  2  0  0  0  0
 34 35  1  0  0  0  0
 35 36  2  0  0  0  0
 36 37  1  0  0  0  0
 36 41  1  0  0  0  0
 38 42  1  0  0  0  0
 38 37  2  0  0  0  0
 39 38  1  0  0  0  0
 40 34  1  0  0  0  0
M  END
>  <minimizedAffinity>
-6.29112244

$$$$

 OpenBabel03242516473D

 42 46  0  0  1  0  0  0  0  0999 V2000
   36.9450   26.2750   41.5690 C   0  0  0  0  0  0  0  0  0  0  0  0
   36.6850   26.8020   40.3570 N   0  0  0  0  0  0  0  0  0  0  0  0
   36.8330   28.1320   40.3760 C   0  0  0  0  0  0  0  0  0  0  0  0
   37.1970   28.4570   41.6450 N   0  0  0  0  0  0  0  0  0  0  0  0
   37.2690   27.3630   42.3690 N   0  0  0  0  0  0  0  0  0  0  0  0
   36.6890   28.8030   39.5500 H   0  0  0  0  0  0  0  0  0  0  0  0
   36.4270   31.2440   40.5380 O   0  0  0  0  0  0  0  0  0  0  0  0
   37.4750   30.8070   41.1020 C   0  0  0  0  0  0  0  0  0  0  0  0
   37.4780   29.7810   42.1720 C   0  0  2  0  0  0  0  0  0  0  0  0
   38.8910   29.8630   42.7230 C   0  0  0  0  0  0  0  0  0  0  0  0
   39.6890   30.1880   41.4560 C   0  0  0  0  0  0  0  0  0  0  0  0
   38.8390   31.1950   40.8440 N   0  0  0  0  0  0  0  0  0  0  0  0
   36.7060   30.0780   42.9030 H   0  0  0  0  0  0  0  0  0  0  0  0
   39.2140   28.9260   43.1940 H   0  0  0  0  0  0  0  0  0  0  0  0
   38.9030   30.7030   43.4360 H   0  0  0  0  0  0  0  0  0  0  0  0
   39.7460   29.2630   40.8640 H   0  0  0  0  0  0  0  0  0  0  0  0
   40.6410   30.5900   41.8090 H   0  0  0  0  0  0  0  0  0  0  0  0
   39.1860   31.0950   38.0210 O   0  0  0  0  0  0  0  0  0  0  0  0
   39.5580   32.0870   38.6990 C   0  0  0  0  0  0  0  0  0  0  0  0
   39.2520   32.3450   40.1270 C   0  0  2  0  0  3  0  0  0  0  0  0
   40.4980   32.9980   40.6070 C   0  0  0  0  0  3  0  0  0  0  0  0
   40.3730   33.5770   41.5400 H   0  0  0  0  0  0  0  0  0  0  0  0
   40.8140   33.9320   39.4300 C   0  0  0  0  0  3  0  0  0  0  0  0
   41.9280   34.0700   39.3240 H   0  0  0  0  0  0  0  0  0  0  0  0
   40.3480   33.1990   38.2900 N   0  0  0  0  0  0  0  0  0  0  0  0
   40.5720   33.4620   37.2890 H   0  0  0  0  0  0  0  0  0  0  0  0
   38.1290   24.0050   42.1630 C   0  0  1  0  0  0  0  0  0  0  0  0
   36.9340   24.8870   42.0470 C   0  0  2  0  0  0  0  0  0  0  0  0
   37.1380   23.8300   41.0820 C   0  0  0  0  0  0  0  0  0  0  0  0
   38.0960   23.2980   43.0060 H   0  0  0  0  0  0  0  0  0  0  0  0
   36.1480   24.7480   42.8480 H   0  0  0  0  0  0  0  0  0  0  0  0
   37.3610   24.0970   40.0160 H   0  0  0  0  0  0  0  0  0  0  0  0
   36.4220   22.9600   41.1230 H   0  0  0  0  0  0  0  0  0  0  0  0
   40.3610   24.7500   42.9580 C   0  0  0  0  0  0  0  0  0  0  0  0
   39.4970   24.4970   41.8950 C   0  0  0  0  0  0  0  0  0  0  0  0
   39.9860   24.7070   40.6280 C   0  0  0  0  0  0  0  0  0  0  0  0
   41.2630   25.1440   40.4990 N   0  0  0  0  0  0  0  0  0  0  0  0
   42.0690   25.3800   41.5240 C   0  0  0  0  0  0  0  0  0  0  0  0
   41.5980   25.1760   42.7650 N   0  0  0  0  0  0  0  0  0  0  0  0
   40.0160   24.5970   43.9730 H   0  0  0  0  0  0  0  0  0  0  0  0
   39.3420   24.5210   39.7650 H   0  0  0  0  0  0  0  0  0  0  0  0
   43.0870   25.7290   41.3970 H   0  0  0  0  0  0  0  0  0  0  0  0
  1 28  1  0  0  0  0
  1  5  2  0  0  0  0
  2  3  2  0  0  0  0
  2  1  1  0  0  0  0
  3  4  1  0  0  0  0
  4  9  1  0  0  0  0
  4  5  1  0  0  0  0
  6  3  1  0  0  0  0
  7  8  2  0  0  0  0
  8  9  1  0  0  0  0
  9 10  1  0  0  0  0
  9 13  1  1  0  0  0
 10 14  1  0  0  0  0
 10 15  1  0  0  0  0
 11 17  1  0  0  0  0
 11 10  1  0  0  0  0
 12  8  1  0  0  0  0
 12 11  1  0  0  0  0
 16 11  1  0  0  0  0
 18 19  2  0  0  0  0
 19 20  1  0  0  0  0
 20 21  1  0  0  0  0
 20 12  1  1  0  0  0
 21 22  1  0  0  0  0
 23 21  1  0  0  0  0
 24 23  1  0  0  0  0
 25 19  1  0  0  0  0
 25 23  1  0  0  0  0
 26 25  1  0  0  0  0
 27 30  1  1  0  0  0
 28 27  1  0  0  0  0
 28 31  1  1  0  0  0
 29 33  1  0  0  0  0
 29 28  1  0  0  0  0
 29 27  1  0  0  0  0
 32 29  1  0  0  0  0
 34 40  1  0  0  0  0
 35 27  1  0  0  0  0
 35 34  2  0  0  0  0
 36 35  1  0  0  0  0
 37 36  2  0  0  0  0
 37 38  1  0  0  0  0
 38 39  2  0  0  0  0
 39 34  1  0  0  0  0
 41 36  1  0  0  0  0
 42 38  1  0  0  0  0
M  END
>  <minimizedAffinity>
-6.04997921

$$$$

 OpenBabel03242516473D

 42 46  0  0  1  0  0  0  0  0999 V2000
   39.3180   28.1170   42.8060 C   0  0  0  0  0  0  0  0  0  0  0  0
   40.3900   27.8360   42.0400 N   0  0  0  0  0  0  0  0  0  0  0  0
   41.0740   28.9500   41.7550 C   0  0  0  0  0  0  0  0  0  0  0  0
   40.4110   29.9710   42.3600 N   0  0  0  0  0  0  0  0  0  0  0  0
   39.3620   29.4930   42.9910 N   0  0  0  0  0  0  0  0  0  0  0  0
   41.9680   29.0180   41.1640 H   0  0  0  0  0  0  0  0  0  0  0  0
   39.1080   32.3310   40.8370 O   0  0  0  0  0  0  0  0  0  0  0  0
   40.3150   32.0450   41.1010 C   0  0  0  0  0  0  0  0  0  0  0  0
   40.7590   31.3810   42.3500 C   0  0  2  0  0  0  0  0  0  0  0  0
   42.2660   31.5740   42.3250 C   0  0  0  0  0  0  0  0  0  0  0  0
   42.5550   31.4810   40.8230 C   0  0  0  0  0  0  0  0  0  0  0  0
   41.4760   32.2910   40.2830 N   0  0  0  0  0  0  0  0  0  0  0  0
   40.2660   31.9080   43.1860 H   0  0  0  0  0  0  0  0  0  0  0  0
   42.7970   30.8070   42.9020 H   0  0  0  0  0  0  0  0  0  0  0  0
   42.4600   32.5860   42.7130 H   0  0  0  0  0  0  0  0  0  0  0  0
   42.4720   30.4220   40.5410 H   0  0  0  0  0  0  0  0  0  0  0  0
   43.5390   31.9370   40.6880 H   0  0  0  0  0  0  0  0  0  0  0  0
   41.0290   31.3070   37.6500 O   0  0  0  0  0  0  0  0  0  0  0  0
   41.4560   32.4720   37.8580 C   0  0  0  0  0  0  0  0  0  0  0  0
   41.5340   33.1640   39.1680 C   0  0  2  0  0  3  0  0  0  0  0  0
   42.7780   33.9650   39.0320 C   0  0  0  0  0  3  0  0  0  0  0  0
   42.8510   34.8080   39.7430 H   0  0  0  0  0  0  0  0  0  0  0  0
   42.6400   34.4830   37.5930 C   0  0  0  0  0  3  0  0  0  0  0  0
   43.6550   34.6070   37.1200 H   0  0  0  0  0  0  0  0  0  0  0  0
   41.9640   33.4150   36.9180 N   0  0  0  0  0  0  0  0  0  0  0  0
   41.8660   33.3510   35.8660 H   0  0  0  0  0  0  0  0  0  0  0  0
   36.9570   26.9620   42.7660 C   0  0  1  0  0  0  0  0  0  0  0  0
   38.2820   27.2500   43.3820 C   0  0  2  0  0  0  0  0  0  0  0  0
   37.0940   27.8710   43.9220 C   0  0  0  0  0  0  0  0  0  0  0  0
   36.5740   25.9480   42.9550 H   0  0  0  0  0  0  0  0  0  0  0  0
   38.7530   26.3900   43.9470 H   0  0  0  0  0  0  0  0  0  0  0  0
   36.9660   28.9810   43.8310 H   0  0  0  0  0  0  0  0  0  0  0  0
   36.7590   27.5240   44.9420 H   0  0  0  0  0  0  0  0  0  0  0  0
   36.8210   26.6630   40.3040 C   0  0  0  0  0  0  0  0  0  0  0  0
   36.5900   27.4600   41.4230 C   0  0  0  0  0  0  0  0  0  0  0  0
   36.0050   28.6840   41.2090 C   0  0  0  0  0  0  0  0  0  0  0  0
   35.6950   29.0320   39.9350 N   0  0  0  0  0  0  0  0  0  0  0  0
   35.9230   28.2580   38.8830 C   0  0  0  0  0  0  0  0  0  0  0  0
   36.4960   27.0600   39.0860 N   0  0  0  0  0  0  0  0  0  0  0  0
   37.2810   25.6900   40.4280 H   0  0  0  0  0  0  0  0  0  0  0  0
   35.8050   29.3420   42.0580 H   0  0  0  0  0  0  0  0  0  0  0  0
   35.6670   28.5560   37.8740 H   0  0  0  0  0  0  0  0  0  0  0  0
  1  5  2  0  0  0  0
  1 28  1  0  0  0  0
  2  1  1  0  0  0  0
  3  2  2  0  0  0  0
  3  4  1  0  0  0  0
  4  5  1  0  0  0  0
  6  3  1  0  0  0  0
  7  8  2  0  0  0  0
  8  9  1  0  0  0  0
  9  4  1  0  0  0  0
  9 13  1  1  0  0  0
 10  9  1  0  0  0  0
 10 15  1  0  0  0  0
 10 14  1  0  0  0  0
 11 10  1  0  0  0  0
 12 11  1  0  0  0  0
 12  8  1  0  0  0  0
 16 11  1  0  0  0  0
 17 11  1  0  0  0  0
 18 19  2  0  0  0  0
 19 20  1  0  0  0  0
 20 12  1  1  0  0  0
 21 20  1  0  0  0  0
 21 22  1  0  0  0  0
 23 21  1  0  0  0  0
 24 23  1  0  0  0  0
 25 23  1  0  0  0  0
 25 19  1  0  0  0  0
 26 25  1  0  0  0  0
 27 30  1  1  0  0  0
 27 28  1  0  0  0  0
 27 29  1  0  0  0  0
 28 29  1  0  0  0  0
 28 31  1  1  0  0  0
 29 33  1  0  0  0  0
 32 29  1  0  0  0  0
 34 40  1  0  0  0  0
 34 35  1  0  0  0  0
 35 27  1  0  0  0  0
 36 35  2  0  0  0  0
 36 41  1  0  0  0  0
 37 36  1  0  0  0  0
 38 39  1  0  0  0  0
 38 37  2  0  0  0  0
 39 34  2  0  0  0  0
 42 38  1  0  0  0  0
M  END
>  <minimizedAffinity>
-5.95580626

$$$$

 OpenBabel03242516473D

 42 46  0  0  1  0  0  0  0  0999 V2000
   37.3400   26.0750   39.4300 C   0  0  0  0  0  0  0  0  0  0  0  0
   38.5910   26.0730   38.9310 N   0  0  0  0  0  0  0  0  0  0  0  0
   38.8380   27.2090   38.2680 C   0  0  0  0  0  0  0  0  0  0  0  0
   37.7040   27.9530   38.3500 N   0  0  0  0  0  0  0  0  0  0  0  0
   36.8010   27.2940   39.0380 N   0  0  0  0  0  0  0  0  0  0  0  0
   39.7540   27.4720   37.7710 H   0  0  0  0  0  0  0  0  0  0  0  0
   39.7120   30.2130   37.6800 O   0  0  0  0  0  0  0  0  0  0  0  0
   38.5430   30.2250   38.1700 C   0  0  0  0  0  0  0  0  0  0  0  0
   37.4710   29.2740   37.7900 C   0  0  2  0  0  0  0  0  0  0  0  0
   36.2240   29.9070   38.3810 C   0  0  0  0  0  0  0  0  0  0  0  0
   36.7840   30.5380   39.6600 C   0  0  0  0  0  0  0  0  0  0  0  0
   38.0150   31.1290   39.1620 N   0  0  0  0  0  0  0  0  0  0  0  0
   37.4580   29.2300   36.6870 H   0  0  0  0  0  0  0  0  0  0  0  0
   35.4360   29.1720   38.5860 H   0  0  0  0  0  0  0  0  0  0  0  0
   35.8900   30.6740   37.6640 H   0  0  0  0  0  0  0  0  0  0  0  0
   36.9640   29.7200   40.3720 H   0  0  0  0  0  0  0  0  0  0  0  0
   36.0460   31.2840   39.9630 H   0  0  0  0  0  0  0  0  0  0  0  0
   39.5330   31.2980   41.5630 O   0  0  0  0  0  0  0  0  0  0  0  0
   39.2050   32.3240   40.9130 C   0  0  0  0  0  0  0  0  0  0  0  0
   38.6000   32.3560   39.5590 C   0  0  2  0  0  3  0  0  0  0  0  0
   37.6770   33.5180   39.6500 C   0  0  0  0  0  3  0  0  0  0  0  0
   37.3790   33.9330   38.6700 H   0  0  0  0  0  0  0  0  0  0  0  0
   38.5430   34.5230   40.4220 C   0  0  0  0  0  3  0  0  0  0  0  0
   37.8980   35.1890   41.0630 H   0  0  0  0  0  0  0  0  0  0  0  0
   39.3220   33.6920   41.2920 N   0  0  0  0  0  0  0  0  0  0  0  0
   39.8990   34.0620   42.0990 H   0  0  0  0  0  0  0  0  0  0  0  0
   36.9400   24.6910   41.6290 C   0  0  1  0  0  0  0  0  0  0  0  0
   36.6120   25.0810   40.2290 C   0  0  2  0  0  0  0  0  0  0  0  0
   37.2490   23.8100   40.4850 C   0  0  0  0  0  0  0  0  0  0  0  0
   36.0680   24.4360   42.2500 H   0  0  0  0  0  0  0  0  0  0  0  0
   35.5090   25.0970   39.9750 H   0  0  0  0  0  0  0  0  0  0  0  0
   38.2970   23.6400   40.1250 H   0  0  0  0  0  0  0  0  0  0  0  0
   36.6250   22.8850   40.3130 H   0  0  0  0  0  0  0  0  0  0  0  0
   37.7790   26.6380   42.9230 C   0  0  0  0  0  0  0  0  0  0  0  0
   38.0040   25.3650   42.4030 C   0  0  0  0  0  0  0  0  0  0  0  0
   39.2250   24.7910   42.6610 C   0  0  0  0  0  0  0  0  0  0  0  0
   40.1210   25.4950   43.3970 N   0  0  0  0  0  0  0  0  0  0  0  0
   39.8870   26.7050   43.8830 C   0  0  0  0  0  0  0  0  0  0  0  0
   38.6950   27.2730   43.6350 N   0  0  0  0  0  0  0  0  0  0  0  0
   36.8290   27.1270   42.7440 H   0  0  0  0  0  0  0  0  0  0  0  0
   39.4440   23.7940   42.2720 H   0  0  0  0  0  0  0  0  0  0  0  0
   40.6180   27.2490   44.4690 H   0  0  0  0  0  0  0  0  0  0  0  0
  1 28  1  0  0  0  0
  2  1  1  0  0  0  0
  3  4  1  0  0  0  0
  3  2  2  0  0  0  0
  4  5  1  0  0  0  0
  5  1  2  0  0  0  0
  6  3  1  0  0  0  0
  7  8  2  0  0  0  0
  8 12  1  0  0  0  0
  9 13  1  6  0  0  0
  9  8  1  0  0  0  0
  9  4  1  0  0  0  0
  9 10  1  0  0  0  0
 10 14  1  0  0  0  0
 10 11  1  0  0  0  0
 11 17  1  0  0  0  0
 11 16  1  0  0  0  0
 12 11  1  0  0  0  0
 15 10  1  0  0  0  0
 19 25  1  0  0  0  0
 19 18  2  0  0  0  0
 20 12  1  1  0  0  0
 20 21  1  0  0  0  0
 20 19  1  0  0  0  0
 21 23  1  0  0  0  0
 22 21  1  0  0  0  0
 23 24  1  0  0  0  0
 23 25  1  0  0  0  0
 25 26  1  0  0  0  0
 27 30  1  1  0  0  0
 27 35  1  0  0  0  0
 28 31  1  6  0  0  0
 28 29  1  0  0  0  0
 28 27  1  0  0  0  0
 29 27  1  0  0  0  0
 32 29  1  0  0  0  0
 33 29  1  0  0  0  0
 34 39  1  0  0  0  0
 35 36  1  0  0  0  0
 35 34  2  0  0  0  0
 36 37  2  0  0  0  0
 37 38  1  0  0  0  0
 38 42  1  0  0  0  0
 39 38  2  0  0  0  0
 40 34  1  0  0  0  0
 41 36  1  0  0  0  0
M  END
>  <minimizedAffinity>
-5.90860796

$$$$

 OpenBabel03242516473D

 42 46  0  0  1  0  0  0  0  0999 V2000
   38.0770   29.5960   42.4390 C   0  0  0  0  0  0  0  0  0  0  0  0
   39.1040   30.3150   41.9490 N   0  0  0  0  0  0  0  0  0  0  0  0
   38.7280   30.9990   40.8620 C   0  0  0  0  0  0  0  0  0  0  0  0
   37.4180   30.7020   40.6580 N   0  0  0  0  0  0  0  0  0  0  0  0
   37.0130   29.8680   41.5880 N   0  0  0  0  0  0  0  0  0  0  0  0
   39.3450   31.6520   40.2720 H   0  0  0  0  0  0  0  0  0  0  0  0
   35.1830   29.2580   39.0740 O   0  0  0  0  0  0  0  0  0  0  0  0
   36.0670   30.1000   38.7320 C   0  0  0  0  0  0  0  0  0  0  0  0
   36.5520   31.1980   39.6020 C   0  0  2  0  0  0  0  0  0  0  0  0
   37.3180   32.0880   38.6380 C   0  0  0  0  0  0  0  0  0  0  0  0
   37.9100   31.0510   37.6790 C   0  0  0  0  0  0  0  0  0  0  0  0
   36.7670   30.1780   37.4740 N   0  0  0  0  0  0  0  0  0  0  0  0
   35.6590   31.6860   40.0310 H   0  0  0  0  0  0  0  0  0  0  0  0
   38.0900   32.6840   39.1400 H   0  0  0  0  0  0  0  0  0  0  0  0
   36.5710   32.7240   38.1370 H   0  0  0  0  0  0  0  0  0  0  0  0
   38.7350   30.5540   38.2080 H   0  0  0  0  0  0  0  0  0  0  0  0
   38.1850   31.6110   36.7810 H   0  0  0  0  0  0  0  0  0  0  0  0
   38.0290   27.7460   36.7040 O   0  0  0  0  0  0  0  0  0  0  0  0
   37.2600   28.3680   35.9260 C   0  0  0  0  0  0  0  0  0  0  0  0
   36.3940   29.5200   36.2760 C   0  0  2  0  0  3  0  0  0  0  0  0
   36.4430   30.3420   35.0390 C   0  0  0  0  0  3  0  0  0  0  0  0
   35.6120   31.0660   34.9460 H   0  0  0  0  0  0  0  0  0  0  0  0
   36.3380   29.2570   33.9580 C   0  0  0  0  0  3  0  0  0  0  0  0
   36.9020   29.5670   33.0330 H   0  0  0  0  0  0  0  0  0  0  0  0
   37.0220   28.1410   34.5410 N   0  0  0  0  0  0  0  0  0  0  0  0
   37.3030   27.2750   34.0000 H   0  0  0  0  0  0  0  0  0  0  0  0
   38.2750   27.2480   43.6040 C   0  0  1  0  0  0  0  0  0  0  0  0
   37.9820   28.7090   43.6050 C   0  0  2  0  0  0  0  0  0  0  0  0
   36.8910   27.7620   43.6560 C   0  0  0  0  0  0  0  0  0  0  0  0
   38.7150   26.8690   44.5390 H   0  0  0  0  0  0  0  0  0  0  0  0
   38.2680   29.2610   44.5500 H   0  0  0  0  0  0  0  0  0  0  0  0
   36.1910   27.6860   42.7850 H   0  0  0  0  0  0  0  0  0  0  0  0
   36.3150   27.7030   44.6250 H   0  0  0  0  0  0  0  0  0  0  0  0
   40.1820   26.4650   42.2190 C   0  0  0  0  0  0  0  0  0  0  0  0
   38.8050   26.5550   42.4110 C   0  0  0  0  0  0  0  0  0  0  0  0
   38.0010   25.9630   41.4670 C   0  0  0  0  0  0  0  0  0  0  0  0
   38.5960   25.3380   40.4200 N   0  0  0  0  0  0  0  0  0  0  0  0
   39.9090   25.2640   40.2540 C   0  0  0  0  0  0  0  0  0  0  0  0
   40.7010   25.8410   41.1750 N   0  0  0  0  0  0  0  0  0  0  0  0
   40.8510   26.9170   42.9390 H   0  0  0  0  0  0  0  0  0  0  0  0
   36.9150   26.0090   41.5780 H   0  0  0  0  0  0  0  0  0  0  0  0
   40.3620   24.7600   39.4110 H   0  0  0  0  0  0  0  0  0  0  0  0
  1 28  1  0  0  0  0
  2  1  1  0  0  0  0
  3  2  2  0  0  0  0
  4  3  1  0  0  0  0
  4  5  1  0  0  0  0
  5  1  2  0  0  0  0
  6  3  1  0  0  0  0
  8  7  2  0  0  0  0
  8  9  1  0  0  0  0
  9 13  1  1  0  0  0
  9  4  1  0  0  0  0
 10 14  1  0  0  0  0
 10  9  1  0  0  0  0
 11 16  1  0  0  0  0
 11 10  1  0  0  0  0
 12 11  1  0  0  0  0
 12  8  1  0  0  0  0
 15 10  1  0  0  0  0
 17 11  1  0  0  0  0
 19 20  1  0  0  0  0
 19 18  2  0  0  0  0
 20 12  1  1  0  0  0
 21 20  1  0  0  0  0
 22 21  1  0  0  0  0
 23 25  1  0  0  0  0
 23 21  1  0  0  0  0
 24 23  1  0  0  0  0
 25 19  1  0  0  0  0
 26 25  1  0  0  0  0
 27 28  1  0  0  0  0
 27 29  1  0  0  0  0
 27 30  1  1  0  0  0
 28 29  1  0  0  0  0
 28 31  1  1  0  0  0
 29 33  1  0  0  0  0
 32 29  1  0  0  0  0
 34 35  1  0  0  0  0
 34 40  1  0  0  0  0
 35 27  1  0  0  0  0
 36 41  1  0  0  0  0
 36 35  2  0  0  0  0
 37 36  1  0  0  0  0
 38 37  2  0  0  0  0
 38 39  1  0  0  0  0
 39 34  2  0  0  0  0
 42 38  1  0  0  0  0
M  END
>  <minimizedAffinity>
-5.83880758

$$$$

 OpenBabel03242516473D

 42 46  0  0  1  0  0  0  0  0999 V2000
   37.0750   26.6590   42.6250 C   0  0  0  0  0  0  0  0  0  0  0  0
   37.6350   27.4510   43.5590 N   0  0  0  0  0  0  0  0  0  0  0  0
   37.5520   28.7380   43.2000 C   0  0  0  0  0  0  0  0  0  0  0  0
   36.9200   28.7590   41.9970 N   0  0  0  0  0  0  0  0  0  0  0  0
   36.6280   27.5290   41.6400 N   0  0  0  0  0  0  0  0  0  0  0  0
   37.9170   29.5810   43.7570 H   0  0  0  0  0  0  0  0  0  0  0  0
   34.5280   29.2450   40.0930 O   0  0  0  0  0  0  0  0  0  0  0  0
   35.7550   29.5580   40.0230 C   0  0  0  0  0  0  0  0  0  0  0  0
   36.5890   29.9220   41.1920 C   0  0  2  0  0  0  0  0  0  0  0  0
   37.8320   30.5200   40.5560 C   0  0  0  0  0  0  0  0  0  0  0  0
   37.9590   29.6680   39.2890 C   0  0  0  0  0  0  0  0  0  0  0  0
   36.5770   29.6280   38.8410 N   0  0  0  0  0  0  0  0  0  0  0  0
   36.0090   30.6510   41.7860 H   0  0  0  0  0  0  0  0  0  0  0  0
   38.7140   30.4430   41.2030 H   0  0  0  0  0  0  0  0  0  0  0  0
   37.5900   31.5680   40.3160 H   0  0  0  0  0  0  0  0  0  0  0  0
   38.3330   28.6810   39.5980 H   0  0  0  0  0  0  0  0  0  0  0  0
   38.6080   30.2380   38.6200 H   0  0  0  0  0  0  0  0  0  0  0  0
   35.7520   27.2310   37.5490 O   0  0  0  0  0  0  0  0  0  0  0  0
   35.8850   28.3110   36.9180 C   0  0  0  0  0  0  0  0  0  0  0  0
   36.1080   29.6540   37.5050 C   0  0  2  0  0  3  0  0  0  0  0  0
   37.0100   30.2910   36.5100 C   0  0  0  0  0  3  0  0  0  0  0  0
   37.0320   31.3950   36.5640 H   0  0  0  0  0  0  0  0  0  0  0  0
   36.3710   29.8280   35.1930 C   0  0  0  0  0  3  0  0  0  0  0  0
   37.1570   29.7080   34.3950 H   0  0  0  0  0  0  0  0  0  0  0  0
   35.8600   28.5280   35.5110 N   0  0  0  0  0  0  0  0  0  0  0  0
   35.5150   27.8370   34.7860 H   0  0  0  0  0  0  0  0  0  0  0  0
   37.9680   24.2240   42.1920 C   0  0  1  0  0  0  0  0  0  0  0  0
   36.9070   25.2010   42.5630 C   0  0  2  0  0  0  0  0  0  0  0  0
   36.8740   24.5720   41.2630 C   0  0  0  0  0  0  0  0  0  0  0  0
   37.9070   23.2590   42.7160 H   0  0  0  0  0  0  0  0  0  0  0  0
   36.1800   24.8510   43.3570 H   0  0  0  0  0  0  0  0  0  0  0  0
   37.0400   25.1970   40.3470 H   0  0  0  0  0  0  0  0  0  0  0  0
   36.0450   23.8270   41.0800 H   0  0  0  0  0  0  0  0  0  0  0  0
   40.2670   24.7030   43.0000 C   0  0  0  0  0  0  0  0  0  0  0  0
   39.3640   24.6400   41.9410 C   0  0  0  0  0  0  0  0  0  0  0  0
   39.8420   24.9580   40.6930 C   0  0  0  0  0  0  0  0  0  0  0  0
   41.1460   25.3100   40.5760 N   0  0  0  0  0  0  0  0  0  0  0  0
   41.9900   25.3640   41.5970 C   0  0  0  0  0  0  0  0  0  0  0  0
   41.5300   25.0540   42.8200 N   0  0  0  0  0  0  0  0  0  0  0  0
   39.9330   24.4600   44.0010 H   0  0  0  0  0  0  0  0  0  0  0  0
   39.1680   24.9220   39.8330 H   0  0  0  0  0  0  0  0  0  0  0  0
   43.0280   25.6480   41.4800 H   0  0  0  0  0  0  0  0  0  0  0  0
  1  2  1  0  0  0  0
  3  2  2  0  0  0  0
  3  6  1  0  0  0  0
  4  3  1  0  0  0  0
  5  4  1  0  0  0  0
  5  1  2  0  0  0  0
  8  7  2  0  0  0  0
  8  9  1  0  0  0  0
  9 13  1  1  0  0  0
  9  4  1  0  0  0  0
 10  9  1  0  0  0  0
 10 14  1  0  0  0  0
 11 16  1  0  0  0  0
 11 10  1  0  0  0  0
 12 11  1  0  0  0  0
 12  8  1  0  0  0  0
 15 10  1  0  0  0  0
 17 11  1  0  0  0  0
 19 20  1  0  0  0  0
 19 18  2  0  0  0  0
 20 12  1  1  0  0  0
 21 22  1  0  0  0  0
 21 20  1  0  0  0  0
 23 25  1  0  0  0  0
 23 21  1  0  0  0  0
 24 23  1  0  0  0  0
 25 19  1  0  0  0  0
 26 25  1  0  0  0  0
 27 28  1  0  0  0  0
 27 30  1  1  0  0  0
 28  1  1  0  0  0  0
 28 31  1  1  0  0  0
 29 27  1  0  0  0  0
 29 28  1  0  0  0  0
 32 29  1  0  0  0  0
 33 29  1  0  0  0  0
 34 40  1  0  0  0  0
 35 27  1  0  0  0  0
 35 34  2  0  0  0  0
 36 35  1  0  0  0  0
 37 36  2  0  0  0  0
 37 38  1  0  0  0  0
 38 39  2  0  0  0  0
 39 34  1  0  0  0  0
 41 36  1  0  0  0  0
 42 38  1  0  0  0  0
M  END
>  <minimizedAffinity>
-5.82865953

$$$$

 OpenBabel03242516473D

 42 46  0  0  1  0  0  0  0  0999 V2000
   37.2830   29.0630   41.7330 C   0  0  0  0  0  0  0  0  0  0  0  0
   37.2370   28.6050   40.4670 N   0  0  0  0  0  0  0  0  0  0  0  0
   37.4030   29.6060   39.5950 C   0  0  0  0  0  0  0  0  0  0  0  0
   37.5580   30.7350   40.3340 N   0  0  0  0  0  0  0  0  0  0  0  0
   37.4890   30.4310   41.6100 N   0  0  0  0  0  0  0  0  0  0  0  0
   37.4100   29.5260   38.5230 H   0  0  0  0  0  0  0  0  0  0  0  0
   38.1050   31.7550   37.4630 O   0  0  0  0  0  0  0  0  0  0  0  0
   38.5610   32.1000   38.5950 C   0  0  0  0  0  0  0  0  0  0  0  0
   37.7720   32.0880   39.8490 C   0  0  2  0  0  0  0  0  0  0  0  0
   38.6380   32.8850   40.8090 C   0  0  0  0  0  0  0  0  0  0  0  0
   40.0430   32.4860   40.3450 C   0  0  0  0  0  0  0  0  0  0  0  0
   39.8920   32.5630   38.9020 N   0  0  0  0  0  0  0  0  0  0  0  0
   36.8070   32.5760   39.6250 H   0  0  0  0  0  0  0  0  0  0  0  0
   38.4530   32.6230   41.8580 H   0  0  0  0  0  0  0  0  0  0  0  0
   38.4330   33.9480   40.6100 H   0  0  0  0  0  0  0  0  0  0  0  0
   40.2220   31.4610   40.6990 H   0  0  0  0  0  0  0  0  0  0  0  0
   40.7090   33.2540   40.7460 H   0  0  0  0  0  0  0  0  0  0  0  0
   41.5820   30.6990   37.5740 O   0  0  0  0  0  0  0  0  0  0  0  0
   41.7710   31.9400   37.4910 C   0  0  0  0  0  0  0  0  0  0  0  0
   40.8530   33.0060   37.9610 C   0  0  2  0  0  3  0  0  0  0  0  0
   41.7960   34.0510   38.4370 C   0  0  0  0  0  3  0  0  0  0  0  0
   41.3500   35.0600   38.5130 H   0  0  0  0  0  0  0  0  0  0  0  0
   42.8610   34.0140   37.3310 C   0  0  0  0  0  3  0  0  0  0  0  0
   43.8740   34.2740   37.7510 H   0  0  0  0  0  0  0  0  0  0  0  0
   42.8850   32.6350   36.9390 N   0  0  0  0  0  0  0  0  0  0  0  0
   43.6340   32.2110   36.3240 H   0  0  0  0  0  0  0  0  0  0  0  0
   38.1780   27.4320   43.5890 C   0  0  1  0  0  0  0  0  0  0  0  0
   37.1680   28.3680   43.0210 C   0  0  2  0  0  0  0  0  0  0  0  0
   36.9080   26.9460   43.0100 C   0  0  0  0  0  0  0  0  0  0  0  0
   38.2620   27.4590   44.6860 H   0  0  0  0  0  0  0  0  0  0  0  0
   36.6280   29.0150   43.7750 H   0  0  0  0  0  0  0  0  0  0  0  0
   36.8650   26.4050   42.0300 H   0  0  0  0  0  0  0  0  0  0  0  0
   36.0940   26.5740   43.6970 H   0  0  0  0  0  0  0  0  0  0  0  0
   39.6140   26.1210   42.0440 C   0  0  0  0  0  0  0  0  0  0  0  0
   39.4780   27.1860   42.9320 C   0  0  0  0  0  0  0  0  0  0  0  0
   40.5850   27.9750   43.1350 C   0  0  0  0  0  0  0  0  0  0  0  0
   41.7240   27.6660   42.4650 N   0  0  0  0  0  0  0  0  0  0  0  0
   41.8320   26.6480   41.6240 C   0  0  0  0  0  0  0  0  0  0  0  0
   40.7530   25.8720   41.4210 N   0  0  0  0  0  0  0  0  0  0  0  0
   38.7660   25.4740   41.8540 H   0  0  0  0  0  0  0  0  0  0  0  0
   40.5240   28.8210   43.8230 H   0  0  0  0  0  0  0  0  0  0  0  0
   42.7510   26.4200   41.0990 H   0  0  0  0  0  0  0  0  0  0  0  0
  1 28  1  0  0  0  0
  2  1  1  0  0  0  0
  3  4  1  0  0  0  0
  3  2  2  0  0  0  0
  4  5  1  0  0  0  0
  5  1  2  0  0  0  0
  6  3  1  0  0  0  0
  7  8  2  0  0  0  0
  8 12  1  0  0  0  0
  8  9  1  0  0  0  0
  9 13  1  6  0  0  0
  9  4  1  0  0  0  0
  9 10  1  0  0  0  0
 10 14  1  0  0  0  0
 11 16  1  0  0  0  0
 11 17  1  0  0  0  0
 11 10  1  0  0  0  0
 12 11  1  0  0  0  0
 15 10  1  0  0  0  0
 19 18  2  0  0  0  0
 19 20  1  0  0  0  0
 20 21  1  0  0  0  0
 20 12  1  1  0  0  0
 21 22  1  0  0  0  0
 23 24  1  0  0  0  0
 23 21  1  0  0  0  0
 25 23  1  0  0  0  0
 25 19  1  0  0  0  0
 26 25  1  0  0  0  0
 27 30  1  1  0  0  0
 28 27  1  0  0  0  0
 28 31  1  1  0  0  0
 29 28  1  0  0  0  0
 29 27  1  0  0  0  0
 29 33  1  0  0  0  0
 32 29  1  0  0  0  0
 34 35  1  0  0  0  0
 35 36  2  0  0  0  0
 35 27  1  0  0  0  0
 36 41  1  0  0  0  0
 37 36  1  0  0  0  0
 38 37  2  0  0  0  0
 39 38  1  0  0  0  0
 39 34  2  0  0  0  0
 40 34  1  0  0  0  0
 42 38  1  0  0  0  0
M  END
>  <minimizedAffinity>
-5.81182289

$$$$

 OpenBabel03242516473D

 42 46  0  0  1  0  0  0  0  0999 V2000
   37.3740   29.1620   42.0100 C   0  0  0  0  0  0  0  0  0  0  0  0
   36.6140   28.8510   40.9430 N   0  0  0  0  0  0  0  0  0  0  0  0
   37.0730   29.4560   39.8410 C   0  0  0  0  0  0  0  0  0  0  0  0
   38.1610   30.1750   40.2250 N   0  0  0  0  0  0  0  0  0  0  0  0
   38.3550   30.0120   41.5140 N   0  0  0  0  0  0  0  0  0  0  0  0
   36.6590   29.3840   38.8520 H   0  0  0  0  0  0  0  0  0  0  0  0
   41.2320   30.1220   39.8430 O   0  0  0  0  0  0  0  0  0  0  0  0
   40.3960   31.0720   39.9170 C   0  0  0  0  0  0  0  0  0  0  0  0
   39.0120   31.0060   39.3910 C   0  0  2  0  0  0  0  0  0  0  0  0
   38.5620   32.4560   39.4200 C   0  0  0  0  0  0  0  0  0  0  0  0
   39.2790   32.9660   40.6750 C   0  0  0  0  0  0  0  0  0  0  0  0
   40.5950   32.3740   40.5030 N   0  0  0  0  0  0  0  0  0  0  0  0
   39.0770   30.5900   38.3700 H   0  0  0  0  0  0  0  0  0  0  0  0
   37.4720   32.5570   39.4900 H   0  0  0  0  0  0  0  0  0  0  0  0
   38.9590   32.9270   38.5070 H   0  0  0  0  0  0  0  0  0  0  0  0
   38.7400   32.5600   41.5430 H   0  0  0  0  0  0  0  0  0  0  0  0
   39.2860   34.0550   40.5820 H   0  0  0  0  0  0  0  0  0  0  0  0
   41.9700   31.5740   42.8620 O   0  0  0  0  0  0  0  0  0  0  0  0
   42.3460   32.5610   42.1800 C   0  0  0  0  0  0  0  0  0  0  0  0
   41.8450   32.9500   40.8390 C   0  0  2  0  0  3  0  0  0  0  0  0
   41.8820   34.4340   40.9030 C   0  0  0  0  0  3  0  0  0  0  0  0
   41.8770   34.9280   39.9140 H   0  0  0  0  0  0  0  0  0  0  0  0
   43.2220   34.6660   41.6160 C   0  0  0  0  0  3  0  0  0  0  0  0
   43.1780   35.6010   42.2430 H   0  0  0  0  0  0  0  0  0  0  0  0
   43.3260   33.5430   42.5010 N   0  0  0  0  0  0  0  0  0  0  0  0
   44.0390   33.4720   43.2800 H   0  0  0  0  0  0  0  0  0  0  0  0
   38.0210   27.5990   44.0220 C   0  0  1  0  0  0  0  0  0  0  0  0
   37.2910   28.7470   43.4160 C   0  0  2  0  0  0  0  0  0  0  0  0
   36.5750   27.5310   43.7280 C   0  0  0  0  0  0  0  0  0  0  0  0
   38.3230   27.7490   45.0690 H   0  0  0  0  0  0  0  0  0  0  0  0
   37.1570   29.6470   44.0880 H   0  0  0  0  0  0  0  0  0  0  0  0
   36.1610   26.9090   42.8930 H   0  0  0  0  0  0  0  0  0  0  0  0
   35.8340   27.5820   44.5780 H   0  0  0  0  0  0  0  0  0  0  0  0
   40.3520   27.1730   43.2790 C   0  0  0  0  0  0  0  0  0  0  0  0
   39.0080   26.8060   43.2600 C   0  0  0  0  0  0  0  0  0  0  0  0
   38.6750   25.6910   42.5300 C   0  0  0  0  0  0  0  0  0  0  0  0
   39.6670   25.0290   41.8820 N   0  0  0  0  0  0  0  0  0  0  0  0
   40.9400   25.3950   41.9130 C   0  0  0  0  0  0  0  0  0  0  0  0
   41.2730   26.4850   42.6250 N   0  0  0  0  0  0  0  0  0  0  0  0
   40.6580   28.0460   43.8420 H   0  0  0  0  0  0  0  0  0  0  0  0
   37.6330   25.3660   42.4870 H   0  0  0  0  0  0  0  0  0  0  0  0
   41.7150   24.8510   41.3880 H   0  0  0  0  0  0  0  0  0  0  0  0
  1 28  1  0  0  0  0
  2  1  1  0  0  0  0
  3  4  1  0  0  0  0
  3  2  2  0  0  0  0
  4  5  1  0  0  0  0
  5  1  2  0  0  0  0
  6  3  1  0  0  0  0
  7  8  2  0  0  0  0
  8 12  1  0  0  0  0
  9 13  1  6  0  0  0
  9 10  1  0  0  0  0
  9  8  1  0  0  0  0
  9  4  1  0  0  0  0
 10 14  1  0  0  0  0
 10 11  1  0  0  0  0
 11 16  1  0  0  0  0
 12 11  1  0  0  0  0
 15 10  1  0  0  0  0
 17 11  1  0  0  0  0
 19 25  1  0  0  0  0
 19 18  2  0  0  0  0
 20 12  1  1  0  0  0
 20 21  1  0  0  0  0
 20 19  1  0  0  0  0
 21 23  1  0  0  0  0
 22 21  1  0  0  0  0
 23 24  1  0  0  0  0
 23 25  1  0  0  0  0
 25 26  1  0  0  0  0
 27 30  1  1  0  0  0
 28 29  1  0  0  0  0
 28 27  1  0  0  0  0
 28 31  1  1  0  0  0
 29 27  1  0  0  0  0
 29 33  1  0  0  0  0
 32 29  1  0  0  0  0
 34 40  1  0  0  0  0
 35 34  1  0  0  0  0
 35 27  1  0  0  0  0
 36 35  2  0  0  0  0
 37 38  2  0  0  0  0
 37 36  1  0  0  0  0
 38 39  1  0  0  0  0
 39 34  2  0  0  0  0
 41 36  1  0  0  0  0
 42 38  1  0  0  0  0
M  END
>  <minimizedAffinity>
-5.80914211

$$$$
