
     RDKit          3D

 36 38  0  0  0  0  0  0  0  0999 V2000
   44.4815   35.7480   45.0120 C   0  0  0  0  0  0  0  0  0  0  0  0
   45.1177   35.7156   43.7559 C   0  0  0  0  0  0  0  0  0  0  0  0
   46.0118   34.7240   43.4871 C   0  0  0  0  0  0  0  0  0  0  0  0
   46.2357   33.8132   44.4671 N   0  0  0  0  0  0  0  0  0  0  0  0
   45.6247   33.8541   45.6575 C   0  0  0  0  0  0  0  0  0  0  0  0
   44.7524   34.8118   45.9354 N   0  0  0  0  0  0  0  0  0  0  0  0
   45.9470   32.8368   46.5969 N   0  0  0  0  0  0  0  0  0  0  0  0
   45.1627   32.5623   47.8061 C   0  0  0  0  0  0  0  0  0  0  0  0
   46.2480   32.2396   48.8096 C   0  0  0  0  0  0  0  0  0  0  0  0
   47.5200   32.0683   48.0404 C   0  0  0  0  0  0  0  0  0  0  0  0
   47.0313   31.8900   46.6093 C   0  0  1  0  0  0  0  0  0  0  0  0
   44.7636   36.7556   42.8290 N   0  0  0  0  0  0  0  0  0  0  0  0
   46.4857   30.2047   46.4047 S   0  0  0  0  0  0  0  0  0  0  0  0
   43.7521   36.4961   45.3282 H   0  0  0  0  0  0  0  0  0  0  0  0
   46.4977   34.7012   42.5265 H   0  0  0  0  0  0  0  0  0  0  0  0
   44.6094   31.6205   47.5936 H   0  0  0  0  0  0  0  0  0  0  0  0
   44.5144   33.3936   48.0870 H   0  0  0  0  0  0  0  0  0  0  0  0
   46.2748   33.0502   49.5705 H   0  0  0  0  0  0  0  0  0  0  0  0
   45.9913   31.3044   49.3848 H   0  0  0  0  0  0  0  0  0  0  0  0
   48.0096   31.1194   48.3469 H   0  0  0  0  0  0  0  0  0  0  0  0
   48.1582   32.9437   48.1570 H   0  0  0  0  0  0  0  0  0  0  0  0
   47.8503   32.1778   45.9192 H   0  0  0  0  0  0  0  0  0  0  0  0
   44.0640   36.6088   42.0516 H   0  0  0  0  0  0  0  0  0  0  0  0
   45.2052   37.6981   42.9134 H   0  0  0  0  0  0  0  0  0  0  0  0
   47.6514   28.2831   43.9288 O   0  0  0  0  0  0  0  0  0  0  0  0
   46.5154   28.8100   44.0246 C   0  0  0  0  0  0  0  0  0  0  0  0
   45.7700   29.7720   44.8591 C   0  0  1  0  0  0  0  0  0  0  0  0
   44.3946   29.1676   44.8855 C   0  0  2  0  0  0  0  0  0  0  0  0
   43.5984   29.8754   45.1828 H   0  0  0  0  0  0  0  0  0  0  0  0
   44.2019   28.9644   43.3749 C   0  0  1  0  0  0  0  0  0  0  0  0
   43.3810   28.2975   43.1287 H   0  0  0  0  0  0  0  0  0  0  0  0
   45.5257   28.4222   43.0482 N   0  0  0  0  0  0  0  0  0  0  0  0
   45.6737   30.7051   44.2398 H   0  0  0  0  0  0  0  0  0  0  0  0
   44.3355   28.1734   45.3464 H   0  0  0  0  0  0  0  0  0  0  0  0
   44.1614   29.9753   42.9231 H   0  0  0  0  0  0  0  0  0  0  0  0
   45.6106   27.8406   42.1857 H   0  0  0  0  0  0  0  0  0  0  0  0
  1  6  2  0
  2  1  1  0
  3  2  2  0
  3  4  1  0
  4  5  2  0
  5  6  1  0
  5  7  1  0
  7 11  1  0
  7  8  1  0
  8  9  1  0
 10  9  1  0
 11 10  1  0
 12  2  1  0
 13 11  1  0
  1 14  1  0
  3 15  1  0
  8 16  1  0
  8 17  1  0
  9 18  1  0
  9 19  1  0
 10 20  1  0
 10 21  1  0
 11 22  1  6
 12 23  1  0
 12 24  1  0
 25 26  2  0
 26 27  1  0
 27 28  1  0
 28 29  1  1
 28 30  1  0
 30 31  1  1
 30 32  1  0
 32 26  1  0
 27 33  1  6
 28 34  1  0
 30 35  1  0
 32 36  1  0
 13 27  1  0
M  ISO  8  14  14  15  14  16  13  17  13  18  13  19  13  20  13  21  13
M  ISO  3  22  13  29   8  31   8
M  END
>  <DihAtoms>  (1) 
10,12,26,25

>  <DihDeg>  (1) 
-66.25151108877041

$$$$
