
 OpenBabel03242516453D

 42 46  0  0  1  0  0  0  0  0999 V2000
   45.1940   33.4640   41.8860 C   0  0  0  0  0  0  0  0  0  0  0  0
   44.5310   32.2920   41.8800 N   0  0  0  0  0  0  0  0  0  0  0  0
   43.2210   32.4890   41.6890 C   0  0  0  0  0  0  0  0  0  0  0  0
   43.0500   33.8320   41.5710 N   0  0  0  0  0  0  0  0  0  0  0  0
   44.2150   34.4290   41.6860 N   0  0  0  0  0  0  0  0  0  0  0  0
   42.4610   31.7310   41.6400 H   0  0  0  0  0  0  0  0  0  0  0  0
   40.1220   32.8510   41.7900 O   0  0  0  0  0  0  0  0  0  0  0  0
   40.7050   33.6300   40.9770 C   0  0  0  0  0  0  0  0  0  0  0  0
   41.8060   34.5490   41.3480 C   0  0  2  0  0  0  0  0  0  0  0  0
   41.9100   35.4670   40.1430 C   0  0  0  0  0  0  0  0  0  0  0  0
   41.5700   34.5030   39.0020 C   0  0  0  0  0  0  0  0  0  0  0  0
   40.4370   33.7910   39.5690 N   0  0  0  0  0  0  0  0  0  0  0  0
   41.4910   35.0710   42.2690 H   0  0  0  0  0  0  0  0  0  0  0  0
   42.9090   35.9080   40.0350 H   0  0  0  0  0  0  0  0  0  0  0  0
   41.1340   36.2390   40.2670 H   0  0  0  0  0  0  0  0  0  0  0  0
   42.4460   33.8570   38.8510 H   0  0  0  0  0  0  0  0  0  0  0  0
   41.2930   35.1400   38.1580 H   0  0  0  0  0  0  0  0  0  0  0  0
   40.3020   31.1310   38.5680 O   0  0  0  0  0  0  0  0  0  0  0  0
   39.4340   31.9930   38.2760 C   0  0  0  0  0  0  0  0  0  0  0  0
   39.2820   33.3350   38.8880 C   0  0  2  0  0  0  0  0  0  0  0  0
   38.8370   34.1620   37.7360 C   0  0  0  0  0  0  0  0  0  0  0  0
   38.3400   35.1070   38.0240 H   0  0  0  0  0  0  0  0  0  0  0  0
   37.8380   33.2120   37.0590 C   0  0  0  0  0  0  0  0  0  0  0  0
   37.8280   33.3800   35.9440 H   0  0  0  0  0  0  0  0  0  0  0  0
   38.3930   31.9150   37.3060 N   0  0  0  0  0  0  0  0  0  0  0  0
   38.0630   31.0310   36.8260 H   0  0  0  0  0  0  0  0  0  0  0  0
   47.3560   33.8140   43.3390 C   0  0  1  0  0  0  0  0  0  0  0  0
   46.6210   33.7720   42.0450 C   0  0  2  0  0  0  0  0  0  0  0  0
   46.9850   35.0480   42.6170 C   0  0  0  0  0  0  0  0  0  0  0  0
   48.4040   33.4830   43.2820 H   0  0  0  0  0  0  0  0  0  0  0  0
   47.2120   33.3820   41.1630 H   0  0  0  0  0  0  0  0  0  0  0  0
   46.1780   35.7360   42.9810 H   0  0  0  0  0  0  0  0  0  0  0  0
   47.7840   35.6360   42.0790 H   0  0  0  0  0  0  0  0  0  0  0  0
   47.0700   32.2430   45.2410 C   0  0  0  0  0  0  0  0  0  0  0  0
   46.7170   33.4380   44.6180 C   0  0  0  0  0  0  0  0  0  0  0  0
   45.7860   34.2230   45.2530 C   0  0  0  0  0  0  0  0  0  0  0  0
   45.2760   33.7870   46.4320 N   0  0  0  0  0  0  0  0  0  0  0  0
   45.6250   32.6460   47.0090 C   0  0  0  0  0  0  0  0  0  0  0  0
   46.5360   31.8730   46.3930 N   0  0  0  0  0  0  0  0  0  0  0  0
   47.8000   31.5940   44.7750 H   0  0  0  0  0  0  0  0  0  0  0  0
   45.4790   35.1690   44.8000 H   0  0  0  0  0  0  0  0  0  0  0  0
   45.2060   32.3170   47.9510 H   0  0  0  0  0  0  0  0  0  0  0  0
  1 28  1  0  0  0  0
  2  1  1  0  0  0  0
  3  2  2  0  0  0  0
  4  5  1  0  0  0  0
  4  3  1  0  0  0  0
  5  1  2  0  0  0  0
  6  3  1  0  0  0  0
  8  9  1  0  0  0  0
  8  7  2  0  0  0  0
  9  4  1  0  0  0  0
  9 13  1  1  0  0  0
 10 15  1  0  0  0  0
 10  9  1  0  0  0  0
 11 12  1  0  0  0  0
 11 10  1  0  0  0  0
 12  8  1  0  0  0  0
 14 10  1  0  0  0  0
 16 11  1  0  0  0  0
 17 11  1  0  0  0  0
 19 18  2  0  0  0  0
 19 20  1  0  0  0  0
 20 12  1  6  0  0  0
 21 22  1  0  0  0  0
 21 20  1  0  0  0  0
 23 25  1  0  0  0  0
 23 21  1  0  0  0  0
 24 23  1  0  0  0  0
 25 19  1  0  0  0  0
 26 25  1  0  0  0  0
 27 30  1  6  0  0  0
 27 35  1  0  0  0  0
 28 31  1  6  0  0  0
 28 29  1  0  0  0  0
 28 27  1  0  0  0  0
 29 32  1  0  0  0  0
 29 27  1  0  0  0  0
 33 29  1  0  0  0  0
 34 39  1  0  0  0  0
 35 34  2  0  0  0  0
 35 36  1  0  0  0  0
 36 37  2  0  0  0  0
 37 38  1  0  0  0  0
 38 42  1  0  0  0  0
 39 38  2  0  0  0  0
 40 34  1  0  0  0  0
 41 36  1  0  0  0  0
M  END
>  <minimizedAffinity>
-5.75795555

>  <minimizedRMSD>
0.914547443

$$$$
