REMARK  Name = 
REMARK  3 active torsions:
REMARK  status: ('A' for Active; 'I' for Inactive)
REMARK    1  A    between atoms: C_2  and  N_12
REMARK    2  A    between atoms: C_11  and  S_13
REMARK    3  A    between atoms: S_13  and  C_27
REMARK                            x       y       z     vdW  Elec       q    Type
REMARK                         _______ _______ _______ _____ _____    ______ ____
ROOT
ATOM      1  C   UNL     1      44.481  35.748  45.012  0.00  0.00    +0.000 A 
ATOM      2  C   UNL     1      45.118  35.716  43.756  0.00  0.00    +0.000 A 
ATOM      3  C   UNL     1      46.012  34.724  43.487  0.00  0.00    +0.000 A 
ATOM      4  N   UNL     1      46.236  33.813  44.467  0.00  0.00    +0.000 NA
ATOM      5  C   UNL     1      45.625  33.854  45.657  0.00  0.00    +0.000 A 
ATOM      6  N   UNL     1      44.752  34.812  45.935  0.00  0.00    +0.000 NA
ATOM      7  N   UNL     1      45.947  32.837  46.597  0.00  0.00    +0.000 N 
ATOM      8  C   UNL     1      45.163  32.562  47.806  0.00  0.00    +0.000 C 
ATOM      9  C   UNL     1      46.248  32.240  48.810  0.00  0.00    +0.000 C 
ATOM     10  C   UNL     1      47.520  32.068  48.040  0.00  0.00    +0.000 C 
ATOM     11  C   UNL     1      47.031  31.890  46.609  0.00  0.00    +0.000 C 
ATOM     12  H   UNL     1      43.752  36.496  45.328  0.00  0.00    +0.000 HD
ATOM     13  H   UNL     1      46.498  34.701  42.526  0.00  0.00    +0.000 HD
ATOM     14  H   UNL     1      44.609  31.620  47.594  0.00  0.00    +0.000 HD
ATOM     15  H   UNL     1      44.514  33.394  48.087  0.00  0.00    +0.000 HD
ATOM     16  H   UNL     1      46.275  33.050  49.571  0.00  0.00    +0.000 HD
ATOM     17  H   UNL     1      45.991  31.304  49.385  0.00  0.00    +0.000 HD
ATOM     18  H   UNL     1      48.010  31.119  48.347  0.00  0.00    +0.000 HD
ATOM     19  H   UNL     1      48.158  32.944  48.157  0.00  0.00    +0.000 HD
ATOM     20  H   UNL     1      47.850  32.178  45.919  0.00  0.00    +0.000 HD
ENDROOT
BRANCH   2  21
ATOM     21  N   UNL     1      44.764  36.756  42.829  0.00  0.00    +0.000 N 
ATOM     22  H   UNL     1      44.064  36.609  42.052  0.00  0.00    +0.000 HD
ATOM     23  H   UNL     1      45.205  37.698  42.913  0.00  0.00    +0.000 HD
ENDBRANCH   2  21
BRANCH  11  24
ATOM     24  S   UNL     1      46.486  30.205  46.405  0.00  0.00    +0.000 S 
BRANCH  24  27
ATOM     25  O   UNL     1      44.913  32.087  44.132  0.00  0.00    +0.000 OA
ATOM     26  C   UNL     1      45.232  30.876  44.041  0.00  0.00    +0.000 C 
ATOM     27  C   UNL     1      45.770  29.772  44.859  0.00  0.00    +0.000 C 
ATOM     28  C   UNL     1      46.646  29.048  43.876  0.00  0.00    +0.000 C 
ATOM     29  H   UNL     1      46.898  28.014  44.176  0.00  0.00    +0.000 HD
ATOM     30  C   UNL     1      45.633  28.895  42.732  0.00  0.00    +0.000 C 
ATOM     31  H   UNL     1      46.088  28.626  41.783  0.00  0.00    +0.000 HD
ATOM     32  N   UNL     1      45.059  30.245  42.754  0.00  0.00    +0.000 N 
ATOM     33  H   UNL     1      44.608  30.593  41.879  0.00  0.00    +0.000 HD
ENDBRANCH  24  27
ENDBRANCH  11  24
TORSDOF 3
