
 OpenBabel03242515113D

 36 38  0  0  1  0  0  0  0  0999 V2000
   39.9260   28.4960   42.5540 C   0  0  0  0  0  0  0  0  0  0  0  0
   41.2670   28.7550   42.6480 C   0  0  0  0  0  0  0  0  0  0  0  0
   41.8180   30.0050   42.7330 C   0  0  0  0  0  0  0  0  0  0  0  0
   40.9850   31.0840   42.7250 C   0  0  0  0  0  0  0  0  0  0  0  0
   39.6410   30.8800   42.6330 C   0  0  0  0  0  0  0  0  0  0  0  0
   39.1140   29.6030   42.5470 C   0  0  0  0  0  0  0  0  0  0  0  0
   41.9480   27.8920   42.6560 H   0  0  0  0  0  0  0  0  0  0  0  0
   42.9030   30.0930   42.8050 H   0  0  0  0  0  0  0  0  0  0  0  0
   41.4520   32.0600   42.7940 H   0  0  0  0  0  0  0  0  0  0  0  0
   39.0220   31.7740   42.6300 H   0  0  0  0  0  0  0  0  0  0  0  0
   39.5540   24.9080   43.1890 C   0  0  0  0  0  0  0  0  0  0  0  0
   38.4760   24.5480   42.3740 C   0  0  0  0  0  0  0  0  0  0  0  0
   37.8730   25.5460   41.6020 C   0  0  0  0  0  0  0  0  0  0  0  0
   38.3330   26.8430   41.6470 N   0  0  0  0  0  0  0  0  0  0  0  0
   39.3980   27.1460   42.4660 C   0  0  0  0  0  0  0  0  0  0  0  0
   39.9680   26.1730   43.2040 N   0  0  0  0  0  0  0  0  0  0  0  0
   39.9600   24.1000   43.7460 H   0  0  0  0  0  0  0  0  0  0  0  0
   38.0770   23.5650   42.2980 H   0  0  0  0  0  0  0  0  0  0  0  0
   37.0340   25.2730   40.9660 H   0  0  0  0  0  0  0  0  0  0  0  0
   37.6990   29.5570   42.4570 N   0  0  0  0  0  0  0  0  0  0  0  0
   37.2830   29.2330   43.3750 H   0  0  0  0  0  0  0  0  0  0  0  0
   36.6120   29.9190   41.1750 S   0  0  0  0  0  0  0  0  0  0  0  0
   35.8210   28.6470   40.8740 O   0  0  0  0  0  0  0  0  0  0  0  0
   34.9090   28.7500   40.4860 H   0  0  0  0  0  0  0  0  0  0  0  0
   35.6520   31.0110   41.4520 O   0  0  0  0  0  0  0  0  0  0  0  0
   34.7200   30.8370   41.7630 H   0  0  0  0  0  0  0  0  0  0  0  0
   37.5560   30.1940   39.8160 O   0  0  0  0  0  0  0  0  0  0  0  0
   37.4040   33.4020   40.1320 O   0  0  0  0  0  0  0  0  0  0  0  0
   37.6690   32.4480   39.3300 C   0  0  0  0  0  0  0  0  0  0  0  0
   37.0650   31.1400   38.9570 C   0  0  1  0  0  3  0  0  0  0  0  0
   37.5560   30.9960   37.5420 C   0  0  0  0  0  3  0  0  0  0  0  0
   36.8660   31.5660   36.8880 H   0  0  0  0  0  0  0  0  0  0  0  0
   38.9440   31.6060   37.5290 C   0  0  0  0  0  3  0  0  0  0  0  0
   39.7300   30.8480   37.7190 H   0  0  0  0  0  0  0  0  0  0  0  0
   38.8640   32.6320   38.5430 N   0  0  0  0  0  0  0  0  0  0  0  0
   39.6420   33.3480   38.5850 H   0  0  0  0  0  0  0  0  0  0  0  0
  1  2  1  0  0  0  0
  2  7  1  0  0  0  0
  2  3  2  0  0  0  0
  3  8  1  0  0  0  0
  4  3  1  0  0  0  0
  4  9  1  0  0  0  0
  5  4  2  0  0  0  0
  6  1  2  0  0  0  0
  6  5  1  0  0  0  0
 10  5  1  0  0  0  0
 11 16  1  0  0  0  0
 11 17  1  0  0  0  0
 12 11  2  0  0  0  0
 13 14  2  0  0  0  0
 13 12  1  0  0  0  0
 14 15  1  0  0  0  0
 15  1  1  0  0  0  0
 15 16  2  0  0  0  0
 18 12  1  0  0  0  0
 19 13  1  0  0  0  0
 20  6  1  0  0  0  0
 20 21  1  0  0  0  0
 22 25  1  0  0  0  0
 22 20  1  0  0  0  0
 23 22  1  0  0  0  0
 24 23  1  0  0  0  0
 25 26  1  0  0  0  0
 27 22  1  0  0  0  0
 29 28  2  0  0  0  0
 30 29  1  0  0  0  0
 30 27  1  1  0  0  0
 31 30  1  0  0  0  0
 32 31  1  0  0  0  0
 33 31  1  0  0  0  0
 33 34  1  0  0  0  0
 33 35  1  0  0  0  0
 35 36  1  0  0  0  0
 35 29  1  0  0  0  0
M  END
>  <minimizedAffinity>
-5.97201395

$$$$

 OpenBabel03242515113D

 36 38  0  0  1  0  0  0  0  0999 V2000
   36.7630   26.2520   39.8760 C   0  0  0  0  0  0  0  0  0  0  0  0
   36.5290   24.9020   39.8800 C   0  0  0  0  0  0  0  0  0  0  0  0
   36.6120   24.0980   40.9840 C   0  0  0  0  0  0  0  0  0  0  0  0
   36.9520   24.6640   42.1770 C   0  0  0  0  0  0  0  0  0  0  0  0
   37.1940   26.0040   42.2260 C   0  0  0  0  0  0  0  0  0  0  0  0
   37.1030   26.7910   41.0910 C   0  0  0  0  0  0  0  0  0  0  0  0
   36.2540   24.4350   38.9240 H   0  0  0  0  0  0  0  0  0  0  0  0
   36.4040   23.0330   40.8700 H   0  0  0  0  0  0  0  0  0  0  0  0
   37.0080   24.0000   43.0320 H   0  0  0  0  0  0  0  0  0  0  0  0
   37.4610   26.4050   43.2010 H   0  0  0  0  0  0  0  0  0  0  0  0
   37.6220   28.7290   37.3170 C   0  0  0  0  0  0  0  0  0  0  0  0
   36.5630   28.6330   36.4100 C   0  0  0  0  0  0  0  0  0  0  0  0
   35.5470   27.7100   36.6800 C   0  0  0  0  0  0  0  0  0  0  0  0
   35.5950   26.9230   37.8080 N   0  0  0  0  0  0  0  0  0  0  0  0
   36.6600   27.0560   38.6700 C   0  0  0  0  0  0  0  0  0  0  0  0
   37.6310   27.9490   38.3960 N   0  0  0  0  0  0  0  0  0  0  0  0
   38.3550   29.4480   37.0480 H   0  0  0  0  0  0  0  0  0  0  0  0
   36.4710   29.2130   35.5230 H   0  0  0  0  0  0  0  0  0  0  0  0
   34.7190   27.6310   35.9780 H   0  0  0  0  0  0  0  0  0  0  0  0
   37.3850   28.1650   41.3050 N   0  0  0  0  0  0  0  0  0  0  0  0
   37.0190   28.7450   40.4990 H   0  0  0  0  0  0  0  0  0  0  0  0
   38.1780   28.9940   42.5850 S   0  0  0  0  0  0  0  0  0  0  0  0
   37.1410   29.2430   43.6800 O   0  0  0  0  0  0  0  0  0  0  0  0
   37.4680   29.3230   44.6170 H   0  0  0  0  0  0  0  0  0  0  0  0
   39.3260   28.2790   43.1850 O   0  0  0  0  0  0  0  0  0  0  0  0
   39.2430   27.7370   44.0190 H   0  0  0  0  0  0  0  0  0  0  0  0
   38.5780   30.5110   41.9920 O   0  0  0  0  0  0  0  0  0  0  0  0
   35.8060   30.5840   40.3400 O   0  0  0  0  0  0  0  0  0  0  0  0
   36.9490   31.1310   40.4770 C   0  0  0  0  0  0  0  0  0  0  0  0
   38.3580   30.6810   40.6510 C   0  0  1  0  0  3  0  0  0  0  0  0
   39.1020   31.8420   40.0510 C   0  0  0  0  0  3  0  0  0  0  0  0
   39.1290   31.6910   38.9520 H   0  0  0  0  0  0  0  0  0  0  0  0
   38.2920   33.0730   40.4090 C   0  0  0  0  0  3  0  0  0  0  0  0
   38.6390   33.5350   41.3540 H   0  0  0  0  0  0  0  0  0  0  0  0
   36.9370   32.5730   40.4650 N   0  0  0  0  0  0  0  0  0  0  0  0
   36.1500   33.2790   40.4900 H   0  0  0  0  0  0  0  0  0  0  0  0
  1  2  2  0  0  0  0
  1  6  1  0  0  0  0
  2  3  1  0  0  0  0
  3  4  2  0  0  0  0
  4  5  1  0  0  0  0
  4  9  1  0  0  0  0
  5 10  1  0  0  0  0
  6 20  1  0  0  0  0
  6  5  2  0  0  0  0
  7  2  1  0  0  0  0
  8  3  1  0  0  0  0
 11 16  1  0  0  0  0
 12 13  1  0  0  0  0
 12 11  2  0  0  0  0
 13 14  2  0  0  0  0
 14 15  1  0  0  0  0
 15  1  1  0  0  0  0
 16 15  2  0  0  0  0
 17 11  1  0  0  0  0
 18 12  1  0  0  0  0
 19 13  1  0  0  0  0
 20 22  1  0  0  0  0
 21 20  1  0  0  0  0
 22 25  1  0  0  0  0
 22 23  1  0  0  0  0
 23 24  1  0  0  0  0
 25 26  1  0  0  0  0
 27 22  1  0  0  0  0
 28 29  2  0  0  0  0
 29 30  1  0  0  0  0
 30 27  1  1  0  0  0
 31 33  1  0  0  0  0
 31 30  1  0  0  0  0
 32 31  1  0  0  0  0
 33 35  1  0  0  0  0
 33 34  1  0  0  0  0
 35 29  1  0  0  0  0
 35 36  1  0  0  0  0
M  END
>  <minimizedAffinity>
-5.81741476

$$$$

 OpenBabel03242515113D

 36 38  0  0  1  0  0  0  0  0999 V2000
   37.4050   29.6490   39.6930 C   0  0  0  0  0  0  0  0  0  0  0  0
   37.2020   28.8420   38.6050 C   0  0  0  0  0  0  0  0  0  0  0  0
   37.0800   29.2850   37.3160 C   0  0  0  0  0  0  0  0  0  0  0  0
   37.1650   30.6250   37.0770 C   0  0  0  0  0  0  0  0  0  0  0  0
   37.3670   31.4700   38.1270 C   0  0  0  0  0  0  0  0  0  0  0  0
   37.4850   30.9920   39.4210 C   0  0  0  0  0  0  0  0  0  0  0  0
   37.1320   27.7600   38.7850 H   0  0  0  0  0  0  0  0  0  0  0  0
   36.9190   28.5500   36.5250 H   0  0  0  0  0  0  0  0  0  0  0  0
   37.0650   30.9430   36.0460 H   0  0  0  0  0  0  0  0  0  0  0  0
   37.4270   32.5280   37.8830 H   0  0  0  0  0  0  0  0  0  0  0  0
   36.5720   27.8010   42.7440 C   0  0  0  0  0  0  0  0  0  0  0  0
   37.6560   28.0670   43.5860 C   0  0  0  0  0  0  0  0  0  0  0  0
   38.6800   28.8860   43.1000 C   0  0  0  0  0  0  0  0  0  0  0  0
   38.6160   29.4130   41.8310 N   0  0  0  0  0  0  0  0  0  0  0  0
   37.5260   29.1210   41.0410 C   0  0  0  0  0  0  0  0  0  0  0  0
   36.5480   28.3290   41.5220 N   0  0  0  0  0  0  0  0  0  0  0  0
   35.8340   27.1720   43.1780 H   0  0  0  0  0  0  0  0  0  0  0  0
   37.7620   27.6890   44.5740 H   0  0  0  0  0  0  0  0  0  0  0  0
   39.5270   29.0970   43.7510 H   0  0  0  0  0  0  0  0  0  0  0  0
   37.6920   31.9950   40.4010 N   0  0  0  0  0  0  0  0  0  0  0  0
   36.7800   32.2280   40.8870 H   0  0  0  0  0  0  0  0  0  0  0  0
   39.0990   32.8470   40.9020 S   0  0  0  0  0  0  0  0  0  0  0  0
   38.6360   34.1490   41.5550 O   0  0  0  0  0  0  0  0  0  0  0  0
   39.2280   34.5570   42.2440 H   0  0  0  0  0  0  0  0  0  0  0  0
   39.9650   32.1270   41.8620 O   0  0  0  0  0  0  0  0  0  0  0  0
   39.9140   32.2790   42.8470 H   0  0  0  0  0  0  0  0  0  0  0  0
   39.8990   33.3060   39.5020 O   0  0  0  0  0  0  0  0  0  0  0  0
   40.7570   30.9620   37.4560 O   0  0  0  0  0  0  0  0  0  0  0  0
   41.1050   32.0790   37.9610 C   0  0  0  0  0  0  0  0  0  0  0  0
   41.1150   32.7080   39.3110 C   0  0  1  0  0  3  0  0  0  0  0  0
   42.2580   33.6750   39.1630 C   0  0  0  0  0  3  0  0  0  0  0  0
   43.1970   33.1160   39.3530 H   0  0  0  0  0  0  0  0  0  0  0  0
   42.1970   34.1610   37.7280 C   0  0  0  0  0  3  0  0  0  0  0  0
   41.5980   35.0880   37.6320 H   0  0  0  0  0  0  0  0  0  0  0  0
   41.6420   33.0300   37.0200 N   0  0  0  0  0  0  0  0  0  0  0  0
   41.6930   33.0360   35.9630 H   0  0  0  0  0  0  0  0  0  0  0  0
  1 15  1  0  0  0  0
  2  7  1  0  0  0  0
  2  1  2  0  0  0  0
  3  2  1  0  0  0  0
  4  3  2  0  0  0  0
  4  5  1  0  0  0  0
  5  6  2  0  0  0  0
  6  1  1  0  0  0  0
  6 20  1  0  0  0  0
  8  3  1  0  0  0  0
  9  4  1  0  0  0  0
 10  5  1  0  0  0  0
 11 17  1  0  0  0  0
 11 12  1  0  0  0  0
 12 18  1  0  0  0  0
 13 12  2  0  0  0  0
 13 19  1  0  0  0  0
 14 13  1  0  0  0  0
 15 16  1  0  0  0  0
 15 14  2  0  0  0  0
 16 11  2  0  0  0  0
 20 21  1  0  0  0  0
 20 22  1  0  0  0  0
 22 23  1  0  0  0  0
 22 25  1  0  0  0  0
 23 24  1  0  0  0  0
 25 26  1  0  0  0  0
 27 22  1  0  0  0  0
 28 29  2  0  0  0  0
 29 30  1  0  0  0  0
 30 27  1  6  0  0  0
 31 30  1  0  0  0  0
 31 32  1  0  0  0  0
 33 31  1  0  0  0  0
 34 33  1  0  0  0  0
 35 33  1  0  0  0  0
 35 29  1  0  0  0  0
 36 35  1  0  0  0  0
M  END
>  <minimizedAffinity>
-5.809443

$$$$

 OpenBabel03242515113D

 36 38  0  0  1  0  0  0  0  0999 V2000
   36.7080   30.4060   38.9720 C   0  0  0  0  0  0  0  0  0  0  0  0
   36.5550   30.2440   37.6200 C   0  0  0  0  0  0  0  0  0  0  0  0
   35.8330   29.2420   37.0300 C   0  0  0  0  0  0  0  0  0  0  0  0
   35.2140   28.3280   37.8290 C   0  0  0  0  0  0  0  0  0  0  0  0
   35.3360   28.4450   39.1820 C   0  0  0  0  0  0  0  0  0  0  0  0
   36.0730   29.4700   39.7490 C   0  0  0  0  0  0  0  0  0  0  0  0
   37.0490   30.9760   36.9650 H   0  0  0  0  0  0  0  0  0  0  0  0
   35.7800   29.2110   35.9400 H   0  0  0  0  0  0  0  0  0  0  0  0
   34.6510   27.5480   37.3310 H   0  0  0  0  0  0  0  0  0  0  0  0
   34.8230   27.6910   39.7740 H   0  0  0  0  0  0  0  0  0  0  0  0
   37.7160   33.8160   39.8490 C   0  0  0  0  0  0  0  0  0  0  0  0
   38.8910   33.6250   40.5820 C   0  0  0  0  0  0  0  0  0  0  0  0
   39.3380   32.3140   40.7760 C   0  0  0  0  0  0  0  0  0  0  0  0
   38.6390   31.2490   40.2570 N   0  0  0  0  0  0  0  0  0  0  0  0
   37.4870   31.4910   39.5420 C   0  0  0  0  0  0  0  0  0  0  0  0
   37.0680   32.7590   39.3640 N   0  0  0  0  0  0  0  0  0  0  0  0
   37.4370   34.8360   39.7420 H   0  0  0  0  0  0  0  0  0  0  0  0
   39.4730   34.4070   41.0070 H   0  0  0  0  0  0  0  0  0  0  0  0
   40.2530   32.1580   41.3460 H   0  0  0  0  0  0  0  0  0  0  0  0
   36.1040   29.4550   41.1680 N   0  0  0  0  0  0  0  0  0  0  0  0
   35.3230   30.0540   41.5580 H   0  0  0  0  0  0  0  0  0  0  0  0
   37.1410   28.6690   42.2910 S   0  0  0  0  0  0  0  0  0  0  0  0
   38.5740   28.8460   41.7910 O   0  0  0  0  0  0  0  0  0  0  0  0
   39.3060   28.8370   42.4670 H   0  0  0  0  0  0  0  0  0  0  0  0
   37.0670   29.1750   43.6800 O   0  0  0  0  0  0  0  0  0  0  0  0
   37.7140   29.8440   44.0410 H   0  0  0  0  0  0  0  0  0  0  0  0
   36.8210   27.0280   42.1650 O   0  0  0  0  0  0  0  0  0  0  0  0
   39.4560   25.3840   43.0410 O   0  0  0  0  0  0  0  0  0  0  0  0
   38.4230   25.3700   42.2950 C   0  0  0  0  0  0  0  0  0  0  0  0
   37.7120   26.3250   41.4010 C   0  0  1  0  0  3  0  0  0  0  0  0
   37.0700   25.3740   40.4270 C   0  0  0  0  0  3  0  0  0  0  0  0
   37.8250   25.1230   39.6550 H   0  0  0  0  0  0  0  0  0  0  0  0
   36.6970   24.1500   41.2400 C   0  0  0  0  0  3  0  0  0  0  0  0
   35.6620   24.2130   41.6300 H   0  0  0  0  0  0  0  0  0  0  0  0
   37.7090   24.1170   42.2710 N   0  0  0  0  0  0  0  0  0  0  0  0
   37.7990   23.2340   42.8480 H   0  0  0  0  0  0  0  0  0  0  0  0
  1 15  1  0  0  0  0
  1  6  1  0  0  0  0
  2  1  2  0  0  0  0
  3  2  1  0  0  0  0
  3  4  2  0  0  0  0
  4  5  1  0  0  0  0
  5  6  2  0  0  0  0
  5 10  1  0  0  0  0
  6 20  1  0  0  0  0
  7  2  1  0  0  0  0
  8  3  1  0  0  0  0
  9  4  1  0  0  0  0
 11 12  1  0  0  0  0
 12 13  2  0  0  0  0
 12 18  1  0  0  0  0
 13 19  1  0  0  0  0
 14 13  1  0  0  0  0
 15 14  2  0  0  0  0
 16 15  1  0  0  0  0
 16 11  2  0  0  0  0
 17 11  1  0  0  0  0
 20 21  1  0  0  0  0
 20 22  1  0  0  0  0
 22 25  1  0  0  0  0
 23 22  1  0  0  0  0
 23 24  1  0  0  0  0
 25 26  1  0  0  0  0
 27 22  1  0  0  0  0
 29 28  2  0  0  0  0
 30 27  1  1  0  0  0
 30 29  1  0  0  0  0
 31 33  1  0  0  0  0
 31 30  1  0  0  0  0
 32 31  1  0  0  0  0
 33 34  1  0  0  0  0
 33 35  1  0  0  0  0
 35 29  1  0  0  0  0
 35 36  1  0  0  0  0
M  END
>  <minimizedAffinity>
-5.77342749

$$$$

 OpenBabel03242515113D

 36 38  0  0  1  0  0  0  0  0999 V2000
   36.3180   28.1620   39.2480 C   0  0  0  0  0  0  0  0  0  0  0  0
   35.6140   27.1940   38.5830 C   0  0  0  0  0  0  0  0  0  0  0  0
   35.0120   27.3640   37.3650 C   0  0  0  0  0  0  0  0  0  0  0  0
   35.1100   28.5780   36.7550 C   0  0  0  0  0  0  0  0  0  0  0  0
   35.8010   29.5750   37.3760 C   0  0  0  0  0  0  0  0  0  0  0  0
   36.3980   29.3730   38.6090 C   0  0  0  0  0  0  0  0  0  0  0  0
   35.5290   26.2100   39.0650 H   0  0  0  0  0  0  0  0  0  0  0  0
   34.4760   26.5200   36.9270 H   0  0  0  0  0  0  0  0  0  0  0  0
   34.6230   28.6800   35.7920 H   0  0  0  0  0  0  0  0  0  0  0  0
   35.8480   30.5240   36.8480 H   0  0  0  0  0  0  0  0  0  0  0  0
   38.8970   27.3720   41.7270 C   0  0  0  0  0  0  0  0  0  0  0  0
   38.2090   27.4510   42.9410 C   0  0  0  0  0  0  0  0  0  0  0  0
   36.8500   27.7790   42.9080 C   0  0  0  0  0  0  0  0  0  0  0  0
   36.2150   28.0140   41.7100 N   0  0  0  0  0  0  0  0  0  0  0  0
   36.9360   27.9230   40.5410 C   0  0  0  0  0  0  0  0  0  0  0  0
   38.2450   27.6080   40.5900 N   0  0  0  0  0  0  0  0  0  0  0  0
   39.9240   27.1200   41.8290 H   0  0  0  0  0  0  0  0  0  0  0  0
   38.6460   27.2810   43.8960 H   0  0  0  0  0  0  0  0  0  0  0  0
   36.3090   27.8420   43.8500 H   0  0  0  0  0  0  0  0  0  0  0  0
   37.0790   30.5060   39.1240 N   0  0  0  0  0  0  0  0  0  0  0  0
   37.8260   30.8250   38.4450 H   0  0  0  0  0  0  0  0  0  0  0  0
   36.9000   31.3940   40.5840 S   0  0  0  0  0  0  0  0  0  0  0  0
   36.8000   32.8730   40.2100 O   0  0  0  0  0  0  0  0  0  0  0  0
   36.3000   33.4740   40.8270 H   0  0  0  0  0  0  0  0  0  0  0  0
   35.7160   31.0390   41.3980 O   0  0  0  0  0  0  0  0  0  0  0  0
   34.8630   31.5560   41.3570 H   0  0  0  0  0  0  0  0  0  0  0  0
   38.3480   31.2390   41.4150 O   0  0  0  0  0  0  0  0  0  0  0  0
   39.8610   33.4740   39.6460 O   0  0  0  0  0  0  0  0  0  0  0  0
   40.0250   32.4930   40.4430 C   0  0  0  0  0  0  0  0  0  0  0  0
   39.4580   31.1280   40.6220 C   0  0  1  0  0  3  0  0  0  0  0  0
   40.6140   30.4250   41.2800 C   0  0  0  0  0  3  0  0  0  0  0  0
   41.3060   30.0950   40.4780 H   0  0  0  0  0  0  0  0  0  0  0  0
   41.2690   31.4650   42.1680 C   0  0  0  0  0  3  0  0  0  0  0  0
   40.8640   31.4420   43.1990 H   0  0  0  0  0  0  0  0  0  0  0  0
   41.0170   32.7040   41.4690 N   0  0  0  0  0  0  0  0  0  0  0  0
   41.5550   33.5630   41.7740 H   0  0  0  0  0  0  0  0  0  0  0  0
  1 15  1  0  0  0  0
  2  7  1  0  0  0  0
  2  1  2  0  0  0  0
  3  2  1  0  0  0  0
  4  3  2  0  0  0  0
  4  5  1  0  0  0  0
  5  6  2  0  0  0  0
  6 20  1  0  0  0  0
  6  1  1  0  0  0  0
  8  3  1  0  0  0  0
  9  4  1  0  0  0  0
 10  5  1  0  0  0  0
 11 17  1  0  0  0  0
 11 12  1  0  0  0  0
 12 18  1  0  0  0  0
 13 12  2  0  0  0  0
 13 19  1  0  0  0  0
 14 13  1  0  0  0  0
 15 16  1  0  0  0  0
 15 14  2  0  0  0  0
 16 11  2  0  0  0  0
 20 22  1  0  0  0  0
 21 20  1  0  0  0  0
 22 25  1  0  0  0  0
 22 27  1  0  0  0  0
 23 22  1  0  0  0  0
 23 24  1  0  0  0  0
 26 25  1  0  0  0  0
 28 29  2  0  0  0  0
 29 30  1  0  0  0  0
 29 35  1  0  0  0  0
 30 31  1  0  0  0  0
 30 27  1  1  0  0  0
 31 33  1  0  0  0  0
 32 31  1  0  0  0  0
 33 34  1  0  0  0  0
 35 36  1  0  0  0  0
 35 33  1  0  0  0  0
M  END
>  <minimizedAffinity>
-5.77078724

$$$$

 OpenBabel03242515113D

 36 38  0  0  1  0  0  0  0  0999 V2000
   38.7900   30.4230   38.5530 C   0  0  0  0  0  0  0  0  0  0  0  0
   39.9160   29.9420   37.9400 C   0  0  0  0  0  0  0  0  0  0  0  0
   40.0050   28.7310   37.3080 C   0  0  0  0  0  0  0  0  0  0  0  0
   38.9010   27.9320   37.2760 C   0  0  0  0  0  0  0  0  0  0  0  0
   37.7550   28.3650   37.8720 C   0  0  0  0  0  0  0  0  0  0  0  0
   37.6970   29.5950   38.5050 C   0  0  0  0  0  0  0  0  0  0  0  0
   40.8120   30.5780   37.9580 H   0  0  0  0  0  0  0  0  0  0  0  0
   40.9560   28.4500   36.8520 H   0  0  0  0  0  0  0  0  0  0  0  0
   39.0040   26.9800   36.7680 H   0  0  0  0  0  0  0  0  0  0  0  0
   36.9050   27.6900   37.8190 H   0  0  0  0  0  0  0  0  0  0  0  0
   39.8870   33.2880   40.5560 C   0  0  0  0  0  0  0  0  0  0  0  0
   38.7940   34.1580   40.4960 C   0  0  0  0  0  0  0  0  0  0  0  0
   37.6740   33.7570   39.7620 C   0  0  0  0  0  0  0  0  0  0  0  0
   37.6530   32.5400   39.1200 N   0  0  0  0  0  0  0  0  0  0  0  0
   38.7550   31.7190   39.2100 C   0  0  0  0  0  0  0  0  0  0  0  0
   39.8280   32.1190   39.9200 N   0  0  0  0  0  0  0  0  0  0  0  0
   40.7010   33.6580   41.1290 H   0  0  0  0  0  0  0  0  0  0  0  0
   38.7520   35.1090   40.9700 H   0  0  0  0  0  0  0  0  0  0  0  0
   36.8200   34.4290   39.7120 H   0  0  0  0  0  0  0  0  0  0  0  0
   36.4360   29.9020   39.0760 N   0  0  0  0  0  0  0  0  0  0  0  0
   35.7790   30.2810   38.3370 H   0  0  0  0  0  0  0  0  0  0  0  0
   35.8320   29.7670   40.6800 S   0  0  0  0  0  0  0  0  0  0  0  0
   35.7310   31.1810   41.2510 O   0  0  0  0  0  0  0  0  0  0  0  0
   35.0510   31.3470   41.9600 H   0  0  0  0  0  0  0  0  0  0  0  0
   34.5070   29.1200   40.8040 O   0  0  0  0  0  0  0  0  0  0  0  0
   33.6600   29.6430   40.8730 H   0  0  0  0  0  0  0  0  0  0  0  0
   37.0280   29.0070   41.5750 O   0  0  0  0  0  0  0  0  0  0  0  0
   36.8970   25.8940   40.7330 O   0  0  0  0  0  0  0  0  0  0  0  0
   37.2020   26.7060   41.6670 C   0  0  0  0  0  0  0  0  0  0  0  0
   36.6070   27.9190   42.2920 C   0  0  1  0  0  3  0  0  0  0  0  0
   37.1880   27.8360   43.6780 C   0  0  0  0  0  3  0  0  0  0  0  0
   36.5490   27.1490   44.2680 H   0  0  0  0  0  0  0  0  0  0  0  0
   38.5820   27.2650   43.5010 C   0  0  0  0  0  3  0  0  0  0  0  0
   39.3440   28.0620   43.3920 H   0  0  0  0  0  0  0  0  0  0  0  0
   38.4480   26.4210   42.3350 N   0  0  0  0  0  0  0  0  0  0  0  0
   39.2300   25.7410   42.1250 H   0  0  0  0  0  0  0  0  0  0  0  0
  1 15  1  0  0  0  0
  2  7  1  0  0  0  0
  2  1  2  0  0  0  0
  3  2  1  0  0  0  0
  4  3  2  0  0  0  0
  4  5  1  0  0  0  0
  5  6  2  0  0  0  0
  6  1  1  0  0  0  0
  6 20  1  0  0  0  0
  8  3  1  0  0  0  0
  9  4  1  0  0  0  0
 10  5  1  0  0  0  0
 11 17  1  0  0  0  0
 12 11  1  0  0  0  0
 12 18  1  0  0  0  0
 13 12  2  0  0  0  0
 14 15  2  0  0  0  0
 14 13  1  0  0  0  0
 15 16  1  0  0  0  0
 16 11  2  0  0  0  0
 19 13  1  0  0  0  0
 20 22  1  0  0  0  0
 21 20  1  0  0  0  0
 22 25  1  0  0  0  0
 22 23  1  0  0  0  0
 22 27  1  0  0  0  0
 23 24  1  0  0  0  0
 25 26  1  0  0  0  0
 28 29  2  0  0  0  0
 29 30  1  0  0  0  0
 29 35  1  0  0  0  0
 30 27  1  6  0  0  0
 30 31  1  0  0  0  0
 31 32  1  0  0  0  0
 33 31  1  0  0  0  0
 34 33  1  0  0  0  0
 35 33  1  0  0  0  0
 36 35  1  0  0  0  0
M  END
>  <minimizedAffinity>
-5.68826866

$$$$

 OpenBabel03242515113D

 36 38  0  0  1  0  0  0  0  0999 V2000
   36.3760   26.8590   39.2430 C   0  0  0  0  0  0  0  0  0  0  0  0
   36.3470   26.3150   37.9860 C   0  0  0  0  0  0  0  0  0  0  0  0
   35.6660   26.8430   36.9230 C   0  0  0  0  0  0  0  0  0  0  0  0
   34.9600   27.9940   37.1080 C   0  0  0  0  0  0  0  0  0  0  0  0
   34.9580   28.5750   38.3410 C   0  0  0  0  0  0  0  0  0  0  0  0
   35.6560   28.0160   39.3980 C   0  0  0  0  0  0  0  0  0  0  0  0
   36.9130   25.3870   37.8240 H   0  0  0  0  0  0  0  0  0  0  0  0
   35.7140   26.3230   35.9640 H   0  0  0  0  0  0  0  0  0  0  0  0
   34.4330   28.3860   36.2460 H   0  0  0  0  0  0  0  0  0  0  0  0
   34.3800   29.4910   38.4360 H   0  0  0  0  0  0  0  0  0  0  0  0
   37.4170   24.3690   41.7200 C   0  0  0  0  0  0  0  0  0  0  0  0
   38.4590   25.0080   42.3990 C   0  0  0  0  0  0  0  0  0  0  0  0
   38.8050   26.3030   42.0020 C   0  0  0  0  0  0  0  0  0  0  0  0
   38.1360   26.9250   40.9730 N   0  0  0  0  0  0  0  0  0  0  0  0
   37.1170   26.2530   40.3360 C   0  0  0  0  0  0  0  0  0  0  0  0
   36.7950   25.0050   40.7290 N   0  0  0  0  0  0  0  0  0  0  0  0
   37.2100   23.3890   42.0740 H   0  0  0  0  0  0  0  0  0  0  0  0
   39.0120   24.5800   43.2000 H   0  0  0  0  0  0  0  0  0  0  0  0
   39.6150   26.8070   42.5270 H   0  0  0  0  0  0  0  0  0  0  0  0
   35.5550   28.7380   40.6150 N   0  0  0  0  0  0  0  0  0  0  0  0
   34.7260   28.3950   41.1780 H   0  0  0  0  0  0  0  0  0  0  0  0
   36.5020   30.0050   41.2870 S   0  0  0  0  0  0  0  0  0  0  0  0
   35.5820   31.2110   41.4780 O   0  0  0  0  0  0  0  0  0  0  0  0
   35.8130   31.8610   42.1970 H   0  0  0  0  0  0  0  0  0  0  0  0
   37.1400   29.6960   42.5860 O   0  0  0  0  0  0  0  0  0  0  0  0
   36.7380   29.9690   43.4580 H   0  0  0  0  0  0  0  0  0  0  0  0
   37.5970   30.4600   40.1010 O   0  0  0  0  0  0  0  0  0  0  0  0
   38.0350   33.6500   40.3200 O   0  0  0  0  0  0  0  0  0  0  0  0
   38.0290   32.6540   39.5250 C   0  0  0  0  0  0  0  0  0  0  0  0
   37.1680   31.4640   39.2760 C   0  0  1  0  0  3  0  0  0  0  0  0
   37.4420   31.2180   37.8170 C   0  0  0  0  0  3  0  0  0  0  0  0
   36.7800   31.8910   37.2340 H   0  0  0  0  0  0  0  0  0  0  0  0
   38.9000   31.5790   37.6110 C   0  0  0  0  0  3  0  0  0  0  0  0
   39.5630   30.6990   37.7280 H   0  0  0  0  0  0  0  0  0  0  0  0
   39.1260   32.6170   38.5910 N   0  0  0  0  0  0  0  0  0  0  0  0
   40.0130   33.1880   38.5100 H   0  0  0  0  0  0  0  0  0  0  0  0
  1  6  1  0  0  0  0
  1 15  1  0  0  0  0
  2  1  2  0  0  0  0
  3  4  2  0  0  0  0
  3  2  1  0  0  0  0
  4  5  1  0  0  0  0
  5 10  1  0  0  0  0
  5  6  2  0  0  0  0
  6 20  1  0  0  0  0
  7  2  1  0  0  0  0
  8  3  1  0  0  0  0
  9  4  1  0  0  0  0
 11 17  1  0  0  0  0
 11 12  1  0  0  0  0
 12 18  1  0  0  0  0
 13 12  2  0  0  0  0
 13 19  1  0  0  0  0
 14 13  1  0  0  0  0
 15 16  1  0  0  0  0
 15 14  2  0  0  0  0
 16 11  2  0  0  0  0
 20 21  1  0  0  0  0
 20 22  1  0  0  0  0
 22 23  1  0  0  0  0
 22 25  1  0  0  0  0
 23 24  1  0  0  0  0
 25 26  1  0  0  0  0
 27 22  1  0  0  0  0
 29 28  2  0  0  0  0
 30 29  1  0  0  0  0
 30 27  1  1  0  0  0
 31 30  1  0  0  0  0
 32 31  1  0  0  0  0
 33 34  1  0  0  0  0
 33 31  1  0  0  0  0
 33 35  1  0  0  0  0
 35 29  1  0  0  0  0
 36 35  1  0  0  0  0
M  END
>  <minimizedAffinity>
-5.68817425

$$$$

 OpenBabel03242515113D

 36 38  0  0  1  0  0  0  0  0999 V2000
   36.5140   28.1570   41.1020 C   0  0  0  0  0  0  0  0  0  0  0  0
   36.9540   26.9880   41.6630 C   0  0  0  0  0  0  0  0  0  0  0  0
   37.6930   26.9030   42.8120 C   0  0  0  0  0  0  0  0  0  0  0  0
   38.0250   28.0550   43.4600 C   0  0  0  0  0  0  0  0  0  0  0  0
   37.6100   29.2450   42.9410 C   0  0  0  0  0  0  0  0  0  0  0  0
   36.8640   29.3000   41.7760 C   0  0  0  0  0  0  0  0  0  0  0  0
   36.6930   26.0520   41.1500 H   0  0  0  0  0  0  0  0  0  0  0  0
   37.9900   25.9150   43.1690 H   0  0  0  0  0  0  0  0  0  0  0  0
   38.6090   27.9540   44.3660 H   0  0  0  0  0  0  0  0  0  0  0  0
   37.9010   30.1350   43.4960 H   0  0  0  0  0  0  0  0  0  0  0  0
   35.4380   27.3460   37.6950 C   0  0  0  0  0  0  0  0  0  0  0  0
   34.3180   28.1630   37.5100 C   0  0  0  0  0  0  0  0  0  0  0  0
   33.9310   28.9960   38.5640 C   0  0  0  0  0  0  0  0  0  0  0  0
   34.6360   29.0090   39.7460 N   0  0  0  0  0  0  0  0  0  0  0  0
   35.7320   28.1860   39.8780 C   0  0  0  0  0  0  0  0  0  0  0  0
   36.0930   27.3880   38.8540 N   0  0  0  0  0  0  0  0  0  0  0  0
   35.6730   26.7410   36.8550 H   0  0  0  0  0  0  0  0  0  0  0  0
   33.7340   28.1960   36.6220 H   0  0  0  0  0  0  0  0  0  0  0  0
   33.0600   29.6340   38.4260 H   0  0  0  0  0  0  0  0  0  0  0  0
   36.5110   30.6110   41.3660 N   0  0  0  0  0  0  0  0  0  0  0  0
   35.6700   30.9520   41.9120 H   0  0  0  0  0  0  0  0  0  0  0  0
   37.1840   31.6740   40.1950 S   0  0  0  0  0  0  0  0  0  0  0  0
   36.7380   31.1800   38.8190 O   0  0  0  0  0  0  0  0  0  0  0  0
   36.6690   31.8510   38.0860 H   0  0  0  0  0  0  0  0  0  0  0  0
   36.7880   33.0940   40.3300 O   0  0  0  0  0  0  0  0  0  0  0  0
   36.0450   33.4950   39.7980 H   0  0  0  0  0  0  0  0  0  0  0  0
   38.8430   31.4410   40.2410 O   0  0  0  0  0  0  0  0  0  0  0  0
   40.7370   30.8020   42.7740 O   0  0  0  0  0  0  0  0  0  0  0  0
   40.6080   31.5190   41.7290 C   0  0  0  0  0  0  0  0  0  0  0  0
   39.5220   32.2950   41.0680 C   0  0  1  0  0  3  0  0  0  0  0  0
   40.3240   33.3420   40.3440 C   0  0  0  0  0  3  0  0  0  0  0  0
   40.5440   34.1540   41.0660 H   0  0  0  0  0  0  0  0  0  0  0  0
   41.5980   32.6470   39.9040 C   0  0  0  0  0  3  0  0  0  0  0  0
   41.5080   32.2260   38.8840 H   0  0  0  0  0  0  0  0  0  0  0  0
   41.8020   31.6500   40.9310 N   0  0  0  0  0  0  0  0  0  0  0  0
   42.7430   31.1680   40.9720 H   0  0  0  0  0  0  0  0  0  0  0  0
  1  2  2  0  0  0  0
  1  6  1  0  0  0  0
  2  3  1  0  0  0  0
  3  8  1  0  0  0  0
  3  4  2  0  0  0  0
  4  9  1  0  0  0  0
  5  4  1  0  0  0  0
  5 10  1  0  0  0  0
  6  5  2  0  0  0  0
  7  2  1  0  0  0  0
 11 16  1  0  0  0  0
 12 11  2  0  0  0  0
 12 13  1  0  0  0  0
 13 14  2  0  0  0  0
 14 15  1  0  0  0  0
 15  1  1  0  0  0  0
 16 15  2  0  0  0  0
 17 11  1  0  0  0  0
 18 12  1  0  0  0  0
 19 13  1  0  0  0  0
 20  6  1  0  0  0  0
 20 21  1  0  0  0  0
 22 27  1  0  0  0  0
 22 25  1  0  0  0  0
 22 20  1  0  0  0  0
 23 22  1  0  0  0  0
 24 23  1  0  0  0  0
 26 25  1  0  0  0  0
 29 28  2  0  0  0  0
 30 27  1  6  0  0  0
 30 29  1  0  0  0  0
 31 32  1  0  0  0  0
 31 30  1  0  0  0  0
 33 31  1  0  0  0  0
 33 35  1  0  0  0  0
 34 33  1  0  0  0  0
 35 36  1  0  0  0  0
 35 29  1  0  0  0  0
M  END
>  <minimizedAffinity>
-5.63427591

$$$$

 OpenBabel03242515113D

 36 38  0  0  1  0  0  0  0  0999 V2000
   37.1660   26.4860   39.5720 C   0  0  0  0  0  0  0  0  0  0  0  0
   37.6290   25.2230   39.8250 C   0  0  0  0  0  0  0  0  0  0  0  0
   37.6930   24.6480   41.0660 C   0  0  0  0  0  0  0  0  0  0  0  0
   37.2680   25.3710   42.1400 C   0  0  0  0  0  0  0  0  0  0  0  0
   36.7970   26.6340   41.9410 C   0  0  0  0  0  0  0  0  0  0  0  0
   36.7460   27.1890   40.6740 C   0  0  0  0  0  0  0  0  0  0  0  0
   37.9750   24.6300   38.9660 H   0  0  0  0  0  0  0  0  0  0  0  0
   38.0820   23.6310   41.1500 H   0  0  0  0  0  0  0  0  0  0  0  0
   37.3310   24.8870   43.1080 H   0  0  0  0  0  0  0  0  0  0  0  0
   36.4710   27.1670   42.8310 H   0  0  0  0  0  0  0  0  0  0  0  0
   38.2760   27.4510   36.2170 C   0  0  0  0  0  0  0  0  0  0  0  0
   37.1480   28.0730   35.6730 C   0  0  0  0  0  0  0  0  0  0  0  0
   35.9980   28.1600   36.4640 C   0  0  0  0  0  0  0  0  0  0  0  0
   35.9850   27.6470   37.7420 N   0  0  0  0  0  0  0  0  0  0  0  0
   37.1220   27.0450   38.2320 C   0  0  0  0  0  0  0  0  0  0  0  0
   38.2220   26.9680   37.4570 N   0  0  0  0  0  0  0  0  0  0  0  0
   39.1100   27.4220   35.5600 H   0  0  0  0  0  0  0  0  0  0  0  0
   37.0980   28.4870   34.6940 H   0  0  0  0  0  0  0  0  0  0  0  0
   35.1170   28.6430   36.0460 H   0  0  0  0  0  0  0  0  0  0  0  0
   36.2320   28.5100   40.6310 N   0  0  0  0  0  0  0  0  0  0  0  0
   35.3780   28.5520   40.0070 H   0  0  0  0  0  0  0  0  0  0  0  0
   36.7380   29.9700   41.3850 S   0  0  0  0  0  0  0  0  0  0  0  0
   35.5580   30.9400   41.3390 O   0  0  0  0  0  0  0  0  0  0  0  0
   35.5040   31.6380   42.0480 H   0  0  0  0  0  0  0  0  0  0  0  0
   37.1750   29.8350   42.7920 O   0  0  0  0  0  0  0  0  0  0  0  0
   36.5690   30.0260   43.5620 H   0  0  0  0  0  0  0  0  0  0  0  0
   37.9080   30.6380   40.3870 O   0  0  0  0  0  0  0  0  0  0  0  0
   37.2540   33.7270   39.7170 O   0  0  0  0  0  0  0  0  0  0  0  0
   37.7740   32.6530   39.2680 C   0  0  0  0  0  0  0  0  0  0  0  0
   37.4280   31.2050   39.2370 C   0  0  1  0  0  3  0  0  0  0  0  0
   38.1490   30.7690   37.9910 C   0  0  0  0  0  3  0  0  0  0  0  0
   37.4950   31.0020   37.1260 H   0  0  0  0  0  0  0  0  0  0  0  0
   39.4210   31.5930   37.9470 C   0  0  0  0  0  3  0  0  0  0  0  0
   40.2670   31.0730   38.4370 H   0  0  0  0  0  0  0  0  0  0  0  0
   39.0380   32.8270   38.5960 N   0  0  0  0  0  0  0  0  0  0  0  0
   39.6900   33.6550   38.5070 H   0  0  0  0  0  0  0  0  0  0  0  0
  1  2  2  0  0  0  0
  1  6  1  0  0  0  0
  2  3  1  0  0  0  0
  3  8  1  0  0  0  0
  3  4  2  0  0  0  0
  4  9  1  0  0  0  0
  5  4  1  0  0  0  0
  5 10  1  0  0  0  0
  6  5  2  0  0  0  0
  7  2  1  0  0  0  0
 11 16  1  0  0  0  0
 12 11  2  0  0  0  0
 12 13  1  0  0  0  0
 13 14  2  0  0  0  0
 14 15  1  0  0  0  0
 15  1  1  0  0  0  0
 16 15  2  0  0  0  0
 17 11  1  0  0  0  0
 18 12  1  0  0  0  0
 19 13  1  0  0  0  0
 20  6  1  0  0  0  0
 20 22  1  0  0  0  0
 21 20  1  0  0  0  0
 22 25  1  0  0  0  0
 23 22  1  0  0  0  0
 23 24  1  0  0  0  0
 25 26  1  0  0  0  0
 27 22  1  0  0  0  0
 29 28  2  0  0  0  0
 30 29  1  0  0  0  0
 30 27  1  1  0  0  0
 31 30  1  0  0  0  0
 32 31  1  0  0  0  0
 33 31  1  0  0  0  0
 33 34  1  0  0  0  0
 33 35  1  0  0  0  0
 35 29  1  0  0  0  0
 36 35  1  0  0  0  0
M  END
>  <minimizedAffinity>
-5.5864172

$$$$
