
 OpenBabel03252507103D

 36 38  0  0  1  0  0  0  0  0999 V2000
   44.5270   35.6420   44.8240 C   0  0  0  0  0  0  0  0  0  0  0  0
   45.0350   35.7180   43.5140 C   0  0  0  0  0  0  0  0  0  0  0  0
   46.0350   34.8250   43.1710 C   0  0  0  0  0  0  0  0  0  0  0  0
   46.4750   33.9370   44.0840 N   0  0  0  0  0  0  0  0  0  0  0  0
   45.9820   33.8760   45.3260 C   0  0  0  0  0  0  0  0  0  0  0  0
   44.9990   34.7380   45.6970 N   0  0  0  0  0  0  0  0  0  0  0  0
   43.7460   36.3440   45.0830 H   0  0  0  0  0  0  0  0  0  0  0  0
   44.6280   36.4640   42.8360 H   0  0  0  0  0  0  0  0  0  0  0  0
   45.3880   32.5670   47.3820 C   0  0  1  0  0  0  0  0  0  0  0  0
   46.4310   32.9350   46.3680 C   0  0  1  0  0  0  0  0  0  0  0  0
   46.6510   31.5410   45.7420 C   0  0  0  0  0  0  0  0  0  0  0  0
   46.4120   30.6230   46.7160 O   0  0  0  0  0  0  0  0  0  0  0  0
   46.0050   31.2650   47.8820 C   0  0  0  0  0  0  0  0  0  0  0  0
   44.4340   32.3150   46.8710 H   0  0  0  0  0  0  0  0  0  0  0  0
   47.3600   33.2820   46.8330 H   0  0  0  0  0  0  0  0  0  0  0  0
   47.7280   31.5140   45.4770 H   0  0  0  0  0  0  0  0  0  0  0  0
   46.0640   31.4360   44.8150 H   0  0  0  0  0  0  0  0  0  0  0  0
   45.2330   30.6310   48.3660 H   0  0  0  0  0  0  0  0  0  0  0  0
   46.8340   31.4500   48.5800 H   0  0  0  0  0  0  0  0  0  0  0  0
   45.1700   33.5040   48.3480 O   0  0  0  0  0  0  0  0  0  0  0  0
   44.3120   33.3620   48.7870 H   0  0  0  0  0  0  0  0  0  0  0  0
   46.5280   34.9090   41.8760 O   0  0  0  0  0  0  0  0  0  0  0  0
   45.2770   32.6940   41.0910 O   0  0  0  0  0  0  0  0  0  0  0  0
   46.5240   33.5300   40.8620 P   0  0  1  0  0  0  0  0  0  0  0  0
   46.6620   34.0380   39.2760 O   0  0  0  0  0  0  0  0  0  0  0  0
   47.4810   33.7100   38.8090 H   0  0  0  0  0  0  0  0  0  0  0  0
   47.8790   32.6060   41.3160 O   0  0  0  0  0  0  0  0  0  0  0  0
   49.9830   31.7380   38.9340 O   0  0  0  0  0  0  0  0  0  0  0  0
   49.8100   32.0990   40.1390 C   0  0  0  0  0  0  0  0  0  0  0  0
   49.0720   33.1560   40.9070 C   0  0  2  0  0  3  0  0  0  0  0  0
   49.9950   33.4190   42.0800 C   0  0  0  0  0  3  0  0  0  0  0  0
   50.7730   34.1370   41.7650 H   0  0  0  0  0  0  0  0  0  0  0  0
   50.6400   32.0620   42.3790 C   0  0  0  0  0  3  0  0  0  0  0  0
   50.0930   31.5470   43.1840 H   0  0  0  0  0  0  0  0  0  0  0  0
   50.4760   31.3330   41.1370 N   0  0  0  0  0  0  0  0  0  0  0  0
   50.8610   30.3550   41.1350 H   0  0  0  0  0  0  0  0  0  0  0  0
  1  7  1  0  0  0  0
  1  6  1  0  0  0  0
  2  1  2  0  0  0  0
  3  2  1  0  0  0  0
  3  4  2  0  0  0  0
  4  5  1  0  0  0  0
  5  6  2  0  0  0  0
  5 10  1  0  0  0  0
  8  2  1  0  0  0  0
  9 14  1  6  0  0  0
  9 13  1  0  0  0  0
  9 20  1  0  0  0  0
 10 15  1  1  0  0  0
 10  9  1  0  0  0  0
 11 10  1  0  0  0  0
 11 12  1  0  0  0  0
 12 13  1  0  0  0  0
 13 18  1  0  0  0  0
 13 19  1  0  0  0  0
 16 11  1  0  0  0  0
 17 11  1  0  0  0  0
 20 21  1  0  0  0  0
 22  3  1  0  0  0  0
 24 23  2  1  0  0  0
 24 27  1  0  0  0  0
 24 22  1  0  0  0  0
 25 24  1  0  0  0  0
 26 25  1  0  0  0  0
 28 29  2  0  0  0  0
 29 30  1  0  0  0  0
 29 35  1  0  0  0  0
 30 27  1  1  0  0  0
 30 31  1  0  0  0  0
 31 33  1  0  0  0  0
 32 31  1  0  0  0  0
 33 34  1  0  0  0  0
 35 33  1  0  0  0  0
 36 35  1  0  0  0  0
M  END
>  <minimizedAffinity>
-5.66085815

>  <minimizedRMSD>
1.77815831

$$$$
