
     RDKit          3D

 41 43  0  0  0  0  0  0  0  0999 V2000
   45.2013   35.8206   43.3810 C   0  0  0  0  0  0  0  0  0  0  0  0
   45.9108   34.5947   43.4064 C   0  0  0  0  0  0  0  0  0  0  0  0
   45.8902   33.8562   44.5774 C   0  0  0  0  0  0  0  0  0  0  0  0
   45.1965   34.3329   45.6454 N   0  0  0  0  0  0  0  0  0  0  0  0
   44.5270   35.5010   45.6044 C   0  0  0  0  0  0  0  0  0  0  0  0
   44.5321   36.2334   44.4823 N   0  0  0  0  0  0  0  0  0  0  0  0
   46.5850   34.2380   42.2071 N   0  0  0  0  0  0  0  0  0  0  0  0
   47.8346   34.8300   41.7884 C   0  0  0  0  0  0  0  0  0  0  0  0
   48.3272   34.1512   40.5416 C   0  0  0  0  0  0  0  0  0  0  0  0
   47.3432   34.0897   39.5070 N   0  0  0  0  0  0  0  0  0  0  0  0
   46.0708   33.5766   39.9120 C   0  0  0  0  0  0  0  0  0  0  0  0
   45.9650   33.2121   41.3606 C   0  0  0  0  0  0  0  0  0  0  0  0
   46.5981   32.6551   44.5695 O   0  0  0  0  0  0  0  0  0  0  0  0
   45.5503   31.2124   46.5314 O   0  0  0  0  0  0  0  0  0  0  0  0
   46.8557   31.8435   46.0602 P   0  0  1  0  0  0  0  0  0  0  0  0
   48.0528   30.6953   45.8313 O   0  0  0  0  0  0  0  0  0  0  0  0
   47.3287   33.0133   47.2010 O   0  0  0  0  0  0  0  0  0  0  0  0
   45.2087   36.4146   42.4627 H   0  0  0  0  0  0  0  0  0  0  0  0
   43.9824   35.8576   46.4694 H   0  0  0  0  0  0  0  0  0  0  0  0
   48.5949   34.6590   42.5776 H   0  0  0  0  0  0  0  0  0  0  0  0
   47.6584   35.8890   41.5751 H   0  0  0  0  0  0  0  0  0  0  0  0
   49.2035   34.7057   40.1407 H   0  0  0  0  0  0  0  0  0  0  0  0
   48.6388   33.1230   40.8630 H   0  0  0  0  0  0  0  0  0  0  0  0
   47.1961   35.0549   39.1348 H   0  0  0  0  0  0  0  0  0  0  0  0
   45.8508   32.6746   39.3037 H   0  0  0  0  0  0  0  0  0  0  0  0
   45.2280   34.2844   39.6586 H   0  0  0  0  0  0  0  0  0  0  0  0
   44.8904   33.1098   41.5979 H   0  0  0  0  0  0  0  0  0  0  0  0
   46.4486   32.2387   41.5986 H   0  0  0  0  0  0  0  0  0  0  0  0
   48.9253   31.0780   46.1026 H   0  0  0  0  0  0  0  0  0  0  0  0
   48.8901   33.3506   49.7768 O   0  0  0  0  0  0  0  0  0  0  0  0
   48.0390   32.4728   49.4333 C   0  0  0  0  0  0  0  0  0  0  0  0
   46.9424   32.5128   48.4422 C   0  0  2  0  0  0  0  0  0  0  0  0
   46.5786   31.0300   48.3305 C   0  0  2  0  0  0  0  0  0  0  0  0
   47.3663   30.5287   47.7584 H   0  0  0  0  0  0  0  0  0  0  0  0
   46.7368   30.6127   49.7981 C   0  0  2  0  0  0  0  0  0  0  0  0
   46.6857   29.5265   49.9245 H   0  0  0  0  0  0  0  0  0  0  0  0
   48.0617   31.1743   50.0617 N   0  0  0  0  0  0  0  0  0  0  0  0
   46.0459   33.0193   48.8479 H   0  0  0  0  0  0  0  0  0  0  0  0
   45.5531   30.8680   47.9670 H   0  0  0  0  0  0  0  0  0  0  0  0
   46.0278   31.1915   50.4311 H   0  0  0  0  0  0  0  0  0  0  0  0
   48.7956   30.6378   50.6119 H   0  0  0  0  0  0  0  0  0  0  0  0
  1  2  2  0
  1  6  1  0
  2  3  1  0
  3  4  2  0
  5  4  1  0
  6  5  2  0
  7  2  1  0
  8  7  1  0
  9  8  1  0
 10 11  1  0
 10  9  1  0
 11 12  1  0
 12  7  1  0
 13  3  1  0
 15 13  1  6
 15 14  2  0
 15 17  1  0
 16 15  1  0
  1 18  1  0
  5 19  1  0
  8 20  1  0
  8 21  1  0
  9 22  1  0
  9 23  1  0
 10 24  1  0
 11 25  1  0
 11 26  1  0
 12 27  1  0
 12 28  1  0
 16 29  1  0
 30 31  2  0
 31 32  1  0
 32 33  1  0
 33 34  1  6
 33 35  1  0
 35 36  1  6
 35 37  1  0
 37 31  1  0
 32 38  1  1
 33 39  1  0
 35 40  1  0
 37 41  1  0
 17 32  1  0
M  ISO  8  18  14  19  14  20  13  21  13  22  13  23  13  24   5  25  13
M  ISO  6  26  13  27  13  28  13  29   3  34   8  36   8
M  END
>  <DihAtoms>  (1) 
14,16,31,30

>  <DihDeg>  (1) 
-128.2299049098454

$$$$
