
 OpenBabel03252507103D

 36 38  0  0  1  0  0  0  0  0999 V2000
   44.5040   35.6530   44.9030 C   0  0  0  0  0  0  0  0  0  0  0  0
   45.0120   35.7740   43.5970 C   0  0  0  0  0  0  0  0  0  0  0  0
   46.0170   34.8980   43.2260 C   0  0  0  0  0  0  0  0  0  0  0  0
   46.4610   33.9830   44.1110 N   0  0  0  0  0  0  0  0  0  0  0  0
   45.9680   33.8800   45.3500 C   0  0  0  0  0  0  0  0  0  0  0  0
   44.9800   34.7250   45.7480 N   0  0  0  0  0  0  0  0  0  0  0  0
   43.7190   36.3430   45.1840 H   0  0  0  0  0  0  0  0  0  0  0  0
   44.6020   36.5390   42.9430 H   0  0  0  0  0  0  0  0  0  0  0  0
   45.3950   32.5440   47.3950 C   0  0  1  0  0  0  0  0  0  0  0  0
   46.4210   32.9100   46.3630 C   0  0  1  0  0  0  0  0  0  0  0  0
   46.5950   31.5230   45.7040 C   0  0  0  0  0  0  0  0  0  0  0  0
   46.3600   30.5920   46.6660 O   0  0  0  0  0  0  0  0  0  0  0  0
   45.9960   31.2190   47.8540 C   0  0  0  0  0  0  0  0  0  0  0  0
   44.4240   32.3230   46.9030 H   0  0  0  0  0  0  0  0  0  0  0  0
   47.3690   33.2270   46.8100 H   0  0  0  0  0  0  0  0  0  0  0  0
   47.6650   31.4790   45.4110 H   0  0  0  0  0  0  0  0  0  0  0  0
   45.9830   31.4500   44.7910 H   0  0  0  0  0  0  0  0  0  0  0  0
   45.2230   30.5930   48.3450 H   0  0  0  0  0  0  0  0  0  0  0  0
   46.8450   31.3720   48.5350 H   0  0  0  0  0  0  0  0  0  0  0  0
   45.2220   33.4660   48.3840 O   0  0  0  0  0  0  0  0  0  0  0  0
   44.3720   33.3350   48.8410 H   0  0  0  0  0  0  0  0  0  0  0  0
   46.5100   35.0250   41.9350 O   0  0  0  0  0  0  0  0  0  0  0  0
   45.5960   32.6960   41.0250 O   0  0  0  0  0  0  0  0  0  0  0  0
   46.7900   33.6330   40.9790 P   0  0  1  0  0  0  0  0  0  0  0  0
   47.1490   34.1230   39.4220 O   0  0  0  0  0  0  0  0  0  0  0  0
   48.0590   33.8590   39.1080 H   0  0  0  0  0  0  0  0  0  0  0  0
   48.1220   32.8390   41.6800 O   0  0  0  0  0  0  0  0  0  0  0  0
   49.6280   32.0300   38.8640 O   0  0  0  0  0  0  0  0  0  0  0  0
   49.7120   32.2040   40.1190 C   0  0  0  0  0  0  0  0  0  0  0  0
   49.3280   33.2290   41.1460 C   0  0  2  0  0  3  0  0  0  0  0  0
   50.4490   33.1170   42.1600 C   0  0  0  0  0  3  0  0  0  0  0  0
   51.3010   33.7280   41.8140 H   0  0  0  0  0  0  0  0  0  0  0  0
   50.8400   31.6360   42.1480 C   0  0  0  0  0  3  0  0  0  0  0  0
   50.3240   31.0980   42.9570 H   0  0  0  0  0  0  0  0  0  0  0  0
   50.3470   31.1720   40.8640 N   0  0  0  0  0  0  0  0  0  0  0  0
   50.5200   30.1560   40.6570 H   0  0  0  0  0  0  0  0  0  0  0  0
  1  7  1  0  0  0  0
  1  6  1  0  0  0  0
  2  1  2  0  0  0  0
  3  2  1  0  0  0  0
  3  4  2  0  0  0  0
  4  5  1  0  0  0  0
  5  6  2  0  0  0  0
  5 10  1  0  0  0  0
  8  2  1  0  0  0  0
  9 14  1  6  0  0  0
  9 13  1  0  0  0  0
  9 20  1  0  0  0  0
 10 15  1  1  0  0  0
 10  9  1  0  0  0  0
 11 10  1  0  0  0  0
 11 12  1  0  0  0  0
 12 13  1  0  0  0  0
 13 18  1  0  0  0  0
 13 19  1  0  0  0  0
 16 11  1  0  0  0  0
 17 11  1  0  0  0  0
 20 21  1  0  0  0  0
 22  3  1  0  0  0  0
 24 23  2  1  0  0  0
 24 27  1  0  0  0  0
 24 22  1  0  0  0  0
 25 24  1  0  0  0  0
 26 25  1  0  0  0  0
 28 29  2  0  0  0  0
 29 35  1  0  0  0  0
 29 30  1  0  0  0  0
 30 27  1  1  0  0  0
 30 31  1  0  0  0  0
 32 31  1  0  0  0  0
 33 31  1  0  0  0  0
 33 34  1  0  0  0  0
 35 33  1  0  0  0  0
 36 35  1  0  0  0  0
M  END
>  <minimizedAffinity>
-5.65241814

>  <minimizedRMSD>
1.73868811

$$$$
