REMARK  Name = 
REMARK  4 active torsions:
REMARK  status: ('A' for Active; 'I' for Inactive)
REMARK    1  A    between atoms: C_2  and  C_11
REMARK    2  A    between atoms: C_3  and  C_7
REMARK    3  A    between atoms: C_11  and  N_12
REMARK    4  A    between atoms: N_12  and  C_20
REMARK                            x       y       z     vdW  Elec       q    Type
REMARK                         _______ _______ _______ _____ _____    ______ ____
ROOT
ATOM      1  C   UNL     1      44.867  36.231  42.919  0.00  0.00    +0.000 C 
ATOM      2  H   UNL     1      45.416  36.494  42.026  0.00  0.00    +0.000 HD
ATOM      3  H   UNL     1      43.801  36.065  42.664  0.00  0.00    +0.000 HD
ENDROOT
BRANCH   1   5
ATOM      4  C   UNL     1      44.934  34.927  45.044  0.00  0.00    +0.000 A 
ATOM      5  C   UNL     1      45.447  35.183  43.760  0.00  0.00    +0.000 A 
ATOM      6  C   UNL     1      46.513  34.391  43.357  0.00  0.00    +0.000 A 
ATOM      7  N   UNL     1      47.005  33.432  44.187  0.00  0.00    +0.000 NA
ATOM      8  C   UNL     1      46.493  33.215  45.404  0.00  0.00    +0.000 A 
ATOM      9  N   UNL     1      45.453  33.964  45.836  0.00  0.00    +0.000 NA
ATOM     10  H   UNL     1      44.095  35.523  45.408  0.00  0.00    +0.000 HD
ATOM     11  H   UNL     1      46.991  32.419  45.944  0.00  0.00    +0.000 HD
BRANCH   6  12
ATOM     12  C   UNL     1      47.025  34.673  42.005  0.00  0.00    +0.000 C 
ATOM     13  F   UNL     1      47.974  33.716  41.667  0.00  0.00    +0.000 F 
ATOM     14  F   UNL     1      47.694  35.868  42.077  0.00  0.00    +0.000 F 
ATOM     15  F   UNL     1      46.055  34.614  41.060  0.00  0.00    +0.000 F 
ENDBRANCH   6  12
ENDBRANCH   1   5
BRANCH   1  16
ATOM     16  N   UNL     1      44.981  37.525  43.596  0.00  0.00    +0.000 NA
ATOM     17  H   UNL     1      44.421  37.433  44.467  0.00  0.00    +0.000 HD
BRANCH  16  20
ATOM     18  O   UNL     1      42.536  37.288  41.650  0.00  0.00    +0.000 OA
ATOM     19  C   UNL     1      43.299  38.257  41.954  0.00  0.00    +0.000 C 
ATOM     20  C   UNL     1      44.440  38.606  42.856  0.00  0.00    +0.000 C 
ATOM     21  C   UNL     1      45.349  39.293  41.897  0.00  0.00    +0.000 C 
ATOM     22  H   UNL     1      46.101  39.892  42.441  0.00  0.00    +0.000 HD
ATOM     23  C   UNL     1      44.359  40.235  41.197  0.00  0.00    +0.000 C 
ATOM     24  H   UNL     1      44.638  40.432  40.156  0.00  0.00    +0.000 HD
ATOM     25  N   UNL     1      43.085  39.502  41.250  0.00  0.00    +0.000 N 
ATOM     26  H   UNL     1      42.261  39.980  40.787  0.00  0.00    +0.000 HD
ENDBRANCH  16  20
ENDBRANCH   1  16
TORSDOF 4
