
 OpenBabel03242520263D

 38 40  0  0  1  0  0  0  0  0999 V2000
   44.8700   35.5210   42.5520 C   0  0  0  0  0  0  0  0  0  0  0  0
   45.9290   34.5880   42.6850 C   0  0  0  0  0  0  0  0  0  0  0  0
   46.2580   34.1570   43.9600 C   0  0  0  0  0  0  0  0  0  0  0  0
   45.5600   34.6430   45.0200 N   0  0  0  0  0  0  0  0  0  0  0  0
   44.5560   35.5300   44.8750 C   0  0  0  0  0  0  0  0  0  0  0  0
   44.2190   35.9600   43.6520 N   0  0  0  0  0  0  0  0  0  0  0  0
   44.5990   35.8700   41.5510 H   0  0  0  0  0  0  0  0  0  0  0  0
   44.0150   35.9010   45.7370 H   0  0  0  0  0  0  0  0  0  0  0  0
   46.5580   34.1790   41.4780 N   0  0  0  0  0  0  0  0  0  0  0  0
   47.7250   34.8290   40.9280 C   0  0  0  0  0  0  0  0  0  0  0  0
   48.1980   34.0810   39.7140 C   0  0  0  0  0  0  0  0  0  0  0  0
   47.1630   33.8480   38.7560 N   0  0  0  0  0  0  0  0  0  0  0  0
   45.9660   33.2740   39.2880 C   0  0  0  0  0  0  0  0  0  0  0  0
   45.9780   33.0340   40.7670 C   0  0  0  0  0  0  0  0  0  0  0  0
   48.5430   34.7910   41.6760 H   0  0  0  0  0  0  0  0  0  0  0  0
   47.4460   35.8460   40.6370 H   0  0  0  0  0  0  0  0  0  0  0  0
   48.9980   34.6660   39.2090 H   0  0  0  0  0  0  0  0  0  0  0  0
   48.6150   33.1150   40.1000 H   0  0  0  0  0  0  0  0  0  0  0  0
   46.9120   34.7610   38.3140 H   0  0  0  0  0  0  0  0  0  0  0  0
   45.7880   32.3060   38.7750 H   0  0  0  0  0  0  0  0  0  0  0  0
   45.0520   33.8850   39.0330 H   0  0  0  0  0  0  0  0  0  0  0  0
   44.9320   32.8690   41.0830 H   0  0  0  0  0  0  0  0  0  0  0  0
   46.5570   32.1290   41.0540 H   0  0  0  0  0  0  0  0  0  0  0  0
   47.3030   33.2400   44.0570 O   0  0  0  0  0  0  0  0  0  0  0  0
   45.5970   31.2630   44.5130 O   0  0  0  0  0  0  0  0  0  0  0  0
   47.0090   31.7380   44.8360 P   0  0  1  0  0  0  0  0  0  0  0  0
   48.1660   30.6440   44.3190 O   0  0  0  0  0  0  0  0  0  0  0  0
   48.9090   30.6250   44.9730 H   0  0  0  0  0  0  0  0  0  0  0  0
   47.1150   32.0060   46.5130 O   0  0  0  0  0  0  0  0  0  0  0  0
   44.7720   33.4580   47.7730 O   0  0  0  0  0  0  0  0  0  0  0  0
   45.2040   32.2760   47.9460 C   0  0  0  0  0  0  0  0  0  0  0  0
   45.9970   31.3900   47.0690 C   0  0  2  0  0  3  0  0  0  0  0  0
   46.4220   30.2920   48.0480 C   0  0  0  0  0  3  0  0  0  0  0  0
   47.2020   30.7020   48.6990 H   0  0  0  0  0  0  0  0  0  0  0  0
   45.1390   30.1760   48.8800 C   0  0  0  0  0  3  0  0  0  0  0  0
   45.2810   29.5500   49.7680 H   0  0  0  0  0  0  0  0  0  0  0  0
   44.9270   31.5910   49.1850 N   0  0  0  0  0  0  0  0  0  0  0  0
   44.6310   31.9150   50.1540 H   0  0  0  0  0  0  0  0  0  0  0  0
  1  2  2  0  0  0  0
  1  6  1  0  0  0  0
  2  3  1  0  0  0  0
  3 24  1  0  0  0  0
  3  4  2  0  0  0  0
  5  4  1  0  0  0  0
  5  8  1  0  0  0  0
  6  5  2  0  0  0  0
  7  1  1  0  0  0  0
  9  2  1  0  0  0  0
 10  9  1  0  0  0  0
 10 15  1  0  0  0  0
 11 18  1  0  0  0  0
 11 10  1  0  0  0  0
 12 13  1  0  0  0  0
 12 11  1  0  0  0  0
 13 14  1  0  0  0  0
 14 23  1  0  0  0  0
 14 22  1  0  0  0  0
 14  9  1  0  0  0  0
 16 10  1  0  0  0  0
 17 11  1  0  0  0  0
 19 12  1  0  0  0  0
 20 13  1  0  0  0  0
 21 13  1  0  0  0  0
 24 26  1  0  0  0  0
 26 25  2  6  0  0  0
 26 29  1  0  0  0  0
 27 26  1  0  0  0  0
 27 28  1  0  0  0  0
 30 31  2  0  0  0  0
 31 37  1  0  0  0  0
 32 29  1  1  0  0  0
 32 31  1  0  0  0  0
 32 33  1  0  0  0  0
 33 34  1  0  0  0  0
 33 35  1  0  0  0  0
 35 37  1  0  0  0  0
 35 36  1  0  0  0  0
 37 38  1  0  0  0  0
M  END
>  <minimizedAffinity>
-5.29330158

>  <minimizedRMSD>
1.52389956

$$$$
