
     RDKit          3D

 36 39  0  0  0  0  0  0  0  0999 V2000
   42.5952   35.3247   41.9109 C   0  0  0  0  0  0  0  0  0  0  0  0
   43.4521   34.8698   40.9305 C   0  0  0  0  0  0  0  0  0  0  0  0
   43.0007   34.5584   39.6760 C   0  0  0  0  0  0  0  0  0  0  0  0
   41.6716   34.6838   39.3326 C   0  0  0  0  0  0  0  0  0  0  0  0
   40.7950   35.1461   40.3258 C   0  0  0  0  0  0  0  0  0  0  0  0
   41.2374   35.4628   41.5918 C   0  0  0  0  0  0  0  0  0  0  0  0
   39.4986   35.1897   39.7375 O   0  0  0  0  0  0  0  0  0  0  0  0
   39.5790   34.4029   38.5689 C   0  0  0  0  0  0  0  0  0  0  0  0
   40.9376   34.4485   38.1640 O   0  0  0  0  0  0  0  0  0  0  0  0
   45.1699   34.7286   41.4417 S   0  0  0  0  0  0  0  0  0  0  0  0
   45.2541   34.3615   43.2150 C   0  0  0  0  0  0  0  0  0  0  0  0
   45.8354   33.1396   43.5119 C   0  0  0  0  0  0  0  0  0  0  0  0
   45.9274   32.8011   44.8774 C   0  0  0  0  0  0  0  0  0  0  0  0
   45.4622   33.6509   45.8034 N   0  0  0  0  0  0  0  0  0  0  0  0
   44.9001   34.8380   45.4652 C   0  0  0  0  0  0  0  0  0  0  0  0
   44.8118   35.1612   44.1705 N   0  0  0  0  0  0  0  0  0  0  0  0
   44.3960   35.7732   46.3400 O   0  0  0  0  0  0  0  0  0  0  0  0
   42.8177   35.6047   42.9354 H   0  0  0  0  0  0  0  0  0  0  0  0
   43.7178   34.2064   38.9479 H   0  0  0  0  0  0  0  0  0  0  0  0
   40.5036   35.8181   42.3213 H   0  0  0  0  0  0  0  0  0  0  0  0
   38.9898   34.8784   37.7555 H   0  0  0  0  0  0  0  0  0  0  0  0
   39.1910   33.3767   38.7103 H   0  0  0  0  0  0  0  0  0  0  0  0
   46.2179   32.4353   42.8015 H   0  0  0  0  0  0  0  0  0  0  0  0
   46.3707   31.8604   45.1857 H   0  0  0  0  0  0  0  0  0  0  0  0
   43.6320   36.3167   43.7852 O   0  0  0  0  0  0  0  0  0  0  0  0
   43.8688   37.2929   44.5515 C   0  0  0  0  0  0  0  0  0  0  0  0
   43.8195   36.9891   46.0099 C   0  0  2  0  0  0  0  0  0  0  0  0
   44.5402   38.1849   46.5863 C   0  0  1  0  0  0  0  0  0  0  0  0
   44.2565   38.4047   47.6262 H   0  0  0  0  0  0  0  0  0  0  0  0
   43.9610   39.2973   45.7024 C   0  0  2  0  0  0  0  0  0  0  0  0
   44.4914   40.2382   45.8423 H   0  0  0  0  0  0  0  0  0  0  0  0
   44.1893   38.6888   44.3832 N   0  0  0  0  0  0  0  0  0  0  0  0
   42.7512   37.0986   46.3583 H   0  0  0  0  0  0  0  0  0  0  0  0
   45.6182   38.1968   46.3897 H   0  0  0  0  0  0  0  0  0  0  0  0
   42.8589   39.3537   45.8653 H   0  0  0  0  0  0  0  0  0  0  0  0
   44.4945   38.9389   43.4156 H   0  0  0  0  0  0  0  0  0  0  0  0
  2 10  1  0
  2  1  2  0
  3  2  1  0
  4  3  2  0
  4  5  1  0
  5  6  2  0
  6  1  1  0
  7  5  1  0
  8  7  1  0
  9  8  1  0
  9  4  1  0
 10 11  1  0
 11 12  2  0
 11 16  1  0
 12 13  1  0
 13 14  2  0
 15 14  1  0
 15 17  1  0
 16 15  2  0
  1 18  1  0
  3 19  1  0
  6 20  1  0
  8 21  1  0
  8 22  1  0
 12 23  1  0
 13 24  1  0
 25 26  2  0
 26 27  1  0
 27 28  1  0
 28 29  1  1
 28 30  1  0
 30 31  1  6
 30 32  1  0
 32 26  1  0
 27 33  1  1
 28 34  1  0
 30 35  1  0
 32 36  1  0
 17 27  1  0
M  ISO  8  18  14  19  14  20  14  21  13  22  13  23  14  24  14  29   8
M  ISO  1  31   8
M  END
>  <DihAtoms>  (1) 
14,16,26,25

>  <DihDeg>  (1) 
-124.49455080316949

$$$$
