REMARK  Name = 
REMARK  7 active torsions:
REMARK  status: ('A' for Active; 'I' for Inactive)
REMARK    1  A    between atoms: C_2  and  O_13
REMARK    2  A    between atoms: C_3  and  C_8
REMARK    3  A    between atoms: C_7  and  O_12
REMARK    4  A    between atoms: O_13  and  P_15
REMARK    5  A    between atoms: P_15  and  O_16
REMARK    6  A    between atoms: P_15  and  O_17
REMARK    7  A    between atoms: O_17  and  C_30
REMARK                            x       y       z     vdW  Elec       q    Type
REMARK                         _______ _______ _______ _____ _____    ______ ____
ROOT
ATOM      1  C   UNL     1      46.354  35.235  42.605  0.00  0.00    +0.000 A 
ATOM      2  C   UNL     1      46.850  34.128  43.304  0.00  0.00    +0.000 A 
ATOM      3  C   UNL     1      46.297  33.807  44.530  0.00  0.00    +0.000 A 
ATOM      4  N   UNL     1      45.294  34.599  44.983  0.00  0.00    +0.000 NA
ATOM      5  C   UNL     1      44.829  35.658  44.301  0.00  0.00    +0.000 A 
ATOM      6  N   UNL     1      45.359  35.978  43.109  0.00  0.00    +0.000 NA
ATOM      7  H   UNL     1      46.760  35.513  41.648  0.00  0.00    +0.000 HD
ATOM      8  H   UNL     1      44.031  36.121  44.879  0.00  0.00    +0.000 HD
ENDROOT
BRANCH   3  10
ATOM      9  C   UNL     1      46.114  31.367  44.942  0.00  0.00    +0.000 C 
ATOM     10  C   UNL     1      46.884  32.683  45.295  0.00  0.00    +0.000 C 
ATOM     11  C   UNL     1      46.648  32.761  46.752  0.00  0.00    +0.000 C 
ATOM     12  O   UNL     1      45.908  31.647  47.146  0.00  0.00    +0.000 OA
ATOM     13  C   UNL     1      46.338  30.641  46.267  0.00  0.00    +0.000 C 
ATOM     14  H   UNL     1      45.067  31.555  44.743  0.00  0.00    +0.000 HD
ATOM     15  H   UNL     1      47.892  32.450  44.947  0.00  0.00    +0.000 HD
ATOM     16  H   UNL     1      47.582  32.784  47.361  0.00  0.00    +0.000 HD
ATOM     17  H   UNL     1      46.083  33.684  47.050  0.00  0.00    +0.000 HD
ATOM     18  H   UNL     1      47.436  30.510  46.403  0.00  0.00    +0.000 HD
ATOM     19  H   UNL     1      45.751  29.728  46.357  0.00  0.00    +0.000 HD
BRANCH   9  20
ATOM     20  O   UNL     1      46.768  30.683  43.912  0.00  0.00    +0.000 OA
ATOM     21  H   UNL     1      47.715  30.616  44.179  0.00  0.00    +0.000 HD
ENDBRANCH   9  20
ENDBRANCH   3  10
BRANCH   2  22
ATOM     22  O   UNL     1      47.888  33.409  42.699  0.00  0.00    +0.000 OA
BRANCH  22  24
ATOM     23  O   UNL     1      50.337  33.139  41.822  0.00  0.00    +0.000 OA
ATOM     24  P   UNL     1      49.303  34.154  42.141  0.00  0.00    +0.000 P 
BRANCH  24  25
ATOM     25  O   UNL     1      48.998  35.045  40.732  0.00  0.00    +0.000 OA
ATOM     26  H   UNL     1      49.025  36.013  40.891  0.00  0.00    +0.000 HD
ENDBRANCH  24  25
BRANCH  24  27
ATOM     27  O   UNL     1      49.890  35.218  43.334  0.00  0.00    +0.000 OA
BRANCH  27  30
ATOM     28  O   UNL     1      48.044  34.244  45.593  0.00  0.00    +0.000 OA
ATOM     29  C   UNL     1      49.069  33.755  45.029  0.00  0.00    +0.000 C 
ATOM     30  C   UNL     1      50.192  34.586  44.503  0.00  0.00    +0.000 C 
ATOM     31  C   UNL     1      51.211  33.496  44.173  0.00  0.00    +0.000 C 
ATOM     32  H   UNL     1      51.855  33.754  43.331  0.00  0.00    +0.000 HD
ATOM     33  C   UNL     1      50.318  32.342  43.708  0.00  0.00    +0.000 C 
ATOM     34  H   UNL     1      50.862  31.402  43.624  0.00  0.00    +0.000 HD
ATOM     35  N   UNL     1      49.334  32.356  44.797  0.00  0.00    +0.000 N 
ATOM     36  H   UNL     1      48.904  31.554  45.309  0.00  0.00    +0.000 HD
ENDBRANCH  27  30
ENDBRANCH  24  27
ENDBRANCH  22  24
ENDBRANCH   2  22
TORSDOF 7
