
 OpenBabel03242515373D

 33 36  0  0  1  0  0  0  0  0999 V2000
   46.8980   33.3640   43.3680 C   0  0  0  0  0  0  0  0  0  0  0  0
   48.0020   32.7430   42.8100 C   0  0  0  0  0  0  0  0  0  0  0  0
   48.3690   31.4970   43.3570 C   0  0  0  0  0  0  0  0  0  0  0  0
   47.6530   30.9800   44.3650 N   0  0  0  0  0  0  0  0  0  0  0  0
   46.5770   31.6250   44.8810 C   0  0  0  0  0  0  0  0  0  0  0  0
   46.2280   32.8080   44.3630 N   0  0  0  0  0  0  0  0  0  0  0  0
   48.5990   33.1240   42.0050 H   0  0  0  0  0  0  0  0  0  0  0  0
   49.2240   30.9520   42.9700 H   0  0  0  0  0  0  0  0  0  0  0  0
   46.4860   34.9610   42.6160 S   0  0  0  0  0  0  0  0  0  0  0  0
   43.9210   35.5520   42.0930 C   0  0  0  0  0  0  0  0  0  0  0  0
   44.9850   34.8030   41.6380 C   0  0  0  0  0  0  0  0  0  0  0  0
   44.8790   34.0110   40.5260 C   0  0  0  0  0  0  0  0  0  0  0  0
   43.7040   33.9250   39.8090 C   0  0  0  0  0  0  0  0  0  0  0  0
   42.6170   34.6850   40.2680 C   0  0  0  0  0  0  0  0  0  0  0  0
   42.7130   35.4850   41.3850 C   0  0  0  0  0  0  0  0  0  0  0  0
   41.5370   34.4310   39.3750 O   0  0  0  0  0  0  0  0  0  0  0  0
   41.8880   33.2620   38.6670 C   0  0  0  0  0  0  0  0  0  0  0  0
   43.3070   33.2220   38.6660 O   0  0  0  0  0  0  0  0  0  0  0  0
   43.8700   36.2140   42.9510 H   0  0  0  0  0  0  0  0  0  0  0  0
   45.7460   33.4460   40.2150 H   0  0  0  0  0  0  0  0  0  0  0  0
   41.8300   36.0520   41.6910 H   0  0  0  0  0  0  0  0  0  0  0  0
   41.5740   33.3570   37.6050 H   0  0  0  0  0  0  0  0  0  0  0  0
   41.4170   32.3490   39.0760 H   0  0  0  0  0  0  0  0  0  0  0  0
   45.7830   31.1770   45.9120 O   0  0  0  0  0  0  0  0  0  0  0  0
   46.3960   28.8930   47.2600 O   0  0  0  0  0  0  0  0  0  0  0  0
   45.9640   29.8750   47.9270 C   0  0  0  0  0  0  0  0  0  0  0  0
   46.0880   31.2040   47.2640 C   0  0  2  0  0  0  0  0  0  0  0  0
   45.1350   32.0370   48.0890 C   0  0  0  0  0  0  0  0  0  0  0  0
   45.3730   33.1110   48.0780 H   0  0  0  0  0  0  0  0  0  0  0  0
   45.4600   31.5040   49.4910 C   0  0  0  0  0  0  0  0  0  0  0  0
   44.7440   31.8580   50.2310 H   0  0  0  0  0  0  0  0  0  0  0  0
   45.3550   30.0620   49.2200 N   0  0  0  0  0  0  0  0  0  0  0  0
   44.9960   29.1800   49.6510 H   0  0  0  0  0  0  0  0  0  0  0  0
  1  6  1  0  0  0  0
  2  3  1  0  0  0  0
  2  1  2  0  0  0  0
  3  4  2  0  0  0  0
  4  5  1  0  0  0  0
  5 24  1  0  0  0  0
  6  5  2  0  0  0  0
  7  2  1  0  0  0  0
  8  3  1  0  0  0  0
  9  1  1  0  0  0  0
 10 19  1  0  0  0  0
 11 10  1  0  0  0  0
 11  9  1  0  0  0  0
 12 11  2  0  0  0  0
 13 14  2  0  0  0  0
 13 12  1  0  0  0  0
 14 15  1  0  0  0  0
 15 21  1  0  0  0  0
 15 10  2  0  0  0  0
 16 14  1  0  0  0  0
 17 23  1  0  0  0  0
 17 16  1  0  0  0  0
 18 17  1  0  0  0  0
 18 13  1  0  0  0  0
 20 12  1  0  0  0  0
 22 17  1  0  0  0  0
 25 26  2  0  0  0  0
 26 32  1  0  0  0  0
 27 24  1  6  0  0  0
 27 26  1  0  0  0  0
 27 28  1  0  0  0  0
 28 30  1  0  0  0  0
 29 28  1  0  0  0  0
 30 31  1  0  0  0  0
 32 30  1  0  0  0  0
 32 33  1  0  0  0  0
M  END
>  <minimizedAffinity>
-5.2835536

>  <minimizedRMSD>
4.76308632

$$$$
