REMARK  Name = 
REMARK  4 active torsions:
REMARK  status: ('A' for Active; 'I' for Inactive)
REMARK    1  A    between atoms: C_1  and  O_16
REMARK    2  A    between atoms: C_3  and  C_8
REMARK    3  A    between atoms: O_16  and  C_17
REMARK    4  A    between atoms: C_20  and  C_32
REMARK                            x       y       z     vdW  Elec       q    Type
REMARK                         _______ _______ _______ _____ _____    ______ ____
ROOT
ATOM      1  C   UNL     1      45.498  34.818  43.539  0.00  0.00    +0.000 A 
ATOM      2  C   UNL     1      46.217  33.750  44.115  0.00  0.00    +0.000 A 
ATOM      3  C   UNL     1      46.023  33.519  45.469  0.00  0.00    +0.000 A 
ATOM      4  N   UNL     1      45.173  34.307  46.164  0.00  0.00    +0.000 NA
ATOM      5  C   UNL     1      44.494  35.325  45.586  0.00  0.00    +0.000 A 
ATOM      6  N   UNL     1      44.662  35.570  44.289  0.00  0.00    +0.000 NA
ATOM      7  H   UNL     1      46.885  33.129  43.577  0.00  0.00    +0.000 HD
ATOM      8  H   UNL     1      43.820  35.944  46.157  0.00  0.00    +0.000 HD
ENDROOT
BRANCH   3  10
ATOM      9  C   UNL     1      47.019  32.700  47.541  0.00  0.00    +0.000 A 
ATOM     10  C   UNL     1      46.689  32.456  46.214  0.00  0.00    +0.000 A 
ATOM     11  C   UNL     1      47.005  31.231  45.676  0.00  0.00    +0.000 A 
ATOM     12  C   UNL     1      47.634  30.235  46.397  0.00  0.00    +0.000 A 
ATOM     13  N   UNL     1      48.032  28.991  46.092  0.00  0.00    +0.000 N 
ATOM     14  C   UNL     1      48.613  28.453  47.230  0.00  0.00    +0.000 A 
ATOM     15  N   UNL     1      48.556  29.375  48.197  0.00  0.00    +0.000 NA
ATOM     16  C   UNL     1      47.962  30.476  47.714  0.00  0.00    +0.000 A 
ATOM     17  C   UNL     1      47.653  31.704  48.278  0.00  0.00    +0.000 A 
ATOM     18  H   UNL     1      46.824  33.615  48.071  0.00  0.00    +0.000 HD
ATOM     19  H   UNL     1      46.733  31.067  44.627  0.00  0.00    +0.000 HD
ATOM     20  H   UNL     1      47.891  28.574  45.137  0.00  0.00    +0.000 HD
ATOM     21  H   UNL     1      48.988  27.439  47.142  0.00  0.00    +0.000 HD
ATOM     22  H   UNL     1      47.930  31.852  49.322  0.00  0.00    +0.000 HD
ENDBRANCH   3  10
BRANCH   1  23
ATOM     23  O   UNL     1      45.665  35.080  42.194  0.00  0.00    +0.000 OA
BRANCH  23  24
ATOM     24  C   UNL     1      44.631  34.896  41.281  0.00  0.00    +0.000 A 
ATOM     25  C   UNL     1      45.003  33.778  40.601  0.00  0.00    +0.000 A 
ATOM     26  S   UNL     1      43.555  33.602  39.393  0.00  0.00    +0.000 S 
ATOM     27  C   UNL     1      42.740  35.163  40.124  0.00  0.00    +0.000 A 
ATOM     28  N   UNL     1      43.492  35.422  40.894  0.00  0.00    +0.000 NA
ATOM     29  H   UNL     1      45.693  32.969  40.418  0.00  0.00    +0.000 HD
BRANCH  27  32
ATOM     30  O   UNL     1      40.155  33.740  40.477  0.00  0.00    +0.000 OA
ATOM     31  C   UNL     1      40.348  34.953  40.203  0.00  0.00    +0.000 C 
ATOM     32  C   UNL     1      41.461  35.734  39.674  0.00  0.00    +0.000 C 
ATOM     33  C   UNL     1      41.237  37.082  40.332  0.00  0.00    +0.000 C 
ATOM     34  H   UNL     1      41.830  37.888  39.871  0.00  0.00    +0.000 HD
ATOM     35  C   UNL     1      39.740  37.243  40.079  0.00  0.00    +0.000 C 
ATOM     36  H   UNL     1      39.275  38.019  40.686  0.00  0.00    +0.000 HD
ATOM     37  N   UNL     1      39.281  35.898  40.425  0.00  0.00    +0.000 N 
ATOM     38  H   UNL     1      38.306  35.715  40.778  0.00  0.00    +0.000 HD
ENDBRANCH  27  32
ENDBRANCH  23  24
ENDBRANCH   1  23
TORSDOF 4
