
     RDKit          3D

 36 38  0  0  0  0  0  0  0  0999 V2000
   48.2370   34.6166   41.2924 C   0  0  1  0  0  0  0  0  0  0  0  0
   48.8631   35.9814   41.7857 C   0  0  0  0  0  0  0  0  0  0  0  0
   49.1374   34.6964   42.4356 C   0  0  2  0  0  0  0  0  0  0  0  0
   46.7623   34.5849   41.4881 C   0  0  0  0  0  0  0  0  0  0  0  0
   46.0687   34.3378   40.5051 O   0  0  0  0  0  0  0  0  0  0  0  0
   45.3922   35.9366   42.9991 C   0  0  0  0  0  0  0  0  0  0  0  0
   46.1076   34.8180   42.7325 C   0  0  0  0  0  0  0  0  0  0  0  0
   46.1914   33.8389   43.7577 C   0  0  0  0  0  0  0  0  0  0  0  0
   45.5746   34.0331   44.9467 N   0  0  0  0  0  0  0  0  0  0  0  0
   44.8640   35.1792   45.1675 C   0  0  0  0  0  0  0  0  0  0  0  0
   44.7835   36.0948   44.2139 N   0  0  0  0  0  0  0  0  0  0  0  0
   50.4587   34.2800   42.3310 O   0  0  0  0  0  0  0  0  0  0  0  0
   49.1080   32.1109   42.6665 O   0  0  0  0  0  0  0  0  0  0  0  0
   50.4209   32.5971   42.0858 P   0  0  2  0  0  0  0  0  0  0  0  0
   51.7267   31.8035   42.7448 O   0  0  0  0  0  0  0  0  0  0  0  0
   50.2970   32.3158   40.3926 O   0  0  0  0  0  0  0  0  0  0  0  0
   48.6455   34.2951   40.3189 H   0  0  0  0  0  0  0  0  0  0  0  0
   49.6050   36.4203   41.0985 H   0  0  0  0  0  0  0  0  0  0  0  0
   48.1468   36.7208   42.1938 H   0  0  0  0  0  0  0  0  0  0  0  0
   48.6746   34.3803   43.3815 H   0  0  0  0  0  0  0  0  0  0  0  0
   45.3490   36.6637   42.1939 H   0  0  0  0  0  0  0  0  0  0  0  0
   46.7128   32.9294   43.6751 H   0  0  0  0  0  0  0  0  0  0  0  0
   44.3768   35.3296   46.1099 H   0  0  0  0  0  0  0  0  0  0  0  0
   52.5420   32.0656   42.2844 H   0  0  0  0  0  0  0  0  0  0  0  0
   51.9980   29.9989   39.4570 O   0  0  0  0  0  0  0  0  0  0  0  0
   50.7857   30.1094   39.8489 C   0  0  0  0  0  0  0  0  0  0  0  0
   49.7150   31.1055   40.1280 C   0  0  1  0  0  0  0  0  0  0  0  0
   49.0994   30.5101   41.4006 C   0  0  2  0  0  0  0  0  0  0  0  0
   48.1019   30.9285   41.6101 H   0  0  0  0  0  0  0  0  0  0  0  0
   49.0390   29.0339   41.0562 C   0  0  2  0  0  0  0  0  0  0  0  0
   48.0763   28.7538   40.5739 H   0  0  0  0  0  0  0  0  0  0  0  0
   50.1473   28.8517   40.1533 N   0  0  0  0  0  0  0  0  0  0  0  0
   48.9421   31.1361   39.3348 H   0  0  0  0  0  0  0  0  0  0  0  0
   49.8264   30.6269   42.2255 H   0  0  0  0  0  0  0  0  0  0  0  0
   49.2367   28.4009   41.9541 H   0  0  0  0  0  0  0  0  0  0  0  0
   50.3450   27.8733   39.8428 H   0  0  0  0  0  0  0  0  0  0  0  0
  1  4  1  0
  1  2  1  0
  1  3  1  0
  2  3  1  0
  4  7  1  0
  5  4  2  0
  6 11  2  0
  7  6  1  0
  7  8  2  0
  8  9  1  0
  9 10  2  0
 11 10  1  0
 12  3  1  0
 14 12  1  6
 14 13  2  0
 14 15  1  0
 16 14  1  0
  1 17  1  6
  2 18  1  0
  2 19  1  0
  3 20  1  1
  6 21  1  0
  8 22  1  0
 10 23  1  0
 15 24  1  0
 25 26  2  0
 26 27  1  0
 27 28  1  0
 28 29  1  1
 28 30  1  0
 30 31  1  6
 30 32  1  0
 32 26  1  0
 27 33  1  6
 28 34  1  0
 30 35  1  0
 32 36  1  0
 16 27  1  0
M  ISO  8  17  13  18  13  19  13  20  13  21  14  22  14  23  14  24   3
M  ISO  2  29   8  31   8
M  END
>  <DihAtoms>  (1) 
13,15,26,25

>  <DihDeg>  (1) 
126.8851432792847

$$$$
