
 OpenBabel03252507373D

 38 42  0  0  1  0  0  0  0  0999 V2000
   45.5450   34.8170   43.4160 C   0  0  0  0  0  0  0  0  0  0  0  0
   46.2410   33.7470   44.0150 C   0  0  0  0  0  0  0  0  0  0  0  0
   46.0320   33.5400   45.3700 C   0  0  0  0  0  0  0  0  0  0  0  0
   45.1890   34.3530   46.0450 N   0  0  0  0  0  0  0  0  0  0  0  0
   44.5320   35.3730   45.4450 C   0  0  0  0  0  0  0  0  0  0  0  0
   44.7150   35.5950   44.1460 N   0  0  0  0  0  0  0  0  0  0  0  0
   46.9030   33.1060   43.4920 H   0  0  0  0  0  0  0  0  0  0  0  0
   43.8630   36.0120   46.0010 H   0  0  0  0  0  0  0  0  0  0  0  0
   46.9590   32.7230   47.4750 C   0  0  0  0  0  0  0  0  0  0  0  0
   46.6730   32.4780   46.1380 C   0  0  0  0  0  0  0  0  0  0  0  0
   47.0070   31.2530   45.6110 C   0  0  0  0  0  0  0  0  0  0  0  0
   47.6130   30.2580   46.3540 C   0  0  0  0  0  0  0  0  0  0  0  0
   48.0210   29.0140   46.0630 N   0  0  0  0  0  0  0  0  0  0  0  0
   48.5640   28.4770   47.2200 C   0  0  0  0  0  0  0  0  0  0  0  0
   48.4750   29.4000   48.1840 N   0  0  0  0  0  0  0  0  0  0  0  0
   47.8970   30.5000   47.6800 C   0  0  0  0  0  0  0  0  0  0  0  0
   47.5690   31.7280   48.2330 C   0  0  0  0  0  0  0  0  0  0  0  0
   46.7470   33.6390   47.9970 H   0  0  0  0  0  0  0  0  0  0  0  0
   46.7700   31.0880   44.5540 H   0  0  0  0  0  0  0  0  0  0  0  0
   47.9110   28.5960   45.1040 H   0  0  0  0  0  0  0  0  0  0  0  0
   48.9420   27.4630   47.1450 H   0  0  0  0  0  0  0  0  0  0  0  0
   47.8120   31.8770   49.2850 H   0  0  0  0  0  0  0  0  0  0  0  0
   45.7280   35.0550   42.0680 O   0  0  0  0  0  0  0  0  0  0  0  0
   44.7620   34.7090   41.1280 C   0  0  0  0  0  0  0  0  0  0  0  0
   45.3470   33.7010   40.4280 C   0  0  0  0  0  0  0  0  0  0  0  0
   43.9780   33.2950   39.1840 S   0  0  0  0  0  0  0  0  0  0  0  0
   42.8740   34.6540   39.9380 C   0  0  0  0  0  0  0  0  0  0  0  0
   43.5510   35.0260   40.7300 N   0  0  0  0  0  0  0  0  0  0  0  0
   46.1790   33.0400   40.2390 H   0  0  0  0  0  0  0  0  0  0  0  0
   42.3850   36.1970   37.4450 O   0  0  0  0  0  0  0  0  0  0  0  0
   41.5670   35.5130   38.1140 C   0  0  0  0  0  0  0  0  0  0  0  0
   41.5180   34.9910   39.4750 C   0  0  1  0  0  3  0  0  0  0  0  0
   40.7040   33.7250   39.2950 C   0  0  0  0  0  3  0  0  0  0  0  0
   40.3420   33.3080   40.2480 H   0  0  0  0  0  0  0  0  0  0  0  0
   39.5700   34.2720   38.4310 C   0  0  0  0  0  3  0  0  0  0  0  0
   38.9800   33.4970   37.9420 H   0  0  0  0  0  0  0  0  0  0  0  0
   40.3420   35.0810   37.4860 N   0  0  0  0  0  0  0  0  0  0  0  0
   39.9980   35.2800   36.5120 H   0  0  0  0  0  0  0  0  0  0  0  0
  1  2  2  0  0  0  0
  1  6  1  0  0  0  0
  2  3  1  0  0  0  0
  3  4  2  0  0  0  0
  3 10  1  0  0  0  0
  5  8  1  0  0  0  0
  5  4  1  0  0  0  0
  6  5  2  0  0  0  0
  7  2  1  0  0  0  0
  9 18  1  0  0  0  0
  9 17  1  0  0  0  0
 10  9  2  0  0  0  0
 11 10  1  0  0  0  0
 11 12  2  0  0  0  0
 12 16  1  0  0  0  0
 13 12  1  0  0  0  0
 13 14  1  0  0  0  0
 14 15  2  0  0  0  0
 16 15  1  0  0  0  0
 16 17  2  0  0  0  0
 17 22  1  0  0  0  0
 19 11  1  0  0  0  0
 20 13  1  0  0  0  0
 21 14  1  0  0  0  0
 23  1  1  0  0  0  0
 24 23  1  0  0  0  0
 25 24  2  0  0  0  0
 26 27  1  0  0  0  0
 26 25  1  0  0  0  0
 27 28  2  0  0  0  0
 28 24  1  0  0  0  0
 29 25  1  0  0  0  0
 30 31  2  0  0  0  0
 31 32  1  0  0  0  0
 32 27  1  6  0  0  0
 33 32  1  0  0  0  0
 33 34  1  0  0  0  0
 35 33  1  0  0  0  0
 36 35  1  0  0  0  0
 37 31  1  0  0  0  0
 37 35  1  0  0  0  0
 38 37  1  0  0  0  0
M  END
>  <minimizedAffinity>
-6.62741518

>  <minimizedRMSD>
0.625051022

$$$$
