
 OpenBabel03242512083D

 33 35  0  0  1  0  0  0  0  0999 V2000
   48.1910   34.5750   41.2630 C   0  0  1  0  0  0  0  0  0  0  0  0
   48.8330   35.9470   41.7140 C   0  0  0  0  0  0  0  0  0  0  0  0
   49.1020   34.6780   42.3970 C   0  0  2  0  0  0  0  0  0  0  0  0
   48.5870   34.2230   40.2960 H   0  0  0  0  0  0  0  0  0  0  0  0
   49.5730   36.3600   41.0090 H   0  0  0  0  0  0  0  0  0  0  0  0
   48.1270   36.7040   42.1080 H   0  0  0  0  0  0  0  0  0  0  0  0
   48.6450   34.3920   43.3550 H   0  0  0  0  0  0  0  0  0  0  0  0
   46.7170   34.5620   41.4730 C   0  0  0  0  0  0  0  0  0  0  0  0
   46.0120   34.3230   40.4970 O   0  0  0  0  0  0  0  0  0  0  0  0
   45.3860   35.9360   42.9990 C   0  0  0  0  0  0  0  0  0  0  0  0
   46.0780   34.8040   42.7240 C   0  0  0  0  0  0  0  0  0  0  0  0
   46.1500   33.8210   43.7460 C   0  0  0  0  0  0  0  0  0  0  0  0
   45.5470   34.0240   44.9400 N   0  0  0  0  0  0  0  0  0  0  0  0
   44.8610   35.1830   45.1690 C   0  0  0  0  0  0  0  0  0  0  0  0
   44.7900   36.1030   44.2190 N   0  0  0  0  0  0  0  0  0  0  0  0
   45.3510   36.6660   42.1960 H   0  0  0  0  0  0  0  0  0  0  0  0
   46.6530   32.9010   43.6560 H   0  0  0  0  0  0  0  0  0  0  0  0
   44.3840   35.3400   46.1160 H   0  0  0  0  0  0  0  0  0  0  0  0
   50.4190   34.2470   42.2920 O   0  0  0  0  0  0  0  0  0  0  0  0
   49.1010   32.1040   42.8500 O   0  0  0  0  0  0  0  0  0  0  0  0
   50.3670   32.5530   42.1480 P   0  0  2  0  0  0  0  0  0  0  0  0
   51.7190   31.7950   42.7530 O   0  0  0  0  0  0  0  0  0  0  0  0
   52.4970   32.0290   42.2190 H   0  0  0  0  0  0  0  0  0  0  0  0
   50.1190   32.1750   40.4870 O   0  0  0  0  0  0  0  0  0  0  0  0
   53.0330   31.4560   40.1320 O   0  0  0  0  0  0  0  0  0  0  0  0
   51.9580   30.7740   40.2490 C   0  0  0  0  0  0  0  0  0  0  0  0
   50.4740   30.8820   40.2100 C   0  0  1  0  0  0  0  0  0  0  0  0
   50.0920   29.9540   41.3700 C   0  0  0  0  0  0  0  0  0  0  0  0
   49.0310   29.6580   41.3290 H   0  0  0  0  0  0  0  0  0  0  0  0
   51.0240   28.7780   41.1490 C   0  0  0  0  0  0  0  0  0  0  0  0
   50.5680   27.9970   40.5000 H   0  0  0  0  0  0  0  0  0  0  0  0
   52.1750   29.3730   40.5190 N   0  0  0  0  0  0  0  0  0  0  0  0
   52.9920   28.7450   40.3410 H   0  0  0  0  0  0  0  0  0  0  0  0
  1  4  1  6  0  0  0
  1  8  1  0  0  0  0
  1  2  1  0  0  0  0
  1  3  1  0  0  0  0
  2  6  1  0  0  0  0
  2  3  1  0  0  0  0
  3  7  1  1  0  0  0
  5  2  1  0  0  0  0
  8 11  1  0  0  0  0
  9  8  2  0  0  0  0
 10 15  1  0  0  0  0
 11 10  2  0  0  0  0
 11 12  1  0  0  0  0
 12 13  2  0  0  0  0
 13 14  1  0  0  0  0
 14 18  1  0  0  0  0
 15 14  2  0  0  0  0
 16 10  1  0  0  0  0
 17 12  1  0  0  0  0
 19  3  1  0  0  0  0
 21 19  1  0  0  0  0
 21 22  1  0  0  0  0
 21 20  2  1  0  0  0
 23 22  1  0  0  0  0
 24 21  1  0  0  0  0
 25 26  2  0  0  0  0
 26 32  1  0  0  0  0
 27 26  1  0  0  0  0
 27 24  1  1  0  0  0
 27 28  1  0  0  0  0
 29 28  1  0  0  0  0
 30 28  1  0  0  0  0
 31 30  1  0  0  0  0
 32 30  1  0  0  0  0
 33 32  1  0  0  0  0
M  END
>  <minimizedAffinity>
-4.95379353

>  <minimizedRMSD>
1.20046687

$$$$
