REMARK  Name = 
REMARK  7 active torsions:
REMARK  status: ('A' for Active; 'I' for Inactive)
REMARK    1  A    between atoms: C_1  and  C_4
REMARK    2  A    between atoms: C_3  and  O_12
REMARK    3  A    between atoms: C_4  and  C_7
REMARK    4  A    between atoms: O_12  and  P_14
REMARK    5  A    between atoms: P_14  and  O_15
REMARK    6  A    between atoms: P_14  and  O_16
REMARK    7  A    between atoms: O_16  and  C_27
REMARK                            x       y       z     vdW  Elec       q    Type
REMARK                         _______ _______ _______ _____ _____    ______ ____
ROOT
ATOM      1  C   UNL     1      48.237  34.617  41.292  0.00  0.00    +0.000 C 
ATOM      2  C   UNL     1      48.863  35.981  41.786  0.00  0.00    +0.000 C 
ATOM      3  C   UNL     1      49.137  34.696  42.436  0.00  0.00    +0.000 C 
ATOM      4  H   UNL     1      48.645  34.295  40.319  0.00  0.00    +0.000 HD
ATOM      5  H   UNL     1      49.605  36.420  41.099  0.00  0.00    +0.000 HD
ATOM      6  H   UNL     1      48.147  36.721  42.194  0.00  0.00    +0.000 HD
ATOM      7  H   UNL     1      48.675  34.380  43.382  0.00  0.00    +0.000 HD
ENDROOT
BRANCH   1   8
ATOM      8  C   UNL     1      46.762  34.585  41.488  0.00  0.00    +0.000 C 
ATOM      9  O   UNL     1      46.069  34.338  40.505  0.00  0.00    +0.000 OA
BRANCH   8  11
ATOM     10  C   UNL     1      45.392  35.937  42.999  0.00  0.00    +0.000 A 
ATOM     11  C   UNL     1      46.108  34.818  42.733  0.00  0.00    +0.000 A 
ATOM     12  C   UNL     1      46.191  33.839  43.758  0.00  0.00    +0.000 A 
ATOM     13  N   UNL     1      45.575  34.033  44.947  0.00  0.00    +0.000 NA
ATOM     14  C   UNL     1      44.864  35.179  45.167  0.00  0.00    +0.000 A 
ATOM     15  N   UNL     1      44.783  36.095  44.214  0.00  0.00    +0.000 NA
ATOM     16  H   UNL     1      45.349  36.664  42.194  0.00  0.00    +0.000 HD
ATOM     17  H   UNL     1      46.713  32.929  43.675  0.00  0.00    +0.000 HD
ATOM     18  H   UNL     1      44.377  35.330  46.110  0.00  0.00    +0.000 HD
ENDBRANCH   8  11
ENDBRANCH   1   8
BRANCH   3  19
ATOM     19  O   UNL     1      50.459  34.280  42.331  0.00  0.00    +0.000 OA
BRANCH  19  21
ATOM     20  O   UNL     1      49.108  32.111  42.666  0.00  0.00    +0.000 OA
ATOM     21  P   UNL     1      50.421  32.597  42.086  0.00  0.00    +0.000 P 
BRANCH  21  22
ATOM     22  O   UNL     1      51.727  31.803  42.745  0.00  0.00    +0.000 OA
ATOM     23  H   UNL     1      52.542  32.066  42.284  0.00  0.00    +0.000 HD
ENDBRANCH  21  22
BRANCH  21  24
ATOM     24  O   UNL     1      50.297  32.316  40.393  0.00  0.00    +0.000 OA
BRANCH  24  27
ATOM     25  O   UNL     1      51.495  30.494  38.299  0.00  0.00    +0.000 OA
ATOM     26  C   UNL     1      50.588  30.349  39.189  0.00  0.00    +0.000 C 
ATOM     27  C   UNL     1      49.715  31.105  40.128  0.00  0.00    +0.000 C 
ATOM     28  C   UNL     1      49.771  30.195  41.362  0.00  0.00    +0.000 C 
ATOM     29  H   UNL     1      48.959  30.415  42.073  0.00  0.00    +0.000 HD
ATOM     30  C   UNL     1      49.630  28.819  40.740  0.00  0.00    +0.000 C 
ATOM     31  H   UNL     1      48.567  28.497  40.669  0.00  0.00    +0.000 HD
ATOM     32  N   UNL     1      50.216  28.976  39.433  0.00  0.00    +0.000 N 
ATOM     33  H   UNL     1      50.296  28.114  38.847  0.00  0.00    +0.000 HD
ENDBRANCH  24  27
ENDBRANCH  21  24
ENDBRANCH  19  21
ENDBRANCH   3  19
TORSDOF 7
