
 OpenBabel03242512103D

 33 35  0  0  1  0  0  0  0  0999 V2000
   38.0550   29.0510   43.1970 C   0  0  1  0  0  0  0  0  0  0  0  0
   39.4900   28.5570   42.7560 C   0  0  0  0  0  0  0  0  0  0  0  0
   38.8820   29.7920   42.2530 C   0  0  2  0  0  0  0  0  0  0  0  0
   38.0290   29.3800   44.2490 H   0  0  0  0  0  0  0  0  0  0  0  0
   40.2540   28.6020   43.5490 H   0  0  0  0  0  0  0  0  0  0  0  0
   39.5180   27.6180   42.1690 H   0  0  0  0  0  0  0  0  0  0  0  0
   38.4320   29.8890   41.2540 H   0  0  0  0  0  0  0  0  0  0  0  0
   36.9850   28.1370   42.7130 C   0  0  0  0  0  0  0  0  0  0  0  0
   36.5110   27.3470   43.5240 O   0  0  0  0  0  0  0  0  0  0  0  0
   35.5970   29.0380   40.9100 C   0  0  0  0  0  0  0  0  0  0  0  0
   36.4780   28.1220   41.3800 C   0  0  0  0  0  0  0  0  0  0  0  0
   36.9090   27.1120   40.4810 C   0  0  0  0  0  0  0  0  0  0  0  0
   36.4470   27.0780   39.2100 N   0  0  0  0  0  0  0  0  0  0  0  0
   35.5590   28.0250   38.7820 C   0  0  0  0  0  0  0  0  0  0  0  0
   35.1540   28.9700   39.6170 N   0  0  0  0  0  0  0  0  0  0  0  0
   35.2880   29.7960   41.6230 H   0  0  0  0  0  0  0  0  0  0  0  0
   37.5900   26.3470   40.7240 H   0  0  0  0  0  0  0  0  0  0  0  0
   35.1950   27.9950   37.7750 H   0  0  0  0  0  0  0  0  0  0  0  0
   39.5460   30.9490   42.6440 O   0  0  0  0  0  0  0  0  0  0  0  0
   41.1460   32.1920   41.0520 O   0  0  0  0  0  0  0  0  0  0  0  0
   39.6680   31.9320   41.2610 P   0  0  2  0  0  0  0  0  0  0  0  0
   38.7950   33.3440   41.3750 O   0  0  0  0  0  0  0  0  0  0  0  0
   37.8440   33.1440   41.4100 H   0  0  0  0  0  0  0  0  0  0  0  0
   39.1800   30.9920   39.9050 O   0  0  0  0  0  0  0  0  0  0  0  0
   41.0550   31.7540   37.6600 O   0  0  0  0  0  0  0  0  0  0  0  0
   39.7940   31.8680   37.8420 C   0  0  0  0  0  0  0  0  0  0  0  0
   38.7330   31.7850   38.8820 C   0  0  1  0  0  3  0  0  0  0  0  0
   37.6200   31.0790   38.0960 C   0  0  0  0  0  3  0  0  0  0  0  0
   36.6390   31.1830   38.5870 H   0  0  0  0  0  0  0  0  0  0  0  0
   37.6730   31.8030   36.7640 C   0  0  0  0  0  3  0  0  0  0  0  0
   36.9980   32.6880   36.7400 H   0  0  0  0  0  0  0  0  0  0  0  0
   39.0540   32.1970   36.6470 N   0  0  0  0  0  0  0  0  0  0  0  0
   39.3390   32.6540   35.7520 H   0  0  0  0  0  0  0  0  0  0  0  0
  1  4  1  1  0  0  0
  2  1  1  0  0  0  0
  2  5  1  0  0  0  0
  3  7  1  6  0  0  0
  3 19  1  0  0  0  0
  3  2  1  0  0  0  0
  3  1  1  0  0  0  0
  6  2  1  0  0  0  0
  8  1  1  0  0  0  0
  8  9  2  0  0  0  0
 10 11  1  0  0  0  0
 10 16  1  0  0  0  0
 11  8  1  0  0  0  0
 12 17  1  0  0  0  0
 12 11  2  0  0  0  0
 13 12  1  0  0  0  0
 14 13  2  0  0  0  0
 14 15  1  0  0  0  0
 15 10  2  0  0  0  0
 18 14  1  0  0  0  0
 21 20  2  6  0  0  0
 21 22  1  0  0  0  0
 21 19  1  0  0  0  0
 22 23  1  0  0  0  0
 24 21  1  0  0  0  0
 25 26  2  0  0  0  0
 26 27  1  0  0  0  0
 27 24  1  1  0  0  0
 28 29  1  0  0  0  0
 28 27  1  0  0  0  0
 30 28  1  0  0  0  0
 31 30  1  0  0  0  0
 32 30  1  0  0  0  0
 32 26  1  0  0  0  0
 33 32  1  0  0  0  0
M  END
>  <minimizedAffinity>
-5.35117102

$$$$

 OpenBabel03242512103D

 33 35  0  0  1  0  0  0  0  0999 V2000
   36.1870   29.7760   39.0380 C   0  0  1  0  0  0  0  0  0  0  0  0
   36.8160   28.3290   38.9530 C   0  0  0  0  0  0  0  0  0  0  0  0
   36.7510   29.0990   40.1990 C   0  0  2  0  0  0  0  0  0  0  0  0
   35.0930   29.7670   38.8990 H   0  0  0  0  0  0  0  0  0  0  0  0
   36.0880   27.5230   38.7650 H   0  0  0  0  0  0  0  0  0  0  0  0
   37.7410   28.2390   38.3500 H   0  0  0  0  0  0  0  0  0  0  0  0
   37.6110   29.6220   40.6390 H   0  0  0  0  0  0  0  0  0  0  0  0
   36.9900   30.7710   38.2760 C   0  0  0  0  0  0  0  0  0  0  0  0
   37.0010   30.6680   37.0530 O   0  0  0  0  0  0  0  0  0  0  0  0
   37.1700   32.9420   39.3900 C   0  0  0  0  0  0  0  0  0  0  0  0
   37.7400   31.8280   38.8700 C   0  0  0  0  0  0  0  0  0  0  0  0
   39.1540   31.7270   38.9390 C   0  0  0  0  0  0  0  0  0  0  0  0
   39.8890   32.7140   39.5020 N   0  0  0  0  0  0  0  0  0  0  0  0
   39.2670   33.8190   40.0140 C   0  0  0  0  0  0  0  0  0  0  0  0
   37.9480   33.9170   39.9530 N   0  0  0  0  0  0  0  0  0  0  0  0
   36.0880   32.9870   39.3220 H   0  0  0  0  0  0  0  0  0  0  0  0
   39.7140   30.9140   38.5740 H   0  0  0  0  0  0  0  0  0  0  0  0
   39.8520   34.5990   40.4600 H   0  0  0  0  0  0  0  0  0  0  0  0
   35.9240   28.5390   41.1660 O   0  0  0  0  0  0  0  0  0  0  0  0
   36.1210   27.2600   43.3950 O   0  0  0  0  0  0  0  0  0  0  0  0
   36.9070   28.2110   42.5150 P   0  0  2  0  0  0  0  0  0  0  0  0
   37.3790   29.5790   43.3380 O   0  0  0  0  0  0  0  0  0  0  0  0
   37.9620   30.1190   42.7770 H   0  0  0  0  0  0  0  0  0  0  0  0
   38.2620   27.3020   41.9680 O   0  0  0  0  0  0  0  0  0  0  0  0
   37.4980   24.7750   40.4980 O   0  0  0  0  0  0  0  0  0  0  0  0
   38.0710   25.0130   41.6150 C   0  0  0  0  0  0  0  0  0  0  0  0
   38.3420   26.0920   42.6040 C   0  0  1  0  0  3  0  0  0  0  0  0
   39.7950   25.7730   42.9810 C   0  0  0  0  0  3  0  0  0  0  0  0
   40.0960   26.2700   43.9180 H   0  0  0  0  0  0  0  0  0  0  0  0
   39.7560   24.2630   43.1210 C   0  0  0  0  0  3  0  0  0  0  0  0
   39.5160   23.9440   44.1600 H   0  0  0  0  0  0  0  0  0  0  0  0
   38.7210   23.8640   42.2010 N   0  0  0  0  0  0  0  0  0  0  0  0
   38.5720   22.8370   42.0760 H   0  0  0  0  0  0  0  0  0  0  0  0
  1  4  1  6  0  0  0
  1  3  1  0  0  0  0
  2  1  1  0  0  0  0
  2  3  1  0  0  0  0
  3  7  1  1  0  0  0
  3 19  1  0  0  0  0
  5  2  1  0  0  0  0
  6  2  1  0  0  0  0
  8 11  1  0  0  0  0
  8  1  1  0  0  0  0
  9  8  2  0  0  0  0
 10 15  1  0  0  0  0
 11 12  1  0  0  0  0
 11 10  2  0  0  0  0
 12 13  2  0  0  0  0
 13 14  1  0  0  0  0
 14 18  1  0  0  0  0
 15 14  2  0  0  0  0
 16 10  1  0  0  0  0
 17 12  1  0  0  0  0
 19 21  1  0  0  0  0
 21 22  1  0  0  0  0
 21 20  2  1  0  0  0
 23 22  1  0  0  0  0
 24 21  1  0  0  0  0
 25 26  2  0  0  0  0
 26 32  1  0  0  0  0
 26 27  1  0  0  0  0
 27 24  1  6  0  0  0
 27 28  1  0  0  0  0
 28 30  1  0  0  0  0
 28 29  1  0  0  0  0
 30 31  1  0  0  0  0
 32 30  1  0  0  0  0
 33 32  1  0  0  0  0
M  END
>  <minimizedAffinity>
-5.15926647

$$$$

 OpenBabel03242512103D

 33 35  0  0  1  0  0  0  0  0999 V2000
   37.1660   27.5300   42.2480 C   0  0  1  0  0  0  0  0  0  0  0  0
   37.1650   28.1980   43.6790 C   0  0  0  0  0  0  0  0  0  0  0  0
   37.9860   28.6910   42.5700 C   0  0  2  0  0  0  0  0  0  0  0  0
   36.2160   27.6860   41.7100 H   0  0  0  0  0  0  0  0  0  0  0  0
   36.2280   28.7150   43.9430 H   0  0  0  0  0  0  0  0  0  0  0  0
   37.5740   27.5790   44.5020 H   0  0  0  0  0  0  0  0  0  0  0  0
   39.0660   28.5060   42.4800 H   0  0  0  0  0  0  0  0  0  0  0  0
   37.7460   26.1600   42.2800 C   0  0  0  0  0  0  0  0  0  0  0  0
   36.9600   25.2170   42.3290 O   0  0  0  0  0  0  0  0  0  0  0  0
   39.8570   25.5620   43.3630 C   0  0  0  0  0  0  0  0  0  0  0  0
   39.1420   25.8730   42.2550 C   0  0  0  0  0  0  0  0  0  0  0  0
   39.8370   25.9020   41.0170 C   0  0  0  0  0  0  0  0  0  0  0  0
   41.1620   25.6290   40.9650 N   0  0  0  0  0  0  0  0  0  0  0  0
   41.8390   25.3190   42.1110 C   0  0  0  0  0  0  0  0  0  0  0  0
   41.1950   25.2910   43.2680 N   0  0  0  0  0  0  0  0  0  0  0  0
   39.2950   25.5480   44.2910 H   0  0  0  0  0  0  0  0  0  0  0  0
   39.3970   26.1270   40.0890 H   0  0  0  0  0  0  0  0  0  0  0  0
   42.8880   25.1030   42.0660 H   0  0  0  0  0  0  0  0  0  0  0  0
   37.6310   29.9590   42.1230 O   0  0  0  0  0  0  0  0  0  0  0  0
   39.8480   29.4920   40.8940 O   0  0  0  0  0  0  0  0  0  0  0  0
   39.0310   30.6450   41.4430 P   0  0  2  0  0  0  0  0  0  0  0  0
   39.9020   31.5720   42.5170 O   0  0  0  0  0  0  0  0  0  0  0  0
   39.3850   32.3550   42.7730 H   0  0  0  0  0  0  0  0  0  0  0  0
   38.5530   31.5550   40.0630 O   0  0  0  0  0  0  0  0  0  0  0  0
   37.6870   31.7290   37.1730 O   0  0  0  0  0  0  0  0  0  0  0  0
   38.8210   31.7550   37.7630 C   0  0  0  0  0  0  0  0  0  0  0  0
   39.4870   31.4790   39.0650 C   0  0  1  0  0  3  0  0  0  0  0  0
   40.4590   32.6630   39.1430 C   0  0  0  0  0  3  0  0  0  0  0  0
   41.2570   32.4930   39.8840 H   0  0  0  0  0  0  0  0  0  0  0  0
   40.9980   32.7170   37.7260 C   0  0  0  0  0  3  0  0  0  0  0  0
   41.9130   32.0960   37.6000 H   0  0  0  0  0  0  0  0  0  0  0  0
   39.9090   32.2080   36.9300 N   0  0  0  0  0  0  0  0  0  0  0  0
   40.0350   32.2260   35.8930 H   0  0  0  0  0  0  0  0  0  0  0  0
  1  4  1  6  0  0  0
  1  8  1  0  0  0  0
  1  3  1  0  0  0  0
  1  2  1  0  0  0  0
  2  5  1  0  0  0  0
  2  6  1  0  0  0  0
  3  7  1  1  0  0  0
  3  2  1  0  0  0  0
  8  9  2  0  0  0  0
 10 16  1  0  0  0  0
 11  8  1  0  0  0  0
 11 10  2  0  0  0  0
 12 11  1  0  0  0  0
 13 12  2  0  0  0  0
 13 14  1  0  0  0  0
 14 15  2  0  0  0  0
 15 10  1  0  0  0  0
 17 12  1  0  0  0  0
 18 14  1  0  0  0  0
 19  3  1  0  0  0  0
 21 20  2  6  0  0  0
 21 19  1  0  0  0  0
 21 22  1  0  0  0  0
 22 23  1  0  0  0  0
 24 21  1  0  0  0  0
 25 26  2  0  0  0  0
 26 27  1  0  0  0  0
 27 28  1  0  0  0  0
 27 24  1  1  0  0  0
 28 29  1  0  0  0  0
 30 28  1  0  0  0  0
 31 30  1  0  0  0  0
 32 30  1  0  0  0  0
 32 26  1  0  0  0  0
 33 32  1  0  0  0  0
M  END
>  <minimizedAffinity>
-5.14026117

$$$$

 OpenBabel03242512103D

 33 35  0  0  1  0  0  0  0  0999 V2000
   37.4150   28.7450   41.0180 C   0  0  1  0  0  0  0  0  0  0  0  0
   35.8360   28.8100   41.0220 C   0  0  0  0  0  0  0  0  0  0  0  0
   36.6830   30.0010   40.9080 C   0  0  2  0  0  0  0  0  0  0  0  0
   37.8150   28.2830   40.0990 H   0  0  0  0  0  0  0  0  0  0  0  0
   35.3580   28.3860   40.1230 H   0  0  0  0  0  0  0  0  0  0  0  0
   35.3430   28.5110   41.9670 H   0  0  0  0  0  0  0  0  0  0  0  0
   36.8740   30.6960   41.7380 H   0  0  0  0  0  0  0  0  0  0  0  0
   37.9500   28.2920   42.3310 C   0  0  0  0  0  0  0  0  0  0  0  0
   37.9340   29.1000   43.2540 O   0  0  0  0  0  0  0  0  0  0  0  0
   37.9490   25.8610   42.0500 C   0  0  0  0  0  0  0  0  0  0  0  0
   38.4740   26.9900   42.5830 C   0  0  0  0  0  0  0  0  0  0  0  0
   39.6080   26.8460   43.4250 C   0  0  0  0  0  0  0  0  0  0  0  0
   40.1290   25.6230   43.6760 N   0  0  0  0  0  0  0  0  0  0  0  0
   39.5620   24.5130   43.1150 C   0  0  0  0  0  0  0  0  0  0  0  0
   38.5050   24.6420   42.3280 N   0  0  0  0  0  0  0  0  0  0  0  0
   37.0830   26.0070   41.4110 H   0  0  0  0  0  0  0  0  0  0  0  0
   40.1080   27.6430   43.8960 H   0  0  0  0  0  0  0  0  0  0  0  0
   39.9760   23.5450   43.3150 H   0  0  0  0  0  0  0  0  0  0  0  0
   36.5750   30.6560   39.6870 O   0  0  0  0  0  0  0  0  0  0  0  0
   38.6560   31.6850   40.8080 O   0  0  0  0  0  0  0  0  0  0  0  0
   37.6010   32.0110   39.7700 P   0  0  2  0  0  0  0  0  0  0  0  0
   36.7990   33.4270   40.1190 O   0  0  0  0  0  0  0  0  0  0  0  0
   36.2010   33.6590   39.3870 H   0  0  0  0  0  0  0  0  0  0  0  0
   38.4530   32.1170   38.2790 O   0  0  0  0  0  0  0  0  0  0  0  0
   38.5730   29.2470   37.3380 O   0  0  0  0  0  0  0  0  0  0  0  0
   39.4560   30.1130   37.6630 C   0  0  0  0  0  0  0  0  0  0  0  0
   39.6370   31.4300   38.3300 C   0  0  1  0  0  3  0  0  0  0  0  0
   40.6780   32.0760   37.4070 C   0  0  0  0  0  3  0  0  0  0  0  0
   41.1730   32.9380   37.8830 H   0  0  0  0  0  0  0  0  0  0  0  0
   41.6380   30.9260   37.1670 C   0  0  0  0  0  3  0  0  0  0  0  0
   42.4590   30.9010   37.9180 H   0  0  0  0  0  0  0  0  0  0  0  0
   40.8000   29.7580   37.2730 N   0  0  0  0  0  0  0  0  0  0  0  0
   41.2480   28.8370   37.0640 H   0  0  0  0  0  0  0  0  0  0  0  0
  1  4  1  6  0  0  0
  1  2  1  0  0  0  0
  1  8  1  0  0  0  0
  2  6  1  0  0  0  0
  3  1  1  0  0  0  0
  3  2  1  0  0  0  0
  3  7  1  1  0  0  0
  5  2  1  0  0  0  0
  8 11  1  0  0  0  0
  8  9  2  0  0  0  0
 10 15  2  0  0  0  0
 10 11  1  0  0  0  0
 11 12  2  0  0  0  0
 12 13  1  0  0  0  0
 12 17  1  0  0  0  0
 14 18  1  0  0  0  0
 14 13  2  0  0  0  0
 15 14  1  0  0  0  0
 16 10  1  0  0  0  0
 19 21  1  0  0  0  0
 19  3  1  0  0  0  0
 21 22  1  0  0  0  0
 21 20  2  1  0  0  0
 23 22  1  0  0  0  0
 24 21  1  0  0  0  0
 25 26  2  0  0  0  0
 26 27  1  0  0  0  0
 27 24  1  6  0  0  0
 28 29  1  0  0  0  0
 28 27  1  0  0  0  0
 30 32  1  0  0  0  0
 30 28  1  0  0  0  0
 30 31  1  0  0  0  0
 32 26  1  0  0  0  0
 33 32  1  0  0  0  0
M  END
>  <minimizedAffinity>
-5.06248665

$$$$

 OpenBabel03242512103D

 33 35  0  0  1  0  0  0  0  0999 V2000
   40.0770   32.3770   39.5990 C   0  0  1  0  0  0  0  0  0  0  0  0
   39.6780   33.8720   39.9200 C   0  0  0  0  0  0  0  0  0  0  0  0
   38.6900   32.8050   39.7330 C   0  0  2  0  0  0  0  0  0  0  0  0
   40.5620   31.8780   40.4540 H   0  0  0  0  0  0  0  0  0  0  0  0
   39.9400   34.2070   40.9370 H   0  0  0  0  0  0  0  0  0  0  0  0
   39.9170   34.6150   39.1350 H   0  0  0  0  0  0  0  0  0  0  0  0
   38.0990   32.6760   38.8150 H   0  0  0  0  0  0  0  0  0  0  0  0
   40.7060   32.2520   38.2550 C   0  0  0  0  0  0  0  0  0  0  0  0
   39.9560   32.0940   37.2960 O   0  0  0  0  0  0  0  0  0  0  0  0
   42.9120   31.2150   38.0410 C   0  0  0  0  0  0  0  0  0  0  0  0
   42.1090   32.3060   38.0130 C   0  0  0  0  0  0  0  0  0  0  0  0
   42.7180   33.5550   37.7170 C   0  0  0  0  0  0  0  0  0  0  0  0
   44.0470   33.6330   37.4780 N   0  0  0  0  0  0  0  0  0  0  0  0
   44.8150   32.5030   37.5180 C   0  0  0  0  0  0  0  0  0  0  0  0
   44.2520   31.3360   37.7930 N   0  0  0  0  0  0  0  0  0  0  0  0
   42.4140   30.2780   38.2700 H   0  0  0  0  0  0  0  0  0  0  0  0
   42.2050   34.4720   37.6630 H   0  0  0  0  0  0  0  0  0  0  0  0
   45.8680   32.5680   37.3280 H   0  0  0  0  0  0  0  0  0  0  0  0
   37.9600   32.5030   40.8770 O   0  0  0  0  0  0  0  0  0  0  0  0
   36.7660   31.1920   39.0070 O   0  0  0  0  0  0  0  0  0  0  0  0
   37.0090   31.1430   40.5020 P   0  0  2  0  0  0  0  0  0  0  0  0
   35.5880   31.0720   41.3650 O   0  0  0  0  0  0  0  0  0  0  0  0
   35.7800   30.9430   42.3090 H   0  0  0  0  0  0  0  0  0  0  0  0
   37.9750   29.7420   40.7550 O   0  0  0  0  0  0  0  0  0  0  0  0
   36.5740   27.0700   40.5830 O   0  0  0  0  0  0  0  0  0  0  0  0
   37.0980   27.7380   41.5390 C   0  0  0  0  0  0  0  0  0  0  0  0
   37.6140   29.0860   41.9010 C   0  0  1  0  0  3  0  0  0  0  0  0
   38.8540   28.7050   42.7200 C   0  0  0  0  0  3  0  0  0  0  0  0
   39.2180   29.5460   43.3320 H   0  0  0  0  0  0  0  0  0  0  0  0
   38.3260   27.5640   43.5710 C   0  0  0  0  0  3  0  0  0  0  0  0
   37.9120   27.9200   44.5410 H   0  0  0  0  0  0  0  0  0  0  0  0
   37.2990   26.9770   42.7490 N   0  0  0  0  0  0  0  0  0  0  0  0
   36.8430   26.1100   43.1140 H   0  0  0  0  0  0  0  0  0  0  0  0
  1  3  1  0  0  0  0
  1  2  1  0  0  0  0
  1  4  1  1  0  0  0
  2  5  1  0  0  0  0
  3  7  1  6  0  0  0
  3  2  1  0  0  0  0
  3 19  1  0  0  0  0
  6  2  1  0  0  0  0
  8  1  1  0  0  0  0
  9  8  2  0  0  0  0
 10 16  1  0  0  0  0
 11 10  1  0  0  0  0
 11  8  1  0  0  0  0
 12 11  2  0  0  0  0
 13 14  2  0  0  0  0
 13 12  1  0  0  0  0
 14 15  1  0  0  0  0
 15 10  2  0  0  0  0
 17 12  1  0  0  0  0
 18 14  1  0  0  0  0
 21 20  2  6  0  0  0
 21 24  1  0  0  0  0
 21 19  1  0  0  0  0
 21 22  1  0  0  0  0
 22 23  1  0  0  0  0
 25 26  2  0  0  0  0
 26 27  1  0  0  0  0
 26 32  1  0  0  0  0
 27 24  1  6  0  0  0
 27 28  1  0  0  0  0
 28 29  1  0  0  0  0
 28 30  1  0  0  0  0
 30 31  1  0  0  0  0
 32 33  1  0  0  0  0
 32 30  1  0  0  0  0
M  END
>  <minimizedAffinity>
-4.99359083

$$$$

 OpenBabel03242512103D

 33 35  0  0  1  0  0  0  0  0999 V2000
   37.2120   26.4080   42.0670 C   0  0  1  0  0  0  0  0  0  0  0  0
   36.5040   27.0260   43.3370 C   0  0  0  0  0  0  0  0  0  0  0  0
   36.9970   27.8420   42.2240 C   0  0  2  0  0  0  0  0  0  0  0  0
   36.5140   25.8350   41.4330 H   0  0  0  0  0  0  0  0  0  0  0  0
   35.4280   26.7970   43.4180 H   0  0  0  0  0  0  0  0  0  0  0  0
   37.0510   26.9190   44.2940 H   0  0  0  0  0  0  0  0  0  0  0  0
   37.9280   28.4240   42.2610 H   0  0  0  0  0  0  0  0  0  0  0  0
   38.5240   25.7950   42.4110 C   0  0  0  0  0  0  0  0  0  0  0  0
   38.5410   24.5870   42.6280 O   0  0  0  0  0  0  0  0  0  0  0  0
   40.2320   27.0230   43.6610 C   0  0  0  0  0  0  0  0  0  0  0  0
   39.7510   26.5140   42.5010 C   0  0  0  0  0  0  0  0  0  0  0  0
   40.5310   26.7130   41.3310 C   0  0  0  0  0  0  0  0  0  0  0  0
   41.7030   27.3870   41.3900 N   0  0  0  0  0  0  0  0  0  0  0  0
   42.1450   27.8810   42.5850 C   0  0  0  0  0  0  0  0  0  0  0  0
   41.4220   27.6980   43.6800 N   0  0  0  0  0  0  0  0  0  0  0  0
   39.6110   26.8530   44.5360 H   0  0  0  0  0  0  0  0  0  0  0  0
   40.2700   26.3660   40.3730 H   0  0  0  0  0  0  0  0  0  0  0  0
   43.0730   28.4150   42.6290 H   0  0  0  0  0  0  0  0  0  0  0  0
   35.9960   28.4930   41.5130 O   0  0  0  0  0  0  0  0  0  0  0  0
   38.0010   30.1050   41.6710 O   0  0  0  0  0  0  0  0  0  0  0  0
   36.6570   29.9680   40.9840 P   0  0  2  0  0  0  0  0  0  0  0  0
   35.6710   31.2770   41.2740 O   0  0  0  0  0  0  0  0  0  0  0  0
   34.8600   31.2050   40.7420 H   0  0  0  0  0  0  0  0  0  0  0  0
   37.0220   29.8080   39.3100 O   0  0  0  0  0  0  0  0  0  0  0  0
   38.5910   28.7010   36.9760 O   0  0  0  0  0  0  0  0  0  0  0  0
   38.7330   29.7160   37.7400 C   0  0  0  0  0  0  0  0  0  0  0  0
   38.2590   30.3170   39.0160 C   0  0  1  0  0  3  0  0  0  0  0  0
   38.1570   31.7940   38.6150 C   0  0  0  0  0  3  0  0  0  0  0  0
   38.1070   32.4570   39.4930 H   0  0  0  0  0  0  0  0  0  0  0  0
   39.4340   31.9900   37.8210 C   0  0  0  0  0  3  0  0  0  0  0  0
   40.2810   32.3210   38.4630 H   0  0  0  0  0  0  0  0  0  0  0  0
   39.6870   30.6870   37.2580 N   0  0  0  0  0  0  0  0  0  0  0  0
   40.4940   30.6070   36.5990 H   0  0  0  0  0  0  0  0  0  0  0  0
  1  4  1  6  0  0  0
  1  3  1  0  0  0  0
  1  8  1  0  0  0  0
  1  2  1  0  0  0  0
  2  5  1  0  0  0  0
  2  6  1  0  0  0  0
  3  7  1  1  0  0  0
  3  2  1  0  0  0  0
  8 11  1  0  0  0  0
  8  9  2  0  0  0  0
 10 15  1  0  0  0  0
 10 16  1  0  0  0  0
 11 10  2  0  0  0  0
 12 13  2  0  0  0  0
 12 11  1  0  0  0  0
 13 14  1  0  0  0  0
 14 18  1  0  0  0  0
 14 15  2  0  0  0  0
 17 12  1  0  0  0  0
 19  3  1  0  0  0  0
 21 22  1  0  0  0  0
 21 19  1  0  0  0  0
 21 20  2  1  0  0  0
 23 22  1  0  0  0  0
 24 21  1  0  0  0  0
 25 26  2  0  0  0  0
 26 27  1  0  0  0  0
 27 24  1  6  0  0  0
 28 27  1  0  0  0  0
 28 29  1  0  0  0  0
 30 31  1  0  0  0  0
 30 28  1  0  0  0  0
 32 26  1  0  0  0  0
 32 30  1  0  0  0  0
 33 32  1  0  0  0  0
M  END
>  <minimizedAffinity>
-4.94076872

$$$$

 OpenBabel03242512103D

 33 35  0  0  1  0  0  0  0  0999 V2000
   36.9200   28.8330   38.7500 C   0  0  1  0  0  0  0  0  0  0  0  0
   35.4900   29.3650   38.3380 C   0  0  0  0  0  0  0  0  0  0  0  0
   36.4360   30.1530   39.1350 C   0  0  2  0  0  0  0  0  0  0  0  0
   37.6020   28.7500   37.8880 H   0  0  0  0  0  0  0  0  0  0  0  0
   35.3710   29.5720   37.2620 H   0  0  0  0  0  0  0  0  0  0  0  0
   34.6290   28.8300   38.7830 H   0  0  0  0  0  0  0  0  0  0  0  0
   36.3510   30.2910   40.2220 H   0  0  0  0  0  0  0  0  0  0  0  0
   36.8290   27.6870   39.6960 C   0  0  0  0  0  0  0  0  0  0  0  0
   36.3170   26.6520   39.2780 O   0  0  0  0  0  0  0  0  0  0  0  0
   38.6080   27.6460   41.3750 C   0  0  0  0  0  0  0  0  0  0  0  0
   37.2960   27.7120   41.0420 C   0  0  0  0  0  0  0  0  0  0  0  0
   36.3600   27.8190   42.1040 C   0  0  0  0  0  0  0  0  0  0  0  0
   36.7770   27.8510   43.3900 N   0  0  0  0  0  0  0  0  0  0  0  0
   38.1120   27.7820   43.6750 C   0  0  0  0  0  0  0  0  0  0  0  0
   38.9900   27.6820   42.6890 N   0  0  0  0  0  0  0  0  0  0  0  0
   39.2970   27.5660   40.5400 H   0  0  0  0  0  0  0  0  0  0  0  0
   35.3170   27.8800   41.9770 H   0  0  0  0  0  0  0  0  0  0  0  0
   38.4400   27.8070   44.6950 H   0  0  0  0  0  0  0  0  0  0  0  0
   36.9010   31.2950   38.4930 O   0  0  0  0  0  0  0  0  0  0  0  0
   37.5730   31.4620   40.9760 O   0  0  0  0  0  0  0  0  0  0  0  0
   37.6390   32.2570   39.6870 P   0  0  2  0  0  0  0  0  0  0  0  0
   36.9470   33.7620   39.8450 O   0  0  0  0  0  0  0  0  0  0  0  0
   37.0920   34.2810   39.0350 H   0  0  0  0  0  0  0  0  0  0  0  0
   39.3140   32.3660   39.3110 O   0  0  0  0  0  0  0  0  0  0  0  0
   41.4280   33.3020   37.3640 O   0  0  0  0  0  0  0  0  0  0  0  0
   40.8040   32.1990   37.5350 C   0  0  0  0  0  0  0  0  0  0  0  0
   39.6360   31.5920   38.2280 C   0  0  1  0  0  3  0  0  0  0  0  0
   40.2360   30.2540   38.6780 C   0  0  0  0  0  3  0  0  0  0  0  0
   39.4570   29.5240   38.9520 H   0  0  0  0  0  0  0  0  0  0  0  0
   41.0090   29.8290   37.4440 C   0  0  0  0  0  3  0  0  0  0  0  0
   40.3920   29.2110   36.7540 H   0  0  0  0  0  0  0  0  0  0  0  0
   41.3830   31.0790   36.8320 N   0  0  0  0  0  0  0  0  0  0  0  0
   42.0010   31.0250   35.9910 H   0  0  0  0  0  0  0  0  0  0  0  0
  1  4  1  6  0  0  0
  1  3  1  0  0  0  0
  1  8  1  0  0  0  0
  2  1  1  0  0  0  0
  2  6  1  0  0  0  0
  2  3  1  0  0  0  0
  3  7  1  1  0  0  0
  5  2  1  0  0  0  0
  8 11  1  0  0  0  0
  9  8  2  0  0  0  0
 10 15  1  0  0  0  0
 11 10  2  0  0  0  0
 11 12  1  0  0  0  0
 12 13  2  0  0  0  0
 13 14  1  0  0  0  0
 14 18  1  0  0  0  0
 15 14  2  0  0  0  0
 16 10  1  0  0  0  0
 17 12  1  0  0  0  0
 19  3  1  0  0  0  0
 19 21  1  0  0  0  0
 21 22  1  0  0  0  0
 21 20  2  1  0  0  0
 23 22  1  0  0  0  0
 24 21  1  0  0  0  0
 25 26  2  0  0  0  0
 26 27  1  0  0  0  0
 27 28  1  0  0  0  0
 27 24  1  1  0  0  0
 28 29  1  0  0  0  0
 30 28  1  0  0  0  0
 31 30  1  0  0  0  0
 32 30  1  0  0  0  0
 32 26  1  0  0  0  0
 33 32  1  0  0  0  0
M  END
>  <minimizedAffinity>
-4.91402674

$$$$

 OpenBabel03242512103D

 33 35  0  0  1  0  0  0  0  0999 V2000
   37.0030   26.8320   42.5860 C   0  0  1  0  0  0  0  0  0  0  0  0
   38.3330   27.2070   43.3520 C   0  0  0  0  0  0  0  0  0  0  0  0
   37.7630   28.0410   42.2890 C   0  0  2  0  0  0  0  0  0  0  0  0
   36.1100   26.9130   43.2290 H   0  0  0  0  0  0  0  0  0  0  0  0
   38.1900   27.4870   44.4080 H   0  0  0  0  0  0  0  0  0  0  0  0
   39.1920   26.5270   43.1880 H   0  0  0  0  0  0  0  0  0  0  0  0
   38.1550   28.0730   41.2630 H   0  0  0  0  0  0  0  0  0  0  0  0
   37.1710   25.6080   41.7560 C   0  0  0  0  0  0  0  0  0  0  0  0
   37.0200   24.5250   42.3150 O   0  0  0  0  0  0  0  0  0  0  0  0
   38.7400   25.3970   39.8910 C   0  0  0  0  0  0  0  0  0  0  0  0
   37.4900   25.6120   40.3670 C   0  0  0  0  0  0  0  0  0  0  0  0
   36.4610   25.8430   39.4160 C   0  0  0  0  0  0  0  0  0  0  0  0
   36.7370   25.8460   38.0910 N   0  0  0  0  0  0  0  0  0  0  0  0
   38.0140   25.6240   37.6600 C   0  0  0  0  0  0  0  0  0  0  0  0
   38.9770   25.4070   38.5430 N   0  0  0  0  0  0  0  0  0  0  0  0
   39.5020   25.2240   40.6440 H   0  0  0  0  0  0  0  0  0  0  0  0
   35.4530   26.0200   39.6570 H   0  0  0  0  0  0  0  0  0  0  0  0
   38.2290   25.6270   36.6100 H   0  0  0  0  0  0  0  0  0  0  0  0
   37.3190   29.2840   42.7230 O   0  0  0  0  0  0  0  0  0  0  0  0
   38.2140   31.1310   41.1640 O   0  0  0  0  0  0  0  0  0  0  0  0
   37.0230   30.2090   41.3270 P   0  0  2  0  0  0  0  0  0  0  0  0
   35.5870   31.0490   41.3830 O   0  0  0  0  0  0  0  0  0  0  0  0
   34.8390   30.4270   41.3880 H   0  0  0  0  0  0  0  0  0  0  0  0
   37.0850   29.1490   39.9730 O   0  0  0  0  0  0  0  0  0  0  0  0
   39.5700   28.7540   38.2990 O   0  0  0  0  0  0  0  0  0  0  0  0
   38.4520   29.3440   38.1040 C   0  0  0  0  0  0  0  0  0  0  0  0
   37.2360   29.8420   38.8010 C   0  0  1  0  0  3  0  0  0  0  0  0
   36.1480   29.4470   37.7940 C   0  0  0  0  0  3  0  0  0  0  0  0
   35.2040   29.9850   37.9750 H   0  0  0  0  0  0  0  0  0  0  0  0
   36.7880   29.8400   36.4760 C   0  0  0  0  0  3  0  0  0  0  0  0
   36.5420   30.8870   36.1860 H   0  0  0  0  0  0  0  0  0  0  0  0
   38.1990   29.6850   36.7240 N   0  0  0  0  0  0  0  0  0  0  0  0
   38.8390   29.8340   35.9110 H   0  0  0  0  0  0  0  0  0  0  0  0
  1  4  1  1  0  0  0
  1  2  1  0  0  0  0
  2  5  1  0  0  0  0
  3  7  1  6  0  0  0
  3  1  1  0  0  0  0
  3 19  1  0  0  0  0
  3  2  1  0  0  0  0
  6  2  1  0  0  0  0
  8  9  2  0  0  0  0
  8  1  1  0  0  0  0
 10 11  1  0  0  0  0
 10 16  1  0  0  0  0
 11  8  1  0  0  0  0
 12 17  1  0  0  0  0
 12 11  2  0  0  0  0
 13 12  1  0  0  0  0
 14 13  2  0  0  0  0
 14 15  1  0  0  0  0
 15 10  2  0  0  0  0
 18 14  1  0  0  0  0
 21 20  2  6  0  0  0
 21 22  1  0  0  0  0
 21 19  1  0  0  0  0
 22 23  1  0  0  0  0
 24 21  1  0  0  0  0
 26 25  2  0  0  0  0
 26 27  1  0  0  0  0
 27 24  1  1  0  0  0
 28 29  1  0  0  0  0
 28 27  1  0  0  0  0
 30 32  1  0  0  0  0
 30 28  1  0  0  0  0
 31 30  1  0  0  0  0
 32 26  1  0  0  0  0
 33 32  1  0  0  0  0
M  END
>  <minimizedAffinity>
-4.90403128

$$$$

 OpenBabel03242512103D

 33 35  0  0  1  0  0  0  0  0999 V2000
   37.2080   28.7210   41.1000 C   0  0  1  0  0  0  0  0  0  0  0  0
   35.6320   28.6350   41.0380 C   0  0  0  0  0  0  0  0  0  0  0  0
   36.3650   29.9030   40.9730 C   0  0  2  0  0  0  0  0  0  0  0  0
   37.6880   28.3130   40.1940 H   0  0  0  0  0  0  0  0  0  0  0  0
   35.2340   28.1820   40.1150 H   0  0  0  0  0  0  0  0  0  0  0  0
   35.1310   28.2760   41.9580 H   0  0  0  0  0  0  0  0  0  0  0  0
   36.4540   30.6000   41.8180 H   0  0  0  0  0  0  0  0  0  0  0  0
   37.7310   28.3010   42.4290 C   0  0  0  0  0  0  0  0  0  0  0  0
   37.5550   29.0690   43.3710 O   0  0  0  0  0  0  0  0  0  0  0  0
   39.5010   26.9770   43.4780 C   0  0  0  0  0  0  0  0  0  0  0  0
   38.4130   27.0740   42.6770 C   0  0  0  0  0  0  0  0  0  0  0  0
   37.9420   25.8800   42.0710 C   0  0  0  0  0  0  0  0  0  0  0  0
   38.5680   24.7010   42.2940 N   0  0  0  0  0  0  0  0  0  0  0  0
   39.6630   24.6550   43.1110 C   0  0  0  0  0  0  0  0  0  0  0  0
   40.1050   25.7660   43.6790 N   0  0  0  0  0  0  0  0  0  0  0  0
   39.8340   27.9090   43.9250 H   0  0  0  0  0  0  0  0  0  0  0  0
   37.1080   25.8220   41.4320 H   0  0  0  0  0  0  0  0  0  0  0  0
   40.1570   23.7200   43.2860 H   0  0  0  0  0  0  0  0  0  0  0  0
   36.2450   30.5640   39.7560 O   0  0  0  0  0  0  0  0  0  0  0  0
   37.3060   32.7800   38.9780 O   0  0  0  0  0  0  0  0  0  0  0  0
   37.6960   31.4210   39.5240 P   0  0  2  0  0  0  0  0  0  0  0  0
   38.7770   30.6360   38.5310 O   0  0  0  0  0  0  0  0  0  0  0  0
   39.0810   29.8160   38.9550 H   0  0  0  0  0  0  0  0  0  0  0  0
   38.3740   31.7360   41.0740 O   0  0  0  0  0  0  0  0  0  0  0  0
   40.2490   34.0500   40.5630 O   0  0  0  0  0  0  0  0  0  0  0  0
   40.4110   32.8480   40.9670 C   0  0  0  0  0  0  0  0  0  0  0  0
   39.7280   31.5310   41.0790 C   0  0  1  0  0  3  0  0  0  0  0  0
   40.2020   31.0820   42.4670 C   0  0  0  0  0  3  0  0  0  0  0  0
   40.0520   30.0020   42.6240 H   0  0  0  0  0  0  0  0  0  0  0  0
   41.6720   31.4560   42.4290 C   0  0  0  0  0  3  0  0  0  0  0  0
   42.3070   30.6250   42.0480 H   0  0  0  0  0  0  0  0  0  0  0  0
   41.7100   32.5910   41.5420 N   0  0  0  0  0  0  0  0  0  0  0  0
   42.6330   33.0670   41.4270 H   0  0  0  0  0  0  0  0  0  0  0  0
  1  4  1  6  0  0  0
  1  8  1  0  0  0  0
  2  1  1  0  0  0  0
  2  6  1  0  0  0  0
  3  2  1  0  0  0  0
  3  1  1  0  0  0  0
  3  7  1  1  0  0  0
  5  2  1  0  0  0  0
  8 11  1  0  0  0  0
  8  9  2  0  0  0  0
 10 15  1  0  0  0  0
 10 16  1  0  0  0  0
 11 10  2  0  0  0  0
 12 13  2  0  0  0  0
 12 11  1  0  0  0  0
 13 14  1  0  0  0  0
 14 18  1  0  0  0  0
 14 15  2  0  0  0  0
 17 12  1  0  0  0  0
 19  3  1  0  0  0  0
 21 20  2  6  0  0  0
 21 19  1  0  0  0  0
 21 24  1  0  0  0  0
 22 23  1  0  0  0  0
 22 21  1  0  0  0  0
 25 26  2  0  0  0  0
 26 27  1  0  0  0  0
 26 32  1  0  0  0  0
 27 24  1  1  0  0  0
 27 28  1  0  0  0  0
 28 29  1  0  0  0  0
 30 28  1  0  0  0  0
 31 30  1  0  0  0  0
 32 30  1  0  0  0  0
 33 32  1  0  0  0  0
M  END
>  <minimizedAffinity>
-4.83164358

$$$$
