
 OpenBabel03252507373D

 38 42  0  0  1  0  0  0  0  0999 V2000
   45.7850   34.8070   43.5260 C   0  0  0  0  0  0  0  0  0  0  0  0
   46.4860   33.7460   44.1360 C   0  0  0  0  0  0  0  0  0  0  0  0
   46.1890   33.4780   45.4650 C   0  0  0  0  0  0  0  0  0  0  0  0
   45.2630   34.2260   46.1040 N   0  0  0  0  0  0  0  0  0  0  0  0
   44.6030   35.2380   45.4940 C   0  0  0  0  0  0  0  0  0  0  0  0
   44.8690   35.5170   44.2210 N   0  0  0  0  0  0  0  0  0  0  0  0
   47.2130   33.1560   43.6420 H   0  0  0  0  0  0  0  0  0  0  0  0
   43.8670   35.8240   46.0210 H   0  0  0  0  0  0  0  0  0  0  0  0
   47.0590   32.6480   47.5880 C   0  0  0  0  0  0  0  0  0  0  0  0
   46.8240   32.4170   46.2390 C   0  0  0  0  0  0  0  0  0  0  0  0
   47.1980   31.2050   45.7080 C   0  0  0  0  0  0  0  0  0  0  0  0
   47.7960   30.2110   46.4570 C   0  0  0  0  0  0  0  0  0  0  0  0
   48.2370   28.9780   46.1630 N   0  0  0  0  0  0  0  0  0  0  0  0
   48.7500   28.4350   47.3310 C   0  0  0  0  0  0  0  0  0  0  0  0
   48.6110   29.3420   48.3040 N   0  0  0  0  0  0  0  0  0  0  0  0
   48.0300   30.4390   47.7960 C   0  0  0  0  0  0  0  0  0  0  0  0
   47.6610   31.6530   48.3540 C   0  0  0  0  0  0  0  0  0  0  0  0
   46.8120   33.5520   48.1160 H   0  0  0  0  0  0  0  0  0  0  0  0
   47.0000   31.0510   44.6410 H   0  0  0  0  0  0  0  0  0  0  0  0
   48.1680   28.5720   45.1960 H   0  0  0  0  0  0  0  0  0  0  0  0
   49.1490   27.4290   47.2560 H   0  0  0  0  0  0  0  0  0  0  0  0
   47.8650   31.7910   49.4160 H   0  0  0  0  0  0  0  0  0  0  0  0
   46.0530   35.1050   42.2050 O   0  0  0  0  0  0  0  0  0  0  0  0
   45.3230   34.5350   41.1660 C   0  0  0  0  0  0  0  0  0  0  0  0
   46.2110   33.6860   40.5820 C   0  0  0  0  0  0  0  0  0  0  0  0
   45.1460   32.9610   39.1940 S   0  0  0  0  0  0  0  0  0  0  0  0
   43.6690   34.0300   39.7530 C   0  0  0  0  0  0  0  0  0  0  0  0
   44.1340   34.5560   40.6090 N   0  0  0  0  0  0  0  0  0  0  0  0
   47.1900   33.2360   40.5230 H   0  0  0  0  0  0  0  0  0  0  0  0
   41.1550   33.7340   41.3090 O   0  0  0  0  0  0  0  0  0  0  0  0
   41.2980   34.1380   40.1260 C   0  0  0  0  0  0  0  0  0  0  0  0
   42.3450   34.0360   39.1130 C   0  0  1  0  0  3  0  0  0  0  0  0
   42.1510   35.3250   38.3360 C   0  0  0  0  0  3  0  0  0  0  0  0
   42.6850   35.3280   37.3720 H   0  0  0  0  0  0  0  0  0  0  0  0
   40.6350   35.2920   38.1610 C   0  0  0  0  0  3  0  0  0  0  0  0
   40.2090   36.2470   37.8570 H   0  0  0  0  0  0  0  0  0  0  0  0
   40.2360   34.8960   39.5120 N   0  0  0  0  0  0  0  0  0  0  0  0
   39.2990   35.1570   39.9150 H   0  0  0  0  0  0  0  0  0  0  0  0
  1  2  2  0  0  0  0
  1  6  1  0  0  0  0
  2  3  1  0  0  0  0
  3  4  2  0  0  0  0
  3 10  1  0  0  0  0
  5  8  1  0  0  0  0
  5  4  1  0  0  0  0
  6  5  2  0  0  0  0
  7  2  1  0  0  0  0
  9 18  1  0  0  0  0
  9 17  1  0  0  0  0
 10  9  2  0  0  0  0
 11 10  1  0  0  0  0
 11 12  2  0  0  0  0
 12 16  1  0  0  0  0
 13 12  1  0  0  0  0
 13 14  1  0  0  0  0
 14 15  2  0  0  0  0
 16 15  1  0  0  0  0
 16 17  2  0  0  0  0
 17 22  1  0  0  0  0
 19 11  1  0  0  0  0
 20 13  1  0  0  0  0
 21 14  1  0  0  0  0
 23  1  1  0  0  0  0
 24 23  1  0  0  0  0
 25 24  2  0  0  0  0
 26 27  1  0  0  0  0
 26 25  1  0  0  0  0
 27 28  2  0  0  0  0
 28 24  1  0  0  0  0
 29 25  1  0  0  0  0
 31 30  2  0  0  0  0
 32 27  1  1  0  0  0
 32 31  1  0  0  0  0
 33 32  1  0  0  0  0
 34 33  1  0  0  0  0
 35 33  1  0  0  0  0
 35 37  1  0  0  0  0
 36 35  1  0  0  0  0
 37 38  1  0  0  0  0
 37 31  1  0  0  0  0
M  END
>  <minimizedAffinity>
-6.45852757

>  <minimizedRMSD>
1.28942025

$$$$
