
 OpenBabel03242512083D

 33 35  0  0  1  0  0  0  0  0999 V2000
   48.1420   34.6200   41.3060 C   0  0  1  0  0  0  0  0  0  0  0  0
   48.7710   36.0050   41.7350 C   0  0  0  0  0  0  0  0  0  0  0  0
   49.0540   34.7490   42.4360 C   0  0  2  0  0  0  0  0  0  0  0  0
   48.5400   34.2570   40.3430 H   0  0  0  0  0  0  0  0  0  0  0  0
   49.5050   36.4150   41.0210 H   0  0  0  0  0  0  0  0  0  0  0  0
   48.0590   36.7610   42.1190 H   0  0  0  0  0  0  0  0  0  0  0  0
   48.6030   34.4730   43.3990 H   0  0  0  0  0  0  0  0  0  0  0  0
   46.6690   34.5950   41.5200 C   0  0  0  0  0  0  0  0  0  0  0  0
   45.9650   34.3290   40.5500 O   0  0  0  0  0  0  0  0  0  0  0  0
   45.3410   35.9930   43.0260 C   0  0  0  0  0  0  0  0  0  0  0  0
   46.0300   34.8560   42.7670 C   0  0  0  0  0  0  0  0  0  0  0  0
   46.1000   33.8860   43.8020 C   0  0  0  0  0  0  0  0  0  0  0  0
   45.4970   34.1060   44.9930 N   0  0  0  0  0  0  0  0  0  0  0  0
   44.8130   35.2700   45.2060 C   0  0  0  0  0  0  0  0  0  0  0  0
   44.7440   36.1770   44.2440 N   0  0  0  0  0  0  0  0  0  0  0  0
   45.3070   36.7120   42.2130 H   0  0  0  0  0  0  0  0  0  0  0  0
   46.6010   32.9640   43.7250 H   0  0  0  0  0  0  0  0  0  0  0  0
   44.3360   35.4410   46.1510 H   0  0  0  0  0  0  0  0  0  0  0  0
   50.3760   34.3300   42.3340 O   0  0  0  0  0  0  0  0  0  0  0  0
   49.0650   32.1770   42.8700 O   0  0  0  0  0  0  0  0  0  0  0  0
   50.3390   32.6350   42.1890 P   0  0  2  0  0  0  0  0  0  0  0  0
   51.6870   31.8880   42.8180 O   0  0  0  0  0  0  0  0  0  0  0  0
   52.4720   32.1290   42.2970 H   0  0  0  0  0  0  0  0  0  0  0  0
   50.1220   32.2550   40.5250 O   0  0  0  0  0  0  0  0  0  0  0  0
   52.8620   31.4080   39.5680 O   0  0  0  0  0  0  0  0  0  0  0  0
   51.8310   30.7750   39.9820 C   0  0  0  0  0  0  0  0  0  0  0  0
   50.3800   30.9340   40.2760 C   0  0  1  0  0  3  0  0  0  0  0  0
   50.2590   30.1060   41.5630 C   0  0  0  0  0  3  0  0  0  0  0  0
   49.2140   29.8460   41.7880 H   0  0  0  0  0  0  0  0  0  0  0  0
   51.0920   28.8840   41.2250 C   0  0  0  0  0  3  0  0  0  0  0  0
   50.4840   28.0760   40.7620 H   0  0  0  0  0  0  0  0  0  0  0  0
   52.0770   29.3900   40.3030 N   0  0  0  0  0  0  0  0  0  0  0  0
   52.8190   28.7210   39.9930 H   0  0  0  0  0  0  0  0  0  0  0  0
  1  4  1  6  0  0  0
  1  8  1  0  0  0  0
  1  2  1  0  0  0  0
  1  3  1  0  0  0  0
  2  6  1  0  0  0  0
  2  3  1  0  0  0  0
  3  7  1  1  0  0  0
  5  2  1  0  0  0  0
  8 11  1  0  0  0  0
  9  8  2  0  0  0  0
 10 15  1  0  0  0  0
 11 10  2  0  0  0  0
 11 12  1  0  0  0  0
 12 13  2  0  0  0  0
 13 14  1  0  0  0  0
 14 18  1  0  0  0  0
 15 14  2  0  0  0  0
 16 10  1  0  0  0  0
 17 12  1  0  0  0  0
 19  3  1  0  0  0  0
 21 19  1  0  0  0  0
 21 22  1  0  0  0  0
 21 20  2  1  0  0  0
 23 22  1  0  0  0  0
 24 21  1  0  0  0  0
 25 26  2  0  0  0  0
 26 27  1  0  0  0  0
 26 32  1  0  0  0  0
 27 24  1  1  0  0  0
 27 28  1  0  0  0  0
 28 29  1  0  0  0  0
 30 28  1  0  0  0  0
 31 30  1  0  0  0  0
 32 30  1  0  0  0  0
 33 32  1  0  0  0  0
M  END
>  <minimizedAffinity>
-4.93716621

>  <minimizedRMSD>
0.822578907

$$$$
