
 OpenBabel03252503093D

 22 23  0  0  0  0  0  0  0  0999 V2000
   45.0950   36.1230   43.5040 C   0  0  0  0  0  0  0  0  0  0  0  0
   45.7650   34.9470   43.1110 C   0  0  0  0  0  0  0  0  0  0  0  0
   45.8260   33.9560   44.0830 C   0  0  0  0  0  0  0  0  0  0  0  0
   45.2840   34.1070   45.3100 N   0  0  0  0  0  0  0  0  0  0  0  0
   44.6460   35.2680   45.6390 C   0  0  0  0  0  0  0  0  0  0  0  0
   44.5560   36.2680   44.7320 N   0  0  0  0  0  0  0  0  0  0  0  0
   44.9920   36.9540   42.8250 H   0  0  0  0  0  0  0  0  0  0  0  0
   44.2290   35.3550   46.6170 H   0  0  0  0  0  0  0  0  0  0  0  0
   46.4690   32.7570   43.7790 C   0  0  0  0  0  0  0  0  0  0  0  0
   47.7760   32.3240   43.8250 C   0  0  0  0  0  0  0  0  0  0  0  0
   48.1530   31.1060   43.4660 C   0  0  0  0  0  0  0  0  0  0  0  0
   47.1550   30.2580   43.0310 C   0  0  0  0  0  0  0  0  0  0  0  0
   45.6300   31.3040   43.1630 S   0  0  0  0  0  0  0  0  0  0  0  0
   48.6500   32.8530   44.1720 H   0  0  0  0  0  0  0  0  0  0  0  0
   49.0370   30.5290   43.3990 H   0  0  0  0  0  0  0  0  0  0  0  0
   46.9640   29.2720   42.6680 H   0  0  0  0  0  0  0  0  0  0  0  0
   46.3040   34.8330   41.8090 C   0  0  0  0  0  0  0  0  0  0  0  0
   47.5640   35.0320   41.7260 O   0  0  0  0  0  0  0  0  0  0  0  0
   45.0850   34.5100   41.0160 C   0  0  0  0  0  3  0  0  0  0  0  0
   44.5140   33.5710   40.2950 C   0  0  0  0  0  3  0  0  0  0  0  0
   43.1840   33.9070   39.7370 C   0  0  0  0  0  2  0  0  0  0  0  0
   42.3910   33.2190   40.1130 H   0  0  0  0  0  0  0  0  0  0  0  0
  1  6  1  0  0  0  0
  2  1  2  0  0  0  0
  2  3  1  0  0  0  0
  3  4  2  0  0  0  0
  4  5  1  0  0  0  0
  5  8  1  0  0  0  0
  6  5  2  0  0  0  0
  7  1  1  0  0  0  0
  9 10  2  0  0  0  0
  9  3  1  0  0  0  0
 10 14  1  0  0  0  0
 11 10  1  0  0  0  0
 12 13  1  0  0  0  0
 12 11  2  0  0  0  0
 13  9  1  0  0  0  0
 15 11  1  0  0  0  0
 16 12  1  0  0  0  0
 17  2  1  0  0  0  0
 18 17  2  0  0  0  0
 19 17  1  0  0  0  0
 20 19  2  0  0  0  0
 21 22  1  0  0  0  0
 21 20  1  0  0  0  0
M  END
>  <minimizedAffinity>
-3.97113085

>  <minimizedRMSD>
1.25988293

$$$$
