
 OpenBabel03252503423D

 16 16  0  0  0  0  0  0  0  0999 V2000
   36.5730   31.1620   40.6630 C   0  0  0  0  0  0  0  0  0  0  0  0
   37.6330   32.0340   40.4340 C   0  0  0  0  0  0  0  0  0  0  0  0
   38.8450   31.7620   41.0540 C   0  0  0  0  0  0  0  0  0  0  0  0
   38.9380   30.6740   41.8420 N   0  0  0  0  0  0  0  0  0  0  0  0
   37.8890   29.8430   42.0460 C   0  0  0  0  0  0  0  0  0  0  0  0
   36.6980   30.0730   41.4620 N   0  0  0  0  0  0  0  0  0  0  0  0
   35.5610   31.2390   40.2490 H   0  0  0  0  0  0  0  0  0  0  0  0
   39.6350   32.4660   40.8470 H   0  0  0  0  0  0  0  0  0  0  0  0
   37.3240   33.1660   39.5390 C   0  0  0  0  0  0  0  0  0  0  0  0
   37.0180   32.7730   38.5290 H   0  0  0  0  0  0  0  0  0  0  0  0
   36.4030   33.6710   39.9190 H   0  0  0  0  0  0  0  0  0  0  0  0
   38.1630   33.8700   39.4180 H   0  0  0  0  0  0  0  0  0  0  0  0
   38.0530   28.6780   42.9110 C   0  0  0  0  0  3  0  0  0  0  0  0
   39.1620   27.9620   42.8680 C   0  0  0  0  0  3  0  0  0  0  0  0
   39.4640   26.7680   43.6790 C   0  0  0  0  0  2  0  0  0  0  0  0
   40.3780   27.0320   44.2800 H   0  0  0  0  0  0  0  0  0  0  0  0
  1  6  1  0  0  0  0
  2  1  2  0  0  0  0
  2  3  1  0  0  0  0
  3  4  2  0  0  0  0
  4  5  1  0  0  0  0
  5 13  1  0  0  0  0
  6  5  2  0  0  0  0
  7  1  1  0  0  0  0
  8  3  1  0  0  0  0
  9 11  1  0  0  0  0
  9  2  1  0  0  0  0
 10  9  1  0  0  0  0
 12  9  1  0  0  0  0
 14 13  2  0  0  0  0
 14 15  1  0  0  0  0
 15 16  1  0  0  0  0
M  END
>  <minimizedAffinity>
-3.6236012

$$$$

 OpenBabel03252503423D

 16 16  0  0  0  0  0  0  0  0999 V2000
   38.8580   29.2780   42.8060 C   0  0  0  0  0  0  0  0  0  0  0  0
   38.1620   28.0740   42.8590 C   0  0  0  0  0  0  0  0  0  0  0  0
   36.9700   27.9800   42.1530 C   0  0  0  0  0  0  0  0  0  0  0  0
   36.5460   29.0500   41.4560 N   0  0  0  0  0  0  0  0  0  0  0  0
   37.2450   30.2090   41.4220 C   0  0  0  0  0  0  0  0  0  0  0  0
   38.4050   30.3380   42.0930 N   0  0  0  0  0  0  0  0  0  0  0  0
   39.8070   29.5080   43.3050 H   0  0  0  0  0  0  0  0  0  0  0  0
   36.4670   27.0290   42.2250 H   0  0  0  0  0  0  0  0  0  0  0  0
   38.7970   27.0240   43.6800 C   0  0  0  0  0  0  0  0  0  0  0  0
   39.8130   26.7810   43.2580 H   0  0  0  0  0  0  0  0  0  0  0  0
   39.0230   27.4560   44.6850 H   0  0  0  0  0  0  0  0  0  0  0  0
   38.1990   26.1010   43.7480 H   0  0  0  0  0  0  0  0  0  0  0  0
   36.7330   31.3350   40.6460 C   0  0  0  0  0  3  0  0  0  0  0  0
   37.5490   32.2870   40.2300 C   0  0  0  0  0  3  0  0  0  0  0  0
   37.1740   33.4770   39.4430 C   0  0  0  0  0  2  0  0  0  0  0  0
   37.7540   33.4000   38.4810 H   0  0  0  0  0  0  0  0  0  0  0  0
  1  2  1  0  0  0  0
  1  7  1  0  0  0  0
  2  9  1  0  0  0  0
  3  8  1  0  0  0  0
  3  2  2  0  0  0  0
  4  3  1  0  0  0  0
  5  4  2  0  0  0  0
  5  6  1  0  0  0  0
  6  1  2  0  0  0  0
  9 12  1  0  0  0  0
  9 11  1  0  0  0  0
 10  9  1  0  0  0  0
 13  5  1  0  0  0  0
 14 13  2  0  0  0  0
 15 14  1  0  0  0  0
 16 15  1  0  0  0  0
M  END
>  <minimizedAffinity>
-3.61760187

$$$$

 OpenBabel03252503423D

 16 16  0  0  0  0  0  0  0  0999 V2000
   38.0400   30.5570   41.4350 C   0  0  0  0  0  0  0  0  0  0  0  0
   37.0000   31.0450   40.6500 C   0  0  0  0  0  0  0  0  0  0  0  0
   35.8880   30.2340   40.4660 C   0  0  0  0  0  0  0  0  0  0  0  0
   35.8690   29.0220   41.0510 N   0  0  0  0  0  0  0  0  0  0  0  0
   36.8960   28.5730   41.8090 C   0  0  0  0  0  0  0  0  0  0  0  0
   37.9910   29.3310   42.0110 N   0  0  0  0  0  0  0  0  0  0  0  0
   38.9780   31.0720   41.6730 H   0  0  0  0  0  0  0  0  0  0  0  0
   35.1090   30.6550   39.8510 H   0  0  0  0  0  0  0  0  0  0  0  0
   37.2170   32.3980   40.1010 C   0  0  0  0  0  0  0  0  0  0  0  0
   37.3440   33.1310   40.9460 H   0  0  0  0  0  0  0  0  0  0  0  0
   38.2100   32.4110   39.5870 H   0  0  0  0  0  0  0  0  0  0  0  0
   36.4030   32.7380   39.4410 H   0  0  0  0  0  0  0  0  0  0  0  0
   36.8150   27.2480   42.4180 C   0  0  0  0  0  3  0  0  0  0  0  0
   37.0870   26.1670   41.7080 C   0  0  0  0  0  3  0  0  0  0  0  0
   37.0460   24.7740   42.1880 C   0  0  0  0  0  2  0  0  0  0  0  0
   38.0930   24.3790   42.0620 H   0  0  0  0  0  0  0  0  0  0  0  0
  1  7  1  0  0  0  0
  1  6  1  0  0  0  0
  2  1  2  0  0  0  0
  3  2  1  0  0  0  0
  3  4  2  0  0  0  0
  4  5  1  0  0  0  0
  5  6  2  0  0  0  0
  5 13  1  0  0  0  0
  8  3  1  0  0  0  0
  9  2  1  0  0  0  0
  9 10  1  0  0  0  0
 11  9  1  0  0  0  0
 12  9  1  0  0  0  0
 14 15  1  0  0  0  0
 14 13  2  0  0  0  0
 16 15  1  0  0  0  0
M  END
>  <minimizedAffinity>
-3.59293461

$$$$

 OpenBabel03252503423D

 16 16  0  0  0  0  0  0  0  0999 V2000
   36.5380   27.5430   40.7320 C   0  0  0  0  0  0  0  0  0  0  0  0
   37.0840   27.2350   41.9740 C   0  0  0  0  0  0  0  0  0  0  0  0
   37.4280   28.2870   42.8120 C   0  0  0  0  0  0  0  0  0  0  0  0
   37.2170   29.5470   42.3880 N   0  0  0  0  0  0  0  0  0  0  0  0
   36.6830   29.8160   41.1730 C   0  0  0  0  0  0  0  0  0  0  0  0
   36.3370   28.8230   40.3320 N   0  0  0  0  0  0  0  0  0  0  0  0
   36.2180   26.8300   39.9630 H   0  0  0  0  0  0  0  0  0  0  0  0
   37.8480   27.9990   43.7630 H   0  0  0  0  0  0  0  0  0  0  0  0
   37.2330   25.7930   42.2480 C   0  0  0  0  0  0  0  0  0  0  0  0
   36.2210   25.2990   42.2190 H   0  0  0  0  0  0  0  0  0  0  0  0
   37.7790   25.3290   41.3910 H   0  0  0  0  0  0  0  0  0  0  0  0
   37.7170   25.5780   43.2140 H   0  0  0  0  0  0  0  0  0  0  0  0
   36.4790   31.2050   40.7690 C   0  0  0  0  0  3  0  0  0  0  0  0
   37.3450   31.8050   39.9730 C   0  0  0  0  0  3  0  0  0  0  0  0
   37.2670   33.1950   39.4870 C   0  0  0  0  0  2  0  0  0  0  0  0
   37.2110   33.1220   38.3650 H   0  0  0  0  0  0  0  0  0  0  0  0
  1  2  1  0  0  0  0
  2  9  1  0  0  0  0
  2  3  2  0  0  0  0
  3  8  1  0  0  0  0
  4  3  1  0  0  0  0
  5  4  2  0  0  0  0
  6  1  2  0  0  0  0
  6  5  1  0  0  0  0
  7  1  1  0  0  0  0
  9 12  1  0  0  0  0
 10  9  1  0  0  0  0
 11  9  1  0  0  0  0
 13  5  1  0  0  0  0
 14 13  2  0  0  0  0
 15 14  1  0  0  0  0
 16 15  1  0  0  0  0
M  END
>  <minimizedAffinity>
-3.55477762

$$$$

 OpenBabel03252503423D

 16 16  0  0  0  0  0  0  0  0999 V2000
   37.4980   27.0540   41.7990 C   0  0  0  0  0  0  0  0  0  0  0  0
   38.1130   27.9070   42.7110 C   0  0  0  0  0  0  0  0  0  0  0  0
   37.7490   29.2470   42.6950 C   0  0  0  0  0  0  0  0  0  0  0  0
   36.8260   29.6560   41.8060 N   0  0  0  0  0  0  0  0  0  0  0  0
   36.2440   28.8030   40.9310 C   0  0  0  0  0  0  0  0  0  0  0  0
   36.5690   27.4960   40.9150 N   0  0  0  0  0  0  0  0  0  0  0  0
   37.6750   25.9780   41.6870 H   0  0  0  0  0  0  0  0  0  0  0  0
   38.2530   29.8670   43.4190 H   0  0  0  0  0  0  0  0  0  0  0  0
   39.0980   27.2610   43.6000 C   0  0  0  0  0  0  0  0  0  0  0  0
   38.5870   26.4640   44.2100 H   0  0  0  0  0  0  0  0  0  0  0  0
   39.8180   26.6880   42.9660 H   0  0  0  0  0  0  0  0  0  0  0  0
   39.6080   27.9670   44.2740 H   0  0  0  0  0  0  0  0  0  0  0  0
   35.2470   29.3070   39.9900 C   0  0  0  0  0  3  0  0  0  0  0  0
   34.9190   28.6040   38.9210 C   0  0  0  0  0  3  0  0  0  0  0  0
   33.9360   28.9870   37.8910 C   0  0  0  0  0  2  0  0  0  0  0  0
   33.1460   28.1850   37.9120 H   0  0  0  0  0  0  0  0  0  0  0  0
  1  2  1  0  0  0  0
  2  9  1  0  0  0  0
  3  2  2  0  0  0  0
  3  8  1  0  0  0  0
  4  3  1  0  0  0  0
  5  4  2  0  0  0  0
  6  5  1  0  0  0  0
  6  1  2  0  0  0  0
  7  1  1  0  0  0  0
  9 10  1  0  0  0  0
  9 12  1  0  0  0  0
 11  9  1  0  0  0  0
 13  5  1  0  0  0  0
 14 13  2  0  0  0  0
 15 16  1  0  0  0  0
 15 14  1  0  0  0  0
M  END
>  <minimizedAffinity>
-3.3809123

$$$$

 OpenBabel03252503423D

 16 16  0  0  0  0  0  0  0  0999 V2000
   36.6250   29.0130   41.6690 C   0  0  0  0  0  0  0  0  0  0  0  0
   37.2350   28.3930   42.7550 C   0  0  0  0  0  0  0  0  0  0  0  0
   38.4210   28.9340   43.2320 C   0  0  0  0  0  0  0  0  0  0  0  0
   38.9230   30.0260   42.6250 N   0  0  0  0  0  0  0  0  0  0  0  0
   38.3070   30.6080   41.5700 C   0  0  0  0  0  0  0  0  0  0  0  0
   37.1540   30.1130   41.0800 N   0  0  0  0  0  0  0  0  0  0  0  0
   35.6910   28.7090   41.1810 H   0  0  0  0  0  0  0  0  0  0  0  0
   38.8550   28.4190   44.0730 H   0  0  0  0  0  0  0  0  0  0  0  0
   36.5230   27.2080   43.2750 C   0  0  0  0  0  0  0  0  0  0  0  0
   35.4950   27.5100   43.6220 H   0  0  0  0  0  0  0  0  0  0  0  0
   36.3230   26.5180   42.4190 H   0  0  0  0  0  0  0  0  0  0  0  0
   37.0550   26.7050   44.0980 H   0  0  0  0  0  0  0  0  0  0  0  0
   38.9000   31.7930   40.9550 C   0  0  0  0  0  3  0  0  0  0  0  0
   38.1420   32.8130   40.5980 C   0  0  0  0  0  3  0  0  0  0  0  0
   38.6010   34.0660   39.9700 C   0  0  0  0  0  2  0  0  0  0  0  0
   38.3150   34.8870   40.6840 H   0  0  0  0  0  0  0  0  0  0  0  0
  1  2  1  0  0  0  0
  2  3  2  0  0  0  0
  2  9  1  0  0  0  0
  3  8  1  0  0  0  0
  4  3  1  0  0  0  0
  5  4  2  0  0  0  0
  6  5  1  0  0  0  0
  6  1  2  0  0  0  0
  7  1  1  0  0  0  0
  9 10  1  0  0  0  0
  9 12  1  0  0  0  0
 11  9  1  0  0  0  0
 13  5  1  0  0  0  0
 14 13  2  0  0  0  0
 15 14  1  0  0  0  0
 15 16  1  0  0  0  0
M  END
>  <minimizedAffinity>
-3.35825992

$$$$

 OpenBabel03252503423D

 16 16  0  0  0  0  0  0  0  0999 V2000
   36.2890   30.4800   40.5280 C   0  0  0  0  0  0  0  0  0  0  0  0
   35.6590   29.2420   40.6060 C   0  0  0  0  0  0  0  0  0  0  0  0
   36.2240   28.2760   41.4280 C   0  0  0  0  0  0  0  0  0  0  0  0
   37.3470   28.5790   42.1050 N   0  0  0  0  0  0  0  0  0  0  0  0
   37.9380   29.7930   42.0090 C   0  0  0  0  0  0  0  0  0  0  0  0
   37.4200   30.7560   41.2230 N   0  0  0  0  0  0  0  0  0  0  0  0
   35.9690   31.3410   39.9280 H   0  0  0  0  0  0  0  0  0  0  0  0
   35.7010   27.3330   41.4550 H   0  0  0  0  0  0  0  0  0  0  0  0
   34.4400   29.1110   39.7850 C   0  0  0  0  0  0  0  0  0  0  0  0
   33.6800   29.8720   40.1180 H   0  0  0  0  0  0  0  0  0  0  0  0
   34.6870   29.4230   38.7410 H   0  0  0  0  0  0  0  0  0  0  0  0
   33.9920   28.1050   39.8230 H   0  0  0  0  0  0  0  0  0  0  0  0
   39.1550   30.0630   42.7700 C   0  0  0  0  0  3  0  0  0  0  0  0
   40.1390   30.7630   42.2340 C   0  0  0  0  0  3  0  0  0  0  0  0
   41.4170   31.1100   42.8810 C   0  0  0  0  0  2  0  0  0  0  0  0
   41.4470   32.2350   42.9120 H   0  0  0  0  0  0  0  0  0  0  0  0
  1  2  2  0  0  0  0
  1  6  1  0  0  0  0
  2  3  1  0  0  0  0
  3  8  1  0  0  0  0
  3  4  2  0  0  0  0
  5  4  1  0  0  0  0
  5 13  1  0  0  0  0
  6  5  2  0  0  0  0
  7  1  1  0  0  0  0
  9 12  1  0  0  0  0
  9 10  1  0  0  0  0
  9  2  1  0  0  0  0
 11  9  1  0  0  0  0
 14 13  2  0  0  0  0
 14 15  1  0  0  0  0
 15 16  1  0  0  0  0
M  END
>  <minimizedAffinity>
-3.31229115

$$$$

 OpenBabel03252503423D

 16 16  0  0  0  0  0  0  0  0999 V2000
   37.0320   27.0690   42.8930 C   0  0  0  0  0  0  0  0  0  0  0  0
   37.0430   26.2000   41.8070 C   0  0  0  0  0  0  0  0  0  0  0  0
   37.0620   26.7510   40.5330 C   0  0  0  0  0  0  0  0  0  0  0  0
   37.0690   28.0920   40.4090 N   0  0  0  0  0  0  0  0  0  0  0  0
   37.0580   28.9120   41.4850 C   0  0  0  0  0  0  0  0  0  0  0  0
   37.0390   28.4150   42.7370 N   0  0  0  0  0  0  0  0  0  0  0  0
   37.0170   26.7900   43.9540 H   0  0  0  0  0  0  0  0  0  0  0  0
   37.0700   26.0390   39.7240 H   0  0  0  0  0  0  0  0  0  0  0  0
   37.0330   24.7660   42.1570 C   0  0  0  0  0  0  0  0  0  0  0  0
   37.9500   24.5210   42.7640 H   0  0  0  0  0  0  0  0  0  0  0  0
   36.1890   24.5850   42.8660 H   0  0  0  0  0  0  0  0  0  0  0  0
   36.9880   24.1010   41.2790 H   0  0  0  0  0  0  0  0  0  0  0  0
   37.0660   30.3590   41.2860 C   0  0  0  0  0  3  0  0  0  0  0  0
   37.0590   30.8670   40.0670 C   0  0  0  0  0  3  0  0  0  0  0  0
   37.0670   32.3000   39.7170 C   0  0  0  0  0  2  0  0  0  0  0  0
   36.1160   32.4770   39.1410 H   0  0  0  0  0  0  0  0  0  0  0  0
  1  7  1  0  0  0  0
  2  9  1  0  0  0  0
  2  1  2  0  0  0  0
  3  2  1  0  0  0  0
  4  3  2  0  0  0  0
  4  5  1  0  0  0  0
  5  6  2  0  0  0  0
  6  1  1  0  0  0  0
  8  3  1  0  0  0  0
  9 10  1  0  0  0  0
  9 11  1  0  0  0  0
 12  9  1  0  0  0  0
 13  5  1  0  0  0  0
 14 13  2  0  0  0  0
 15 14  1  0  0  0  0
 16 15  1  0  0  0  0
M  END
>  <minimizedAffinity>
-3.30581594

$$$$

 OpenBabel03252503423D

 16 16  0  0  0  0  0  0  0  0999 V2000
   38.8770   27.1910   41.6490 C   0  0  0  0  0  0  0  0  0  0  0  0
   38.8750   27.2290   43.0400 C   0  0  0  0  0  0  0  0  0  0  0  0
   37.7750   27.7920   43.6730 C   0  0  0  0  0  0  0  0  0  0  0  0
   36.7700   28.2720   42.9180 N   0  0  0  0  0  0  0  0  0  0  0  0
   36.8000   28.2210   41.5650 C   0  0  0  0  0  0  0  0  0  0  0  0
   37.8480   27.6820   40.9150 N   0  0  0  0  0  0  0  0  0  0  0  0
   39.6660   26.7820   41.0060 H   0  0  0  0  0  0  0  0  0  0  0  0
   37.8200   27.7990   44.7500 H   0  0  0  0  0  0  0  0  0  0  0  0
   40.0730   26.6510   43.6790 C   0  0  0  0  0  0  0  0  0  0  0  0
   40.1630   25.5650   43.3950 H   0  0  0  0  0  0  0  0  0  0  0  0
   40.9760   27.1220   43.2200 H   0  0  0  0  0  0  0  0  0  0  0  0
   40.0700   26.7430   44.7770 H   0  0  0  0  0  0  0  0  0  0  0  0
   35.6770   28.7570   40.8010 C   0  0  0  0  0  3  0  0  0  0  0  0
   35.5430   28.4720   39.5180 C   0  0  0  0  0  3  0  0  0  0  0  0
   34.4660   28.9410   38.6260 C   0  0  0  0  0  2  0  0  0  0  0  0
   33.9460   28.0110   38.2640 H   0  0  0  0  0  0  0  0  0  0  0  0
  1  2  1  0  0  0  0
  2  3  2  0  0  0  0
  2  9  1  0  0  0  0
  3  8  1  0  0  0  0
  4  3  1  0  0  0  0
  5  4  2  0  0  0  0
  6  5  1  0  0  0  0
  6  1  2  0  0  0  0
  7  1  1  0  0  0  0
  9 12  1  0  0  0  0
 10  9  1  0  0  0  0
 11  9  1  0  0  0  0
 13  5  1  0  0  0  0
 14 13  2  0  0  0  0
 15 14  1  0  0  0  0
 16 15  1  0  0  0  0
M  END
>  <minimizedAffinity>
-3.29237843

$$$$
