
 OpenBabel03242510163D

 13 13  0  0  0  0  0  0  0  0999 V2000
   35.6540   28.7990   40.9080 C   0  0  0  0  0  0  0  0  0  0  0  0
   36.7250   28.3910   41.7160 C   0  0  0  0  0  0  0  0  0  0  0  0
   37.7020   29.3330   42.0350 C   0  0  0  0  0  0  0  0  0  0  0  0
   37.5730   30.6050   41.5490 N   0  0  0  0  0  0  0  0  0  0  0  0
   36.5260   30.9570   40.7740 C   0  0  0  0  0  0  0  0  0  0  0  0
   35.5850   30.0570   40.4640 N   0  0  0  0  0  0  0  0  0  0  0  0
   34.9310   28.0140   40.7000 H   0  0  0  0  0  0  0  0  0  0  0  0
   38.5620   29.1140   42.6500 H   0  0  0  0  0  0  0  0  0  0  0  0
   36.4600   31.9770   40.4080 H   0  0  0  0  0  0  0  0  0  0  0  0
   36.8500   27.0320   42.2280 C   0  0  0  0  0  3  0  0  0  0  0  0
   37.1280   25.9590   41.5110 C   0  0  0  0  0  3  0  0  0  0  0  0
   37.2350   24.5980   42.1380 C   0  0  0  0  0  2  0  0  0  0  0  0
   37.8730   23.9290   41.5420 H   0  0  0  0  0  0  0  0  0  0  0  0
  1  2  1  0  0  0  0
  2  3  2  0  0  0  0
  2 10  1  0  0  0  0
  3  8  1  0  0  0  0
  4  3  1  0  0  0  0
  5  4  2  0  0  0  0
  6  5  1  0  0  0  0
  6  1  2  0  0  0  0
  7  1  1  0  0  0  0
  9  5  1  0  0  0  0
 11 12  1  0  0  0  0
 11 10  2  0  0  0  0
 13 12  1  0  0  0  0
M  END
>  <minimizedAffinity>
-3.24083972

$$$$

 OpenBabel03242510163D

 13 13  0  0  0  0  0  0  0  0999 V2000
   37.7100   29.3540   41.9610 C   0  0  0  0  0  0  0  0  0  0  0  0
   36.7420   28.3760   41.6910 C   0  0  0  0  0  0  0  0  0  0  0  0
   35.6470   28.7360   40.9060 C   0  0  0  0  0  0  0  0  0  0  0  0
   35.5660   30.0180   40.4380 N   0  0  0  0  0  0  0  0  0  0  0  0
   36.5200   30.9290   40.7210 C   0  0  0  0  0  0  0  0  0  0  0  0
   37.5740   30.5900   41.4740 N   0  0  0  0  0  0  0  0  0  0  0  0
   38.5340   29.0040   42.5770 H   0  0  0  0  0  0  0  0  0  0  0  0
   34.8520   28.0530   40.6450 H   0  0  0  0  0  0  0  0  0  0  0  0
   36.4190   31.9370   40.3300 H   0  0  0  0  0  0  0  0  0  0  0  0
   36.8400   27.0120   42.1970 C   0  0  0  0  0  3  0  0  0  0  0  0
   37.1350   25.9420   41.4830 C   0  0  0  0  0  3  0  0  0  0  0  0
   37.2120   24.5760   42.1030 C   0  0  0  0  0  2  0  0  0  0  0  0
   37.8650   23.9070   41.5240 H   0  0  0  0  0  0  0  0  0  0  0  0
  1  7  1  0  0  0  0
  2  1  1  0  0  0  0
  2 10  1  0  0  0  0
  3  2  2  0  0  0  0
  4  5  2  0  0  0  0
  4  3  1  0  0  0  0
  5  6  1  0  0  0  0
  6  1  2  0  0  0  0
  8  3  1  0  0  0  0
  9  5  1  0  0  0  0
 11 12  1  0  0  0  0
 11 10  2  0  0  0  0
 13 12  1  0  0  0  0
M  END
>  <minimizedAffinity>
-3.22705317

$$$$

 OpenBabel03242510163D

 13 13  0  0  0  0  0  0  0  0999 V2000
   38.3540   29.6130   42.7900 C   0  0  0  0  0  0  0  0  0  0  0  0
   37.5930   29.9700   41.6670 C   0  0  0  0  0  0  0  0  0  0  0  0
   36.5500   29.1270   41.2880 C   0  0  0  0  0  0  0  0  0  0  0  0
   36.3170   27.9970   42.0220 N   0  0  0  0  0  0  0  0  0  0  0  0
   37.0730   27.6910   43.0960 C   0  0  0  0  0  0  0  0  0  0  0  0
   38.0760   28.4960   43.4660 N   0  0  0  0  0  0  0  0  0  0  0  0
   39.1490   30.3160   43.0280 H   0  0  0  0  0  0  0  0  0  0  0  0
   35.9100   29.3170   40.4390 H   0  0  0  0  0  0  0  0  0  0  0  0
   36.8560   26.7840   43.6530 H   0  0  0  0  0  0  0  0  0  0  0  0
   37.8530   31.1780   40.8930 C   0  0  0  0  0  3  0  0  0  0  0  0
   36.9580   31.8620   40.2040 C   0  0  0  0  0  3  0  0  0  0  0  0
   37.3310   33.0990   39.4380 C   0  0  0  0  0  2  0  0  0  0  0  0
   36.4650   33.7640   39.3020 H   0  0  0  0  0  0  0  0  0  0  0  0
  1  7  1  0  0  0  0
  1  6  1  0  0  0  0
  2  1  2  0  0  0  0
  3  2  1  0  0  0  0
  3  4  2  0  0  0  0
  4  5  1  0  0  0  0
  5  6  2  0  0  0  0
  5  9  1  0  0  0  0
  8  3  1  0  0  0  0
 10  2  1  0  0  0  0
 11 10  2  0  0  0  0
 12 11  1  0  0  0  0
 13 12  1  0  0  0  0
M  END
>  <minimizedAffinity>
-3.14236021

$$$$

 OpenBabel03242510163D

 13 13  0  0  0  0  0  0  0  0999 V2000
   36.8560   27.4360   41.8970 C   0  0  0  0  0  0  0  0  0  0  0  0
   36.4710   28.7130   41.4640 C   0  0  0  0  0  0  0  0  0  0  0  0
   37.1970   29.8090   41.9280 C   0  0  0  0  0  0  0  0  0  0  0  0
   38.2450   29.5920   42.7790 N   0  0  0  0  0  0  0  0  0  0  0  0
   38.5830   28.3450   43.1710 C   0  0  0  0  0  0  0  0  0  0  0  0
   37.8900   27.2890   42.7290 N   0  0  0  0  0  0  0  0  0  0  0  0
   36.2470   26.6290   41.4950 H   0  0  0  0  0  0  0  0  0  0  0  0
   36.9760   30.8290   41.6510 H   0  0  0  0  0  0  0  0  0  0  0  0
   39.4230   28.2150   43.8480 H   0  0  0  0  0  0  0  0  0  0  0  0
   35.3510   28.9310   40.5560 C   0  0  0  0  0  3  0  0  0  0  0  0
   35.3230   28.6170   39.2740 C   0  0  0  0  0  3  0  0  0  0  0  0
   34.1140   28.8840   38.4240 C   0  0  0  0  0  2  0  0  0  0  0  0
   34.0710   28.2060   37.5590 H   0  0  0  0  0  0  0  0  0  0  0  0
  1  6  1  0  0  0  0
  2  1  2  0  0  0  0
  2  3  1  0  0  0  0
  3  4  2  0  0  0  0
  4  5  1  0  0  0  0
  5  9  1  0  0  0  0
  6  5  2  0  0  0  0
  7  1  1  0  0  0  0
  8  3  1  0  0  0  0
 10  2  1  0  0  0  0
 11 10  2  0  0  0  0
 12 11  1  0  0  0  0
 13 12  1  0  0  0  0
M  END
>  <minimizedAffinity>
-3.11661291

$$$$

 OpenBabel03242510163D

 13 13  0  0  0  0  0  0  0  0999 V2000
   36.2660   28.6240   41.4970 C   0  0  0  0  0  0  0  0  0  0  0  0
   37.1020   29.7470   41.4170 C   0  0  0  0  0  0  0  0  0  0  0  0
   38.1140   29.8800   42.3660 C   0  0  0  0  0  0  0  0  0  0  0  0
   38.2460   28.9160   43.3270 N   0  0  0  0  0  0  0  0  0  0  0  0
   37.4200   27.8500   43.3680 C   0  0  0  0  0  0  0  0  0  0  0  0
   36.4460   27.7160   42.4600 N   0  0  0  0  0  0  0  0  0  0  0  0
   35.5010   28.5840   40.7250 H   0  0  0  0  0  0  0  0  0  0  0  0
   38.8060   30.7090   42.3860 H   0  0  0  0  0  0  0  0  0  0  0  0
   37.5580   27.1060   44.1480 H   0  0  0  0  0  0  0  0  0  0  0  0
   36.9500   30.7680   40.3870 C   0  0  0  0  0  3  0  0  0  0  0  0
   37.3980   32.0070   40.4560 C   0  0  0  0  0  3  0  0  0  0  0  0
   37.1880   32.9840   39.3340 C   0  0  0  0  0  2  0  0  0  0  0  0
   37.9540   33.7750   39.3400 H   0  0  0  0  0  0  0  0  0  0  0  0
  1  6  1  0  0  0  0
  2  1  2  0  0  0  0
  2  3  1  0  0  0  0
  3  8  1  0  0  0  0
  3  4  2  0  0  0  0
  4  5  1  0  0  0  0
  5  9  1  0  0  0  0
  6  5  2  0  0  0  0
  7  1  1  0  0  0  0
 10 11  2  0  0  0  0
 10  2  1  0  0  0  0
 12 13  1  0  0  0  0
 12 11  1  0  0  0  0
M  END
>  <minimizedAffinity>
-3.11403179

$$$$

 OpenBabel03242510163D

 13 13  0  0  0  0  0  0  0  0999 V2000
   38.9280   26.9540   43.3500 C   0  0  0  0  0  0  0  0  0  0  0  0
   37.8400   26.5190   42.5790 C   0  0  0  0  0  0  0  0  0  0  0  0
   37.8150   25.1850   42.1750 C   0  0  0  0  0  0  0  0  0  0  0  0
   38.8450   24.3650   42.5450 N   0  0  0  0  0  0  0  0  0  0  0  0
   39.8740   24.8250   43.2880 C   0  0  0  0  0  0  0  0  0  0  0  0
   39.9040   26.1040   43.6800 N   0  0  0  0  0  0  0  0  0  0  0  0
   38.8810   28.0040   43.6300 H   0  0  0  0  0  0  0  0  0  0  0  0
   37.0210   24.7580   41.5800 H   0  0  0  0  0  0  0  0  0  0  0  0
   40.6730   24.1420   43.5620 H   0  0  0  0  0  0  0  0  0  0  0  0
   36.7480   27.4030   42.1910 C   0  0  0  0  0  3  0  0  0  0  0  0
   36.7240   28.1800   41.1240 C   0  0  0  0  0  3  0  0  0  0  0  0
   35.5450   29.0570   40.8130 C   0  0  0  0  0  2  0  0  0  0  0  0
   35.4820   29.2810   39.7380 H   0  0  0  0  0  0  0  0  0  0  0  0
  1  7  1  0  0  0  0
  1  6  1  0  0  0  0
  2  1  2  0  0  0  0
  3  4  2  0  0  0  0
  3  2  1  0  0  0  0
  4  5  1  0  0  0  0
  5  9  1  0  0  0  0
  5  6  2  0  0  0  0
  8  3  1  0  0  0  0
 10  2  1  0  0  0  0
 11 10  2  0  0  0  0
 12 11  1  0  0  0  0
 13 12  1  0  0  0  0
M  END
>  <minimizedAffinity>
-3.11381388

$$$$

 OpenBabel03242510163D

 13 13  0  0  0  0  0  0  0  0999 V2000
   38.8280   27.0350   42.8640 C   0  0  0  0  0  0  0  0  0  0  0  0
   37.5320   26.8570   42.3590 C   0  0  0  0  0  0  0  0  0  0  0  0
   36.7210   27.9830   42.2230 C   0  0  0  0  0  0  0  0  0  0  0  0
   37.2230   29.2030   42.5850 N   0  0  0  0  0  0  0  0  0  0  0  0
   38.4770   29.3300   43.0660 C   0  0  0  0  0  0  0  0  0  0  0  0
   39.2600   28.2530   43.1990 N   0  0  0  0  0  0  0  0  0  0  0  0
   39.4030   26.1150   42.9420 H   0  0  0  0  0  0  0  0  0  0  0  0
   35.7100   27.9460   41.8440 H   0  0  0  0  0  0  0  0  0  0  0  0
   38.8380   30.3170   43.3420 H   0  0  0  0  0  0  0  0  0  0  0  0
   37.0090   25.5500   41.9770 C   0  0  0  0  0  3  0  0  0  0  0  0
   36.9490   25.0710   40.7490 C   0  0  0  0  0  3  0  0  0  0  0  0
   36.3910   23.7060   40.4620 C   0  0  0  0  0  2  0  0  0  0  0  0
   36.7960   23.2940   39.5260 H   0  0  0  0  0  0  0  0  0  0  0  0
  1  7  1  0  0  0  0
  1  6  1  0  0  0  0
  2  1  2  0  0  0  0
  3  2  1  0  0  0  0
  3  4  2  0  0  0  0
  4  5  1  0  0  0  0
  5  6  2  0  0  0  0
  5  9  1  0  0  0  0
  8  3  1  0  0  0  0
 10  2  1  0  0  0  0
 11 10  2  0  0  0  0
 12 11  1  0  0  0  0
 13 12  1  0  0  0  0
M  END
>  <minimizedAffinity>
-3.09547305

$$$$

 OpenBabel03242510163D

 13 13  0  0  0  0  0  0  0  0999 V2000
   37.2940   29.6050   42.1820 C   0  0  0  0  0  0  0  0  0  0  0  0
   36.5740   28.5940   41.5290 C   0  0  0  0  0  0  0  0  0  0  0  0
   36.9320   27.2700   41.7770 C   0  0  0  0  0  0  0  0  0  0  0  0
   37.9630   27.0170   42.6400 N   0  0  0  0  0  0  0  0  0  0  0  0
   38.6300   28.0210   43.2480 C   0  0  0  0  0  0  0  0  0  0  0  0
   38.2910   29.2940   43.0140 N   0  0  0  0  0  0  0  0  0  0  0  0
   36.9600   30.6120   41.9430 H   0  0  0  0  0  0  0  0  0  0  0  0
   36.4380   26.4250   41.3210 H   0  0  0  0  0  0  0  0  0  0  0  0
   39.4420   27.7780   43.9260 H   0  0  0  0  0  0  0  0  0  0  0  0
   35.4770   28.8780   40.6110 C   0  0  0  0  0  3  0  0  0  0  0  0
   35.4300   28.5400   39.3360 C   0  0  0  0  0  3  0  0  0  0  0  0
   34.2480   28.8810   38.4740 C   0  0  0  0  0  2  0  0  0  0  0  0
   34.1570   28.1890   37.6230 H   0  0  0  0  0  0  0  0  0  0  0  0
  1  6  1  0  0  0  0
  2  3  1  0  0  0  0
  2  1  2  0  0  0  0
  3  4  2  0  0  0  0
  4  5  1  0  0  0  0
  5  9  1  0  0  0  0
  6  5  2  0  0  0  0
  7  1  1  0  0  0  0
  8  3  1  0  0  0  0
 10  2  1  0  0  0  0
 11 10  2  0  0  0  0
 12 11  1  0  0  0  0
 13 12  1  0  0  0  0
M  END
>  <minimizedAffinity>
-3.07810593

$$$$

 OpenBabel03242510163D

 13 13  0  0  0  0  0  0  0  0999 V2000
   35.8200   29.5730   40.7540 C   0  0  0  0  0  0  0  0  0  0  0  0
   36.8720   30.4690   40.9910 C   0  0  0  0  0  0  0  0  0  0  0  0
   37.9140   30.0520   41.8180 C   0  0  0  0  0  0  0  0  0  0  0  0
   37.8640   28.7970   42.3580 N   0  0  0  0  0  0  0  0  0  0  0  0
   36.8320   27.9650   42.1040 C   0  0  0  0  0  0  0  0  0  0  0  0
   35.8290   28.3590   41.3110 N   0  0  0  0  0  0  0  0  0  0  0  0
   35.0430   29.9630   40.1000 H   0  0  0  0  0  0  0  0  0  0  0  0
   38.7660   30.6710   42.0590 H   0  0  0  0  0  0  0  0  0  0  0  0
   36.8300   26.9760   42.5520 H   0  0  0  0  0  0  0  0  0  0  0  0
   36.9130   31.8050   40.4080 C   0  0  0  0  0  3  0  0  0  0  0  0
   37.9370   32.6360   40.4520 C   0  0  0  0  0  3  0  0  0  0  0  0
   37.8760   33.9960   39.8170 C   0  0  0  0  0  2  0  0  0  0  0  0
   38.8800   34.3640   39.5570 H   0  0  0  0  0  0  0  0  0  0  0  0
  1  2  2  0  0  0  0
  1  6  1  0  0  0  0
  2  3  1  0  0  0  0
  3  8  1  0  0  0  0
  3  4  2  0  0  0  0
  5  4  1  0  0  0  0
  5  9  1  0  0  0  0
  6  5  2  0  0  0  0
  7  1  1  0  0  0  0
 10 11  2  0  0  0  0
 10  2  1  0  0  0  0
 12 11  1  0  0  0  0
 13 12  1  0  0  0  0
M  END
>  <minimizedAffinity>
-2.99242115

$$$$
