
 OpenBabel03252508203D

 29 30  0  0  0  0  0  0  0  0999 V2000
   45.0380   33.2720   40.9800 C   0  0  0  0  0  0  0  0  0  0  0  0
   44.5490   33.6940   41.9070 H   0  0  0  0  0  0  0  0  0  0  0  0
   45.0980   32.1940   41.1400 H   0  0  0  0  0  0  0  0  0  0  0  0
   46.3190   33.9800   40.8680 C   0  0  0  0  0  0  0  0  0  0  0  0
   47.1310   33.9490   39.7650 C   0  0  0  0  0  0  0  0  0  0  0  0
   48.3470   34.6030   39.6170 C   0  0  0  0  0  0  0  0  0  0  0  0
   48.7340   35.3520   40.7350 C   0  0  0  0  0  0  0  0  0  0  0  0
   47.9380   35.4040   41.8620 C   0  0  0  0  0  0  0  0  0  0  0  0
   46.7500   34.7380   41.9490 C   0  0  0  0  0  0  0  0  0  0  0  0
   46.8170   33.3640   38.9080 H   0  0  0  0  0  0  0  0  0  0  0  0
   48.9510   34.5570   38.7480 H   0  0  0  0  0  0  0  0  0  0  0  0
   49.6850   35.8810   40.6590 H   0  0  0  0  0  0  0  0  0  0  0  0
   48.3540   36.0200   42.6550 H   0  0  0  0  0  0  0  0  0  0  0  0
   45.9500   34.8300   43.1660 C   0  0  0  0  0  3  0  0  0  0  0  0
   45.2430   35.8860   43.5320 C   0  0  0  0  0  3  0  0  0  0  0  0
   44.4460   35.9260   44.7840 C   0  0  0  0  0  2  0  0  0  0  0  0
   44.9480   36.5900   45.5240 H   0  0  0  0  0  0  0  0  0  0  0  0
   44.0890   33.6530   39.8450 C   0  0  0  0  0  0  0  0  0  0  0  0
   44.5220   34.5810   39.4130 H   0  0  0  0  0  0  0  0  0  0  0  0
   44.0090   32.8440   39.1170 H   0  0  0  0  0  0  0  0  0  0  0  0
   41.3530   35.6380   41.5130 C   0  0  0  0  0  0  0  0  0  0  0  0
   42.6120   35.3150   40.9470 C   0  0  0  0  0  0  0  0  0  0  0  0
   42.7920   34.0190   40.4400 C   0  0  0  0  0  0  0  0  0  0  0  0
   41.7280   33.1480   40.5300 N   0  0  0  0  0  0  0  0  0  0  0  0
   40.5680   33.5060   41.0720 C   0  0  0  0  0  0  0  0  0  0  0  0
   40.3590   34.7450   41.5690 N   0  0  0  0  0  0  0  0  0  0  0  0
   41.2790   36.6560   41.8860 H   0  0  0  0  0  0  0  0  0  0  0  0
   43.3980   36.0710   40.9180 H   0  0  0  0  0  0  0  0  0  0  0  0
   39.8050   32.7360   41.0860 H   0  0  0  0  0  0  0  0  0  0  0  0
  1  3  1  0  0  0  0
  1  2  1  0  0  0  0
  4  1  1  0  0  0  0
  4  9  1  0  0  0  0
  5  4  2  0  0  0  0
  6  5  1  0  0  0  0
  6  7  2  0  0  0  0
  7  8  1  0  0  0  0
  8  9  2  0  0  0  0
  8 13  1  0  0  0  0
  9 14  1  0  0  0  0
 10  5  1  0  0  0  0
 11  6  1  0  0  0  0
 12  7  1  0  0  0  0
 14 15  2  0  0  0  0
 15 16  1  0  0  0  0
 16 17  1  0  0  0  0
 18 23  1  0  0  0  0
 18  1  1  0  0  0  0
 19 18  1  0  0  0  0
 20 18  1  0  0  0  0
 21 26  1  0  0  0  0
 21 27  1  0  0  0  0
 22 21  2  0  0  0  0
 23 24  2  0  0  0  0
 23 22  1  0  0  0  0
 24 25  1  0  0  0  0
 25 29  1  0  0  0  0
 25 26  2  0  0  0  0
 28 22  1  0  0  0  0
M  END
>  <minimizedAffinity>
-5.13726234

>  <minimizedRMSD>
1.00176132

$$$$
