
     RDKit          3D

 43 44  0  0  0  0  0  0  0  0999 V2000
   46.5725   34.9087   43.2477 O   0  0  0  0  0  0  0  0  0  0  0  0
   46.8035   33.9752   42.2301 C   0  0  1  0  0  0  0  0  0  0  0  0
   46.0759   34.4101   40.9548 C   0  0  0  0  0  0  0  0  0  0  0  0
   46.6909   33.4690   39.9504 C   0  0  0  0  0  0  0  0  0  0  0  0
   48.0765   33.1403   40.4739 C   0  0  0  0  0  0  0  0  0  0  0  0
   48.2189   33.9621   41.7441 C   0  0  1  0  0  0  0  0  0  0  0  0
   48.7580   35.3374   41.4603 C   0  0  0  0  0  0  0  0  0  0  0  0
   49.6552   35.7562   42.4182 O   0  0  0  0  0  0  0  0  0  0  0  0
   44.7262   35.3522   44.9922 O   0  0  0  0  0  0  0  0  0  0  0  0
   45.5775   34.2413   44.4121 P   0  0  1  0  0  0  0  0  0  0  0  0
   44.6060   33.0405   43.7181 O   0  0  0  0  0  0  0  0  0  0  0  0
   46.4722   33.4960   45.6048 O   0  0  0  0  0  0  0  0  0  0  0  0
   46.2319   32.1587   45.5718 C   0  0  0  0  0  0  0  0  0  0  0  0
   45.6560   31.8997   49.2382 C   0  0  0  0  0  0  0  0  0  0  0  0
   45.9910   32.4500   47.9900 C   0  0  0  0  0  0  0  0  0  0  0  0
   45.8836   31.6099   46.8960 C   0  0  0  0  0  0  0  0  0  0  0  0
   45.4677   30.3187   47.0759 N   0  0  0  0  0  0  0  0  0  0  0  0
   45.1526   29.8170   48.2875 C   0  0  0  0  0  0  0  0  0  0  0  0
   45.2477   30.6030   49.3511 N   0  0  0  0  0  0  0  0  0  0  0  0
   46.4524   32.9711   42.4584 H   0  0  0  0  0  0  0  0  0  0  0  0
   44.9899   34.2043   41.1151 H   0  0  0  0  0  0  0  0  0  0  0  0
   46.1731   35.4669   40.7296 H   0  0  0  0  0  0  0  0  0  0  0  0
   46.1026   32.5072   40.0109 H   0  0  0  0  0  0  0  0  0  0  0  0
   46.6828   33.8526   38.9233 H   0  0  0  0  0  0  0  0  0  0  0  0
   48.8582   33.3758   39.7513 H   0  0  0  0  0  0  0  0  0  0  0  0
   48.1828   32.0624   40.7637 H   0  0  0  0  0  0  0  0  0  0  0  0
   48.9203   33.4671   42.4609 H   0  0  0  0  0  0  0  0  0  0  0  0
   49.3010   35.2881   40.4873 H   0  0  0  0  0  0  0  0  0  0  0  0
   48.0010   36.1151   41.3621 H   0  0  0  0  0  0  0  0  0  0  0  0
   49.2326   35.9110   43.2887 H   0  0  0  0  0  0  0  0  0  0  0  0
   43.7020   33.3703   43.5145 H   0  0  0  0  0  0  0  0  0  0  0  0
   47.2041   31.6624   45.2847 H   0  0  0  0  0  0  0  0  0  0  0  0
   45.4929   31.7817   44.8711 H   0  0  0  0  0  0  0  0  0  0  0  0
   45.7258   32.5198   50.1165 H   0  0  0  0  0  0  0  0  0  0  0  0
   46.3125   33.4753   47.9107 H   0  0  0  0  0  0  0  0  0  0  0  0
   44.7168   28.4322   48.4057 C   0  0  0  0  0  0  0  0  0  0  0  0
   45.1344   27.4943   47.5749 C   0  0  0  0  0  0  0  0  0  0  0  0
   44.6713   26.0678   47.7145 C   0  0  0  0  0  0  0  0  0  0  0  0
   43.7849   25.9386   47.0615 H   0  0  0  0  0  0  0  0  0  0  0  0
   44.0260   28.1438   49.1974 H   0  0  0  0  0  0  0  0  0  0  0  0
   45.8139   27.7235   46.7788 H   0  0  0  0  0  0  0  0  0  0  0  0
   45.4897   25.3714   47.5357 H   0  0  0  0  0  0  0  0  0  0  0  0
   44.2616   25.9657   48.7575 H   0  0  0  0  0  0  0  0  0  0  0  0
 10  1  1  6
  2  1  1  0
  3  2  1  0
  4  5  1  0
  4  3  1  0
  5  6  1  0
  6  2  1  0
  7  6  1  0
  7  8  1  0
 10  9  2  0
 10 12  1  0
 11 10  1  0
 13 12  1  0
 13 16  1  0
 14 19  2  0
 15 14  1  0
 16 17  1  0
 16 15  2  0
 17 18  2  0
 18 19  1  0
  2 20  1  1
  3 21  1  0
  3 22  1  0
  4 23  1  0
  4 24  1  0
  5 25  1  0
  5 26  1  0
  6 27  1  1
  7 28  1  0
  7 29  1  0
  8 30  1  0
 11 31  1  0
 13 32  1  0
 13 33  1  0
 14 34  1  0
 15 35  1  0
 36 37  2  3
 37 38  1  0
 38 39  1  0
 36 40  1  0
 37 41  1  0
 38 42  1  0
 38 43  1  0
 18 36  1  0
M  ISO  8  20  13  21  13  22  13  23  13  24  13  25  13  26  13  27  13
M  ISO  8  28   8  29   8  30   3  31   3  32   8  33   8  34  14  35  14
M  ISO  1  39   8
M  END
>  <DihAtoms>  (1) 
16,17,35,36

>  <DihDeg>  (1) 
179.99955865990756

$$$$
