
 OpenBabel03252505573D

 31 32  0  0  0  0  0  0  0  0999 V2000
   45.8570   32.6910   47.5770 O   0  0  0  0  0  0  0  0  0  0  0  0
   45.0170   34.8750   44.9070 C   0  0  0  0  0  0  0  0  0  0  0  0
   45.9530   34.5620   43.9030 C   0  0  0  0  0  0  0  0  0  0  0  0
   46.8760   33.5620   44.2120 C   0  0  0  0  0  0  0  0  0  0  0  0
   46.8230   32.9700   45.4160 N   0  0  0  0  0  0  0  0  0  0  0  0
   45.9150   33.3000   46.3380 C   0  0  0  0  0  0  0  0  0  0  0  0
   45.0170   34.2450   46.0890 N   0  0  0  0  0  0  0  0  0  0  0  0
   44.2840   35.6620   44.6760 H   0  0  0  0  0  0  0  0  0  0  0  0
   45.9100   35.2920   42.6120 C   0  0  0  0  0  0  0  0  0  0  0  0
   45.0560   36.3660   42.8590 F   0  0  0  0  0  0  0  0  0  0  0  0
   45.2970   34.4460   41.7000 F   0  0  0  0  0  0  0  0  0  0  0  0
   47.1460   35.6930   42.2750 F   0  0  0  0  0  0  0  0  0  0  0  0
   47.8630   33.1200   43.2700 C   0  0  0  0  0  3  0  0  0  0  0  0
   47.6350   32.0630   42.4710 C   0  0  0  0  0  3  0  0  0  0  0  0
   46.3520   31.2890   42.5170 C   0  0  0  0  0  2  0  0  0  0  0  0
   46.1960   30.7810   43.4950 H   0  0  0  0  0  0  0  0  0  0  0  0
   45.3510   31.3800   47.7200 C   0  0  0  0  0  0  0  0  0  0  0  0
   44.8240   31.3570   48.6960 H   0  0  0  0  0  0  0  0  0  0  0  0
   44.6120   31.1050   46.9500 H   0  0  0  0  0  0  0  0  0  0  0  0
   46.5040   30.4640   47.8040 C   0  0  0  0  0  0  0  0  0  0  0  0
   46.7070   29.2070   47.2590 C   0  0  0  0  0  0  0  0  0  0  0  0
   47.8870   28.5910   47.5030 C   0  0  0  0  0  0  0  0  0  0  0  0
   48.8500   29.1300   48.2370 N   0  0  0  0  0  0  0  0  0  0  0  0
   48.6510   30.3490   48.7650 C   0  0  0  0  0  0  0  0  0  0  0  0
   47.4820   31.0400   48.5640 N   0  0  0  0  0  0  0  0  0  0  0  0
   45.8690   28.8860   46.6950 H   0  0  0  0  0  0  0  0  0  0  0  0
   48.0090   27.6120   47.0610 H   0  0  0  0  0  0  0  0  0  0  0  0
   49.7790   30.8880   49.5770 C   0  0  0  0  0  0  0  0  0  0  0  0
   49.7830   32.2550   49.5860 F   0  0  0  0  0  0  0  0  0  0  0  0
   50.9950   30.4240   49.0560 F   0  0  0  0  0  0  0  0  0  0  0  0
   49.7040   30.4620   50.8960 F   0  0  0  0  0  0  0  0  0  0  0  0
  1 17  1  0  0  0  0
  2  7  1  0  0  0  0
  3  4  1  0  0  0  0
  3  2  2  0  0  0  0
  4  5  2  0  0  0  0
  5  6  1  0  0  0  0
  6  1  1  0  0  0  0
  7  6  2  0  0  0  0
  8  2  1  0  0  0  0
  9 10  1  0  0  0  0
  9  3  1  0  0  0  0
 11  9  1  0  0  0  0
 12  9  1  0  0  0  0
 13  4  1  0  0  0  0
 14 15  1  0  0  0  0
 14 13  2  0  0  0  0
 15 16  1  0  0  0  0
 17 20  1  0  0  0  0
 17 18  1  0  0  0  0
 19 17  1  0  0  0  0
 20 25  1  0  0  0  0
 21 22  1  0  0  0  0
 21 20  2  0  0  0  0
 22 23  2  0  0  0  0
 23 24  1  0  0  0  0
 24 28  1  0  0  0  0
 25 24  2  0  0  0  0
 26 21  1  0  0  0  0
 27 22  1  0  0  0  0
 28 29  1  0  0  0  0
 28 31  1  0  0  0  0
 30 28  1  0  0  0  0
M  END
>  <minimizedAffinity>
-5.50658369

>  <minimizedRMSD>
0.350526989

$$$$
