
 OpenBabel03252504043D

 14 14  0  0  0  0  0  0  0  0999 V2000
   44.4860   35.6680   45.1140 C   0  0  0  0  0  0  0  0  0  0  0  0
   45.0420   35.8470   43.8440 C   0  0  0  0  0  0  0  0  0  0  0  0
   45.9850   34.9030   43.4590 C   0  0  0  0  0  0  0  0  0  0  0  0
   46.3250   33.8900   44.2760 N   0  0  0  0  0  0  0  0  0  0  0  0
   45.7570   33.7540   45.5080 C   0  0  0  0  0  0  0  0  0  0  0  0
   44.8420   34.6580   45.8950 N   0  0  0  0  0  0  0  0  0  0  0  0
   43.7510   36.3890   45.4320 H   0  0  0  0  0  0  0  0  0  0  0  0
   45.9770   32.9700   46.2190 H   0  0  0  0  0  0  0  0  0  0  0  0
   44.7160   36.8730   42.9830 O   0  0  0  0  0  0  0  0  0  0  0  0
   44.4950   36.5680   42.0250 H   0  0  0  0  0  0  0  0  0  0  0  0
   46.6560   34.9480   42.1720 C   0  0  0  0  0  0  0  0  0  0  0  0
   47.9420   35.1900   41.9770 C   0  0  0  0  0  0  0  0  0  0  0  0
   48.5460   35.2160   40.6200 C   0  0  0  0  0  0  0  0  0  0  0  0
   49.3250   34.4320   40.5440 H   0  0  0  0  0  0  0  0  0  0  0  0
  1  7  1  0  0  0  0
  1  6  1  0  0  0  0
  2  1  2  0  0  0  0
  3  2  1  0  0  0  0
  3  4  2  0  0  0  0
  4  5  1  0  0  0  0
  5  6  2  0  0  0  0
  5  8  1  0  0  0  0
  9  2  1  0  0  0  0
 10  9  1  0  0  0  0
 11  3  1  0  0  0  0
 12 11  2  0  0  0  0
 13 12  1  0  0  0  0
 14 13  1  0  0  0  0
M  END
>  <minimizedAffinity>
-4.31462002

>  <minimizedRMSD>
0.646945596

$$$$
