
 OpenBabel03252506493D

 24 25  0  0  0  0  0  0  0  0999 V2000
   43.4120   34.0240   40.2500 S   0  0  0  0  0  0  0  0  0  0  0  0
   41.6310   31.5720   41.2750 Cl  0  0  0  0  0  0  0  0  0  0  0  0
   40.8220   33.0140   40.6870 C   0  0  0  0  0  0  0  0  0  0  0  0
   41.6480   34.0180   40.2660 C   0  0  0  0  0  0  0  0  0  0  0  0
   41.0480   35.1810   39.7910 C   0  0  0  0  0  0  0  0  0  0  0  0
   39.6630   35.2830   39.7610 C   0  0  0  0  0  0  0  0  0  0  0  0
   38.8340   34.2710   40.1860 C   0  0  0  0  0  0  0  0  0  0  0  0
   39.4400   33.1060   40.6610 C   0  0  0  0  0  0  0  0  0  0  0  0
   38.4900   31.7530   41.2270 Cl  0  0  0  0  0  0  0  0  0  0  0  0
   41.6130   36.0310   39.4360 H   0  0  0  0  0  0  0  0  0  0  0  0
   39.1880   36.1950   39.3890 H   0  0  0  0  0  0  0  0  0  0  0  0
   37.7490   34.3580   40.1590 H   0  0  0  0  0  0  0  0  0  0  0  0
   44.1360   34.3350   41.8600 C   0  0  0  0  0  0  0  0  0  0  0  0
   44.6190   33.1930   42.5120 C   0  0  0  0  0  0  0  0  0  0  0  0
   45.2000   33.3610   43.7820 C   0  0  0  0  0  0  0  0  0  0  0  0
   45.2630   34.6170   44.3080 N   0  0  0  0  0  0  0  0  0  0  0  0
   44.7830   35.6800   43.6370 C   0  0  0  0  0  0  0  0  0  0  0  0
   44.2130   35.5630   42.4060 N   0  0  0  0  0  0  0  0  0  0  0  0
   44.5620   32.2020   42.0840 H   0  0  0  0  0  0  0  0  0  0  0  0
   45.5950   32.5350   44.3510 H   0  0  0  0  0  0  0  0  0  0  0  0
   44.8750   37.0030   44.2440 C   0  0  0  0  0  3  0  0  0  0  0  0
   45.3100   38.0220   43.5190 C   0  0  0  0  0  3  0  0  0  0  0  0
   45.4670   39.4200   43.9670 C   0  0  0  0  0  2  0  0  0  0  0  0
   44.8070   40.1010   43.3570 H   0  0  0  0  0  0  0  0  0  0  0  0
  1  4  1  0  0  0  0
  1 13  1  0  0  0  0
  3  2  1  0  0  0  0
  4  3  2  0  0  0  0
  5  4  1  0  0  0  0
  6  5  2  0  0  0  0
  6  7  1  0  0  0  0
  7  8  2  0  0  0  0
  8  3  1  0  0  0  0
  8  9  1  0  0  0  0
 10  5  1  0  0  0  0
 11  6  1  0  0  0  0
 12  7  1  0  0  0  0
 13 18  2  0  0  0  0
 13 14  1  0  0  0  0
 14 15  2  0  0  0  0
 15 16  1  0  0  0  0
 15 20  1  0  0  0  0
 17 21  1  0  0  0  0
 17 16  2  0  0  0  0
 18 17  1  0  0  0  0
 19 14  1  0  0  0  0
 22 23  1  0  0  0  0
 22 21  2  0  0  0  0
 24 23  1  0  0  0  0
M  END
>  <minimizedAffinity>
-4.72740602

>  <minimizedRMSD>
1.12269342

$$$$
