
 OpenBabel03252506483D

 24 25  0  0  0  0  0  0  0  0999 V2000
   43.7980   33.2050   40.6740 S   0  0  0  0  0  0  0  0  0  0  0  0
   40.7960   32.4710   41.5010 Cl  0  0  0  0  0  0  0  0  0  0  0  0
   41.0550   33.6240   40.2030 C   0  0  0  0  0  0  0  0  0  0  0  0
   42.3620   33.8870   39.9060 C   0  0  0  0  0  0  0  0  0  0  0  0
   42.6150   34.7960   38.8830 C   0  0  0  0  0  0  0  0  0  0  0  0
   41.5550   35.3930   38.2110 C   0  0  0  0  0  0  0  0  0  0  0  0
   40.2390   35.1270   38.5120 C   0  0  0  0  0  0  0  0  0  0  0  0
   39.9920   34.2130   39.5390 C   0  0  0  0  0  0  0  0  0  0  0  0
   38.3620   33.7960   40.0100 Cl  0  0  0  0  0  0  0  0  0  0  0  0
   43.6130   35.0710   38.5730 H   0  0  0  0  0  0  0  0  0  0  0  0
   41.7490   36.1080   37.4060 H   0  0  0  0  0  0  0  0  0  0  0  0
   39.4150   35.5980   37.9810 H   0  0  0  0  0  0  0  0  0  0  0  0
   44.3770   34.1640   42.0730 C   0  0  0  0  0  0  0  0  0  0  0  0
   44.7090   33.4040   43.2020 C   0  0  0  0  0  0  0  0  0  0  0  0
   45.1720   34.0890   44.3400 C   0  0  0  0  0  0  0  0  0  0  0  0
   45.2710   35.4480   44.2860 N   0  0  0  0  0  0  0  0  0  0  0  0
   44.9380   36.1280   43.1740 C   0  0  0  0  0  0  0  0  0  0  0  0
   44.4870   35.5060   42.0510 N   0  0  0  0  0  0  0  0  0  0  0  0
   44.6250   32.3270   43.2330 H   0  0  0  0  0  0  0  0  0  0  0  0
   45.4480   33.5810   45.2500 H   0  0  0  0  0  0  0  0  0  0  0  0
   45.0630   37.5820   43.1670 C   0  0  0  0  0  3  0  0  0  0  0  0
   45.2170   38.2260   44.3130 C   0  0  0  0  0  3  0  0  0  0  0  0
   45.3580   39.6850   44.4920 C   0  0  0  0  0  2  0  0  0  0  0  0
   46.3540   39.9260   44.9620 H   0  0  0  0  0  0  0  0  0  0  0  0
  1 13  1  0  0  0  0
  3  2  1  0  0  0  0
  4  3  1  0  0  0  0
  4  1  1  0  0  0  0
  5  4  2  0  0  0  0
  6  7  2  0  0  0  0
  6  5  1  0  0  0  0
  7  8  1  0  0  0  0
  8  9  1  0  0  0  0
  8  3  2  0  0  0  0
 10  5  1  0  0  0  0
 11  6  1  0  0  0  0
 12  7  1  0  0  0  0
 13 14  1  0  0  0  0
 14 19  1  0  0  0  0
 14 15  2  0  0  0  0
 15 20  1  0  0  0  0
 16 15  1  0  0  0  0
 17 16  2  0  0  0  0
 18 13  2  0  0  0  0
 18 17  1  0  0  0  0
 21 17  1  0  0  0  0
 21 22  2  0  0  0  0
 22 23  1  0  0  0  0
 23 24  1  0  0  0  0
M  END
>  <minimizedAffinity>
-4.37949371

>  <minimizedRMSD>
1.92608142

$$$$
