
     RDKit          3D

 33 34  0  0  0  0  0  0  0  0999 V2000
   46.4040   32.6784   45.0383 C   0  0  0  0  0  0  0  0  0  0  0  0
   44.5747   35.8636   44.6013 C   0  0  0  0  0  0  0  0  0  0  0  0
   45.0207   36.2868   43.3242 C   0  0  0  0  0  0  0  0  0  0  0  0
   45.9323   35.4717   42.6817 C   0  0  0  0  0  0  0  0  0  0  0  0
   46.3433   34.3487   43.2760 N   0  0  0  0  0  0  0  0  0  0  0  0
   45.8819   33.9896   44.5038 C   0  0  0  0  0  0  0  0  0  0  0  0
   45.0156   34.7258   45.1612 N   0  0  0  0  0  0  0  0  0  0  0  0
   46.8392   32.9329   46.4410 C   0  0  0  0  0  0  0  0  0  0  0  0
   46.2237   32.0295   47.4084 C   0  0  0  0  0  0  0  0  0  0  0  0
   45.8458   32.2616   48.7209 C   0  0  0  0  0  0  0  0  0  0  0  0
   45.2245   31.3501   49.5343 C   0  0  0  0  0  0  0  0  0  0  0  0
   44.9582   30.1189   49.0031 C   0  0  0  0  0  0  0  0  0  0  0  0
   45.3282   29.8593   47.6900 C   0  0  0  0  0  0  0  0  0  0  0  0
   45.9629   30.8091   46.8918 C   0  0  0  0  0  0  0  0  0  0  0  0
   45.4764   32.0765   45.0429 H   0  0  0  0  0  0  0  0  0  0  0  0
   47.2145   32.3397   44.3714 H   0  0  0  0  0  0  0  0  0  0  0  0
   43.8496   36.5423   45.0771 H   0  0  0  0  0  0  0  0  0  0  0  0
   44.6578   37.2115   42.8770 H   0  0  0  0  0  0  0  0  0  0  0  0
   46.3166   35.7339   41.7020 H   0  0  0  0  0  0  0  0  0  0  0  0
   46.7031   33.9660   46.7812 H   0  0  0  0  0  0  0  0  0  0  0  0
   47.9461   32.7040   46.4665 H   0  0  0  0  0  0  0  0  0  0  0  0
   46.1055   33.2718   49.0353 H   0  0  0  0  0  0  0  0  0  0  0  0
   45.0225   31.7415   50.5196 H   0  0  0  0  0  0  0  0  0  0  0  0
   44.4583   29.4850   49.7514 H   0  0  0  0  0  0  0  0  0  0  0  0
   45.0016   28.8255   47.5360 H   0  0  0  0  0  0  0  0  0  0  0  0
   46.2830   30.0572   45.6877 C   0  0  0  0  0  0  0  0  0  0  0  0
   47.3265   29.3539   45.3074 C   0  0  0  0  0  0  0  0  0  0  0  0
   47.6230   28.6122   44.0993 C   0  0  0  0  0  0  0  0  0  0  0  0
   46.7383   28.7003   43.4080 H   0  0  0  0  0  0  0  0  0  0  0  0
   45.7178   29.9516   44.7930 H   0  0  0  0  0  0  0  0  0  0  0  0
   48.2291   29.1874   45.8854 H   0  0  0  0  0  0  0  0  0  0  0  0
   47.7043   27.5257   44.3007 H   0  0  0  0  0  0  0  0  0  0  0  0
   48.5151   28.9751   43.5459 H   0  0  0  0  0  0  0  0  0  0  0  0
  1  8  1  0
  2  7  2  0
  3  2  1  0
  4  5  1  0
  4  3  2  0
  5  6  2  0
  6  1  1  0
  6  7  1  0
  8  9  1  0
  9 10  2  0
 10 11  1  0
 12 11  2  0
 13 12  1  0
 14  9  1  0
 14 13  2  0
  1 15  1  0
  1 16  1  0
  2 17  1  0
  3 18  1  0
  4 19  1  0
  8 20  1  0
  8 21  1  0
 10 22  1  0
 11 23  1  0
 12 24  1  0
 13 25  1  0
 26 27  2  3
 27 28  1  0
 28 29  1  0
 26 30  1  0
 27 31  1  0
 28 32  1  0
 28 33  1  0
 14 26  1  0
M  ISO  8  15   8  16   8  17  14  18  14  19  14  20   8  21   8  22  14
M  ISO  4  23  14  24  14  25  14  29   8
M  END
>  <DihAtoms>  (1) 
8,13,25,26

>  <DihDeg>  (1) 
-173.36749990422283

$$$$
