
     RDKit          3D

 28 29  0  0  0  0  0  0  0  0999 V2000
   42.0970   31.9320   41.7072 Cl  0  0  0  0  0  0  0  0  0  0  0  0
   41.2735   33.3622   41.1111 C   0  0  0  0  0  0  0  0  0  0  0  0
   42.0782   34.4324   40.8421 C   0  0  0  0  0  0  0  0  0  0  0  0
   41.4658   35.5886   40.3669 C   0  0  0  0  0  0  0  0  0  0  0  0
   40.0890   35.6177   40.1853 C   0  0  0  0  0  0  0  0  0  0  0  0
   39.2802   34.5393   40.4566 C   0  0  0  0  0  0  0  0  0  0  0  0
   39.8987   33.3813   40.9332 C   0  0  0  0  0  0  0  0  0  0  0  0
   38.9755   31.9483   41.3126 Cl  0  0  0  0  0  0  0  0  0  0  0  0
   43.8303   34.5330   41.0258 S   0  0  0  0  0  0  0  0  0  0  0  0
   44.3596   34.6286   42.7363 C   0  0  0  0  0  0  0  0  0  0  0  0
   45.0285   33.4902   43.2028 C   0  0  0  0  0  0  0  0  0  0  0  0
   45.4737   33.4930   44.5371 C   0  0  0  0  0  0  0  0  0  0  0  0
   45.2322   34.5962   45.3007 N   0  0  0  0  0  0  0  0  0  0  0  0
   44.5842   35.6633   44.8009 C   0  0  0  0  0  0  0  0  0  0  0  0
   44.1366   35.7028   43.5164 N   0  0  0  0  0  0  0  0  0  0  0  0
   42.0147   36.4883   40.1249 H   0  0  0  0  0  0  0  0  0  0  0  0
   39.6043   36.5251   39.8118 H   0  0  0  0  0  0  0  0  0  0  0  0
   38.2017   34.5698   40.3117 H   0  0  0  0  0  0  0  0  0  0  0  0
   45.2141   32.6212   42.5874 H   0  0  0  0  0  0  0  0  0  0  0  0
   45.9965   32.6583   44.9755 H   0  0  0  0  0  0  0  0  0  0  0  0
   44.3508   36.8191   45.6597 C   0  0  0  0  0  0  0  0  0  0  0  0
   44.5809   38.0353   45.1894 C   0  0  0  0  0  0  0  0  0  0  0  0
   44.4008   39.3090   45.9129 C   0  0  0  0  0  0  0  0  0  0  0  0
   43.6336   39.9501   45.3911 H   0  0  0  0  0  0  0  0  0  0  0  0
   43.9931   36.6981   46.6733 H   0  0  0  0  0  0  0  0  0  0  0  0
   44.9379   38.1774   44.1810 H   0  0  0  0  0  0  0  0  0  0  0  0
   45.3552   39.8815   46.0282 H   0  0  0  0  0  0  0  0  0  0  0  0
   44.0187   39.1372   46.9330 H   0  0  0  0  0  0  0  0  0  0  0  0
  2  1  1  0
  3  9  1  0
  3  2  2  0
  4  3  1  0
  5  4  2  0
  5  6  1  0
  6  7  2  0
  7  2  1  0
  7  8  1  0
  9 10  1  0
 10 11  2  0
 10 15  1  0
 11 12  1  0
 12 13  2  0
 14 13  1  0
 15 14  2  0
  4 16  1  0
  5 17  1  0
  6 18  1  0
 11 19  1  0
 12 20  1  0
 21 22  2  3
 22 23  1  0
 23 24  1  0
 21 25  1  0
 22 26  1  0
 23 27  1  0
 23 28  1  0
 14 21  1  0
M  ISO  6  16  14  17  14  18  14  19  14  20  14  24   8
M  END
>  <DihAtoms>  (1) 
12,13,20,21

>  <DihDeg>  (1) 
0.0011811958307958335

$$$$
