REMARK  Name = 
REMARK  3 active torsions:
REMARK  status: ('A' for Active; 'I' for Inactive)
REMARK    1  A    between atoms: C_2  and  C_7
REMARK    2  A    between atoms: C_3  and  C_13
REMARK    3  A    between atoms: C_14  and  C_15
REMARK                            x       y       z     vdW  Elec       q    Type
REMARK                         _______ _______ _______ _____ _____    ______ ____
ROOT
ATOM      1  C   UNL     1      44.379  35.789  44.446  0.00  0.00    +0.000 A 
ATOM      2  C   UNL     1      44.658  35.083  43.283  0.00  0.00    +0.000 A 
ATOM      3  C   UNL     1      45.281  33.849  43.394  0.00  0.00    +0.000 A 
ATOM      4  N   UNL     1      45.598  33.370  44.625  0.00  0.00    +0.000 NA
ATOM      5  C   UNL     1      45.307  34.092  45.742  0.00  0.00    +0.000 A 
ATOM      6  N   UNL     1      44.702  35.292  45.651  0.00  0.00    +0.000 NA
ATOM      7  H   UNL     1      43.902  36.750  44.504  0.00  0.00    +0.000 HD
ATOM      8  H   UNL     1      45.627  33.561  46.622  0.00  0.00    +0.000 HD
ENDROOT
BRANCH   2   9
ATOM      9  C   UNL     1      44.274  35.692  41.996  0.00  0.00    +0.000 C 
ATOM     10  H   UNL     1      43.393  35.190  41.550  0.00  0.00    +0.000 HD
ATOM     11  H   UNL     1      45.121  35.512  41.272  0.00  0.00    +0.000 HD
ATOM     12  H   UNL     1      44.187  36.776  42.104  0.00  0.00    +0.000 HD
ENDBRANCH   2   9
BRANCH   3  13
ATOM     13  C   UNL     1      45.586  33.087  42.190  0.00  0.00    +0.000 C 
ATOM     14  C   UNL     1      46.596  33.454  41.419  0.00  0.00    +0.000 C 
BRANCH  14  15
ATOM     15  C   UNL     1      46.906  32.669  40.184  0.00  0.00    +0.000 C 
ATOM     16  H   UNL     1      47.517  33.275  39.474  0.00  0.00    +0.000 HD
ENDBRANCH  14  15
ENDBRANCH   3  13
TORSDOF 3
