
 OpenBabel03252501293D

 33 34  0  0  0  0  0  0  0  0999 V2000
   46.4860   31.1320   46.7060 C   0  0  0  0  0  0  0  0  0  0  0  0
   45.3540   31.0220   47.4590 C   0  0  0  0  0  0  0  0  0  0  0  0
   44.8080   29.8390   47.8440 C   0  0  0  0  0  0  0  0  0  0  0  0
   45.4090   28.6900   47.4640 C   0  0  0  0  0  0  0  0  0  0  0  0
   46.5590   28.7650   46.7000 C   0  0  0  0  0  0  0  0  0  0  0  0
   47.1060   29.9790   46.3150 C   0  0  0  0  0  0  0  0  0  0  0  0
   44.9040   31.9890   47.7400 H   0  0  0  0  0  0  0  0  0  0  0  0
   43.9060   29.9100   48.4420 H   0  0  0  0  0  0  0  0  0  0  0  0
   46.9420   27.7560   46.4640 H   0  0  0  0  0  0  0  0  0  0  0  0
   49.4320   29.3330   46.3700 C   0  0  0  0  0  0  0  0  0  0  0  0
   49.8120   29.2820   47.6000 O   0  0  0  0  0  0  0  0  0  0  0  0
   48.2860   29.6640   45.5710 N   0  0  0  0  0  0  0  0  0  0  0  0
   50.4010   28.9880   45.9580 H   0  0  0  0  0  0  0  0  0  0  0  0
   48.5250   29.6150   44.5580 H   0  0  0  0  0  0  0  0  0  0  0  0
   47.1650   32.3320   46.2140 C   0  0  0  0  0  0  0  0  0  0  0  0
   48.2760   32.2580   46.3340 H   0  0  0  0  0  0  0  0  0  0  0  0
   46.8480   33.1890   46.8330 H   0  0  0  0  0  0  0  0  0  0  0  0
   46.8970   32.5610   44.7380 C   0  0  0  0  0  0  0  0  0  0  0  0
   46.2870   31.7090   44.3170 H   0  0  0  0  0  0  0  0  0  0  0  0
   47.8160   32.5860   44.1400 H   0  0  0  0  0  0  0  0  0  0  0  0
   44.6240   35.3380   45.4620 C   0  0  0  0  0  0  0  0  0  0  0  0
   44.6560   36.0820   44.2550 C   0  0  0  0  0  0  0  0  0  0  0  0
   45.4660   35.5900   43.2400 C   0  0  0  0  0  0  0  0  0  0  0  0
   46.1680   34.4660   43.4270 N   0  0  0  0  0  0  0  0  0  0  0  0
   46.0980   33.7950   44.6020 C   0  0  0  0  0  0  0  0  0  0  0  0
   45.3530   34.2070   45.5990 N   0  0  0  0  0  0  0  0  0  0  0  0
   44.0090   35.6570   46.3120 H   0  0  0  0  0  0  0  0  0  0  0  0
   44.0460   36.9680   44.2320 H   0  0  0  0  0  0  0  0  0  0  0  0
   45.4720   36.1740   42.3390 H   0  0  0  0  0  0  0  0  0  0  0  0
   44.8080   27.3960   47.8860 C   0  0  0  0  0  0  0  0  0  0  0  0
   43.9290   26.7170   47.1830 C   0  0  0  0  0  0  0  0  0  0  0  0
   43.3900   25.4170   47.7160 C   0  0  0  0  0  0  0  0  0  0  0  0
   43.1850   25.5670   48.8140 H   0  0  0  0  0  0  0  0  0  0  0  0
  1  2  1  0  0  0  0
  2  7  1  0  0  0  0
  2  3  2  0  0  0  0
  3  8  1  0  0  0  0
  4  3  1  0  0  0  0
  4 30  1  0  0  0  0
  5  4  2  0  0  0  0
  6  5  1  0  0  0  0
  6  1  2  0  0  0  0
  9  5  1  0  0  0  0
 10 11  2  0  0  0  0
 12  6  1  0  0  0  0
 12 10  1  0  0  0  0
 13 10  1  0  0  0  0
 14 12  1  0  0  0  0
 15 16  1  0  0  0  0
 15  1  1  0  0  0  0
 15 17  1  0  0  0  0
 18 15  1  0  0  0  0
 19 18  1  0  0  0  0
 20 18  1  0  0  0  0
 21 26  1  0  0  0  0
 21 27  1  0  0  0  0
 22 21  2  0  0  0  0
 23 24  2  0  0  0  0
 23 22  1  0  0  0  0
 24 25  1  0  0  0  0
 25 18  1  0  0  0  0
 25 26  2  0  0  0  0
 28 22  1  0  0  0  0
 29 23  1  0  0  0  0
 31 32  1  0  0  0  0
 31 30  2  0  0  0  0
 32 33  1  0  0  0  0
M  END
>  <minimizedAffinity>
-4.57162476

>  <minimizedRMSD>
1.81085694

$$$$
