REMARK  Name = 
REMARK  4 active torsions:
REMARK  status: ('A' for Active; 'I' for Inactive)
REMARK    1  A    between atoms: C_2  and  C_7
REMARK    2  A    between atoms: C_5  and  C_17
REMARK    3  A    between atoms: C_8  and  C_9
REMARK    4  A    between atoms: C_18  and  C_19
REMARK                            x       y       z     vdW  Elec       q    Type
REMARK                         _______ _______ _______ _____ _____    ______ ____
ROOT
ATOM      1  C   UNL     1      44.300  35.792  44.187  0.00  0.00    +0.000 A 
ATOM      2  C   UNL     1      44.479  34.929  43.087  0.00  0.00    +0.000 A 
ATOM      3  C   UNL     1      45.088  33.707  43.309  0.00  0.00    +0.000 A 
ATOM      4  N   UNL     1      45.490  33.378  44.562  0.00  0.00    +0.000 NA
ATOM      5  C   UNL     1      45.300  34.239  45.600  0.00  0.00    +0.000 A 
ATOM      6  N   UNL     1      44.718  35.417  45.407  0.00  0.00    +0.000 NA
ATOM      7  H   UNL     1      43.819  36.727  43.939  0.00  0.00    +0.000 HD
ATOM      8  H   UNL     1      45.247  33.015  42.504  0.00  0.00    +0.000 HD
ENDROOT
BRANCH   2   9
ATOM      9  C   UNL     1      44.032  35.316  41.745  0.00  0.00    +0.000 C 
ATOM     10  C   UNL     1      43.018  34.734  41.107  0.00  0.00    +0.000 C 
BRANCH  10  11
ATOM     11  C   UNL     1      42.632  35.205  39.725  0.00  0.00    +0.000 C 
ATOM     12  H   UNL     1      43.317  34.824  38.968  0.00  0.00    +0.000 HD
ATOM     13  H   UNL     1      41.639  34.753  39.524  0.00  0.00    +0.000 HD
ATOM     14  H   UNL     1      42.507  36.300  39.708  0.00  0.00    +0.000 HD
ENDBRANCH  10  11
ENDBRANCH   2   9
BRANCH   5  15
ATOM     15  C   UNL     1      45.716  33.928  46.963  0.00  0.00    +0.000 C 
ATOM     16  C   UNL     1      46.309  32.809  47.342  0.00  0.00    +0.000 C 
BRANCH  16  17
ATOM     17  C   UNL     1      46.620  31.727  46.400  0.00  0.00    +0.000 C 
ATOM     18  H   UNL     1      47.108  30.880  46.926  0.00  0.00    +0.000 HD
ENDBRANCH  16  17
ENDBRANCH   5  15
TORSDOF 4
