
 OpenBabel03252505533D

 28 29  0  0  0  0  0  0  0  0999 V2000
   45.4530   31.3030   47.6620 C   0  0  0  0  0  0  0  0  0  0  0  0
   44.7560   31.1660   48.5370 H   0  0  0  0  0  0  0  0  0  0  0  0
   44.8870   30.9490   46.7770 H   0  0  0  0  0  0  0  0  0  0  0  0
   46.7050   30.5570   47.8410 C   0  0  0  0  0  0  0  0  0  0  0  0
   47.0920   29.3180   47.4020 C   0  0  0  0  0  0  0  0  0  0  0  0
   48.3470   28.8500   47.7280 C   0  0  0  0  0  0  0  0  0  0  0  0
   49.2030   29.5760   48.4660 N   0  0  0  0  0  0  0  0  0  0  0  0
   48.8230   30.7830   48.8930 C   0  0  0  0  0  0  0  0  0  0  0  0
   47.5920   31.2700   48.5870 N   0  0  0  0  0  0  0  0  0  0  0  0
   46.3200   28.8350   46.8200 H   0  0  0  0  0  0  0  0  0  0  0  0
   48.5710   27.8490   47.3350 H   0  0  0  0  0  0  0  0  0  0  0  0
   49.7110   31.6100   49.6940 C   0  0  0  0  0  0  0  0  0  0  0  0
   50.3740   31.1910   50.7500 C   0  0  0  0  0  0  0  0  0  0  0  0
   51.2770   32.0980   51.5350 C   0  0  0  0  0  0  0  0  0  0  0  0
   52.3310   31.8760   51.3700 H   0  0  0  0  0  0  0  0  0  0  0  0
   45.7710   32.6740   47.5790 O   0  0  0  0  0  0  0  0  0  0  0  0
   44.9310   35.0020   45.0340 C   0  0  0  0  0  0  0  0  0  0  0  0
   45.8040   34.7040   43.9920 C   0  0  0  0  0  0  0  0  0  0  0  0
   46.7040   33.6570   44.2000 C   0  0  0  0  0  0  0  0  0  0  0  0
   46.6930   32.9920   45.3790 N   0  0  0  0  0  0  0  0  0  0  0  0
   45.8220   33.3300   46.3480 C   0  0  0  0  0  0  0  0  0  0  0  0
   44.9340   34.3260   46.2040 N   0  0  0  0  0  0  0  0  0  0  0  0
   44.2050   35.8140   44.9210 H   0  0  0  0  0  0  0  0  0  0  0  0
   47.3810   33.4350   43.3870 H   0  0  0  0  0  0  0  0  0  0  0  0
   45.7090   35.5170   42.7510 C   0  0  0  0  0  0  0  0  0  0  0  0
   45.2770   36.7580   43.1490 F   0  0  0  0  0  0  0  0  0  0  0  0
   44.7410   34.8840   41.9510 F   0  0  0  0  0  0  0  0  0  0  0  0
   46.9410   35.5300   42.1460 F   0  0  0  0  0  0  0  0  0  0  0  0
  1  4  1  0  0  0  0
  1  2  1  0  0  0  0
  3  1  1  0  0  0  0
  4  9  1  0  0  0  0
  5  6  1  0  0  0  0
  5  4  2  0  0  0  0
  6  7  2  0  0  0  0
  7  8  1  0  0  0  0
  8 12  1  0  0  0  0
  9  8  2  0  0  0  0
 10  5  1  0  0  0  0
 11  6  1  0  0  0  0
 12 13  2  0  0  0  0
 13 14  1  0  0  0  0
 15 14  1  0  0  0  0
 16  1  1  0  0  0  0
 17 22  1  0  0  0  0
 18 19  1  0  0  0  0
 18 17  2  0  0  0  0
 19 20  2  0  0  0  0
 20 21  1  0  0  0  0
 21 16  1  0  0  0  0
 22 21  2  0  0  0  0
 23 17  1  0  0  0  0
 24 19  1  0  0  0  0
 25 26  1  0  0  0  0
 25 18  1  0  0  0  0
 27 25  1  0  0  0  0
 28 25  1  0  0  0  0
M  END
>  <minimizedAffinity>
-5.38086939

>  <minimizedRMSD>
0.48720637

$$$$
