
 OpenBabel03252501543D

 16 16  0  0  0  0  0  0  0  0999 V2000
   44.3570   35.7870   44.4810 C   0  0  0  0  0  0  0  0  0  0  0  0
   44.6800   35.1180   43.3070 C   0  0  0  0  0  0  0  0  0  0  0  0
   45.3510   33.9080   43.4010 C   0  0  0  0  0  0  0  0  0  0  0  0
   45.6690   33.4150   44.6260 N   0  0  0  0  0  0  0  0  0  0  0  0
   45.3330   34.1000   45.7540 C   0  0  0  0  0  0  0  0  0  0  0  0
   44.6820   35.2760   45.6790 N   0  0  0  0  0  0  0  0  0  0  0  0
   43.8410   36.7260   44.5520 H   0  0  0  0  0  0  0  0  0  0  0  0
   45.6610   33.5620   46.6270 H   0  0  0  0  0  0  0  0  0  0  0  0
   44.2910   35.7390   42.0280 C   0  0  0  0  0  0  0  0  0  0  0  0
   43.4370   35.2130   41.5580 H   0  0  0  0  0  0  0  0  0  0  0  0
   45.1550   35.6090   41.3130 H   0  0  0  0  0  0  0  0  0  0  0  0
   44.1590   36.8170   42.1580 H   0  0  0  0  0  0  0  0  0  0  0  0
   45.7030   33.1850   42.1860 C   0  0  0  0  0  3  0  0  0  0  0  0
   45.3520   31.9170   42.0510 C   0  0  0  0  0  3  0  0  0  0  0  0
   45.7150   31.1790   40.8020 C   0  0  0  0  0  2  0  0  0  0  0  0
   45.6800   30.0770   40.9710 H   0  0  0  0  0  0  0  0  0  0  0  0
  1  7  1  0  0  0  0
  1  6  1  0  0  0  0
  2  3  1  0  0  0  0
  2  1  2  0  0  0  0
  3  4  2  0  0  0  0
  4  5  1  0  0  0  0
  5  8  1  0  0  0  0
  6  5  2  0  0  0  0
  9 12  1  0  0  0  0
  9  2  1  0  0  0  0
 10  9  1  0  0  0  0
 11  9  1  0  0  0  0
 13  3  1  0  0  0  0
 14 13  2  0  0  0  0
 15 16  1  0  0  0  0
 15 14  1  0  0  0  0
M  END
>  <minimizedAffinity>
-2.89544964

>  <minimizedRMSD>
0.109633528

$$$$
