
 OpenBabel03252506283D

 42 45  0  0  0  0  0  0  0  0999 V2000
   46.4770   30.8630   48.8860 C   0  0  0  0  0  0  0  0  0  0  0  0
   46.6440   31.5800   49.7100 H   0  0  0  0  0  0  0  0  0  0  0  0
   47.2070   30.0570   49.0090 H   0  0  0  0  0  0  0  0  0  0  0  0
   46.3190   32.8860   45.9490 C   0  0  0  0  0  0  0  0  0  0  0  0
   47.3120   31.9400   45.5890 C   0  0  0  0  0  0  0  0  0  0  0  0
   47.4840   31.0900   46.6250 C   0  0  0  0  0  0  0  0  0  0  0  0
   46.6340   31.4900   47.5860 N   0  0  0  0  0  0  0  0  0  0  0  0
   45.9300   32.5660   47.1940 N   0  0  0  0  0  0  0  0  0  0  0  0
   47.8090   31.9520   44.6320 H   0  0  0  0  0  0  0  0  0  0  0  0
   48.1550   30.2480   46.7080 H   0  0  0  0  0  0  0  0  0  0  0  0
   44.5130   35.8240   44.7450 C   0  0  0  0  0  0  0  0  0  0  0  0
   45.0090   35.9920   43.4460 C   0  0  0  0  0  0  0  0  0  0  0  0
   45.9670   35.0830   43.0010 C   0  0  0  0  0  0  0  0  0  0  0  0
   46.3300   34.1200   43.8630 N   0  0  0  0  0  0  0  0  0  0  0  0
   45.8630   33.9610   45.0870 C   0  0  0  0  0  0  0  0  0  0  0  0
   44.9420   34.8290   45.5240 N   0  0  0  0  0  0  0  0  0  0  0  0
   43.7700   36.5470   45.0590 H   0  0  0  0  0  0  0  0  0  0  0  0
   44.7080   36.7750   42.7570 H   0  0  0  0  0  0  0  0  0  0  0  0
   46.5850   35.1100   41.6890 C   0  0  0  0  0  3  0  0  0  0  0  0
   47.8890   35.0220   41.5300 C   0  0  0  0  0  3  0  0  0  0  0  0
   48.5470   35.0450   40.2200 C   0  0  0  0  0  2  0  0  0  0  0  0
   49.5690   34.5740   40.2900 H   0  0  0  0  0  0  0  0  0  0  0  0
   45.1150   30.2930   49.0250 C   0  0  0  0  0  0  0  0  0  0  0  0
   44.9930   30.0010   50.1010 H   0  0  0  0  0  0  0  0  0  0  0  0
   44.3640   31.0930   48.8550 H   0  0  0  0  0  0  0  0  0  0  0  0
   44.9020   27.7750   48.5850 C   0  0  0  0  0  0  0  0  0  0  0  0
   44.8090   29.1030   48.2340 C   0  0  0  0  0  0  0  0  0  0  0  0
   44.3640   29.3730   46.9480 C   0  0  0  0  0  0  0  0  0  0  0  0
   44.0310   28.3660   46.0700 C   0  0  0  0  0  0  0  0  0  0  0  0
   43.5840   28.3230   44.8000 N   0  0  0  0  0  0  0  0  0  0  0  0
   43.4090   27.0640   44.3850 C   0  0  0  0  0  0  0  0  0  0  0  0
   43.7530   26.2030   45.4230 C   0  0  0  0  0  0  0  0  0  0  0  0
   44.1260   27.0480   46.4280 C   0  0  0  0  0  0  0  0  0  0  0  0
   44.5680   26.7700   47.7030 C   0  0  0  0  0  0  0  0  0  0  0  0
   45.2570   27.6130   49.6060 H   0  0  0  0  0  0  0  0  0  0  0  0
   44.2460   30.3700   46.5450 H   0  0  0  0  0  0  0  0  0  0  0  0
   43.4010   29.1880   44.2210 H   0  0  0  0  0  0  0  0  0  0  0  0
   43.0540   26.8180   43.3920 H   0  0  0  0  0  0  0  0  0  0  0  0
   43.7020   25.1290   45.3490 H   0  0  0  0  0  0  0  0  0  0  0  0
   44.6910   25.3850   48.1460 C   0  0  0  0  0  0  0  0  0  0  0  0
   45.1990   25.1030   49.2660 O   0  0  0  0  0  0  0  0  0  0  0  0
   44.3420   24.5760   47.5060 H   0  0  0  0  0  0  0  0  0  0  0  0
  1  3  1  0  0  0  0
  1 23  1  0  0  0  0
  1  2  1  0  0  0  0
  4  8  2  0  0  0  0
  5  4  1  0  0  0  0
  5  6  2  0  0  0  0
  6 10  1  0  0  0  0
  6  7  1  0  0  0  0
  7  1  1  0  0  0  0
  8  7  1  0  0  0  0
  9  5  1  0  0  0  0
 11 17  1  0  0  0  0
 11 16  1  0  0  0  0
 12 11  2  0  0  0  0
 13 12  1  0  0  0  0
 13 14  2  0  0  0  0
 14 15  1  0  0  0  0
 15 16  2  0  0  0  0
 15  4  1  0  0  0  0
 18 12  1  0  0  0  0
 19 13  1  0  0  0  0
 20 19  2  0  0  0  0
 21 22  1  0  0  0  0
 21 20  1  0  0  0  0
 23 24  1  0  0  0  0
 25 23  1  0  0  0  0
 26 35  1  0  0  0  0
 27 26  1  0  0  0  0
 27 23  1  0  0  0  0
 28 27  2  0  0  0  0
 29 33  2  0  0  0  0
 29 28  1  0  0  0  0
 30 29  1  0  0  0  0
 31 30  1  0  0  0  0
 31 32  2  0  0  0  0
 32 33  1  0  0  0  0
 33 34  1  0  0  0  0
 34 40  1  0  0  0  0
 34 26  2  0  0  0  0
 36 28  1  0  0  0  0
 37 30  1  0  0  0  0
 38 31  1  0  0  0  0
 39 32  1  0  0  0  0
 40 41  2  0  0  0  0
 42 40  1  0  0  0  0
M  END
>  <minimizedAffinity>
-5.79275274

>  <minimizedRMSD>
0.797590673

$$$$
