
     RDKit          3D

 37 38  0  0  0  0  0  0  0  0999 V2000
   45.2840   35.6149   44.2110 C   0  0  0  0  0  0  0  0  0  0  0  0
   46.2443   34.8617   43.5239 C   0  0  0  0  0  0  0  0  0  0  0  0
   46.7096   33.6666   44.0845 C   0  0  0  0  0  0  0  0  0  0  0  0
   46.2030   33.3065   45.2610 N   0  0  0  0  0  0  0  0  0  0  0  0
   45.2759   34.0413   45.9152 C   0  0  0  0  0  0  0  0  0  0  0  0
   44.8135   35.1954   45.3950 N   0  0  0  0  0  0  0  0  0  0  0  0
   48.6892   33.7733   42.5836 C   0  0  2  0  0  0  0  0  0  0  0  0
   47.7115   32.9258   43.3199 C   0  0  2  0  0  0  0  0  0  0  0  0
   47.1635   32.1595   42.2488 O   0  0  0  0  0  0  0  0  0  0  0  0
   48.2986   31.6725   41.6337 C   0  0  0  0  0  0  0  0  0  0  0  0
   49.4285   32.6458   41.8309 C   0  0  1  0  0  0  0  0  0  0  0  0
   49.4946   34.5398   43.3688 O   0  0  0  0  0  0  0  0  0  0  0  0
   49.9414   33.1511   40.6456 O   0  0  0  0  0  0  0  0  0  0  0  0
   44.8041   36.9015   43.5924 C   0  0  0  0  0  0  0  0  0  0  0  0
   45.3276   39.2647   44.4783 C   0  0  0  0  0  0  0  0  0  0  0  0
   45.6341   39.6185   43.3062 O   0  0  0  0  0  0  0  0  0  0  0  0
   44.9065   37.9191   44.6132 N   0  0  0  0  0  0  0  0  0  0  0  0
   46.5819   35.2467   42.5830 H   0  0  0  0  0  0  0  0  0  0  0  0
   44.8971   33.7044   46.8672 H   0  0  0  0  0  0  0  0  0  0  0  0
   48.2328   34.3705   41.7647 H   0  0  0  0  0  0  0  0  0  0  0  0
   48.2497   32.1647   43.9180 H   0  0  0  0  0  0  0  0  0  0  0  0
   48.5752   30.7331   42.1572 H   0  0  0  0  0  0  0  0  0  0  0  0
   48.1252   31.3983   40.5682 H   0  0  0  0  0  0  0  0  0  0  0  0
   50.2220   32.2608   42.4819 H   0  0  0  0  0  0  0  0  0  0  0  0
   49.8065   35.3306   42.8489 H   0  0  0  0  0  0  0  0  0  0  0  0
   49.7679   32.5630   39.8689 H   0  0  0  0  0  0  0  0  0  0  0  0
   43.7937   36.8053   43.1928 H   0  0  0  0  0  0  0  0  0  0  0  0
   45.5113   37.1907   42.7853 H   0  0  0  0  0  0  0  0  0  0  0  0
   44.6287   37.6151   45.5933 H   0  0  0  0  0  0  0  0  0  0  0  0
   45.4041   40.1716   45.5910 C   0  0  0  0  0  0  0  0  0  0  0  0
   44.3727   40.4878   46.3190 C   0  0  0  0  0  0  0  0  0  0  0  0
   43.0442   39.9206   46.0346 C   0  0  0  0  0  0  0  0  0  0  0  0
   42.6513   40.1823   45.0155 H   0  0  0  0  0  0  0  0  0  0  0  0
   46.3841   40.6097   45.8254 H   0  0  0  0  0  0  0  0  0  0  0  0
   44.4661   41.1789   47.1555 H   0  0  0  0  0  0  0  0  0  0  0  0
   43.0900   38.8214   46.1666 H   0  0  0  0  0  0  0  0  0  0  0  0
   42.2658   40.3179   46.7457 H   0  0  0  0  0  0  0  0  0  0  0  0
  1  6  2  0
  2  3  2  0
  2  1  1  0
  3  4  1  0
  4  5  2  0
  6  5  1  0
  7  8  1  0
  7 12  1  0
  8  3  1  0
  9  8  1  0
 10 11  1  0
 10  9  1  0
 11  7  1  0
 13 11  1  0
 14  1  1  0
 14 17  1  0
 15 17  1  0
 16 15  2  0
  2 18  1  0
  5 19  1  0
  7 20  1  6
  8 21  1  1
 10 22  1  0
 10 23  1  0
 11 24  1  1
 12 25  1  0
 13 26  1  0
 14 27  1  0
 14 28  1  0
 17 29  1  0
 30 31  2  3
 31 32  1  0
 32 33  1  0
 30 34  1  0
 31 35  1  0
 32 36  1  0
 32 37  1  0
 15 30  1  0
M  ISO  8  18  14  19  14  20  13  21  13  22  13  23  13  24  13  25   3
M  ISO  4  26   3  27   8  28   8  33   8
M  END
>  <DihAtoms>  (1) 
16,14,29,30

>  <DihDeg>  (1) 
179.9983408123227

$$$$
