
 OpenBabel03242521173D

 33 34  0  0  0  0  0  0  0  0999 V2000
   44.4970   35.8640   44.6950 C   0  0  0  0  0  0  0  0  0  0  0  0
   45.1220   35.7900   43.4330 C   0  0  0  0  0  0  0  0  0  0  0  0
   46.0600   34.7900   43.2520 C   0  0  0  0  0  0  0  0  0  0  0  0
   46.3320   33.9360   44.2920 N   0  0  0  0  0  0  0  0  0  0  0  0
   45.7160   34.0420   45.4730 C   0  0  0  0  0  0  0  0  0  0  0  0
   44.7840   35.0120   45.6970 N   0  0  0  0  0  0  0  0  0  0  0  0
   43.7500   36.6280   44.9020 H   0  0  0  0  0  0  0  0  0  0  0  0
   44.8670   36.4860   42.6620 H   0  0  0  0  0  0  0  0  0  0  0  0
   46.7070   34.6960   41.9790 N   0  0  0  0  0  0  0  0  0  0  0  0
   47.9330   35.2420   41.8530 C   0  0  0  0  0  0  0  0  0  0  0  0
   48.5710   35.1560   40.6170 C   0  0  0  0  0  0  0  0  0  0  0  0
   47.9140   34.5210   39.6010 C   0  0  0  0  0  0  0  0  0  0  0  0
   48.5020   34.4430   38.4650 O   0  0  0  0  0  0  0  0  0  0  0  0
   46.6820   33.9700   39.7160 N   0  0  0  0  0  0  0  0  0  0  0  0
   46.1260   34.0900   40.9350 C   0  0  0  0  0  0  0  0  0  0  0  0
   44.9880   33.6160   41.1530 O   0  0  0  0  0  0  0  0  0  0  0  0
   48.4450   35.7400   42.6570 H   0  0  0  0  0  0  0  0  0  0  0  0
   49.5550   35.5910   40.5090 H   0  0  0  0  0  0  0  0  0  0  0  0
   46.1910   33.4890   38.9300 H   0  0  0  0  0  0  0  0  0  0  0  0
   46.1890   33.0020   46.4160 C   0  0  0  0  0  0  0  0  0  0  0  0
   46.2950   32.0420   45.8630 H   0  0  0  0  0  0  0  0  0  0  0  0
   47.2050   33.2310   46.7890 H   0  0  0  0  0  0  0  0  0  0  0  0
   45.2380   32.8570   47.5900 C   0  0  0  0  0  0  0  0  0  0  0  0
   44.3850   33.5420   47.4140 H   0  0  0  0  0  0  0  0  0  0  0  0
   45.7450   33.1430   48.5120 H   0  0  0  0  0  0  0  0  0  0  0  0
   45.3590   30.6230   48.5660 C   0  0  0  0  0  0  0  0  0  0  0  0
   46.2780   31.0720   49.2780 O   0  0  0  0  0  0  0  0  0  0  0  0
   44.7610   31.4920   47.6450 N   0  0  0  0  0  0  0  0  0  0  0  0
   43.9910   31.1920   47.0060 H   0  0  0  0  0  0  0  0  0  0  0  0
   44.9320   29.2350   48.7010 C   0  0  0  0  0  0  0  0  0  0  0  0
   45.0160   28.2470   47.8390 C   0  0  0  0  0  0  0  0  0  0  0  0
   44.5940   26.8490   47.9580 C   0  0  0  0  0  0  0  0  0  0  0  0
   44.1430   26.5240   47.0010 H   0  0  0  0  0  0  0  0  0  0  0  0
  1  7  1  0  0  0  0
  1  6  1  0  0  0  0
  2  1  2  0  0  0  0
  3  2  1  0  0  0  0
  3  4  2  0  0  0  0
  4  5  1  0  0  0  0
  5  6  2  0  0  0  0
  5 20  1  0  0  0  0
  8  2  1  0  0  0  0
  9  3  1  0  0  0  0
 10  9  1  0  0  0  0
 10 17  1  0  0  0  0
 11 10  2  0  0  0  0
 12 14  1  0  0  0  0
 12 11  1  0  0  0  0
 13 12  2  0  0  0  0
 14 15  1  0  0  0  0
 15 16  2  0  0  0  0
 15  9  1  0  0  0  0
 18 11  1  0  0  0  0
 19 14  1  0  0  0  0
 20 22  1  0  0  0  0
 20 23  1  0  0  0  0
 21 20  1  0  0  0  0
 23 28  1  0  0  0  0
 23 25  1  0  0  0  0
 24 23  1  0  0  0  0
 26 30  1  0  0  0  0
 26 27  2  0  0  0  0
 28 26  1  0  0  0  0
 29 28  1  0  0  0  0
 31 32  1  0  0  0  0
 31 30  2  0  0  0  0
 33 32  1  0  0  0  0
M  END
>  <minimizedAffinity>
-6.22710085

>  <minimizedRMSD>
0.366325945

$$$$
