
 OpenBabel03242510453D

 13 13  0  0  0  0  0  0  0  0999 V2000
   44.6860   35.5220   43.6070 C   0  0  0  0  0  0  0  0  0  0  0  0
   43.9350   35.4260   42.4090 C   0  0  0  0  0  0  0  0  0  0  0  0
   43.7820   34.1650   41.8310 C   0  0  0  0  0  0  0  0  0  0  0  0
   44.3580   33.1000   42.4410 N   0  0  0  0  0  0  0  0  0  0  0  0
   45.0740   33.2190   43.5900 C   0  0  0  0  0  0  0  0  0  0  0  0
   45.2240   34.4270   44.1500 N   0  0  0  0  0  0  0  0  0  0  0  0
   43.4810   36.2900   41.9360 H   0  0  0  0  0  0  0  0  0  0  0  0
   43.2180   34.0150   40.9100 H   0  0  0  0  0  0  0  0  0  0  0  0
   45.4730   32.2830   43.9590 H   0  0  0  0  0  0  0  0  0  0  0  0
   44.8480   36.8450   44.2190 C   0  0  0  0  0  0  0  0  0  0  0  0
   45.2430   37.8460   43.4450 C   0  0  0  0  0  0  0  0  0  0  0  0
   45.4310   39.2160   43.9940 C   0  0  0  0  0  0  0  0  0  0  0  0
   45.8190   39.0740   45.0450 H   0  0  0  0  0  0  0  0  0  0  0  0
  1  6  1  0  0  0  0
  1 10  1  0  0  0  0
  2  1  2  0  0  0  0
  3  2  1  0  0  0  0
  3  4  2  0  0  0  0
  4  5  1  0  0  0  0
  5  9  1  0  0  0  0
  5  6  2  0  0  0  0
  7  2  1  0  0  0  0
  8  3  1  0  0  0  0
 11 12  1  0  0  0  0
 11 10  2  0  0  0  0
 12 13  1  0  0  0  0
M  END
>  <minimizedAffinity>
-2.41300726

>  <minimizedRMSD>
1.97330117

$$$$
