
 OpenBabel03252505093D

 38 40  0  0  1  0  0  0  0  0999 V2000
   38.2870   32.8200   40.2370 C   0  0  0  0  0  0  0  0  0  0  0  0
   37.4780   32.1440   39.2920 C   0  0  0  0  0  0  0  0  0  0  0  0
   37.2380   30.7540   39.5120 C   0  0  0  0  0  0  0  0  0  0  0  0
   37.7840   30.1540   40.5970 N   0  0  0  0  0  0  0  0  0  0  0  0
   38.5450   30.8400   41.4650 C   0  0  0  0  0  0  0  0  0  0  0  0
   38.8050   32.1720   41.2990 N   0  0  0  0  0  0  0  0  0  0  0  0
   38.4880   33.8690   40.0990 H   0  0  0  0  0  0  0  0  0  0  0  0
   37.0630   32.6680   38.4390 H   0  0  0  0  0  0  0  0  0  0  0  0
   39.1210   30.1250   42.6360 C   0  0  2  0  0  0  0  0  0  0  0  0
   40.5250   29.7650   42.2380 C   0  0  0  0  0  0  0  0  0  0  0  0
   40.7720   28.3550   41.8930 C   0  0  0  0  0  0  0  0  0  0  0  0
   40.3000   27.5580   43.1110 C   0  0  0  0  0  0  0  0  0  0  0  0
   38.8590   27.6600   43.3230 C   0  0  0  0  0  0  0  0  0  0  0  0
   38.2920   29.0190   43.0600 C   0  0  0  0  0  0  0  0  0  0  0  0
   39.1530   30.8880   43.4480 H   0  0  0  0  0  0  0  0  0  0  0  0
   41.1920   30.0200   43.0980 H   0  0  0  0  0  0  0  0  0  0  0  0
   40.9080   30.4030   41.4060 H   0  0  0  0  0  0  0  0  0  0  0  0
   41.8490   28.1840   41.8340 H   0  0  0  0  0  0  0  0  0  0  0  0
   40.3130   28.0030   40.9570 H   0  0  0  0  0  0  0  0  0  0  0  0
   40.9380   27.8260   43.9520 H   0  0  0  0  0  0  0  0  0  0  0  0
   40.4840   26.4970   42.8230 H   0  0  0  0  0  0  0  0  0  0  0  0
   38.1240   26.9590   43.6260 H   0  0  0  0  0  0  0  0  0  0  0  0
   36.8890   29.2700   43.2220 N   0  0  0  0  0  0  0  0  0  0  0  0
   36.2100   28.7860   42.5910 H   0  0  0  0  0  0  0  0  0  0  0  0
   36.6380   29.9260   43.9680 H   0  0  0  0  0  0  0  0  0  0  0  0
   36.4070   30.0350   38.5580 C   0  0  0  0  0  0  0  0  0  0  0  0
   35.3330   29.3440   39.0230 C   0  0  0  0  0  0  0  0  0  0  0  0
   34.5640   28.6670   38.0620 C   0  0  0  0  0  0  0  0  0  0  0  0
   34.9750   28.7720   36.7530 C   0  0  0  0  0  0  0  0  0  0  0  0
   36.0520   29.4640   36.2850 C   0  0  0  0  0  0  0  0  0  0  0  0
   36.7650   30.1050   37.2600 N   0  0  0  0  0  0  0  0  0  0  0  0
   35.0300   29.2770   40.0600 H   0  0  0  0  0  0  0  0  0  0  0  0
   33.6970   28.0980   38.3590 H   0  0  0  0  0  0  0  0  0  0  0  0
   34.3620   28.2380   36.0320 H   0  0  0  0  0  0  0  0  0  0  0  0
   36.4680   29.5660   34.9180 C   0  0  0  0  0  3  0  0  0  0  0  0
   36.1890   30.6370   34.1950 C   0  0  0  0  0  3  0  0  0  0  0  0
   36.5680   30.8380   32.7930 C   0  0  0  0  0  2  0  0  0  0  0  0
   36.6190   29.8740   32.2100 H   0  0  0  0  0  0  0  0  0  0  0  0
  1  6  1  0  0  0  0
  2  3  1  0  0  0  0
  2  1  2  0  0  0  0
  3  4  2  0  0  0  0
  4  5  1  0  0  0  0
  5  9  1  0  0  0  0
  6  5  2  0  0  0  0
  7  1  1  0  0  0  0
  8  2  1  0  0  0  0
  9 14  1  0  0  0  0
  9 15  1  1  0  0  0
 10  9  1  0  0  0  0
 10 16  1  0  0  0  0
 11 10  1  0  0  0  0
 11 12  1  0  0  0  0
 12 13  1  0  0  0  0
 12 20  1  0  0  0  0
 13 22  1  0  0  0  0
 14 23  1  0  0  0  0
 14 13  2  0  0  0  0
 17 10  1  0  0  0  0
 18 11  1  0  0  0  0
 19 11  1  0  0  0  0
 21 12  1  0  0  0  0
 23 25  1  0  0  0  0
 24 23  1  0  0  0  0
 26 27  1  0  0  0  0
 26  3  1  0  0  0  0
 27 32  1  0  0  0  0
 28 33  1  0  0  0  0
 28 27  2  0  0  0  0
 29 28  1  0  0  0  0
 30 29  2  0  0  0  0
 30 31  1  0  0  0  0
 31 26  2  0  0  0  0
 34 29  1  0  0  0  0
 35 30  1  0  0  0  0
 36 35  2  0  0  0  0
 37 36  1  0  0  0  0
 38 37  1  0  0  0  0
M  END
>  <minimizedAffinity>
-6.18255281

$$$$

 OpenBabel03252505093D

 38 40  0  0  1  0  0  0  0  0999 V2000
   37.3600   32.3850   39.9800 C   0  0  0  0  0  0  0  0  0  0  0  0
   37.0550   31.2130   40.7120 C   0  0  0  0  0  0  0  0  0  0  0  0
   38.1120   30.2730   40.9120 C   0  0  0  0  0  0  0  0  0  0  0  0
   39.3380   30.5410   40.4020 N   0  0  0  0  0  0  0  0  0  0  0  0
   39.5770   31.6690   39.7140 C   0  0  0  0  0  0  0  0  0  0  0  0
   38.5990   32.6000   39.4950 N   0  0  0  0  0  0  0  0  0  0  0  0
   36.5850   33.1140   39.8100 H   0  0  0  0  0  0  0  0  0  0  0  0
   36.0580   31.0420   41.1000 H   0  0  0  0  0  0  0  0  0  0  0  0
   40.9440   31.9060   39.1760 C   0  0  2  0  0  0  0  0  0  0  0  0
   41.7250   32.5060   40.3110 C   0  0  0  0  0  0  0  0  0  0  0  0
   41.9920   33.9520   40.2360 C   0  0  0  0  0  0  0  0  0  0  0  0
   42.6860   34.1610   38.8890 C   0  0  0  0  0  0  0  0  0  0  0  0
   41.8120   33.8680   37.7570 C   0  0  0  0  0  0  0  0  0  0  0  0
   40.9210   32.6820   37.9570 C   0  0  0  0  0  0  0  0  0  0  0  0
   41.3420   30.8890   38.9520 H   0  0  0  0  0  0  0  0  0  0  0  0
   42.7140   31.9860   40.3480 H   0  0  0  0  0  0  0  0  0  0  0  0
   41.2720   32.2830   41.3060 H   0  0  0  0  0  0  0  0  0  0  0  0
   42.7350   34.2190   40.9900 H   0  0  0  0  0  0  0  0  0  0  0  0
   41.1170   34.6080   40.3640 H   0  0  0  0  0  0  0  0  0  0  0  0
   43.6390   33.6340   38.9200 H   0  0  0  0  0  0  0  0  0  0  0  0
   42.8650   35.2610   38.8490 H   0  0  0  0  0  0  0  0  0  0  0  0
   41.6770   34.3290   36.8130 H   0  0  0  0  0  0  0  0  0  0  0  0
   40.0040   32.2760   36.9320 N   0  0  0  0  0  0  0  0  0  0  0  0
   39.2180   32.9130   36.6720 H   0  0  0  0  0  0  0  0  0  0  0  0
   40.1870   31.3600   36.5100 H   0  0  0  0  0  0  0  0  0  0  0  0
   37.8270   29.0600   41.6640 C   0  0  0  0  0  0  0  0  0  0  0  0
   37.5420   29.1700   42.9880 C   0  0  0  0  0  0  0  0  0  0  0  0
   37.2750   27.9700   43.6690 C   0  0  0  0  0  0  0  0  0  0  0  0
   37.3280   26.8110   42.9280 C   0  0  0  0  0  0  0  0  0  0  0  0
   37.6140   26.7010   41.6000 C   0  0  0  0  0  0  0  0  0  0  0  0
   37.8660   27.8960   40.9860 N   0  0  0  0  0  0  0  0  0  0  0  0
   37.5050   30.0950   43.5500 H   0  0  0  0  0  0  0  0  0  0  0  0
   37.0410   27.9800   44.7220 H   0  0  0  0  0  0  0  0  0  0  0  0
   37.1180   25.8990   43.4800 H   0  0  0  0  0  0  0  0  0  0  0  0
   37.6670   25.4870   40.8400 C   0  0  0  0  0  3  0  0  0  0  0  0
   36.5730   24.7900   40.5880 C   0  0  0  0  0  3  0  0  0  0  0  0
   36.5190   23.5390   39.8240 C   0  0  0  0  0  2  0  0  0  0  0  0
   37.4590   22.9250   39.9220 H   0  0  0  0  0  0  0  0  0  0  0  0
  1  2  1  0  0  0  0
  2  3  2  0  0  0  0
  2  8  1  0  0  0  0
  3 26  1  0  0  0  0
  4  3  1  0  0  0  0
  5  4  2  0  0  0  0
  6  5  1  0  0  0  0
  6  1  2  0  0  0  0
  7  1  1  0  0  0  0
  9 15  1  6  0  0  0
  9  5  1  0  0  0  0
  9 10  1  0  0  0  0
 10 16  1  0  0  0  0
 10 17  1  0  0  0  0
 11 10  1  0  0  0  0
 11 19  1  0  0  0  0
 11 18  1  0  0  0  0
 12 20  1  0  0  0  0
 12 11  1  0  0  0  0
 13 14  2  0  0  0  0
 13 12  1  0  0  0  0
 14  9  1  0  0  0  0
 21 12  1  0  0  0  0
 22 13  1  0  0  0  0
 23 14  1  0  0  0  0
 24 23  1  0  0  0  0
 25 23  1  0  0  0  0
 26 27  1  0  0  0  0
 27 32  1  0  0  0  0
 27 28  2  0  0  0  0
 28 33  1  0  0  0  0
 29 34  1  0  0  0  0
 29 28  1  0  0  0  0
 30 29  2  0  0  0  0
 31 30  1  0  0  0  0
 31 26  2  0  0  0  0
 35 30  1  0  0  0  0
 36 35  2  0  0  0  0
 37 38  1  0  0  0  0
 37 36  1  0  0  0  0
M  END
>  <minimizedAffinity>
-6.03646135

$$$$

 OpenBabel03252505093D

 38 40  0  0  1  0  0  0  0  0999 V2000
   35.9240   29.2900   37.7170 C   0  0  0  0  0  0  0  0  0  0  0  0
   36.0500   28.5470   38.9150 C   0  0  0  0  0  0  0  0  0  0  0  0
   36.9160   29.0710   39.9210 C   0  0  0  0  0  0  0  0  0  0  0  0
   37.5680   30.2360   39.6890 N   0  0  0  0  0  0  0  0  0  0  0  0
   37.4140   30.9040   38.5350 C   0  0  0  0  0  0  0  0  0  0  0  0
   36.5960   30.4440   37.5400 N   0  0  0  0  0  0  0  0  0  0  0  0
   35.2780   28.9210   36.9370 H   0  0  0  0  0  0  0  0  0  0  0  0
   35.5080   27.6190   39.0540 H   0  0  0  0  0  0  0  0  0  0  0  0
   38.1590   32.1770   38.3370 C   0  0  2  0  0  0  0  0  0  0  0  0
   39.4920   31.7790   37.7680 C   0  0  0  0  0  0  0  0  0  0  0  0
   40.6440   31.8350   38.6840 C   0  0  0  0  0  0  0  0  0  0  0  0
   40.6550   33.2670   39.2240 C   0  0  0  0  0  0  0  0  0  0  0  0
   39.4870   33.5640   40.0480 C   0  0  0  0  0  0  0  0  0  0  0  0
   38.2100   32.9710   39.5430 C   0  0  0  0  0  0  0  0  0  0  0  0
   37.5780   32.7290   37.5620 H   0  0  0  0  0  0  0  0  0  0  0  0
   39.7100   32.4680   36.9150 H   0  0  0  0  0  0  0  0  0  0  0  0
   39.4680   30.7690   37.2930 H   0  0  0  0  0  0  0  0  0  0  0  0
   41.5650   31.7350   38.1070 H   0  0  0  0  0  0  0  0  0  0  0  0
   40.6530   31.0830   39.4880 H   0  0  0  0  0  0  0  0  0  0  0  0
   40.8460   33.9360   38.3860 H   0  0  0  0  0  0  0  0  0  0  0  0
   41.5240   33.2810   39.9220 H   0  0  0  0  0  0  0  0  0  0  0  0
   39.3590   34.1180   40.9410 H   0  0  0  0  0  0  0  0  0  0  0  0
   36.9800   33.1750   40.2520 N   0  0  0  0  0  0  0  0  0  0  0  0
   36.8720   32.7710   41.2100 H   0  0  0  0  0  0  0  0  0  0  0  0
   36.2660   33.7190   39.7570 H   0  0  0  0  0  0  0  0  0  0  0  0
   37.0620   28.3290   41.1650 C   0  0  0  0  0  0  0  0  0  0  0  0
   37.1760   29.0250   42.3260 C   0  0  0  0  0  0  0  0  0  0  0  0
   37.3160   28.2620   43.4990 C   0  0  0  0  0  0  0  0  0  0  0  0
   37.3230   26.8940   43.3510 C   0  0  0  0  0  0  0  0  0  0  0  0
   37.2090   26.1950   42.1860 C   0  0  0  0  0  0  0  0  0  0  0  0
   37.0750   26.9840   41.0770 N   0  0  0  0  0  0  0  0  0  0  0  0
   37.1680   30.1040   42.4170 H   0  0  0  0  0  0  0  0  0  0  0  0
   37.4110   28.7480   44.4570 H   0  0  0  0  0  0  0  0  0  0  0  0
   37.4320   26.3300   44.2740 H   0  0  0  0  0  0  0  0  0  0  0  0
   37.2180   24.7690   42.0470 C   0  0  0  0  0  3  0  0  0  0  0  0
   37.6700   24.1920   40.9470 C   0  0  0  0  0  3  0  0  0  0  0  0
   37.7210   22.7470   40.7050 C   0  0  0  0  0  2  0  0  0  0  0  0
   36.8950   22.1850   41.2290 H   0  0  0  0  0  0  0  0  0  0  0  0
  1  2  1  0  0  0  0
  2  8  1  0  0  0  0
  2  3  2  0  0  0  0
  3 26  1  0  0  0  0
  4  3  1  0  0  0  0
  5  4  2  0  0  0  0
  6  1  2  0  0  0  0
  6  5  1  0  0  0  0
  7  1  1  0  0  0  0
  9 15  1  6  0  0  0
  9  5  1  0  0  0  0
  9 14  1  0  0  0  0
 10  9  1  0  0  0  0
 10 11  1  0  0  0  0
 11 12  1  0  0  0  0
 11 19  1  0  0  0  0
 12 21  1  0  0  0  0
 12 13  1  0  0  0  0
 13 22  1  0  0  0  0
 14 13  2  0  0  0  0
 14 23  1  0  0  0  0
 16 10  1  0  0  0  0
 17 10  1  0  0  0  0
 18 11  1  0  0  0  0
 20 12  1  0  0  0  0
 23 24  1  0  0  0  0
 25 23  1  0  0  0  0
 26 27  1  0  0  0  0
 27 32  1  0  0  0  0
 27 28  2  0  0  0  0
 28 33  1  0  0  0  0
 29 28  1  0  0  0  0
 29 34  1  0  0  0  0
 30 29  2  0  0  0  0
 31 26  2  0  0  0  0
 31 30  1  0  0  0  0
 35 30  1  0  0  0  0
 36 35  2  0  0  0  0
 37 36  1  0  0  0  0
 37 38  1  0  0  0  0
M  END
>  <minimizedAffinity>
-5.98724318

$$$$

 OpenBabel03252505093D

 38 40  0  0  1  0  0  0  0  0999 V2000
   36.5340   29.2540   37.8700 C   0  0  0  0  0  0  0  0  0  0  0  0
   36.6780   28.5590   39.0940 C   0  0  0  0  0  0  0  0  0  0  0  0
   37.4500   29.1890   40.1170 C   0  0  0  0  0  0  0  0  0  0  0  0
   38.0000   30.4040   39.8740 N   0  0  0  0  0  0  0  0  0  0  0  0
   37.8340   31.0220   38.6950 C   0  0  0  0  0  0  0  0  0  0  0  0
   37.1040   30.4610   37.6830 N   0  0  0  0  0  0  0  0  0  0  0  0
   35.9580   28.8060   37.0770 H   0  0  0  0  0  0  0  0  0  0  0  0
   36.2190   27.5890   39.2410 H   0  0  0  0  0  0  0  0  0  0  0  0
   38.4660   32.3530   38.4870 C   0  0  2  0  0  0  0  0  0  0  0  0
   39.9120   32.0700   38.1870 C   0  0  0  0  0  0  0  0  0  0  0  0
   40.8750   32.3430   39.2660 C   0  0  0  0  0  0  0  0  0  0  0  0
   40.6440   33.8080   39.6460 C   0  0  0  0  0  0  0  0  0  0  0  0
   39.3270   34.0330   40.2340 C   0  0  0  0  0  0  0  0  0  0  0  0
   38.2240   33.2500   39.5940 C   0  0  0  0  0  0  0  0  0  0  0  0
   37.9740   32.7620   37.5730 H   0  0  0  0  0  0  0  0  0  0  0  0
   40.2020   32.7040   37.3120 H   0  0  0  0  0  0  0  0  0  0  0  0
   40.0750   31.0280   37.8240 H   0  0  0  0  0  0  0  0  0  0  0  0
   41.8870   32.3050   38.8600 H   0  0  0  0  0  0  0  0  0  0  0  0
   40.8230   31.6700   40.1360 H   0  0  0  0  0  0  0  0  0  0  0  0
   40.9070   34.4200   38.7840 H   0  0  0  0  0  0  0  0  0  0  0  0
   41.3730   33.9870   40.4710 H   0  0  0  0  0  0  0  0  0  0  0  0
   38.9890   34.6440   41.0310 H   0  0  0  0  0  0  0  0  0  0  0  0
   36.8760   33.3650   40.0680 N   0  0  0  0  0  0  0  0  0  0  0  0
   36.6460   33.0360   41.0330 H   0  0  0  0  0  0  0  0  0  0  0  0
   36.2060   33.7750   39.4100 H   0  0  0  0  0  0  0  0  0  0  0  0
   37.6120   28.4980   41.3880 C   0  0  0  0  0  0  0  0  0  0  0  0
   36.5020   28.0350   42.0200 C   0  0  0  0  0  0  0  0  0  0  0  0
   36.7120   27.3750   43.2430 C   0  0  0  0  0  0  0  0  0  0  0  0
   38.0150   27.2670   43.6740 C   0  0  0  0  0  0  0  0  0  0  0  0
   39.1280   27.7330   43.0400 C   0  0  0  0  0  0  0  0  0  0  0  0
   38.8690   28.3650   41.8560 N   0  0  0  0  0  0  0  0  0  0  0  0
   35.4860   28.1310   41.6600 H   0  0  0  0  0  0  0  0  0  0  0  0
   35.8770   26.9800   43.8010 H   0  0  0  0  0  0  0  0  0  0  0  0
   38.1470   26.7540   44.6230 H   0  0  0  0  0  0  0  0  0  0  0  0
   40.4800   27.6140   43.5010 C   0  0  0  0  0  3  0  0  0  0  0  0
   41.4590   28.2950   42.9310 C   0  0  0  0  0  3  0  0  0  0  0  0
   42.8710   28.2430   43.3240 C   0  0  0  0  0  2  0  0  0  0  0  0
   43.1730   27.2400   43.7430 H   0  0  0  0  0  0  0  0  0  0  0  0
  1  2  1  0  0  0  0
  2  8  1  0  0  0  0
  2  3  2  0  0  0  0
  3 26  1  0  0  0  0
  4  3  1  0  0  0  0
  5  4  2  0  0  0  0
  6  1  2  0  0  0  0
  6  5  1  0  0  0  0
  7  1  1  0  0  0  0
  9 15  1  6  0  0  0
  9  5  1  0  0  0  0
  9 14  1  0  0  0  0
 10  9  1  0  0  0  0
 10 11  1  0  0  0  0
 11 12  1  0  0  0  0
 11 19  1  0  0  0  0
 12 13  1  0  0  0  0
 12 21  1  0  0  0  0
 13 22  1  0  0  0  0
 14 23  1  0  0  0  0
 14 13  2  0  0  0  0
 16 10  1  0  0  0  0
 17 10  1  0  0  0  0
 18 11  1  0  0  0  0
 20 12  1  0  0  0  0
 23 24  1  0  0  0  0
 25 23  1  0  0  0  0
 26 31  2  0  0  0  0
 26 27  1  0  0  0  0
 27 28  2  0  0  0  0
 28 29  1  0  0  0  0
 28 33  1  0  0  0  0
 29 34  1  0  0  0  0
 30 35  1  0  0  0  0
 30 29  2  0  0  0  0
 31 30  1  0  0  0  0
 32 27  1  0  0  0  0
 36 37  1  0  0  0  0
 36 35  2  0  0  0  0
 37 38  1  0  0  0  0
M  END
>  <minimizedAffinity>
-5.83155012

$$$$

 OpenBabel03252505093D

 38 40  0  0  1  0  0  0  0  0999 V2000
   35.3940   27.6900   37.6580 C   0  0  0  0  0  0  0  0  0  0  0  0
   35.9380   26.7920   38.6080 C   0  0  0  0  0  0  0  0  0  0  0  0
   36.7170   27.3530   39.6660 C   0  0  0  0  0  0  0  0  0  0  0  0
   36.8970   28.6950   39.7130 N   0  0  0  0  0  0  0  0  0  0  0  0
   36.3590   29.5040   38.7870 C   0  0  0  0  0  0  0  0  0  0  0  0
   35.6060   29.0170   37.7540 N   0  0  0  0  0  0  0  0  0  0  0  0
   34.8020   27.2990   36.8470 H   0  0  0  0  0  0  0  0  0  0  0  0
   35.7670   25.7260   38.5280 H   0  0  0  0  0  0  0  0  0  0  0  0
   36.5950   30.9700   38.8900 C   0  0  2  0  0  0  0  0  0  0  0  0
   37.7540   31.2560   37.9770 C   0  0  0  0  0  0  0  0  0  0  0  0
   39.0530   31.5120   38.6190 C   0  0  0  0  0  0  0  0  0  0  0  0
   38.7960   32.6610   39.5970 C   0  0  0  0  0  0  0  0  0  0  0  0
   37.8930   32.2830   40.6800 C   0  0  0  0  0  0  0  0  0  0  0  0
   36.7620   31.3990   40.2600 C   0  0  0  0  0  0  0  0  0  0  0  0
   35.6720   31.4360   38.4720 H   0  0  0  0  0  0  0  0  0  0  0  0
   37.4920   32.1650   37.3800 H   0  0  0  0  0  0  0  0  0  0  0  0
   37.8930   30.4630   37.2040 H   0  0  0  0  0  0  0  0  0  0  0  0
   39.7470   31.9120   37.8780 H   0  0  0  0  0  0  0  0  0  0  0  0
   39.5260   30.6450   39.1060 H   0  0  0  0  0  0  0  0  0  0  0  0
   38.5200   33.5390   39.0130 H   0  0  0  0  0  0  0  0  0  0  0  0
   39.7870   32.8270   40.0790 H   0  0  0  0  0  0  0  0  0  0  0  0
   37.8760   32.5090   41.7150 H   0  0  0  0  0  0  0  0  0  0  0  0
   35.7960   30.9430   41.2170 N   0  0  0  0  0  0  0  0  0  0  0  0
   36.1040   30.3050   41.9850 H   0  0  0  0  0  0  0  0  0  0  0  0
   34.8390   31.2840   41.0810 H   0  0  0  0  0  0  0  0  0  0  0  0
   37.2860   26.4530   40.6590 C   0  0  0  0  0  0  0  0  0  0  0  0
   36.8140   25.1800   40.7270 C   0  0  0  0  0  0  0  0  0  0  0  0
   37.3960   24.3520   41.7020 C   0  0  0  0  0  0  0  0  0  0  0  0
   38.3800   24.9120   42.4850 C   0  0  0  0  0  0  0  0  0  0  0  0
   38.8530   26.1890   42.4170 C   0  0  0  0  0  0  0  0  0  0  0  0
   38.2540   26.9510   41.4520 N   0  0  0  0  0  0  0  0  0  0  0  0
   36.0380   24.7620   40.0980 H   0  0  0  0  0  0  0  0  0  0  0  0
   37.0710   23.3290   41.8140 H   0  0  0  0  0  0  0  0  0  0  0  0
   38.8110   24.2490   43.2300 H   0  0  0  0  0  0  0  0  0  0  0  0
   39.8790   26.7590   43.2390 C   0  0  0  0  0  3  0  0  0  0  0  0
   40.8080   27.5460   42.7250 C   0  0  0  0  0  3  0  0  0  0  0  0
   41.8980   28.1770   43.4760 C   0  0  0  0  0  2  0  0  0  0  0  0
   42.2340   27.5630   44.3610 H   0  0  0  0  0  0  0  0  0  0  0  0
  1  6  2  0  0  0  0
  1  2  1  0  0  0  0
  2  3  2  0  0  0  0
  3  4  1  0  0  0  0
  3 26  1  0  0  0  0
  5  9  1  0  0  0  0
  5  4  2  0  0  0  0
  6  5  1  0  0  0  0
  7  1  1  0  0  0  0
  8  2  1  0  0  0  0
  9 15  1  6  0  0  0
  9 14  1  0  0  0  0
 10 11  1  0  0  0  0
 10  9  1  0  0  0  0
 11 19  1  0  0  0  0
 11 12  1  0  0  0  0
 12 21  1  0  0  0  0
 12 13  1  0  0  0  0
 13 22  1  0  0  0  0
 14 13  2  0  0  0  0
 14 23  1  0  0  0  0
 16 10  1  0  0  0  0
 17 10  1  0  0  0  0
 18 11  1  0  0  0  0
 20 12  1  0  0  0  0
 23 24  1  0  0  0  0
 25 23  1  0  0  0  0
 26 27  2  0  0  0  0
 26 31  1  0  0  0  0
 27 28  1  0  0  0  0
 28 33  1  0  0  0  0
 28 29  2  0  0  0  0
 29 34  1  0  0  0  0
 30 29  1  0  0  0  0
 30 35  1  0  0  0  0
 31 30  2  0  0  0  0
 32 27  1  0  0  0  0
 36 35  2  0  0  0  0
 36 37  1  0  0  0  0
 37 38  1  0  0  0  0
M  END
>  <minimizedAffinity>
-5.79565048

$$$$

 OpenBabel03252505093D

 38 40  0  0  1  0  0  0  0  0999 V2000
   39.2850   31.1600   41.9700 C   0  0  0  0  0  0  0  0  0  0  0  0
   39.5440   29.8490   42.4370 C   0  0  0  0  0  0  0  0  0  0  0  0
   38.7250   28.7980   41.9240 C   0  0  0  0  0  0  0  0  0  0  0  0
   37.7530   29.0960   41.0280 N   0  0  0  0  0  0  0  0  0  0  0  0
   37.5470   30.3570   40.6160 C   0  0  0  0  0  0  0  0  0  0  0  0
   38.3040   31.3980   41.0770 N   0  0  0  0  0  0  0  0  0  0  0  0
   39.8850   31.9750   42.3370 H   0  0  0  0  0  0  0  0  0  0  0  0
   40.3330   29.6600   43.1550 H   0  0  0  0  0  0  0  0  0  0  0  0
   36.4610   30.6220   39.6330 C   0  0  2  0  0  0  0  0  0  0  0  0
   35.3500   29.6770   39.9950 C   0  0  0  0  0  0  0  0  0  0  0  0
   35.1680   28.5070   39.1210 C   0  0  0  0  0  0  0  0  0  0  0  0
   34.9940   29.0840   37.7140 C   0  0  0  0  0  0  0  0  0  0  0  0
   36.2000   29.7490   37.2280 C   0  0  0  0  0  0  0  0  0  0  0  0
   36.9300   30.5370   38.2690 C   0  0  0  0  0  0  0  0  0  0  0  0
   36.1380   31.6690   39.8430 H   0  0  0  0  0  0  0  0  0  0  0  0
   34.3960   30.2600   39.9770 H   0  0  0  0  0  0  0  0  0  0  0  0
   35.4210   29.3200   41.0500 H   0  0  0  0  0  0  0  0  0  0  0  0
   34.2160   28.0280   39.3570 H   0  0  0  0  0  0  0  0  0  0  0  0
   35.9610   27.7460   39.1670 H   0  0  0  0  0  0  0  0  0  0  0  0
   34.0750   29.6690   37.7060 H   0  0  0  0  0  0  0  0  0  0  0  0
   34.8710   28.1820   37.0690 H   0  0  0  0  0  0  0  0  0  0  0  0
   36.6690   29.7860   36.2790 H   0  0  0  0  0  0  0  0  0  0  0  0
   38.1350   31.2420   37.9400 N   0  0  0  0  0  0  0  0  0  0  0  0
   38.9810   30.6970   37.6570 H   0  0  0  0  0  0  0  0  0  0  0  0
   38.0860   32.2630   38.0060 H   0  0  0  0  0  0  0  0  0  0  0  0
   38.9720   27.4390   42.3850 C   0  0  0  0  0  0  0  0  0  0  0  0
   39.9850   27.2270   43.2650 C   0  0  0  0  0  0  0  0  0  0  0  0
   40.1830   25.8990   43.6800 C   0  0  0  0  0  0  0  0  0  0  0  0
   39.3330   24.9530   43.1530 C   0  0  0  0  0  0  0  0  0  0  0  0
   38.3170   25.1650   42.2700 C   0  0  0  0  0  0  0  0  0  0  0  0
   38.1670   26.4730   41.9010 N   0  0  0  0  0  0  0  0  0  0  0  0
   40.6410   27.9900   43.6660 H   0  0  0  0  0  0  0  0  0  0  0  0
   40.9690   25.6560   44.3770 H   0  0  0  0  0  0  0  0  0  0  0  0
   39.5100   23.9350   43.4910 H   0  0  0  0  0  0  0  0  0  0  0  0
   37.4390   24.1690   41.7300 C   0  0  0  0  0  3  0  0  0  0  0  0
   36.7650   24.3850   40.6140 C   0  0  0  0  0  3  0  0  0  0  0  0
   35.8440   23.4360   39.9800 C   0  0  0  0  0  2  0  0  0  0  0  0
   35.3250   22.7650   40.7240 H   0  0  0  0  0  0  0  0  0  0  0  0
  1  7  1  0  0  0  0
  1  2  1  0  0  0  0
  2  8  1  0  0  0  0
  3 26  1  0  0  0  0
  3  2  2  0  0  0  0
  4  3  1  0  0  0  0
  5  4  2  0  0  0  0
  5  6  1  0  0  0  0
  6  1  2  0  0  0  0
  9 15  1  1  0  0  0
  9 10  1  0  0  0  0
  9  5  1  0  0  0  0
 10 17  1  0  0  0  0
 11 19  1  0  0  0  0
 11 18  1  0  0  0  0
 11 10  1  0  0  0  0
 12 11  1  0  0  0  0
 13 12  1  0  0  0  0
 13 14  2  0  0  0  0
 14  9  1  0  0  0  0
 16 10  1  0  0  0  0
 20 12  1  0  0  0  0
 21 12  1  0  0  0  0
 22 13  1  0  0  0  0
 23 25  1  0  0  0  0
 23 14  1  0  0  0  0
 24 23  1  0  0  0  0
 26 27  1  0  0  0  0
 27 32  1  0  0  0  0
 27 28  2  0  0  0  0
 28 33  1  0  0  0  0
 29 34  1  0  0  0  0
 29 28  1  0  0  0  0
 30 29  2  0  0  0  0
 31 30  1  0  0  0  0
 31 26  2  0  0  0  0
 35 30  1  0  0  0  0
 36 35  2  0  0  0  0
 37 36  1  0  0  0  0
 37 38  1  0  0  0  0
M  END
>  <minimizedAffinity>
-5.77512646

$$$$

 OpenBabel03252505093D

 38 40  0  0  1  0  0  0  0  0999 V2000
   36.3470   26.2540   39.4110 C   0  0  0  0  0  0  0  0  0  0  0  0
   37.3740   26.1010   40.3720 C   0  0  0  0  0  0  0  0  0  0  0  0
   37.9870   27.2910   40.8690 C   0  0  0  0  0  0  0  0  0  0  0  0
   37.5660   28.4930   40.4050 N   0  0  0  0  0  0  0  0  0  0  0  0
   36.5870   28.5840   39.4920 C   0  0  0  0  0  0  0  0  0  0  0  0
   35.9680   27.4750   38.9850 N   0  0  0  0  0  0  0  0  0  0  0  0
   35.8640   25.3750   39.0160 H   0  0  0  0  0  0  0  0  0  0  0  0
   37.6770   25.1180   40.7120 H   0  0  0  0  0  0  0  0  0  0  0  0
   36.1700   29.9320   39.0180 C   0  0  2  0  0  0  0  0  0  0  0  0
   36.9150   30.1560   37.7320 C   0  0  0  0  0  0  0  0  0  0  0  0
   38.0580   31.0820   37.7830 C   0  0  0  0  0  0  0  0  0  0  0  0
   37.4900   32.3850   38.3510 C   0  0  0  0  0  0  0  0  0  0  0  0
   37.0400   32.2450   39.7330 C   0  0  0  0  0  0  0  0  0  0  0  0
   36.3580   30.9470   40.0300 C   0  0  0  0  0  0  0  0  0  0  0  0
   35.0810   29.8330   38.8000 H   0  0  0  0  0  0  0  0  0  0  0  0
   36.1850   30.5660   36.9900 H   0  0  0  0  0  0  0  0  0  0  0  0
   37.2560   29.2010   37.2660 H   0  0  0  0  0  0  0  0  0  0  0  0
   38.3710   31.3210   36.7650 H   0  0  0  0  0  0  0  0  0  0  0  0
   38.9370   30.7270   38.3440 H   0  0  0  0  0  0  0  0  0  0  0  0
   36.7640   32.7700   37.6360 H   0  0  0  0  0  0  0  0  0  0  0  0
   38.3740   33.0640   38.3930 H   0  0  0  0  0  0  0  0  0  0  0  0
   37.1000   32.8810   40.5770 H   0  0  0  0  0  0  0  0  0  0  0  0
   35.8660   30.6650   41.3470 N   0  0  0  0  0  0  0  0  0  0  0  0
   36.5460   30.5710   42.1350 H   0  0  0  0  0  0  0  0  0  0  0  0
   34.8480   30.5730   41.4310 H   0  0  0  0  0  0  0  0  0  0  0  0
   39.0440   27.1640   41.8610 C   0  0  0  0  0  0  0  0  0  0  0  0
   38.9960   26.1200   42.7290 C   0  0  0  0  0  0  0  0  0  0  0  0
   40.0400   26.0420   43.6680 C   0  0  0  0  0  0  0  0  0  0  0  0
   40.9990   27.0270   43.6120 C   0  0  0  0  0  0  0  0  0  0  0  0
   41.0470   28.0750   42.7420 C   0  0  0  0  0  0  0  0  0  0  0  0
   40.0100   28.1040   41.8500 N   0  0  0  0  0  0  0  0  0  0  0  0
   38.2300   25.3560   42.7530 H   0  0  0  0  0  0  0  0  0  0  0  0
   40.0670   25.2400   44.3880 H   0  0  0  0  0  0  0  0  0  0  0  0
   41.7920   26.9420   44.3500 H   0  0  0  0  0  0  0  0  0  0  0  0
   42.0530   29.0950   42.6940 C   0  0  0  0  0  3  0  0  0  0  0  0
   41.7860   30.3360   43.0630 C   0  0  0  0  0  3  0  0  0  0  0  0
   42.7400   31.4500   43.0510 C   0  0  0  0  0  2  0  0  0  0  0  0
   43.5170   31.3540   42.2390 H   0  0  0  0  0  0  0  0  0  0  0  0
  1  2  1  0  0  0  0
  2  8  1  0  0  0  0
  2  3  2  0  0  0  0
  3 26  1  0  0  0  0
  4  3  1  0  0  0  0
  5  4  2  0  0  0  0
  6  1  2  0  0  0  0
  6  5  1  0  0  0  0
  7  1  1  0  0  0  0
  9 15  1  6  0  0  0
  9  5  1  0  0  0  0
  9 14  1  0  0  0  0
 10 11  1  0  0  0  0
 10  9  1  0  0  0  0
 11 19  1  0  0  0  0
 11 12  1  0  0  0  0
 12 21  1  0  0  0  0
 12 13  1  0  0  0  0
 13 14  2  0  0  0  0
 13 22  1  0  0  0  0
 14 23  1  0  0  0  0
 16 10  1  0  0  0  0
 17 10  1  0  0  0  0
 18 11  1  0  0  0  0
 20 12  1  0  0  0  0
 23 25  1  0  0  0  0
 23 24  1  0  0  0  0
 26 27  1  0  0  0  0
 27 32  1  0  0  0  0
 27 28  2  0  0  0  0
 28 33  1  0  0  0  0
 29 28  1  0  0  0  0
 29 34  1  0  0  0  0
 30 29  2  0  0  0  0
 31 26  2  0  0  0  0
 31 30  1  0  0  0  0
 35 30  1  0  0  0  0
 35 36  2  0  0  0  0
 37 36  1  0  0  0  0
 38 37  1  0  0  0  0
M  END
>  <minimizedAffinity>
-5.72259521

$$$$

 OpenBabel03252505093D

 38 40  0  0  1  0  0  0  0  0999 V2000
   39.9550   25.2770   43.5660 C   0  0  0  0  0  0  0  0  0  0  0  0
   39.4620   24.3260   42.6410 C   0  0  0  0  0  0  0  0  0  0  0  0
   38.3470   24.7140   41.8360 C   0  0  0  0  0  0  0  0  0  0  0  0
   37.8210   25.9530   41.9920 N   0  0  0  0  0  0  0  0  0  0  0  0
   38.3250   26.8180   42.8850 C   0  0  0  0  0  0  0  0  0  0  0  0
   39.3910   26.4960   43.6790 N   0  0  0  0  0  0  0  0  0  0  0  0
   40.7950   25.0150   44.1880 H   0  0  0  0  0  0  0  0  0  0  0  0
   39.9160   23.3470   42.5520 H   0  0  0  0  0  0  0  0  0  0  0  0
   37.7020   28.1640   43.0120 C   0  0  2  0  0  0  0  0  0  0  0  0
   36.3150   28.0190   42.4510 C   0  0  0  0  0  0  0  0  0  0  0  0
   36.0800   28.5930   41.1160 C   0  0  0  0  0  0  0  0  0  0  0  0
   36.5020   30.0590   41.2310 C   0  0  0  0  0  0  0  0  0  0  0  0
   37.9330   30.2130   41.4750 C   0  0  0  0  0  0  0  0  0  0  0  0
   38.5110   29.1980   42.4100 C   0  0  0  0  0  0  0  0  0  0  0  0
   37.6380   28.3450   44.1110 H   0  0  0  0  0  0  0  0  0  0  0  0
   35.6130   28.5260   43.1600 H   0  0  0  0  0  0  0  0  0  0  0  0
   35.9660   26.9590   42.4460 H   0  0  0  0  0  0  0  0  0  0  0  0
   35.0060   28.6140   40.9190 H   0  0  0  0  0  0  0  0  0  0  0  0
   36.5760   28.0770   40.2790 H   0  0  0  0  0  0  0  0  0  0  0  0
   35.8300   30.5440   41.9390 H   0  0  0  0  0  0  0  0  0  0  0  0
   36.3280   30.4670   40.2080 H   0  0  0  0  0  0  0  0  0  0  0  0
   38.6540   30.9030   41.1190 H   0  0  0  0  0  0  0  0  0  0  0  0
   39.9070   29.2210   42.7400 N   0  0  0  0  0  0  0  0  0  0  0  0
   40.6100   29.0350   41.9890 H   0  0  0  0  0  0  0  0  0  0  0  0
   40.1290   29.4240   43.7200 H   0  0  0  0  0  0  0  0  0  0  0  0
   37.8220   23.7570   40.8730 C   0  0  0  0  0  0  0  0  0  0  0  0
   38.6400   22.7670   40.4300 C   0  0  0  0  0  0  0  0  0  0  0  0
   38.0850   21.8690   39.5020 C   0  0  0  0  0  0  0  0  0  0  0  0
   36.7750   22.0850   39.1380 C   0  0  0  0  0  0  0  0  0  0  0  0
   35.9540   23.0790   39.5810 C   0  0  0  0  0  0  0  0  0  0  0  0
   36.5420   23.9230   40.4820 N   0  0  0  0  0  0  0  0  0  0  0  0
   39.6680   22.6180   40.7330 H   0  0  0  0  0  0  0  0  0  0  0  0
   38.6760   21.0580   39.1070 H   0  0  0  0  0  0  0  0  0  0  0  0
   36.3730   21.3760   38.4180 H   0  0  0  0  0  0  0  0  0  0  0  0
   34.5910   23.2920   39.1940 C   0  0  0  0  0  3  0  0  0  0  0  0
   33.6110   22.5800   39.7220 C   0  0  0  0  0  3  0  0  0  0  0  0
   32.1880   22.7180   39.3940 C   0  0  0  0  0  2  0  0  0  0  0  0
   32.0140   23.0480   38.3290 H   0  0  0  0  0  0  0  0  0  0  0  0
  1  6  1  0  0  0  0
  1  7  1  0  0  0  0
  2  1  2  0  0  0  0
  3  4  2  0  0  0  0
  3  2  1  0  0  0  0
  4  5  1  0  0  0  0
  5  9  1  0  0  0  0
  5  6  2  0  0  0  0
  8  2  1  0  0  0  0
  9 15  1  1  0  0  0
 10  9  1  0  0  0  0
 10 16  1  0  0  0  0
 11 12  1  0  0  0  0
 11 10  1  0  0  0  0
 12 13  1  0  0  0  0
 12 20  1  0  0  0  0
 13 14  2  0  0  0  0
 14 23  1  0  0  0  0
 14  9  1  0  0  0  0
 17 10  1  0  0  0  0
 18 11  1  0  0  0  0
 19 11  1  0  0  0  0
 21 12  1  0  0  0  0
 22 13  1  0  0  0  0
 23 25  1  0  0  0  0
 24 23  1  0  0  0  0
 26  3  1  0  0  0  0
 27 32  1  0  0  0  0
 27 26  2  0  0  0  0
 28 27  1  0  0  0  0
 29 28  2  0  0  0  0
 29 30  1  0  0  0  0
 30 31  2  0  0  0  0
 31 26  1  0  0  0  0
 33 28  1  0  0  0  0
 34 29  1  0  0  0  0
 35 30  1  0  0  0  0
 35 36  2  0  0  0  0
 37 36  1  0  0  0  0
 38 37  1  0  0  0  0
M  END
>  <minimizedAffinity>
-5.63218451

$$$$

 OpenBabel03252505093D

 38 40  0  0  1  0  0  0  0  0999 V2000
   38.2130   28.4990   43.1230 C   0  0  0  0  0  0  0  0  0  0  0  0
   38.1070   27.1260   42.7980 C   0  0  0  0  0  0  0  0  0  0  0  0
   37.7730   26.7970   41.4490 C   0  0  0  0  0  0  0  0  0  0  0  0
   37.5770   27.7970   40.5560 N   0  0  0  0  0  0  0  0  0  0  0  0
   37.6900   29.0850   40.9140 C   0  0  0  0  0  0  0  0  0  0  0  0
   38.0070   29.4520   42.1930 N   0  0  0  0  0  0  0  0  0  0  0  0
   38.4630   28.7810   44.1330 H   0  0  0  0  0  0  0  0  0  0  0  0
   38.2720   26.3620   43.5480 H   0  0  0  0  0  0  0  0  0  0  0  0
   37.4590   30.1390   39.8890 C   0  0  2  0  0  0  0  0  0  0  0  0
   38.7970   30.3720   39.2430 C   0  0  0  0  0  0  0  0  0  0  0  0
   39.5070   31.6050   39.6220 C   0  0  0  0  0  0  0  0  0  0  0  0
   38.5220   32.7390   39.3260 C   0  0  0  0  0  0  0  0  0  0  0  0
   37.3390   32.6910   40.1820 C   0  0  0  0  0  0  0  0  0  0  0  0
   36.8250   31.3110   40.4460 C   0  0  0  0  0  0  0  0  0  0  0  0
   36.7700   29.6690   39.1480 H   0  0  0  0  0  0  0  0  0  0  0  0
   38.6330   30.4070   38.1380 H   0  0  0  0  0  0  0  0  0  0  0  0
   39.4920   29.5100   39.3800 H   0  0  0  0  0  0  0  0  0  0  0  0
   40.3430   31.7610   38.9380 H   0  0  0  0  0  0  0  0  0  0  0  0
   39.8890   31.6400   40.6530 H   0  0  0  0  0  0  0  0  0  0  0  0
   38.3480   32.7550   38.2510 H   0  0  0  0  0  0  0  0  0  0  0  0
   39.0740   33.6570   39.6320 H   0  0  0  0  0  0  0  0  0  0  0  0
   36.7670   33.4430   40.6600 H   0  0  0  0  0  0  0  0  0  0  0  0
   35.6720   31.1080   41.2740 N   0  0  0  0  0  0  0  0  0  0  0  0
   35.7220   31.3600   42.2870 H   0  0  0  0  0  0  0  0  0  0  0  0
   34.8500   30.7160   40.8030 H   0  0  0  0  0  0  0  0  0  0  0  0
   37.6600   25.3920   41.0870 C   0  0  0  0  0  0  0  0  0  0  0  0
   38.5720   24.5180   41.5860 C   0  0  0  0  0  0  0  0  0  0  0  0
   38.4200   23.1730   41.2060 C   0  0  0  0  0  0  0  0  0  0  0  0
   37.3670   22.8810   40.3700 C   0  0  0  0  0  0  0  0  0  0  0  0
   36.4520   23.7580   39.8670 C   0  0  0  0  0  0  0  0  0  0  0  0
   36.6450   25.0510   40.2680 N   0  0  0  0  0  0  0  0  0  0  0  0
   39.3930   24.7720   42.2450 H   0  0  0  0  0  0  0  0  0  0  0  0
   39.1070   22.4230   41.5650 H   0  0  0  0  0  0  0  0  0  0  0  0
   37.2740   21.8350   40.0920 H   0  0  0  0  0  0  0  0  0  0  0  0
   35.3590   23.4400   38.9960 C   0  0  0  0  0  3  0  0  0  0  0  0
   34.9310   24.3040   38.0920 C   0  0  0  0  0  3  0  0  0  0  0  0
   33.8250   24.0770   37.1570 C   0  0  0  0  0  2  0  0  0  0  0  0
   33.0280   23.3980   37.5770 H   0  0  0  0  0  0  0  0  0  0  0  0
  1  7  1  0  0  0  0
  2  1  1  0  0  0  0
  2  8  1  0  0  0  0
  3  2  2  0  0  0  0
  4  5  2  0  0  0  0
  4  3  1  0  0  0  0
  5  6  1  0  0  0  0
  6  1  2  0  0  0  0
  9 15  1  6  0  0  0
  9 14  1  0  0  0  0
  9  5  1  0  0  0  0
 10 17  1  0  0  0  0
 10 11  1  0  0  0  0
 10  9  1  0  0  0  0
 11 19  1  0  0  0  0
 12 11  1  0  0  0  0
 12 21  1  0  0  0  0
 12 13  1  0  0  0  0
 13 14  2  0  0  0  0
 13 22  1  0  0  0  0
 14 23  1  0  0  0  0
 16 10  1  0  0  0  0
 18 11  1  0  0  0  0
 20 12  1  0  0  0  0
 23 24  1  0  0  0  0
 25 23  1  0  0  0  0
 26  3  1  0  0  0  0
 26 27  1  0  0  0  0
 27 32  1  0  0  0  0
 28 33  1  0  0  0  0
 28 27  2  0  0  0  0
 29 28  1  0  0  0  0
 30 31  1  0  0  0  0
 30 29  2  0  0  0  0
 31 26  2  0  0  0  0
 34 29  1  0  0  0  0
 35 30  1  0  0  0  0
 36 35  2  0  0  0  0
 37 38  1  0  0  0  0
 37 36  1  0  0  0  0
M  END
>  <minimizedAffinity>
-5.61188078

$$$$
