
 OpenBabel03242519163D

 37 39  0  0  1  0  0  0  0  0999 V2000
   45.5640   33.6810   44.6710 C   0  0  0  0  0  0  0  0  0  0  0  0
   45.3450   33.9670   45.9950 C   0  0  0  0  0  0  0  0  0  0  0  0
   45.6360   33.0580   47.0220 C   0  0  0  0  0  0  0  0  0  0  0  0
   46.1500   31.8690   46.6140 N   0  0  0  0  0  0  0  0  0  0  0  0
   46.3600   31.6000   45.3180 C   0  0  0  0  0  0  0  0  0  0  0  0
   46.0700   32.4910   44.3760 N   0  0  0  0  0  0  0  0  0  0  0  0
   44.9260   34.9490   46.2570 H   0  0  0  0  0  0  0  0  0  0  0  0
   45.4560   33.2980   48.0590 H   0  0  0  0  0  0  0  0  0  0  0  0
   46.9440   30.2990   44.8680 C   0  0  2  0  0  0  0  0  0  0  0  0
   46.9540   29.9800   43.4030 C   0  0  0  0  0  0  0  0  0  0  0  0
   46.0040   29.2680   44.3810 C   0  0  2  0  0  0  0  0  0  0  0  0
   47.7400   29.9350   45.5660 H   0  0  0  0  0  0  0  0  0  0  0  0
   46.5710   30.7590   42.7370 H   0  0  0  0  0  0  0  0  0  0  0  0
   47.7530   29.3140   43.0230 H   0  0  0  0  0  0  0  0  0  0  0  0
   46.2720   28.1940   44.6070 H   0  0  0  0  0  0  0  0  0  0  0  0
   44.5830   29.4830   44.0850 C   0  0  0  0  0  3  0  0  0  0  0  0
   43.7430   29.8710   43.1330 C   0  0  0  0  0  3  0  0  0  0  0  0
   43.9790   30.3160   41.7450 C   0  0  0  0  0  2  0  0  0  0  0  0
   44.6270   29.5570   41.2130 H   0  0  0  0  0  0  0  0  0  0  0  0
   45.2620   34.6350   43.6190 C   0  0  0  0  0  0  0  0  0  0  0  0
   44.4800   34.2600   42.9260 H   0  0  0  0  0  0  0  0  0  0  0  0
   44.8000   35.5650   44.0660 H   0  0  0  0  0  0  0  0  0  0  0  0
   46.4800   35.0120   42.8770 C   0  0  0  0  0  0  0  0  0  0  0  0
   47.4380   34.6910   43.3580 H   0  0  0  0  0  0  0  0  0  0  0  0
   46.5780   36.1200   42.7990 H   0  0  0  0  0  0  0  0  0  0  0  0
   48.9190   35.6390   41.3000 Cl  0  0  0  0  0  0  0  0  0  0  0  0
   47.6300   34.6610   40.6760 C   0  0  0  0  0  0  0  0  0  0  0  0
   46.5450   34.4360   41.4950 C   0  0  0  0  0  0  0  0  0  0  0  0
   45.5150   33.6590   41.0100 C   0  0  0  0  0  0  0  0  0  0  0  0
   45.5650   33.1200   39.7370 C   0  0  0  0  0  0  0  0  0  0  0  0
   46.6750   33.3570   38.9140 C   0  0  0  0  0  0  0  0  0  0  0  0
   47.7030   34.1400   39.4140 C   0  0  0  0  0  0  0  0  0  0  0  0
   44.6360   33.4460   41.6100 H   0  0  0  0  0  0  0  0  0  0  0  0
   44.7610   32.5070   39.3430 H   0  0  0  0  0  0  0  0  0  0  0  0
   46.7330   32.9440   37.9150 H   0  0  0  0  0  0  0  0  0  0  0  0
   48.8500   34.4320   38.6650 O   0  0  0  0  0  0  0  0  0  0  0  0
   49.0960   33.7150   37.9850 H   0  0  0  0  0  0  0  0  0  0  0  0
  1  2  1  0  0  0  0
  2  7  1  0  0  0  0
  2  3  2  0  0  0  0
  3  8  1  0  0  0  0
  4  3  1  0  0  0  0
  5  4  2  0  0  0  0
  6  1  2  0  0  0  0
  6  5  1  0  0  0  0
  9  5  1  0  0  0  0
  9 12  1  1  0  0  0
 10 11  1  0  0  0  0
 10  9  1  0  0  0  0
 11 15  1  1  0  0  0
 11  9  1  0  0  0  0
 13 10  1  0  0  0  0
 14 10  1  0  0  0  0
 16 11  1  0  0  0  0
 17 16  2  0  0  0  0
 18 17  1  0  0  0  0
 19 18  1  0  0  0  0
 20 22  1  0  0  0  0
 20  1  1  0  0  0  0
 21 20  1  0  0  0  0
 23 24  1  0  0  0  0
 23 20  1  0  0  0  0
 25 23  1  0  0  0  0
 27 26  1  0  0  0  0
 27 28  1  0  0  0  0
 28 23  1  0  0  0  0
 29 28  2  0  0  0  0
 29 33  1  0  0  0  0
 30 29  1  0  0  0  0
 31 32  1  0  0  0  0
 31 30  2  0  0  0  0
 32 27  2  0  0  0  0
 34 30  1  0  0  0  0
 35 31  1  0  0  0  0
 36 32  1  0  0  0  0
 37 36  1  0  0  0  0
M  END
>  <minimizedAffinity>
-4.54800034

>  <minimizedRMSD>
6.51587486

$$$$
