
 OpenBabel03252504443D

 16 16  0  0  0  0  0  0  0  0999 V2000
   45.3540   34.7050   44.7470 C   0  0  0  0  0  0  0  0  0  0  0  0
   46.2080   34.4160   43.6750 C   0  0  0  0  0  0  0  0  0  0  0  0
   47.1260   33.3620   43.8330 C   0  0  0  0  0  0  0  0  0  0  0  0
   47.1230   32.6950   45.0140 N   0  0  0  0  0  0  0  0  0  0  0  0
   46.2790   33.0090   46.0220 C   0  0  0  0  0  0  0  0  0  0  0  0
   45.3990   34.0140   45.8840 N   0  0  0  0  0  0  0  0  0  0  0  0
   46.1980   34.9600   42.7360 H   0  0  0  0  0  0  0  0  0  0  0  0
   47.8040   33.1050   43.0310 H   0  0  0  0  0  0  0  0  0  0  0  0
   44.3950   35.8330   44.5360 C   0  0  0  0  0  0  0  0  0  0  0  0
   43.5240   35.5020   43.9120 H   0  0  0  0  0  0  0  0  0  0  0  0
   44.8630   36.6950   44.0220 H   0  0  0  0  0  0  0  0  0  0  0  0
   44.0150   36.1070   45.5520 H   0  0  0  0  0  0  0  0  0  0  0  0
   46.3330   32.2480   47.2640 C   0  0  0  0  0  0  0  0  0  0  0  0
   45.2960   32.2390   48.0860 C   0  0  0  0  0  0  0  0  0  0  0  0
   45.3490   31.4600   49.3600 C   0  0  0  0  0  0  0  0  0  0  0  0
   44.6170   30.6130   49.3430 H   0  0  0  0  0  0  0  0  0  0  0  0
  1  6  1  0  0  0  0
  2  3  1  0  0  0  0
  2  1  2  0  0  0  0
  3  4  2  0  0  0  0
  4  5  1  0  0  0  0
  5 13  1  0  0  0  0
  6  5  2  0  0  0  0
  7  2  1  0  0  0  0
  8  3  1  0  0  0  0
  9  1  1  0  0  0  0
  9 12  1  0  0  0  0
 10  9  1  0  0  0  0
 11  9  1  0  0  0  0
 13 14  2  0  0  0  0
 14 15  1  0  0  0  0
 16 15  1  0  0  0  0
M  END
>  <minimizedAffinity>
-3.90428114

>  <minimizedRMSD>
1.55369174

$$$$
