
 OpenBabel03252505563D

 31 32  0  0  0  0  0  0  0  0999 V2000
   45.5460   33.2020   47.4790 O   0  0  0  0  0  0  0  0  0  0  0  0
   44.7330   35.2860   44.7220 C   0  0  0  0  0  0  0  0  0  0  0  0
   45.1530   34.5470   43.6000 C   0  0  0  0  0  0  0  0  0  0  0  0
   45.7260   33.3020   43.8620 C   0  0  0  0  0  0  0  0  0  0  0  0
   45.8430   32.8890   45.1350 N   0  0  0  0  0  0  0  0  0  0  0  0
   45.4290   33.6260   46.1690 C   0  0  0  0  0  0  0  0  0  0  0  0
   44.8770   34.8160   45.9680 N   0  0  0  0  0  0  0  0  0  0  0  0
   44.2790   36.2690   44.5300 H   0  0  0  0  0  0  0  0  0  0  0  0
   44.9710   35.1170   42.2420 C   0  0  0  0  0  0  0  0  0  0  0  0
   44.4060   36.3700   42.4740 F   0  0  0  0  0  0  0  0  0  0  0  0
   44.0300   34.3220   41.6040 F   0  0  0  0  0  0  0  0  0  0  0  0
   46.1580   35.2020   41.6220 F   0  0  0  0  0  0  0  0  0  0  0  0
   46.1670   32.4310   42.8110 C   0  0  0  0  0  3  0  0  0  0  0  0
   47.4530   32.4130   42.4210 C   0  0  0  0  0  3  0  0  0  0  0  0
   48.4920   33.2890   43.0500 C   0  0  0  0  0  2  0  0  0  0  0  0
   48.2960   34.3710   42.8800 H   0  0  0  0  0  0  0  0  0  0  0  0
   44.9590   31.9900   47.9070 C   0  0  0  0  0  0  0  0  0  0  0  0
   44.6640   32.1470   48.9650 H   0  0  0  0  0  0  0  0  0  0  0  0
   44.0430   31.7240   47.3550 H   0  0  0  0  0  0  0  0  0  0  0  0
   46.0060   30.9520   47.8760 C   0  0  0  0  0  0  0  0  0  0  0  0
   46.0150   29.6880   47.3100 C   0  0  0  0  0  0  0  0  0  0  0  0
   47.1370   28.9420   47.4360 C   0  0  0  0  0  0  0  0  0  0  0  0
   48.2210   29.3630   48.0730 N   0  0  0  0  0  0  0  0  0  0  0  0
   48.2110   30.5900   48.6200 C   0  0  0  0  0  0  0  0  0  0  0  0
   47.1110   31.4080   48.5360 N   0  0  0  0  0  0  0  0  0  0  0  0
   45.0950   29.4680   46.8310 H   0  0  0  0  0  0  0  0  0  0  0  0
   47.1070   27.9620   46.9820 H   0  0  0  0  0  0  0  0  0  0  0  0
   49.4650   30.9910   49.3190 C   0  0  0  0  0  0  0  0  0  0  0  0
   49.6110   32.3490   49.3460 F   0  0  0  0  0  0  0  0  0  0  0  0
   50.5670   30.4190   48.6680 F   0  0  0  0  0  0  0  0  0  0  0  0
   49.4810   30.5410   50.6320 F   0  0  0  0  0  0  0  0  0  0  0  0
  1 17  1  0  0  0  0
  2  7  1  0  0  0  0
  3  4  1  0  0  0  0
  3  2  2  0  0  0  0
  4  5  2  0  0  0  0
  5  6  1  0  0  0  0
  6  1  1  0  0  0  0
  7  6  2  0  0  0  0
  8  2  1  0  0  0  0
  9 10  1  0  0  0  0
  9  3  1  0  0  0  0
 11  9  1  0  0  0  0
 12  9  1  0  0  0  0
 13  4  1  0  0  0  0
 14 13  2  0  0  0  0
 14 15  1  0  0  0  0
 16 15  1  0  0  0  0
 17 18  1  0  0  0  0
 19 17  1  0  0  0  0
 20 17  1  0  0  0  0
 20 25  1  0  0  0  0
 21 22  1  0  0  0  0
 21 20  2  0  0  0  0
 22 23  2  0  0  0  0
 23 24  1  0  0  0  0
 24 28  1  0  0  0  0
 25 24  2  0  0  0  0
 26 21  1  0  0  0  0
 27 22  1  0  0  0  0
 28 29  1  0  0  0  0
 28 31  1  0  0  0  0
 30 28  1  0  0  0  0
M  END
>  <minimizedAffinity>
-5.29335785

>  <minimizedRMSD>
0.971446216

$$$$
