
 OpenBabel03242511423D

 29 30  0  0  0  0  0  0  0  0999 V2000
   46.9040   32.9390   46.2970 C   0  0  0  0  0  0  0  0  0  0  0  0
   46.8460   33.9690   46.6680 H   0  0  0  0  0  0  0  0  0  0  0  0
   47.9960   32.6460   46.2620 H   0  0  0  0  0  0  0  0  0  0  0  0
   46.2850   32.0460   47.2710 C   0  0  0  0  0  0  0  0  0  0  0  0
   45.2080   32.2680   48.1160 C   0  0  0  0  0  0  0  0  0  0  0  0
   44.6690   31.3360   48.9640 C   0  0  0  0  0  0  0  0  0  0  0  0
   45.2400   30.0940   48.9730 C   0  0  0  0  0  0  0  0  0  0  0  0
   46.3220   29.8460   48.1370 C   0  0  0  0  0  0  0  0  0  0  0  0
   46.8470   30.8190   47.2890 C   0  0  0  0  0  0  0  0  0  0  0  0
   44.8350   33.2870   48.0230 H   0  0  0  0  0  0  0  0  0  0  0  0
   43.8370   31.7230   49.5330 H   0  0  0  0  0  0  0  0  0  0  0  0
   44.7170   29.4430   49.6890 H   0  0  0  0  0  0  0  0  0  0  0  0
   46.5680   28.8010   48.3480 H   0  0  0  0  0  0  0  0  0  0  0  0
   48.0270   30.1660   46.7420 C   0  0  0  0  0  3  0  0  0  0  0  0
   48.3160   29.6480   45.5690 C   0  0  0  0  0  3  0  0  0  0  0  0
   49.5020   29.0010   45.0460 C   0  0  0  0  0  2  0  0  0  0  0  0
   50.2790   28.9840   45.8600 H   0  0  0  0  0  0  0  0  0  0  0  0
   46.3870   32.7480   44.9120 C   0  0  0  0  0  0  0  0  0  0  0  0
   45.4640   32.1410   44.9430 H   0  0  0  0  0  0  0  0  0  0  0  0
   47.1580   32.4480   44.1820 H   0  0  0  0  0  0  0  0  0  0  0  0
   44.5080   35.9300   44.7300 C   0  0  0  0  0  0  0  0  0  0  0  0
   44.8910   36.4260   43.4590 C   0  0  0  0  0  0  0  0  0  0  0  0
   45.7790   35.6570   42.7330 C   0  0  0  0  0  0  0  0  0  0  0  0
   46.2280   34.5100   43.2470 N   0  0  0  0  0  0  0  0  0  0  0  0
   45.8280   34.0800   44.4730 C   0  0  0  0  0  0  0  0  0  0  0  0
   44.9860   34.7690   45.2080 N   0  0  0  0  0  0  0  0  0  0  0  0
   43.8000   36.5730   45.2750 H   0  0  0  0  0  0  0  0  0  0  0  0
   44.4980   37.3690   43.0790 H   0  0  0  0  0  0  0  0  0  0  0  0
   46.1160   35.9760   41.7520 H   0  0  0  0  0  0  0  0  0  0  0  0
  1  2  1  0  0  0  0
  1  4  1  0  0  0  0
  3  1  1  0  0  0  0
  4  9  2  0  0  0  0
  4  5  1  0  0  0  0
  5  6  2  0  0  0  0
  6  7  1  0  0  0  0
  6 11  1  0  0  0  0
  7 12  1  0  0  0  0
  8 13  1  0  0  0  0
  8  7  2  0  0  0  0
  9  8  1  0  0  0  0
 10  5  1  0  0  0  0
 14  9  1  0  0  0  0
 15 14  2  0  0  0  0
 16 15  1  0  0  0  0
 16 17  1  0  0  0  0
 18 19  1  0  0  0  0
 18  1  1  0  0  0  0
 20 18  1  0  0  0  0
 21 26  1  0  0  0  0
 21 27  1  0  0  0  0
 22 21  2  0  0  0  0
 23 24  2  0  0  0  0
 23 22  1  0  0  0  0
 24 25  1  0  0  0  0
 25 18  1  0  0  0  0
 25 26  2  0  0  0  0
 28 22  1  0  0  0  0
 29 23  1  0  0  0  0
M  END
>  <minimizedAffinity>
-4.58481646

>  <minimizedRMSD>
1.26534295

$$$$
