
 OpenBabel03242511423D

 29 30  0  0  0  0  0  0  0  0999 V2000
   46.7990   32.7770   46.1430 C   0  0  0  0  0  0  0  0  0  0  0  0
   46.9400   33.8080   46.4860 H   0  0  0  0  0  0  0  0  0  0  0  0
   47.8210   32.3380   45.9400 H   0  0  0  0  0  0  0  0  0  0  0  0
   46.2370   31.9860   47.2330 C   0  0  0  0  0  0  0  0  0  0  0  0
   45.4410   32.3840   48.2960 C   0  0  0  0  0  0  0  0  0  0  0  0
   44.9200   31.5440   49.2460 C   0  0  0  0  0  0  0  0  0  0  0  0
   45.2100   30.2140   49.1300 C   0  0  0  0  0  0  0  0  0  0  0  0
   46.0070   29.7890   48.0750 C   0  0  0  0  0  0  0  0  0  0  0  0
   46.5240   30.6710   47.1290 C   0  0  0  0  0  0  0  0  0  0  0  0
   45.2750   33.4600   48.2860 H   0  0  0  0  0  0  0  0  0  0  0  0
   44.3310   32.0670   49.9850 H   0  0  0  0  0  0  0  0  0  0  0  0
   44.7330   29.6510   49.9470 H   0  0  0  0  0  0  0  0  0  0  0  0
   46.0730   28.7070   48.2290 H   0  0  0  0  0  0  0  0  0  0  0  0
   47.3950   29.8180   46.3340 C   0  0  0  0  0  3  0  0  0  0  0  0
   47.2120   29.0880   45.2560 C   0  0  0  0  0  3  0  0  0  0  0  0
   48.0980   28.2440   44.4800 C   0  0  0  0  0  2  0  0  0  0  0  0
   49.1180   28.2780   44.9540 H   0  0  0  0  0  0  0  0  0  0  0  0
   46.0390   32.6440   44.8670 C   0  0  0  0  0  0  0  0  0  0  0  0
   45.0470   32.2020   45.0740 H   0  0  0  0  0  0  0  0  0  0  0  0
   46.6210   32.2030   44.0410 H   0  0  0  0  0  0  0  0  0  0  0  0
   44.5580   36.0330   44.7610 C   0  0  0  0  0  0  0  0  0  0  0  0
   44.9800   36.4990   43.4910 C   0  0  0  0  0  0  0  0  0  0  0  0
   45.7580   35.6410   42.7410 C   0  0  0  0  0  0  0  0  0  0  0  0
   46.0720   34.4390   43.2300 N   0  0  0  0  0  0  0  0  0  0  0  0
   45.6400   34.0410   44.4570 C   0  0  0  0  0  0  0  0  0  0  0  0
   44.8980   34.8150   45.2140 N   0  0  0  0  0  0  0  0  0  0  0  0
   43.9400   36.7480   45.3260 H   0  0  0  0  0  0  0  0  0  0  0  0
   44.7000   37.4890   43.1310 H   0  0  0  0  0  0  0  0  0  0  0  0
   46.1170   35.9320   41.7590 H   0  0  0  0  0  0  0  0  0  0  0  0
  1  2  1  0  0  0  0
  1  4  1  0  0  0  0
  3  1  1  0  0  0  0
  4  5  1  0  0  0  0
  5  6  2  0  0  0  0
  6 11  1  0  0  0  0
  7  6  1  0  0  0  0
  7 12  1  0  0  0  0
  8 13  1  0  0  0  0
  8  7  2  0  0  0  0
  9  4  2  0  0  0  0
  9  8  1  0  0  0  0
 10  5  1  0  0  0  0
 14  9  1  0  0  0  0
 15 14  2  0  0  0  0
 16 17  1  0  0  0  0
 16 15  1  0  0  0  0
 18 19  1  0  0  0  0
 18  1  1  0  0  0  0
 20 18  1  0  0  0  0
 21 26  1  0  0  0  0
 21 27  1  0  0  0  0
 22 21  2  0  0  0  0
 23 24  2  0  0  0  0
 23 22  1  0  0  0  0
 24 25  1  0  0  0  0
 25 18  1  0  0  0  0
 25 26  2  0  0  0  0
 28 22  1  0  0  0  0
 29 23  1  0  0  0  0
M  END
>  <minimizedAffinity>
-4.55595636

>  <minimizedRMSD>
0.868642807

$$$$
