
 OpenBabel03242518253D

 40 43  0  0  1  0  0  0  0  0999 V2000
   44.1450   34.8360   42.6070 C   0  0  0  0  0  0  0  0  0  0  0  0
   43.3730   34.0640   41.7510 C   0  0  0  0  0  0  0  0  0  0  0  0
   43.4770   32.6880   41.8760 C   0  0  0  0  0  0  0  0  0  0  0  0
   44.3040   32.1430   42.8020 N   0  0  0  0  0  0  0  0  0  0  0  0
   45.0440   32.9340   43.6200 C   0  0  0  0  0  0  0  0  0  0  0  0
   44.9580   34.2640   43.5160 N   0  0  0  0  0  0  0  0  0  0  0  0
   44.1150   35.9180   42.5660 H   0  0  0  0  0  0  0  0  0  0  0  0
   42.8640   32.1030   41.1990 H   0  0  0  0  0  0  0  0  0  0  0  0
   42.5530   34.7550   40.8330 N   0  0  0  0  0  0  0  0  0  0  0  0
   42.7680   34.5080   39.4350 C   0  0  0  0  0  0  0  0  0  0  0  0
   41.9260   35.3530   38.5480 C   0  0  0  0  0  0  0  0  0  0  0  0
   40.5450   35.3740   38.9330 N   0  0  0  0  0  0  0  0  0  0  0  0
   40.2680   35.4010   40.3200 C   0  0  0  0  0  0  0  0  0  0  0  0
   41.5070   35.6970   41.1400 C   0  0  0  0  0  0  0  0  0  0  0  0
   42.5530   33.4520   39.2340 H   0  0  0  0  0  0  0  0  0  0  0  0
   43.8350   34.6860   39.1480 H   0  0  0  0  0  0  0  0  0  0  0  0
   42.0140   34.9890   37.5120 H   0  0  0  0  0  0  0  0  0  0  0  0
   42.2960   36.4060   38.6050 H   0  0  0  0  0  0  0  0  0  0  0  0
   40.0610   34.5840   38.4420 H   0  0  0  0  0  0  0  0  0  0  0  0
   39.4730   36.1190   40.5760 H   0  0  0  0  0  0  0  0  0  0  0  0
   39.8550   34.3920   40.6130 H   0  0  0  0  0  0  0  0  0  0  0  0
   41.1920   35.5650   42.2030 H   0  0  0  0  0  0  0  0  0  0  0  0
   41.7900   36.7370   40.9170 H   0  0  0  0  0  0  0  0  0  0  0  0
   46.4230   31.0460   44.3990 C   0  0  0  0  0  0  0  0  0  0  0  0
   45.9220   32.2800   44.6030 C   0  0  0  0  0  0  0  0  0  0  0  0
   46.2490   32.9500   45.7790 C   0  0  0  0  0  0  0  0  0  0  0  0
   47.0720   32.3400   46.7010 C   0  0  0  0  0  0  0  0  0  0  0  0
   47.5770   31.0730   46.4750 C   0  0  0  0  0  0  0  0  0  0  0  0
   47.2530   30.3930   45.2970 C   0  0  0  0  0  0  0  0  0  0  0  0
   48.3720   30.7130   47.5690 O   0  0  0  0  0  0  0  0  0  0  0  0
   48.0690   31.6230   48.6230 C   0  0  2  0  0  0  0  0  0  0  0  0
   47.5680   32.7550   47.9510 O   0  0  0  0  0  0  0  0  0  0  0  0
   46.1450   30.5550   43.4680 H   0  0  0  0  0  0  0  0  0  0  0  0
   45.8720   33.9430   45.9890 H   0  0  0  0  0  0  0  0  0  0  0  0
   47.6280   29.4000   45.0810 H   0  0  0  0  0  0  0  0  0  0  0  0
   47.2740   31.2520   49.2930 H   0  0  0  0  0  0  0  0  0  0  0  0
   49.3270   31.8600   49.3500 C   0  0  0  0  0  0  0  0  0  0  0  0
   50.0600   30.9660   49.9760 C   0  0  0  0  0  0  0  0  0  0  0  0
   49.6300   29.5510   49.9890 C   0  0  0  0  0  0  0  0  0  0  0  0
   50.4400   28.9320   50.4380 H   0  0  0  0  0  0  0  0  0  0  0  0
  1  6  1  0  0  0  0
  2  3  1  0  0  0  0
  2  1  2  0  0  0  0
  3  4  2  0  0  0  0
  4  5  1  0  0  0  0
  5 25  1  0  0  0  0
  6  5  2  0  0  0  0
  7  1  1  0  0  0  0
  8  3  1  0  0  0  0
  9 14  1  0  0  0  0
  9  2  1  0  0  0  0
 10  9  1  0  0  0  0
 11 18  1  0  0  0  0
 11 12  1  0  0  0  0
 11 10  1  0  0  0  0
 12 13  1  0  0  0  0
 13 20  1  0  0  0  0
 13 21  1  0  0  0  0
 13 14  1  0  0  0  0
 14 22  1  0  0  0  0
 15 10  1  0  0  0  0
 16 10  1  0  0  0  0
 17 11  1  0  0  0  0
 19 12  1  0  0  0  0
 23 14  1  0  0  0  0
 24 25  2  0  0  0  0
 24 29  1  0  0  0  0
 25 26  1  0  0  0  0
 26 34  1  0  0  0  0
 26 27  2  0  0  0  0
 27 32  1  0  0  0  0
 28 27  1  0  0  0  0
 28 30  1  0  0  0  0
 29 28  2  0  0  0  0
 30 31  1  0  0  0  0
 31 36  1  1  0  0  0
 31 37  1  0  0  0  0
 32 31  1  0  0  0  0
 33 24  1  0  0  0  0
 35 29  1  0  0  0  0
 37 38  2  0  0  0  0
 38 39  1  0  0  0  0
 39 40  1  0  0  0  0
M  END
>  <minimizedAffinity>
-5.55124187

>  <minimizedRMSD>
0.103309296

$$$$
