
 OpenBabel03252501303D

 33 34  0  0  0  0  0  0  0  0999 V2000
   36.2620   28.7370   40.5890 C   0  0  0  0  0  0  0  0  0  0  0  0
   36.1690   27.8040   39.5970 C   0  0  0  0  0  0  0  0  0  0  0  0
   36.5010   26.4950   39.7500 C   0  0  0  0  0  0  0  0  0  0  0  0
   36.9550   26.0750   40.9510 C   0  0  0  0  0  0  0  0  0  0  0  0
   37.0610   26.9930   41.9800 C   0  0  0  0  0  0  0  0  0  0  0  0
   36.7170   28.3260   41.8100 C   0  0  0  0  0  0  0  0  0  0  0  0
   35.7950   28.2010   38.6390 H   0  0  0  0  0  0  0  0  0  0  0  0
   36.3740   25.8730   38.8720 H   0  0  0  0  0  0  0  0  0  0  0  0
   37.4410   26.5140   42.8980 H   0  0  0  0  0  0  0  0  0  0  0  0
   38.2920   29.3230   43.3440 C   0  0  0  0  0  0  0  0  0  0  0  0
   39.4740   29.2190   42.8410 O   0  0  0  0  0  0  0  0  0  0  0  0
   36.9300   28.9540   43.0760 N   0  0  0  0  0  0  0  0  0  0  0  0
   38.6210   29.8880   44.2390 H   0  0  0  0  0  0  0  0  0  0  0  0
   36.3200   29.2180   43.8790 H   0  0  0  0  0  0  0  0  0  0  0  0
   35.9540   30.1670   40.5530 C   0  0  0  0  0  0  0  0  0  0  0  0
   36.3530   30.6990   41.4550 H   0  0  0  0  0  0  0  0  0  0  0  0
   34.8590   30.2880   40.5880 H   0  0  0  0  0  0  0  0  0  0  0  0
   36.5690   30.8410   39.3400 C   0  0  0  0  0  0  0  0  0  0  0  0
   35.7660   31.3480   38.7290 H   0  0  0  0  0  0  0  0  0  0  0  0
   37.0490   30.1290   38.6580 H   0  0  0  0  0  0  0  0  0  0  0  0
   39.3770   32.5200   40.9830 C   0  0  0  0  0  0  0  0  0  0  0  0
   39.1560   33.8800   40.6530 C   0  0  0  0  0  0  0  0  0  0  0  0
   38.0420   34.1600   39.8710 C   0  0  0  0  0  0  0  0  0  0  0  0
   37.2390   33.1680   39.4690 N   0  0  0  0  0  0  0  0  0  0  0  0
   37.4990   31.8840   39.8160 C   0  0  0  0  0  0  0  0  0  0  0  0
   38.5340   31.5540   40.5510 N   0  0  0  0  0  0  0  0  0  0  0  0
   40.2340   32.2140   41.5970 H   0  0  0  0  0  0  0  0  0  0  0  0
   39.8760   34.5810   41.0370 H   0  0  0  0  0  0  0  0  0  0  0  0
   37.9000   35.1970   39.6350 H   0  0  0  0  0  0  0  0  0  0  0  0
   37.3190   24.6410   41.1150 C   0  0  0  0  0  3  0  0  0  0  0  0
   37.5700   23.8170   40.1220 C   0  0  0  0  0  3  0  0  0  0  0  0
   37.9270   22.3840   40.4130 C   0  0  0  0  0  2  0  0  0  0  0  0
   37.2400   22.0290   41.2320 H   0  0  0  0  0  0  0  0  0  0  0  0
  1  6  1  0  0  0  0
  2  3  1  0  0  0  0
  2  1  2  0  0  0  0
  3  4  2  0  0  0  0
  4 30  1  0  0  0  0
  4  5  1  0  0  0  0
  5  9  1  0  0  0  0
  6  5  2  0  0  0  0
  6 12  1  0  0  0  0
  7  2  1  0  0  0  0
  8  3  1  0  0  0  0
 10 13  1  0  0  0  0
 11 10  2  0  0  0  0
 12 10  1  0  0  0  0
 12 14  1  0  0  0  0
 15 17  1  0  0  0  0
 15  1  1  0  0  0  0
 15 16  1  0  0  0  0
 18 25  1  0  0  0  0
 18 15  1  0  0  0  0
 19 18  1  0  0  0  0
 20 18  1  0  0  0  0
 21 27  1  0  0  0  0
 22 21  1  0  0  0  0
 22 28  1  0  0  0  0
 23 22  2  0  0  0  0
 24 25  2  0  0  0  0
 24 23  1  0  0  0  0
 25 26  1  0  0  0  0
 26 21  2  0  0  0  0
 29 23  1  0  0  0  0
 31 32  1  0  0  0  0
 31 30  2  0  0  0  0
 32 33  1  0  0  0  0
M  END
>  <minimizedAffinity>
-5.30076265

$$$$

 OpenBabel03252501303D

 33 34  0  0  0  0  0  0  0  0999 V2000
   35.4640   29.2930   38.2080 C   0  0  0  0  0  0  0  0  0  0  0  0
   36.5740   29.9550   37.7700 C   0  0  0  0  0  0  0  0  0  0  0  0
   36.8550   30.1860   36.4610 C   0  0  0  0  0  0  0  0  0  0  0  0
   35.9940   29.7380   35.5210 C   0  0  0  0  0  0  0  0  0  0  0  0
   34.8580   29.0630   35.9290 C   0  0  0  0  0  0  0  0  0  0  0  0
   34.5830   28.8340   37.2690 C   0  0  0  0  0  0  0  0  0  0  0  0
   37.2410   30.2980   38.5780 H   0  0  0  0  0  0  0  0  0  0  0  0
   37.7740   30.7270   36.2670 H   0  0  0  0  0  0  0  0  0  0  0  0
   34.2490   28.7570   35.0620 H   0  0  0  0  0  0  0  0  0  0  0  0
   32.2000   28.9250   36.8940 C   0  0  0  0  0  0  0  0  0  0  0  0
   31.8870   30.1250   36.5470 O   0  0  0  0  0  0  0  0  0  0  0  0
   33.3320   28.1430   37.3040 N   0  0  0  0  0  0  0  0  0  0  0  0
   31.1720   28.5250   36.7850 H   0  0  0  0  0  0  0  0  0  0  0  0
   33.0310   27.1790   37.5640 H   0  0  0  0  0  0  0  0  0  0  0  0
   35.0530   28.9660   39.5740 C   0  0  0  0  0  0  0  0  0  0  0  0
   35.3520   27.9240   39.8590 H   0  0  0  0  0  0  0  0  0  0  0  0
   33.9510   28.9900   39.6210 H   0  0  0  0  0  0  0  0  0  0  0  0
   35.6920   29.8980   40.5880 C   0  0  0  0  0  0  0  0  0  0  0  0
   34.8950   30.3970   41.2120 H   0  0  0  0  0  0  0  0  0  0  0  0
   36.2500   30.7160   40.1180 H   0  0  0  0  0  0  0  0  0  0  0  0
   37.1790   27.0470   42.3390 C   0  0  0  0  0  0  0  0  0  0  0  0
   38.1160   27.6720   43.2010 C   0  0  0  0  0  0  0  0  0  0  0  0
   38.1940   29.0570   43.1380 C   0  0  0  0  0  0  0  0  0  0  0  0
   37.4080   29.7360   42.2940 N   0  0  0  0  0  0  0  0  0  0  0  0
   36.5290   29.0860   41.4930 C   0  0  0  0  0  0  0  0  0  0  0  0
   36.4080   27.7800   41.5040 N   0  0  0  0  0  0  0  0  0  0  0  0
   37.0550   25.9570   42.3270 H   0  0  0  0  0  0  0  0  0  0  0  0
   38.6880   27.0140   43.8310 H   0  0  0  0  0  0  0  0  0  0  0  0
   38.9110   29.5030   43.8000 H   0  0  0  0  0  0  0  0  0  0  0  0
   36.3060   29.9920   34.0880 C   0  0  0  0  0  3  0  0  0  0  0  0
   36.2210   31.1670   33.5030 C   0  0  0  0  0  3  0  0  0  0  0  0
   36.5630   31.3000   32.0440 C   0  0  0  0  0  2  0  0  0  0  0  0
   36.1120   30.4130   31.5140 H   0  0  0  0  0  0  0  0  0  0  0  0
  1 15  1  0  0  0  0
  2  1  1  0  0  0  0
  2  7  1  0  0  0  0
  3  2  2  0  0  0  0
  4  5  2  0  0  0  0
  4  3  1  0  0  0  0
  5  6  1  0  0  0  0
  6 12  1  0  0  0  0
  6  1  2  0  0  0  0
  8  3  1  0  0  0  0
  9  5  1  0  0  0  0
 10 12  1  0  0  0  0
 11 10  2  0  0  0  0
 12 14  1  0  0  0  0
 13 10  1  0  0  0  0
 15 17  1  0  0  0  0
 15 16  1  0  0  0  0
 15 18  1  0  0  0  0
 18 19  1  0  0  0  0
 18 25  1  0  0  0  0
 20 18  1  0  0  0  0
 21 22  1  0  0  0  0
 22 28  1  0  0  0  0
 23 22  2  0  0  0  0
 23 29  1  0  0  0  0
 24 23  1  0  0  0  0
 25 26  1  0  0  0  0
 25 24  2  0  0  0  0
 26 21  2  0  0  0  0
 27 21  1  0  0  0  0
 30  4  1  0  0  0  0
 31 30  2  0  0  0  0
 32 31  1  0  0  0  0
 33 32  1  0  0  0  0
M  END
>  <minimizedAffinity>
-5.23244953

$$$$

 OpenBabel03252501303D

 33 34  0  0  0  0  0  0  0  0999 V2000
   36.3890   28.2830   40.8090 C   0  0  0  0  0  0  0  0  0  0  0  0
   36.3000   27.3050   39.8620 C   0  0  0  0  0  0  0  0  0  0  0  0
   35.7710   27.4900   38.6240 C   0  0  0  0  0  0  0  0  0  0  0  0
   35.2980   28.7110   38.2940 C   0  0  0  0  0  0  0  0  0  0  0  0
   35.3730   29.7270   39.2300 C   0  0  0  0  0  0  0  0  0  0  0  0
   35.9160   29.5250   40.4900 C   0  0  0  0  0  0  0  0  0  0  0  0
   36.6990   26.3290   40.1840 H   0  0  0  0  0  0  0  0  0  0  0  0
   35.7690   26.6180   37.9800 H   0  0  0  0  0  0  0  0  0  0  0  0
   34.9520   30.6650   38.8280 H   0  0  0  0  0  0  0  0  0  0  0  0
   36.8940   31.7070   40.8140 C   0  0  0  0  0  0  0  0  0  0  0  0
   37.9780   31.7760   40.1220 O   0  0  0  0  0  0  0  0  0  0  0  0
   35.8470   30.7870   41.1580 N   0  0  0  0  0  0  0  0  0  0  0  0
   36.9480   32.7540   41.1770 H   0  0  0  0  0  0  0  0  0  0  0  0
   35.2040   31.2160   41.8570 H   0  0  0  0  0  0  0  0  0  0  0  0
   36.9160   28.2140   42.1730 C   0  0  0  0  0  0  0  0  0  0  0  0
   36.3260   28.8540   42.8790 H   0  0  0  0  0  0  0  0  0  0  0  0
   37.9390   28.6270   42.1710 H   0  0  0  0  0  0  0  0  0  0  0  0
   36.8690   26.7990   42.7190 C   0  0  0  0  0  0  0  0  0  0  0  0
   36.3910   26.1070   41.9660 H   0  0  0  0  0  0  0  0  0  0  0  0
   36.2550   26.7150   43.6240 H   0  0  0  0  0  0  0  0  0  0  0  0
   40.4010   26.7140   43.6790 C   0  0  0  0  0  0  0  0  0  0  0  0
   40.7960   25.4130   43.2770 C   0  0  0  0  0  0  0  0  0  0  0  0
   39.8200   24.6170   42.6910 C   0  0  0  0  0  0  0  0  0  0  0  0
   38.5780   25.0890   42.5290 N   0  0  0  0  0  0  0  0  0  0  0  0
   38.2570   26.3420   42.9310 C   0  0  0  0  0  0  0  0  0  0  0  0
   39.1320   27.1420   43.4920 N   0  0  0  0  0  0  0  0  0  0  0  0
   41.1110   27.4050   44.1500 H   0  0  0  0  0  0  0  0  0  0  0  0
   41.8230   25.1540   43.4640 H   0  0  0  0  0  0  0  0  0  0  0  0
   40.1460   23.6380   42.3970 H   0  0  0  0  0  0  0  0  0  0  0  0
   34.7180   28.9100   36.9380 C   0  0  0  0  0  3  0  0  0  0  0  0
   33.4390   28.8100   36.6510 C   0  0  0  0  0  3  0  0  0  0  0  0
   32.9710   29.0330   35.2380 C   0  0  0  0  0  2  0  0  0  0  0  0
   33.7060   28.5160   34.5590 H   0  0  0  0  0  0  0  0  0  0  0  0
  1 15  1  0  0  0  0
  2  7  1  0  0  0  0
  2  1  2  0  0  0  0
  3  2  1  0  0  0  0
  4  3  2  0  0  0  0
  4  5  1  0  0  0  0
  5  6  2  0  0  0  0
  6  1  1  0  0  0  0
  6 12  1  0  0  0  0
  8  3  1  0  0  0  0
  9  5  1  0  0  0  0
 10 12  1  0  0  0  0
 10 13  1  0  0  0  0
 11 10  2  0  0  0  0
 12 14  1  0  0  0  0
 15 18  1  0  0  0  0
 15 16  1  0  0  0  0
 17 15  1  0  0  0  0
 18 25  1  0  0  0  0
 18 20  1  0  0  0  0
 19 18  1  0  0  0  0
 21 27  1  0  0  0  0
 22 28  1  0  0  0  0
 22 21  2  0  0  0  0
 23 22  1  0  0  0  0
 24 23  2  0  0  0  0
 24 25  1  0  0  0  0
 25 26  2  0  0  0  0
 26 21  1  0  0  0  0
 29 23  1  0  0  0  0
 30  4  1  0  0  0  0
 31 30  2  0  0  0  0
 32 31  1  0  0  0  0
 33 32  1  0  0  0  0
M  END
>  <minimizedAffinity>
-5.19000721

$$$$

 OpenBabel03252501303D

 33 34  0  0  0  0  0  0  0  0999 V2000
   38.8460   29.0270   42.6620 C   0  0  0  0  0  0  0  0  0  0  0  0
   39.4910   27.8250   42.6500 C   0  0  0  0  0  0  0  0  0  0  0  0
   38.8890   26.6420   42.3600 C   0  0  0  0  0  0  0  0  0  0  0  0
   37.5710   26.6370   42.0640 C   0  0  0  0  0  0  0  0  0  0  0  0
   36.8860   27.8380   42.0660 C   0  0  0  0  0  0  0  0  0  0  0  0
   37.5130   29.0390   42.3630 C   0  0  0  0  0  0  0  0  0  0  0  0
   40.5640   27.8870   42.8990 H   0  0  0  0  0  0  0  0  0  0  0  0
   39.5310   25.7690   42.3900 H   0  0  0  0  0  0  0  0  0  0  0  0
   35.8240   27.6860   41.8080 H   0  0  0  0  0  0  0  0  0  0  0  0
   36.2630   30.4950   40.8980 C   0  0  0  0  0  0  0  0  0  0  0  0
   36.7030   30.3410   39.6970 O   0  0  0  0  0  0  0  0  0  0  0  0
   36.5100   30.0500   42.2410 N   0  0  0  0  0  0  0  0  0  0  0  0
   35.4670   31.2120   40.6150 H   0  0  0  0  0  0  0  0  0  0  0  0
   35.8940   30.5610   42.9100 H   0  0  0  0  0  0  0  0  0  0  0  0
   39.3670   30.3600   42.9690 C   0  0  0  0  0  0  0  0  0  0  0  0
   39.6390   30.4600   44.0520 H   0  0  0  0  0  0  0  0  0  0  0  0
   38.5660   31.0960   42.7870 H   0  0  0  0  0  0  0  0  0  0  0  0
   40.6220   30.6670   42.1720 C   0  0  0  0  0  0  0  0  0  0  0  0
   40.8350   29.8300   41.4450 H   0  0  0  0  0  0  0  0  0  0  0  0
   41.5160   30.7420   42.8020 H   0  0  0  0  0  0  0  0  0  0  0  0
   38.9430   33.4660   40.5120 C   0  0  0  0  0  0  0  0  0  0  0  0
   40.0250   34.1610   39.9150 C   0  0  0  0  0  0  0  0  0  0  0  0
   41.2930   33.6310   40.1130 C   0  0  0  0  0  0  0  0  0  0  0  0
   41.4490   32.5170   40.8380 N   0  0  0  0  0  0  0  0  0  0  0  0
   40.3780   31.8930   41.3860 C   0  0  0  0  0  0  0  0  0  0  0  0
   39.1550   32.3430   41.2370 N   0  0  0  0  0  0  0  0  0  0  0  0
   37.9100   33.8180   40.4040 H   0  0  0  0  0  0  0  0  0  0  0  0
   39.7670   35.0440   39.3570 H   0  0  0  0  0  0  0  0  0  0  0  0
   42.0930   34.1770   39.6510 H   0  0  0  0  0  0  0  0  0  0  0  0
   36.9150   25.3390   41.7480 C   0  0  0  0  0  3  0  0  0  0  0  0
   36.8010   24.8350   40.5390 C   0  0  0  0  0  3  0  0  0  0  0  0
   36.1140   23.5110   40.3430 C   0  0  0  0  0  2  0  0  0  0  0  0
   35.2010   23.5090   41.0040 H   0  0  0  0  0  0  0  0  0  0  0  0
  1 15  1  0  0  0  0
  2  1  1  0  0  0  0
  2  7  1  0  0  0  0
  3  8  1  0  0  0  0
  3  2  2  0  0  0  0
  4  5  2  0  0  0  0
  4  3  1  0  0  0  0
  5  6  1  0  0  0  0
  6  1  2  0  0  0  0
  9  5  1  0  0  0  0
 10 12  1  0  0  0  0
 11 10  2  0  0  0  0
 12  6  1  0  0  0  0
 12 14  1  0  0  0  0
 13 10  1  0  0  0  0
 15 16  1  0  0  0  0
 17 15  1  0  0  0  0
 18 20  1  0  0  0  0
 18 15  1  0  0  0  0
 19 18  1  0  0  0  0
 21 26  1  0  0  0  0
 22 23  1  0  0  0  0
 22 21  2  0  0  0  0
 23 24  2  0  0  0  0
 24 25  1  0  0  0  0
 25 18  1  0  0  0  0
 26 25  2  0  0  0  0
 27 21  1  0  0  0  0
 28 22  1  0  0  0  0
 29 23  1  0  0  0  0
 30  4  1  0  0  0  0
 31 30  2  0  0  0  0
 32 31  1  0  0  0  0
 32 33  1  0  0  0  0
M  END
>  <minimizedAffinity>
-5.17996073

$$$$

 OpenBabel03252501303D

 33 34  0  0  0  0  0  0  0  0999 V2000
   37.9430   29.6130   42.4930 C   0  0  0  0  0  0  0  0  0  0  0  0
   39.2180   30.0850   42.6080 C   0  0  0  0  0  0  0  0  0  0  0  0
   39.7140   31.1200   41.8790 C   0  0  0  0  0  0  0  0  0  0  0  0
   38.9100   31.7290   40.9810 C   0  0  0  0  0  0  0  0  0  0  0  0
   37.6100   31.2770   40.8400 C   0  0  0  0  0  0  0  0  0  0  0  0
   37.1160   30.2200   41.5900 C   0  0  0  0  0  0  0  0  0  0  0  0
   39.8300   29.5520   43.3530 H   0  0  0  0  0  0  0  0  0  0  0  0
   40.7460   31.3830   42.0810 H   0  0  0  0  0  0  0  0  0  0  0  0
   37.0700   31.8630   40.0760 H   0  0  0  0  0  0  0  0  0  0  0  0
   35.5030   28.9290   40.3430 C   0  0  0  0  0  0  0  0  0  0  0  0
   36.1260   27.9910   39.7170 O   0  0  0  0  0  0  0  0  0  0  0  0
   35.7520   30.0570   41.1950 N   0  0  0  0  0  0  0  0  0  0  0  0
   34.4950   28.6090   40.0100 H   0  0  0  0  0  0  0  0  0  0  0  0
   34.8660   30.5740   41.3790 H   0  0  0  0  0  0  0  0  0  0  0  0
   37.2930   28.5080   43.1980 C   0  0  0  0  0  0  0  0  0  0  0  0
   36.5580   27.9730   42.5430 H   0  0  0  0  0  0  0  0  0  0  0  0
   36.7070   28.9250   44.0340 H   0  0  0  0  0  0  0  0  0  0  0  0
   38.3000   27.4720   43.6640 C   0  0  0  0  0  0  0  0  0  0  0  0
   38.0580   27.1410   44.7150 H   0  0  0  0  0  0  0  0  0  0  0  0
   39.3220   27.8660   43.7090 H   0  0  0  0  0  0  0  0  0  0  0  0
   36.9100   24.7500   41.6490 C   0  0  0  0  0  0  0  0  0  0  0  0
   38.0750   24.1080   41.1560 C   0  0  0  0  0  0  0  0  0  0  0  0
   39.2950   24.6470   41.5420 C   0  0  0  0  0  0  0  0  0  0  0  0
   39.3310   25.7200   42.3410 N   0  0  0  0  0  0  0  0  0  0  0  0
   38.1860   26.2930   42.7830 C   0  0  0  0  0  0  0  0  0  0  0  0
   37.0020   25.8320   42.4540 N   0  0  0  0  0  0  0  0  0  0  0  0
   35.9070   24.3870   41.3910 H   0  0  0  0  0  0  0  0  0  0  0  0
   37.9090   23.2550   40.5220 H   0  0  0  0  0  0  0  0  0  0  0  0
   40.1590   24.1430   41.1540 H   0  0  0  0  0  0  0  0  0  0  0  0
   39.4570   32.8610   40.1850 C   0  0  0  0  0  3  0  0  0  0  0  0
   40.7090   32.9650   39.7990 C   0  0  0  0  0  3  0  0  0  0  0  0
   41.1460   34.1610   38.9960 C   0  0  0  0  0  2  0  0  0  0  0  0
   40.6580   35.0670   39.4560 H   0  0  0  0  0  0  0  0  0  0  0  0
  1  2  1  0  0  0  0
  1 15  1  0  0  0  0
  2  7  1  0  0  0  0
  3  8  1  0  0  0  0
  3  2  2  0  0  0  0
  4  3  1  0  0  0  0
  5  4  2  0  0  0  0
  5  6  1  0  0  0  0
  6  1  2  0  0  0  0
  9  5  1  0  0  0  0
 10 12  1  0  0  0  0
 11 10  2  0  0  0  0
 12 14  1  0  0  0  0
 12  6  1  0  0  0  0
 13 10  1  0  0  0  0
 15 18  1  0  0  0  0
 15 17  1  0  0  0  0
 16 15  1  0  0  0  0
 18 20  1  0  0  0  0
 18 19  1  0  0  0  0
 21 26  1  0  0  0  0
 22 23  1  0  0  0  0
 22 21  2  0  0  0  0
 23 24  2  0  0  0  0
 24 25  1  0  0  0  0
 25 18  1  0  0  0  0
 26 25  2  0  0  0  0
 27 21  1  0  0  0  0
 28 22  1  0  0  0  0
 29 23  1  0  0  0  0
 30  4  1  0  0  0  0
 31 30  2  0  0  0  0
 32 33  1  0  0  0  0
 32 31  1  0  0  0  0
M  END
>  <minimizedAffinity>
-5.17064333

$$$$

 OpenBabel03252501303D

 33 34  0  0  0  0  0  0  0  0999 V2000
   36.5460   28.2440   41.2510 C   0  0  0  0  0  0  0  0  0  0  0  0
   36.6140   27.1210   40.4790 C   0  0  0  0  0  0  0  0  0  0  0  0
   36.1230   27.0360   39.2150 C   0  0  0  0  0  0  0  0  0  0  0  0
   35.5270   28.1200   38.6740 C   0  0  0  0  0  0  0  0  0  0  0  0
   35.4410   29.2770   39.4280 C   0  0  0  0  0  0  0  0  0  0  0  0
   35.9470   29.3500   40.7170 C   0  0  0  0  0  0  0  0  0  0  0  0
   37.1090   26.2670   40.9700 H   0  0  0  0  0  0  0  0  0  0  0  0
   36.2510   26.0770   38.7250 H   0  0  0  0  0  0  0  0  0  0  0  0
   34.9340   30.0780   38.8640 H   0  0  0  0  0  0  0  0  0  0  0  0
   36.6610   31.6560   40.7120 C   0  0  0  0  0  0  0  0  0  0  0  0
   37.7700   31.7380   40.0620 O   0  0  0  0  0  0  0  0  0  0  0  0
   35.7020   30.6860   41.1630 N   0  0  0  0  0  0  0  0  0  0  0  0
   36.5800   32.7460   40.8970 H   0  0  0  0  0  0  0  0  0  0  0  0
   34.9760   31.1440   41.7540 H   0  0  0  0  0  0  0  0  0  0  0  0
   37.0160   28.4630   42.6200 C   0  0  0  0  0  0  0  0  0  0  0  0
   36.2860   28.0740   43.3760 H   0  0  0  0  0  0  0  0  0  0  0  0
   37.0840   29.5500   42.7940 H   0  0  0  0  0  0  0  0  0  0  0  0
   38.3340   27.7560   42.8780 C   0  0  0  0  0  0  0  0  0  0  0  0
   38.5070   26.9610   42.0960 H   0  0  0  0  0  0  0  0  0  0  0  0
   38.3500   27.2290   43.8400 H   0  0  0  0  0  0  0  0  0  0  0  0
   41.6420   29.2720   42.4750 C   0  0  0  0  0  0  0  0  0  0  0  0
   41.3540   30.6580   42.5530 C   0  0  0  0  0  0  0  0  0  0  0  0
   40.0250   31.0100   42.7410 C   0  0  0  0  0  0  0  0  0  0  0  0
   39.0870   30.0610   42.8400 N   0  0  0  0  0  0  0  0  0  0  0  0
   39.4190   28.7500   42.7580 C   0  0  0  0  0  0  0  0  0  0  0  0
   40.6560   28.3520   42.5800 N   0  0  0  0  0  0  0  0  0  0  0  0
   42.6670   28.9090   42.3270 H   0  0  0  0  0  0  0  0  0  0  0  0
   42.1980   31.3190   42.4580 H   0  0  0  0  0  0  0  0  0  0  0  0
   39.8360   32.0650   42.7960 H   0  0  0  0  0  0  0  0  0  0  0  0
   34.9900   28.0230   37.2890 C   0  0  0  0  0  3  0  0  0  0  0  0
   34.2190   28.9250   36.7230 C   0  0  0  0  0  3  0  0  0  0  0  0
   33.7360   28.7160   35.3130 C   0  0  0  0  0  2  0  0  0  0  0  0
   33.4370   27.6330   35.2210 H   0  0  0  0  0  0  0  0  0  0  0  0
  1 15  1  0  0  0  0
  2  7  1  0  0  0  0
  2  1  2  0  0  0  0
  3  2  1  0  0  0  0
  4  3  2  0  0  0  0
  4  5  1  0  0  0  0
  5  6  2  0  0  0  0
  6 12  1  0  0  0  0
  6  1  1  0  0  0  0
  8  3  1  0  0  0  0
  9  5  1  0  0  0  0
 10 13  1  0  0  0  0
 10 12  1  0  0  0  0
 11 10  2  0  0  0  0
 12 14  1  0  0  0  0
 15 17  1  0  0  0  0
 15 18  1  0  0  0  0
 15 16  1  0  0  0  0
 18 20  1  0  0  0  0
 19 18  1  0  0  0  0
 21 22  2  0  0  0  0
 21 26  1  0  0  0  0
 22 23  1  0  0  0  0
 23 29  1  0  0  0  0
 23 24  2  0  0  0  0
 25 24  1  0  0  0  0
 25 18  1  0  0  0  0
 26 25  2  0  0  0  0
 27 21  1  0  0  0  0
 28 22  1  0  0  0  0
 30  4  1  0  0  0  0
 31 30  2  0  0  0  0
 32 31  1  0  0  0  0
 33 32  1  0  0  0  0
M  END
>  <minimizedAffinity>
-4.99334383

$$$$

 OpenBabel03252501303D

 33 34  0  0  0  0  0  0  0  0999 V2000
   38.5480   28.1790   42.6750 C   0  0  0  0  0  0  0  0  0  0  0  0
   39.5350   27.2410   42.7620 C   0  0  0  0  0  0  0  0  0  0  0  0
   39.3630   25.9260   42.4640 C   0  0  0  0  0  0  0  0  0  0  0  0
   38.1460   25.5040   42.0580 C   0  0  0  0  0  0  0  0  0  0  0  0
   37.1220   26.4290   41.9580 C   0  0  0  0  0  0  0  0  0  0  0  0
   37.3120   27.7680   42.2640 C   0  0  0  0  0  0  0  0  0  0  0  0
   40.5070   27.6390   43.0990 H   0  0  0  0  0  0  0  0  0  0  0  0
   40.2410   25.3000   42.5800 H   0  0  0  0  0  0  0  0  0  0  0  0
   36.1890   25.9480   41.6150 H   0  0  0  0  0  0  0  0  0  0  0  0
   35.7640   28.6520   40.6360 C   0  0  0  0  0  0  0  0  0  0  0  0
   36.2960   28.5470   39.4670 O   0  0  0  0  0  0  0  0  0  0  0  0
   36.0580   28.4110   42.0210 N   0  0  0  0  0  0  0  0  0  0  0  0
   34.8050   29.0670   40.2650 H   0  0  0  0  0  0  0  0  0  0  0  0
   35.2810   28.7590   42.6210 H   0  0  0  0  0  0  0  0  0  0  0  0
   38.5950   29.6100   42.9770 C   0  0  0  0  0  0  0  0  0  0  0  0
   38.9040   29.8010   44.0370 H   0  0  0  0  0  0  0  0  0  0  0  0
   37.5760   30.0200   42.8790 H   0  0  0  0  0  0  0  0  0  0  0  0
   39.5930   30.3360   42.0930 C   0  0  0  0  0  0  0  0  0  0  0  0
   40.3830   29.6160   41.7270 H   0  0  0  0  0  0  0  0  0  0  0  0
   40.1390   31.1220   42.6280 H   0  0  0  0  0  0  0  0  0  0  0  0
   37.1460   32.0520   39.9790 C   0  0  0  0  0  0  0  0  0  0  0  0
   37.6040   31.7480   38.6720 C   0  0  0  0  0  0  0  0  0  0  0  0
   38.7440   30.9610   38.5780 C   0  0  0  0  0  0  0  0  0  0  0  0
   39.3540   30.5290   39.6870 N   0  0  0  0  0  0  0  0  0  0  0  0
   38.8710   30.8500   40.9120 C   0  0  0  0  0  0  0  0  0  0  0  0
   37.8000   31.5890   41.0690 N   0  0  0  0  0  0  0  0  0  0  0  0
   36.2520   32.6680   40.1420 H   0  0  0  0  0  0  0  0  0  0  0  0
   37.0240   32.1580   37.8640 H   0  0  0  0  0  0  0  0  0  0  0  0
   39.0680   30.7480   37.5770 H   0  0  0  0  0  0  0  0  0  0  0  0
   37.9610   24.0630   41.7340 C   0  0  0  0  0  3  0  0  0  0  0  0
   38.2110   23.5240   40.5610 C   0  0  0  0  0  3  0  0  0  0  0  0
   37.9830   22.0520   40.3520 C   0  0  0  0  0  2  0  0  0  0  0  0
   37.0100   21.7900   40.8570 H   0  0  0  0  0  0  0  0  0  0  0  0
  1  2  1  0  0  0  0
  1 15  1  0  0  0  0
  2  7  1  0  0  0  0
  3  8  1  0  0  0  0
  3  2  2  0  0  0  0
  4  3  1  0  0  0  0
  5  4  2  0  0  0  0
  5  6  1  0  0  0  0
  6  1  2  0  0  0  0
  9  5  1  0  0  0  0
 10 12  1  0  0  0  0
 11 10  2  0  0  0  0
 12  6  1  0  0  0  0
 12 14  1  0  0  0  0
 13 10  1  0  0  0  0
 15 16  1  0  0  0  0
 17 15  1  0  0  0  0
 18 20  1  0  0  0  0
 18 15  1  0  0  0  0
 19 18  1  0  0  0  0
 21 27  1  0  0  0  0
 21 26  1  0  0  0  0
 22 21  2  0  0  0  0
 23 22  1  0  0  0  0
 23 24  2  0  0  0  0
 24 25  1  0  0  0  0
 25 26  2  0  0  0  0
 25 18  1  0  0  0  0
 28 22  1  0  0  0  0
 29 23  1  0  0  0  0
 30  4  1  0  0  0  0
 31 30  2  0  0  0  0
 32 31  1  0  0  0  0
 32 33  1  0  0  0  0
M  END
>  <minimizedAffinity>
-4.95679379

$$$$

 OpenBabel03252501303D

 33 34  0  0  0  0  0  0  0  0999 V2000
   37.5700   30.9570   40.4230 C   0  0  0  0  0  0  0  0  0  0  0  0
   37.3280   31.0440   39.0830 C   0  0  0  0  0  0  0  0  0  0  0  0
   36.3670   30.3350   38.4360 C   0  0  0  0  0  0  0  0  0  0  0  0
   35.5950   29.4850   39.1460 C   0  0  0  0  0  0  0  0  0  0  0  0
   35.8120   29.3720   40.5080 C   0  0  0  0  0  0  0  0  0  0  0  0
   36.7960   30.1020   41.1560 C   0  0  0  0  0  0  0  0  0  0  0  0
   37.9870   31.7510   38.5520 H   0  0  0  0  0  0  0  0  0  0  0  0
   36.2930   30.5110   37.3680 H   0  0  0  0  0  0  0  0  0  0  0  0
   35.1130   28.6460   40.9590 H   0  0  0  0  0  0  0  0  0  0  0  0
   37.5160   28.6260   42.9250 C   0  0  0  0  0  0  0  0  0  0  0  0
   38.2920   27.7310   42.4190 O   0  0  0  0  0  0  0  0  0  0  0  0
   36.7070   29.7470   42.5380 N   0  0  0  0  0  0  0  0  0  0  0  0
   37.6280   28.2680   43.9680 H   0  0  0  0  0  0  0  0  0  0  0  0
   36.1810   30.1130   43.3600 H   0  0  0  0  0  0  0  0  0  0  0  0
   38.5740   31.6460   41.2350 C   0  0  0  0  0  0  0  0  0  0  0  0
   39.5800   31.1600   41.1510 H   0  0  0  0  0  0  0  0  0  0  0  0
   38.2820   31.5600   42.2950 H   0  0  0  0  0  0  0  0  0  0  0  0
   38.7470   33.0900   40.8020 C   0  0  0  0  0  0  0  0  0  0  0  0
   38.5830   33.7810   41.6800 H   0  0  0  0  0  0  0  0  0  0  0  0
   38.0140   33.3970   40.0470 H   0  0  0  0  0  0  0  0  0  0  0  0
   41.6750   34.1590   38.8810 C   0  0  0  0  0  0  0  0  0  0  0  0
   42.7410   33.5330   39.5750 C   0  0  0  0  0  0  0  0  0  0  0  0
   42.4010   32.7670   40.6820 C   0  0  0  0  0  0  0  0  0  0  0  0
   41.1190   32.6470   41.0460 N   0  0  0  0  0  0  0  0  0  0  0  0
   40.1400   33.2680   40.3450 C   0  0  0  0  0  0  0  0  0  0  0  0
   40.3950   34.0060   39.2910 N   0  0  0  0  0  0  0  0  0  0  0  0
   41.8580   34.7810   37.9960 H   0  0  0  0  0  0  0  0  0  0  0  0
   43.7270   33.7090   39.1800 H   0  0  0  0  0  0  0  0  0  0  0  0
   43.2280   32.3060   41.1880 H   0  0  0  0  0  0  0  0  0  0  0  0
   34.5440   28.7090   38.4340 C   0  0  0  0  0  3  0  0  0  0  0  0
   34.0680   29.0130   37.2460 C   0  0  0  0  0  3  0  0  0  0  0  0
   33.0030   28.1510   36.6260 C   0  0  0  0  0  2  0  0  0  0  0  0
   32.2660   27.8950   37.4390 H   0  0  0  0  0  0  0  0  0  0  0  0
  1  6  1  0  0  0  0
  1 15  1  0  0  0  0
  2  1  2  0  0  0  0
  3  2  1  0  0  0  0
  3  4  2  0  0  0  0
  4  5  1  0  0  0  0
  5  9  1  0  0  0  0
  5  6  2  0  0  0  0
  6 12  1  0  0  0  0
  7  2  1  0  0  0  0
  8  3  1  0  0  0  0
 10 13  1  0  0  0  0
 11 10  2  0  0  0  0
 12 10  1  0  0  0  0
 12 14  1  0  0  0  0
 15 17  1  0  0  0  0
 16 15  1  0  0  0  0
 18 15  1  0  0  0  0
 18 19  1  0  0  0  0
 20 18  1  0  0  0  0
 21 26  2  0  0  0  0
 21 22  1  0  0  0  0
 22 23  2  0  0  0  0
 23 24  1  0  0  0  0
 23 29  1  0  0  0  0
 25 18  1  0  0  0  0
 25 24  2  0  0  0  0
 26 25  1  0  0  0  0
 27 21  1  0  0  0  0
 28 22  1  0  0  0  0
 30  4  1  0  0  0  0
 31 30  2  0  0  0  0
 32 31  1  0  0  0  0
 32 33  1  0  0  0  0
M  END
>  <minimizedAffinity>
-4.83172703

$$$$

 OpenBabel03252501303D

 33 34  0  0  0  0  0  0  0  0999 V2000
   37.0830   29.2400   41.5530 C   0  0  0  0  0  0  0  0  0  0  0  0
   35.8480   28.9080   41.0760 C   0  0  0  0  0  0  0  0  0  0  0  0
   35.5080   28.9340   39.7600 C   0  0  0  0  0  0  0  0  0  0  0  0
   36.4380   29.3090   38.8550 C   0  0  0  0  0  0  0  0  0  0  0  0
   37.7010   29.6510   39.3030 C   0  0  0  0  0  0  0  0  0  0  0  0
   38.0340   29.6200   40.6480 C   0  0  0  0  0  0  0  0  0  0  0  0
   35.1290   28.6110   41.8570 H   0  0  0  0  0  0  0  0  0  0  0  0
   34.4890   28.6430   39.5330 H   0  0  0  0  0  0  0  0  0  0  0  0
   38.3550   29.9350   38.4600 H   0  0  0  0  0  0  0  0  0  0  0  0
   39.6300   31.4040   40.9610 C   0  0  0  0  0  0  0  0  0  0  0  0
   38.9850   32.5140   41.0690 O   0  0  0  0  0  0  0  0  0  0  0  0
   39.4090   30.0050   40.7250 N   0  0  0  0  0  0  0  0  0  0  0  0
   40.6270   31.8590   41.1270 H   0  0  0  0  0  0  0  0  0  0  0  0
   40.3200   29.5030   40.6480 H   0  0  0  0  0  0  0  0  0  0  0  0
   37.5710   29.2700   42.9320 C   0  0  0  0  0  0  0  0  0  0  0  0
   37.1230   30.1170   43.5120 H   0  0  0  0  0  0  0  0  0  0  0  0
   38.6580   29.4560   42.9120 H   0  0  0  0  0  0  0  0  0  0  0  0
   37.2210   27.9940   43.6770 C   0  0  0  0  0  0  0  0  0  0  0  0
   36.1940   27.6370   43.3730 H   0  0  0  0  0  0  0  0  0  0  0  0
   37.1720   28.1380   44.7630 H   0  0  0  0  0  0  0  0  0  0  0  0
   40.3220   26.0820   43.3130 C   0  0  0  0  0  0  0  0  0  0  0  0
   39.9140   24.9870   42.5110 C   0  0  0  0  0  0  0  0  0  0  0  0
   38.5790   24.9550   42.1310 C   0  0  0  0  0  0  0  0  0  0  0  0
   37.7470   25.9280   42.5200 N   0  0  0  0  0  0  0  0  0  0  0  0
   38.1930   26.9530   43.2860 C   0  0  0  0  0  0  0  0  0  0  0  0
   39.4410   27.0410   43.6800 N   0  0  0  0  0  0  0  0  0  0  0  0
   41.3590   26.1820   43.6570 H   0  0  0  0  0  0  0  0  0  0  0  0
   40.6790   24.2710   42.2680 H   0  0  0  0  0  0  0  0  0  0  0  0
   38.2970   24.1150   41.5260 H   0  0  0  0  0  0  0  0  0  0  0  0
   36.0620   29.3370   37.4150 C   0  0  0  0  0  3  0  0  0  0  0  0
   36.7440   29.9570   36.4780 C   0  0  0  0  0  3  0  0  0  0  0  0
   36.2630   29.9150   35.0530 C   0  0  0  0  0  2  0  0  0  0  0  0
   35.1450   30.0570   35.0740 H   0  0  0  0  0  0  0  0  0  0  0  0
  1 15  1  0  0  0  0
  2  1  1  0  0  0  0
  2  7  1  0  0  0  0
  3  2  2  0  0  0  0
  4  5  2  0  0  0  0
  4  3  1  0  0  0  0
  5  6  1  0  0  0  0
  6 12  1  0  0  0  0
  6  1  2  0  0  0  0
  8  3  1  0  0  0  0
  9  5  1  0  0  0  0
 10 11  2  0  0  0  0
 10 13  1  0  0  0  0
 12 10  1  0  0  0  0
 14 12  1  0  0  0  0
 15 16  1  0  0  0  0
 15 18  1  0  0  0  0
 17 15  1  0  0  0  0
 18 20  1  0  0  0  0
 19 18  1  0  0  0  0
 21 27  1  0  0  0  0
 21 26  1  0  0  0  0
 22 21  2  0  0  0  0
 23 22  1  0  0  0  0
 23 24  2  0  0  0  0
 24 25  1  0  0  0  0
 25 18  1  0  0  0  0
 25 26  2  0  0  0  0
 28 22  1  0  0  0  0
 29 23  1  0  0  0  0
 30  4  1  0  0  0  0
 31 30  2  0  0  0  0
 32 33  1  0  0  0  0
 32 31  1  0  0  0  0
M  END
>  <minimizedAffinity>
-4.75589514

$$$$
