
 OpenBabel03242514453D

 16 16  0  0  0  0  0  0  0  0999 V2000
   37.5530   29.4860   42.0550 C   0  0  0  0  0  0  0  0  0  0  0  0
   36.6950   28.4340   41.7410 C   0  0  0  0  0  0  0  0  0  0  0  0
   35.6530   28.6890   40.8380 C   0  0  0  0  0  0  0  0  0  0  0  0
   35.5440   29.9360   40.3290 N   0  0  0  0  0  0  0  0  0  0  0  0
   36.4060   30.9360   40.6650 C   0  0  0  0  0  0  0  0  0  0  0  0
   37.4070   30.7000   41.5290 N   0  0  0  0  0  0  0  0  0  0  0  0
   34.9380   27.9540   40.5270 H   0  0  0  0  0  0  0  0  0  0  0  0
   36.2290   31.9140   40.1950 H   0  0  0  0  0  0  0  0  0  0  0  0
   38.6640   29.2030   43.0220 C   0  0  0  0  0  0  0  0  0  0  0  0
   39.1450   28.2300   42.7800 H   0  0  0  0  0  0  0  0  0  0  0  0
   38.2820   29.2290   44.0620 H   0  0  0  0  0  0  0  0  0  0  0  0
   39.4380   30.0030   42.9710 H   0  0  0  0  0  0  0  0  0  0  0  0
   36.8260   27.1050   42.2960 C   0  0  0  0  0  3  0  0  0  0  0  0
   37.0790   26.0310   41.5790 C   0  0  0  0  0  3  0  0  0  0  0  0
   37.2130   24.6680   42.1550 C   0  0  0  0  0  2  0  0  0  0  0  0
   36.3950   24.0310   41.7480 H   0  0  0  0  0  0  0  0  0  0  0  0
  1  9  1  0  0  0  0
  2  1  1  0  0  0  0
  2 13  1  0  0  0  0
  3  2  2  0  0  0  0
  4  5  2  0  0  0  0
  4  3  1  0  0  0  0
  5  6  1  0  0  0  0
  6  1  2  0  0  0  0
  7  3  1  0  0  0  0
  8  5  1  0  0  0  0
  9 11  1  0  0  0  0
 10  9  1  0  0  0  0
 12  9  1  0  0  0  0
 14 15  1  0  0  0  0
 14 13  2  0  0  0  0
 16 15  1  0  0  0  0
M  END
>  <minimizedAffinity>
-3.66061568

$$$$

 OpenBabel03242514453D

 16 16  0  0  0  0  0  0  0  0999 V2000
   36.2280   28.9630   41.2390 C   0  0  0  0  0  0  0  0  0  0  0  0
   37.0100   30.1110   41.3460 C   0  0  0  0  0  0  0  0  0  0  0  0
   38.1380   30.0590   42.1790 C   0  0  0  0  0  0  0  0  0  0  0  0
   38.3950   28.9000   42.8250 N   0  0  0  0  0  0  0  0  0  0  0  0
   37.6040   27.8000   42.6910 C   0  0  0  0  0  0  0  0  0  0  0  0
   36.5220   27.8430   41.8950 N   0  0  0  0  0  0  0  0  0  0  0  0
   38.8050   30.8810   42.3340 H   0  0  0  0  0  0  0  0  0  0  0  0
   37.9020   26.9090   43.2610 H   0  0  0  0  0  0  0  0  0  0  0  0
   35.0260   29.0300   40.3460 C   0  0  0  0  0  0  0  0  0  0  0  0
   35.2830   29.5420   39.3920 H   0  0  0  0  0  0  0  0  0  0  0  0
   34.1870   29.5290   40.8700 H   0  0  0  0  0  0  0  0  0  0  0  0
   34.6580   28.0050   40.1080 H   0  0  0  0  0  0  0  0  0  0  0  0
   36.7180   31.3430   40.6470 C   0  0  0  0  0  3  0  0  0  0  0  0
   37.6330   32.2140   40.2770 C   0  0  0  0  0  3  0  0  0  0  0  0
   37.3260   33.4780   39.5590 C   0  0  0  0  0  2  0  0  0  0  0  0
   37.6170   34.3330   40.2110 H   0  0  0  0  0  0  0  0  0  0  0  0
  1  2  2  0  0  0  0
  1  6  1  0  0  0  0
  2  3  1  0  0  0  0
  3  7  1  0  0  0  0
  3  4  2  0  0  0  0
  5  4  1  0  0  0  0
  5  8  1  0  0  0  0
  6  5  2  0  0  0  0
  9 11  1  0  0  0  0
  9  1  1  0  0  0  0
 10  9  1  0  0  0  0
 12  9  1  0  0  0  0
 13  2  1  0  0  0  0
 14 13  2  0  0  0  0
 15 16  1  0  0  0  0
 15 14  1  0  0  0  0
M  END
>  <minimizedAffinity>
-3.57068515

$$$$

 OpenBabel03242514453D

 16 16  0  0  0  0  0  0  0  0999 V2000
   38.0640   25.3520   42.4140 C   0  0  0  0  0  0  0  0  0  0  0  0
   37.8660   26.7150   42.6210 C   0  0  0  0  0  0  0  0  0  0  0  0
   38.8750   27.4300   43.2820 C   0  0  0  0  0  0  0  0  0  0  0  0
   39.9760   26.7530   43.6790 N   0  0  0  0  0  0  0  0  0  0  0  0
   40.1290   25.4190   43.4560 C   0  0  0  0  0  0  0  0  0  0  0  0
   39.1660   24.7270   42.8230 N   0  0  0  0  0  0  0  0  0  0  0  0
   38.8250   28.4790   43.4930 H   0  0  0  0  0  0  0  0  0  0  0  0
   41.0620   24.9650   43.8190 H   0  0  0  0  0  0  0  0  0  0  0  0
   36.9780   24.5970   41.7060 C   0  0  0  0  0  0  0  0  0  0  0  0
   36.6130   25.1800   40.8320 H   0  0  0  0  0  0  0  0  0  0  0  0
   36.1600   24.3510   42.4120 H   0  0  0  0  0  0  0  0  0  0  0  0
   37.3600   23.6150   41.3420 H   0  0  0  0  0  0  0  0  0  0  0  0
   36.6800   27.4230   42.1900 C   0  0  0  0  0  3  0  0  0  0  0  0
   36.6480   28.2500   41.1680 C   0  0  0  0  0  3  0  0  0  0  0  0
   35.4270   28.9740   40.7300 C   0  0  0  0  0  2  0  0  0  0  0  0
   35.6000   30.0670   40.8570 H   0  0  0  0  0  0  0  0  0  0  0  0
  1  2  2  0  0  0  0
  1  6  1  0  0  0  0
  2  3  1  0  0  0  0
  3  7  1  0  0  0  0
  3  4  2  0  0  0  0
  5  4  1  0  0  0  0
  5  8  1  0  0  0  0
  6  5  2  0  0  0  0
  9 11  1  0  0  0  0
  9  1  1  0  0  0  0
 10  9  1  0  0  0  0
 12  9  1  0  0  0  0
 13  2  1  0  0  0  0
 14 13  2  0  0  0  0
 15 16  1  0  0  0  0
 15 14  1  0  0  0  0
M  END
>  <minimizedAffinity>
-3.55326343

$$$$

 OpenBabel03242514453D

 16 16  0  0  0  0  0  0  0  0999 V2000
   38.8240   26.6860   42.9000 C   0  0  0  0  0  0  0  0  0  0  0  0
   37.5460   26.5120   42.3730 C   0  0  0  0  0  0  0  0  0  0  0  0
   37.1320   25.2040   42.0830 C   0  0  0  0  0  0  0  0  0  0  0  0
   37.9960   24.1940   42.3320 N   0  0  0  0  0  0  0  0  0  0  0  0
   39.2370   24.4100   42.8490 C   0  0  0  0  0  0  0  0  0  0  0  0
   39.6420   25.6600   43.1290 N   0  0  0  0  0  0  0  0  0  0  0  0
   36.1720   24.9570   41.6760 H   0  0  0  0  0  0  0  0  0  0  0  0
   39.8610   23.5200   43.0130 H   0  0  0  0  0  0  0  0  0  0  0  0
   39.2570   28.0890   43.2060 C   0  0  0  0  0  0  0  0  0  0  0  0
   38.4360   28.6430   43.7110 H   0  0  0  0  0  0  0  0  0  0  0  0
   39.5910   28.5970   42.2800 H   0  0  0  0  0  0  0  0  0  0  0  0
   40.1470   28.0840   43.8780 H   0  0  0  0  0  0  0  0  0  0  0  0
   36.6350   27.6050   42.1120 C   0  0  0  0  0  3  0  0  0  0  0  0
   36.3440   28.0480   40.9080 C   0  0  0  0  0  3  0  0  0  0  0  0
   35.4080   29.1710   40.6460 C   0  0  0  0  0  2  0  0  0  0  0  0
   35.9790   30.0040   40.1760 H   0  0  0  0  0  0  0  0  0  0  0  0
  1  6  1  0  0  0  0
  1  9  1  0  0  0  0
  2  1  2  0  0  0  0
  3  4  2  0  0  0  0
  3  2  1  0  0  0  0
  4  5  1  0  0  0  0
  5  8  1  0  0  0  0
  5  6  2  0  0  0  0
  7  3  1  0  0  0  0
  9 10  1  0  0  0  0
  9 12  1  0  0  0  0
 11  9  1  0  0  0  0
 13  2  1  0  0  0  0
 14 13  2  0  0  0  0
 15 14  1  0  0  0  0
 16 15  1  0  0  0  0
M  END
>  <minimizedAffinity>
-3.49754572

$$$$

 OpenBabel03242514453D

 16 16  0  0  0  0  0  0  0  0999 V2000
   37.0870   30.2230   41.3280 C   0  0  0  0  0  0  0  0  0  0  0  0
   36.1870   29.1810   41.1160 C   0  0  0  0  0  0  0  0  0  0  0  0
   36.3860   27.9910   41.8310 C   0  0  0  0  0  0  0  0  0  0  0  0
   37.4370   27.9280   42.6790 N   0  0  0  0  0  0  0  0  0  0  0  0
   38.2930   28.9730   42.8550 C   0  0  0  0  0  0  0  0  0  0  0  0
   38.1090   30.1160   42.1740 N   0  0  0  0  0  0  0  0  0  0  0  0
   35.7560   27.1290   41.7450 H   0  0  0  0  0  0  0  0  0  0  0  0
   39.1150   28.8180   43.5680 H   0  0  0  0  0  0  0  0  0  0  0  0
   36.8640   31.4910   40.5580 C   0  0  0  0  0  0  0  0  0  0  0  0
   35.7850   31.7620   40.5670 H   0  0  0  0  0  0  0  0  0  0  0  0
   37.2570   31.3870   39.5270 H   0  0  0  0  0  0  0  0  0  0  0  0
   37.4420   32.3290   41.0120 H   0  0  0  0  0  0  0  0  0  0  0  0
   35.0680   29.2660   40.2040 C   0  0  0  0  0  3  0  0  0  0  0  0
   35.0370   28.6880   39.0220 C   0  0  0  0  0  3  0  0  0  0  0  0
   33.8850   28.7790   38.0890 C   0  0  0  0  0  2  0  0  0  0  0  0
   34.2170   29.3120   37.1690 H   0  0  0  0  0  0  0  0  0  0  0  0
  1  6  1  0  0  0  0
  2  1  2  0  0  0  0
  2  3  1  0  0  0  0
  3  4  2  0  0  0  0
  4  5  1  0  0  0  0
  5  8  1  0  0  0  0
  6  5  2  0  0  0  0
  7  3  1  0  0  0  0
  9 10  1  0  0  0  0
  9 12  1  0  0  0  0
  9  1  1  0  0  0  0
 11  9  1  0  0  0  0
 13  2  1  0  0  0  0
 14 13  2  0  0  0  0
 15 14  1  0  0  0  0
 16 15  1  0  0  0  0
M  END
>  <minimizedAffinity>
-3.48142529

$$$$

 OpenBabel03242514453D

 16 16  0  0  0  0  0  0  0  0999 V2000
   38.5510   29.7350   42.5520 C   0  0  0  0  0  0  0  0  0  0  0  0
   37.7100   29.9830   41.4690 C   0  0  0  0  0  0  0  0  0  0  0  0
   36.6080   29.1360   41.2900 C   0  0  0  0  0  0  0  0  0  0  0  0
   36.4290   28.1320   42.1770 N   0  0  0  0  0  0  0  0  0  0  0  0
   37.2760   27.9250   43.2230 C   0  0  0  0  0  0  0  0  0  0  0  0
   38.3350   28.7330   43.4010 N   0  0  0  0  0  0  0  0  0  0  0  0
   35.9000   29.2350   40.4930 H   0  0  0  0  0  0  0  0  0  0  0  0
   37.0400   27.0810   43.8860 H   0  0  0  0  0  0  0  0  0  0  0  0
   39.7270   30.6480   42.7340 C   0  0  0  0  0  0  0  0  0  0  0  0
   39.4200   31.7060   42.5810 H   0  0  0  0  0  0  0  0  0  0  0  0
   40.5500   30.3530   42.0530 H   0  0  0  0  0  0  0  0  0  0  0  0
   40.1440   30.5470   43.7630 H   0  0  0  0  0  0  0  0  0  0  0  0
   37.9180   31.0630   40.5290 C   0  0  0  0  0  3  0  0  0  0  0  0
   37.0400   32.0140   40.2950 C   0  0  0  0  0  3  0  0  0  0  0  0
   37.2590   33.1200   39.3280 C   0  0  0  0  0  2  0  0  0  0  0  0
   36.5040   33.0320   38.5140 H   0  0  0  0  0  0  0  0  0  0  0  0
  1  9  1  0  0  0  0
  1  6  1  0  0  0  0
  2  1  2  0  0  0  0
  3  2  1  0  0  0  0
  3  4  2  0  0  0  0
  4  5  1  0  0  0  0
  5  6  2  0  0  0  0
  5  8  1  0  0  0  0
  7  3  1  0  0  0  0
  9 12  1  0  0  0  0
 10  9  1  0  0  0  0
 11  9  1  0  0  0  0
 13  2  1  0  0  0  0
 14 13  2  0  0  0  0
 15 14  1  0  0  0  0
 16 15  1  0  0  0  0
M  END
>  <minimizedAffinity>
-3.43026781

$$$$

 OpenBabel03242514453D

 16 16  0  0  0  0  0  0  0  0999 V2000
   36.0920   29.8430   40.6310 C   0  0  0  0  0  0  0  0  0  0  0  0
   36.9190   29.1420   41.5070 C   0  0  0  0  0  0  0  0  0  0  0  0
   38.1040   29.7650   41.9250 C   0  0  0  0  0  0  0  0  0  0  0  0
   38.3710   31.0030   41.4540 N   0  0  0  0  0  0  0  0  0  0  0  0
   37.5330   31.6520   40.5990 C   0  0  0  0  0  0  0  0  0  0  0  0
   36.3960   31.0620   40.1930 N   0  0  0  0  0  0  0  0  0  0  0  0
   38.8100   29.3170   42.5950 H   0  0  0  0  0  0  0  0  0  0  0  0
   37.8440   32.6560   40.2760 H   0  0  0  0  0  0  0  0  0  0  0  0
   34.8280   29.1670   40.1900 C   0  0  0  0  0  0  0  0  0  0  0  0
   34.3290   28.6810   41.0570 H   0  0  0  0  0  0  0  0  0  0  0  0
   35.0430   28.4450   39.3770 H   0  0  0  0  0  0  0  0  0  0  0  0
   34.1240   29.9090   39.7470 H   0  0  0  0  0  0  0  0  0  0  0  0
   36.6180   27.8160   41.9990 C   0  0  0  0  0  3  0  0  0  0  0  0
   37.3140   26.7420   41.6930 C   0  0  0  0  0  3  0  0  0  0  0  0
   36.9990   25.3820   42.2030 C   0  0  0  0  0  2  0  0  0  0  0  0
   36.7260   24.7360   41.3380 H   0  0  0  0  0  0  0  0  0  0  0  0
  1  2  1  0  0  0  0
  2  3  2  0  0  0  0
  2 13  1  0  0  0  0
  3  7  1  0  0  0  0
  4  3  1  0  0  0  0
  5  4  2  0  0  0  0
  6  5  1  0  0  0  0
  6  1  2  0  0  0  0
  8  5  1  0  0  0  0
  9  1  1  0  0  0  0
  9 10  1  0  0  0  0
 11  9  1  0  0  0  0
 12  9  1  0  0  0  0
 14 13  2  0  0  0  0
 14 15  1  0  0  0  0
 16 15  1  0  0  0  0
M  END
>  <minimizedAffinity>
-3.40961432

$$$$

 OpenBabel03242514453D

 16 16  0  0  0  0  0  0  0  0999 V2000
   37.9390   26.6930   42.8690 C   0  0  0  0  0  0  0  0  0  0  0  0
   37.9160   25.3880   42.3800 C   0  0  0  0  0  0  0  0  0  0  0  0
   39.0580   24.5980   42.5710 C   0  0  0  0  0  0  0  0  0  0  0  0
   40.1100   25.1490   43.2170 N   0  0  0  0  0  0  0  0  0  0  0  0
   40.0900   26.4290   43.6800 C   0  0  0  0  0  0  0  0  0  0  0  0
   38.9990   27.1930   43.5000 N   0  0  0  0  0  0  0  0  0  0  0  0
   39.1470   23.5850   42.2360 H   0  0  0  0  0  0  0  0  0  0  0  0
   40.9970   26.7800   44.1910 H   0  0  0  0  0  0  0  0  0  0  0  0
   36.7120   27.5290   42.6590 C   0  0  0  0  0  0  0  0  0  0  0  0
   35.7980   26.9350   42.8830 H   0  0  0  0  0  0  0  0  0  0  0  0
   36.6980   27.9370   41.6290 H   0  0  0  0  0  0  0  0  0  0  0  0
   36.7270   28.4190   43.3300 H   0  0  0  0  0  0  0  0  0  0  0  0
   36.7800   24.8160   41.6900 C   0  0  0  0  0  3  0  0  0  0  0  0
   36.8760   24.0690   40.6110 C   0  0  0  0  0  3  0  0  0  0  0  0
   35.7060   23.4840   39.9060 C   0  0  0  0  0  2  0  0  0  0  0  0
   35.6540   23.9240   38.8840 H   0  0  0  0  0  0  0  0  0  0  0  0
  1  6  1  0  0  0  0
  2  3  1  0  0  0  0
  2  1  2  0  0  0  0
  3  4  2  0  0  0  0
  4  5  1  0  0  0  0
  5  8  1  0  0  0  0
  6  5  2  0  0  0  0
  7  3  1  0  0  0  0
  9  1  1  0  0  0  0
  9 10  1  0  0  0  0
  9 12  1  0  0  0  0
 11  9  1  0  0  0  0
 13  2  1  0  0  0  0
 14 13  2  0  0  0  0
 15 14  1  0  0  0  0
 16 15  1  0  0  0  0
M  END
>  <minimizedAffinity>
-3.3969748

$$$$

 OpenBabel03242514453D

 16 16  0  0  0  0  0  0  0  0999 V2000
   38.9630   31.1150   41.5470 C   0  0  0  0  0  0  0  0  0  0  0  0
   38.2760   30.0200   42.0680 C   0  0  0  0  0  0  0  0  0  0  0  0
   36.9230   29.8760   41.7280 C   0  0  0  0  0  0  0  0  0  0  0  0
   36.3690   30.8060   40.9190 N   0  0  0  0  0  0  0  0  0  0  0  0
   37.0780   31.8610   40.4320 C   0  0  0  0  0  0  0  0  0  0  0  0
   38.3750   32.0070   40.7530 N   0  0  0  0  0  0  0  0  0  0  0  0
   36.3020   29.0730   42.0720 H   0  0  0  0  0  0  0  0  0  0  0  0
   36.5330   32.5600   39.7820 H   0  0  0  0  0  0  0  0  0  0  0  0
   40.4090   31.2590   41.9170 C   0  0  0  0  0  0  0  0  0  0  0  0
   40.9240   30.2760   41.8470 H   0  0  0  0  0  0  0  0  0  0  0  0
   40.5030   31.7050   42.9260 H   0  0  0  0  0  0  0  0  0  0  0  0
   40.9180   31.9740   41.2290 H   0  0  0  0  0  0  0  0  0  0  0  0
   38.8860   29.0340   42.9340 C   0  0  0  0  0  3  0  0  0  0  0  0
   38.7630   27.7350   42.7690 C   0  0  0  0  0  3  0  0  0  0  0  0
   39.3910   26.7270   43.6620 C   0  0  0  0  0  2  0  0  0  0  0  0
   38.5830   26.1480   44.1640 H   0  0  0  0  0  0  0  0  0  0  0  0
  1  9  1  0  0  0  0
  1  2  1  0  0  0  0
  2 13  1  0  0  0  0
  3  2  2  0  0  0  0
  3  7  1  0  0  0  0
  4  3  1  0  0  0  0
  5  6  1  0  0  0  0
  5  4  2  0  0  0  0
  6  1  2  0  0  0  0
  8  5  1  0  0  0  0
  9 11  1  0  0  0  0
 10  9  1  0  0  0  0
 12  9  1  0  0  0  0
 14 13  2  0  0  0  0
 14 15  1  0  0  0  0
 15 16  1  0  0  0  0
M  END
>  <minimizedAffinity>
-3.343786

$$$$
