
 OpenBabel03252505573D

 31 32  0  0  0  0  0  0  0  0999 V2000
   45.8700   32.6900   47.5750 O   0  0  0  0  0  0  0  0  0  0  0  0
   45.0200   34.8720   44.9070 C   0  0  0  0  0  0  0  0  0  0  0  0
   45.9540   34.5610   43.9010 C   0  0  0  0  0  0  0  0  0  0  0  0
   46.8790   33.5620   44.2070 C   0  0  0  0  0  0  0  0  0  0  0  0
   46.8300   32.9700   45.4110 N   0  0  0  0  0  0  0  0  0  0  0  0
   45.9240   33.2990   46.3360 C   0  0  0  0  0  0  0  0  0  0  0  0
   45.0230   34.2430   46.0890 N   0  0  0  0  0  0  0  0  0  0  0  0
   44.2850   35.6580   44.6780 H   0  0  0  0  0  0  0  0  0  0  0  0
   45.9070   35.2910   42.6090 C   0  0  0  0  0  0  0  0  0  0  0  0
   45.0520   36.3640   42.8600 F   0  0  0  0  0  0  0  0  0  0  0  0
   45.2910   34.4440   41.6990 F   0  0  0  0  0  0  0  0  0  0  0  0
   47.1410   35.6930   42.2690 F   0  0  0  0  0  0  0  0  0  0  0  0
   47.8650   33.1220   43.2620 C   0  0  0  0  0  3  0  0  0  0  0  0
   47.6350   32.0660   42.4630 C   0  0  0  0  0  3  0  0  0  0  0  0
   46.3520   31.2920   42.5090 C   0  0  0  0  0  2  0  0  0  0  0  0
   46.1980   30.7830   43.4860 H   0  0  0  0  0  0  0  0  0  0  0  0
   45.3930   31.3680   47.7150 C   0  0  0  0  0  0  0  0  0  0  0  0
   44.8460   31.3370   48.6790 H   0  0  0  0  0  0  0  0  0  0  0  0
   44.6780   31.0700   46.9310 H   0  0  0  0  0  0  0  0  0  0  0  0
   46.5660   30.4810   47.8300 C   0  0  0  0  0  0  0  0  0  0  0  0
   46.7960   29.2090   47.3320 C   0  0  0  0  0  0  0  0  0  0  0  0
   47.9900   28.6280   47.5960 C   0  0  0  0  0  0  0  0  0  0  0  0
   48.9420   29.2160   48.3060 N   0  0  0  0  0  0  0  0  0  0  0  0
   48.7180   30.4490   48.7880 C   0  0  0  0  0  0  0  0  0  0  0  0
   47.5330   31.1070   48.5650 N   0  0  0  0  0  0  0  0  0  0  0  0
   45.9640   28.8490   46.7840 H   0  0  0  0  0  0  0  0  0  0  0  0
   48.1320   27.6360   47.1900 H   0  0  0  0  0  0  0  0  0  0  0  0
   49.8350   31.0440   49.5760 C   0  0  0  0  0  0  0  0  0  0  0  0
   49.8270   32.4080   49.5090 F   0  0  0  0  0  0  0  0  0  0  0  0
   51.0590   30.5630   49.0890 F   0  0  0  0  0  0  0  0  0  0  0  0
   49.7560   30.6900   50.9160 F   0  0  0  0  0  0  0  0  0  0  0  0
  1 17  1  0  0  0  0
  2  7  1  0  0  0  0
  3  4  1  0  0  0  0
  3  2  2  0  0  0  0
  4  5  2  0  0  0  0
  5  6  1  0  0  0  0
  6  1  1  0  0  0  0
  7  6  2  0  0  0  0
  8  2  1  0  0  0  0
  9 10  1  0  0  0  0
  9  3  1  0  0  0  0
 11  9  1  0  0  0  0
 12  9  1  0  0  0  0
 13  4  1  0  0  0  0
 14 15  1  0  0  0  0
 14 13  2  0  0  0  0
 15 16  1  0  0  0  0
 17 20  1  0  0  0  0
 17 18  1  0  0  0  0
 19 17  1  0  0  0  0
 20 25  1  0  0  0  0
 21 22  1  0  0  0  0
 21 20  2  0  0  0  0
 22 23  2  0  0  0  0
 23 24  1  0  0  0  0
 24 28  1  0  0  0  0
 25 24  2  0  0  0  0
 26 21  1  0  0  0  0
 27 22  1  0  0  0  0
 28 31  1  0  0  0  0
 29 28  1  0  0  0  0
 30 28  1  0  0  0  0
M  END
>  <minimizedAffinity>
-5.53315783

>  <minimizedRMSD>
0.662158668

$$$$
