REMARK  Name = 
REMARK  7 active torsions:
REMARK  status: ('A' for Active; 'I' for Inactive)
REMARK    1  A    between atoms: C_1  and  C_2
REMARK    2  A    between atoms: C_1  and  O_12
REMARK    3  A    between atoms: C_6  and  C_8
REMARK    4  A    between atoms: O_12  and  C_17
REMARK    5  A    between atoms: C_14  and  C_19
REMARK    6  A    between atoms: C_15  and  C_28
REMARK    7  A    between atoms: C_29  and  C_30
REMARK                            x       y       z     vdW  Elec       q    Type
REMARK                         _______ _______ _______ _____ _____    ______ ____
ROOT
ATOM      1  O   UNL     1      45.852  32.683  47.623  0.00  0.00    +0.000 OA
ENDROOT
BRANCH   1   6
ATOM      2  C   UNL     1      44.922  34.986  45.086  0.00  0.00    +0.000 A 
ATOM      3  C   UNL     1      45.775  34.672  44.011  0.00  0.00    +0.000 A 
ATOM      4  C   UNL     1      46.676  33.628  44.224  0.00  0.00    +0.000 A 
ATOM      5  N   UNL     1      46.681  32.998  45.410  0.00  0.00    +0.000 NA
ATOM      6  C   UNL     1      45.851  33.331  46.402  0.00  0.00    +0.000 A 
ATOM      7  N   UNL     1      44.976  34.317  46.245  0.00  0.00    +0.000 NA
ATOM      8  H   UNL     1      44.207  35.807  44.931  0.00  0.00    +0.000 HD
BRANCH   3   9
ATOM      9  C   UNL     1      45.674  35.447  42.749  0.00  0.00    +0.000 C 
ATOM     10  F   UNL     1      45.290  36.721  43.165  0.00  0.00    +0.000 F 
ATOM     11  F   UNL     1      44.630  34.889  42.026  0.00  0.00    +0.000 F 
ATOM     12  F   UNL     1      46.861  35.453  42.123  0.00  0.00    +0.000 F 
ENDBRANCH   3   9
BRANCH   4  13
ATOM     13  C   UNL     1      47.579  33.182  43.203  0.00  0.00    +0.000 C 
ATOM     14  C   UNL     1      48.463  32.197  43.442  0.00  0.00    +0.000 C 
BRANCH  14  15
ATOM     15  C   UNL     1      48.558  31.514  44.772  0.00  0.00    +0.000 C 
ATOM     16  H   UNL     1      48.876  32.206  45.584  0.00  0.00    +0.000 HD
ENDBRANCH  14  15
ENDBRANCH   4  13
ENDBRANCH   1   6
BRANCH   1  17
ATOM     17  C   UNL     1      45.399  31.350  47.739  0.00  0.00    +0.000 C 
ATOM     18  H   UNL     1      44.841  31.296  48.696  0.00  0.00    +0.000 HD
ATOM     19  H   UNL     1      44.699  31.050  46.942  0.00  0.00    +0.000 HD
BRANCH  17  20
ATOM     20  C   UNL     1      46.587  30.484  47.856  0.00  0.00    +0.000 A 
ATOM     21  C   UNL     1      46.837  29.213  47.365  0.00  0.00    +0.000 A 
ATOM     22  C   UNL     1      48.041  28.654  47.629  0.00  0.00    +0.000 A 
ATOM     23  N   UNL     1      48.986  29.262  48.332  0.00  0.00    +0.000 NA
ATOM     24  C   UNL     1      48.742  30.495  48.807  0.00  0.00    +0.000 A 
ATOM     25  N   UNL     1      47.546  31.131  48.583  0.00  0.00    +0.000 NA
ATOM     26  H   UNL     1      46.009  28.835  46.822  0.00  0.00    +0.000 HD
ATOM     27  H   UNL     1      48.199  27.662  47.229  0.00  0.00    +0.000 HD
BRANCH  24  28
ATOM     28  C   UNL     1      49.852  31.113  49.587  0.00  0.00    +0.000 C 
ATOM     29  F   UNL     1      49.831  32.476  49.496  0.00  0.00    +0.000 F 
ATOM     30  F   UNL     1      51.081  30.635  49.112  0.00  0.00    +0.000 F 
ATOM     31  F   UNL     1      49.772  30.782  50.933  0.00  0.00    +0.000 F 
ENDBRANCH  24  28
ENDBRANCH  17  20
ENDBRANCH   1  17
TORSDOF 7
