
 OpenBabel03252504553D

 26 27  0  0  1  0  0  0  0  0999 V2000
   47.9820   34.0230   42.0260 N   0  0  0  0  0  0  0  0  0  0  0  0
   47.8900   34.5220   40.6920 C   0  0  0  0  0  0  0  0  0  0  0  0
   48.8290   35.6770   40.7140 C   0  0  0  0  0  0  0  0  0  0  0  0
   49.4830   35.7480   42.0800 C   0  0  0  0  0  0  0  0  0  0  0  0
   49.1810   34.3330   42.6370 C   0  0  2  0  0  0  0  0  0  0  0  0
   47.3910   34.3160   39.7960 H   0  0  0  0  0  0  0  0  0  0  0  0
   49.0790   36.3680   39.9000 H   0  0  0  0  0  0  0  0  0  0  0  0
   50.5530   35.9160   41.9450 H   0  0  0  0  0  0  0  0  0  0  0  0
   48.9340   36.5120   42.6500 H   0  0  0  0  0  0  0  0  0  0  0  0
   49.2170   34.4560   43.7250 H   0  0  0  0  0  0  0  0  0  0  0  0
   46.9010   33.4080   42.5790 C   0  0  0  0  0  0  0  0  0  0  0  0
   47.2700   32.5190   43.1910 H   0  0  0  0  0  0  0  0  0  0  0  0
   46.1740   32.8880   41.9000 H   0  0  0  0  0  0  0  0  0  0  0  0
   44.7210   35.9960   44.2450 C   0  0  0  0  0  0  0  0  0  0  0  0
   45.4930   35.3850   43.2210 C   0  0  0  0  0  0  0  0  0  0  0  0
   46.1220   34.1820   43.5290 C   0  0  0  0  0  0  0  0  0  0  0  0
   45.9690   33.6650   44.7680 N   0  0  0  0  0  0  0  0  0  0  0  0
   45.2170   34.2750   45.7440 C   0  0  0  0  0  0  0  0  0  0  0  0
   44.6010   35.4310   45.4730 N   0  0  0  0  0  0  0  0  0  0  0  0
   44.2750   36.9300   43.8940 H   0  0  0  0  0  0  0  0  0  0  0  0
   45.6100   35.7990   42.2480 H   0  0  0  0  0  0  0  0  0  0  0  0
   45.1140   33.8370   46.7250 H   0  0  0  0  0  0  0  0  0  0  0  0
   50.3560   33.5000   42.2650 C   0  0  0  0  0  0  0  0  0  0  0  0
   50.3350   32.2840   41.7330 C   0  0  0  0  0  0  0  0  0  0  0  0
   51.6050   31.5340   41.3960 C   0  0  0  0  0  0  0  0  0  0  0  0
   51.9780   31.9230   40.4420 H   0  0  0  0  0  0  0  0  0  0  0  0
  1 11  1  0  0  0  0
  1  5  1  0  0  0  0
  2  3  2  0  0  0  0
  2  1  1  0  0  0  0
  3  4  1  0  0  0  0
  4  5  1  0  0  0  0
  4  9  1  0  0  0  0
  5 10  1  1  0  0  0
  6  2  1  0  0  0  0
  7  3  1  0  0  0  0
  8  4  1  0  0  0  0
 11 12  1  0  0  0  0
 11 16  1  0  0  0  0
 13 11  1  0  0  0  0
 14 19  1  0  0  0  0
 15 16  1  0  0  0  0
 15 14  2  0  0  0  0
 16 17  2  0  0  0  0
 17 18  1  0  0  0  0
 18 22  1  0  0  0  0
 19 18  2  0  0  0  0
 20 14  1  0  0  0  0
 21 15  1  0  0  0  0
 23  5  1  0  0  0  0
 24 23  2  0  0  0  0
 25 24  1  0  0  0  0
 26 25  1  0  0  0  0
M  END
>  <minimizedAffinity>
-4.90044546

>  <minimizedRMSD>
1.2557193

$$$$
