
 OpenBabel03242510293D

 29 30  0  0  1  0  0  0  0  0999 V2000
   45.7490   32.8830   39.0800 C   0  0  1  0  0  0  0  0  0  0  0  0
   45.6620   33.8610   40.2140 C   0  0  0  0  0  0  0  0  0  0  0  0
   44.3060   33.5710   40.8620 C   0  0  0  0  0  0  0  0  0  0  0  0
   43.2690   34.1200   39.8900 C   0  0  0  0  0  0  0  0  0  0  0  0
   43.3590   33.4860   38.5490 C   0  0  0  0  0  0  0  0  0  0  0  0
   44.7120   33.2060   38.0220 C   0  0  2  0  0  0  0  0  0  0  0  0
   45.5000   31.8810   39.4750 H   0  0  0  0  0  0  0  0  0  0  0  0
   46.5010   33.7750   40.9050 H   0  0  0  0  0  0  0  0  0  0  0  0
   45.5700   34.9190   39.8360 H   0  0  0  0  0  0  0  0  0  0  0  0
   44.1900   34.0300   41.8400 H   0  0  0  0  0  0  0  0  0  0  0  0
   44.1520   32.4560   40.8650 H   0  0  0  0  0  0  0  0  0  0  0  0
   43.4980   35.2150   39.7830 H   0  0  0  0  0  0  0  0  0  0  0  0
   42.2730   33.9430   40.3110 H   0  0  0  0  0  0  0  0  0  0  0  0
   42.7360   32.5670   38.5570 H   0  0  0  0  0  0  0  0  0  0  0  0
   42.8540   34.1770   37.8320 H   0  0  0  0  0  0  0  0  0  0  0  0
   45.1360   34.0170   37.4000 H   0  0  0  0  0  0  0  0  0  0  0  0
   48.8630   33.7290   37.0940 C   0  0  0  0  0  0  0  0  0  0  0  0
   47.5810   33.8920   37.6370 C   0  0  0  0  0  0  0  0  0  0  0  0
   47.0800   32.8540   38.4470 C   0  0  0  0  0  0  0  0  0  0  0  0
   47.8910   31.7810   38.6320 N   0  0  0  0  0  0  0  0  0  0  0  0
   49.1100   31.6510   38.1020 C   0  0  0  0  0  0  0  0  0  0  0  0
   49.6020   32.6230   37.3310 N   0  0  0  0  0  0  0  0  0  0  0  0
   49.2290   34.5290   36.4780 H   0  0  0  0  0  0  0  0  0  0  0  0
   46.9580   34.7390   37.4830 H   0  0  0  0  0  0  0  0  0  0  0  0
   49.6180   30.7240   38.3560 H   0  0  0  0  0  0  0  0  0  0  0  0
   44.6150   31.9980   37.1540 C   0  0  0  0  0  3  0  0  0  0  0  0
   44.2750   30.7780   37.5480 C   0  0  0  0  0  3  0  0  0  0  0  0
   43.9600   30.5770   38.9700 C   0  0  0  0  0  2  0  0  0  0  0  0
   43.8910   29.4670   39.1310 H   0  0  0  0  0  0  0  0  0  0  0  0
  1  7  1  1  0  0  0
  1  2  1  0  0  0  0
  2  3  1  0  0  0  0
  2  8  1  0  0  0  0
  3 11  1  0  0  0  0
  3 10  1  0  0  0  0
  4 13  1  0  0  0  0
  4  3  1  0  0  0  0
  5 14  1  0  0  0  0
  5  4  1  0  0  0  0
  6 16  1  6  0  0  0
  6  5  1  0  0  0  0
  6  1  1  0  0  0  0
  9  2  1  0  0  0  0
 12  4  1  0  0  0  0
 15  5  1  0  0  0  0
 17 22  2  0  0  0  0
 17 18  1  0  0  0  0
 18 19  2  0  0  0  0
 19 20  1  0  0  0  0
 19  1  1  0  0  0  0
 21 25  1  0  0  0  0
 21 20  2  0  0  0  0
 22 21  1  0  0  0  0
 23 17  1  0  0  0  0
 24 18  1  0  0  0  0
 26 27  2  0  0  0  0
 26  6  1  0  0  0  0
 27 28  1  0  0  0  0
 28 29  1  0  0  0  0
M  END
>  <minimizedAffinity>
-2.616642

>  <minimizedRMSD>
7.00261593

$$$$
