
 OpenBabel03242523193D

 32 34  0  0  0  0  0  0  0  0999 V2000
   47.3820   32.8120   43.9950 C   0  0  0  0  0  0  0  0  0  0  0  0
   48.2440   33.3180   43.1010 C   0  0  0  0  0  0  0  0  0  0  0  0
   49.0810   32.3840   42.5240 C   0  0  0  0  0  0  0  0  0  0  0  0
   48.9690   31.0350   42.9080 N   0  0  0  0  0  0  0  0  0  0  0  0
   48.0880   30.6280   43.8030 C   0  0  0  0  0  0  0  0  0  0  0  0
   47.2370   31.5190   44.3990 N   0  0  0  0  0  0  0  0  0  0  0  0
   49.8410   32.6100   41.7770 H   0  0  0  0  0  0  0  0  0  0  0  0
   48.1220   29.5540   43.9980 H   0  0  0  0  0  0  0  0  0  0  0  0
   48.4380   34.6880   42.8000 C   0  0  0  0  0  0  0  0  0  0  0  0
   49.4800   35.2780   42.1490 C   0  0  0  0  0  0  0  0  0  0  0  0
   48.2630   35.1150   41.2810 C   0  0  0  0  0  0  0  0  0  0  0  0
   47.9720   35.3830   43.5250 H   0  0  0  0  0  0  0  0  0  0  0  0
   50.3380   34.6290   41.7950 H   0  0  0  0  0  0  0  0  0  0  0  0
   49.8210   36.3370   42.1660 H   0  0  0  0  0  0  0  0  0  0  0  0
   47.5660   35.9740   41.1320 H   0  0  0  0  0  0  0  0  0  0  0  0
   48.1910   34.2440   40.6010 H   0  0  0  0  0  0  0  0  0  0  0  0
   46.3160   33.5440   44.6910 C   0  0  0  0  0  0  0  0  0  0  0  0
   45.7400   33.9340   45.6760 O   0  0  0  0  0  0  0  0  0  0  0  0
   44.4950   31.7560   42.9620 Cl  0  0  0  0  0  0  0  0  0  0  0  0
   44.5480   33.5160   42.8000 C   0  0  0  0  0  0  0  0  0  0  0  0
   45.4220   34.1730   43.6650 C   0  0  0  0  0  0  0  0  0  0  0  0
   45.3880   35.5420   43.4560 C   0  0  0  0  0  0  0  0  0  0  0  0
   44.6660   36.2560   42.5780 C   0  0  0  0  0  0  0  0  0  0  0  0
   43.8380   35.5370   41.7680 C   0  0  0  0  0  0  0  0  0  0  0  0
   43.7600   34.1870   41.8580 C   0  0  0  0  0  0  0  0  0  0  0  0
   46.0090   36.2020   44.0990 H   0  0  0  0  0  0  0  0  0  0  0  0
   44.6920   37.3300   42.4680 H   0  0  0  0  0  0  0  0  0  0  0  0
   43.2360   36.0680   41.0440 H   0  0  0  0  0  0  0  0  0  0  0  0
   42.8980   33.3390   41.0300 C   0  0  0  0  0  0  0  0  0  0  0  0
   41.5910   33.3330   40.9070 C   0  0  0  0  0  0  0  0  0  0  0  0
   40.4550   34.0930   41.4780 C   0  0  0  0  0  0  0  0  0  0  0  0
   39.4550   33.7380   41.1060 H   0  0  0  0  0  0  0  0  0  0  0  0
  1  6  1  0  0  0  0
  1 17  1  0  0  0  0
  2  1  2  0  0  0  0
  3  4  2  0  0  0  0
  3  2  1  0  0  0  0
  4  5  1  0  0  0  0
  5  8  1  0  0  0  0
  5  6  2  0  0  0  0
  7  3  1  0  0  0  0
  9  2  1  0  0  0  0
  9 12  1  0  0  0  0
 10 14  1  0  0  0  0
 10  9  1  0  0  0  0
 11 10  1  0  0  0  0
 11  9  1  0  0  0  0
 13 10  1  0  0  0  0
 15 11  1  0  0  0  0
 16 11  1  0  0  0  0
 17 18  2  0  0  0  0
 20 19  1  0  0  0  0
 20 21  1  0  0  0  0
 21 17  1  0  0  0  0
 22 21  2  0  0  0  0
 22 26  1  0  0  0  0
 23 22  1  0  0  0  0
 24 25  1  0  0  0  0
 24 23  2  0  0  0  0
 25 20  2  0  0  0  0
 27 23  1  0  0  0  0
 28 24  1  0  0  0  0
 29 25  1  0  0  0  0
 30 29  2  0  0  0  0
 30 31  1  0  0  0  0
 32 31  1  0  0  0  0
M  END
>  <minimizedAffinity>
-5.29436541

>  <minimizedRMSD>
1.00969422

$$$$
