
 OpenBabel03242521443D

 33 34  0  0  1  0  0  0  0  0999 V2000
   45.6270   35.5050   43.7380 C   0  0  0  0  0  0  0  0  0  0  0  0
   46.6580   34.7200   43.2090 C   0  0  0  0  0  0  0  0  0  0  0  0
   47.0570   33.5610   43.8870 C   0  0  0  0  0  0  0  0  0  0  0  0
   46.4180   33.2650   45.0170 N   0  0  0  0  0  0  0  0  0  0  0  0
   45.4230   34.0310   45.5180 C   0  0  0  0  0  0  0  0  0  0  0  0
   45.0230   35.1510   44.8830 N   0  0  0  0  0  0  0  0  0  0  0  0
   47.1020   35.0520   42.2920 H   0  0  0  0  0  0  0  0  0  0  0  0
   44.9380   33.7470   46.4380 H   0  0  0  0  0  0  0  0  0  0  0  0
   49.1180   33.5810   42.4990 C   0  0  2  0  0  0  0  0  0  0  0  0
   48.1390   32.7840   43.2860 C   0  0  2  0  0  0  0  0  0  0  0  0
   47.6950   31.8550   42.2980 O   0  0  0  0  0  0  0  0  0  0  0  0
   48.8900   31.3550   41.8180 C   0  0  0  0  0  0  0  0  0  0  0  0
   49.9560   32.4080   41.9460 C   0  0  1  0  0  0  0  0  0  0  0  0
   48.6860   34.0390   41.5830 H   0  0  0  0  0  0  0  0  0  0  0  0
   48.6740   32.1390   44.0090 H   0  0  0  0  0  0  0  0  0  0  0  0
   49.1770   30.5090   42.4770 H   0  0  0  0  0  0  0  0  0  0  0  0
   48.7960   30.9350   40.7900 H   0  0  0  0  0  0  0  0  0  0  0  0
   50.7250   32.1560   42.6860 H   0  0  0  0  0  0  0  0  0  0  0  0
   49.8360   34.4870   43.2180 O   0  0  0  0  0  0  0  0  0  0  0  0
   50.1410   35.2200   42.6150 H   0  0  0  0  0  0  0  0  0  0  0  0
   50.5180   32.7810   40.7340 O   0  0  0  0  0  0  0  0  0  0  0  0
   50.4220   32.0880   40.0340 H   0  0  0  0  0  0  0  0  0  0  0  0
   45.2210   36.7510   42.9950 C   0  0  0  0  0  0  0  0  0  0  0  0
   44.3960   36.5610   42.3080 H   0  0  0  0  0  0  0  0  0  0  0  0
   46.1040   37.1350   42.4410 H   0  0  0  0  0  0  0  0  0  0  0  0
   45.1960   39.1300   43.9880 C   0  0  0  0  0  0  0  0  0  0  0  0
   45.8060   39.5450   42.9640 O   0  0  0  0  0  0  0  0  0  0  0  0
   44.8990   37.7450   43.9940 N   0  0  0  0  0  0  0  0  0  0  0  0
   44.3690   37.3870   44.8430 H   0  0  0  0  0  0  0  0  0  0  0  0
   44.8320   40.0090   45.0660 C   0  0  0  0  0  3  0  0  0  0  0  0
   45.6400   40.3030   46.0430 C   0  0  0  0  0  3  0  0  0  0  0  0
   46.9990   39.7390   46.0960 C   0  0  0  0  0  2  0  0  0  0  0  0
   47.0190   38.6170   46.1570 H   0  0  0  0  0  0  0  0  0  0  0  0
  1  6  1  0  0  0  0
  2  1  2  0  0  0  0
  2  3  1  0  0  0  0
  3  4  2  0  0  0  0
  4  5  1  0  0  0  0
  5  8  1  0  0  0  0
  6  5  2  0  0  0  0
  7  2  1  0  0  0  0
  9 14  1  6  0  0  0
  9 19  1  0  0  0  0
  9 10  1  0  0  0  0
 10  3  1  0  0  0  0
 10 15  1  1  0  0  0
 11 10  1  0  0  0  0
 12 13  1  0  0  0  0
 12 11  1  0  0  0  0
 12 16  1  0  0  0  0
 13  9  1  0  0  0  0
 13 18  1  1  0  0  0
 17 12  1  0  0  0  0
 20 19  1  0  0  0  0
 21 13  1  0  0  0  0
 22 21  1  0  0  0  0
 23  1  1  0  0  0  0
 23 28  1  0  0  0  0
 24 23  1  0  0  0  0
 25 23  1  0  0  0  0
 26 28  1  0  0  0  0
 26 30  1  0  0  0  0
 27 26  2  0  0  0  0
 28 29  1  0  0  0  0
 30 31  2  0  0  0  0
 31 32  1  0  0  0  0
 32 33  1  0  0  0  0
M  END
>  <minimizedAffinity>
-1.9146117

>  <minimizedRMSD>
0.591215849

$$$$
