
 OpenBabel03252506283D

 42 45  0  0  0  0  0  0  0  0999 V2000
   46.7820   30.5170   48.3680 C   0  0  0  0  0  0  0  0  0  0  0  0
   47.0980   31.2200   49.1580 H   0  0  0  0  0  0  0  0  0  0  0  0
   47.4170   29.6310   48.4540 H   0  0  0  0  0  0  0  0  0  0  0  0
   46.6530   32.5110   45.4090 C   0  0  0  0  0  0  0  0  0  0  0  0
   47.4600   31.4240   44.9850 C   0  0  0  0  0  0  0  0  0  0  0  0
   47.6000   30.5690   46.0210 C   0  0  0  0  0  0  0  0  0  0  0  0
   46.9090   31.1010   47.0450 N   0  0  0  0  0  0  0  0  0  0  0  0
   46.3370   32.2640   46.6910 N   0  0  0  0  0  0  0  0  0  0  0  0
   47.8640   31.3530   43.9880 H   0  0  0  0  0  0  0  0  0  0  0  0
   48.1460   29.6380   46.0650 H   0  0  0  0  0  0  0  0  0  0  0  0
   44.9000   35.4550   44.1440 C   0  0  0  0  0  0  0  0  0  0  0  0
   45.5900   35.7520   42.9610 C   0  0  0  0  0  0  0  0  0  0  0  0
   46.6580   34.9260   42.6160 C   0  0  0  0  0  0  0  0  0  0  0  0
   46.9310   33.9120   43.4520 N   0  0  0  0  0  0  0  0  0  0  0  0
   46.2810   33.6320   44.5660 C   0  0  0  0  0  0  0  0  0  0  0  0
   45.2540   34.4190   44.9080 N   0  0  0  0  0  0  0  0  0  0  0  0
   44.0760   36.1170   44.3830 H   0  0  0  0  0  0  0  0  0  0  0  0
   45.3610   36.5760   42.2920 H   0  0  0  0  0  0  0  0  0  0  0  0
   47.4780   35.0880   41.4290 C   0  0  0  0  0  3  0  0  0  0  0  0
   47.3850   34.2750   40.4000 C   0  0  0  0  0  3  0  0  0  0  0  0
   48.1970   34.4090   39.1860 C   0  0  0  0  0  2  0  0  0  0  0  0
   47.6940   33.8870   38.3230 H   0  0  0  0  0  0  0  0  0  0  0  0
   45.3770   30.1190   48.6250 C   0  0  0  0  0  0  0  0  0  0  0  0
   45.2980   29.8910   49.7210 H   0  0  0  0  0  0  0  0  0  0  0  0
   44.7120   30.9930   48.4630 H   0  0  0  0  0  0  0  0  0  0  0  0
   44.9370   27.6140   48.2890 C   0  0  0  0  0  0  0  0  0  0  0  0
   44.8810   28.9390   47.9190 C   0  0  0  0  0  0  0  0  0  0  0  0
   44.2700   29.2160   46.7050 C   0  0  0  0  0  0  0  0  0  0  0  0
   43.7480   28.2200   45.9120 C   0  0  0  0  0  0  0  0  0  0  0  0
   43.1170   28.1850   44.7220 N   0  0  0  0  0  0  0  0  0  0  0  0
   42.8010   26.9340   44.3720 C   0  0  0  0  0  0  0  0  0  0  0  0
   43.2370   26.0700   45.3720 C   0  0  0  0  0  0  0  0  0  0  0  0
   43.8080   26.9040   46.2880 C   0  0  0  0  0  0  0  0  0  0  0  0
   44.4120   26.6190   47.4930 C   0  0  0  0  0  0  0  0  0  0  0  0
   45.4260   27.4460   49.2520 H   0  0  0  0  0  0  0  0  0  0  0  0
   44.1600   30.2120   46.2960 H   0  0  0  0  0  0  0  0  0  0  0  0
   42.9080   29.0510   44.1530 H   0  0  0  0  0  0  0  0  0  0  0  0
   42.2890   26.6960   43.4480 H   0  0  0  0  0  0  0  0  0  0  0  0
   43.1050   25.0000   45.3350 H   0  0  0  0  0  0  0  0  0  0  0  0
   44.5080   25.2360   47.9510 C   0  0  0  0  0  0  0  0  0  0  0  0
   45.1950   24.9330   48.9650 O   0  0  0  0  0  0  0  0  0  0  0  0
   43.9810   24.4490   47.4150 H   0  0  0  0  0  0  0  0  0  0  0  0
  1  3  1  0  0  0  0
  1 23  1  0  0  0  0
  1  2  1  0  0  0  0
  4  8  2  0  0  0  0
  5  4  1  0  0  0  0
  5  6  2  0  0  0  0
  6 10  1  0  0  0  0
  6  7  1  0  0  0  0
  7  1  1  0  0  0  0
  8  7  1  0  0  0  0
  9  5  1  0  0  0  0
 11 17  1  0  0  0  0
 11 16  1  0  0  0  0
 12 11  2  0  0  0  0
 13 12  1  0  0  0  0
 13 14  2  0  0  0  0
 14 15  1  0  0  0  0
 15 16  2  0  0  0  0
 15  4  1  0  0  0  0
 18 12  1  0  0  0  0
 19 13  1  0  0  0  0
 20 19  2  0  0  0  0
 21 20  1  0  0  0  0
 22 21  1  0  0  0  0
 23 24  1  0  0  0  0
 25 23  1  0  0  0  0
 26 35  1  0  0  0  0
 27 26  1  0  0  0  0
 27 23  1  0  0  0  0
 28 27  2  0  0  0  0
 29 33  2  0  0  0  0
 29 28  1  0  0  0  0
 30 29  1  0  0  0  0
 31 30  1  0  0  0  0
 31 32  2  0  0  0  0
 32 33  1  0  0  0  0
 33 34  1  0  0  0  0
 34 40  1  0  0  0  0
 34 26  2  0  0  0  0
 36 28  1  0  0  0  0
 37 30  1  0  0  0  0
 38 31  1  0  0  0  0
 39 32  1  0  0  0  0
 40 41  2  0  0  0  0
 42 40  1  0  0  0  0
M  END
>  <minimizedAffinity>
-5.56686831

>  <minimizedRMSD>
0.662386179

$$$$
