
 OpenBabel03252506303D

 42 45  0  0  0  0  0  0  0  0999 V2000
   36.1910   29.6400   37.4630 C   0  0  0  0  0  0  0  0  0  0  0  0
   36.4360   28.7110   36.9190 H   0  0  0  0  0  0  0  0  0  0  0  0
   35.6280   30.2770   36.7750 H   0  0  0  0  0  0  0  0  0  0  0  0
   38.6290   31.8790   38.8010 C   0  0  0  0  0  0  0  0  0  0  0  0
   39.4400   30.7970   38.3730 C   0  0  0  0  0  0  0  0  0  0  0  0
   38.6400   29.8520   37.8340 C   0  0  0  0  0  0  0  0  0  0  0  0
   37.3850   30.3270   37.9220 N   0  0  0  0  0  0  0  0  0  0  0  0
   37.3640   31.5400   38.5000 N   0  0  0  0  0  0  0  0  0  0  0  0
   40.5120   30.7920   38.4890 H   0  0  0  0  0  0  0  0  0  0  0  0
   38.9080   28.8970   37.4070 H   0  0  0  0  0  0  0  0  0  0  0  0
   38.7440   35.1660   40.3890 C   0  0  0  0  0  0  0  0  0  0  0  0
   40.1110   35.3580   40.6260 C   0  0  0  0  0  0  0  0  0  0  0  0
   40.9800   34.3410   40.2310 C   0  0  0  0  0  0  0  0  0  0  0  0
   40.4250   33.2640   39.6550 N   0  0  0  0  0  0  0  0  0  0  0  0
   39.1360   33.0830   39.4320 C   0  0  0  0  0  0  0  0  0  0  0  0
   38.2930   34.0520   39.8070 N   0  0  0  0  0  0  0  0  0  0  0  0
   38.0970   35.9750   40.7080 H   0  0  0  0  0  0  0  0  0  0  0  0
   40.5500   36.2340   41.0930 H   0  0  0  0  0  0  0  0  0  0  0  0
   42.4210   34.3750   40.4000 C   0  0  0  0  0  3  0  0  0  0  0  0
   42.9830   34.7960   41.5130 C   0  0  0  0  0  3  0  0  0  0  0  0
   44.4340   34.8430   41.7170 C   0  0  0  0  0  2  0  0  0  0  0  0
   44.6700   34.8460   42.8200 H   0  0  0  0  0  0  0  0  0  0  0  0
   35.3170   29.2970   38.6120 C   0  0  0  0  0  0  0  0  0  0  0  0
   34.9760   30.2670   39.0620 H   0  0  0  0  0  0  0  0  0  0  0  0
   34.3920   28.8120   38.2360 H   0  0  0  0  0  0  0  0  0  0  0  0
   36.3670   27.2220   39.6950 C   0  0  0  0  0  0  0  0  0  0  0  0
   35.9180   28.5240   39.6960 C   0  0  0  0  0  0  0  0  0  0  0  0
   36.0460   29.2210   40.8890 C   0  0  0  0  0  0  0  0  0  0  0  0
   36.5930   28.6420   42.0120 C   0  0  0  0  0  0  0  0  0  0  0  0
   36.8380   29.0550   43.2700 N   0  0  0  0  0  0  0  0  0  0  0  0
   37.3980   28.0870   44.0040 C   0  0  0  0  0  0  0  0  0  0  0  0
   37.5430   26.9560   43.2070 C   0  0  0  0  0  0  0  0  0  0  0  0
   37.0360   27.3460   42.0020 C   0  0  0  0  0  0  0  0  0  0  0  0
   36.9140   26.6470   40.8220 C   0  0  0  0  0  0  0  0  0  0  0  0
   36.2450   26.7160   38.7350 H   0  0  0  0  0  0  0  0  0  0  0  0
   35.7340   30.2480   41.0270 H   0  0  0  0  0  0  0  0  0  0  0  0
   36.6090   30.0280   43.6150 H   0  0  0  0  0  0  0  0  0  0  0  0
   37.6720   28.2240   45.0420 H   0  0  0  0  0  0  0  0  0  0  0  0
   37.9700   26.0300   43.5580 H   0  0  0  0  0  0  0  0  0  0  0  0
   37.3680   25.2610   40.7460 C   0  0  0  0  0  0  0  0  0  0  0  0
   36.5760   24.3040   40.9700 O   0  0  0  0  0  0  0  0  0  0  0  0
   38.4030   25.0420   40.4920 H   0  0  0  0  0  0  0  0  0  0  0  0
  1  7  1  0  0  0  0
  1 23  1  0  0  0  0
  2  1  1  0  0  0  0
  3  1  1  0  0  0  0
  4 15  1  0  0  0  0
  5  9  1  0  0  0  0
  5  4  1  0  0  0  0
  6  7  1  0  0  0  0
  6  5  2  0  0  0  0
  7  8  1  0  0  0  0
  8  4  2  0  0  0  0
 10  6  1  0  0  0  0
 11 12  1  0  0  0  0
 11 17  1  0  0  0  0
 12 18  1  0  0  0  0
 13 19  1  0  0  0  0
 13 12  2  0  0  0  0
 14 13  1  0  0  0  0
 15 14  2  0  0  0  0
 15 16  1  0  0  0  0
 16 11  2  0  0  0  0
 19 20  2  0  0  0  0
 20 21  1  0  0  0  0
 21 22  1  0  0  0  0
 23 24  1  0  0  0  0
 23 27  1  0  0  0  0
 25 23  1  0  0  0  0
 26 27  2  0  0  0  0
 26 34  1  0  0  0  0
 27 28  1  0  0  0  0
 28 36  1  0  0  0  0
 28 29  2  0  0  0  0
 29 30  1  0  0  0  0
 30 37  1  0  0  0  0
 30 31  1  0  0  0  0
 31 38  1  0  0  0  0
 32 39  1  0  0  0  0
 32 31  2  0  0  0  0
 33 29  1  0  0  0  0
 33 32  1  0  0  0  0
 34 33  2  0  0  0  0
 35 26  1  0  0  0  0
 40 34  1  0  0  0  0
 40 41  2  0  0  0  0
 42 40  1  0  0  0  0
M  END
>  <minimizedAffinity>
-6.4614296

$$$$

 OpenBabel03252506303D

 42 45  0  0  0  0  0  0  0  0999 V2000
   37.1810   32.7440   39.9560 C   0  0  0  0  0  0  0  0  0  0  0  0
   36.3850   33.3800   39.5310 H   0  0  0  0  0  0  0  0  0  0  0  0
   36.8980   32.5210   40.9890 H   0  0  0  0  0  0  0  0  0  0  0  0
   40.6100   33.6770   39.6150 C   0  0  0  0  0  0  0  0  0  0  0  0
   40.0320   34.8850   40.0820 C   0  0  0  0  0  0  0  0  0  0  0  0
   38.7090   34.6820   40.2600 C   0  0  0  0  0  0  0  0  0  0  0  0
   38.4750   33.4020   39.9190 N   0  0  0  0  0  0  0  0  0  0  0  0
   39.6060   32.7890   39.5310 N   0  0  0  0  0  0  0  0  0  0  0  0
   40.6080   35.7820   40.2450 H   0  0  0  0  0  0  0  0  0  0  0  0
   37.9550   35.3750   40.6030 H   0  0  0  0  0  0  0  0  0  0  0  0
   44.2420   34.0520   39.7250 C   0  0  0  0  0  0  0  0  0  0  0  0
   44.6830   33.1790   38.7230 C   0  0  0  0  0  0  0  0  0  0  0  0
   43.7130   32.4670   38.0190 C   0  0  0  0  0  0  0  0  0  0  0  0
   42.4350   32.6850   38.3660 N   0  0  0  0  0  0  0  0  0  0  0  0
   42.0190   33.5080   39.3100 C   0  0  0  0  0  0  0  0  0  0  0  0
   42.9420   34.1960   39.9930 N   0  0  0  0  0  0  0  0  0  0  0  0
   45.0210   34.5890   40.2530 H   0  0  0  0  0  0  0  0  0  0  0  0
   45.7200   33.0090   38.4500 H   0  0  0  0  0  0  0  0  0  0  0  0
   43.9920   31.5240   36.9520 C   0  0  0  0  0  3  0  0  0  0  0  0
   43.0470   30.7840   36.4100 C   0  0  0  0  0  3  0  0  0  0  0  0
   43.2930   29.8210   35.3320 C   0  0  0  0  0  2  0  0  0  0  0  0
   42.3360   29.6120   34.7740 H   0  0  0  0  0  0  0  0  0  0  0  0
   37.2260   31.4730   39.1930 C   0  0  0  0  0  0  0  0  0  0  0  0
   36.3610   31.4920   38.4780 H   0  0  0  0  0  0  0  0  0  0  0  0
   38.1310   31.4620   38.5510 H   0  0  0  0  0  0  0  0  0  0  0  0
   36.8880   28.9500   39.5120 C   0  0  0  0  0  0  0  0  0  0  0  0
   37.1040   30.2340   39.9590 C   0  0  0  0  0  0  0  0  0  0  0  0
   37.2280   30.3980   41.3310 C   0  0  0  0  0  0  0  0  0  0  0  0
   37.1390   29.3340   42.2000 C   0  0  0  0  0  0  0  0  0  0  0  0
   37.2160   29.1900   43.5370 N   0  0  0  0  0  0  0  0  0  0  0  0
   37.0600   27.9130   43.9020 C   0  0  0  0  0  0  0  0  0  0  0  0
   36.8670   27.1460   42.7570 C   0  0  0  0  0  0  0  0  0  0  0  0
   36.9240   28.0600   41.7460 C   0  0  0  0  0  0  0  0  0  0  0  0
   36.8000   27.8870   40.3850 C   0  0  0  0  0  0  0  0  0  0  0  0
   36.7980   28.8710   38.4260 H   0  0  0  0  0  0  0  0  0  0  0  0
   37.3990   31.3520   41.8140 H   0  0  0  0  0  0  0  0  0  0  0  0
   37.3800   29.9990   44.1970 H   0  0  0  0  0  0  0  0  0  0  0  0
   37.0900   27.5920   44.9360 H   0  0  0  0  0  0  0  0  0  0  0  0
   36.7160   26.0780   42.7740 H   0  0  0  0  0  0  0  0  0  0  0  0
   36.5700   26.5530   39.8380 C   0  0  0  0  0  0  0  0  0  0  0  0
   37.5350   25.7970   39.5400 O   0  0  0  0  0  0  0  0  0  0  0  0
   35.5530   26.1980   39.6820 H   0  0  0  0  0  0  0  0  0  0  0  0
  1  3  1  0  0  0  0
  2  1  1  0  0  0  0
  4  5  1  0  0  0  0
  5  9  1  0  0  0  0
  5  6  2  0  0  0  0
  6 10  1  0  0  0  0
  7  1  1  0  0  0  0
  7  6  1  0  0  0  0
  8  4  2  0  0  0  0
  8  7  1  0  0  0  0
 11 16  1  0  0  0  0
 11 17  1  0  0  0  0
 12 11  2  0  0  0  0
 13 14  2  0  0  0  0
 13 12  1  0  0  0  0
 14 15  1  0  0  0  0
 15  4  1  0  0  0  0
 15 16  2  0  0  0  0
 18 12  1  0  0  0  0
 19 13  1  0  0  0  0
 20 19  2  0  0  0  0
 21 20  1  0  0  0  0
 22 21  1  0  0  0  0
 23  1  1  0  0  0  0
 23 27  1  0  0  0  0
 24 23  1  0  0  0  0
 25 23  1  0  0  0  0
 26 27  2  0  0  0  0
 26 34  1  0  0  0  0
 27 28  1  0  0  0  0
 28 36  1  0  0  0  0
 28 29  2  0  0  0  0
 29 30  1  0  0  0  0
 30 31  1  0  0  0  0
 30 37  1  0  0  0  0
 31 38  1  0  0  0  0
 32 39  1  0  0  0  0
 32 31  2  0  0  0  0
 33 29  1  0  0  0  0
 33 32  1  0  0  0  0
 34 33  2  0  0  0  0
 35 26  1  0  0  0  0
 40 34  1  0  0  0  0
 41 40  2  0  0  0  0
 42 40  1  0  0  0  0
M  END
>  <minimizedAffinity>
-6.35438299

$$$$

 OpenBabel03252506303D

 42 45  0  0  0  0  0  0  0  0999 V2000
   40.2320   31.6360   40.8770 C   0  0  0  0  0  0  0  0  0  0  0  0
   40.7450   32.6080   40.7780 H   0  0  0  0  0  0  0  0  0  0  0  0
   40.9120   30.8720   40.4890 H   0  0  0  0  0  0  0  0  0  0  0  0
   37.4260   30.9150   38.7910 C   0  0  0  0  0  0  0  0  0  0  0  0
   37.0270   32.1360   39.3930 C   0  0  0  0  0  0  0  0  0  0  0  0
   38.0100   32.5400   40.2260 C   0  0  0  0  0  0  0  0  0  0  0  0
   38.9780   31.6110   40.1460 N   0  0  0  0  0  0  0  0  0  0  0  0
   38.6400   30.6320   39.2890 N   0  0  0  0  0  0  0  0  0  0  0  0
   36.0830   32.6100   39.1780 H   0  0  0  0  0  0  0  0  0  0  0  0
   38.0530   33.4210   40.8500 H   0  0  0  0  0  0  0  0  0  0  0  0
   34.9210   28.6570   37.3880 C   0  0  0  0  0  0  0  0  0  0  0  0
   35.1180   28.7820   36.0070 C   0  0  0  0  0  0  0  0  0  0  0  0
   36.1210   29.6500   35.5770 C   0  0  0  0  0  0  0  0  0  0  0  0
   36.8120   30.2930   36.5310 N   0  0  0  0  0  0  0  0  0  0  0  0
   36.6260   30.1760   37.8330 C   0  0  0  0  0  0  0  0  0  0  0  0
   35.6660   29.3450   38.2560 N   0  0  0  0  0  0  0  0  0  0  0  0
   34.1340   27.9750   37.6880 H   0  0  0  0  0  0  0  0  0  0  0  0
   34.5530   28.2570   35.2430 H   0  0  0  0  0  0  0  0  0  0  0  0
   36.4590   29.8980   34.1870 C   0  0  0  0  0  3  0  0  0  0  0  0
   36.1870   31.0420   33.5970 C   0  0  0  0  0  3  0  0  0  0  0  0
   36.5150   31.3270   32.1960 C   0  0  0  0  0  2  0  0  0  0  0  0
   36.5630   32.4410   32.0280 H   0  0  0  0  0  0  0  0  0  0  0  0
   39.9970   31.3710   42.3170 C   0  0  0  0  0  0  0  0  0  0  0  0
   40.9510   31.6160   42.8540 H   0  0  0  0  0  0  0  0  0  0  0  0
   39.2520   32.0970   42.7060 H   0  0  0  0  0  0  0  0  0  0  0  0
   38.4170   29.4670   42.9960 C   0  0  0  0  0  0  0  0  0  0  0  0
   39.6490   30.0020   42.6930 C   0  0  0  0  0  0  0  0  0  0  0  0
   40.7300   29.1340   42.7470 C   0  0  0  0  0  0  0  0  0  0  0  0
   40.5790   27.8080   43.0850 C   0  0  0  0  0  0  0  0  0  0  0  0
   41.4150   26.7610   43.2170 N   0  0  0  0  0  0  0  0  0  0  0  0
   40.7580   25.6520   43.5750 C   0  0  0  0  0  0  0  0  0  0  0  0
   39.4060   25.9570   43.6930 C   0  0  0  0  0  0  0  0  0  0  0  0
   39.3490   27.2840   43.3840 C   0  0  0  0  0  0  0  0  0  0  0  0
   38.2700   28.1390   43.3320 C   0  0  0  0  0  0  0  0  0  0  0  0
   37.5980   30.1880   42.9390 H   0  0  0  0  0  0  0  0  0  0  0  0
   41.7500   29.4240   42.5340 H   0  0  0  0  0  0  0  0  0  0  0  0
   42.4570   26.8280   43.0540 H   0  0  0  0  0  0  0  0  0  0  0  0
   41.2540   24.7020   43.7300 H   0  0  0  0  0  0  0  0  0  0  0  0
   38.6540   25.2350   43.9710 H   0  0  0  0  0  0  0  0  0  0  0  0
   36.9320   27.6420   43.6400 C   0  0  0  0  0  0  0  0  0  0  0  0
   36.4480   27.7530   44.8010 O   0  0  0  0  0  0  0  0  0  0  0  0
   36.3370   27.1670   42.8630 H   0  0  0  0  0  0  0  0  0  0  0  0
  1 23  1  0  0  0  0
  2  1  1  0  0  0  0
  3  1  1  0  0  0  0
  4  8  2  0  0  0  0
  4  5  1  0  0  0  0
  5  6  2  0  0  0  0
  6 10  1  0  0  0  0
  7  6  1  0  0  0  0
  7  1  1  0  0  0  0
  8  7  1  0  0  0  0
  9  5  1  0  0  0  0
 11 17  1  0  0  0  0
 11 16  1  0  0  0  0
 12 11  2  0  0  0  0
 13 12  1  0  0  0  0
 13 14  2  0  0  0  0
 14 15  1  0  0  0  0
 15 16  2  0  0  0  0
 15  4  1  0  0  0  0
 18 12  1  0  0  0  0
 19 13  1  0  0  0  0
 20 19  2  0  0  0  0
 21 20  1  0  0  0  0
 22 21  1  0  0  0  0
 23 27  1  0  0  0  0
 23 25  1  0  0  0  0
 23 24  1  0  0  0  0
 26 34  1  0  0  0  0
 27 28  1  0  0  0  0
 27 26  2  0  0  0  0
 28 29  2  0  0  0  0
 29 30  1  0  0  0  0
 29 33  1  0  0  0  0
 30 31  1  0  0  0  0
 31 32  2  0  0  0  0
 31 38  1  0  0  0  0
 32 39  1  0  0  0  0
 33 32  1  0  0  0  0
 34 33  2  0  0  0  0
 34 40  1  0  0  0  0
 35 26  1  0  0  0  0
 36 28  1  0  0  0  0
 37 30  1  0  0  0  0
 40 41  2  0  0  0  0
 42 40  1  0  0  0  0
M  END
>  <minimizedAffinity>
-6.27719879

$$$$

 OpenBabel03252506303D

 42 45  0  0  0  0  0  0  0  0999 V2000
   37.2640   30.2490   37.8000 C   0  0  0  0  0  0  0  0  0  0  0  0
   38.0410   29.4800   37.6500 H   0  0  0  0  0  0  0  0  0  0  0  0
   36.9230   30.5590   36.8080 H   0  0  0  0  0  0  0  0  0  0  0  0
   39.1860   32.6990   39.5460 C   0  0  0  0  0  0  0  0  0  0  0  0
   37.8860   33.2620   39.6050 C   0  0  0  0  0  0  0  0  0  0  0  0
   37.0320   32.4290   38.9720 C   0  0  0  0  0  0  0  0  0  0  0  0
   37.7700   31.3920   38.5380 N   0  0  0  0  0  0  0  0  0  0  0  0
   39.0620   31.5410   38.8760 N   0  0  0  0  0  0  0  0  0  0  0  0
   37.6810   34.2040   40.0900 H   0  0  0  0  0  0  0  0  0  0  0  0
   35.9680   32.5340   38.8190 H   0  0  0  0  0  0  0  0  0  0  0  0
   41.7460   35.1670   40.3820 C   0  0  0  0  0  0  0  0  0  0  0  0
   42.6150   34.4540   41.2170 C   0  0  0  0  0  0  0  0  0  0  0  0
   42.3030   33.1210   41.4820 C   0  0  0  0  0  0  0  0  0  0  0  0
   41.1900   32.6370   40.9080 N   0  0  0  0  0  0  0  0  0  0  0  0
   40.3700   33.3100   40.1210 C   0  0  0  0  0  0  0  0  0  0  0  0
   40.6610   34.5900   39.8610 N   0  0  0  0  0  0  0  0  0  0  0  0
   42.0170   36.2000   40.1970 H   0  0  0  0  0  0  0  0  0  0  0  0
   43.5130   34.8550   41.6760 H   0  0  0  0  0  0  0  0  0  0  0  0
   43.0910   32.2390   42.3220 C   0  0  0  0  0  3  0  0  0  0  0  0
   42.5330   31.3550   43.1220 C   0  0  0  0  0  3  0  0  0  0  0  0
   43.2980   30.4480   43.9840 C   0  0  0  0  0  2  0  0  0  0  0  0
   42.6700   29.5520   44.2580 H   0  0  0  0  0  0  0  0  0  0  0  0
   36.1230   29.6330   38.5200 C   0  0  0  0  0  0  0  0  0  0  0  0
   35.5120   30.4730   38.9420 H   0  0  0  0  0  0  0  0  0  0  0  0
   35.4560   29.1310   37.7880 H   0  0  0  0  0  0  0  0  0  0  0  0
   36.7140   27.3980   39.6330 C   0  0  0  0  0  0  0  0  0  0  0  0
   36.4420   28.7480   39.6380 C   0  0  0  0  0  0  0  0  0  0  0  0
   36.4710   29.3800   40.8730 C   0  0  0  0  0  0  0  0  0  0  0  0
   36.7560   28.6930   42.0320 C   0  0  0  0  0  0  0  0  0  0  0  0
   36.8520   29.0260   43.3340 N   0  0  0  0  0  0  0  0  0  0  0  0
   37.1620   27.9670   44.0890 C   0  0  0  0  0  0  0  0  0  0  0  0
   37.2830   26.8540   43.2620 C   0  0  0  0  0  0  0  0  0  0  0  0
   37.0250   27.3510   42.0180 C   0  0  0  0  0  0  0  0  0  0  0  0
   37.0000   26.7160   40.7960 C   0  0  0  0  0  0  0  0  0  0  0  0
   36.6810   26.9470   38.6390 H   0  0  0  0  0  0  0  0  0  0  0  0
   36.2760   30.4340   41.0190 H   0  0  0  0  0  0  0  0  0  0  0  0
   36.6990   30.0090   43.6930 H   0  0  0  0  0  0  0  0  0  0  0  0
   37.2850   28.0290   45.1630 H   0  0  0  0  0  0  0  0  0  0  0  0
   37.5270   25.8670   43.6220 H   0  0  0  0  0  0  0  0  0  0  0  0
   37.2780   25.2850   40.7130 C   0  0  0  0  0  0  0  0  0  0  0  0
   36.3840   24.4320   40.9700 O   0  0  0  0  0  0  0  0  0  0  0  0
   38.2700   24.9400   40.4250 H   0  0  0  0  0  0  0  0  0  0  0  0
  1 23  1  0  0  0  0
  1  7  1  0  0  0  0
  2  1  1  0  0  0  0
  3  1  1  0  0  0  0
  4  5  1  0  0  0  0
  4 15  1  0  0  0  0
  5  9  1  0  0  0  0
  6  5  2  0  0  0  0
  7  8  1  0  0  0  0
  7  6  1  0  0  0  0
  8  4  2  0  0  0  0
 10  6  1  0  0  0  0
 11 12  1  0  0  0  0
 12 13  2  0  0  0  0
 12 18  1  0  0  0  0
 13 19  1  0  0  0  0
 14 13  1  0  0  0  0
 15 14  2  0  0  0  0
 16 15  1  0  0  0  0
 16 11  2  0  0  0  0
 17 11  1  0  0  0  0
 19 20  2  0  0  0  0
 20 21  1  0  0  0  0
 21 22  1  0  0  0  0
 23 24  1  0  0  0  0
 23 27  1  0  0  0  0
 25 23  1  0  0  0  0
 26 27  2  0  0  0  0
 26 34  1  0  0  0  0
 27 28  1  0  0  0  0
 28 36  1  0  0  0  0
 28 29  2  0  0  0  0
 29 30  1  0  0  0  0
 30 37  1  0  0  0  0
 30 31  1  0  0  0  0
 31 38  1  0  0  0  0
 32 39  1  0  0  0  0
 32 31  2  0  0  0  0
 33 29  1  0  0  0  0
 33 32  1  0  0  0  0
 34 33  2  0  0  0  0
 35 26  1  0  0  0  0
 40 34  1  0  0  0  0
 40 41  2  0  0  0  0
 42 40  1  0  0  0  0
M  END
>  <minimizedAffinity>
-6.20658875

$$$$

 OpenBabel03252506303D

 42 45  0  0  0  0  0  0  0  0999 V2000
   35.8880   29.6020   37.9850 C   0  0  0  0  0  0  0  0  0  0  0  0
   36.0620   28.6740   37.4130 H   0  0  0  0  0  0  0  0  0  0  0  0
   35.2200   30.2280   37.3870 H   0  0  0  0  0  0  0  0  0  0  0  0
   38.4660   31.8720   38.9580 C   0  0  0  0  0  0  0  0  0  0  0  0
   39.2180   30.8170   38.3830 C   0  0  0  0  0  0  0  0  0  0  0  0
   38.3600   29.8630   37.9610 C   0  0  0  0  0  0  0  0  0  0  0  0
   37.1270   30.3080   38.2600 N   0  0  0  0  0  0  0  0  0  0  0  0
   37.1760   31.5100   38.8580 N   0  0  0  0  0  0  0  0  0  0  0  0
   40.2950   30.8330   38.3240 H   0  0  0  0  0  0  0  0  0  0  0  0
   38.5740   28.9220   37.4770 H   0  0  0  0  0  0  0  0  0  0  0  0
   38.7720   35.1930   40.4490 C   0  0  0  0  0  0  0  0  0  0  0  0
   40.1560   35.3510   40.5920 C   0  0  0  0  0  0  0  0  0  0  0  0
   40.9700   34.3020   40.1690 C   0  0  0  0  0  0  0  0  0  0  0  0
   40.3500   33.2260   39.6580 N   0  0  0  0  0  0  0  0  0  0  0  0
   39.0450   33.0770   39.5230 C   0  0  0  0  0  0  0  0  0  0  0  0
   38.2550   34.0780   39.9270 N   0  0  0  0  0  0  0  0  0  0  0  0
   38.1680   36.0270   40.7880 H   0  0  0  0  0  0  0  0  0  0  0  0
   40.6470   36.2260   41.0070 H   0  0  0  0  0  0  0  0  0  0  0  0
   42.4190   34.2990   40.2430 C   0  0  0  0  0  3  0  0  0  0  0  0
   43.0620   34.6140   41.3470 C   0  0  0  0  0  3  0  0  0  0  0  0
   44.5240   34.6210   41.4580 C   0  0  0  0  0  2  0  0  0  0  0  0
   44.8310   34.5260   42.5390 H   0  0  0  0  0  0  0  0  0  0  0  0
   35.2000   29.2530   39.2520 C   0  0  0  0  0  0  0  0  0  0  0  0
   34.9970   30.2170   39.7890 H   0  0  0  0  0  0  0  0  0  0  0  0
   34.1980   28.8350   39.0210 H   0  0  0  0  0  0  0  0  0  0  0  0
   36.3460   28.6740   41.4730 C   0  0  0  0  0  0  0  0  0  0  0  0
   35.9270   28.4010   40.1900 C   0  0  0  0  0  0  0  0  0  0  0  0
   36.2290   27.1400   39.6970 C   0  0  0  0  0  0  0  0  0  0  0  0
   36.9110   26.2110   40.4510 C   0  0  0  0  0  0  0  0  0  0  0  0
   37.3330   24.9480   40.2470 N   0  0  0  0  0  0  0  0  0  0  0  0
   37.9680   24.4650   41.3200 C   0  0  0  0  0  0  0  0  0  0  0  0
   37.9800   25.4460   42.3070 C   0  0  0  0  0  0  0  0  0  0  0  0
   37.3230   26.4910   41.7260 C   0  0  0  0  0  0  0  0  0  0  0  0
   37.0270   27.7410   42.2240 C   0  0  0  0  0  0  0  0  0  0  0  0
   36.0840   29.6770   41.8170 H   0  0  0  0  0  0  0  0  0  0  0  0
   35.9600   26.7960   38.7070 H   0  0  0  0  0  0  0  0  0  0  0  0
   37.1720   24.4220   39.3440 H   0  0  0  0  0  0  0  0  0  0  0  0
   38.3820   23.4650   41.3550 H   0  0  0  0  0  0  0  0  0  0  0  0
   38.4330   25.3120   43.2760 H   0  0  0  0  0  0  0  0  0  0  0  0
   37.4390   28.1020   43.5770 C   0  0  0  0  0  0  0  0  0  0  0  0
   36.6810   27.8940   44.5650 O   0  0  0  0  0  0  0  0  0  0  0  0
   38.4130   28.5570   43.7460 H   0  0  0  0  0  0  0  0  0  0  0  0
  1  7  1  0  0  0  0
  1 23  1  0  0  0  0
  2  1  1  0  0  0  0
  3  1  1  0  0  0  0
  4 15  1  0  0  0  0
  5  4  1  0  0  0  0
  6  7  1  0  0  0  0
  6  5  2  0  0  0  0
  7  8  1  0  0  0  0
  8  4  2  0  0  0  0
  9  5  1  0  0  0  0
 10  6  1  0  0  0  0
 11 12  1  0  0  0  0
 11 17  1  0  0  0  0
 12 18  1  0  0  0  0
 13 19  1  0  0  0  0
 13 12  2  0  0  0  0
 14 13  1  0  0  0  0
 15 14  2  0  0  0  0
 15 16  1  0  0  0  0
 16 11  2  0  0  0  0
 19 20  2  0  0  0  0
 20 21  1  0  0  0  0
 21 22  1  0  0  0  0
 23 24  1  0  0  0  0
 23 27  1  0  0  0  0
 25 23  1  0  0  0  0
 26 35  1  0  0  0  0
 26 34  1  0  0  0  0
 27 26  2  0  0  0  0
 28 27  1  0  0  0  0
 28 29  2  0  0  0  0
 29 33  1  0  0  0  0
 30 29  1  0  0  0  0
 30 31  1  0  0  0  0
 31 38  1  0  0  0  0
 31 32  2  0  0  0  0
 32 39  1  0  0  0  0
 33 34  2  0  0  0  0
 33 32  1  0  0  0  0
 34 40  1  0  0  0  0
 36 28  1  0  0  0  0
 37 30  1  0  0  0  0
 40 42  1  0  0  0  0
 40 41  2  0  0  0  0
M  END
>  <minimizedAffinity>
-6.16168308

$$$$

 OpenBabel03252506303D

 42 45  0  0  0  0  0  0  0  0999 V2000
   36.2890   30.9090   40.9760 C   0  0  0  0  0  0  0  0  0  0  0  0
   36.4560   31.8030   41.6020 H   0  0  0  0  0  0  0  0  0  0  0  0
   35.2110   30.7270   40.9550 H   0  0  0  0  0  0  0  0  0  0  0  0
   37.5860   27.6710   41.7380 C   0  0  0  0  0  0  0  0  0  0  0  0
   38.2910   28.4850   42.6610 C   0  0  0  0  0  0  0  0  0  0  0  0
   37.8970   29.7650   42.4880 C   0  0  0  0  0  0  0  0  0  0  0  0
   36.9850   29.7480   41.5000 N   0  0  0  0  0  0  0  0  0  0  0  0
   36.7900   28.4990   41.0420 N   0  0  0  0  0  0  0  0  0  0  0  0
   39.0100   28.0850   43.3590 H   0  0  0  0  0  0  0  0  0  0  0  0
   38.2200   30.6520   43.0110 H   0  0  0  0  0  0  0  0  0  0  0  0
   38.9320   24.2990   42.1350 C   0  0  0  0  0  0  0  0  0  0  0  0
   38.0320   23.5100   41.4080 C   0  0  0  0  0  0  0  0  0  0  0  0
   36.9660   24.1570   40.7860 C   0  0  0  0  0  0  0  0  0  0  0  0
   36.8970   25.4890   40.9410 N   0  0  0  0  0  0  0  0  0  0  0  0
   37.7450   26.2330   41.6270 C   0  0  0  0  0  0  0  0  0  0  0  0
   38.7720   25.6210   42.2270 N   0  0  0  0  0  0  0  0  0  0  0  0
   39.7490   23.7640   42.6050 H   0  0  0  0  0  0  0  0  0  0  0  0
   38.0970   22.4320   41.2890 H   0  0  0  0  0  0  0  0  0  0  0  0
   35.9450   23.4960   39.9950 C   0  0  0  0  0  3  0  0  0  0  0  0
   35.4950   24.0070   38.8690 C   0  0  0  0  0  3  0  0  0  0  0  0
   34.4650   23.3660   38.0450 C   0  0  0  0  0  2  0  0  0  0  0  0
   34.5250   23.7470   36.9850 H   0  0  0  0  0  0  0  0  0  0  0  0
   36.7450   31.2070   39.5960 C   0  0  0  0  0  0  0  0  0  0  0  0
   36.9490   30.2210   39.1010 H   0  0  0  0  0  0  0  0  0  0  0  0
   35.9060   31.6510   39.0210 H   0  0  0  0  0  0  0  0  0  0  0  0
   39.0100   31.8470   38.5750 C   0  0  0  0  0  0  0  0  0  0  0  0
   37.9630   32.0020   39.4560 C   0  0  0  0  0  0  0  0  0  0  0  0
   38.0580   33.0600   40.3490 C   0  0  0  0  0  0  0  0  0  0  0  0
   39.1420   33.9100   40.3530 C   0  0  0  0  0  0  0  0  0  0  0  0
   39.5010   34.9870   41.0770 N   0  0  0  0  0  0  0  0  0  0  0  0
   40.6820   35.4720   40.6810 C   0  0  0  0  0  0  0  0  0  0  0  0
   41.1550   34.6870   39.6340 C   0  0  0  0  0  0  0  0  0  0  0  0
   40.1780   33.7480   39.4730 C   0  0  0  0  0  0  0  0  0  0  0  0
   40.0920   32.7000   38.5830 C   0  0  0  0  0  0  0  0  0  0  0  0
   38.8890   31.0020   37.8940 H   0  0  0  0  0  0  0  0  0  0  0  0
   37.3080   33.2940   41.0920 H   0  0  0  0  0  0  0  0  0  0  0  0
   38.9070   35.3850   41.8570 H   0  0  0  0  0  0  0  0  0  0  0  0
   41.1440   36.3380   41.1390 H   0  0  0  0  0  0  0  0  0  0  0  0
   42.0920   34.8640   39.1320 H   0  0  0  0  0  0  0  0  0  0  0  0
   41.1650   32.4730   37.6190 C   0  0  0  0  0  0  0  0  0  0  0  0
   41.3530   31.3330   37.1110 O   0  0  0  0  0  0  0  0  0  0  0  0
   41.8170   33.2940   37.3280 H   0  0  0  0  0  0  0  0  0  0  0  0
  1  7  1  0  0  0  0
  1  2  1  0  0  0  0
  3  1  1  0  0  0  0
  4  5  1  0  0  0  0
  5  9  1  0  0  0  0
  6  5  2  0  0  0  0
  6 10  1  0  0  0  0
  7  6  1  0  0  0  0
  8  7  1  0  0  0  0
  8  4  2  0  0  0  0
 11 16  1  0  0  0  0
 11 17  1  0  0  0  0
 12 11  2  0  0  0  0
 13 14  2  0  0  0  0
 13 12  1  0  0  0  0
 14 15  1  0  0  0  0
 15  4  1  0  0  0  0
 15 16  2  0  0  0  0
 18 12  1  0  0  0  0
 19 13  1  0  0  0  0
 20 19  2  0  0  0  0
 21 20  1  0  0  0  0
 22 21  1  0  0  0  0
 23  1  1  0  0  0  0
 24 23  1  0  0  0  0
 25 23  1  0  0  0  0
 26 34  2  0  0  0  0
 26 27  1  0  0  0  0
 27 23  1  0  0  0  0
 27 28  2  0  0  0  0
 28 29  1  0  0  0  0
 28 36  1  0  0  0  0
 29 30  1  0  0  0  0
 30 37  1  0  0  0  0
 31 30  1  0  0  0  0
 31 38  1  0  0  0  0
 32 31  2  0  0  0  0
 33 32  1  0  0  0  0
 33 29  2  0  0  0  0
 34 33  1  0  0  0  0
 35 26  1  0  0  0  0
 39 32  1  0  0  0  0
 40 34  1  0  0  0  0
 41 40  2  0  0  0  0
 42 40  1  0  0  0  0
M  END
>  <minimizedAffinity>
-6.12922859

$$$$

 OpenBabel03252506303D

 42 45  0  0  0  0  0  0  0  0999 V2000
   36.8700   29.8980   38.1730 C   0  0  0  0  0  0  0  0  0  0  0  0
   37.5800   29.0960   37.9040 H   0  0  0  0  0  0  0  0  0  0  0  0
   36.4090   30.2450   37.2440 H   0  0  0  0  0  0  0  0  0  0  0  0
   39.1360   32.2980   39.5330 C   0  0  0  0  0  0  0  0  0  0  0  0
   37.8930   32.7710   40.0240 C   0  0  0  0  0  0  0  0  0  0  0  0
   36.9190   31.9460   39.5820 C   0  0  0  0  0  0  0  0  0  0  0  0
   37.5320   31.0000   38.8480 N   0  0  0  0  0  0  0  0  0  0  0  0
   38.8600   31.2000   38.8110 N   0  0  0  0  0  0  0  0  0  0  0  0
   37.8070   33.6510   40.6420 H   0  0  0  0  0  0  0  0  0  0  0  0
   35.8550   31.9960   39.7560 H   0  0  0  0  0  0  0  0  0  0  0  0
   42.0500   34.4790   39.2220 C   0  0  0  0  0  0  0  0  0  0  0  0
   42.8380   34.1150   40.3200 C   0  0  0  0  0  0  0  0  0  0  0  0
   42.3490   33.1150   41.1590 C   0  0  0  0  0  0  0  0  0  0  0  0
   41.1590   32.5860   40.8360 N   0  0  0  0  0  0  0  0  0  0  0  0
   40.4150   32.9290   39.8010 C   0  0  0  0  0  0  0  0  0  0  0  0
   40.8760   33.8890   38.9890 N   0  0  0  0  0  0  0  0  0  0  0  0
   42.4590   35.2590   38.5910 H   0  0  0  0  0  0  0  0  0  0  0  0
   43.8010   34.5500   40.5730 H   0  0  0  0  0  0  0  0  0  0  0  0
   43.0340   32.6180   42.3380 C   0  0  0  0  0  3  0  0  0  0  0  0
   42.6590   31.5130   42.9480 C   0  0  0  0  0  3  0  0  0  0  0  0
   43.3270   30.9810   44.1400 C   0  0  0  0  0  2  0  0  0  0  0  0
   43.1130   29.8790   44.2450 H   0  0  0  0  0  0  0  0  0  0  0  0
   35.8130   29.3210   39.0390 C   0  0  0  0  0  0  0  0  0  0  0  0
   35.3700   30.1710   39.6220 H   0  0  0  0  0  0  0  0  0  0  0  0
   34.9840   28.9440   38.4030 H   0  0  0  0  0  0  0  0  0  0  0  0
   36.5000   28.4690   41.3590 C   0  0  0  0  0  0  0  0  0  0  0  0
   36.2290   28.3190   40.0170 C   0  0  0  0  0  0  0  0  0  0  0  0
   36.3650   27.0390   39.4990 C   0  0  0  0  0  0  0  0  0  0  0  0
   36.7500   25.9760   40.2840 C   0  0  0  0  0  0  0  0  0  0  0  0
   36.9610   24.6630   40.0680 N   0  0  0  0  0  0  0  0  0  0  0  0
   37.3350   24.0360   41.1880 C   0  0  0  0  0  0  0  0  0  0  0  0
   37.3820   24.9670   42.2220 C   0  0  0  0  0  0  0  0  0  0  0  0
   37.0170   26.1340   41.6170 C   0  0  0  0  0  0  0  0  0  0  0  0
   36.8840   27.4010   42.1410 C   0  0  0  0  0  0  0  0  0  0  0  0
   36.3780   29.4930   41.7200 H   0  0  0  0  0  0  0  0  0  0  0  0
   36.1850   26.7830   38.4630 H   0  0  0  0  0  0  0  0  0  0  0  0
   36.8400   24.2050   39.1230 H   0  0  0  0  0  0  0  0  0  0  0  0
   37.5500   22.9760   41.2220 H   0  0  0  0  0  0  0  0  0  0  0  0
   37.6570   24.7200   43.2350 H   0  0  0  0  0  0  0  0  0  0  0  0
   37.1540   27.6370   43.5570 C   0  0  0  0  0  0  0  0  0  0  0  0
   36.2320   27.5590   44.4160 O   0  0  0  0  0  0  0  0  0  0  0  0
   38.1620   27.8830   43.8840 H   0  0  0  0  0  0  0  0  0  0  0  0
  1  7  1  0  0  0  0
  1 23  1  0  0  0  0
  2  1  1  0  0  0  0
  3  1  1  0  0  0  0
  4 15  1  0  0  0  0
  4  5  1  0  0  0  0
  5  9  1  0  0  0  0
  6 10  1  0  0  0  0
  6  5  2  0  0  0  0
  7  6  1  0  0  0  0
  8  7  1  0  0  0  0
  8  4  2  0  0  0  0
 11 12  1  0  0  0  0
 12 18  1  0  0  0  0
 12 13  2  0  0  0  0
 13 19  1  0  0  0  0
 14 13  1  0  0  0  0
 15 14  2  0  0  0  0
 16 11  2  0  0  0  0
 16 15  1  0  0  0  0
 17 11  1  0  0  0  0
 19 20  2  0  0  0  0
 20 21  1  0  0  0  0
 21 22  1  0  0  0  0
 23 24  1  0  0  0  0
 23 27  1  0  0  0  0
 25 23  1  0  0  0  0
 26 35  1  0  0  0  0
 26 34  1  0  0  0  0
 27 26  2  0  0  0  0
 28 27  1  0  0  0  0
 28 29  2  0  0  0  0
 29 33  1  0  0  0  0
 30 29  1  0  0  0  0
 30 31  1  0  0  0  0
 31 38  1  0  0  0  0
 31 32  2  0  0  0  0
 32 39  1  0  0  0  0
 33 34  2  0  0  0  0
 33 32  1  0  0  0  0
 34 40  1  0  0  0  0
 36 28  1  0  0  0  0
 37 30  1  0  0  0  0
 40 42  1  0  0  0  0
 40 41  2  0  0  0  0
M  END
>  <minimizedAffinity>
-5.92484045

$$$$

 OpenBabel03252506303D

 42 45  0  0  0  0  0  0  0  0999 V2000
   36.3690   30.0400   38.3100 C   0  0  0  0  0  0  0  0  0  0  0  0
   36.9240   29.1670   37.9220 H   0  0  0  0  0  0  0  0  0  0  0  0
   35.7270   30.3980   37.5000 H   0  0  0  0  0  0  0  0  0  0  0  0
   39.0620   32.3070   38.8980 C   0  0  0  0  0  0  0  0  0  0  0  0
   38.0630   32.8210   39.7640 C   0  0  0  0  0  0  0  0  0  0  0  0
   36.9610   32.0490   39.6470 C   0  0  0  0  0  0  0  0  0  0  0  0
   37.2630   31.0960   38.7480 N   0  0  0  0  0  0  0  0  0  0  0  0
   38.5190   31.2390   38.2920 N   0  0  0  0  0  0  0  0  0  0  0  0
   38.2210   33.6890   40.3850 H   0  0  0  0  0  0  0  0  0  0  0  0
   36.0110   32.1410   40.1520 H   0  0  0  0  0  0  0  0  0  0  0  0
   41.9090   34.5740   39.2180 C   0  0  0  0  0  0  0  0  0  0  0  0
   42.9050   33.9410   38.4640 C   0  0  0  0  0  0  0  0  0  0  0  0
   42.5780   32.7320   37.8510 C   0  0  0  0  0  0  0  0  0  0  0  0
   41.3290   32.2800   38.0400 N   0  0  0  0  0  0  0  0  0  0  0  0
   40.3890   32.8760   38.7510 C   0  0  0  0  0  0  0  0  0  0  0  0
   40.6930   34.0370   39.3430 N   0  0  0  0  0  0  0  0  0  0  0  0
   42.1970   35.5110   39.6800 H   0  0  0  0  0  0  0  0  0  0  0  0
   43.9140   34.3160   38.3180 H   0  0  0  0  0  0  0  0  0  0  0  0
   43.4860   31.9470   37.0360 C   0  0  0  0  0  3  0  0  0  0  0  0
   43.0680   30.9360   36.3050 C   0  0  0  0  0  3  0  0  0  0  0  0
   43.9560   30.1210   35.4700 C   0  0  0  0  0  2  0  0  0  0  0  0
   43.3630   29.6040   34.6610 H   0  0  0  0  0  0  0  0  0  0  0  0
   35.5080   29.5910   39.4310 C   0  0  0  0  0  0  0  0  0  0  0  0
   35.3510   30.4810   40.0970 H   0  0  0  0  0  0  0  0  0  0  0  0
   34.4990   29.3410   39.0410 H   0  0  0  0  0  0  0  0  0  0  0  0
   36.2700   28.5250   41.6370 C   0  0  0  0  0  0  0  0  0  0  0  0
   36.0280   28.5220   40.2810 C   0  0  0  0  0  0  0  0  0  0  0  0
   36.3120   27.3440   39.6060 C   0  0  0  0  0  0  0  0  0  0  0  0
   36.8090   26.2380   40.2560 C   0  0  0  0  0  0  0  0  0  0  0  0
   37.1690   24.9960   39.8780 N   0  0  0  0  0  0  0  0  0  0  0  0
   37.6040   24.2740   40.9160 C   0  0  0  0  0  0  0  0  0  0  0  0
   37.5370   25.0620   42.0620 C   0  0  0  0  0  0  0  0  0  0  0  0
   37.0470   26.2500   41.6050 C   0  0  0  0  0  0  0  0  0  0  0  0
   36.7670   27.4150   42.2840 C   0  0  0  0  0  0  0  0  0  0  0  0
   36.0300   29.4730   42.1240 H   0  0  0  0  0  0  0  0  0  0  0  0
   36.1700   27.2070   38.5420 H   0  0  0  0  0  0  0  0  0  0  0  0
   37.1080   24.6540   38.8790 H   0  0  0  0  0  0  0  0  0  0  0  0
   37.9380   23.2490   40.8180 H   0  0  0  0  0  0  0  0  0  0  0  0
   37.8310   24.7170   43.0400 H   0  0  0  0  0  0  0  0  0  0  0  0
   36.9970   27.4920   43.7230 C   0  0  0  0  0  0  0  0  0  0  0  0
   37.3130   28.5840   44.2740 O   0  0  0  0  0  0  0  0  0  0  0  0
   36.8980   26.6000   44.3390 H   0  0  0  0  0  0  0  0  0  0  0  0
  1  7  1  0  0  0  0
  1 23  1  0  0  0  0
  2  1  1  0  0  0  0
  3  1  1  0  0  0  0
  4  5  1  0  0  0  0
  5  9  1  0  0  0  0
  6  5  2  0  0  0  0
  6 10  1  0  0  0  0
  7  6  1  0  0  0  0
  8  7  1  0  0  0  0
  8  4  2  0  0  0  0
 11 16  1  0  0  0  0
 11 17  1  0  0  0  0
 12 11  2  0  0  0  0
 13 14  2  0  0  0  0
 13 12  1  0  0  0  0
 14 15  1  0  0  0  0
 15  4  1  0  0  0  0
 15 16  2  0  0  0  0
 18 12  1  0  0  0  0
 19 13  1  0  0  0  0
 20 19  2  0  0  0  0
 21 20  1  0  0  0  0
 22 21  1  0  0  0  0
 23 24  1  0  0  0  0
 23 27  1  0  0  0  0
 25 23  1  0  0  0  0
 26 35  1  0  0  0  0
 26 34  1  0  0  0  0
 27 26  2  0  0  0  0
 28 29  2  0  0  0  0
 28 27  1  0  0  0  0
 29 33  1  0  0  0  0
 30 29  1  0  0  0  0
 30 31  1  0  0  0  0
 31 32  2  0  0  0  0
 32 39  1  0  0  0  0
 33 32  1  0  0  0  0
 33 34  2  0  0  0  0
 34 40  1  0  0  0  0
 36 28  1  0  0  0  0
 37 30  1  0  0  0  0
 38 31  1  0  0  0  0
 40 41  2  0  0  0  0
 40 42  1  0  0  0  0
M  END
>  <minimizedAffinity>
-5.91030741

$$$$

 OpenBabel03252506303D

 42 45  0  0  0  0  0  0  0  0999 V2000
   37.1590   31.3220   40.6800 C   0  0  0  0  0  0  0  0  0  0  0  0
   37.1860   32.3280   41.1350 H   0  0  0  0  0  0  0  0  0  0  0  0
   36.1230   30.9750   40.7280 H   0  0  0  0  0  0  0  0  0  0  0  0
   38.8100   28.5070   42.1280 C   0  0  0  0  0  0  0  0  0  0  0  0
   39.6520   29.5720   42.5370 C   0  0  0  0  0  0  0  0  0  0  0  0
   39.1440   30.7260   42.0530 C   0  0  0  0  0  0  0  0  0  0  0  0
   38.0330   30.3930   41.3730 N   0  0  0  0  0  0  0  0  0  0  0  0
   37.8220   29.0660   41.4100 N   0  0  0  0  0  0  0  0  0  0  0  0
   40.5370   29.4190   43.1340 H   0  0  0  0  0  0  0  0  0  0  0  0
   39.5180   31.7330   42.1630 H   0  0  0  0  0  0  0  0  0  0  0  0
   40.2240   25.4940   43.6320 C   0  0  0  0  0  0  0  0  0  0  0  0
   39.4490   24.4680   43.0780 C   0  0  0  0  0  0  0  0  0  0  0  0
   38.4410   24.8330   42.1870 C   0  0  0  0  0  0  0  0  0  0  0  0
   38.3030   26.1450   41.9380 N   0  0  0  0  0  0  0  0  0  0  0  0
   39.0350   27.1120   42.4600 C   0  0  0  0  0  0  0  0  0  0  0  0
   40.0050   26.7720   43.3160 N   0  0  0  0  0  0  0  0  0  0  0  0
   40.9990   25.1750   44.3200 H   0  0  0  0  0  0  0  0  0  0  0  0
   39.5680   23.4090   43.2880 H   0  0  0  0  0  0  0  0  0  0  0  0
   37.5470   23.9030   41.5240 C   0  0  0  0  0  3  0  0  0  0  0  0
   36.6430   24.3030   40.6550 C   0  0  0  0  0  3  0  0  0  0  0  0
   35.7250   23.3910   39.9660 C   0  0  0  0  0  2  0  0  0  0  0  0
   35.3400   23.8700   39.0200 H   0  0  0  0  0  0  0  0  0  0  0  0
   37.5530   31.4380   39.2550 C   0  0  0  0  0  0  0  0  0  0  0  0
   37.3990   32.5100   38.9610 H   0  0  0  0  0  0  0  0  0  0  0  0
   38.6460   31.2680   39.1620 H   0  0  0  0  0  0  0  0  0  0  0  0
   35.6680   29.8810   38.4780 C   0  0  0  0  0  0  0  0  0  0  0  0
   36.8080   30.6320   38.2910 C   0  0  0  0  0  0  0  0  0  0  0  0
   37.3410   30.6370   37.0110 C   0  0  0  0  0  0  0  0  0  0  0  0
   36.7630   29.9290   35.9810 C   0  0  0  0  0  0  0  0  0  0  0  0
   37.0440   29.7490   34.6770 N   0  0  0  0  0  0  0  0  0  0  0  0
   36.1500   28.9460   34.0890 C   0  0  0  0  0  0  0  0  0  0  0  0
   35.2100   28.5590   35.0390 C   0  0  0  0  0  0  0  0  0  0  0  0
   35.6290   29.1850   36.1760 C   0  0  0  0  0  0  0  0  0  0  0  0
   35.0920   29.1750   37.4450 C   0  0  0  0  0  0  0  0  0  0  0  0
   35.2860   29.9090   39.5010 H   0  0  0  0  0  0  0  0  0  0  0  0
   38.2320   31.1830   36.7280 H   0  0  0  0  0  0  0  0  0  0  0  0
   37.8740   30.1950   34.1970 H   0  0  0  0  0  0  0  0  0  0  0  0
   36.2030   28.6800   33.0410 H   0  0  0  0  0  0  0  0  0  0  0  0
   34.3780   27.9090   34.8240 H   0  0  0  0  0  0  0  0  0  0  0  0
   33.8840   28.4020   37.7180 C   0  0  0  0  0  0  0  0  0  0  0  0
   32.7400   28.9250   37.6170 O   0  0  0  0  0  0  0  0  0  0  0  0
   33.9630   27.3570   38.0130 H   0  0  0  0  0  0  0  0  0  0  0  0
  1  3  1  0  0  0  0
  1  2  1  0  0  0  0
  1  7  1  0  0  0  0
  4 15  1  0  0  0  0
  4  5  1  0  0  0  0
  5  9  1  0  0  0  0
  6 10  1  0  0  0  0
  6  5  2  0  0  0  0
  7  8  1  0  0  0  0
  7  6  1  0  0  0  0
  8  4  2  0  0  0  0
 11 17  1  0  0  0  0
 12 18  1  0  0  0  0
 12 11  2  0  0  0  0
 13 12  1  0  0  0  0
 14 13  2  0  0  0  0
 14 15  1  0  0  0  0
 15 16  2  0  0  0  0
 16 11  1  0  0  0  0
 19 13  1  0  0  0  0
 20 19  2  0  0  0  0
 21 20  1  0  0  0  0
 22 21  1  0  0  0  0
 23  1  1  0  0  0  0
 24 23  1  0  0  0  0
 25 23  1  0  0  0  0
 26 35  1  0  0  0  0
 27 26  1  0  0  0  0
 27 23  1  0  0  0  0
 28 27  2  0  0  0  0
 29 33  2  0  0  0  0
 29 28  1  0  0  0  0
 30 29  1  0  0  0  0
 31 30  1  0  0  0  0
 31 32  2  0  0  0  0
 32 33  1  0  0  0  0
 33 34  1  0  0  0  0
 34 40  1  0  0  0  0
 34 26  2  0  0  0  0
 36 28  1  0  0  0  0
 37 30  1  0  0  0  0
 38 31  1  0  0  0  0
 39 32  1  0  0  0  0
 40 42  1  0  0  0  0
 41 40  2  0  0  0  0
M  END
>  <minimizedAffinity>
-5.90304804

$$$$
