REMARK  Name = 
REMARK  5 active torsions:
REMARK  status: ('A' for Active; 'I' for Inactive)
REMARK    1  A    between atoms: C_1  and  C_6
REMARK    2  A    between atoms: C_1  and  C_8
REMARK    3  A    between atoms: C_8  and  C_9
REMARK    4  A    between atoms: C_14  and  C_26
REMARK    5  A    between atoms: C_27  and  C_28
REMARK                            x       y       z     vdW  Elec       q    Type
REMARK                         _______ _______ _______ _____ _____    ______ ____
ROOT
ATOM      1  C   UNL     1      46.839  32.933  46.441  0.00  0.00    +0.000 C 
ATOM      2  H   UNL     1      46.703  33.966  46.781  0.00  0.00    +0.000 HD
ATOM      3  H   UNL     1      47.946  32.704  46.467  0.00  0.00    +0.000 HD
ENDROOT
BRANCH   1   4
ATOM      4  C   UNL     1      46.224  32.029  47.408  0.00  0.00    +0.000 A 
ATOM      5  C   UNL     1      45.846  32.262  48.721  0.00  0.00    +0.000 A 
ATOM      6  C   UNL     1      45.224  31.350  49.534  0.00  0.00    +0.000 A 
ATOM      7  C   UNL     1      44.958  30.119  49.003  0.00  0.00    +0.000 A 
ATOM      8  C   UNL     1      45.328  29.859  47.690  0.00  0.00    +0.000 A 
ATOM      9  C   UNL     1      45.963  30.809  46.892  0.00  0.00    +0.000 A 
ATOM     10  H   UNL     1      46.105  33.272  49.035  0.00  0.00    +0.000 HD
ATOM     11  H   UNL     1      45.023  31.741  50.520  0.00  0.00    +0.000 HD
ATOM     12  H   UNL     1      44.458  29.485  49.751  0.00  0.00    +0.000 HD
ATOM     13  H   UNL     1      45.002  28.826  47.536  0.00  0.00    +0.000 HD
BRANCH   9  14
ATOM     14  C   UNL     1      46.283  30.057  45.688  0.00  0.00    +0.000 C 
ATOM     15  C   UNL     1      46.637  30.402  44.469  0.00  0.00    +0.000 C 
BRANCH  15  16
ATOM     16  C   UNL     1      46.951  29.633  43.283  0.00  0.00    +0.000 C 
ATOM     17  H   UNL     1      46.856  28.540  43.539  0.00  0.00    +0.000 HD
ENDBRANCH  15  16
ENDBRANCH   9  14
ENDBRANCH   1   4
BRANCH   1  18
ATOM     18  C   UNL     1      46.404  32.678  45.038  0.00  0.00    +0.000 C 
ATOM     19  H   UNL     1      45.476  32.077  45.043  0.00  0.00    +0.000 HD
ATOM     20  H   UNL     1      47.215  32.340  44.371  0.00  0.00    +0.000 HD
BRANCH  18  25
ATOM     21  C   UNL     1      44.575  35.864  44.601  0.00  0.00    +0.000 A 
ATOM     22  C   UNL     1      45.021  36.287  43.324  0.00  0.00    +0.000 A 
ATOM     23  C   UNL     1      45.932  35.472  42.682  0.00  0.00    +0.000 A 
ATOM     24  N   UNL     1      46.343  34.349  43.276  0.00  0.00    +0.000 NA
ATOM     25  C   UNL     1      45.882  33.990  44.504  0.00  0.00    +0.000 A 
ATOM     26  N   UNL     1      45.016  34.726  45.161  0.00  0.00    +0.000 NA
ATOM     27  H   UNL     1      43.850  36.542  45.077  0.00  0.00    +0.000 HD
ATOM     28  H   UNL     1      44.658  37.212  42.877  0.00  0.00    +0.000 HD
ATOM     29  H   UNL     1      46.317  35.734  41.702  0.00  0.00    +0.000 HD
ENDBRANCH  18  25
ENDBRANCH   1  18
TORSDOF 5
