REMARK  Name = 
REMARK  7 active torsions:
REMARK  status: ('A' for Active; 'I' for Inactive)
REMARK    1  A    between atoms: C_1  and  S_7
REMARK    2  A    between atoms: C_2  and  O_10
REMARK    3  A    between atoms: O_10  and  C_15
REMARK    4  A    between atoms: C_13  and  C_17
REMARK    5  A    between atoms: C_17  and  C_18
REMARK    6  A    between atoms: C_18  and  C_30
REMARK    7  A    between atoms: C_31  and  C_32
REMARK                            x       y       z     vdW  Elec       q    Type
REMARK                         _______ _______ _______ _____ _____    ______ ____
ROOT
ATOM      1  C   UNL     1      45.224  34.299  43.843  0.00  0.00    +0.000 A 
ATOM      2  C   UNL     1      46.178  34.888  42.980  0.00  0.00    +0.000 A 
ATOM      3  C   UNL     1      47.483  34.433  42.992  0.00  0.00    +0.000 A 
ATOM      4  N   UNL     1      47.727  33.440  43.853  0.00  0.00    +0.000 NA
ATOM      5  C   UNL     1      46.851  32.883  44.661  0.00  0.00    +0.000 A 
ATOM      6  N   UNL     1      45.585  33.318  44.656  0.00  0.00    +0.000 NA
ATOM      7  H   UNL     1      44.209  34.696  43.793  0.00  0.00    +0.000 HD
ATOM      8  H   UNL     1      45.937  35.698  42.290  0.00  0.00    +0.000 HD
ENDROOT
BRANCH   3   9
ATOM      9  C   UNL     1      48.563  34.965  42.143  0.00  0.00    +0.000 C 
ATOM     10  H   UNL     1      48.825  36.005  42.419  0.00  0.00    +0.000 HD
ATOM     11  H   UNL     1      49.458  34.363  42.261  0.00  0.00    +0.000 HD
BRANCH   9  12
ATOM     12  C   UNL     1      48.199  34.879  40.661  0.00  0.00    +0.000 C 
ATOM     13  H   UNL     1      49.005  35.347  40.059  0.00  0.00    +0.000 HD
ATOM     14  H   UNL     1      47.272  35.464  40.539  0.00  0.00    +0.000 HD
BRANCH  12  15
ATOM     15  C   UNL     1      47.964  33.466  40.265  0.00  0.00    +0.000 C 
ATOM     16  C   UNL     1      48.252  32.186  40.457  0.00  0.00    +0.000 C 
BRANCH  16  17
ATOM     17  C   UNL     1      47.726  30.979  39.761  0.00  0.00    +0.000 C 
ATOM     18  H   UNL     1      47.196  30.334  40.483  0.00  0.00    +0.000 HD
ENDBRANCH  16  17
ENDBRANCH  12  15
ENDBRANCH   9  12
ENDBRANCH   3   9
BRANCH   5  19
ATOM     19  O   UNL     1      47.164  31.854  45.534  0.00  0.00    +0.000 OA
BRANCH  19  21
ATOM     20  C   UNL     1      45.647  30.441  46.905  0.00  0.00    +0.000 A 
ATOM     21  C   UNL     1      46.447  31.518  46.668  0.00  0.00    +0.000 A 
ATOM     22  C   UNL     1      46.588  32.439  47.699  0.00  0.00    +0.000 A 
ATOM     23  C   UNL     1      45.957  32.298  48.924  0.00  0.00    +0.000 A 
ATOM     24  C   UNL     1      45.149  31.188  49.130  0.00  0.00    +0.000 A 
ATOM     25  C   UNL     1      45.002  30.263  48.107  0.00  0.00    +0.000 A 
ATOM     26  H   UNL     1      47.190  33.328  47.636  0.00  0.00    +0.000 HD
ATOM     27  H   UNL     1      46.062  33.011  49.730  0.00  0.00    +0.000 HD
ATOM     28  H   UNL     1      44.622  31.004  50.056  0.00  0.00    +0.000 HD
ATOM     29  H   UNL     1      44.403  29.371  48.160  0.00  0.00    +0.000 HD
BRANCH  20  30
ATOM     30  S   UNL     1      45.519  29.328  45.564  0.00  0.00    +0.000 S 
ATOM     31  O   UNL     1      44.725  29.928  44.424  0.00  0.00    +0.000 OA
ATOM     32  O   UNL     1      44.701  28.136  46.039  0.00  0.00    +0.000 OA
ATOM     33  H   UNL     1      46.728  28.875  45.165  0.00  0.00    +0.000 HD
ENDBRANCH  20  30
ENDBRANCH  19  21
ENDBRANCH   5  19
TORSDOF 7
