
 OpenBabel03252503093D

 22 23  0  0  0  0  0  0  0  0999 V2000
   44.9670   36.0560   43.6560 C   0  0  0  0  0  0  0  0  0  0  0  0
   45.6720   34.9360   43.1710 C   0  0  0  0  0  0  0  0  0  0  0  0
   45.8390   33.9060   44.0890 C   0  0  0  0  0  0  0  0  0  0  0  0
   45.3620   33.9740   45.3510 N   0  0  0  0  0  0  0  0  0  0  0  0
   44.6860   35.0830   45.7700 C   0  0  0  0  0  0  0  0  0  0  0  0
   44.4940   36.1160   44.9170 N   0  0  0  0  0  0  0  0  0  0  0  0
   44.7830   36.9090   43.0250 H   0  0  0  0  0  0  0  0  0  0  0  0
   44.3220   35.1040   46.7720 H   0  0  0  0  0  0  0  0  0  0  0  0
   46.5240   32.7590   43.6930 C   0  0  0  0  0  0  0  0  0  0  0  0
   47.8460   32.3730   43.6970 C   0  0  0  0  0  0  0  0  0  0  0  0
   48.2650   31.2000   43.2470 C   0  0  0  0  0  0  0  0  0  0  0  0
   47.2950   30.3490   42.7590 C   0  0  0  0  0  0  0  0  0  0  0  0
   45.7330   31.3230   42.9790 S   0  0  0  0  0  0  0  0  0  0  0  0
   48.7030   32.9090   44.0750 H   0  0  0  0  0  0  0  0  0  0  0  0
   49.1690   30.6640   43.1310 H   0  0  0  0  0  0  0  0  0  0  0  0
   47.1370   29.3850   42.3260 H   0  0  0  0  0  0  0  0  0  0  0  0
   46.1390   34.9090   41.8370 C   0  0  0  0  0  0  0  0  0  0  0  0
   47.4030   35.0470   41.7050 O   0  0  0  0  0  0  0  0  0  0  0  0
   44.8670   34.7230   41.0860 C   0  0  0  0  0  3  0  0  0  0  0  0
   43.9470   33.8370   40.7710 C   0  0  0  0  0  3  0  0  0  0  0  0
   42.8410   34.3330   39.9200 C   0  0  0  0  0  2  0  0  0  0  0  0
   41.8540   34.2430   40.4300 H   0  0  0  0  0  0  0  0  0  0  0  0
  1  6  1  0  0  0  0
  2  1  2  0  0  0  0
  2  3  1  0  0  0  0
  3  4  2  0  0  0  0
  4  5  1  0  0  0  0
  5  8  1  0  0  0  0
  6  5  2  0  0  0  0
  7  1  1  0  0  0  0
  9 10  2  0  0  0  0
  9  3  1  0  0  0  0
 10 14  1  0  0  0  0
 11 10  1  0  0  0  0
 12 13  1  0  0  0  0
 12 11  2  0  0  0  0
 13  9  1  0  0  0  0
 15 11  1  0  0  0  0
 16 12  1  0  0  0  0
 17  2  1  0  0  0  0
 18 17  2  0  0  0  0
 19 17  1  0  0  0  0
 20 19  2  0  0  0  0
 21 22  1  0  0  0  0
 21 20  1  0  0  0  0
M  END
>  <minimizedAffinity>
-3.97566319

>  <minimizedRMSD>
1.41055918

$$$$
