
 OpenBabel03242521443D

 33 34  0  0  1  0  0  0  0  0999 V2000
   45.2170   36.0440   44.0090 C   0  0  0  0  0  0  0  0  0  0  0  0
   45.9630   35.2290   43.1490 C   0  0  0  0  0  0  0  0  0  0  0  0
   46.2370   33.9070   43.5200 C   0  0  0  0  0  0  0  0  0  0  0  0
   45.7610   33.4920   44.6920 N   0  0  0  0  0  0  0  0  0  0  0  0
   45.0410   34.2880   45.5140 C   0  0  0  0  0  0  0  0  0  0  0  0
   44.7660   35.5640   45.1770 N   0  0  0  0  0  0  0  0  0  0  0  0
   46.2960   35.6670   42.2300 H   0  0  0  0  0  0  0  0  0  0  0  0
   44.6780   33.9030   46.4540 H   0  0  0  0  0  0  0  0  0  0  0  0
   48.2890   33.7370   42.1300 C   0  0  2  0  0  0  0  0  0  0  0  0
   47.0200   33.1060   42.5820 C   0  0  2  0  0  0  0  0  0  0  0  0
   46.3690   32.8900   41.3320 O   0  0  0  0  0  0  0  0  0  0  0  0
   47.3450   32.2310   40.6100 C   0  0  0  0  0  0  0  0  0  0  0  0
   48.7000   32.6740   41.0890 C   0  0  1  0  0  0  0  0  0  0  0  0
   48.1380   34.6510   41.5150 H   0  0  0  0  0  0  0  0  0  0  0  0
   47.2190   32.0770   42.9390 H   0  0  0  0  0  0  0  0  0  0  0  0
   47.2470   31.1500   40.8410 H   0  0  0  0  0  0  0  0  0  0  0  0
   47.2040   32.3310   39.5090 H   0  0  0  0  0  0  0  0  0  0  0  0
   49.2550   31.8830   41.6060 H   0  0  0  0  0  0  0  0  0  0  0  0
   49.2130   33.9440   43.1090 O   0  0  0  0  0  0  0  0  0  0  0  0
   49.8150   34.6920   42.8420 H   0  0  0  0  0  0  0  0  0  0  0  0
   49.4700   33.2750   40.1040 O   0  0  0  0  0  0  0  0  0  0  0  0
   49.1990   33.0130   39.1890 H   0  0  0  0  0  0  0  0  0  0  0  0
   44.9430   37.4650   43.5910 C   0  0  0  0  0  0  0  0  0  0  0  0
   44.0310   37.5430   42.9990 H   0  0  0  0  0  0  0  0  0  0  0  0
   45.8130   37.8360   43.0070 H   0  0  0  0  0  0  0  0  0  0  0  0
   45.2770   39.6040   44.9910 C   0  0  0  0  0  0  0  0  0  0  0  0
   45.6990   40.1930   43.9580 O   0  0  0  0  0  0  0  0  0  0  0  0
   44.8940   38.2530   44.8010 N   0  0  0  0  0  0  0  0  0  0  0  0
   44.5190   37.7510   45.6600 H   0  0  0  0  0  0  0  0  0  0  0  0
   45.1950   40.2640   46.2650 C   0  0  0  0  0  0  0  0  0  0  0  0
   44.5800   41.3980   46.4370 C   0  0  0  0  0  0  0  0  0  0  0  0
   43.9210   42.0780   45.3110 C   0  0  0  0  0  0  0  0  0  0  0  0
   44.6240   42.3610   44.4810 H   0  0  0  0  0  0  0  0  0  0  0  0
  1  6  1  0  0  0  0
  2  3  1  0  0  0  0
  2  1  2  0  0  0  0
  3  4  2  0  0  0  0
  4  5  1  0  0  0  0
  5  8  1  0  0  0  0
  6  5  2  0  0  0  0
  7  2  1  0  0  0  0
  9 14  1  6  0  0  0
  9 10  1  0  0  0  0
  9 19  1  0  0  0  0
 10 15  1  1  0  0  0
 10  3  1  0  0  0  0
 11 10  1  0  0  0  0
 12 16  1  0  0  0  0
 12 13  1  0  0  0  0
 12 11  1  0  0  0  0
 13 18  1  1  0  0  0
 13  9  1  0  0  0  0
 17 12  1  0  0  0  0
 20 19  1  0  0  0  0
 21 13  1  0  0  0  0
 22 21  1  0  0  0  0
 23  1  1  0  0  0  0
 23 28  1  0  0  0  0
 24 23  1  0  0  0  0
 25 23  1  0  0  0  0
 26 30  1  0  0  0  0
 27 26  2  0  0  0  0
 28 26  1  0  0  0  0
 28 29  1  0  0  0  0
 30 31  2  0  0  0  0
 32 31  1  0  0  0  0
 33 32  1  0  0  0  0
M  END
>  <minimizedAffinity>
-4.89800406

>  <minimizedRMSD>
0.857120633

$$$$
