
 OpenBabel03252506493D

 24 25  0  0  0  0  0  0  0  0999 V2000
   37.4270   28.3050   43.4970 S   0  0  0  0  0  0  0  0  0  0  0  0
   35.7800   29.3870   40.9770 Cl  0  0  0  0  0  0  0  0  0  0  0  0
   37.3260   30.1270   41.3550 C   0  0  0  0  0  0  0  0  0  0  0  0
   37.9700   29.6130   42.4440 C   0  0  0  0  0  0  0  0  0  0  0  0
   39.2010   30.1700   42.7810 C   0  0  0  0  0  0  0  0  0  0  0  0
   39.7220   31.2070   42.0170 C   0  0  0  0  0  0  0  0  0  0  0  0
   39.0710   31.7240   40.9210 C   0  0  0  0  0  0  0  0  0  0  0  0
   37.8370   31.1610   40.5870 C   0  0  0  0  0  0  0  0  0  0  0  0
   36.9180   31.7340   39.2170 Cl  0  0  0  0  0  0  0  0  0  0  0  0
   39.7880   29.8340   43.6230 H   0  0  0  0  0  0  0  0  0  0  0  0
   40.6890   31.6480   42.2780 H   0  0  0  0  0  0  0  0  0  0  0  0
   39.4860   32.5360   40.3280 H   0  0  0  0  0  0  0  0  0  0  0  0
   38.1380   26.7140   43.0770 C   0  0  0  0  0  0  0  0  0  0  0  0
   39.3850   26.4610   43.6630 C   0  0  0  0  0  0  0  0  0  0  0  0
   40.0050   25.2310   43.3780 C   0  0  0  0  0  0  0  0  0  0  0  0
   39.3640   24.3550   42.5520 N   0  0  0  0  0  0  0  0  0  0  0  0
   38.1660   24.6500   42.0170 C   0  0  0  0  0  0  0  0  0  0  0  0
   37.5310   25.8280   42.2660 N   0  0  0  0  0  0  0  0  0  0  0  0
   39.8840   27.1640   44.3160 H   0  0  0  0  0  0  0  0  0  0  0  0
   40.9640   24.9570   43.7870 H   0  0  0  0  0  0  0  0  0  0  0  0
   37.5220   23.6790   41.1400 C   0  0  0  0  0  3  0  0  0  0  0  0
   36.4070   24.0120   40.5080 C   0  0  0  0  0  3  0  0  0  0  0  0
   35.6260   23.1620   39.5890 C   0  0  0  0  0  2  0  0  0  0  0  0
   35.5850   23.6290   38.5630 H   0  0  0  0  0  0  0  0  0  0  0  0
  2  3  1  0  0  0  0
  3  4  1  0  0  0  0
  4  5  2  0  0  0  0
  4  1  1  0  0  0  0
  5 10  1  0  0  0  0
  6 11  1  0  0  0  0
  6  5  1  0  0  0  0
  7  6  2  0  0  0  0
  8  7  1  0  0  0  0
  8  3  2  0  0  0  0
  9  8  1  0  0  0  0
 12  7  1  0  0  0  0
 13  1  1  0  0  0  0
 13 14  1  0  0  0  0
 14 19  1  0  0  0  0
 15 14  2  0  0  0  0
 15 20  1  0  0  0  0
 16 15  1  0  0  0  0
 17 18  1  0  0  0  0
 17 16  2  0  0  0  0
 18 13  2  0  0  0  0
 21 17  1  0  0  0  0
 22 21  2  0  0  0  0
 23 22  1  0  0  0  0
 24 23  1  0  0  0  0
M  END
>  <minimizedAffinity>
-5.23581409

$$$$

 OpenBabel03252506493D

 24 25  0  0  0  0  0  0  0  0999 V2000
   36.6690   27.9890   42.8510 S   0  0  0  0  0  0  0  0  0  0  0  0
   39.8370   27.8730   43.2770 Cl  0  0  0  0  0  0  0  0  0  0  0  0
   38.9990   26.4140   42.7790 C   0  0  0  0  0  0  0  0  0  0  0  0
   37.6490   26.5410   42.6180 C   0  0  0  0  0  0  0  0  0  0  0  0
   36.9430   25.4070   42.2240 C   0  0  0  0  0  0  0  0  0  0  0  0
   37.6180   24.2110   42.0120 C   0  0  0  0  0  0  0  0  0  0  0  0
   38.9780   24.0860   42.1760 C   0  0  0  0  0  0  0  0  0  0  0  0
   39.6810   25.2260   42.5710 C   0  0  0  0  0  0  0  0  0  0  0  0
   41.4110   25.1890   42.8100 Cl  0  0  0  0  0  0  0  0  0  0  0  0
   35.8730   25.4040   42.0690 H   0  0  0  0  0  0  0  0  0  0  0  0
   37.0680   23.3180   41.7030 H   0  0  0  0  0  0  0  0  0  0  0  0
   39.5000   23.1460   42.0080 H   0  0  0  0  0  0  0  0  0  0  0  0
   36.5730   29.0250   41.3910 C   0  0  0  0  0  0  0  0  0  0  0  0
   36.1210   28.3670   40.2400 C   0  0  0  0  0  0  0  0  0  0  0  0
   36.0210   29.1170   39.0540 C   0  0  0  0  0  0  0  0  0  0  0  0
   36.3680   30.4360   39.0870 N   0  0  0  0  0  0  0  0  0  0  0  0
   36.7970   31.0160   40.2220 C   0  0  0  0  0  0  0  0  0  0  0  0
   36.9080   30.3290   41.3910 N   0  0  0  0  0  0  0  0  0  0  0  0
   35.8490   27.3210   40.2260 H   0  0  0  0  0  0  0  0  0  0  0  0
   35.6820   28.6890   38.1250 H   0  0  0  0  0  0  0  0  0  0  0  0
   37.1550   32.4300   40.2040 C   0  0  0  0  0  3  0  0  0  0  0  0
   38.4080   32.7870   40.4420 C   0  0  0  0  0  3  0  0  0  0  0  0
   38.9450   34.1610   40.4640 C   0  0  0  0  0  2  0  0  0  0  0  0
   39.7380   34.2840   39.6720 H   0  0  0  0  0  0  0  0  0  0  0  0
  3  2  1  0  0  0  0
  4  3  1  0  0  0  0
  4  1  1  0  0  0  0
  5  4  2  0  0  0  0
  6  7  2  0  0  0  0
  6  5  1  0  0  0  0
  7  8  1  0  0  0  0
  8  3  2  0  0  0  0
  8  9  1  0  0  0  0
 10  5  1  0  0  0  0
 11  6  1  0  0  0  0
 12  7  1  0  0  0  0
 13 18  1  0  0  0  0
 13  1  1  0  0  0  0
 14 13  2  0  0  0  0
 15 16  2  0  0  0  0
 15 14  1  0  0  0  0
 16 17  1  0  0  0  0
 17 18  2  0  0  0  0
 19 14  1  0  0  0  0
 20 15  1  0  0  0  0
 21 17  1  0  0  0  0
 21 22  2  0  0  0  0
 22 23  1  0  0  0  0
 24 23  1  0  0  0  0
M  END
>  <minimizedAffinity>
-5.04109859

$$$$

 OpenBabel03252506493D

 24 25  0  0  0  0  0  0  0  0999 V2000
   37.0600   28.0480   43.0170 S   0  0  0  0  0  0  0  0  0  0  0  0
   35.6640   29.7270   40.6790 Cl  0  0  0  0  0  0  0  0  0  0  0  0
   37.2230   30.2600   41.2860 C   0  0  0  0  0  0  0  0  0  0  0  0
   37.7560   29.4940   42.2820 C   0  0  0  0  0  0  0  0  0  0  0  0
   38.9920   29.8800   42.7940 C   0  0  0  0  0  0  0  0  0  0  0  0
   39.6290   31.0060   42.2860 C   0  0  0  0  0  0  0  0  0  0  0  0
   39.0900   31.7770   41.2830 C   0  0  0  0  0  0  0  0  0  0  0  0
   37.8500   31.3840   40.7730 C   0  0  0  0  0  0  0  0  0  0  0  0
   37.0660   32.2850   39.4970 Cl  0  0  0  0  0  0  0  0  0  0  0  0
   39.4970   29.3410   43.5830 H   0  0  0  0  0  0  0  0  0  0  0  0
   40.6000   31.3130   42.6860 H   0  0  0  0  0  0  0  0  0  0  0  0
   39.5950   32.6570   40.8910 H   0  0  0  0  0  0  0  0  0  0  0  0
   37.9440   26.5450   42.6010 C   0  0  0  0  0  0  0  0  0  0  0  0
   37.1230   25.4480   42.3090 C   0  0  0  0  0  0  0  0  0  0  0  0
   37.7470   24.2330   41.9740 C   0  0  0  0  0  0  0  0  0  0  0  0
   39.1090   24.1860   41.9520 N   0  0  0  0  0  0  0  0  0  0  0  0
   39.8500   25.2710   42.2420 C   0  0  0  0  0  0  0  0  0  0  0  0
   39.2880   26.4660   42.5700 N   0  0  0  0  0  0  0  0  0  0  0  0
   36.0430   25.4980   42.3300 H   0  0  0  0  0  0  0  0  0  0  0  0
   37.1890   23.3420   41.7360 H   0  0  0  0  0  0  0  0  0  0  0  0
   41.3050   25.1680   42.2040 C   0  0  0  0  0  3  0  0  0  0  0  0
   42.0090   25.5040   43.2730 C   0  0  0  0  0  3  0  0  0  0  0  0
   43.4770   25.4630   43.4110 C   0  0  0  0  0  2  0  0  0  0  0  0
   43.7740   24.7510   44.2340 H   0  0  0  0  0  0  0  0  0  0  0  0
  2  3  1  0  0  0  0
  3  4  1  0  0  0  0
  4  5  2  0  0  0  0
  4  1  1  0  0  0  0
  5 10  1  0  0  0  0
  6 11  1  0  0  0  0
  6  5  1  0  0  0  0
  7  6  2  0  0  0  0
  8  7  1  0  0  0  0
  8  3  2  0  0  0  0
  9  8  1  0  0  0  0
 12  7  1  0  0  0  0
 13  1  1  0  0  0  0
 14 19  1  0  0  0  0
 14 13  2  0  0  0  0
 15 14  1  0  0  0  0
 16 15  2  0  0  0  0
 16 17  1  0  0  0  0
 17 18  2  0  0  0  0
 18 13  1  0  0  0  0
 20 15  1  0  0  0  0
 21 17  1  0  0  0  0
 21 22  2  0  0  0  0
 22 23  1  0  0  0  0
 23 24  1  0  0  0  0
M  END
>  <minimizedAffinity>
-4.96894932

$$$$

 OpenBabel03252506493D

 24 25  0  0  0  0  0  0  0  0999 V2000
   37.2500   29.7080   39.4190 S   0  0  0  0  0  0  0  0  0  0  0  0
   36.6430   26.5730   39.6150 Cl  0  0  0  0  0  0  0  0  0  0  0  0
   37.0850   27.4400   41.0760 C   0  0  0  0  0  0  0  0  0  0  0  0
   37.3280   28.7740   40.9140 C   0  0  0  0  0  0  0  0  0  0  0  0
   37.6830   29.5010   42.0470 C   0  0  0  0  0  0  0  0  0  0  0  0
   37.7740   28.8630   43.2780 C   0  0  0  0  0  0  0  0  0  0  0  0
   37.5280   27.5190   43.4380 C   0  0  0  0  0  0  0  0  0  0  0  0
   37.1730   26.7940   42.2980 C   0  0  0  0  0  0  0  0  0  0  0  0
   36.8380   25.0810   42.3790 Cl  0  0  0  0  0  0  0  0  0  0  0  0
   37.8950   30.5610   42.0240 H   0  0  0  0  0  0  0  0  0  0  0  0
   38.0520   29.4300   44.1710 H   0  0  0  0  0  0  0  0  0  0  0  0
   37.6030   27.0260   44.4060 H   0  0  0  0  0  0  0  0  0  0  0  0
   38.0570   31.3050   39.5360 C   0  0  0  0  0  0  0  0  0  0  0  0
   37.2170   32.3540   39.9310 C   0  0  0  0  0  0  0  0  0  0  0  0
   37.7810   33.6370   40.0440 C   0  0  0  0  0  0  0  0  0  0  0  0
   39.1060   33.7920   39.7640 N   0  0  0  0  0  0  0  0  0  0  0  0
   39.8670   32.7490   39.3880 C   0  0  0  0  0  0  0  0  0  0  0  0
   39.3620   31.4900   39.2670 N   0  0  0  0  0  0  0  0  0  0  0  0
   36.1660   32.2180   40.1490 H   0  0  0  0  0  0  0  0  0  0  0  0
   37.2050   34.4980   40.3420 H   0  0  0  0  0  0  0  0  0  0  0  0
   41.2800   32.9680   39.1010 C   0  0  0  0  0  3  0  0  0  0  0  0
   41.6270   33.6170   38.0000 C   0  0  0  0  0  3  0  0  0  0  0  0
   42.9990   33.9260   37.5550 C   0  0  0  0  0  2  0  0  0  0  0  0
   43.1470   35.0420   37.4880 H   0  0  0  0  0  0  0  0  0  0  0  0
  1 13  1  0  0  0  0
  1  4  1  0  0  0  0
  2  3  1  0  0  0  0
  3  8  1  0  0  0  0
  4  3  2  0  0  0  0
  4  5  1  0  0  0  0
  5  6  2  0  0  0  0
  6  7  1  0  0  0  0
  6 11  1  0  0  0  0
  7 12  1  0  0  0  0
  8  9  1  0  0  0  0
  8  7  2  0  0  0  0
 10  5  1  0  0  0  0
 13 14  1  0  0  0  0
 14 15  2  0  0  0  0
 14 19  1  0  0  0  0
 15 20  1  0  0  0  0
 16 15  1  0  0  0  0
 17 16  2  0  0  0  0
 18 17  1  0  0  0  0
 18 13  2  0  0  0  0
 21 17  1  0  0  0  0
 22 21  2  0  0  0  0
 23 22  1  0  0  0  0
 24 23  1  0  0  0  0
M  END
>  <minimizedAffinity>
-4.94187641

$$$$

 OpenBabel03252506493D

 24 25  0  0  0  0  0  0  0  0999 V2000
   37.5280   29.7170   39.4280 S   0  0  0  0  0  0  0  0  0  0  0  0
   40.5410   30.4480   40.2170 Cl  0  0  0  0  0  0  0  0  0  0  0  0
   39.3750   31.7480   40.0460 C   0  0  0  0  0  0  0  0  0  0  0  0
   38.1100   31.3600   39.7080 C   0  0  0  0  0  0  0  0  0  0  0  0
   37.1520   32.3590   39.5600 C   0  0  0  0  0  0  0  0  0  0  0  0
   37.5040   33.6890   39.7580 C   0  0  0  0  0  0  0  0  0  0  0  0
   38.7790   34.0780   40.0980 C   0  0  0  0  0  0  0  0  0  0  0  0
   39.7360   33.0710   40.2450 C   0  0  0  0  0  0  0  0  0  0  0  0
   41.3880   33.4440   40.6740 Cl  0  0  0  0  0  0  0  0  0  0  0  0
   36.1240   32.1550   39.2950 H   0  0  0  0  0  0  0  0  0  0  0  0
   36.7540   34.4770   39.6430 H   0  0  0  0  0  0  0  0  0  0  0  0
   39.0470   35.1210   40.2510 H   0  0  0  0  0  0  0  0  0  0  0  0
   37.4610   28.7240   40.9190 C   0  0  0  0  0  0  0  0  0  0  0  0
   37.4940   29.4600   42.1110 C   0  0  0  0  0  0  0  0  0  0  0  0
   37.4460   28.7470   43.3220 C   0  0  0  0  0  0  0  0  0  0  0  0
   37.3710   27.3870   43.2730 N   0  0  0  0  0  0  0  0  0  0  0  0
   37.3430   26.7300   42.1000 C   0  0  0  0  0  0  0  0  0  0  0  0
   37.3870   27.3800   40.9050 N   0  0  0  0  0  0  0  0  0  0  0  0
   37.5540   30.5390   42.1360 H   0  0  0  0  0  0  0  0  0  0  0  0
   37.4670   29.2360   44.2820 H   0  0  0  0  0  0  0  0  0  0  0  0
   37.2620   25.2740   42.1030 C   0  0  0  0  0  3  0  0  0  0  0  0
   37.5920   24.6020   41.0100 C   0  0  0  0  0  3  0  0  0  0  0  0
   37.5690   23.1370   40.8360 C   0  0  0  0  0  2  0  0  0  0  0  0
   38.6050   22.7540   40.6050 H   0  0  0  0  0  0  0  0  0  0  0  0
  1  4  1  0  0  0  0
  1 13  1  0  0  0  0
  3  2  1  0  0  0  0
  3  8  1  0  0  0  0
  4  3  2  0  0  0  0
  5  4  1  0  0  0  0
  5  6  2  0  0  0  0
  6  7  1  0  0  0  0
  7  8  2  0  0  0  0
  7 12  1  0  0  0  0
  8  9  1  0  0  0  0
 10  5  1  0  0  0  0
 11  6  1  0  0  0  0
 13 14  1  0  0  0  0
 14 19  1  0  0  0  0
 14 15  2  0  0  0  0
 15 20  1  0  0  0  0
 16 15  1  0  0  0  0
 17 21  1  0  0  0  0
 17 16  2  0  0  0  0
 18 13  2  0  0  0  0
 18 17  1  0  0  0  0
 22 21  2  0  0  0  0
 23 22  1  0  0  0  0
 24 23  1  0  0  0  0
M  END
>  <minimizedAffinity>
-4.82848215

$$$$

 OpenBabel03252506493D

 24 25  0  0  0  0  0  0  0  0999 V2000
   36.2450   27.6510   39.6080 S   0  0  0  0  0  0  0  0  0  0  0  0
   38.8480   25.8240   39.9540 Cl  0  0  0  0  0  0  0  0  0  0  0  0
   38.2300   26.6850   41.3520 C   0  0  0  0  0  0  0  0  0  0  0  0
   37.1170   27.4440   41.1280 C   0  0  0  0  0  0  0  0  0  0  0  0
   36.5920   28.1450   42.2100 C   0  0  0  0  0  0  0  0  0  0  0  0
   37.2020   28.0530   43.4550 C   0  0  0  0  0  0  0  0  0  0  0  0
   38.3230   27.2880   43.6790 C   0  0  0  0  0  0  0  0  0  0  0  0
   38.8450   26.5860   42.5900 C   0  0  0  0  0  0  0  0  0  0  0  0
   40.2660   25.5830   42.7520 Cl  0  0  0  0  0  0  0  0  0  0  0  0
   35.7150   28.7720   42.1350 H   0  0  0  0  0  0  0  0  0  0  0  0
   36.7930   28.6020   44.3080 H   0  0  0  0  0  0  0  0  0  0  0  0
   38.7950   27.2210   44.6570 H   0  0  0  0  0  0  0  0  0  0  0  0
   36.6760   29.1600   38.7420 C   0  0  0  0  0  0  0  0  0  0  0  0
   36.8220   29.0150   37.3560 C   0  0  0  0  0  0  0  0  0  0  0  0
   37.1610   30.1580   36.6100 C   0  0  0  0  0  0  0  0  0  0  0  0
   37.3290   31.3390   37.2700 N   0  0  0  0  0  0  0  0  0  0  0  0
   37.1760   31.4220   38.6040 C   0  0  0  0  0  0  0  0  0  0  0  0
   36.8480   30.3420   39.3640 N   0  0  0  0  0  0  0  0  0  0  0  0
   36.6870   28.0720   36.8440 H   0  0  0  0  0  0  0  0  0  0  0  0
   37.2930   30.1340   35.5410 H   0  0  0  0  0  0  0  0  0  0  0  0
   37.3670   32.7100   39.2620 C   0  0  0  0  0  3  0  0  0  0  0  0
   38.4710   32.9270   39.9600 C   0  0  0  0  0  3  0  0  0  0  0  0
   38.8270   34.1610   40.6860 C   0  0  0  0  0  2  0  0  0  0  0  0
   39.7750   34.6030   40.2650 H   0  0  0  0  0  0  0  0  0  0  0  0
  1  4  1  0  0  0  0
  2  3  1  0  0  0  0
  3  8  1  0  0  0  0
  4  3  2  0  0  0  0
  4  5  1  0  0  0  0
  5  6  2  0  0  0  0
  6  7  1  0  0  0  0
  6 11  1  0  0  0  0
  7 12  1  0  0  0  0
  8  9  1  0  0  0  0
  8  7  2  0  0  0  0
 10  5  1  0  0  0  0
 13 18  1  0  0  0  0
 13  1  1  0  0  0  0
 14 13  2  0  0  0  0
 15 16  2  0  0  0  0
 15 14  1  0  0  0  0
 16 17  1  0  0  0  0
 17 21  1  0  0  0  0
 17 18  2  0  0  0  0
 19 14  1  0  0  0  0
 20 15  1  0  0  0  0
 21 22  2  0  0  0  0
 22 23  1  0  0  0  0
 24 23  1  0  0  0  0
M  END
>  <minimizedAffinity>
-4.67315435

$$$$

 OpenBabel03252506493D

 24 25  0  0  0  0  0  0  0  0999 V2000
   37.0080   31.0780   39.2920 S   0  0  0  0  0  0  0  0  0  0  0  0
   35.3170   28.8040   40.7760 Cl  0  0  0  0  0  0  0  0  0  0  0  0
   36.8430   29.3120   41.4760 C   0  0  0  0  0  0  0  0  0  0  0  0
   37.5080   30.2860   40.7870 C   0  0  0  0  0  0  0  0  0  0  0  0
   38.7250   30.7200   41.3070 C   0  0  0  0  0  0  0  0  0  0  0  0
   39.2130   30.1620   42.4820 C   0  0  0  0  0  0  0  0  0  0  0  0
   38.5420   29.1810   43.1740 C   0  0  0  0  0  0  0  0  0  0  0  0
   37.3210   28.7500   42.6490 C   0  0  0  0  0  0  0  0  0  0  0  0
   36.3800   27.5100   43.4400 Cl  0  0  0  0  0  0  0  0  0  0  0  0
   39.3260   31.4850   40.8370 H   0  0  0  0  0  0  0  0  0  0  0  0
   40.1690   30.5000   42.8940 H   0  0  0  0  0  0  0  0  0  0  0  0
   38.9310   28.7490   44.0940 H   0  0  0  0  0  0  0  0  0  0  0  0
   37.1850   30.0360   37.8430 C   0  0  0  0  0  0  0  0  0  0  0  0
   37.9240   28.8650   38.0550 C   0  0  0  0  0  0  0  0  0  0  0  0
   38.1050   27.9980   36.9630 C   0  0  0  0  0  0  0  0  0  0  0  0
   37.5560   28.3400   35.7630 N   0  0  0  0  0  0  0  0  0  0  0  0
   36.8540   29.4780   35.6150 C   0  0  0  0  0  0  0  0  0  0  0  0
   36.6540   30.3450   36.6460 N   0  0  0  0  0  0  0  0  0  0  0  0
   38.3560   28.6050   39.0120 H   0  0  0  0  0  0  0  0  0  0  0  0
   38.6610   27.0780   37.0400 H   0  0  0  0  0  0  0  0  0  0  0  0
   36.2860   29.7980   34.3100 C   0  0  0  0  0  3  0  0  0  0  0  0
   36.6940   30.8850   33.6720 C   0  0  0  0  0  3  0  0  0  0  0  0
   36.2300   31.3580   32.3540 C   0  0  0  0  0  2  0  0  0  0  0  0
   37.0910   31.3900   31.6250 H   0  0  0  0  0  0  0  0  0  0  0  0
  1  4  1  0  0  0  0
  2  3  1  0  0  0  0
  3  8  1  0  0  0  0
  4  5  1  0  0  0  0
  4  3  2  0  0  0  0
  5  6  2  0  0  0  0
  6 11  1  0  0  0  0
  6  7  1  0  0  0  0
  7 12  1  0  0  0  0
  8  7  2  0  0  0  0
  8  9  1  0  0  0  0
 10  5  1  0  0  0  0
 13 14  1  0  0  0  0
 13  1  1  0  0  0  0
 14 19  1  0  0  0  0
 15 20  1  0  0  0  0
 15 14  2  0  0  0  0
 16 15  1  0  0  0  0
 17 16  2  0  0  0  0
 17 18  1  0  0  0  0
 18 13  2  0  0  0  0
 21 17  1  0  0  0  0
 22 21  2  0  0  0  0
 23 22  1  0  0  0  0
 24 23  1  0  0  0  0
M  END
>  <minimizedAffinity>
-4.66224718

$$$$

 OpenBabel03252506493D

 24 25  0  0  0  0  0  0  0  0999 V2000
   36.5610   28.9730   41.5210 S   0  0  0  0  0  0  0  0  0  0  0  0
   36.7020   26.1080   40.1050 Cl  0  0  0  0  0  0  0  0  0  0  0  0
   37.7140   26.4060   41.5070 C   0  0  0  0  0  0  0  0  0  0  0  0
   37.5990   27.6510   42.0580 C   0  0  0  0  0  0  0  0  0  0  0  0
   38.3840   27.9320   43.1730 C   0  0  0  0  0  0  0  0  0  0  0  0
   39.2390   26.9600   43.6790 C   0  0  0  0  0  0  0  0  0  0  0  0
   39.3530   25.7070   43.1230 C   0  0  0  0  0  0  0  0  0  0  0  0
   38.5630   25.4310   42.0050 C   0  0  0  0  0  0  0  0  0  0  0  0
   38.6230   23.8750   41.2130 Cl  0  0  0  0  0  0  0  0  0  0  0  0
   38.3650   28.8860   43.6800 H   0  0  0  0  0  0  0  0  0  0  0  0
   39.8570   27.1770   44.5550 H   0  0  0  0  0  0  0  0  0  0  0  0
   40.0250   24.9520   43.5260 H   0  0  0  0  0  0  0  0  0  0  0  0
   37.4700   30.4470   41.0590 C   0  0  0  0  0  0  0  0  0  0  0  0
   36.7470   31.3550   40.2740 C   0  0  0  0  0  0  0  0  0  0  0  0
   37.3960   32.5360   39.8730 C   0  0  0  0  0  0  0  0  0  0  0  0
   38.6870   32.7340   40.2650 N   0  0  0  0  0  0  0  0  0  0  0  0
   39.3340   31.8280   41.0190 C   0  0  0  0  0  0  0  0  0  0  0  0
   38.7440   30.6720   41.4310 N   0  0  0  0  0  0  0  0  0  0  0  0
   35.7230   31.1860   39.9690 H   0  0  0  0  0  0  0  0  0  0  0  0
   36.9130   33.2860   39.2690 H   0  0  0  0  0  0  0  0  0  0  0  0
   40.7140   32.0880   41.4130 C   0  0  0  0  0  3  0  0  0  0  0  0
   41.2520   31.3860   42.4000 C   0  0  0  0  0  3  0  0  0  0  0  0
   42.6250   31.5150   42.9260 C   0  0  0  0  0  2  0  0  0  0  0  0
   43.1870   30.5470   42.7920 H   0  0  0  0  0  0  0  0  0  0  0  0
  1  4  1  0  0  0  0
  2  3  1  0  0  0  0
  3  8  2  0  0  0  0
  3  4  1  0  0  0  0
  4  5  2  0  0  0  0
  5  6  1  0  0  0  0
  5 10  1  0  0  0  0
  6 11  1  0  0  0  0
  7 12  1  0  0  0  0
  7  6  2  0  0  0  0
  8  7  1  0  0  0  0
  9  8  1  0  0  0  0
 13 18  1  0  0  0  0
 13  1  1  0  0  0  0
 14 13  2  0  0  0  0
 15 16  2  0  0  0  0
 15 14  1  0  0  0  0
 16 17  1  0  0  0  0
 17 21  1  0  0  0  0
 17 18  2  0  0  0  0
 19 14  1  0  0  0  0
 20 15  1  0  0  0  0
 21 22  2  0  0  0  0
 22 23  1  0  0  0  0
 24 23  1  0  0  0  0
M  END
>  <minimizedAffinity>
-4.65937901

$$$$

 OpenBabel03252506493D

 24 25  0  0  0  0  0  0  0  0999 V2000
   37.7320   29.5680   39.6430 S   0  0  0  0  0  0  0  0  0  0  0  0
   40.4890   28.6050   40.9480 Cl  0  0  0  0  0  0  0  0  0  0  0  0
   38.9890   28.2440   41.7840 C   0  0  0  0  0  0  0  0  0  0  0  0
   37.8540   28.6860   41.1670 C   0  0  0  0  0  0  0  0  0  0  0  0
   36.6400   28.4220   41.7960 C   0  0  0  0  0  0  0  0  0  0  0  0
   36.6210   27.7330   43.0020 C   0  0  0  0  0  0  0  0  0  0  0  0
   37.7660   27.2890   43.6220 C   0  0  0  0  0  0  0  0  0  0  0  0
   38.9810   27.5560   42.9870 C   0  0  0  0  0  0  0  0  0  0  0  0
   40.5000   27.0420   43.6790 Cl  0  0  0  0  0  0  0  0  0  0  0  0
   35.6870   28.7300   41.3880 H   0  0  0  0  0  0  0  0  0  0  0  0
   35.6700   27.5240   43.5000 H   0  0  0  0  0  0  0  0  0  0  0  0
   37.7430   26.7500   44.5670 H   0  0  0  0  0  0  0  0  0  0  0  0
   38.1820   31.2980   39.7860 C   0  0  0  0  0  0  0  0  0  0  0  0
   37.1290   32.1940   39.5590 C   0  0  0  0  0  0  0  0  0  0  0  0
   37.4080   33.5690   39.6530 C   0  0  0  0  0  0  0  0  0  0  0  0
   38.6800   33.9550   39.9570 N   0  0  0  0  0  0  0  0  0  0  0  0
   39.6530   33.0510   40.1650 C   0  0  0  0  0  0  0  0  0  0  0  0
   39.4270   31.7110   40.0850 N   0  0  0  0  0  0  0  0  0  0  0  0
   36.1250   31.8750   39.3180 H   0  0  0  0  0  0  0  0  0  0  0  0
   36.6560   34.3240   39.4930 H   0  0  0  0  0  0  0  0  0  0  0  0
   40.9980   33.5170   40.4890 C   0  0  0  0  0  3  0  0  0  0  0  0
   41.9300   33.5150   39.5490 C   0  0  0  0  0  3  0  0  0  0  0  0
   43.3330   33.9480   39.6980 C   0  0  0  0  0  2  0  0  0  0  0  0
   43.5510   34.8140   39.0080 H   0  0  0  0  0  0  0  0  0  0  0  0
  1 13  1  0  0  0  0
  1  4  1  0  0  0  0
  2  3  1  0  0  0  0
  3  8  1  0  0  0  0
  4  3  2  0  0  0  0
  4  5  1  0  0  0  0
  5  6  2  0  0  0  0
  6 11  1  0  0  0  0
  6  7  1  0  0  0  0
  7 12  1  0  0  0  0
  8  7  2  0  0  0  0
  8  9  1  0  0  0  0
 10  5  1  0  0  0  0
 13 18  1  0  0  0  0
 14 15  1  0  0  0  0
 14 13  2  0  0  0  0
 15 16  2  0  0  0  0
 16 17  1  0  0  0  0
 17 21  1  0  0  0  0
 18 17  2  0  0  0  0
 19 14  1  0  0  0  0
 20 15  1  0  0  0  0
 22 23  1  0  0  0  0
 22 21  2  0  0  0  0
 24 23  1  0  0  0  0
M  END
>  <minimizedAffinity>
-4.65025377

$$$$
