
     RDKit          3D

 20 20  0  0  0  0  0  0  0  0999 V2000
   44.3787   35.7889   44.4460 C   0  0  0  0  0  0  0  0  0  0  0  0
   44.6584   35.0828   43.2830 C   0  0  0  0  0  0  0  0  0  0  0  0
   45.2812   33.8490   43.3936 C   0  0  0  0  0  0  0  0  0  0  0  0
   45.5976   33.3698   44.6252 N   0  0  0  0  0  0  0  0  0  0  0  0
   45.3070   34.0918   45.7416 C   0  0  0  0  0  0  0  0  0  0  0  0
   44.7024   35.2916   45.6510 N   0  0  0  0  0  0  0  0  0  0  0  0
   44.2737   35.6920   41.9965 C   0  0  0  0  0  0  0  0  0  0  0  0
   43.9024   36.7502   44.5037 H   0  0  0  0  0  0  0  0  0  0  0  0
   45.6271   33.5611   46.6216 H   0  0  0  0  0  0  0  0  0  0  0  0
   43.3928   35.1899   41.5501 H   0  0  0  0  0  0  0  0  0  0  0  0
   45.1211   35.5117   41.2722 H   0  0  0  0  0  0  0  0  0  0  0  0
   44.1869   36.7764   42.1037 H   0  0  0  0  0  0  0  0  0  0  0  0
   45.5864   33.0866   42.1895 C   0  0  0  0  0  0  0  0  0  0  0  0
   44.6150   32.4647   41.5430 C   0  0  0  0  0  0  0  0  0  0  0  0
   44.9318   31.6836   40.3080 C   0  0  0  0  0  0  0  0  0  0  0  0
   44.1227   30.9490   40.0868 H   0  0  0  0  0  0  0  0  0  0  0  0
   46.6008   33.0318   41.8300 H   0  0  0  0  0  0  0  0  0  0  0  0
   43.5970   32.5185   41.9021 H   0  0  0  0  0  0  0  0  0  0  0  0
   45.8792   31.1022   40.4537 H   0  0  0  0  0  0  0  0  0  0  0  0
   45.1328   32.3739   39.4526 H   0  0  0  0  0  0  0  0  0  0  0  0
  1  6  2  0
  2  3  2  0
  2  1  1  0
  3  4  1  0
  4  5  2  0
  6  5  1  0
  7  2  1  0
  1  8  1  0
  5  9  1  0
  7 10  1  0
  7 11  1  0
  7 12  1  0
 13 14  2  3
 14 15  1  0
 15 16  1  0
 13 17  1  0
 14 18  1  0
 15 19  1  0
 15 20  1  0
  3 13  1  0
M  ISO  6   8  14   9  14  10   8  11   8  12   8  16   8
M  END
>  <DihAtoms>  (1) 
1,2,12,13

>  <DihDeg>  (1) 
179.99620600824127

$$$$
