
 OpenBabel03242517393D

 28 29  0  0  0  0  0  0  0  0999 V2000
   32.5760   29.3160   36.2770 C   0  0  0  0  0  0  0  0  0  0  0  0
   32.2030   28.5170   35.6240 H   0  0  0  0  0  0  0  0  0  0  0  0
   33.3380   29.9410   35.7450 H   0  0  0  0  0  0  0  0  0  0  0  0
   31.4690   30.2180   36.7210 C   0  0  0  0  0  0  0  0  0  0  0  0
   30.8620   29.9490   37.9480 C   0  0  0  0  0  0  0  0  0  0  0  0
   29.8350   30.7750   38.3760 C   0  0  0  0  0  0  0  0  0  0  0  0
   29.3980   31.8560   37.6200 C   0  0  0  0  0  0  0  0  0  0  0  0
   30.0070   32.1100   36.4100 C   0  0  0  0  0  0  0  0  0  0  0  0
   31.0370   31.2930   35.9660 C   0  0  0  0  0  0  0  0  0  0  0  0
   31.1640   29.1210   38.5740 H   0  0  0  0  0  0  0  0  0  0  0  0
   29.3130   30.6320   39.3170 H   0  0  0  0  0  0  0  0  0  0  0  0
   28.6100   32.5350   37.8890 H   0  0  0  0  0  0  0  0  0  0  0  0
   29.7600   32.9170   35.7280 H   0  0  0  0  0  0  0  0  0  0  0  0
   31.5390   31.4610   35.0210 H   0  0  0  0  0  0  0  0  0  0  0  0
   34.5140   29.0760   37.8060 C   0  0  0  0  0  3  0  0  0  0  0  0
   33.2920   28.7330   37.4510 C   0  0  0  0  0  3  0  0  0  0  0  0
   35.1710   29.1270   40.2020 C   0  0  0  0  0  0  0  0  0  0  0  0
   35.2470   28.5350   38.9400 C   0  0  0  0  0  0  0  0  0  0  0  0
   36.0380   27.4150   38.7900 C   0  0  0  0  0  0  0  0  0  0  0  0
   36.7130   26.9310   39.8750 N   0  0  0  0  0  0  0  0  0  0  0  0
   36.6210   27.5250   41.0860 C   0  0  0  0  0  0  0  0  0  0  0  0
   35.8580   28.6090   41.2440 N   0  0  0  0  0  0  0  0  0  0  0  0
   34.5440   30.0070   40.3090 H   0  0  0  0  0  0  0  0  0  0  0  0
   36.1480   26.9010   37.8420 H   0  0  0  0  0  0  0  0  0  0  0  0
   37.3650   26.9700   42.2240 C   0  0  0  0  0  3  0  0  0  0  0  0
   38.5000   27.5440   42.6330 C   0  0  0  0  0  3  0  0  0  0  0  0
   39.2330   26.9630   43.7870 C   0  0  0  0  0  2  0  0  0  0  0  0
   38.7290   27.2120   44.7570 H   0  0  0  0  0  0  0  0  0  0  0  0
  1  4  1  0  0  0  0
  1 16  1  0  0  0  0
  2  1  1  0  0  0  0
  3  1  1  0  0  0  0
  4  5  1  0  0  0  0
  5  6  2  0  0  0  0
  5 10  1  0  0  0  0
  6 11  1  0  0  0  0
  7 12  1  0  0  0  0
  7  6  1  0  0  0  0
  8  7  2  0  0  0  0
  9  8  1  0  0  0  0
  9  4  2  0  0  0  0
 13  8  1  0  0  0  0
 14  9  1  0  0  0  0
 15 18  1  0  0  0  0
 16 15  2  0  0  0  0
 17 23  1  0  0  0  0
 17 22  1  0  0  0  0
 18 17  2  0  0  0  0
 19 18  1  0  0  0  0
 19 20  2  0  0  0  0
 20 21  1  0  0  0  0
 21 22  2  0  0  0  0
 21 25  1  0  0  0  0
 24 19  1  0  0  0  0
 25 26  2  0  0  0  0
 26 27  1  0  0  0  0
 27 28  1  0  0  0  0
M  END
>  <minimizedAffinity>
-5.21668768

$$$$

 OpenBabel03242517393D

 28 29  0  0  0  0  0  0  0  0999 V2000
   37.0150   25.2490   42.4280 C   0  0  0  0  0  0  0  0  0  0  0  0
   36.0220   25.2470   42.8920 H   0  0  0  0  0  0  0  0  0  0  0  0
   37.8060   24.9970   43.1820 H   0  0  0  0  0  0  0  0  0  0  0  0
   37.1000   24.2480   41.3200 C   0  0  0  0  0  0  0  0  0  0  0  0
   38.2820   23.5170   41.1920 C   0  0  0  0  0  0  0  0  0  0  0  0
   38.3780   22.5840   40.1710 C   0  0  0  0  0  0  0  0  0  0  0  0
   37.3360   22.3600   39.2800 C   0  0  0  0  0  0  0  0  0  0  0  0
   36.1740   23.0880   39.4190 C   0  0  0  0  0  0  0  0  0  0  0  0
   36.0600   24.0270   40.4350 C   0  0  0  0  0  0  0  0  0  0  0  0
   39.1220   23.6540   41.8580 H   0  0  0  0  0  0  0  0  0  0  0  0
   39.2640   21.9780   40.0050 H   0  0  0  0  0  0  0  0  0  0  0  0
   37.3420   21.6560   38.4690 H   0  0  0  0  0  0  0  0  0  0  0  0
   35.2920   23.0090   38.7920 H   0  0  0  0  0  0  0  0  0  0  0  0
   35.1630   24.6180   40.5750 H   0  0  0  0  0  0  0  0  0  0  0  0
   36.5190   27.6360   41.9720 C   0  0  0  0  0  3  0  0  0  0  0  0
   37.3560   26.6170   41.9380 C   0  0  0  0  0  3  0  0  0  0  0  0
   38.0360   29.5930   41.7710 C   0  0  0  0  0  0  0  0  0  0  0  0
   36.8090   28.9820   41.5060 C   0  0  0  0  0  0  0  0  0  0  0  0
   35.8690   29.6900   40.7860 C   0  0  0  0  0  0  0  0  0  0  0  0
   36.1730   30.9530   40.3620 N   0  0  0  0  0  0  0  0  0  0  0  0
   37.3700   31.5190   40.6330 C   0  0  0  0  0  0  0  0  0  0  0  0
   38.2880   30.8450   41.3290 N   0  0  0  0  0  0  0  0  0  0  0  0
   38.7690   29.0270   42.3390 H   0  0  0  0  0  0  0  0  0  0  0  0
   34.8950   29.2830   40.5410 H   0  0  0  0  0  0  0  0  0  0  0  0
   37.6530   32.8790   40.1570 C   0  0  0  0  0  3  0  0  0  0  0  0
   38.6520   33.5870   40.6920 C   0  0  0  0  0  3  0  0  0  0  0  0
   38.9180   34.9610   40.1930 C   0  0  0  0  0  2  0  0  0  0  0  0
   39.4340   34.9400   39.1980 H   0  0  0  0  0  0  0  0  0  0  0  0
  1  2  1  0  0  0  0
  1  3  1  0  0  0  0
  4  1  1  0  0  0  0
  5  4  1  0  0  0  0
  5 10  1  0  0  0  0
  6  5  2  0  0  0  0
  7  8  2  0  0  0  0
  7  6  1  0  0  0  0
  8  9  1  0  0  0  0
  9 14  1  0  0  0  0
  9  4  2  0  0  0  0
 11  6  1  0  0  0  0
 12  7  1  0  0  0  0
 13  8  1  0  0  0  0
 16 15  2  0  0  0  0
 16  1  1  0  0  0  0
 17 23  1  0  0  0  0
 18 17  1  0  0  0  0
 18 15  1  0  0  0  0
 19 18  2  0  0  0  0
 20 21  2  0  0  0  0
 20 19  1  0  0  0  0
 21 22  1  0  0  0  0
 22 17  2  0  0  0  0
 24 19  1  0  0  0  0
 25 21  1  0  0  0  0
 25 26  2  0  0  0  0
 27 26  1  0  0  0  0
 28 27  1  0  0  0  0
M  END
>  <minimizedAffinity>
-5.16867447

$$$$

 OpenBabel03242517393D

 28 29  0  0  0  0  0  0  0  0999 V2000
   32.5380   29.0330   35.4670 C   0  0  0  0  0  0  0  0  0  0  0  0
   31.9210   28.1540   35.2460 H   0  0  0  0  0  0  0  0  0  0  0  0
   33.3760   29.1250   34.7280 H   0  0  0  0  0  0  0  0  0  0  0  0
   31.7330   30.2920   35.4110 C   0  0  0  0  0  0  0  0  0  0  0  0
   31.0200   30.6610   36.5520 C   0  0  0  0  0  0  0  0  0  0  0  0
   30.2700   31.8250   36.5180 C   0  0  0  0  0  0  0  0  0  0  0  0
   30.2100   32.6280   35.3850 C   0  0  0  0  0  0  0  0  0  0  0  0
   30.9200   32.2520   34.2660 C   0  0  0  0  0  0  0  0  0  0  0  0
   31.6770   31.0890   34.2810 C   0  0  0  0  0  0  0  0  0  0  0  0
   31.0320   30.0700   37.4580 H   0  0  0  0  0  0  0  0  0  0  0  0
   29.6870   32.1780   37.3640 H   0  0  0  0  0  0  0  0  0  0  0  0
   29.6510   33.5400   35.2900 H   0  0  0  0  0  0  0  0  0  0  0  0
   30.9570   32.7880   33.3230 H   0  0  0  0  0  0  0  0  0  0  0  0
   32.2480   30.7620   33.4210 H   0  0  0  0  0  0  0  0  0  0  0  0
   34.4880   29.0680   37.0000 C   0  0  0  0  0  3  0  0  0  0  0  0
   33.1980   28.8810   36.7980 C   0  0  0  0  0  3  0  0  0  0  0  0
   34.5010   29.1410   39.4830 C   0  0  0  0  0  0  0  0  0  0  0  0
   35.1710   28.9310   38.2770 C   0  0  0  0  0  0  0  0  0  0  0  0
   36.5060   28.5860   38.3220 C   0  0  0  0  0  0  0  0  0  0  0  0
   37.1170   28.4650   39.5380 N   0  0  0  0  0  0  0  0  0  0  0  0
   36.4440   28.6750   40.6910 C   0  0  0  0  0  0  0  0  0  0  0  0
   35.1510   29.0090   40.6600 N   0  0  0  0  0  0  0  0  0  0  0  0
   33.4500   29.4120   39.4360 H   0  0  0  0  0  0  0  0  0  0  0  0
   37.0920   28.4070   37.4280 H   0  0  0  0  0  0  0  0  0  0  0  0
   37.1420   28.5340   41.9750 C   0  0  0  0  0  3  0  0  0  0  0  0
   36.6130   27.7920   42.9520 C   0  0  0  0  0  3  0  0  0  0  0  0
   37.3390   27.6650   44.2420 C   0  0  0  0  0  2  0  0  0  0  0  0
   38.2120   26.9670   44.1520 H   0  0  0  0  0  0  0  0  0  0  0  0
  1 16  1  0  0  0  0
  2  1  1  0  0  0  0
  3  1  1  0  0  0  0
  4  1  1  0  0  0  0
  4  5  1  0  0  0  0
  5 10  1  0  0  0  0
  6  5  2  0  0  0  0
  6 11  1  0  0  0  0
  7  6  1  0  0  0  0
  8  9  1  0  0  0  0
  8  7  2  0  0  0  0
  9  4  2  0  0  0  0
 12  7  1  0  0  0  0
 13  8  1  0  0  0  0
 14  9  1  0  0  0  0
 15 18  1  0  0  0  0
 16 15  2  0  0  0  0
 17 22  1  0  0  0  0
 18 19  1  0  0  0  0
 18 17  2  0  0  0  0
 19 20  2  0  0  0  0
 20 21  1  0  0  0  0
 21 25  1  0  0  0  0
 22 21  2  0  0  0  0
 23 17  1  0  0  0  0
 24 19  1  0  0  0  0
 25 26  2  0  0  0  0
 26 27  1  0  0  0  0
 28 27  1  0  0  0  0
M  END
>  <minimizedAffinity>
-5.12632227

$$$$

 OpenBabel03242517393D

 28 29  0  0  0  0  0  0  0  0999 V2000
   36.6290   27.7920   42.0660 C   0  0  0  0  0  0  0  0  0  0  0  0
   35.6590   27.3160   42.2510 H   0  0  0  0  0  0  0  0  0  0  0  0
   36.6900   28.7850   42.5820 H   0  0  0  0  0  0  0  0  0  0  0  0
   37.7560   26.9440   42.5650 C   0  0  0  0  0  0  0  0  0  0  0  0
   37.8690   25.6490   42.0600 C   0  0  0  0  0  0  0  0  0  0  0  0
   38.9080   24.8490   42.5100 C   0  0  0  0  0  0  0  0  0  0  0  0
   39.8310   25.3010   43.4450 C   0  0  0  0  0  0  0  0  0  0  0  0
   39.7070   26.5840   43.9340 C   0  0  0  0  0  0  0  0  0  0  0  0
   38.6740   27.3990   43.4950 C   0  0  0  0  0  0  0  0  0  0  0  0
   37.1760   25.2490   41.3320 H   0  0  0  0  0  0  0  0  0  0  0  0
   39.0620   23.8310   42.1660 H   0  0  0  0  0  0  0  0  0  0  0  0
   40.6570   24.7380   43.8360 H   0  0  0  0  0  0  0  0  0  0  0  0
   40.3590   27.0540   44.6630 H   0  0  0  0  0  0  0  0  0  0  0  0
   38.5450   28.4110   43.8570 H   0  0  0  0  0  0  0  0  0  0  0  0
   35.8220   28.5580   39.8490 C   0  0  0  0  0  3  0  0  0  0  0  0
   36.7910   28.0910   40.6120 C   0  0  0  0  0  3  0  0  0  0  0  0
   34.8160   28.8600   37.5970 C   0  0  0  0  0  0  0  0  0  0  0  0
   35.9350   28.8620   38.4320 C   0  0  0  0  0  0  0  0  0  0  0  0
   37.1630   29.1610   37.8770 C   0  0  0  0  0  0  0  0  0  0  0  0
   37.2350   29.4430   36.5430 N   0  0  0  0  0  0  0  0  0  0  0  0
   36.1340   29.4340   35.7580 C   0  0  0  0  0  0  0  0  0  0  0  0
   34.9410   29.1460   36.2830 N   0  0  0  0  0  0  0  0  0  0  0  0
   33.8550   28.6230   38.0440 H   0  0  0  0  0  0  0  0  0  0  0  0
   38.0760   29.1820   38.4600 H   0  0  0  0  0  0  0  0  0  0  0  0
   36.2600   29.7430   34.3280 C   0  0  0  0  0  3  0  0  0  0  0  0
   36.3190   31.0120   33.9150 C   0  0  0  0  0  3  0  0  0  0  0  0
   36.4460   31.2980   32.4630 C   0  0  0  0  0  2  0  0  0  0  0  0
   37.4890   31.1050   32.0980 H   0  0  0  0  0  0  0  0  0  0  0  0
  1  2  1  0  0  0  0
  1  4  1  0  0  0  0
  1  3  1  0  0  0  0
  4  9  1  0  0  0  0
  5  6  1  0  0  0  0
  5  4  2  0  0  0  0
  6  7  2  0  0  0  0
  7 12  1  0  0  0  0
  7  8  1  0  0  0  0
  8 13  1  0  0  0  0
  9 14  1  0  0  0  0
  9  8  2  0  0  0  0
 10  5  1  0  0  0  0
 11  6  1  0  0  0  0
 15 16  2  0  0  0  0
 16  1  1  0  0  0  0
 17 23  1  0  0  0  0
 17 18  1  0  0  0  0
 18 15  1  0  0  0  0
 19 18  2  0  0  0  0
 19 24  1  0  0  0  0
 20 19  1  0  0  0  0
 21 22  1  0  0  0  0
 21 20  2  0  0  0  0
 22 17  2  0  0  0  0
 25 21  1  0  0  0  0
 26 25  2  0  0  0  0
 27 26  1  0  0  0  0
 28 27  1  0  0  0  0
M  END
>  <minimizedAffinity>
-5.08930063

$$$$

 OpenBabel03242517393D

 28 29  0  0  0  0  0  0  0  0999 V2000
   37.5060   28.2100   43.5000 C   0  0  0  0  0  0  0  0  0  0  0  0
   36.4130   28.1370   43.4440 H   0  0  0  0  0  0  0  0  0  0  0  0
   37.8290   28.5680   44.5120 H   0  0  0  0  0  0  0  0  0  0  0  0
   38.1530   26.8830   43.2540 C   0  0  0  0  0  0  0  0  0  0  0  0
   37.4720   25.9650   42.4550 C   0  0  0  0  0  0  0  0  0  0  0  0
   38.0560   24.7320   42.2150 C   0  0  0  0  0  0  0  0  0  0  0  0
   39.2930   24.3890   42.7460 C   0  0  0  0  0  0  0  0  0  0  0  0
   39.9550   25.3070   43.5330 C   0  0  0  0  0  0  0  0  0  0  0  0
   39.3850   26.5460   43.7840 C   0  0  0  0  0  0  0  0  0  0  0  0
   36.5060   26.1820   42.0180 H   0  0  0  0  0  0  0  0  0  0  0  0
   37.5890   23.9640   41.6050 H   0  0  0  0  0  0  0  0  0  0  0  0
   39.8030   23.4550   42.6020 H   0  0  0  0  0  0  0  0  0  0  0  0
   40.9220   25.1630   44.0060 H   0  0  0  0  0  0  0  0  0  0  0  0
   39.8750   27.2920   44.3980 H   0  0  0  0  0  0  0  0  0  0  0  0
   39.0120   30.0500   42.7950 C   0  0  0  0  0  3  0  0  0  0  0  0
   38.0080   29.2350   42.5370 C   0  0  0  0  0  3  0  0  0  0  0  0
   38.7030   31.7040   40.9670 C   0  0  0  0  0  0  0  0  0  0  0  0
   39.5320   31.0610   41.8880 C   0  0  0  0  0  0  0  0  0  0  0  0
   40.8670   31.4080   41.9200 C   0  0  0  0  0  0  0  0  0  0  0  0
   41.3230   32.3620   41.0550 N   0  0  0  0  0  0  0  0  0  0  0  0
   40.4980   32.9690   40.1740 C   0  0  0  0  0  0  0  0  0  0  0  0
   39.2040   32.6420   40.1330 N   0  0  0  0  0  0  0  0  0  0  0  0
   37.6540   31.4230   40.9510 H   0  0  0  0  0  0  0  0  0  0  0  0
   41.5710   30.9530   42.6070 H   0  0  0  0  0  0  0  0  0  0  0  0
   41.0330   33.9890   39.2620 C   0  0  0  0  0  3  0  0  0  0  0  0
   42.1260   33.7380   38.5370 C   0  0  0  0  0  3  0  0  0  0  0  0
   42.6470   34.7860   37.6220 C   0  0  0  0  0  2  0  0  0  0  0  0
   42.0210   34.8670   36.6960 H   0  0  0  0  0  0  0  0  0  0  0  0
  1  3  1  0  0  0  0
  2  1  1  0  0  0  0
  4  1  1  0  0  0  0
  4  9  1  0  0  0  0
  5  4  2  0  0  0  0
  6  5  1  0  0  0  0
  6  7  2  0  0  0  0
  7  8  1  0  0  0  0
  8  9  2  0  0  0  0
  8 13  1  0  0  0  0
  9 14  1  0  0  0  0
 10  5  1  0  0  0  0
 11  6  1  0  0  0  0
 12  7  1  0  0  0  0
 16 15  2  0  0  0  0
 16  1  1  0  0  0  0
 17 18  1  0  0  0  0
 18 19  2  0  0  0  0
 18 15  1  0  0  0  0
 19 24  1  0  0  0  0
 20 19  1  0  0  0  0
 21 20  2  0  0  0  0
 22 21  1  0  0  0  0
 22 17  2  0  0  0  0
 23 17  1  0  0  0  0
 25 21  1  0  0  0  0
 26 25  2  0  0  0  0
 27 26  1  0  0  0  0
 28 27  1  0  0  0  0
M  END
>  <minimizedAffinity>
-4.95553493

$$$$

 OpenBabel03242517393D

 28 29  0  0  0  0  0  0  0  0999 V2000
   37.4800   27.6210   43.9320 C   0  0  0  0  0  0  0  0  0  0  0  0
   37.1770   26.6390   44.3150 H   0  0  0  0  0  0  0  0  0  0  0  0
   37.2810   28.4210   44.6920 H   0  0  0  0  0  0  0  0  0  0  0  0
   38.9380   27.6510   43.6030 C   0  0  0  0  0  0  0  0  0  0  0  0
   39.7000   26.5260   43.9190 C   0  0  0  0  0  0  0  0  0  0  0  0
   41.0540   26.5350   43.6200 C   0  0  0  0  0  0  0  0  0  0  0  0
   41.6660   27.6290   43.0190 C   0  0  0  0  0  0  0  0  0  0  0  0
   40.9000   28.7330   42.7120 C   0  0  0  0  0  0  0  0  0  0  0  0
   39.5440   28.7410   43.0040 C   0  0  0  0  0  0  0  0  0  0  0  0
   39.2730   25.6500   44.3880 H   0  0  0  0  0  0  0  0  0  0  0  0
   41.7130   25.7000   43.8350 H   0  0  0  0  0  0  0  0  0  0  0  0
   42.7050   27.7040   42.7600 H   0  0  0  0  0  0  0  0  0  0  0  0
   41.2550   29.6450   42.2440 H   0  0  0  0  0  0  0  0  0  0  0  0
   38.9110   29.5910   42.7780 H   0  0  0  0  0  0  0  0  0  0  0  0
   36.8900   27.5430   41.5250 C   0  0  0  0  0  3  0  0  0  0  0  0
   36.6570   27.9910   42.7420 C   0  0  0  0  0  3  0  0  0  0  0  0
   36.2500   27.1490   39.1560 C   0  0  0  0  0  0  0  0  0  0  0  0
   36.1150   27.8760   40.3400 C   0  0  0  0  0  0  0  0  0  0  0  0
   35.2230   28.9280   40.3620 C   0  0  0  0  0  0  0  0  0  0  0  0
   34.5100   29.2150   39.2320 N   0  0  0  0  0  0  0  0  0  0  0  0
   34.6610   28.4930   38.1000 C   0  0  0  0  0  0  0  0  0  0  0  0
   35.5210   27.4730   38.0660 N   0  0  0  0  0  0  0  0  0  0  0  0
   36.9550   26.3230   39.1500 H   0  0  0  0  0  0  0  0  0  0  0  0
   35.0630   29.5390   41.2430 H   0  0  0  0  0  0  0  0  0  0  0  0
   33.8740   28.8380   36.9090 C   0  0  0  0  0  3  0  0  0  0  0  0
   32.6010   29.2240   37.0300 C   0  0  0  0  0  3  0  0  0  0  0  0
   31.8260   29.5670   35.8100 C   0  0  0  0  0  2  0  0  0  0  0  0
   32.1180   30.5730   35.4110 H   0  0  0  0  0  0  0  0  0  0  0  0
  1  2  1  0  0  0  0
  1  3  1  0  0  0  0
  4  5  1  0  0  0  0
  4  1  1  0  0  0  0
  5 10  1  0  0  0  0
  6 11  1  0  0  0  0
  6  5  2  0  0  0  0
  7  6  1  0  0  0  0
  8  9  1  0  0  0  0
  8  7  2  0  0  0  0
  9  4  2  0  0  0  0
 12  7  1  0  0  0  0
 13  8  1  0  0  0  0
 14  9  1  0  0  0  0
 15 16  2  0  0  0  0
 16  1  1  0  0  0  0
 17 18  1  0  0  0  0
 18 19  2  0  0  0  0
 18 15  1  0  0  0  0
 19 24  1  0  0  0  0
 20 19  1  0  0  0  0
 21 20  2  0  0  0  0
 22 21  1  0  0  0  0
 22 17  2  0  0  0  0
 23 17  1  0  0  0  0
 25 26  2  0  0  0  0
 25 21  1  0  0  0  0
 27 26  1  0  0  0  0
 28 27  1  0  0  0  0
M  END
>  <minimizedAffinity>
-4.82409763

$$$$

 OpenBabel03242517393D

 28 29  0  0  0  0  0  0  0  0999 V2000
   37.0600   32.7990   39.9010 C   0  0  0  0  0  0  0  0  0  0  0  0
   36.5570   33.1930   40.7920 H   0  0  0  0  0  0  0  0  0  0  0  0
   36.4990   33.0800   38.9720 H   0  0  0  0  0  0  0  0  0  0  0  0
   38.4510   33.3340   39.7790 C   0  0  0  0  0  0  0  0  0  0  0  0
   38.7180   34.5860   40.3340 C   0  0  0  0  0  0  0  0  0  0  0  0
   40.0020   35.0980   40.2320 C   0  0  0  0  0  0  0  0  0  0  0  0
   41.0220   34.4000   39.5960 C   0  0  0  0  0  0  0  0  0  0  0  0
   40.7440   33.1640   39.0540 C   0  0  0  0  0  0  0  0  0  0  0  0
   39.4640   32.6360   39.1470 C   0  0  0  0  0  0  0  0  0  0  0  0
   37.9590   35.1690   40.8380 H   0  0  0  0  0  0  0  0  0  0  0  0
   40.2870   36.0640   40.6360 H   0  0  0  0  0  0  0  0  0  0  0  0
   42.0350   34.7350   39.4810 H   0  0  0  0  0  0  0  0  0  0  0  0
   41.4480   32.5220   38.5340 H   0  0  0  0  0  0  0  0  0  0  0  0
   39.2090   31.6690   38.7320 H   0  0  0  0  0  0  0  0  0  0  0  0
   36.9840   30.5930   41.0320 C   0  0  0  0  0  3  0  0  0  0  0  0
   37.0630   31.3050   39.9260 C   0  0  0  0  0  3  0  0  0  0  0  0
   36.7250   28.3600   39.9730 C   0  0  0  0  0  0  0  0  0  0  0  0
   36.9840   29.1400   41.1010 C   0  0  0  0  0  0  0  0  0  0  0  0
   37.2430   28.4970   42.2940 C   0  0  0  0  0  0  0  0  0  0  0  0
   37.2360   27.1310   42.3250 N   0  0  0  0  0  0  0  0  0  0  0  0
   36.9830   26.4010   41.2170 C   0  0  0  0  0  0  0  0  0  0  0  0
   36.7310   27.0110   40.0560 N   0  0  0  0  0  0  0  0  0  0  0  0
   36.5230   28.8760   39.0390 H   0  0  0  0  0  0  0  0  0  0  0  0
   37.4520   29.0340   43.2120 H   0  0  0  0  0  0  0  0  0  0  0  0
   36.9860   24.9350   41.2970 C   0  0  0  0  0  3  0  0  0  0  0  0
   37.7540   24.2160   40.4740 C   0  0  0  0  0  3  0  0  0  0  0  0
   37.7390   22.7340   40.5750 C   0  0  0  0  0  2  0  0  0  0  0  0
   38.3200   22.3800   41.4660 H   0  0  0  0  0  0  0  0  0  0  0  0
  1 16  1  0  0  0  0
  1  2  1  0  0  0  0
  3  1  1  0  0  0  0
  4  1  1  0  0  0  0
  4  5  1  0  0  0  0
  5 10  1  0  0  0  0
  6  5  2  0  0  0  0
  6 11  1  0  0  0  0
  7  6  1  0  0  0  0
  8  9  1  0  0  0  0
  8  7  2  0  0  0  0
  9  4  2  0  0  0  0
 12  7  1  0  0  0  0
 13  8  1  0  0  0  0
 14  9  1  0  0  0  0
 15 18  1  0  0  0  0
 16 15  2  0  0  0  0
 17 22  2  0  0  0  0
 17 18  1  0  0  0  0
 18 19  2  0  0  0  0
 19 20  1  0  0  0  0
 19 24  1  0  0  0  0
 21 25  1  0  0  0  0
 21 20  2  0  0  0  0
 22 21  1  0  0  0  0
 23 17  1  0  0  0  0
 26 27  1  0  0  0  0
 26 25  2  0  0  0  0
 27 28  1  0  0  0  0
M  END
>  <minimizedAffinity>
-4.75000668

$$$$

 OpenBabel03242517393D

 28 29  0  0  0  0  0  0  0  0999 V2000
   37.1230   28.4740   42.4230 C   0  0  0  0  0  0  0  0  0  0  0  0
   36.3990   27.7670   42.8450 H   0  0  0  0  0  0  0  0  0  0  0  0
   36.9100   29.5170   42.7720 H   0  0  0  0  0  0  0  0  0  0  0  0
   38.5210   28.1290   42.8290 C   0  0  0  0  0  0  0  0  0  0  0  0
   38.7190   26.9480   43.5450 C   0  0  0  0  0  0  0  0  0  0  0  0
   40.0070   26.6120   43.9290 C   0  0  0  0  0  0  0  0  0  0  0  0
   41.0990   27.4160   43.6210 C   0  0  0  0  0  0  0  0  0  0  0  0
   40.8880   28.5790   42.9120 C   0  0  0  0  0  0  0  0  0  0  0  0
   39.6050   28.9310   42.5200 C   0  0  0  0  0  0  0  0  0  0  0  0
   37.9040   26.2890   43.8100 H   0  0  0  0  0  0  0  0  0  0  0  0
   40.2420   25.7120   44.4880 H   0  0  0  0  0  0  0  0  0  0  0  0
   42.1200   27.2170   43.8860 H   0  0  0  0  0  0  0  0  0  0  0  0
   41.6510   29.2900   42.6110 H   0  0  0  0  0  0  0  0  0  0  0  0
   39.4010   29.8380   41.9630 H   0  0  0  0  0  0  0  0  0  0  0  0
   36.8520   29.6360   40.2490 C   0  0  0  0  0  3  0  0  0  0  0  0
   36.9960   28.5200   40.9360 C   0  0  0  0  0  3  0  0  0  0  0  0
   37.3900   30.7150   38.0760 C   0  0  0  0  0  0  0  0  0  0  0  0
   36.7250   29.7260   38.8020 C   0  0  0  0  0  0  0  0  0  0  0  0
   35.9370   28.8270   38.1130 C   0  0  0  0  0  0  0  0  0  0  0  0
   35.8390   28.9390   36.7550 N   0  0  0  0  0  0  0  0  0  0  0  0
   36.4950   29.9070   36.0770 C   0  0  0  0  0  0  0  0  0  0  0  0
   37.2610   30.7820   36.7330 N   0  0  0  0  0  0  0  0  0  0  0  0
   38.0080   31.4160   38.6290 H   0  0  0  0  0  0  0  0  0  0  0  0
   35.3900   28.0330   38.6070 H   0  0  0  0  0  0  0  0  0  0  0  0
   36.3610   29.9890   34.6170 C   0  0  0  0  0  3  0  0  0  0  0  0
   36.5210   31.1570   33.9890 C   0  0  0  0  0  3  0  0  0  0  0  0
   36.3790   31.2140   32.5120 C   0  0  0  0  0  2  0  0  0  0  0  0
   37.2810   30.7870   31.9990 H   0  0  0  0  0  0  0  0  0  0  0  0
  1  3  1  0  0  0  0
  1  4  1  0  0  0  0
  1  2  1  0  0  0  0
  4  5  1  0  0  0  0
  5 10  1  0  0  0  0
  5  6  2  0  0  0  0
  6 11  1  0  0  0  0
  7 12  1  0  0  0  0
  7  6  1  0  0  0  0
  8  7  2  0  0  0  0
  9  4  2  0  0  0  0
  9  8  1  0  0  0  0
 13  8  1  0  0  0  0
 14  9  1  0  0  0  0
 15 16  2  0  0  0  0
 16  1  1  0  0  0  0
 17 23  1  0  0  0  0
 17 18  1  0  0  0  0
 18 15  1  0  0  0  0
 19 24  1  0  0  0  0
 19 18  2  0  0  0  0
 20 19  1  0  0  0  0
 21 22  1  0  0  0  0
 21 20  2  0  0  0  0
 22 17  2  0  0  0  0
 25 21  1  0  0  0  0
 26 25  2  0  0  0  0
 27 26  1  0  0  0  0
 28 27  1  0  0  0  0
M  END
>  <minimizedAffinity>
-4.65315199

$$$$

 OpenBabel03242517393D

 28 29  0  0  0  0  0  0  0  0999 V2000
   37.4390   28.0390   43.2270 C   0  0  0  0  0  0  0  0  0  0  0  0
   36.8490   28.0440   44.1520 H   0  0  0  0  0  0  0  0  0  0  0  0
   38.0640   28.9660   43.1500 H   0  0  0  0  0  0  0  0  0  0  0  0
   38.3570   26.8600   43.1740 C   0  0  0  0  0  0  0  0  0  0  0  0
   37.9410   25.7420   42.4500 C   0  0  0  0  0  0  0  0  0  0  0  0
   38.7790   24.6400   42.3890 C   0  0  0  0  0  0  0  0  0  0  0  0
   40.0140   24.6200   43.0250 C   0  0  0  0  0  0  0  0  0  0  0  0
   40.4130   25.7320   43.7360 C   0  0  0  0  0  0  0  0  0  0  0  0
   39.5870   26.8440   43.8080 C   0  0  0  0  0  0  0  0  0  0  0  0
   36.9890   25.7060   41.9380 H   0  0  0  0  0  0  0  0  0  0  0  0
   38.5260   23.7340   41.8480 H   0  0  0  0  0  0  0  0  0  0  0  0
   40.7110   23.8040   43.0200 H   0  0  0  0  0  0  0  0  0  0  0  0
   41.3490   25.8430   44.2750 H   0  0  0  0  0  0  0  0  0  0  0  0
   39.8660   27.7350   44.3570 H   0  0  0  0  0  0  0  0  0  0  0  0
   36.7710   28.7930   40.9610 C   0  0  0  0  0  3  0  0  0  0  0  0
   36.5380   28.0670   42.0370 C   0  0  0  0  0  3  0  0  0  0  0  0
   34.5450   29.0540   39.8890 C   0  0  0  0  0  0  0  0  0  0  0  0
   35.9220   28.8500   39.7820 C   0  0  0  0  0  0  0  0  0  0  0  0
   36.4640   28.7020   38.5220 C   0  0  0  0  0  0  0  0  0  0  0  0
   35.6390   28.7620   37.4350 N   0  0  0  0  0  0  0  0  0  0  0  0
   34.3090   28.9610   37.5680 C   0  0  0  0  0  0  0  0  0  0  0  0
   33.7720   29.1060   38.7820 N   0  0  0  0  0  0  0  0  0  0  0  0
   34.1290   29.1700   40.8850 H   0  0  0  0  0  0  0  0  0  0  0  0
   37.5240   28.5400   38.3580 H   0  0  0  0  0  0  0  0  0  0  0  0
   33.4600   29.0180   36.3710 C   0  0  0  0  0  3  0  0  0  0  0  0
   32.8260   27.9230   35.9410 C   0  0  0  0  0  3  0  0  0  0  0  0
   31.9730   28.0070   34.7280 C   0  0  0  0  0  2  0  0  0  0  0  0
   30.9980   28.5140   34.9490 H   0  0  0  0  0  0  0  0  0  0  0  0
  1  2  1  0  0  0  0
  3  1  1  0  0  0  0
  4  1  1  0  0  0  0
  4  9  1  0  0  0  0
  5  4  2  0  0  0  0
  6  5  1  0  0  0  0
  6  7  2  0  0  0  0
  7  8  1  0  0  0  0
  8  9  2  0  0  0  0
  8 13  1  0  0  0  0
  9 14  1  0  0  0  0
 10  5  1  0  0  0  0
 11  6  1  0  0  0  0
 12  7  1  0  0  0  0
 15 16  2  0  0  0  0
 16  1  1  0  0  0  0
 17 23  1  0  0  0  0
 18 17  1  0  0  0  0
 18 15  1  0  0  0  0
 19 18  2  0  0  0  0
 20 21  2  0  0  0  0
 20 19  1  0  0  0  0
 21 22  1  0  0  0  0
 22 17  2  0  0  0  0
 24 19  1  0  0  0  0
 25 21  1  0  0  0  0
 26 25  2  0  0  0  0
 27 28  1  0  0  0  0
 27 26  1  0  0  0  0
M  END
>  <minimizedAffinity>
-4.5954237

$$$$
