
 OpenBabel03242518033D

 32 33  0  0  0  0  0  0  0  0999 V2000
   38.9020   27.2320   43.3070 C   0  0  0  0  0  0  0  0  0  0  0  0
   39.6300   27.7700   42.6280 H   0  0  0  0  0  0  0  0  0  0  0  0
   39.5040   27.0220   44.2110 H   0  0  0  0  0  0  0  0  0  0  0  0
   39.5200   25.3100   41.9060 C   0  0  0  0  0  0  0  0  0  0  0  0
   38.5280   26.0300   42.5410 C   0  0  0  0  0  0  0  0  0  0  0  0
   37.2000   25.6810   42.4930 C   0  0  0  0  0  0  0  0  0  0  0  0
   36.8420   24.5620   41.7800 C   0  0  0  0  0  0  0  0  0  0  0  0
   37.7570   23.7900   41.1220 C   0  0  0  0  0  0  0  0  0  0  0  0
   39.0830   24.2020   41.2140 C   0  0  0  0  0  0  0  0  0  0  0  0
   36.3910   26.1840   42.9510 H   0  0  0  0  0  0  0  0  0  0  0  0
   35.8110   24.2220   41.6960 H   0  0  0  0  0  0  0  0  0  0  0  0
   37.4770   22.9090   40.5610 H   0  0  0  0  0  0  0  0  0  0  0  0
   39.8210   23.5920   40.6900 H   0  0  0  0  0  0  0  0  0  0  0  0
   41.2130   25.7150   41.9370 S   0  0  0  0  0  0  0  0  0  0  0  0
   41.9800   25.1150   40.7770 O   0  0  0  0  0  0  0  0  0  0  0  0
   41.8440   25.0830   43.1600 O   0  0  0  0  0  0  0  0  0  0  0  0
   41.4520   27.0580   42.0770 H   0  0  0  0  0  0  0  0  0  0  0  0
   37.7250   28.1360   43.6350 C   0  0  0  0  0  0  0  0  0  0  0  0
   37.9560   28.6070   44.6370 H   0  0  0  0  0  0  0  0  0  0  0  0
   36.7830   27.6170   43.7950 H   0  0  0  0  0  0  0  0  0  0  0  0
   36.5530   29.4590   41.8860 C   0  0  0  0  0  0  0  0  0  0  0  0
   37.7200   29.2240   42.6670 C   0  0  0  0  0  0  0  0  0  0  0  0
   38.8130   30.0620   42.4430 C   0  0  0  0  0  0  0  0  0  0  0  0
   38.7220   31.0410   41.5160 N   0  0  0  0  0  0  0  0  0  0  0  0
   37.5940   31.2320   40.7930 C   0  0  0  0  0  0  0  0  0  0  0  0
   36.5440   30.4510   40.9860 N   0  0  0  0  0  0  0  0  0  0  0  0
   35.6540   28.8660   41.9850 H   0  0  0  0  0  0  0  0  0  0  0  0
   39.7090   29.9240   43.0060 H   0  0  0  0  0  0  0  0  0  0  0  0
   37.5250   32.2940   39.7980 C   0  0  0  0  0  3  0  0  0  0  0  0
   37.4600   32.1250   38.4890 C   0  0  0  0  0  3  0  0  0  0  0  0
   37.4320   30.9860   37.5440 C   0  0  0  0  0  2  0  0  0  0  0  0
   36.5300   30.9980   36.8790 H   0  0  0  0  0  0  0  0  0  0  0  0
  1 18  1  0  0  0  0
  1  3  1  0  0  0  0
  2  1  1  0  0  0  0
  4 14  1  0  0  0  0
  4  5  1  0  0  0  0
  5  1  1  0  0  0  0
  6  5  2  0  0  0  0
  6 10  1  0  0  0  0
  7  6  1  0  0  0  0
  8  9  1  0  0  0  0
  8  7  2  0  0  0  0
  9  4  2  0  0  0  0
 11  7  1  0  0  0  0
 12  8  1  0  0  0  0
 13  9  1  0  0  0  0
 14 17  1  0  0  0  0
 14 16  2  0  0  0  0
 15 14  2  0  0  0  0
 18 20  1  0  0  0  0
 18 19  1  0  0  0  0
 21 27  1  0  0  0  0
 21 22  1  0  0  0  0
 22 18  1  0  0  0  0
 23 22  2  0  0  0  0
 23 28  1  0  0  0  0
 24 23  1  0  0  0  0
 25 26  1  0  0  0  0
 25 24  2  0  0  0  0
 26 21  2  0  0  0  0
 29 25  1  0  0  0  0
 30 29  2  0  0  0  0
 31 30  1  0  0  0  0
 32 31  1  0  0  0  0
M  END
>  <minimizedAffinity>
-5.24787283

$$$$

 OpenBabel03242518033D

 32 33  0  0  0  0  0  0  0  0999 V2000
   36.2580   30.2170   40.8740 C   0  0  0  0  0  0  0  0  0  0  0  0
   35.4040   30.9340   41.0680 H   0  0  0  0  0  0  0  0  0  0  0  0
   36.9970   30.4860   41.6520 H   0  0  0  0  0  0  0  0  0  0  0  0
   37.5080   31.6320   39.3000 C   0  0  0  0  0  0  0  0  0  0  0  0
   36.6860   30.5400   39.5010 C   0  0  0  0  0  0  0  0  0  0  0  0
   36.2430   29.7350   38.4800 C   0  0  0  0  0  0  0  0  0  0  0  0
   36.6370   30.0300   37.1960 C   0  0  0  0  0  0  0  0  0  0  0  0
   37.4490   31.0890   36.9050 C   0  0  0  0  0  0  0  0  0  0  0  0
   37.8590   31.8610   37.9880 C   0  0  0  0  0  0  0  0  0  0  0  0
   35.6150   28.8900   38.5600 H   0  0  0  0  0  0  0  0  0  0  0  0
   36.3280   29.4390   36.3350 H   0  0  0  0  0  0  0  0  0  0  0  0
   37.7590   31.3220   35.8950 H   0  0  0  0  0  0  0  0  0  0  0  0
   38.5070   32.7100   37.7650 H   0  0  0  0  0  0  0  0  0  0  0  0
   38.0890   32.6800   40.5610 S   0  0  0  0  0  0  0  0  0  0  0  0
   38.3920   34.0800   40.0680 O   0  0  0  0  0  0  0  0  0  0  0  0
   39.4300   32.1650   41.0440 O   0  0  0  0  0  0  0  0  0  0  0  0
   37.2960   32.6850   41.6790 H   0  0  0  0  0  0  0  0  0  0  0  0
   35.7860   28.7830   41.0430 C   0  0  0  0  0  0  0  0  0  0  0  0
   35.7170   28.3460   40.0020 H   0  0  0  0  0  0  0  0  0  0  0  0
   34.7800   28.6780   41.4430 H   0  0  0  0  0  0  0  0  0  0  0  0
   37.5050   26.9860   41.0430 C   0  0  0  0  0  0  0  0  0  0  0  0
   36.8430   28.0470   41.7230 C   0  0  0  0  0  0  0  0  0  0  0  0
   37.2490   28.3140   43.0310 C   0  0  0  0  0  0  0  0  0  0  0  0
   38.2320   27.5720   43.5880 N   0  0  0  0  0  0  0  0  0  0  0  0
   38.8370   26.5700   42.9080 C   0  0  0  0  0  0  0  0  0  0  0  0
   38.4700   26.2970   41.6660 N   0  0  0  0  0  0  0  0  0  0  0  0
   37.2640   26.7020   40.0280 H   0  0  0  0  0  0  0  0  0  0  0  0
   36.7820   29.1010   43.5800 H   0  0  0  0  0  0  0  0  0  0  0  0
   39.8930   25.7850   43.5320 C   0  0  0  0  0  3  0  0  0  0  0  0
   41.1510   26.1600   43.6800 C   0  0  0  0  0  3  0  0  0  0  0  0
   41.9760   27.3440   43.3480 C   0  0  0  0  0  2  0  0  0  0  0  0
   42.4730   27.7900   44.2480 H   0  0  0  0  0  0  0  0  0  0  0  0
  1 18  1  0  0  0  0
  1  2  1  0  0  0  0
  1  3  1  0  0  0  0
  4  5  1  0  0  0  0
  4 14  1  0  0  0  0
  5  1  1  0  0  0  0
  6 10  1  0  0  0  0
  6  5  2  0  0  0  0
  7  6  1  0  0  0  0
  8  7  2  0  0  0  0
  8  9  1  0  0  0  0
  9  4  2  0  0  0  0
 11  7  1  0  0  0  0
 12  8  1  0  0  0  0
 13  9  1  0  0  0  0
 14 16  2  0  0  0  0
 14 17  1  0  0  0  0
 15 14  2  0  0  0  0
 18 20  1  0  0  0  0
 18 22  1  0  0  0  0
 19 18  1  0  0  0  0
 21 26  2  0  0  0  0
 21 22  1  0  0  0  0
 22 23  2  0  0  0  0
 23 28  1  0  0  0  0
 23 24  1  0  0  0  0
 25 29  1  0  0  0  0
 25 24  2  0  0  0  0
 26 25  1  0  0  0  0
 27 21  1  0  0  0  0
 29 30  2  0  0  0  0
 31 30  1  0  0  0  0
 31 32  1  0  0  0  0
M  END
>  <minimizedAffinity>
-5.08249187

$$$$

 OpenBabel03242518033D

 32 33  0  0  0  0  0  0  0  0999 V2000
   36.2280   29.9960   40.6150 C   0  0  0  0  0  0  0  0  0  0  0  0
   37.0620   30.2000   39.8770 H   0  0  0  0  0  0  0  0  0  0  0  0
   35.9340   31.0080   40.9520 H   0  0  0  0  0  0  0  0  0  0  0  0
   38.1170   29.5540   42.1230 C   0  0  0  0  0  0  0  0  0  0  0  0
   36.8720   29.1780   41.6580 C   0  0  0  0  0  0  0  0  0  0  0  0
   36.1990   28.0740   42.1210 C   0  0  0  0  0  0  0  0  0  0  0  0
   36.7940   27.3050   43.0930 C   0  0  0  0  0  0  0  0  0  0  0  0
   38.0220   27.6020   43.6110 C   0  0  0  0  0  0  0  0  0  0  0  0
   38.6450   28.7350   43.0960 C   0  0  0  0  0  0  0  0  0  0  0  0
   35.2500   27.7290   41.8110 H   0  0  0  0  0  0  0  0  0  0  0  0
   36.3230   26.4160   43.5100 H   0  0  0  0  0  0  0  0  0  0  0  0
   38.4910   26.9980   44.3760 H   0  0  0  0  0  0  0  0  0  0  0  0
   39.6280   28.9790   43.5040 H   0  0  0  0  0  0  0  0  0  0  0  0
   39.0070   30.9410   41.5650 S   0  0  0  0  0  0  0  0  0  0  0  0
   39.7220   30.6900   40.2530 O   0  0  0  0  0  0  0  0  0  0  0  0
   40.1270   31.2280   42.5430 O   0  0  0  0  0  0  0  0  0  0  0  0
   38.2650   32.0940   41.5390 H   0  0  0  0  0  0  0  0  0  0  0  0
   35.0730   29.2960   39.9190 C   0  0  0  0  0  0  0  0  0  0  0  0
   34.1900   30.0020   39.9800 H   0  0  0  0  0  0  0  0  0  0  0  0
   34.7240   28.3910   40.4130 H   0  0  0  0  0  0  0  0  0  0  0  0
   36.7600   29.3450   38.0930 C   0  0  0  0  0  0  0  0  0  0  0  0
   35.4080   29.1850   38.5070 C   0  0  0  0  0  0  0  0  0  0  0  0
   34.4640   28.9380   37.5080 C   0  0  0  0  0  0  0  0  0  0  0  0
   34.8630   28.8620   36.2190 N   0  0  0  0  0  0  0  0  0  0  0  0
   36.1600   29.0200   35.8670 C   0  0  0  0  0  0  0  0  0  0  0  0
   37.0740   29.2550   36.7950 N   0  0  0  0  0  0  0  0  0  0  0  0
   37.5650   29.5380   38.7900 H   0  0  0  0  0  0  0  0  0  0  0  0
   33.4380   28.8110   37.7700 H   0  0  0  0  0  0  0  0  0  0  0  0
   36.5630   28.9350   34.4700 C   0  0  0  0  0  3  0  0  0  0  0  0
   36.4610   29.9020   33.5750 C   0  0  0  0  0  3  0  0  0  0  0  0
   35.9770   31.3010   33.5410 C   0  0  0  0  0  2  0  0  0  0  0  0
   36.7630   32.0220   33.1970 H   0  0  0  0  0  0  0  0  0  0  0  0
  1  3  1  0  0  0  0
  1  5  1  0  0  0  0
  2  1  1  0  0  0  0
  4  9  1  0  0  0  0
  5  6  1  0  0  0  0
  5  4  2  0  0  0  0
  6  7  2  0  0  0  0
  7 11  1  0  0  0  0
  7  8  1  0  0  0  0
  8 12  1  0  0  0  0
  9 13  1  0  0  0  0
  9  8  2  0  0  0  0
 10  6  1  0  0  0  0
 14  4  1  0  0  0  0
 14 16  2  0  0  0  0
 15 14  2  0  0  0  0
 17 14  1  0  0  0  0
 18 19  1  0  0  0  0
 18 20  1  0  0  0  0
 18  1  1  0  0  0  0
 21 22  1  0  0  0  0
 21 27  1  0  0  0  0
 22 18  1  0  0  0  0
 23 28  1  0  0  0  0
 23 22  2  0  0  0  0
 24 23  1  0  0  0  0
 25 24  2  0  0  0  0
 25 26  1  0  0  0  0
 26 21  2  0  0  0  0
 29 25  1  0  0  0  0
 30 29  2  0  0  0  0
 31 30  1  0  0  0  0
 32 31  1  0  0  0  0
M  END
>  <minimizedAffinity>
-5.08176994

$$$$

 OpenBabel03242518033D

 32 33  0  0  0  0  0  0  0  0999 V2000
   36.8030   27.4450   39.0480 C   0  0  0  0  0  0  0  0  0  0  0  0
   36.7400   26.8400   38.0930 H   0  0  0  0  0  0  0  0  0  0  0  0
   37.7540   27.9990   38.9360 H   0  0  0  0  0  0  0  0  0  0  0  0
   36.5390   25.1140   39.7810 C   0  0  0  0  0  0  0  0  0  0  0  0
   36.8230   26.4240   40.1110 C   0  0  0  0  0  0  0  0  0  0  0  0
   37.1250   26.8280   41.3890 C   0  0  0  0  0  0  0  0  0  0  0  0
   37.1450   25.8830   42.3870 C   0  0  0  0  0  0  0  0  0  0  0  0
   36.8770   24.5640   42.1510 C   0  0  0  0  0  0  0  0  0  0  0  0
   36.5800   24.2270   40.8340 C   0  0  0  0  0  0  0  0  0  0  0  0
   37.3490   27.8090   41.7120 H   0  0  0  0  0  0  0  0  0  0  0  0
   37.3750   26.1260   43.4240 H   0  0  0  0  0  0  0  0  0  0  0  0
   36.8930   23.8200   42.9360 H   0  0  0  0  0  0  0  0  0  0  0  0
   36.3650   23.1750   40.6360 H   0  0  0  0  0  0  0  0  0  0  0  0
   36.1500   24.5570   38.1790 S   0  0  0  0  0  0  0  0  0  0  0  0
   34.7870   25.0250   37.7110 O   0  0  0  0  0  0  0  0  0  0  0  0
   36.0300   23.0480   38.2020 O   0  0  0  0  0  0  0  0  0  0  0  0
   37.1310   24.8140   37.2560 H   0  0  0  0  0  0  0  0  0  0  0  0
   35.6240   28.3990   39.1420 C   0  0  0  0  0  0  0  0  0  0  0  0
   35.1110   28.1740   40.1250 H   0  0  0  0  0  0  0  0  0  0  0  0
   34.8490   28.2410   38.3960 H   0  0  0  0  0  0  0  0  0  0  0  0
   36.1340   30.4010   40.5250 C   0  0  0  0  0  0  0  0  0  0  0  0
   36.1560   29.7490   39.2610 C   0  0  0  0  0  0  0  0  0  0  0  0
   36.6880   30.4650   38.1870 C   0  0  0  0  0  0  0  0  0  0  0  0
   37.1500   31.7190   38.3860 N   0  0  0  0  0  0  0  0  0  0  0  0
   37.1100   32.3050   39.6060 C   0  0  0  0  0  0  0  0  0  0  0  0
   36.6110   31.6470   40.6400 N   0  0  0  0  0  0  0  0  0  0  0  0
   35.7440   29.9320   41.4180 H   0  0  0  0  0  0  0  0  0  0  0  0
   36.7260   30.0160   37.2190 H   0  0  0  0  0  0  0  0  0  0  0  0
   37.6140   33.6590   39.7920 C   0  0  0  0  0  3  0  0  0  0  0  0
   38.8410   33.9840   40.1600 C   0  0  0  0  0  3  0  0  0  0  0  0
   40.0930   33.2740   40.5060 C   0  0  0  0  0  2  0  0  0  0  0  0
   40.9570   33.5850   39.8640 H   0  0  0  0  0  0  0  0  0  0  0  0
  1 18  1  0  0  0  0
  1  5  1  0  0  0  0
  2  1  1  0  0  0  0
  3  1  1  0  0  0  0
  4  5  2  0  0  0  0
  4  9  1  0  0  0  0
  5  6  1  0  0  0  0
  6 10  1  0  0  0  0
  6  7  2  0  0  0  0
  7 11  1  0  0  0  0
  8  7  1  0  0  0  0
  8 12  1  0  0  0  0
  9  8  2  0  0  0  0
 13  9  1  0  0  0  0
 14 16  2  0  0  0  0
 14  4  1  0  0  0  0
 15 14  2  0  0  0  0
 17 14  1  0  0  0  0
 18 22  1  0  0  0  0
 18 19  1  0  0  0  0
 20 18  1  0  0  0  0
 21 26  1  0  0  0  0
 21 27  1  0  0  0  0
 22 21  2  0  0  0  0
 23 24  2  0  0  0  0
 23 22  1  0  0  0  0
 24 25  1  0  0  0  0
 25 29  1  0  0  0  0
 25 26  2  0  0  0  0
 28 23  1  0  0  0  0
 29 30  2  0  0  0  0
 30 31  1  0  0  0  0
 32 31  1  0  0  0  0
M  END
>  <minimizedAffinity>
-4.9398365

$$$$

 OpenBabel03242518033D

 32 33  0  0  0  0  0  0  0  0999 V2000
   37.0190   27.5660   39.0550 C   0  0  0  0  0  0  0  0  0  0  0  0
   37.2720   27.3140   37.9810 H   0  0  0  0  0  0  0  0  0  0  0  0
   37.9280   28.0820   39.4160 H   0  0  0  0  0  0  0  0  0  0  0  0
   37.1670   26.0640   40.9950 C   0  0  0  0  0  0  0  0  0  0  0  0
   36.7870   26.2510   39.6810 C   0  0  0  0  0  0  0  0  0  0  0  0
   36.1990   25.2690   38.9210 C   0  0  0  0  0  0  0  0  0  0  0  0
   35.9800   24.0400   39.4970 C   0  0  0  0  0  0  0  0  0  0  0  0
   36.3230   23.7660   40.7900 C   0  0  0  0  0  0  0  0  0  0  0  0
   36.9130   24.8080   41.5000 C   0  0  0  0  0  0  0  0  0  0  0  0
   35.8860   25.3420   37.9150 H   0  0  0  0  0  0  0  0  0  0  0  0
   35.5190   23.2120   38.9600 H   0  0  0  0  0  0  0  0  0  0  0  0
   36.1510   22.7990   41.2440 H   0  0  0  0  0  0  0  0  0  0  0  0
   37.1920   24.5980   42.5340 H   0  0  0  0  0  0  0  0  0  0  0  0
   37.9150   27.2770   41.9930 S   0  0  0  0  0  0  0  0  0  0  0  0
   38.9000   26.6940   42.9850 O   0  0  0  0  0  0  0  0  0  0  0  0
   36.8530   27.9160   42.8640 O   0  0  0  0  0  0  0  0  0  0  0  0
   38.4520   28.3180   41.2800 H   0  0  0  0  0  0  0  0  0  0  0  0
   35.8120   28.4870   39.1080 C   0  0  0  0  0  0  0  0  0  0  0  0
   35.2720   28.2490   40.0730 H   0  0  0  0  0  0  0  0  0  0  0  0
   35.0670   28.3060   38.3360 H   0  0  0  0  0  0  0  0  0  0  0  0
   36.2520   30.4910   40.5120 C   0  0  0  0  0  0  0  0  0  0  0  0
   36.3020   29.8510   39.2410 C   0  0  0  0  0  0  0  0  0  0  0  0
   36.8180   30.5920   38.1770 C   0  0  0  0  0  0  0  0  0  0  0  0
   37.2400   31.8580   38.3910 N   0  0  0  0  0  0  0  0  0  0  0  0
   37.1750   32.4310   39.6150 C   0  0  0  0  0  0  0  0  0  0  0  0
   36.6900   31.7500   40.6400 N   0  0  0  0  0  0  0  0  0  0  0  0
   35.8700   30.0020   41.3980 H   0  0  0  0  0  0  0  0  0  0  0  0
   36.8760   30.1540   37.2060 H   0  0  0  0  0  0  0  0  0  0  0  0
   37.6360   33.7990   39.8170 C   0  0  0  0  0  3  0  0  0  0  0  0
   38.8660   34.1610   40.1370 C   0  0  0  0  0  3  0  0  0  0  0  0
   40.1580   33.4910   40.4050 C   0  0  0  0  0  2  0  0  0  0  0  0
   40.9800   33.8520   39.7330 H   0  0  0  0  0  0  0  0  0  0  0  0
  1 18  1  0  0  0  0
  1  3  1  0  0  0  0
  1  5  1  0  0  0  0
  2  1  1  0  0  0  0
  4  9  1  0  0  0  0
  4 14  1  0  0  0  0
  5  4  2  0  0  0  0
  6  7  2  0  0  0  0
  6  5  1  0  0  0  0
  7  8  1  0  0  0  0
  8 12  1  0  0  0  0
  8  9  2  0  0  0  0
  9 13  1  0  0  0  0
 10  6  1  0  0  0  0
 11  7  1  0  0  0  0
 14 16  2  0  0  0  0
 14 15  2  0  0  0  0
 17 14  1  0  0  0  0
 18 22  1  0  0  0  0
 18 19  1  0  0  0  0
 20 18  1  0  0  0  0
 21 26  1  0  0  0  0
 21 27  1  0  0  0  0
 22 21  2  0  0  0  0
 23 24  2  0  0  0  0
 23 22  1  0  0  0  0
 24 25  1  0  0  0  0
 25 29  1  0  0  0  0
 25 26  2  0  0  0  0
 28 23  1  0  0  0  0
 29 30  2  0  0  0  0
 30 31  1  0  0  0  0
 32 31  1  0  0  0  0
M  END
>  <minimizedAffinity>
-4.92357779

$$$$

 OpenBabel03242518033D

 32 33  0  0  0  0  0  0  0  0999 V2000
   36.2670   30.5380   41.0650 C   0  0  0  0  0  0  0  0  0  0  0  0
   35.5540   31.4160   41.1050 H   0  0  0  0  0  0  0  0  0  0  0  0
   36.6280   30.4560   42.1070 H   0  0  0  0  0  0  0  0  0  0  0  0
   38.6230   30.9380   40.4920 C   0  0  0  0  0  0  0  0  0  0  0  0
   37.2980   30.9650   40.1020 C   0  0  0  0  0  0  0  0  0  0  0  0
   36.8900   31.3710   38.8550 C   0  0  0  0  0  0  0  0  0  0  0  0
   37.8460   31.7720   37.9520 C   0  0  0  0  0  0  0  0  0  0  0  0
   39.1790   31.7780   38.2510 C   0  0  0  0  0  0  0  0  0  0  0  0
   39.5190   31.3530   39.5320 C   0  0  0  0  0  0  0  0  0  0  0  0
   35.9000   31.4180   38.4920 H   0  0  0  0  0  0  0  0  0  0  0  0
   37.6010   32.1070   36.9450 H   0  0  0  0  0  0  0  0  0  0  0  0
   39.9320   32.0920   37.5410 H   0  0  0  0  0  0  0  0  0  0  0  0
   40.5830   31.3550   39.7810 H   0  0  0  0  0  0  0  0  0  0  0  0
   39.1850   30.4340   42.0600 S   0  0  0  0  0  0  0  0  0  0  0  0
   40.3840   31.2280   42.5360 O   0  0  0  0  0  0  0  0  0  0  0  0
   39.7030   29.0140   41.9590 O   0  0  0  0  0  0  0  0  0  0  0  0
   38.1940   30.3760   43.0050 H   0  0  0  0  0  0  0  0  0  0  0  0
   35.5260   29.2800   40.6450 C   0  0  0  0  0  0  0  0  0  0  0  0
   35.5850   29.2380   39.5160 H   0  0  0  0  0  0  0  0  0  0  0  0
   34.4580   29.2880   40.8550 H   0  0  0  0  0  0  0  0  0  0  0  0
   36.8960   27.2520   40.2030 C   0  0  0  0  0  0  0  0  0  0  0  0
   36.2820   28.1360   41.1350 C   0  0  0  0  0  0  0  0  0  0  0  0
   36.4390   27.8390   42.4890 C   0  0  0  0  0  0  0  0  0  0  0  0
   37.1500   26.7480   42.8540 N   0  0  0  0  0  0  0  0  0  0  0  0
   37.7170   25.9320   41.9360 C   0  0  0  0  0  0  0  0  0  0  0  0
   37.5840   26.1920   40.6450 N   0  0  0  0  0  0  0  0  0  0  0  0
   36.8340   27.3970   39.1330 H   0  0  0  0  0  0  0  0  0  0  0  0
   35.9970   28.4730   43.2240 H   0  0  0  0  0  0  0  0  0  0  0  0
   38.4770   24.7620   42.3560 C   0  0  0  0  0  3  0  0  0  0  0  0
   39.5920   24.7780   43.0660 C   0  0  0  0  0  3  0  0  0  0  0  0
   40.4710   25.7980   43.6800 C   0  0  0  0  0  2  0  0  0  0  0  0
   40.6010   25.6490   44.7830 H   0  0  0  0  0  0  0  0  0  0  0  0
  1  2  1  0  0  0  0
  1  3  1  0  0  0  0
  4 14  1  0  0  0  0
  5  4  1  0  0  0  0
  5  1  1  0  0  0  0
  6  5  2  0  0  0  0
  7  8  2  0  0  0  0
  7  6  1  0  0  0  0
  8  9  1  0  0  0  0
  9 13  1  0  0  0  0
  9  4  2  0  0  0  0
 10  6  1  0  0  0  0
 11  7  1  0  0  0  0
 12  8  1  0  0  0  0
 14 15  2  0  0  0  0
 14 17  1  0  0  0  0
 16 14  2  0  0  0  0
 18 20  1  0  0  0  0
 18  1  1  0  0  0  0
 18 22  1  0  0  0  0
 19 18  1  0  0  0  0
 21 26  2  0  0  0  0
 21 22  1  0  0  0  0
 22 23  2  0  0  0  0
 23 24  1  0  0  0  0
 23 28  1  0  0  0  0
 25 29  1  0  0  0  0
 25 24  2  0  0  0  0
 26 25  1  0  0  0  0
 27 21  1  0  0  0  0
 29 30  2  0  0  0  0
 30 31  1  0  0  0  0
 31 32  1  0  0  0  0
M  END
>  <minimizedAffinity>
-4.87978601

$$$$

 OpenBabel03242518033D

 32 33  0  0  0  0  0  0  0  0999 V2000
   39.7480   30.3560   41.2310 C   0  0  0  0  0  0  0  0  0  0  0  0
   40.7020   30.9600   41.3110 H   0  0  0  0  0  0  0  0  0  0  0  0
   40.0710   29.4400   40.7010 H   0  0  0  0  0  0  0  0  0  0  0  0
   38.2160   30.6890   39.3390 C   0  0  0  0  0  0  0  0  0  0  0  0
   38.8480   31.2190   40.4460 C   0  0  0  0  0  0  0  0  0  0  0  0
   38.6790   32.5200   40.8560 C   0  0  0  0  0  0  0  0  0  0  0  0
   37.8410   33.3310   40.1290 C   0  0  0  0  0  0  0  0  0  0  0  0
   37.1750   32.8910   39.0210 C   0  0  0  0  0  0  0  0  0  0  0  0
   37.3930   31.5630   38.6640 C   0  0  0  0  0  0  0  0  0  0  0  0
   39.1300   32.9900   41.6880 H   0  0  0  0  0  0  0  0  0  0  0  0
   37.6570   34.3730   40.3910 H   0  0  0  0  0  0  0  0  0  0  0  0
   36.5160   33.5290   38.4480 H   0  0  0  0  0  0  0  0  0  0  0  0
   36.8650   31.2030   37.7790 H   0  0  0  0  0  0  0  0  0  0  0  0
   38.4010   29.0500   38.7820 S   0  0  0  0  0  0  0  0  0  0  0  0
   38.2930   28.9270   37.2760 O   0  0  0  0  0  0  0  0  0  0  0  0
   37.2420   28.2250   39.3010 O   0  0  0  0  0  0  0  0  0  0  0  0
   39.5190   28.4280   39.2740 H   0  0  0  0  0  0  0  0  0  0  0  0
   39.2200   30.0260   42.6170 C   0  0  0  0  0  0  0  0  0  0  0  0
   38.3820   30.7570   42.8200 H   0  0  0  0  0  0  0  0  0  0  0  0
   39.9260   30.1980   43.4270 H   0  0  0  0  0  0  0  0  0  0  0  0
   39.3740   27.5950   42.1140 C   0  0  0  0  0  0  0  0  0  0  0  0
   38.6030   28.7090   42.5530 C   0  0  0  0  0  0  0  0  0  0  0  0
   37.2710   28.4640   42.8920 C   0  0  0  0  0  0  0  0  0  0  0  0
   36.7780   27.2100   42.7920 N   0  0  0  0  0  0  0  0  0  0  0  0
   37.5440   26.1780   42.3690 C   0  0  0  0  0  0  0  0  0  0  0  0
   38.8100   26.3830   42.0420 N   0  0  0  0  0  0  0  0  0  0  0  0
   40.4140   27.6800   41.8310 H   0  0  0  0  0  0  0  0  0  0  0  0
   36.6550   29.2690   43.2260 H   0  0  0  0  0  0  0  0  0  0  0  0
   36.9860   24.8350   42.2690 C   0  0  0  0  0  3  0  0  0  0  0  0
   36.6110   24.2350   41.1530 C   0  0  0  0  0  3  0  0  0  0  0  0
   36.5720   24.5580   39.7090 C   0  0  0  0  0  2  0  0  0  0  0  0
   37.1390   23.8200   39.0860 H   0  0  0  0  0  0  0  0  0  0  0  0
  1  2  1  0  0  0  0
  1 18  1  0  0  0  0
  3  1  1  0  0  0  0
  4  5  1  0  0  0  0
  5  6  2  0  0  0  0
  5  1  1  0  0  0  0
  6 10  1  0  0  0  0
  7 11  1  0  0  0  0
  7  6  1  0  0  0  0
  8  7  2  0  0  0  0
  9  8  1  0  0  0  0
  9  4  2  0  0  0  0
 12  8  1  0  0  0  0
 13  9  1  0  0  0  0
 14 17  1  0  0  0  0
 14 16  2  0  0  0  0
 14  4  1  0  0  0  0
 15 14  2  0  0  0  0
 18 19  1  0  0  0  0
 18 20  1  0  0  0  0
 21 22  1  0  0  0  0
 22 18  1  0  0  0  0
 22 23  2  0  0  0  0
 23 28  1  0  0  0  0
 24 23  1  0  0  0  0
 25 24  2  0  0  0  0
 26 21  2  0  0  0  0
 26 25  1  0  0  0  0
 27 21  1  0  0  0  0
 29 25  1  0  0  0  0
 30 29  2  0  0  0  0
 31 30  1  0  0  0  0
 32 31  1  0  0  0  0
M  END
>  <minimizedAffinity>
-4.86760283

$$$$

 OpenBabel03242518033D

 32 33  0  0  0  0  0  0  0  0999 V2000
   37.9200   26.2920   42.3870 C   0  0  0  0  0  0  0  0  0  0  0  0
   38.7580   26.9380   41.9850 H   0  0  0  0  0  0  0  0  0  0  0  0
   38.4010   25.7380   43.2150 H   0  0  0  0  0  0  0  0  0  0  0  0
   38.1240   25.6980   40.0110 C   0  0  0  0  0  0  0  0  0  0  0  0
   37.5420   25.4490   41.2380 C   0  0  0  0  0  0  0  0  0  0  0  0
   36.6240   24.4490   41.4450 C   0  0  0  0  0  0  0  0  0  0  0  0
   36.2650   23.6590   40.3790 C   0  0  0  0  0  0  0  0  0  0  0  0
   36.7890   23.8330   39.1300 C   0  0  0  0  0  0  0  0  0  0  0  0
   37.7140   24.8650   38.9940 C   0  0  0  0  0  0  0  0  0  0  0  0
   36.1410   24.2040   42.3520 H   0  0  0  0  0  0  0  0  0  0  0  0
   35.5440   22.8460   40.4640 H   0  0  0  0  0  0  0  0  0  0  0  0
   36.5080   23.2120   38.2900 H   0  0  0  0  0  0  0  0  0  0  0  0
   38.1380   25.0120   37.9980 H   0  0  0  0  0  0  0  0  0  0  0  0
   39.2880   26.9540   39.7020 S   0  0  0  0  0  0  0  0  0  0  0  0
   38.6700   28.1840   39.0700 O   0  0  0  0  0  0  0  0  0  0  0  0
   40.2710   26.4620   38.6600 O   0  0  0  0  0  0  0  0  0  0  0  0
   40.0620   27.2640   40.7910 H   0  0  0  0  0  0  0  0  0  0  0  0
   36.7870   27.1630   42.9010 C   0  0  0  0  0  0  0  0  0  0  0  0
   37.0570   27.4420   43.9640 H   0  0  0  0  0  0  0  0  0  0  0  0
   35.8280   26.6570   42.9950 H   0  0  0  0  0  0  0  0  0  0  0  0
   37.8460   29.3460   42.3550 C   0  0  0  0  0  0  0  0  0  0  0  0
   36.8010   28.4040   42.1390 C   0  0  0  0  0  0  0  0  0  0  0  0
   35.8280   28.7410   41.1970 C   0  0  0  0  0  0  0  0  0  0  0  0
   35.9140   29.9210   40.5430 N   0  0  0  0  0  0  0  0  0  0  0  0
   36.9250   30.7900   40.7780 C   0  0  0  0  0  0  0  0  0  0  0  0
   37.8600   30.4940   41.6660 N   0  0  0  0  0  0  0  0  0  0  0  0
   38.6470   29.1770   43.0620 H   0  0  0  0  0  0  0  0  0  0  0  0
   35.0250   28.0660   41.0010 H   0  0  0  0  0  0  0  0  0  0  0  0
   36.9930   32.0560   40.0610 C   0  0  0  0  0  3  0  0  0  0  0  0
   37.2610   32.2020   38.7750 C   0  0  0  0  0  3  0  0  0  0  0  0
   37.5700   31.3230   37.6250 C   0  0  0  0  0  2  0  0  0  0  0  0
   36.8560   31.4600   36.7720 H   0  0  0  0  0  0  0  0  0  0  0  0
  1 18  1  0  0  0  0
  1  3  1  0  0  0  0
  2  1  1  0  0  0  0
  4  5  1  0  0  0  0
  5  6  2  0  0  0  0
  5  1  1  0  0  0  0
  6 10  1  0  0  0  0
  7 11  1  0  0  0  0
  7  6  1  0  0  0  0
  8  7  2  0  0  0  0
  9  8  1  0  0  0  0
  9  4  2  0  0  0  0
 12  8  1  0  0  0  0
 13  9  1  0  0  0  0
 14  4  1  0  0  0  0
 14 17  1  0  0  0  0
 15 14  2  0  0  0  0
 16 14  2  0  0  0  0
 18 20  1  0  0  0  0
 18 19  1  0  0  0  0
 21 27  1  0  0  0  0
 22 21  1  0  0  0  0
 22 18  1  0  0  0  0
 23 22  2  0  0  0  0
 24 25  2  0  0  0  0
 24 23  1  0  0  0  0
 25 26  1  0  0  0  0
 26 21  2  0  0  0  0
 28 23  1  0  0  0  0
 29 25  1  0  0  0  0
 30 29  2  0  0  0  0
 31 30  1  0  0  0  0
 32 31  1  0  0  0  0
M  END
>  <minimizedAffinity>
-4.80053997

$$$$

 OpenBabel03242518033D

 32 33  0  0  0  0  0  0  0  0999 V2000
   37.6040   30.0090   39.8280 C   0  0  0  0  0  0  0  0  0  0  0  0
   38.5720   29.5140   40.1390 H   0  0  0  0  0  0  0  0  0  0  0  0
   37.4780   29.6850   38.7780 H   0  0  0  0  0  0  0  0  0  0  0  0
   38.9350   31.8420   40.7820 C   0  0  0  0  0  0  0  0  0  0  0  0
   37.8790   31.4490   39.9840 C   0  0  0  0  0  0  0  0  0  0  0  0
   37.0650   32.3380   39.3240 C   0  0  0  0  0  0  0  0  0  0  0  0
   37.3140   33.6820   39.4650 C   0  0  0  0  0  0  0  0  0  0  0  0
   38.3360   34.1610   40.2330 C   0  0  0  0  0  0  0  0  0  0  0  0
   39.1200   33.2040   40.8720 C   0  0  0  0  0  0  0  0  0  0  0  0
   36.2430   32.1080   38.7020 H   0  0  0  0  0  0  0  0  0  0  0  0
   36.7130   34.4470   38.9730 H   0  0  0  0  0  0  0  0  0  0  0  0
   38.5330   35.2180   40.3440 H   0  0  0  0  0  0  0  0  0  0  0  0
   39.9400   33.5780   41.4890 H   0  0  0  0  0  0  0  0  0  0  0  0
   39.9890   30.7540   41.6380 S   0  0  0  0  0  0  0  0  0  0  0  0
   39.3250   30.1220   42.8440 O   0  0  0  0  0  0  0  0  0  0  0  0
   41.1360   31.5490   42.2270 O   0  0  0  0  0  0  0  0  0  0  0  0
   40.5900   29.8240   40.8300 H   0  0  0  0  0  0  0  0  0  0  0  0
   36.4590   29.5110   40.6930 C   0  0  0  0  0  0  0  0  0  0  0  0
   35.5170   29.6410   40.0790 H   0  0  0  0  0  0  0  0  0  0  0  0
   36.2740   30.1000   41.5890 H   0  0  0  0  0  0  0  0  0  0  0  0
   36.9730   27.5700   42.1600 C   0  0  0  0  0  0  0  0  0  0  0  0
   36.6320   28.0770   40.8740 C   0  0  0  0  0  0  0  0  0  0  0  0
   36.4920   27.1480   39.8430 C   0  0  0  0  0  0  0  0  0  0  0  0
   36.6820   25.8340   40.0990 N   0  0  0  0  0  0  0  0  0  0  0  0
   37.0060   25.3930   41.3370 C   0  0  0  0  0  0  0  0  0  0  0  0
   37.1440   26.2530   42.3320 N   0  0  0  0  0  0  0  0  0  0  0  0
   37.1020   28.2080   43.0240 H   0  0  0  0  0  0  0  0  0  0  0  0
   36.2370   27.4810   38.8620 H   0  0  0  0  0  0  0  0  0  0  0  0
   37.2070   23.9710   41.5850 C   0  0  0  0  0  3  0  0  0  0  0  0
   37.9850   23.1660   40.8840 C   0  0  0  0  0  3  0  0  0  0  0  0
   38.8800   23.2750   39.7100 C   0  0  0  0  0  2  0  0  0  0  0  0
   39.9270   22.9430   39.9320 H   0  0  0  0  0  0  0  0  0  0  0  0
  1  5  1  0  0  0  0
  1  2  1  0  0  0  0
  1 18  1  0  0  0  0
  3  1  1  0  0  0  0
  4  9  1  0  0  0  0
  4 14  1  0  0  0  0
  5  4  2  0  0  0  0
  6  7  2  0  0  0  0
  6  5  1  0  0  0  0
  7  8  1  0  0  0  0
  8 12  1  0  0  0  0
  8  9  2  0  0  0  0
  9 13  1  0  0  0  0
 10  6  1  0  0  0  0
 11  7  1  0  0  0  0
 14 16  2  0  0  0  0
 14 15  2  0  0  0  0
 17 14  1  0  0  0  0
 18 22  1  0  0  0  0
 18 20  1  0  0  0  0
 19 18  1  0  0  0  0
 21 26  1  0  0  0  0
 21 27  1  0  0  0  0
 22 21  2  0  0  0  0
 23 24  2  0  0  0  0
 23 22  1  0  0  0  0
 24 25  1  0  0  0  0
 25 29  1  0  0  0  0
 25 26  2  0  0  0  0
 28 23  1  0  0  0  0
 30 29  2  0  0  0  0
 31 32  1  0  0  0  0
 31 30  1  0  0  0  0
M  END
>  <minimizedAffinity>
-4.75231075

$$$$
