REMARK  Name = 
REMARK  6 active torsions:
REMARK  status: ('A' for Active; 'I' for Inactive)
REMARK    1  A    between atoms: C_1  and  N_5
REMARK    2  A    between atoms: C_1  and  C_13
REMARK    3  A    between atoms: C_2  and  C_11
REMARK    4  A    between atoms: C_13  and  C_15
REMARK    5  A    between atoms: C_22  and  C_37
REMARK    6  A    between atoms: C_38  and  C_39
REMARK                            x       y       z     vdW  Elec       q    Type
REMARK                         _______ _______ _______ _____ _____    ______ ____
ROOT
ATOM      1  C   UNL     1      46.018  29.940  48.263  0.00  0.00    +0.000 C 
ATOM      2  H   UNL     1      45.458  30.891  48.373  0.00  0.00    +0.000 HD
ATOM      3  H   UNL     1      46.207  29.617  49.321  0.00  0.00    +0.000 HD
ENDROOT
BRANCH   1   5
ATOM      4  C   UNL     1      45.111  27.563  47.901  0.00  0.00    +0.000 A 
ATOM      5  C   UNL     1      45.194  28.904  47.644  0.00  0.00    +0.000 A 
ATOM      6  C   UNL     1      44.364  29.382  46.626  0.00  0.00    +0.000 A 
ATOM      7  C   UNL     1      43.521  28.549  45.934  0.00  0.00    +0.000 A 
ATOM      8  N   UNL     1      42.629  28.723  44.929  0.00  0.00    +0.000 N 
ATOM      9  C   UNL     1      42.042  27.567  44.597  0.00  0.00    +0.000 A 
ATOM     10  C   UNL     1      42.545  26.574  45.396  0.00  0.00    +0.000 A 
ATOM     11  C   UNL     1      43.459  27.218  46.212  0.00  0.00    +0.000 A 
ATOM     12  C   UNL     1      44.273  26.724  47.216  0.00  0.00    +0.000 A 
ATOM     13  H   UNL     1      45.786  27.292  48.697  0.00  0.00    +0.000 HD
ATOM     14  H   UNL     1      44.322  30.411  46.314  0.00  0.00    +0.000 HD
ATOM     15  H   UNL     1      42.436  29.646  44.481  0.00  0.00    +0.000 HD
ATOM     16  H   UNL     1      41.292  27.406  43.831  0.00  0.00    +0.000 HD
ATOM     17  H   UNL     1      42.319  25.520  45.426  0.00  0.00    +0.000 HD
BRANCH  12  18
ATOM     18  C   UNL     1      44.241  25.307  47.549  0.00  0.00    +0.000 C 
ATOM     19  C   UNL     1      44.244  24.247  46.789  0.00  0.00    +0.000 C 
BRANCH  19  20
ATOM     20  C   UNL     1      44.277  23.963  45.353  0.00  0.00    +0.000 C 
ATOM     21  H   UNL     1      43.356  24.334  44.868  0.00  0.00    +0.000 HD
ENDBRANCH  19  20
ENDBRANCH  12  18
ENDBRANCH   1   5
BRANCH   1  22
ATOM     22  C   UNL     1      47.327  30.219  47.651  0.00  0.00    +0.000 C 
ATOM     23  H   UNL     1      47.895  30.869  48.356  0.00  0.00    +0.000 HD
ATOM     24  H   UNL     1      47.953  29.344  47.459  0.00  0.00    +0.000 HD
BRANCH  22  28
ATOM     25  C   UNL     1      46.559  32.657  45.160  0.00  0.00    +0.000 A 
ATOM     26  C   UNL     1      47.274  31.711  44.417  0.00  0.00    +0.000 A 
ATOM     27  C   UNL     1      47.648  30.689  45.242  0.00  0.00    +0.000 A 
ATOM     28  N   UNL     1      47.174  31.010  46.443  0.00  0.00    +0.000 N 
ATOM     29  N   UNL     1      46.522  32.181  46.406  0.00  0.00    +0.000 NA
ATOM     30  H   UNL     1      47.481  31.808  43.346  0.00  0.00    +0.000 HD
ATOM     31  H   UNL     1      48.212  29.829  44.917  0.00  0.00    +0.000 HD
BRANCH  25  36
ATOM     32  C   UNL     1      44.567  35.697  44.828  0.00  0.00    +0.000 A 
ATOM     33  C   UNL     1      44.941  36.197  43.590  0.00  0.00    +0.000 A 
ATOM     34  C   UNL     1      45.894  35.475  42.857  0.00  0.00    +0.000 A 
ATOM     35  N   UNL     1      46.378  34.338  43.420  0.00  0.00    +0.000 NA
ATOM     36  C   UNL     1      46.001  33.885  44.609  0.00  0.00    +0.000 A 
ATOM     37  N   UNL     1      45.093  34.569  45.311  0.00  0.00    +0.000 NA
ATOM     38  H   UNL     1      43.839  36.175  45.477  0.00  0.00    +0.000 HD
ATOM     39  H   UNL     1      44.507  37.098  43.229  0.00  0.00    +0.000 HD
ATOM     40  H   UNL     1      46.217  35.829  41.883  0.00  0.00    +0.000 HD
ENDBRANCH  25  36
ENDBRANCH  22  28
ENDBRANCH   1  22
TORSDOF 6
