
 OpenBabel03242521453D

 33 34  0  0  1  0  0  0  0  0999 V2000
   36.9230   29.7030   41.4090 C   0  0  0  0  0  0  0  0  0  0  0  0
   36.6970   28.3220   41.3690 C   0  0  0  0  0  0  0  0  0  0  0  0
   37.5590   27.4640   42.0630 C   0  0  0  0  0  0  0  0  0  0  0  0
   38.5630   28.0220   42.7350 N   0  0  0  0  0  0  0  0  0  0  0  0
   38.7710   29.3570   42.7670 C   0  0  0  0  0  0  0  0  0  0  0  0
   37.9540   30.2020   42.1070 N   0  0  0  0  0  0  0  0  0  0  0  0
   35.8580   27.9820   40.7960 H   0  0  0  0  0  0  0  0  0  0  0  0
   39.6010   29.7580   43.3280 H   0  0  0  0  0  0  0  0  0  0  0  0
   38.4730   25.1540   41.9800 C   0  0  2  0  0  0  0  0  0  0  0  0
   37.2720   26.0330   41.9820 C   0  0  2  0  0  0  0  0  0  0  0  0
   36.6530   25.6420   40.7580 O   0  0  0  0  0  0  0  0  0  0  0  0
   36.6040   24.2680   40.8880 C   0  0  0  0  0  0  0  0  0  0  0  0
   37.7550   23.8090   41.7400 C   0  0  1  0  0  0  0  0  0  0  0  0
   39.1070   25.2690   41.0740 H   0  0  0  0  0  0  0  0  0  0  0  0
   36.5520   25.6830   42.7470 H   0  0  0  0  0  0  0  0  0  0  0  0
   35.6690   24.0250   41.4330 H   0  0  0  0  0  0  0  0  0  0  0  0
   36.5400   23.7470   39.9050 H   0  0  0  0  0  0  0  0  0  0  0  0
   37.4400   23.4090   42.7120 H   0  0  0  0  0  0  0  0  0  0  0  0
   39.2190   25.1930   43.1180 O   0  0  0  0  0  0  0  0  0  0  0  0
   40.1570   24.9310   42.9060 H   0  0  0  0  0  0  0  0  0  0  0  0
   38.6190   22.9420   41.0890 O   0  0  0  0  0  0  0  0  0  0  0  0
   38.1940   22.4710   40.3290 H   0  0  0  0  0  0  0  0  0  0  0  0
   35.9870   30.6050   40.6490 C   0  0  0  0  0  0  0  0  0  0  0  0
   34.9780   30.5820   41.0630 H   0  0  0  0  0  0  0  0  0  0  0  0
   35.9730   30.2850   39.5840 H   0  0  0  0  0  0  0  0  0  0  0  0
   37.1790   32.6420   39.6110 C   0  0  0  0  0  0  0  0  0  0  0  0
   37.1930   32.0460   38.4990 O   0  0  0  0  0  0  0  0  0  0  0  0
   36.5700   31.9270   40.6720 N   0  0  0  0  0  0  0  0  0  0  0  0
   36.5370   32.4260   41.6100 H   0  0  0  0  0  0  0  0  0  0  0  0
   37.7430   33.9530   39.7800 C   0  0  0  0  0  3  0  0  0  0  0  0
   38.9540   34.1530   40.2130 C   0  0  0  0  0  3  0  0  0  0  0  0
   39.8290   33.0220   40.5600 C   0  0  0  0  0  2  0  0  0  0  0  0
   39.4270   32.3800   41.3910 H   0  0  0  0  0  0  0  0  0  0  0  0
  1  6  1  0  0  0  0
  2  1  2  0  0  0  0
  2  3  1  0  0  0  0
  3  4  2  0  0  0  0
  4  5  1  0  0  0  0
  5  8  1  0  0  0  0
  6  5  2  0  0  0  0
  7  2  1  0  0  0  0
  9 14  1  6  0  0  0
  9 10  1  0  0  0  0
  9 19  1  0  0  0  0
 10  3  1  0  0  0  0
 10 15  1  1  0  0  0
 11 12  1  0  0  0  0
 11 10  1  0  0  0  0
 12 16  1  0  0  0  0
 12 13  1  0  0  0  0
 13  9  1  0  0  0  0
 13 18  1  1  0  0  0
 17 12  1  0  0  0  0
 20 19  1  0  0  0  0
 21 13  1  0  0  0  0
 22 21  1  0  0  0  0
 23 28  1  0  0  0  0
 23 24  1  0  0  0  0
 23  1  1  0  0  0  0
 25 23  1  0  0  0  0
 26 30  1  0  0  0  0
 26 28  1  0  0  0  0
 27 26  2  0  0  0  0
 28 29  1  0  0  0  0
 30 31  2  0  0  0  0
 31 32  1  0  0  0  0
 32 33  1  0  0  0  0
M  END
>  <minimizedAffinity>
-5.50599289

$$$$

 OpenBabel03242521453D

 33 34  0  0  1  0  0  0  0  0999 V2000
   36.9400   28.5800   42.2640 C   0  0  0  0  0  0  0  0  0  0  0  0
   37.8550   29.6340   42.1540 C   0  0  0  0  0  0  0  0  0  0  0  0
   37.6500   30.6250   41.1860 C   0  0  0  0  0  0  0  0  0  0  0  0
   36.5740   30.5060   40.4110 N   0  0  0  0  0  0  0  0  0  0  0  0
   35.6970   29.4840   40.5270 C   0  0  0  0  0  0  0  0  0  0  0  0
   35.8750   28.5190   41.4510 N   0  0  0  0  0  0  0  0  0  0  0  0
   38.6860   29.6300   42.8300 H   0  0  0  0  0  0  0  0  0  0  0  0
   34.8400   29.4340   39.8730 H   0  0  0  0  0  0  0  0  0  0  0  0
   38.3750   32.7280   40.0790 C   0  0  2  0  0  0  0  0  0  0  0  0
   38.6390   31.6990   41.1200 C   0  0  2  0  0  0  0  0  0  0  0  0
   39.9390   31.2560   40.7330 O   0  0  0  0  0  0  0  0  0  0  0  0
   40.6290   32.4470   40.6320 C   0  0  0  0  0  0  0  0  0  0  0  0
   39.6750   33.5440   40.2460 C   0  0  1  0  0  0  0  0  0  0  0  0
   38.4490   32.3410   39.0400 H   0  0  0  0  0  0  0  0  0  0  0  0
   38.8250   32.1890   42.0950 H   0  0  0  0  0  0  0  0  0  0  0  0
   41.0170   32.6860   41.6440 H   0  0  0  0  0  0  0  0  0  0  0  0
   41.5180   32.3720   39.9650 H   0  0  0  0  0  0  0  0  0  0  0  0
   39.5180   34.2810   41.0430 H   0  0  0  0  0  0  0  0  0  0  0  0
   37.2360   33.4530   40.2590 O   0  0  0  0  0  0  0  0  0  0  0  0
   36.9230   33.8000   39.3790 H   0  0  0  0  0  0  0  0  0  0  0  0
   39.9870   34.1550   39.0410 O   0  0  0  0  0  0  0  0  0  0  0  0
   40.9400   34.0580   38.7950 H   0  0  0  0  0  0  0  0  0  0  0  0
   37.1870   27.5220   43.3070 C   0  0  0  0  0  0  0  0  0  0  0  0
   36.6580   27.7390   44.2350 H   0  0  0  0  0  0  0  0  0  0  0  0
   38.2810   27.4580   43.4940 H   0  0  0  0  0  0  0  0  0  0  0  0
   37.6130   25.2870   42.0950 C   0  0  0  0  0  0  0  0  0  0  0  0
   38.8450   25.5570   42.0650 O   0  0  0  0  0  0  0  0  0  0  0  0
   36.7960   26.2600   42.7210 N   0  0  0  0  0  0  0  0  0  0  0  0
   35.7580   26.0350   42.7690 H   0  0  0  0  0  0  0  0  0  0  0  0
   37.0860   24.0740   41.5310 C   0  0  0  0  0  3  0  0  0  0  0  0
   36.5730   24.0120   40.3370 C   0  0  0  0  0  3  0  0  0  0  0  0
   36.5070   25.2080   39.4810 C   0  0  0  0  0  2  0  0  0  0  0  0
   35.8880   26.0390   39.9160 H   0  0  0  0  0  0  0  0  0  0  0  0
  1 23  1  0  0  0  0
  2  1  1  0  0  0  0
  2  7  1  0  0  0  0
  3  2  2  0  0  0  0
  4  5  2  0  0  0  0
  4  3  1  0  0  0  0
  5  6  1  0  0  0  0
  6  1  2  0  0  0  0
  8  5  1  0  0  0  0
  9 14  1  6  0  0  0
  9 13  1  0  0  0  0
  9 19  1  0  0  0  0
  9 10  1  0  0  0  0
 10  3  1  0  0  0  0
 10 15  1  1  0  0  0
 11 10  1  0  0  0  0
 12 11  1  0  0  0  0
 12 16  1  0  0  0  0
 13 12  1  0  0  0  0
 13 18  1  1  0  0  0
 17 12  1  0  0  0  0
 20 19  1  0  0  0  0
 21 13  1  0  0  0  0
 22 21  1  0  0  0  0
 23 25  1  0  0  0  0
 23 24  1  0  0  0  0
 26 28  1  0  0  0  0
 27 26  2  0  0  0  0
 28 29  1  0  0  0  0
 28 23  1  0  0  0  0
 30 26  1  0  0  0  0
 31 30  2  0  0  0  0
 32 33  1  0  0  0  0
 32 31  1  0  0  0  0
M  END
>  <minimizedAffinity>
-5.38391685

$$$$

 OpenBabel03242521453D

 33 34  0  0  1  0  0  0  0  0999 V2000
   35.8950   29.7170   39.0680 C   0  0  0  0  0  0  0  0  0  0  0  0
   36.8390   30.6980   39.3950 C   0  0  0  0  0  0  0  0  0  0  0  0
   37.6490   31.2360   38.3880 C   0  0  0  0  0  0  0  0  0  0  0  0
   37.4710   30.7760   37.1510 N   0  0  0  0  0  0  0  0  0  0  0  0
   36.5560   29.8290   36.8470 C   0  0  0  0  0  0  0  0  0  0  0  0
   35.7660   29.2970   37.8000 N   0  0  0  0  0  0  0  0  0  0  0  0
   36.8960   30.9950   40.4230 H   0  0  0  0  0  0  0  0  0  0  0  0
   36.4520   29.4900   35.8280 H   0  0  0  0  0  0  0  0  0  0  0  0
   39.9460   32.1510   38.1340 C   0  0  2  0  0  0  0  0  0  0  0  0
   38.6150   32.2560   38.7920 C   0  0  2  0  0  0  0  0  0  0  0  0
   38.9900   32.1760   40.1660 O   0  0  0  0  0  0  0  0  0  0  0  0
   39.9720   33.1430   40.2520 C   0  0  0  0  0  0  0  0  0  0  0  0
   40.6650   33.2670   38.9220 C   0  0  1  0  0  0  0  0  0  0  0  0
   40.5110   31.2360   38.4150 H   0  0  0  0  0  0  0  0  0  0  0  0
   38.2310   33.2900   38.6990 H   0  0  0  0  0  0  0  0  0  0  0  0
   39.4630   34.1090   40.4520 H   0  0  0  0  0  0  0  0  0  0  0  0
   40.6680   32.9730   41.1050 H   0  0  0  0  0  0  0  0  0  0  0  0
   40.4700   34.2220   38.4210 H   0  0  0  0  0  0  0  0  0  0  0  0
   39.9400   32.3370   36.7850 O   0  0  0  0  0  0  0  0  0  0  0  0
   40.7250   31.8720   36.3850 H   0  0  0  0  0  0  0  0  0  0  0  0
   42.0220   32.9850   38.9740 O   0  0  0  0  0  0  0  0  0  0  0  0
   42.4060   33.1020   39.8780 H   0  0  0  0  0  0  0  0  0  0  0  0
   35.0410   29.1480   40.1700 C   0  0  0  0  0  0  0  0  0  0  0  0
   34.6800   28.1490   39.9260 H   0  0  0  0  0  0  0  0  0  0  0  0
   34.1850   29.8350   40.3440 H   0  0  0  0  0  0  0  0  0  0  0  0
   36.6240   28.1380   41.9360 C   0  0  0  0  0  0  0  0  0  0  0  0
   36.6340   27.0570   41.2840 O   0  0  0  0  0  0  0  0  0  0  0  0
   35.8410   29.1750   41.3730 N   0  0  0  0  0  0  0  0  0  0  0  0
   35.8390   30.0970   41.9040 H   0  0  0  0  0  0  0  0  0  0  0  0
   37.3600   28.2950   43.1610 C   0  0  0  0  0  3  0  0  0  0  0  0
   38.5690   28.7740   43.2050 C   0  0  0  0  0  3  0  0  0  0  0  0
   39.2620   29.1910   41.9740 C   0  0  0  0  0  2  0  0  0  0  0  0
   39.4090   28.3560   41.2360 H   0  0  0  0  0  0  0  0  0  0  0  0
  1  2  1  0  0  0  0
  1 23  1  0  0  0  0
  2  7  1  0  0  0  0
  3 10  1  0  0  0  0
  3  2  2  0  0  0  0
  4  3  1  0  0  0  0
  5  4  2  0  0  0  0
  5  6  1  0  0  0  0
  6  1  2  0  0  0  0
  8  5  1  0  0  0  0
  9 14  1  1  0  0  0
  9 10  1  0  0  0  0
  9 13  1  0  0  0  0
 10 15  1  6  0  0  0
 10 11  1  0  0  0  0
 11 12  1  0  0  0  0
 12 16  1  0  0  0  0
 12 17  1  0  0  0  0
 13 18  1  6  0  0  0
 13 21  1  0  0  0  0
 13 12  1  0  0  0  0
 19  9  1  0  0  0  0
 20 19  1  0  0  0  0
 21 22  1  0  0  0  0
 23 25  1  0  0  0  0
 23 28  1  0  0  0  0
 24 23  1  0  0  0  0
 26 30  1  0  0  0  0
 27 26  2  0  0  0  0
 28 29  1  0  0  0  0
 28 26  1  0  0  0  0
 30 31  2  0  0  0  0
 32 31  1  0  0  0  0
 33 32  1  0  0  0  0
M  END
>  <minimizedAffinity>
-5.37924099

$$$$

 OpenBabel03242521453D

 33 34  0  0  1  0  0  0  0  0999 V2000
   38.1580   30.0840   41.0780 C   0  0  0  0  0  0  0  0  0  0  0  0
   39.1320   30.9850   40.6290 C   0  0  0  0  0  0  0  0  0  0  0  0
   38.9670   31.6160   39.3910 C   0  0  0  0  0  0  0  0  0  0  0  0
   37.8700   31.3200   38.6970 N   0  0  0  0  0  0  0  0  0  0  0  0
   36.9360   30.4490   39.1400 C   0  0  0  0  0  0  0  0  0  0  0  0
   37.0750   29.8290   40.3290 N   0  0  0  0  0  0  0  0  0  0  0  0
   39.9750   31.1490   41.2700 H   0  0  0  0  0  0  0  0  0  0  0  0
   36.0650   30.2440   38.5390 H   0  0  0  0  0  0  0  0  0  0  0  0
   40.5910   32.2790   37.6300 C   0  0  2  0  0  0  0  0  0  0  0  0
   40.0170   32.5450   38.9770 C   0  0  2  0  0  0  0  0  0  0  0  0
   41.1910   32.4770   39.7850 O   0  0  0  0  0  0  0  0  0  0  0  0
   42.0440   33.3400   39.1250 C   0  0  0  0  0  0  0  0  0  0  0  0
   41.7100   33.3430   37.6590 C   0  0  1  0  0  0  0  0  0  0  0  0
   41.1510   31.3220   37.5650 H   0  0  0  0  0  0  0  0  0  0  0  0
   39.7230   33.6090   39.0580 H   0  0  0  0  0  0  0  0  0  0  0  0
   41.8410   34.3590   39.5140 H   0  0  0  0  0  0  0  0  0  0  0  0
   43.1170   33.1290   39.3390 H   0  0  0  0  0  0  0  0  0  0  0  0
   41.2880   34.2940   37.3140 H   0  0  0  0  0  0  0  0  0  0  0  0
   39.7180   32.4160   36.5940 O   0  0  0  0  0  0  0  0  0  0  0  0
   40.0260   31.8590   35.8280 H   0  0  0  0  0  0  0  0  0  0  0  0
   42.7550   32.9250   36.8490 O   0  0  0  0  0  0  0  0  0  0  0  0
   43.6410   33.0340   37.2750 H   0  0  0  0  0  0  0  0  0  0  0  0
   38.3630   29.4120   42.4090 C   0  0  0  0  0  0  0  0  0  0  0  0
   37.6310   29.7440   43.1460 H   0  0  0  0  0  0  0  0  0  0  0  0
   39.3930   29.6320   42.7630 H   0  0  0  0  0  0  0  0  0  0  0  0
   37.2950   27.0690   42.5410 C   0  0  0  0  0  0  0  0  0  0  0  0
   36.3070   27.5710   43.1430 O   0  0  0  0  0  0  0  0  0  0  0  0
   38.3080   27.9870   42.1700 N   0  0  0  0  0  0  0  0  0  0  0  0
   39.1370   27.5780   41.6450 H   0  0  0  0  0  0  0  0  0  0  0  0
   37.3780   25.6620   42.2550 C   0  0  0  0  0  3  0  0  0  0  0  0
   37.0910   25.1570   41.0910 C   0  0  0  0  0  3  0  0  0  0  0  0
   36.6570   26.0200   39.9800 C   0  0  0  0  0  2  0  0  0  0  0  0
   35.7060   26.5800   40.1900 H   0  0  0  0  0  0  0  0  0  0  0  0
  1 23  1  0  0  0  0
  2  1  1  0  0  0  0
  2  7  1  0  0  0  0
  3  2  2  0  0  0  0
  4  5  2  0  0  0  0
  4  3  1  0  0  0  0
  5  6  1  0  0  0  0
  6  1  2  0  0  0  0
  8  5  1  0  0  0  0
  9 14  1  6  0  0  0
  9 13  1  0  0  0  0
  9 10  1  0  0  0  0
 10 15  1  1  0  0  0
 10  3  1  0  0  0  0
 10 11  1  0  0  0  0
 12 17  1  0  0  0  0
 12 16  1  0  0  0  0
 12 11  1  0  0  0  0
 13 18  1  6  0  0  0
 13 12  1  0  0  0  0
 19  9  1  0  0  0  0
 20 19  1  0  0  0  0
 21 22  1  0  0  0  0
 21 13  1  0  0  0  0
 23 25  1  0  0  0  0
 23 24  1  0  0  0  0
 26 27  2  0  0  0  0
 28 23  1  0  0  0  0
 28 26  1  0  0  0  0
 29 28  1  0  0  0  0
 30 26  1  0  0  0  0
 31 30  2  0  0  0  0
 32 33  1  0  0  0  0
 32 31  1  0  0  0  0
M  END
>  <minimizedAffinity>
-5.24022293

$$$$

 OpenBabel03242521453D

 33 34  0  0  1  0  0  0  0  0999 V2000
   38.8640   30.8470   40.1610 C   0  0  0  0  0  0  0  0  0  0  0  0
   39.9500   31.5020   39.5660 C   0  0  0  0  0  0  0  0  0  0  0  0
   39.9320   32.8970   39.4510 C   0  0  0  0  0  0  0  0  0  0  0  0
   38.8640   33.5350   39.9240 N   0  0  0  0  0  0  0  0  0  0  0  0
   37.8210   32.8920   40.4970 C   0  0  0  0  0  0  0  0  0  0  0  0
   37.8170   31.5490   40.6180 N   0  0  0  0  0  0  0  0  0  0  0  0
   40.7580   30.8890   39.2210 H   0  0  0  0  0  0  0  0  0  0  0  0
   36.9790   33.4560   40.8640 H   0  0  0  0  0  0  0  0  0  0  0  0
   41.6570   32.7730   37.6660 C   0  0  2  0  0  0  0  0  0  0  0  0
   41.0930   33.5220   38.8210 C   0  0  2  0  0  0  0  0  0  0  0  0
   42.2350   33.5970   39.6730 O   0  0  0  0  0  0  0  0  0  0  0  0
   43.1970   34.1020   38.8200 C   0  0  0  0  0  0  0  0  0  0  0  0
   42.8940   33.6630   37.4140 C   0  0  1  0  0  0  0  0  0  0  0  0
   42.1010   31.7930   37.9440 H   0  0  0  0  0  0  0  0  0  0  0  0
   40.9260   34.5800   38.5380 H   0  0  0  0  0  0  0  0  0  0  0  0
   43.1090   35.2080   38.8490 H   0  0  0  0  0  0  0  0  0  0  0  0
   44.2330   33.8600   39.1520 H   0  0  0  0  0  0  0  0  0  0  0  0
   42.5950   34.4890   36.7580 H   0  0  0  0  0  0  0  0  0  0  0  0
   40.8270   32.6570   36.5930 O   0  0  0  0  0  0  0  0  0  0  0  0
   41.0810   31.8500   36.0650 H   0  0  0  0  0  0  0  0  0  0  0  0
   43.8970   32.8950   36.8420 O   0  0  0  0  0  0  0  0  0  0  0  0
   44.7820   33.0430   37.2610 H   0  0  0  0  0  0  0  0  0  0  0  0
   38.9030   29.3460   40.2660 C   0  0  0  0  0  0  0  0  0  0  0  0
   39.9160   28.9780   40.4330 H   0  0  0  0  0  0  0  0  0  0  0  0
   38.4860   28.9140   39.3300 H   0  0  0  0  0  0  0  0  0  0  0  0
   38.2970   28.6130   42.6630 C   0  0  0  0  0  0  0  0  0  0  0  0
   39.5230   28.6310   42.9600 O   0  0  0  0  0  0  0  0  0  0  0  0
   37.9940   28.9790   41.3280 N   0  0  0  0  0  0  0  0  0  0  0  0
   36.9620   28.9850   41.0710 H   0  0  0  0  0  0  0  0  0  0  0  0
   37.2870   28.2470   43.6180 C   0  0  0  0  0  3  0  0  0  0  0  0
   36.6630   27.1060   43.5880 C   0  0  0  0  0  3  0  0  0  0  0  0
   36.9680   26.1060   42.5510 C   0  0  0  0  0  2  0  0  0  0  0  0
   36.7670   26.4660   41.5060 H   0  0  0  0  0  0  0  0  0  0  0  0
  1 23  1  0  0  0  0
  1  6  1  0  0  0  0
  2  1  2  0  0  0  0
  3  2  1  0  0  0  0
  3  4  2  0  0  0  0
  4  5  1  0  0  0  0
  5  6  2  0  0  0  0
  5  8  1  0  0  0  0
  7  2  1  0  0  0  0
  9 14  1  1  0  0  0
  9 10  1  0  0  0  0
 10 15  1  6  0  0  0
 10  3  1  0  0  0  0
 10 11  1  0  0  0  0
 12 16  1  0  0  0  0
 12 17  1  0  0  0  0
 12 11  1  0  0  0  0
 13 18  1  6  0  0  0
 13  9  1  0  0  0  0
 13 12  1  0  0  0  0
 19  9  1  0  0  0  0
 20 19  1  0  0  0  0
 21 22  1  0  0  0  0
 21 13  1  0  0  0  0
 23 24  1  0  0  0  0
 23 28  1  0  0  0  0
 25 23  1  0  0  0  0
 26 27  2  0  0  0  0
 26 30  1  0  0  0  0
 28 26  1  0  0  0  0
 29 28  1  0  0  0  0
 31 30  2  0  0  0  0
 32 31  1  0  0  0  0
 33 32  1  0  0  0  0
M  END
>  <minimizedAffinity>
-5.10297394

$$$$

 OpenBabel03242521453D

 33 34  0  0  1  0  0  0  0  0999 V2000
   39.3240   27.3010   42.4250 C   0  0  0  0  0  0  0  0  0  0  0  0
   39.2580   28.5850   41.8710 C   0  0  0  0  0  0  0  0  0  0  0  0
   38.2130   29.4400   42.2410 C   0  0  0  0  0  0  0  0  0  0  0  0
   37.3250   28.9740   43.1170 N   0  0  0  0  0  0  0  0  0  0  0  0
   37.3990   27.7320   43.6450 C   0  0  0  0  0  0  0  0  0  0  0  0
   38.3960   26.8920   43.3040 N   0  0  0  0  0  0  0  0  0  0  0  0
   40.0270   28.8550   41.1760 H   0  0  0  0  0  0  0  0  0  0  0  0
   36.6540   27.4030   44.3510 H   0  0  0  0  0  0  0  0  0  0  0  0
   37.0280   31.0350   40.7490 C   0  0  2  0  0  0  0  0  0  0  0  0
   38.1970   30.7670   41.6290 C   0  0  2  0  0  0  0  0  0  0  0  0
   39.2730   30.9900   40.7190 O   0  0  0  0  0  0  0  0  0  0  0  0
   38.9610   32.2330   40.2060 C   0  0  0  0  0  0  0  0  0  0  0  0
   37.4690   32.4170   40.2190 C   0  0  1  0  0  0  0  0  0  0  0  0
   37.0060   30.4060   39.8320 H   0  0  0  0  0  0  0  0  0  0  0  0
   38.3150   31.5910   42.3580 H   0  0  0  0  0  0  0  0  0  0  0  0
   39.3950   32.9880   40.8950 H   0  0  0  0  0  0  0  0  0  0  0  0
   39.4260   32.4150   39.2090 H   0  0  0  0  0  0  0  0  0  0  0  0
   37.1330   33.1800   40.9310 H   0  0  0  0  0  0  0  0  0  0  0  0
   35.8200   31.0390   41.3780 O   0  0  0  0  0  0  0  0  0  0  0  0
   35.1050   30.8200   40.7200 H   0  0  0  0  0  0  0  0  0  0  0  0
   36.9210   32.6170   38.9610 O   0  0  0  0  0  0  0  0  0  0  0  0
   37.5760   32.9680   38.3070 H   0  0  0  0  0  0  0  0  0  0  0  0
   40.4530   26.3970   42.0060 C   0  0  0  0  0  0  0  0  0  0  0  0
   41.2230   26.3270   42.7750 H   0  0  0  0  0  0  0  0  0  0  0  0
   40.8880   26.7880   41.0610 H   0  0  0  0  0  0  0  0  0  0  0  0
   39.3150   24.6790   40.4560 C   0  0  0  0  0  0  0  0  0  0  0  0
   39.3660   25.5190   39.5160 O   0  0  0  0  0  0  0  0  0  0  0  0
   39.8650   25.1160   41.6860 N   0  0  0  0  0  0  0  0  0  0  0  0
   39.8450   24.4100   42.4810 H   0  0  0  0  0  0  0  0  0  0  0  0
   38.7380   23.3740   40.2810 C   0  0  0  0  0  3  0  0  0  0  0  0
   37.5010   23.1010   40.5760 C   0  0  0  0  0  3  0  0  0  0  0  0
   36.6060   24.1380   41.1160 C   0  0  0  0  0  2  0  0  0  0  0  0
   36.9510   24.5650   42.0960 H   0  0  0  0  0  0  0  0  0  0  0  0
  1  6  1  0  0  0  0
  2  3  1  0  0  0  0
  2  1  2  0  0  0  0
  3  4  2  0  0  0  0
  4  5  1  0  0  0  0
  5  8  1  0  0  0  0
  6  5  2  0  0  0  0
  7  2  1  0  0  0  0
  9 14  1  6  0  0  0
  9 19  1  0  0  0  0
  9 10  1  0  0  0  0
 10  3  1  0  0  0  0
 10 15  1  1  0  0  0
 11 10  1  0  0  0  0
 12 13  1  0  0  0  0
 12 11  1  0  0  0  0
 12 16  1  0  0  0  0
 13  9  1  0  0  0  0
 13 18  1  1  0  0  0
 17 12  1  0  0  0  0
 20 19  1  0  0  0  0
 21 13  1  0  0  0  0
 22 21  1  0  0  0  0
 23  1  1  0  0  0  0
 23 24  1  0  0  0  0
 25 23  1  0  0  0  0
 26 28  1  0  0  0  0
 27 26  2  0  0  0  0
 28 23  1  0  0  0  0
 28 29  1  0  0  0  0
 30 26  1  0  0  0  0
 30 31  2  0  0  0  0
 31 32  1  0  0  0  0
 32 33  1  0  0  0  0
M  END
>  <minimizedAffinity>
-5.09416866

$$$$

 OpenBabel03242521453D

 33 34  0  0  1  0  0  0  0  0999 V2000
   33.8800   27.7160   37.1980 C   0  0  0  0  0  0  0  0  0  0  0  0
   34.5530   28.5350   38.1130 C   0  0  0  0  0  0  0  0  0  0  0  0
   35.6150   28.0080   38.8560 C   0  0  0  0  0  0  0  0  0  0  0  0
   35.9340   26.7330   38.6460 N   0  0  0  0  0  0  0  0  0  0  0  0
   35.2770   25.9510   37.7600 C   0  0  0  0  0  0  0  0  0  0  0  0
   34.2510   26.4370   37.0340 N   0  0  0  0  0  0  0  0  0  0  0  0
   34.2120   29.5470   38.2010 H   0  0  0  0  0  0  0  0  0  0  0  0
   35.5750   24.9230   37.6270 H   0  0  0  0  0  0  0  0  0  0  0  0
   36.6120   28.3090   41.1130 C   0  0  2  0  0  0  0  0  0  0  0  0
   36.2770   28.9130   39.7940 C   0  0  2  0  0  0  0  0  0  0  0  0
   35.4630   30.0100   40.2020 O   0  0  0  0  0  0  0  0  0  0  0  0
   36.2580   30.6210   41.1510 C   0  0  0  0  0  0  0  0  0  0  0  0
   37.1290   29.5860   41.8100 C   0  0  1  0  0  0  0  0  0  0  0  0
   35.7200   28.0340   41.7160 H   0  0  0  0  0  0  0  0  0  0  0  0
   37.1710   29.4120   39.3720 H   0  0  0  0  0  0  0  0  0  0  0  0
   36.9270   31.3240   40.6130 H   0  0  0  0  0  0  0  0  0  0  0  0
   35.6710   31.2350   41.8720 H   0  0  0  0  0  0  0  0  0  0  0  0
   38.1930   29.7010   41.5700 H   0  0  0  0  0  0  0  0  0  0  0  0
   37.5170   27.2930   41.0700 O   0  0  0  0  0  0  0  0  0  0  0  0
   37.3870   26.7020   41.8620 H   0  0  0  0  0  0  0  0  0  0  0  0
   36.9240   29.4730   43.1760 O   0  0  0  0  0  0  0  0  0  0  0  0
   36.5340   30.2900   43.5770 H   0  0  0  0  0  0  0  0  0  0  0  0
   32.7350   28.3030   36.4170 C   0  0  0  0  0  0  0  0  0  0  0  0
   32.0590   27.5310   36.0480 H   0  0  0  0  0  0  0  0  0  0  0  0
   33.1490   28.8900   35.5680 H   0  0  0  0  0  0  0  0  0  0  0  0
   30.6990   29.5660   37.3690 C   0  0  0  0  0  0  0  0  0  0  0  0
   29.9520   28.9180   36.5850 O   0  0  0  0  0  0  0  0  0  0  0  0
   32.0770   29.2500   37.2880 N   0  0  0  0  0  0  0  0  0  0  0  0
   32.7150   29.7770   37.9560 H   0  0  0  0  0  0  0  0  0  0  0  0
   30.1780   30.5540   38.2750 C   0  0  0  0  0  3  0  0  0  0  0  0
   29.9190   31.7770   37.9170 C   0  0  0  0  0  3  0  0  0  0  0  0
   30.1490   32.2250   36.5330 C   0  0  0  0  0  2  0  0  0  0  0  0
   31.2220   32.1490   36.2080 H   0  0  0  0  0  0  0  0  0  0  0  0
  1  2  1  0  0  0  0
  2  7  1  0  0  0  0
  2  3  2  0  0  0  0
  3 10  1  0  0  0  0
  4  3  1  0  0  0  0
  5  4  2  0  0  0  0
  6  1  2  0  0  0  0
  6  5  1  0  0  0  0
  8  5  1  0  0  0  0
  9 14  1  1  0  0  0
  9 13  1  0  0  0  0
 10 15  1  6  0  0  0
 10 11  1  0  0  0  0
 10  9  1  0  0  0  0
 11 12  1  0  0  0  0
 12 13  1  0  0  0  0
 12 17  1  0  0  0  0
 13 18  1  6  0  0  0
 13 21  1  0  0  0  0
 16 12  1  0  0  0  0
 19  9  1  0  0  0  0
 19 20  1  0  0  0  0
 21 22  1  0  0  0  0
 23  1  1  0  0  0  0
 23 28  1  0  0  0  0
 24 23  1  0  0  0  0
 25 23  1  0  0  0  0
 26 30  1  0  0  0  0
 27 26  2  0  0  0  0
 28 26  1  0  0  0  0
 28 29  1  0  0  0  0
 31 30  2  0  0  0  0
 32 31  1  0  0  0  0
 33 32  1  0  0  0  0
M  END
>  <minimizedAffinity>
-5.05599403

$$$$

 OpenBabel03242521453D

 33 34  0  0  1  0  0  0  0  0999 V2000
   38.4940   24.9440   42.2770 C   0  0  0  0  0  0  0  0  0  0  0  0
   38.1460   26.2270   41.8360 C   0  0  0  0  0  0  0  0  0  0  0  0
   38.8220   27.3380   42.3530 C   0  0  0  0  0  0  0  0  0  0  0  0
   39.7770   27.1080   43.2520 N   0  0  0  0  0  0  0  0  0  0  0  0
   40.1040   25.8650   43.6700 C   0  0  0  0  0  0  0  0  0  0  0  0
   39.4670   24.7800   43.1860 N   0  0  0  0  0  0  0  0  0  0  0  0
   37.3630   26.2950   41.1080 H   0  0  0  0  0  0  0  0  0  0  0  0
   40.8860   25.7320   44.4010 H   0  0  0  0  0  0  0  0  0  0  0  0
   37.0840   29.1150   42.3340 C   0  0  2  0  0  0  0  0  0  0  0  0
   38.4140   28.6500   41.8540 C   0  0  2  0  0  0  0  0  0  0  0  0
   38.2160   28.6890   40.4420 O   0  0  0  0  0  0  0  0  0  0  0  0
   37.7320   29.9690   40.2560 C   0  0  0  0  0  0  0  0  0  0  0  0
   36.9880   30.4030   41.4880 C   0  0  1  0  0  0  0  0  0  0  0  0
   36.2360   28.5010   41.9610 H   0  0  0  0  0  0  0  0  0  0  0  0
   39.1710   29.4410   42.0200 H   0  0  0  0  0  0  0  0  0  0  0  0
   38.6110   30.6370   40.1460 H   0  0  0  0  0  0  0  0  0  0  0  0
   37.1410   30.0710   39.3170 H   0  0  0  0  0  0  0  0  0  0  0  0
   37.4900   31.2110   42.0340 H   0  0  0  0  0  0  0  0  0  0  0  0
   36.9950   29.3230   43.6770 O   0  0  0  0  0  0  0  0  0  0  0  0
   36.0450   29.2300   43.9630 H   0  0  0  0  0  0  0  0  0  0  0  0
   35.6520   30.6970   41.2580 O   0  0  0  0  0  0  0  0  0  0  0  0
   35.4660   30.9330   40.3150 H   0  0  0  0  0  0  0  0  0  0  0  0
   37.7480   23.7650   41.7110 C   0  0  0  0  0  0  0  0  0  0  0  0
   37.2410   23.1950   42.4910 H   0  0  0  0  0  0  0  0  0  0  0  0
   38.4690   23.1170   41.1680 H   0  0  0  0  0  0  0  0  0  0  0  0
   36.7660   23.9800   39.3370 C   0  0  0  0  0  0  0  0  0  0  0  0
   37.6010   23.1260   38.9320 O   0  0  0  0  0  0  0  0  0  0  0  0
   36.8350   24.2860   40.7180 N   0  0  0  0  0  0  0  0  0  0  0  0
   36.1240   24.9910   41.0750 H   0  0  0  0  0  0  0  0  0  0  0  0
   35.8130   24.5930   38.4510 C   0  0  0  0  0  3  0  0  0  0  0  0
   34.6670   24.0520   38.1600 C   0  0  0  0  0  3  0  0  0  0  0  0
   34.2750   22.7550   38.7360 C   0  0  0  0  0  2  0  0  0  0  0  0
   34.9640   21.9130   38.4580 H   0  0  0  0  0  0  0  0  0  0  0  0
  1  6  1  0  0  0  0
  2  1  2  0  0  0  0
  2  3  1  0  0  0  0
  3  4  2  0  0  0  0
  4  5  1  0  0  0  0
  5  8  1  0  0  0  0
  6  5  2  0  0  0  0
  7  2  1  0  0  0  0
  9 14  1  6  0  0  0
  9 19  1  0  0  0  0
 10 15  1  1  0  0  0
 10  9  1  0  0  0  0
 10  3  1  0  0  0  0
 11 10  1  0  0  0  0
 12 11  1  0  0  0  0
 12 13  1  0  0  0  0
 13 18  1  1  0  0  0
 13  9  1  0  0  0  0
 16 12  1  0  0  0  0
 17 12  1  0  0  0  0
 19 20  1  0  0  0  0
 21 13  1  0  0  0  0
 22 21  1  0  0  0  0
 23  1  1  0  0  0  0
 23 24  1  0  0  0  0
 25 23  1  0  0  0  0
 26 28  1  0  0  0  0
 27 26  2  0  0  0  0
 28 29  1  0  0  0  0
 28 23  1  0  0  0  0
 30 26  1  0  0  0  0
 31 30  2  0  0  0  0
 31 32  1  0  0  0  0
 33 32  1  0  0  0  0
M  END
>  <minimizedAffinity>
-5.05164671

$$$$

 OpenBabel03242521453D

 33 34  0  0  1  0  0  0  0  0999 V2000
   37.2210   26.9170   41.2240 C   0  0  0  0  0  0  0  0  0  0  0  0
   37.3810   28.2710   40.9080 C   0  0  0  0  0  0  0  0  0  0  0  0
   37.8190   29.1610   41.8950 C   0  0  0  0  0  0  0  0  0  0  0  0
   38.0650   28.6580   43.1040 N   0  0  0  0  0  0  0  0  0  0  0  0
   37.9070   27.3480   43.3970 C   0  0  0  0  0  0  0  0  0  0  0  0
   37.4860   26.4740   42.4620 N   0  0  0  0  0  0  0  0  0  0  0  0
   37.1550   28.5660   39.9030 H   0  0  0  0  0  0  0  0  0  0  0  0
   38.1200   26.9910   44.3930 H   0  0  0  0  0  0  0  0  0  0  0  0
   36.8300   31.1140   40.7180 C   0  0  2  0  0  0  0  0  0  0  0  0
   37.9660   30.5620   41.5050 C   0  0  2  0  0  0  0  0  0  0  0  0
   39.0500   30.7940   40.6070 O   0  0  0  0  0  0  0  0  0  0  0  0
   38.8950   32.1340   40.3110 C   0  0  0  0  0  0  0  0  0  0  0  0
   37.4390   32.4970   40.4030 C   0  0  1  0  0  0  0  0  0  0  0  0
   36.7170   30.6510   39.7140 H   0  0  0  0  0  0  0  0  0  0  0  0
   38.1980   31.2350   42.3530 H   0  0  0  0  0  0  0  0  0  0  0  0
   39.4300   32.7060   41.0970 H   0  0  0  0  0  0  0  0  0  0  0  0
   39.3670   32.4160   39.3420 H   0  0  0  0  0  0  0  0  0  0  0  0
   37.2130   33.1700   41.2380 H   0  0  0  0  0  0  0  0  0  0  0  0
   35.6410   31.1660   41.3790 O   0  0  0  0  0  0  0  0  0  0  0  0
   34.8950   31.1480   40.7180 H   0  0  0  0  0  0  0  0  0  0  0  0
   36.9060   32.9670   39.2120 O   0  0  0  0  0  0  0  0  0  0  0  0
   37.5920   33.3360   38.6010 H   0  0  0  0  0  0  0  0  0  0  0  0
   36.7410   25.9810   40.1460 C   0  0  0  0  0  0  0  0  0  0  0  0
   36.8830   26.4030   39.1510 H   0  0  0  0  0  0  0  0  0  0  0  0
   35.6660   25.7610   40.3210 H   0  0  0  0  0  0  0  0  0  0  0  0
   37.0450   23.4270   39.9660 C   0  0  0  0  0  0  0  0  0  0  0  0
   35.9250   23.3510   39.3900 O   0  0  0  0  0  0  0  0  0  0  0  0
   37.4500   24.7350   40.3300 N   0  0  0  0  0  0  0  0  0  0  0  0
   38.4000   24.8130   40.8000 H   0  0  0  0  0  0  0  0  0  0  0  0
   37.8460   22.2620   40.2300 C   0  0  0  0  0  3  0  0  0  0  0  0
   38.7090   21.7890   39.3790 C   0  0  0  0  0  3  0  0  0  0  0  0
   38.9150   22.4350   38.0730 C   0  0  0  0  0  2  0  0  0  0  0  0
   37.9940   22.4520   37.4290 H   0  0  0  0  0  0  0  0  0  0  0  0
  1  6  1  0  0  0  0
  2  1  2  0  0  0  0
  2  3  1  0  0  0  0
  3  4  2  0  0  0  0
  4  5  1  0  0  0  0
  5  8  1  0  0  0  0
  6  5  2  0  0  0  0
  7  2  1  0  0  0  0
  9 14  1  6  0  0  0
  9 19  1  0  0  0  0
  9 10  1  0  0  0  0
 10  3  1  0  0  0  0
 10 15  1  1  0  0  0
 11 10  1  0  0  0  0
 12 13  1  0  0  0  0
 12 11  1  0  0  0  0
 12 16  1  0  0  0  0
 13  9  1  0  0  0  0
 13 18  1  1  0  0  0
 17 12  1  0  0  0  0
 20 19  1  0  0  0  0
 21 13  1  0  0  0  0
 22 21  1  0  0  0  0
 23 25  1  0  0  0  0
 23 28  1  0  0  0  0
 23  1  1  0  0  0  0
 24 23  1  0  0  0  0
 26 30  1  0  0  0  0
 26 28  1  0  0  0  0
 27 26  2  0  0  0  0
 28 29  1  0  0  0  0
 31 30  2  0  0  0  0
 32 31  1  0  0  0  0
 33 32  1  0  0  0  0
M  END
>  <minimizedAffinity>
-4.97803783

$$$$
