REMARK  Name = 
REMARK  4 active torsions:
REMARK  status: ('A' for Active; 'I' for Inactive)
REMARK    1  A    between atoms: C_1  and  C_7
REMARK    2  A    between atoms: C_5  and  C_17
REMARK    3  A    between atoms: C_8  and  C_9
REMARK    4  A    between atoms: C_18  and  C_19
REMARK                            x       y       z     vdW  Elec       q    Type
REMARK                         _______ _______ _______ _____ _____    ______ ____
ROOT
ATOM      1  C   UNL     1      44.682  35.522  43.608  0.00  0.00    +0.000 A 
ATOM      2  C   UNL     1      43.920  35.432  42.404  0.00  0.00    +0.000 A 
ATOM      3  C   UNL     1      43.779  34.158  41.833  0.00  0.00    +0.000 A 
ATOM      4  N   UNL     1      44.366  33.095  42.447  0.00  0.00    +0.000 NA
ATOM      5  C   UNL     1      45.077  33.233  43.586  0.00  0.00    +0.000 A 
ATOM      6  N   UNL     1      45.230  34.427  44.153  0.00  0.00    +0.000 NA
ATOM      7  H   UNL     1      43.495  36.341  41.999  0.00  0.00    +0.000 HD
ATOM      8  H   UNL     1      43.202  34.082  40.920  0.00  0.00    +0.000 HD
ENDROOT
BRANCH   1   9
ATOM      9  C   UNL     1      44.833  36.855  44.211  0.00  0.00    +0.000 C 
ATOM     10  C   UNL     1      45.265  37.837  43.431  0.00  0.00    +0.000 C 
BRANCH  10  11
ATOM     11  C   UNL     1      45.430  39.207  44.013  0.00  0.00    +0.000 C 
ATOM     12  H   UNL     1      46.213  39.106  44.809  0.00  0.00    +0.000 HD
ATOM     13  H   UNL     1      44.529  39.587  44.497  0.00  0.00    +0.000 HD
ATOM     14  H   UNL     1      45.828  39.898  43.267  0.00  0.00    +0.000 HD
ENDBRANCH  10  11
ENDBRANCH   1   9
BRANCH   5  15
ATOM     15  C   UNL     1      45.688  32.067  44.208  0.00  0.00    +0.000 C 
ATOM     16  C   UNL     1      45.832  30.915  43.573  0.00  0.00    +0.000 C 
BRANCH  16  17
ATOM     17  C   UNL     1      46.446  29.704  44.165  0.00  0.00    +0.000 C 
ATOM     18  H   UNL     1      46.655  29.935  45.241  0.00  0.00    +0.000 HD
ENDBRANCH  16  17
ENDBRANCH   5  15
TORSDOF 4
