
 OpenBabel03252501543D

 16 16  0  0  0  0  0  0  0  0999 V2000
   44.9610   34.8270   44.8910 C   0  0  0  0  0  0  0  0  0  0  0  0
   45.5510   35.2070   43.6920 C   0  0  0  0  0  0  0  0  0  0  0  0
   46.6940   34.5390   43.2790 C   0  0  0  0  0  0  0  0  0  0  0  0
   47.2000   33.5420   44.0500 N   0  0  0  0  0  0  0  0  0  0  0  0
   46.5920   33.1980   45.2190 C   0  0  0  0  0  0  0  0  0  0  0  0
   45.4810   33.8370   45.6350 N   0  0  0  0  0  0  0  0  0  0  0  0
   44.0780   35.2570   45.3260 H   0  0  0  0  0  0  0  0  0  0  0  0
   47.1270   32.3940   45.6940 H   0  0  0  0  0  0  0  0  0  0  0  0
   44.9230   36.3020   42.9300 C   0  0  0  0  0  0  0  0  0  0  0  0
   44.3970   35.9280   42.0300 H   0  0  0  0  0  0  0  0  0  0  0  0
   45.7530   36.9610   42.5420 H   0  0  0  0  0  0  0  0  0  0  0  0
   44.3210   36.9270   43.5950 H   0  0  0  0  0  0  0  0  0  0  0  0
   47.3330   34.9170   42.0250 C   0  0  0  0  0  3  0  0  0  0  0  0
   47.3730   34.0570   41.0220 C   0  0  0  0  0  3  0  0  0  0  0  0
   48.0290   34.4490   39.7380 C   0  0  0  0  0  2  0  0  0  0  0  0
   48.2990   33.5470   39.1400 H   0  0  0  0  0  0  0  0  0  0  0  0
  1  7  1  0  0  0  0
  1  6  1  0  0  0  0
  2  1  2  0  0  0  0
  3  2  1  0  0  0  0
  3  4  2  0  0  0  0
  4  5  1  0  0  0  0
  5  6  2  0  0  0  0
  5  8  1  0  0  0  0
  9 12  1  0  0  0  0
  9  2  1  0  0  0  0
 10  9  1  0  0  0  0
 11  9  1  0  0  0  0
 13  3  1  0  0  0  0
 14 13  2  0  0  0  0
 15 14  1  0  0  0  0
 16 15  1  0  0  0  0
M  END
>  <minimizedAffinity>
-3.70188093

>  <minimizedRMSD>
2.02905273

$$$$
