
 OpenBabel03242516583D

 23 24  0  0  0  0  0  0  0  0999 V2000
   36.5620   28.5730   41.2410 C   0  0  0  0  0  0  0  0  0  0  0  0
   36.4010   27.6450   42.2310 C   0  0  0  0  0  0  0  0  0  0  0  0
   37.0900   27.7020   43.4160 C   0  0  0  0  0  0  0  0  0  0  0  0
   37.9690   28.7460   43.5810 C   0  0  0  0  0  0  0  0  0  0  0  0
   38.1820   29.7120   42.6290 C   0  0  0  0  0  0  0  0  0  0  0  0
   37.4390   29.5880   41.4420 C   0  0  0  0  0  0  0  0  0  0  0  0
   35.7000   26.8170   42.0970 H   0  0  0  0  0  0  0  0  0  0  0  0
   36.9180   26.9350   44.1650 H   0  0  0  0  0  0  0  0  0  0  0  0
   38.5140   28.7920   44.5140 H   0  0  0  0  0  0  0  0  0  0  0  0
   38.8790   30.4940   42.8230 H   0  0  0  0  0  0  0  0  0  0  0  0
   33.9250   28.8890   38.5560 C   0  0  0  0  0  0  0  0  0  0  0  0
   34.6000   29.1350   39.7860 C   0  0  0  0  0  0  0  0  0  0  0  0
   35.7810   28.4150   40.0290 C   0  0  0  0  0  0  0  0  0  0  0  0
   36.1880   27.5490   39.0860 N   0  0  0  0  0  0  0  0  0  0  0  0
   35.5410   27.3260   37.9280 C   0  0  0  0  0  0  0  0  0  0  0  0
   34.4030   27.9990   37.6600 N   0  0  0  0  0  0  0  0  0  0  0  0
   33.0020   29.4660   38.3890 H   0  0  0  0  0  0  0  0  0  0  0  0
   34.2510   29.8290   40.5130 H   0  0  0  0  0  0  0  0  0  0  0  0
   35.8990   26.6210   37.1910 H   0  0  0  0  0  0  0  0  0  0  0  0
   37.6390   30.5850   40.4240 C   0  0  0  0  0  3  0  0  0  0  0  0
   37.1460   31.8130   40.4590 C   0  0  0  0  0  3  0  0  0  0  0  0
   37.3380   32.8540   39.4240 C   0  0  0  0  0  2  0  0  0  0  0  0
   37.8980   33.7000   39.8620 H   0  0  0  0  0  0  0  0  0  0  0  0
  1  6  2  0  0  0  0
  1  2  1  0  0  0  0
  2  3  2  0  0  0  0
  3  4  1  0  0  0  0
  3  8  1  0  0  0  0
  4  9  1  0  0  0  0
  5 10  1  0  0  0  0
  5  4  2  0  0  0  0
  6  5  1  0  0  0  0
  7  2  1  0  0  0  0
 11 12  1  0  0  0  0
 12 13  2  0  0  0  0
 12 18  1  0  0  0  0
 13  1  1  0  0  0  0
 14 13  1  0  0  0  0
 15 14  2  0  0  0  0
 16 15  1  0  0  0  0
 16 11  2  0  0  0  0
 17 11  1  0  0  0  0
 19 15  1  0  0  0  0
 20 21  2  0  0  0  0
 20  6  1  0  0  0  0
 22 23  1  0  0  0  0
 22 21  1  0  0  0  0
M  END
>  <minimizedAffinity>
-4.68904257

$$$$

 OpenBabel03242516583D

 23 24  0  0  0  0  0  0  0  0999 V2000
   37.4750   29.4860   41.5580 C   0  0  0  0  0  0  0  0  0  0  0  0
   38.0690   29.4240   42.7870 C   0  0  0  0  0  0  0  0  0  0  0  0
   37.8130   28.4140   43.6800 C   0  0  0  0  0  0  0  0  0  0  0  0
   36.9210   27.4440   43.2920 C   0  0  0  0  0  0  0  0  0  0  0  0
   36.2860   27.4440   42.0740 C   0  0  0  0  0  0  0  0  0  0  0  0
   36.5990   28.5100   41.2120 C   0  0  0  0  0  0  0  0  0  0  0  0
   38.7790   30.1960   43.0920 H   0  0  0  0  0  0  0  0  0  0  0  0
   38.3170   28.4190   44.6410 H   0  0  0  0  0  0  0  0  0  0  0  0
   36.7170   26.6480   43.9940 H   0  0  0  0  0  0  0  0  0  0  0  0
   35.6050   26.6600   41.8370 H   0  0  0  0  0  0  0  0  0  0  0  0
   37.4720   32.7750   39.7020 C   0  0  0  0  0  0  0  0  0  0  0  0
   37.0250   31.7530   40.5870 C   0  0  0  0  0  0  0  0  0  0  0  0
   37.8190   30.5990   40.6930 C   0  0  0  0  0  0  0  0  0  0  0  0
   38.9400   30.5430   39.9550 N   0  0  0  0  0  0  0  0  0  0  0  0
   39.3520   31.5170   39.1220 C   0  0  0  0  0  0  0  0  0  0  0  0
   38.6150   32.6390   38.9950 N   0  0  0  0  0  0  0  0  0  0  0  0
   36.8330   33.6690   39.6360 H   0  0  0  0  0  0  0  0  0  0  0  0
   36.1310   31.8270   41.1580 H   0  0  0  0  0  0  0  0  0  0  0  0
   40.2610   31.4370   38.5440 H   0  0  0  0  0  0  0  0  0  0  0  0
   35.9520   28.5390   39.9270 C   0  0  0  0  0  3  0  0  0  0  0  0
   34.7110   28.9450   39.7130 C   0  0  0  0  0  3  0  0  0  0  0  0
   34.0250   28.9830   38.4000 C   0  0  0  0  0  2  0  0  0  0  0  0
   33.7840   30.0320   38.1500 H   0  0  0  0  0  0  0  0  0  0  0  0
  1  2  1  0  0  0  0
  2  7  1  0  0  0  0
  2  3  2  0  0  0  0
  3  8  1  0  0  0  0
  4  3  1  0  0  0  0
  4  9  1  0  0  0  0
  5  4  2  0  0  0  0
  6  1  2  0  0  0  0
  6  5  1  0  0  0  0
 10  5  1  0  0  0  0
 11 12  1  0  0  0  0
 12 13  2  0  0  0  0
 12 18  1  0  0  0  0
 13  1  1  0  0  0  0
 14 13  1  0  0  0  0
 15 14  2  0  0  0  0
 16 15  1  0  0  0  0
 16 11  2  0  0  0  0
 17 11  1  0  0  0  0
 19 15  1  0  0  0  0
 20  6  1  0  0  0  0
 21 20  2  0  0  0  0
 22 21  1  0  0  0  0
 23 22  1  0  0  0  0
M  END
>  <minimizedAffinity>
-4.67841244

$$$$

 OpenBabel03242516583D

 23 24  0  0  0  0  0  0  0  0999 V2000
   37.4850   29.4660   41.5040 C   0  0  0  0  0  0  0  0  0  0  0  0
   36.5000   28.5210   41.4520 C   0  0  0  0  0  0  0  0  0  0  0  0
   36.3100   27.5970   42.4480 C   0  0  0  0  0  0  0  0  0  0  0  0
   37.1620   27.6500   43.5250 C   0  0  0  0  0  0  0  0  0  0  0  0
   38.1740   28.5710   43.6420 C   0  0  0  0  0  0  0  0  0  0  0  0
   38.3060   29.4860   42.5840 C   0  0  0  0  0  0  0  0  0  0  0  0
   35.8230   28.4820   40.5950 H   0  0  0  0  0  0  0  0  0  0  0  0
   35.5090   26.8710   42.3500 H   0  0  0  0  0  0  0  0  0  0  0  0
   37.0150   26.9220   44.3100 H   0  0  0  0  0  0  0  0  0  0  0  0
   38.7990   28.5560   44.5050 H   0  0  0  0  0  0  0  0  0  0  0  0
   37.1400   32.4650   39.2350 C   0  0  0  0  0  0  0  0  0  0  0  0
   36.9550   31.6450   40.3840 C   0  0  0  0  0  0  0  0  0  0  0  0
   37.5940   30.3950   40.3950 C   0  0  0  0  0  0  0  0  0  0  0  0
   38.3340   30.0640   39.3230 N   0  0  0  0  0  0  0  0  0  0  0  0
   38.5020   30.8490   38.2440 C   0  0  0  0  0  0  0  0  0  0  0  0
   37.9030   32.0560   38.1980 N   0  0  0  0  0  0  0  0  0  0  0  0
   36.6290   33.4400   39.2510 H   0  0  0  0  0  0  0  0  0  0  0  0
   36.3610   31.9360   41.2180 H   0  0  0  0  0  0  0  0  0  0  0  0
   39.1060   30.5500   37.3990 H   0  0  0  0  0  0  0  0  0  0  0  0
   39.3570   30.4650   42.6760 C   0  0  0  0  0  3  0  0  0  0  0  0
   40.6490   30.2020   42.5650 C   0  0  0  0  0  3  0  0  0  0  0  0
   41.7460   31.1930   42.6570 C   0  0  0  0  0  2  0  0  0  0  0  0
   42.2750   31.2380   41.6870 H   0  0  0  0  0  0  0  0  0  0  0  0
  1  6  1  0  0  0  0
  2  1  2  0  0  0  0
  2  3  1  0  0  0  0
  3  4  2  0  0  0  0
  4  5  1  0  0  0  0
  4  9  1  0  0  0  0
  5 10  1  0  0  0  0
  6 20  1  0  0  0  0
  6  5  2  0  0  0  0
  7  2  1  0  0  0  0
  8  3  1  0  0  0  0
 11 17  1  0  0  0  0
 11 12  1  0  0  0  0
 12 13  2  0  0  0  0
 12 18  1  0  0  0  0
 13  1  1  0  0  0  0
 14 13  1  0  0  0  0
 15 14  2  0  0  0  0
 16 15  1  0  0  0  0
 16 11  2  0  0  0  0
 19 15  1  0  0  0  0
 21 22  1  0  0  0  0
 21 20  2  0  0  0  0
 23 22  1  0  0  0  0
M  END
>  <minimizedAffinity>
-4.58849525

$$$$

 OpenBabel03242516583D

 23 24  0  0  0  0  0  0  0  0999 V2000
   38.2590   26.9990   41.9410 C   0  0  0  0  0  0  0  0  0  0  0  0
   39.1090   27.4560   42.9070 C   0  0  0  0  0  0  0  0  0  0  0  0
   39.8750   26.6170   43.6750 C   0  0  0  0  0  0  0  0  0  0  0  0
   39.7590   25.2680   43.4380 C   0  0  0  0  0  0  0  0  0  0  0  0
   38.9240   24.7380   42.4850 C   0  0  0  0  0  0  0  0  0  0  0  0
   38.1720   25.6600   41.7380 C   0  0  0  0  0  0  0  0  0  0  0  0
   39.2000   28.5300   43.0930 H   0  0  0  0  0  0  0  0  0  0  0  0
   40.5330   27.0410   44.4280 H   0  0  0  0  0  0  0  0  0  0  0  0
   40.3600   24.6040   44.0430 H   0  0  0  0  0  0  0  0  0  0  0  0
   38.8820   23.6810   42.3540 H   0  0  0  0  0  0  0  0  0  0  0  0
   35.5280   29.2830   40.6820 C   0  0  0  0  0  0  0  0  0  0  0  0
   36.1670   28.3070   41.4980 C   0  0  0  0  0  0  0  0  0  0  0  0
   37.4970   27.9760   41.1880 C   0  0  0  0  0  0  0  0  0  0  0  0
   38.0680   28.6040   40.1470 N   0  0  0  0  0  0  0  0  0  0  0  0
   37.4530   29.5250   39.3830 C   0  0  0  0  0  0  0  0  0  0  0  0
   36.1770   29.8680   39.6510 N   0  0  0  0  0  0  0  0  0  0  0  0
   34.4870   29.5250   40.9450 H   0  0  0  0  0  0  0  0  0  0  0  0
   35.6860   27.8270   42.3170 H   0  0  0  0  0  0  0  0  0  0  0  0
   37.9460   30.0100   38.5520 H   0  0  0  0  0  0  0  0  0  0  0  0
   37.2870   25.1370   40.7300 C   0  0  0  0  0  3  0  0  0  0  0  0
   36.5000   24.0850   40.8850 C   0  0  0  0  0  3  0  0  0  0  0  0
   35.5830   23.5300   39.8630 C   0  0  0  0  0  2  0  0  0  0  0  0
   34.5420   23.6210   40.2230 H   0  0  0  0  0  0  0  0  0  0  0  0
  1  2  1  0  0  0  0
  2  7  1  0  0  0  0
  2  3  2  0  0  0  0
  3  8  1  0  0  0  0
  4  3  1  0  0  0  0
  4  9  1  0  0  0  0
  5  4  2  0  0  0  0
  6  1  2  0  0  0  0
  6  5  1  0  0  0  0
 10  5  1  0  0  0  0
 11 17  1  0  0  0  0
 11 12  1  0  0  0  0
 12 18  1  0  0  0  0
 13 12  2  0  0  0  0
 13  1  1  0  0  0  0
 14 13  1  0  0  0  0
 15 16  1  0  0  0  0
 15 14  2  0  0  0  0
 16 11  2  0  0  0  0
 19 15  1  0  0  0  0
 20 21  2  0  0  0  0
 20  6  1  0  0  0  0
 22 23  1  0  0  0  0
 22 21  1  0  0  0  0
M  END
>  <minimizedAffinity>
-4.44191313

$$$$

 OpenBabel03242516583D

 23 24  0  0  0  0  0  0  0  0999 V2000
   38.1280   30.8080   41.1470 C   0  0  0  0  0  0  0  0  0  0  0  0
   39.1380   31.6970   41.3820 C   0  0  0  0  0  0  0  0  0  0  0  0
   39.1530   32.9580   40.8420 C   0  0  0  0  0  0  0  0  0  0  0  0
   38.0950   33.3090   40.0390 C   0  0  0  0  0  0  0  0  0  0  0  0
   37.0470   32.4670   39.7590 C   0  0  0  0  0  0  0  0  0  0  0  0
   37.1010   31.1920   40.3480 C   0  0  0  0  0  0  0  0  0  0  0  0
   39.9790   31.4150   42.0220 H   0  0  0  0  0  0  0  0  0  0  0  0
   39.9850   33.6190   41.0660 H   0  0  0  0  0  0  0  0  0  0  0  0
   38.1040   34.3020   39.6110 H   0  0  0  0  0  0  0  0  0  0  0  0
   36.2580   32.8040   39.1270 H   0  0  0  0  0  0  0  0  0  0  0  0
   38.8770   27.1800   41.8780 C   0  0  0  0  0  0  0  0  0  0  0  0
   38.8600   28.4110   41.1630 C   0  0  0  0  0  0  0  0  0  0  0  0
   38.2150   29.5010   41.7690 C   0  0  0  0  0  0  0  0  0  0  0  0
   37.6610   29.3030   42.9780 N   0  0  0  0  0  0  0  0  0  0  0  0
   37.6830   28.1340   43.6430 C   0  0  0  0  0  0  0  0  0  0  0  0
   38.2940   27.0660   43.0910 N   0  0  0  0  0  0  0  0  0  0  0  0
   39.3890   26.3410   41.3820 H   0  0  0  0  0  0  0  0  0  0  0  0
   39.3090   28.5350   40.2060 H   0  0  0  0  0  0  0  0  0  0  0  0
   37.2270   28.0120   44.6150 H   0  0  0  0  0  0  0  0  0  0  0  0
   36.0170   30.2860   40.0760 C   0  0  0  0  0  3  0  0  0  0  0  0
   35.8000   29.6920   38.9130 C   0  0  0  0  0  3  0  0  0  0  0  0
   34.6920   28.7570   38.6110 C   0  0  0  0  0  2  0  0  0  0  0  0
   35.1130   27.7640   38.3700 H   0  0  0  0  0  0  0  0  0  0  0  0
  1  2  1  0  0  0  0
  1 13  1  0  0  0  0
  2  7  1  0  0  0  0
  3  8  1  0  0  0  0
  3  2  2  0  0  0  0
  4  3  1  0  0  0  0
  5  4  2  0  0  0  0
  5  6  1  0  0  0  0
  6  1  2  0  0  0  0
  9  4  1  0  0  0  0
 10  5  1  0  0  0  0
 11 16  1  0  0  0  0
 12 13  1  0  0  0  0
 12 11  2  0  0  0  0
 13 14  2  0  0  0  0
 14 15  1  0  0  0  0
 15 19  1  0  0  0  0
 16 15  2  0  0  0  0
 17 11  1  0  0  0  0
 18 12  1  0  0  0  0
 20  6  1  0  0  0  0
 21 20  2  0  0  0  0
 22 21  1  0  0  0  0
 23 22  1  0  0  0  0
M  END
>  <minimizedAffinity>
-4.42077398

$$$$

 OpenBabel03242516583D

 23 24  0  0  0  0  0  0  0  0999 V2000
   36.9180   30.4380   39.2990 C   0  0  0  0  0  0  0  0  0  0  0  0
   36.5710   30.3940   37.9780 C   0  0  0  0  0  0  0  0  0  0  0  0
   35.6670   29.4900   37.4810 C   0  0  0  0  0  0  0  0  0  0  0  0
   35.1080   28.6070   38.3730 C   0  0  0  0  0  0  0  0  0  0  0  0
   35.4110   28.5920   39.7120 C   0  0  0  0  0  0  0  0  0  0  0  0
   36.3440   29.5480   40.1470 C   0  0  0  0  0  0  0  0  0  0  0  0
   37.0170   31.0990   37.2710 H   0  0  0  0  0  0  0  0  0  0  0  0
   35.4320   29.5060   36.4210 H   0  0  0  0  0  0  0  0  0  0  0  0
   34.3960   27.8920   37.9830 H   0  0  0  0  0  0  0  0  0  0  0  0
   34.9390   27.8790   40.3480 H   0  0  0  0  0  0  0  0  0  0  0  0
   38.5690   33.6420   40.4220 C   0  0  0  0  0  0  0  0  0  0  0  0
   37.5260   32.7570   40.0260 C   0  0  0  0  0  0  0  0  0  0  0  0
   37.8840   31.4360   39.7150 C   0  0  0  0  0  0  0  0  0  0  0  0
   39.1820   31.1020   39.8140 N   0  0  0  0  0  0  0  0  0  0  0  0
   40.1580   31.9480   40.1890 C   0  0  0  0  0  0  0  0  0  0  0  0
   39.8520   33.2250   40.4960 N   0  0  0  0  0  0  0  0  0  0  0  0
   38.2630   34.6730   40.6610 H   0  0  0  0  0  0  0  0  0  0  0  0
   36.5060   33.0530   39.9570 H   0  0  0  0  0  0  0  0  0  0  0  0
   41.1930   31.6430   40.2580 H   0  0  0  0  0  0  0  0  0  0  0  0
   36.6820   29.5600   41.5460 C   0  0  0  0  0  3  0  0  0  0  0  0
   37.0690   28.5020   42.2410 C   0  0  0  0  0  3  0  0  0  0  0  0
   37.4220   28.4920   43.6790 C   0  0  0  0  0  2  0  0  0  0  0  0
   38.4870   28.2160   43.7880 H   0  0  0  0  0  0  0  0  0  0  0  0
  1 13  1  0  0  0  0
  1  6  1  0  0  0  0
  2  1  2  0  0  0  0
  3  2  1  0  0  0  0
  3  4  2  0  0  0  0
  4  5  1  0  0  0  0
  5  6  2  0  0  0  0
  5 10  1  0  0  0  0
  6 20  1  0  0  0  0
  7  2  1  0  0  0  0
  8  3  1  0  0  0  0
  9  4  1  0  0  0  0
 11 16  1  0  0  0  0
 11 17  1  0  0  0  0
 12 11  2  0  0  0  0
 13 14  2  0  0  0  0
 13 12  1  0  0  0  0
 14 15  1  0  0  0  0
 15 19  1  0  0  0  0
 15 16  2  0  0  0  0
 18 12  1  0  0  0  0
 20 21  2  0  0  0  0
 21 22  1  0  0  0  0
 22 23  1  0  0  0  0
M  END
>  <minimizedAffinity>
-4.40202093

$$$$

 OpenBabel03242516583D

 23 24  0  0  0  0  0  0  0  0999 V2000
   37.0230   25.9490   40.8330 C   0  0  0  0  0  0  0  0  0  0  0  0
   36.9530   24.6890   41.3580 C   0  0  0  0  0  0  0  0  0  0  0  0
   36.4470   23.6240   40.6580 C   0  0  0  0  0  0  0  0  0  0  0  0
   36.0000   23.8670   39.3810 C   0  0  0  0  0  0  0  0  0  0  0  0
   36.0390   25.1070   38.7900 C   0  0  0  0  0  0  0  0  0  0  0  0
   36.5720   26.1480   39.5690 C   0  0  0  0  0  0  0  0  0  0  0  0
   37.3100   24.4980   42.3740 H   0  0  0  0  0  0  0  0  0  0  0  0
   36.4180   22.6470   41.1290 H   0  0  0  0  0  0  0  0  0  0  0  0
   35.6000   23.0290   38.8270 H   0  0  0  0  0  0  0  0  0  0  0  0
   35.6750   25.2250   37.7960 H   0  0  0  0  0  0  0  0  0  0  0  0
   37.4670   28.7470   43.3290 C   0  0  0  0  0  0  0  0  0  0  0  0
   36.8030   27.7400   42.5720 C   0  0  0  0  0  0  0  0  0  0  0  0
   37.5770   27.0010   41.6620 C   0  0  0  0  0  0  0  0  0  0  0  0
   38.8850   27.2970   41.5730 N   0  0  0  0  0  0  0  0  0  0  0  0
   39.5000   28.2510   42.2950 C   0  0  0  0  0  0  0  0  0  0  0  0
   38.7880   28.9810   43.1780 N   0  0  0  0  0  0  0  0  0  0  0  0
   36.8390   29.3120   44.0350 H   0  0  0  0  0  0  0  0  0  0  0  0
   35.7650   27.5300   42.6660 H   0  0  0  0  0  0  0  0  0  0  0  0
   40.5560   28.4610   42.1960 H   0  0  0  0  0  0  0  0  0  0  0  0
   36.6270   27.4590   38.9790 C   0  0  0  0  0  3  0  0  0  0  0  0
   35.5730   28.2070   38.6940 C   0  0  0  0  0  3  0  0  0  0  0  0
   35.6060   29.5580   38.0870 C   0  0  0  0  0  2  0  0  0  0  0  0
   35.1900   30.2870   38.8060 H   0  0  0  0  0  0  0  0  0  0  0  0
  1  2  1  0  0  0  0
  1 13  1  0  0  0  0
  2  7  1  0  0  0  0
  3  8  1  0  0  0  0
  3  2  2  0  0  0  0
  4  3  1  0  0  0  0
  5  4  2  0  0  0  0
  5  6  1  0  0  0  0
  6  1  2  0  0  0  0
  9  4  1  0  0  0  0
 10  5  1  0  0  0  0
 11 17  1  0  0  0  0
 12 18  1  0  0  0  0
 12 11  2  0  0  0  0
 13 12  1  0  0  0  0
 14 13  2  0  0  0  0
 14 15  1  0  0  0  0
 15 16  2  0  0  0  0
 16 11  1  0  0  0  0
 19 15  1  0  0  0  0
 20  6  1  0  0  0  0
 21 20  2  0  0  0  0
 22 21  1  0  0  0  0
 22 23  1  0  0  0  0
M  END
>  <minimizedAffinity>
-4.28435612

$$$$

 OpenBabel03242516583D

 23 24  0  0  0  0  0  0  0  0999 V2000
   36.9190   26.9110   40.8890 C   0  0  0  0  0  0  0  0  0  0  0  0
   37.0960   26.2400   42.0660 C   0  0  0  0  0  0  0  0  0  0  0  0
   36.9850   24.8770   42.1630 C   0  0  0  0  0  0  0  0  0  0  0  0
   36.6830   24.1870   41.0130 C   0  0  0  0  0  0  0  0  0  0  0  0
   36.4910   24.7960   39.7970 C   0  0  0  0  0  0  0  0  0  0  0  0
   36.6220   26.1950   39.7750 C   0  0  0  0  0  0  0  0  0  0  0  0
   37.3370   26.7910   42.9790 H   0  0  0  0  0  0  0  0  0  0  0  0
   37.1380   24.4010   43.1270 H   0  0  0  0  0  0  0  0  0  0  0  0
   36.5950   23.1130   41.0870 H   0  0  0  0  0  0  0  0  0  0  0  0
   36.2590   24.2010   38.9440 H   0  0  0  0  0  0  0  0  0  0  0  0
   36.2350   30.6220   41.0150 C   0  0  0  0  0  0  0  0  0  0  0  0
   35.9640   29.2240   41.0150 C   0  0  0  0  0  0  0  0  0  0  0  0
   37.0600   28.3540   40.9010 C   0  0  0  0  0  0  0  0  0  0  0  0
   38.2830   28.9020   40.8020 N   0  0  0  0  0  0  0  0  0  0  0  0
   38.5260   30.2250   40.8030 C   0  0  0  0  0  0  0  0  0  0  0  0
   37.4970   31.0910   40.9110 N   0  0  0  0  0  0  0  0  0  0  0  0
   35.3590   31.2840   41.1050 H   0  0  0  0  0  0  0  0  0  0  0  0
   34.9820   28.8220   41.0950 H   0  0  0  0  0  0  0  0  0  0  0  0
   39.5250   30.6300   40.7220 H   0  0  0  0  0  0  0  0  0  0  0  0
   36.4270   26.8630   38.5160 C   0  0  0  0  0  3  0  0  0  0  0  0
   35.2570   27.0300   37.9190 C   0  0  0  0  0  3  0  0  0  0  0  0
   35.0340   27.7130   36.6240 C   0  0  0  0  0  2  0  0  0  0  0  0
   34.4110   28.6100   36.7920 H   0  0  0  0  0  0  0  0  0  0  0  0
  1 13  1  0  0  0  0
  1  2  1  0  0  0  0
  2  3  2  0  0  0  0
  2  7  1  0  0  0  0
  3  8  1  0  0  0  0
  4  9  1  0  0  0  0
  4  3  1  0  0  0  0
  5  4  2  0  0  0  0
  6  5  1  0  0  0  0
  6  1  2  0  0  0  0
 10  5  1  0  0  0  0
 11 17  1  0  0  0  0
 12 11  1  0  0  0  0
 12 18  1  0  0  0  0
 13 12  2  0  0  0  0
 14 15  2  0  0  0  0
 14 13  1  0  0  0  0
 15 16  1  0  0  0  0
 16 11  2  0  0  0  0
 19 15  1  0  0  0  0
 20  6  1  0  0  0  0
 21 20  2  0  0  0  0
 22 23  1  0  0  0  0
 22 21  1  0  0  0  0
M  END
>  <minimizedAffinity>
-4.28179836

$$$$

 OpenBabel03242516583D

 23 24  0  0  0  0  0  0  0  0999 V2000
   36.9570   28.2170   41.2520 C   0  0  0  0  0  0  0  0  0  0  0  0
   37.2600   29.2000   42.1510 C   0  0  0  0  0  0  0  0  0  0  0  0
   37.8210   28.9350   43.3750 C   0  0  0  0  0  0  0  0  0  0  0  0
   38.0750   27.6180   43.6770 C   0  0  0  0  0  0  0  0  0  0  0  0
   37.7950   26.5800   42.8220 C   0  0  0  0  0  0  0  0  0  0  0  0
   37.2220   26.9300   41.5880 C   0  0  0  0  0  0  0  0  0  0  0  0
   37.0580   30.2460   41.9080 H   0  0  0  0  0  0  0  0  0  0  0  0
   38.0400   29.7590   44.0460 H   0  0  0  0  0  0  0  0  0  0  0  0
   38.5160   27.4060   44.6400 H   0  0  0  0  0  0  0  0  0  0  0  0
   38.0180   25.5810   43.1200 H   0  0  0  0  0  0  0  0  0  0  0  0
   36.4340   29.3110   37.6760 C   0  0  0  0  0  0  0  0  0  0  0  0
   37.1340   28.9380   38.8590 C   0  0  0  0  0  0  0  0  0  0  0  0
   36.3660   28.6120   39.9880 C   0  0  0  0  0  0  0  0  0  0  0  0
   35.0290   28.6730   39.8710 N   0  0  0  0  0  0  0  0  0  0  0  0
   34.3790   29.0270   38.7470 C   0  0  0  0  0  0  0  0  0  0  0  0
   35.0840   29.3470   37.6430 N   0  0  0  0  0  0  0  0  0  0  0  0
   37.0580   29.5620   36.8050 H   0  0  0  0  0  0  0  0  0  0  0  0
   38.1960   28.9000   38.9190 H   0  0  0  0  0  0  0  0  0  0  0  0
   33.3010   29.0640   38.6900 H   0  0  0  0  0  0  0  0  0  0  0  0
   36.9180   25.8650   40.6690 C   0  0  0  0  0  3  0  0  0  0  0  0
   36.8000   24.5890   41.0000 C   0  0  0  0  0  3  0  0  0  0  0  0
   36.4870   23.4770   40.0720 C   0  0  0  0  0  2  0  0  0  0  0  0
   35.5180   23.0310   40.3570 H   0  0  0  0  0  0  0  0  0  0  0  0
  1  6  2  0  0  0  0
  1  2  1  0  0  0  0
  2  3  2  0  0  0  0
  3  4  1  0  0  0  0
  3  8  1  0  0  0  0
  4  9  1  0  0  0  0
  5 10  1  0  0  0  0
  5  4  2  0  0  0  0
  6  5  1  0  0  0  0
  7  2  1  0  0  0  0
 11 12  1  0  0  0  0
 12 18  1  0  0  0  0
 12 13  2  0  0  0  0
 13  1  1  0  0  0  0
 14 13  1  0  0  0  0
 15 14  2  0  0  0  0
 16 11  2  0  0  0  0
 16 15  1  0  0  0  0
 17 11  1  0  0  0  0
 19 15  1  0  0  0  0
 20 21  2  0  0  0  0
 20  6  1  0  0  0  0
 22 23  1  0  0  0  0
 22 21  1  0  0  0  0
M  END
>  <minimizedAffinity>
-4.27573347

$$$$
