
 OpenBabel03252508343D

 30 31  0  0  1  0  0  0  0  0999 V2000
   45.4290   34.4570   41.9820 N   0  0  0  0  0  0  0  0  0  0  0  0
   46.7370   34.1660   41.4610 C   0  0  1  0  0  0  0  0  0  0  0  0
   46.8170   34.0640   39.9890 C   0  0  0  0  0  0  0  0  0  0  0  0
   45.7100   33.5050   39.3450 N   0  0  0  0  0  0  0  0  0  0  0  0
   44.4480   33.6310   39.9060 C   0  0  0  0  0  0  0  0  0  0  0  0
   44.4300   34.6920   40.9930 C   0  0  0  0  0  0  0  0  0  0  0  0
   47.1420   33.2250   41.9350 H   0  0  0  0  0  0  0  0  0  0  0  0
   47.0220   35.0740   39.5730 H   0  0  0  0  0  0  0  0  0  0  0  0
   47.7320   33.4520   39.7490 H   0  0  0  0  0  0  0  0  0  0  0  0
   45.8320   33.0270   38.4650 H   0  0  0  0  0  0  0  0  0  0  0  0
   43.7100   33.9570   39.1410 H   0  0  0  0  0  0  0  0  0  0  0  0
   44.0060   32.6880   40.3330 H   0  0  0  0  0  0  0  0  0  0  0  0
   43.4320   34.6160   41.4910 H   0  0  0  0  0  0  0  0  0  0  0  0
   44.4600   35.7020   40.5290 H   0  0  0  0  0  0  0  0  0  0  0  0
   44.6330   35.5990   43.9160 C   0  0  0  0  0  0  0  0  0  0  0  0
   45.2650   34.4830   43.3790 C   0  0  0  0  0  0  0  0  0  0  0  0
   45.6940   33.4650   44.2570 C   0  0  0  0  0  0  0  0  0  0  0  0
   45.4770   33.6020   45.5950 N   0  0  0  0  0  0  0  0  0  0  0  0
   44.8620   34.6970   46.0770 C   0  0  0  0  0  0  0  0  0  0  0  0
   44.4440   35.6830   45.2670 N   0  0  0  0  0  0  0  0  0  0  0  0
   44.2680   36.4310   43.3330 H   0  0  0  0  0  0  0  0  0  0  0  0
   46.1680   32.6460   43.7630 H   0  0  0  0  0  0  0  0  0  0  0  0
   44.7250   34.7390   47.1570 H   0  0  0  0  0  0  0  0  0  0  0  0
   47.6770   35.2620   41.9210 C   0  0  0  0  0  0  0  0  0  0  0  0
   47.4470   35.6000   42.9560 H   0  0  0  0  0  0  0  0  0  0  0  0
   47.5470   36.1130   41.2380 H   0  0  0  0  0  0  0  0  0  0  0  0
   49.1010   34.8350   41.8330 C   0  0  0  0  0  3  0  0  0  0  0  0
   49.5860   33.7580   42.4310 C   0  0  0  0  0  3  0  0  0  0  0  0
   50.9900   33.3100   42.3630 C   0  0  0  0  0  2  0  0  0  0  0  0
   51.1970   32.6200   43.2070 H   0  0  0  0  0  0  0  0  0  0  0  0
  1 16  1  0  0  0  0
  2 24  1  0  0  0  0
  2  7  1  1  0  0  0
  2  1  1  0  0  0  0
  3  2  1  0  0  0  0
  4  5  1  0  0  0  0
  4  3  1  0  0  0  0
  5 12  1  0  0  0  0
  5  6  1  0  0  0  0
  6 13  1  0  0  0  0
  6  1  1  0  0  0  0
  8  3  1  0  0  0  0
  9  3  1  0  0  0  0
 10  4  1  0  0  0  0
 11  5  1  0  0  0  0
 14  6  1  0  0  0  0
 15 20  1  0  0  0  0
 16 15  2  0  0  0  0
 16 17  1  0  0  0  0
 17 18  2  0  0  0  0
 18 19  1  0  0  0  0
 19 23  1  0  0  0  0
 20 19  2  0  0  0  0
 21 15  1  0  0  0  0
 22 17  1  0  0  0  0
 24 25  1  0  0  0  0
 26 24  1  0  0  0  0
 27 24  1  0  0  0  0
 27 28  2  0  0  0  0
 29 28  1  0  0  0  0
 29 30  1  0  0  0  0
M  END
>  <minimizedAffinity>
-4.70790529

>  <minimizedRMSD>
0.455859423

$$$$
