
 OpenBabel03242517263D

 30 31  0  0  1  0  0  0  0  0999 V2000
   38.7580   26.1420   38.2860 C   0  0  0  0  0  0  0  0  0  0  0  0
   37.7150   25.2920   37.8200 C   0  0  0  0  0  0  0  0  0  0  0  0
   36.5450   25.2010   38.5960 C   0  0  0  0  0  0  0  0  0  0  0  0
   36.4820   25.9240   39.7350 N   0  0  0  0  0  0  0  0  0  0  0  0
   37.4750   26.7240   40.1660 C   0  0  0  0  0  0  0  0  0  0  0  0
   38.5920   26.8120   39.4270 N   0  0  0  0  0  0  0  0  0  0  0  0
   37.3180   27.4330   41.3570 N   0  0  0  0  0  0  0  0  0  0  0  0
   37.0650   26.7360   42.5830 C   0  0  0  0  0  0  0  0  0  0  0  0
   36.5410   27.6120   43.6770 C   0  0  0  0  0  0  0  0  0  0  0  0
   36.9880   28.9600   43.6790 N   0  0  0  0  0  0  0  0  0  0  0  0
   37.9740   29.2440   42.6800 C   0  0  0  0  0  0  0  0  0  0  0  0
   37.4160   28.8940   41.3320 C   0  0  2  0  0  0  0  0  0  0  0  0
   39.6770   26.2640   37.7530 H   0  0  0  0  0  0  0  0  0  0  0  0
   37.8490   24.7530   36.9040 H   0  0  0  0  0  0  0  0  0  0  0  0
   35.7380   24.5650   38.2660 H   0  0  0  0  0  0  0  0  0  0  0  0
   36.2780   25.9630   42.3600 H   0  0  0  0  0  0  0  0  0  0  0  0
   37.9510   26.1280   42.8910 H   0  0  0  0  0  0  0  0  0  0  0  0
   36.7750   27.0800   44.6420 H   0  0  0  0  0  0  0  0  0  0  0  0
   35.4200   27.6150   43.6330 H   0  0  0  0  0  0  0  0  0  0  0  0
   37.4370   29.1470   44.6200 H   0  0  0  0  0  0  0  0  0  0  0  0
   38.9350   28.7160   42.8280 H   0  0  0  0  0  0  0  0  0  0  0  0
   38.1790   30.3350   42.7000 H   0  0  0  0  0  0  0  0  0  0  0  0
   38.1360   29.1790   40.5630 H   0  0  0  0  0  0  0  0  0  0  0  0
   36.1030   29.5490   41.0650 C   0  0  0  0  0  0  0  0  0  0  0  0
   35.4530   29.4520   41.9630 H   0  0  0  0  0  0  0  0  0  0  0  0
   35.6340   29.1070   40.1770 H   0  0  0  0  0  0  0  0  0  0  0  0
   36.3640   30.9970   40.7540 C   0  0  0  0  0  3  0  0  0  0  0  0
   36.9280   31.3800   39.6220 C   0  0  0  0  0  3  0  0  0  0  0  0
   37.2120   32.8090   39.2620 C   0  0  0  0  0  2  0  0  0  0  0  0
   36.2730   33.2860   38.9360 H   0  0  0  0  0  0  0  0  0  0  0  0
  1  6  1  0  0  0  0
  2  1  2  0  0  0  0
  2  3  1  0  0  0  0
  3  4  2  0  0  0  0
  4  5  1  0  0  0  0
  5  7  1  0  0  0  0
  6  5  2  0  0  0  0
  7  8  1  0  0  0  0
  8 17  1  0  0  0  0
  8  9  1  0  0  0  0
  9 10  1  0  0  0  0
  9 18  1  0  0  0  0
 10 20  1  0  0  0  0
 11 22  1  0  0  0  0
 11 21  1  0  0  0  0
 11 10  1  0  0  0  0
 12 23  1  6  0  0  0
 12  7  1  0  0  0  0
 12 11  1  0  0  0  0
 13  1  1  0  0  0  0
 14  2  1  0  0  0  0
 15  3  1  0  0  0  0
 16  8  1  0  0  0  0
 19  9  1  0  0  0  0
 24 12  1  0  0  0  0
 24 25  1  0  0  0  0
 26 24  1  0  0  0  0
 27 24  1  0  0  0  0
 28 27  2  0  0  0  0
 29 28  1  0  0  0  0
 30 29  1  0  0  0  0
M  END
>  <minimizedAffinity>
-4.57728767

$$$$

 OpenBabel03242517263D

 30 31  0  0  1  0  0  0  0  0999 V2000
   37.9590   23.3220   41.0720 C   0  0  0  0  0  0  0  0  0  0  0  0
   38.8030   23.3420   39.9250 C   0  0  0  0  0  0  0  0  0  0  0  0
   39.2150   24.5950   39.4350 C   0  0  0  0  0  0  0  0  0  0  0  0
   38.7870   25.7010   40.0820 N   0  0  0  0  0  0  0  0  0  0  0  0
   37.9880   25.6690   41.1650 C   0  0  0  0  0  0  0  0  0  0  0  0
   37.5930   24.4750   41.6340 N   0  0  0  0  0  0  0  0  0  0  0  0
   37.5960   26.8660   41.7660 N   0  0  0  0  0  0  0  0  0  0  0  0
   36.8830   27.8510   41.0100 C   0  0  0  0  0  0  0  0  0  0  0  0
   36.8730   29.2060   41.6450 C   0  0  0  0  0  0  0  0  0  0  0  0
   36.8900   29.2410   43.0650 N   0  0  0  0  0  0  0  0  0  0  0  0
   36.8000   27.9490   43.6770 C   0  0  0  0  0  0  0  0  0  0  0  0
   37.9260   27.0940   43.1740 C   0  0  2  0  0  0  0  0  0  0  0  0
   37.6030   22.4090   41.5030 H   0  0  0  0  0  0  0  0  0  0  0  0
   39.0960   22.4170   39.4740 H   0  0  0  0  0  0  0  0  0  0  0  0
   39.8560   24.6420   38.5680 H   0  0  0  0  0  0  0  0  0  0  0  0
   37.4090   27.9450   40.0200 H   0  0  0  0  0  0  0  0  0  0  0  0
   35.8630   27.4870   40.7330 H   0  0  0  0  0  0  0  0  0  0  0  0
   35.9850   29.7480   41.2120 H   0  0  0  0  0  0  0  0  0  0  0  0
   37.7560   29.7880   41.2710 H   0  0  0  0  0  0  0  0  0  0  0  0
   36.0440   29.7930   43.3820 H   0  0  0  0  0  0  0  0  0  0  0  0
   35.8390   27.4300   43.5030 H   0  0  0  0  0  0  0  0  0  0  0  0
   36.9230   28.0790   44.7730 H   0  0  0  0  0  0  0  0  0  0  0  0
   37.9040   26.1350   43.6950 H   0  0  0  0  0  0  0  0  0  0  0  0
   39.2610   27.7370   43.3500 C   0  0  0  0  0  0  0  0  0  0  0  0
   39.2050   28.4810   44.1750 H   0  0  0  0  0  0  0  0  0  0  0  0
   39.5850   28.1990   42.4100 H   0  0  0  0  0  0  0  0  0  0  0  0
   40.2540   26.6560   43.6790 C   0  0  0  0  0  3  0  0  0  0  0  0
   41.1990   26.2910   42.8300 C   0  0  0  0  0  3  0  0  0  0  0  0
   42.2130   25.2210   43.1070 C   0  0  0  0  0  2  0  0  0  0  0  0
   42.9910   25.6310   43.7710 H   0  0  0  0  0  0  0  0  0  0  0  0
  1 13  1  0  0  0  0
  1  6  1  0  0  0  0
  2  1  2  0  0  0  0
  3  2  1  0  0  0  0
  3  4  2  0  0  0  0
  4  5  1  0  0  0  0
  5  6  2  0  0  0  0
  5  7  1  0  0  0  0
  7 12  1  0  0  0  0
  8  9  1  0  0  0  0
  8  7  1  0  0  0  0
  9 10  1  0  0  0  0
 10 20  1  0  0  0  0
 10 11  1  0  0  0  0
 11 22  1  0  0  0  0
 12 24  1  0  0  0  0
 12 11  1  0  0  0  0
 12 23  1  1  0  0  0
 14  2  1  0  0  0  0
 15  3  1  0  0  0  0
 16  8  1  0  0  0  0
 17  8  1  0  0  0  0
 18  9  1  0  0  0  0
 19  9  1  0  0  0  0
 21 11  1  0  0  0  0
 24 27  1  0  0  0  0
 24 25  1  0  0  0  0
 26 24  1  0  0  0  0
 28 29  1  0  0  0  0
 28 27  2  0  0  0  0
 29 30  1  0  0  0  0
M  END
>  <minimizedAffinity>
-4.46054888

$$$$

 OpenBabel03242517263D

 30 31  0  0  1  0  0  0  0  0999 V2000
   39.0560   27.4220   41.8320 C   0  0  0  0  0  0  0  0  0  0  0  0
   38.2300   27.4290   42.9910 C   0  0  0  0  0  0  0  0  0  0  0  0
   37.5810   28.6310   43.3290 C   0  0  0  0  0  0  0  0  0  0  0  0
   37.7810   29.7040   42.5330 N   0  0  0  0  0  0  0  0  0  0  0  0
   38.5650   29.6850   41.4390 C   0  0  0  0  0  0  0  0  0  0  0  0
   39.1850   28.5390   41.1150 N   0  0  0  0  0  0  0  0  0  0  0  0
   38.7120   30.8450   40.6770 N   0  0  0  0  0  0  0  0  0  0  0  0
   39.2210   32.0420   41.2780 C   0  0  0  0  0  0  0  0  0  0  0  0
   38.9620   33.2770   40.4740 C   0  0  0  0  0  0  0  0  0  0  0  0
   38.9310   33.1200   39.0620 N   0  0  0  0  0  0  0  0  0  0  0  0
   39.2710   31.8010   38.6190 C   0  0  0  0  0  0  0  0  0  0  0  0
   38.3370   30.8170   39.2620 C   0  0  2  0  0  0  0  0  0  0  0  0
   39.5820   26.5470   41.5110 H   0  0  0  0  0  0  0  0  0  0  0  0
   38.1270   26.5320   43.5670 H   0  0  0  0  0  0  0  0  0  0  0  0
   36.9480   28.6670   44.2020 H   0  0  0  0  0  0  0  0  0  0  0  0
   38.6920   32.1610   42.2640 H   0  0  0  0  0  0  0  0  0  0  0  0
   40.2940   31.9220   41.5680 H   0  0  0  0  0  0  0  0  0  0  0  0
   39.7280   34.0330   40.8060 H   0  0  0  0  0  0  0  0  0  0  0  0
   37.9830   33.7210   40.7980 H   0  0  0  0  0  0  0  0  0  0  0  0
   39.6510   33.7790   38.6520 H   0  0  0  0  0  0  0  0  0  0  0  0
   40.3160   31.5060   38.8290 H   0  0  0  0  0  0  0  0  0  0  0  0
   39.1190   31.7580   37.5200 H   0  0  0  0  0  0  0  0  0  0  0  0
   38.5440   29.8200   38.8690 H   0  0  0  0  0  0  0  0  0  0  0  0
   36.9010   31.1600   39.0460 C   0  0  0  0  0  0  0  0  0  0  0  0
   36.8320   32.1180   38.4850 H   0  0  0  0  0  0  0  0  0  0  0  0
   36.3770   31.2140   40.0070 H   0  0  0  0  0  0  0  0  0  0  0  0
   36.2730   30.0410   38.2600 C   0  0  0  0  0  3  0  0  0  0  0  0
   35.3160   29.2820   38.7650 C   0  0  0  0  0  3  0  0  0  0  0  0
   34.6570   28.1550   38.0260 C   0  0  0  0  0  2  0  0  0  0  0  0
   33.9260   28.5740   37.3150 H   0  0  0  0  0  0  0  0  0  0  0  0
  1  2  1  0  0  0  0
  2  3  2  0  0  0  0
  2 14  1  0  0  0  0
  3 15  1  0  0  0  0
  4  3  1  0  0  0  0
  5  4  2  0  0  0  0
  6  5  1  0  0  0  0
  6  1  2  0  0  0  0
  7  8  1  0  0  0  0
  7  5  1  0  0  0  0
  8 17  1  0  0  0  0
  8 16  1  0  0  0  0
  9 19  1  0  0  0  0
  9 18  1  0  0  0  0
  9  8  1  0  0  0  0
 10  9  1  0  0  0  0
 11 21  1  0  0  0  0
 11 10  1  0  0  0  0
 11 12  1  0  0  0  0
 12 23  1  6  0  0  0
 12  7  1  0  0  0  0
 13  1  1  0  0  0  0
 20 10  1  0  0  0  0
 22 11  1  0  0  0  0
 24 12  1  0  0  0  0
 24 26  1  0  0  0  0
 25 24  1  0  0  0  0
 27 28  2  0  0  0  0
 27 24  1  0  0  0  0
 29 28  1  0  0  0  0
 30 29  1  0  0  0  0
M  END
>  <minimizedAffinity>
-4.43196964

$$$$

 OpenBabel03242517263D

 30 31  0  0  1  0  0  0  0  0999 V2000
   39.7330   26.8270   38.3510 C   0  0  0  0  0  0  0  0  0  0  0  0
   41.0550   27.1340   38.7790 C   0  0  0  0  0  0  0  0  0  0  0  0
   41.2230   28.2000   39.6820 C   0  0  0  0  0  0  0  0  0  0  0  0
   40.1210   28.8670   40.0880 N   0  0  0  0  0  0  0  0  0  0  0  0
   38.8750   28.5670   39.6760 C   0  0  0  0  0  0  0  0  0  0  0  0
   38.7130   27.5510   38.8150 N   0  0  0  0  0  0  0  0  0  0  0  0
   37.7950   29.3130   40.1510 N   0  0  0  0  0  0  0  0  0  0  0  0
   37.7500   30.7290   39.9390 C   0  0  0  0  0  0  0  0  0  0  0  0
   36.7660   31.4380   40.8150 C   0  0  0  0  0  0  0  0  0  0  0  0
   35.5990   30.7120   41.1760 N   0  0  0  0  0  0  0  0  0  0  0  0
   35.4940   29.4330   40.5390 C   0  0  0  0  0  0  0  0  0  0  0  0
   36.7170   28.6270   40.8650 C   0  0  2  0  0  0  0  0  0  0  0  0
   39.5240   26.0320   37.6660 H   0  0  0  0  0  0  0  0  0  0  0  0
   41.8750   26.5540   38.4060 H   0  0  0  0  0  0  0  0  0  0  0  0
   42.2140   28.4560   40.0240 H   0  0  0  0  0  0  0  0  0  0  0  0
   38.7730   31.1270   40.1860 H   0  0  0  0  0  0  0  0  0  0  0  0
   37.6280   30.9710   38.8540 H   0  0  0  0  0  0  0  0  0  0  0  0
   36.5260   32.4080   40.2960 H   0  0  0  0  0  0  0  0  0  0  0  0
   37.2850   31.7560   41.7590 H   0  0  0  0  0  0  0  0  0  0  0  0
   34.7610   31.2810   40.8670 H   0  0  0  0  0  0  0  0  0  0  0  0
   35.3680   29.4810   39.4410 H   0  0  0  0  0  0  0  0  0  0  0  0
   34.6100   28.9110   40.9610 H   0  0  0  0  0  0  0  0  0  0  0  0
   36.6060   27.6260   40.4440 H   0  0  0  0  0  0  0  0  0  0  0  0
   36.9730   28.5350   42.3320 C   0  0  0  0  0  0  0  0  0  0  0  0
   36.1870   29.1000   42.8790 H   0  0  0  0  0  0  0  0  0  0  0  0
   37.9770   28.9100   42.5640 H   0  0  0  0  0  0  0  0  0  0  0  0
   36.9430   27.0810   42.7150 C   0  0  0  0  0  3  0  0  0  0  0  0
   37.0580   26.1170   41.8180 C   0  0  0  0  0  3  0  0  0  0  0  0
   37.0340   24.6530   42.1460 C   0  0  0  0  0  2  0  0  0  0  0  0
   38.0160   24.3650   42.5570 H   0  0  0  0  0  0  0  0  0  0  0  0
  1  2  2  0  0  0  0
  1  6  1  0  0  0  0
  2  3  1  0  0  0  0
  3 15  1  0  0  0  0
  3  4  2  0  0  0  0
  5  4  1  0  0  0  0
  5  7  1  0  0  0  0
  6  5  2  0  0  0  0
  7 12  1  0  0  0  0
  8  7  1  0  0  0  0
  8 16  1  0  0  0  0
  8  9  1  0  0  0  0
  9 10  1  0  0  0  0
  9 19  1  0  0  0  0
 11 12  1  0  0  0  0
 11 22  1  0  0  0  0
 11 10  1  0  0  0  0
 12 23  1  6  0  0  0
 12 24  1  0  0  0  0
 13  1  1  0  0  0  0
 14  2  1  0  0  0  0
 17  8  1  0  0  0  0
 18  9  1  0  0  0  0
 20 10  1  0  0  0  0
 21 11  1  0  0  0  0
 24 26  1  0  0  0  0
 24 27  1  0  0  0  0
 24 25  1  0  0  0  0
 28 29  1  0  0  0  0
 28 27  2  0  0  0  0
 29 30  1  0  0  0  0
M  END
>  <minimizedAffinity>
-4.42769527

$$$$

 OpenBabel03242517263D

 30 31  0  0  1  0  0  0  0  0999 V2000
   37.9030   28.3400   43.4740 C   0  0  0  0  0  0  0  0  0  0  0  0
   39.2560   27.9850   43.2100 C   0  0  0  0  0  0  0  0  0  0  0  0
   39.6150   27.7070   41.8780 C   0  0  0  0  0  0  0  0  0  0  0  0
   38.6540   27.7940   40.9320 N   0  0  0  0  0  0  0  0  0  0  0  0
   37.3780   28.1300   41.1940 C   0  0  0  0  0  0  0  0  0  0  0  0
   37.0340   28.3960   42.4640 N   0  0  0  0  0  0  0  0  0  0  0  0
   36.4550   28.1930   40.1500 N   0  0  0  0  0  0  0  0  0  0  0  0
   36.2040   27.0390   39.3390 C   0  0  0  0  0  0  0  0  0  0  0  0
   35.5090   27.3470   38.0500 C   0  0  0  0  0  0  0  0  0  0  0  0
   34.6080   28.4460   38.0630 N   0  0  0  0  0  0  0  0  0  0  0  0
   34.4190   29.0240   39.3590 C   0  0  0  0  0  0  0  0  0  0  0  0
   35.7520   29.4530   39.8990 C   0  0  2  0  0  0  0  0  0  0  0  0
   37.5540   28.5650   44.4600 H   0  0  0  0  0  0  0  0  0  0  0  0
   39.9540   27.9400   44.0210 H   0  0  0  0  0  0  0  0  0  0  0  0
   40.6330   27.4360   41.6470 H   0  0  0  0  0  0  0  0  0  0  0  0
   37.2070   26.5950   39.0870 H   0  0  0  0  0  0  0  0  0  0  0  0
   35.7010   26.2340   39.9290 H   0  0  0  0  0  0  0  0  0  0  0  0
   35.0160   26.3890   37.7240 H   0  0  0  0  0  0  0  0  0  0  0  0
   36.2820   27.5390   37.2590 H   0  0  0  0  0  0  0  0  0  0  0  0
   33.6640   28.0880   37.7430 H   0  0  0  0  0  0  0  0  0  0  0  0
   33.9260   28.3540   40.0880 H   0  0  0  0  0  0  0  0  0  0  0  0
   33.7840   29.9270   39.2420 H   0  0  0  0  0  0  0  0  0  0  0  0
   35.6030   29.9620   40.8530 H   0  0  0  0  0  0  0  0  0  0  0  0
   36.4950   30.3430   38.9590 C   0  0  0  0  0  0  0  0  0  0  0  0
   35.8480   30.5760   38.0850 H   0  0  0  0  0  0  0  0  0  0  0  0
   37.4350   29.8680   38.6530 H   0  0  0  0  0  0  0  0  0  0  0  0
   36.8550   31.6000   39.7020 C   0  0  0  0  0  3  0  0  0  0  0  0
   37.2940   32.6800   39.0800 C   0  0  0  0  0  3  0  0  0  0  0  0
   37.6670   33.9580   39.7710 C   0  0  0  0  0  2  0  0  0  0  0  0
   36.7450   34.5040   40.0310 H   0  0  0  0  0  0  0  0  0  0  0  0
  1 13  1  0  0  0  0
  2  1  1  0  0  0  0
  2 14  1  0  0  0  0
  3  2  2  0  0  0  0
  4  5  2  0  0  0  0
  4  3  1  0  0  0  0
  5  6  1  0  0  0  0
  6  1  2  0  0  0  0
  7  5  1  0  0  0  0
  8 17  1  0  0  0  0
  8  7  1  0  0  0  0
  9 10  1  0  0  0  0
  9  8  1  0  0  0  0
 10 11  1  0  0  0  0
 11 12  1  0  0  0  0
 11 21  1  0  0  0  0
 12  7  1  0  0  0  0
 12 23  1  1  0  0  0
 15  3  1  0  0  0  0
 16  8  1  0  0  0  0
 18  9  1  0  0  0  0
 19  9  1  0  0  0  0
 20 10  1  0  0  0  0
 22 11  1  0  0  0  0
 24 27  1  0  0  0  0
 24 12  1  0  0  0  0
 25 24  1  0  0  0  0
 26 24  1  0  0  0  0
 28 27  2  0  0  0  0
 28 29  1  0  0  0  0
 29 30  1  0  0  0  0
M  END
>  <minimizedAffinity>
-4.3001256

$$$$

 OpenBabel03242517263D

 30 31  0  0  1  0  0  0  0  0999 V2000
   40.5020   27.4750   38.5570 C   0  0  0  0  0  0  0  0  0  0  0  0
   41.7330   28.1860   38.6440 C   0  0  0  0  0  0  0  0  0  0  0  0
   41.7160   29.4570   39.2480 C   0  0  0  0  0  0  0  0  0  0  0  0
   40.5350   29.9240   39.7090 N   0  0  0  0  0  0  0  0  0  0  0  0
   39.3780   29.2420   39.6200 C   0  0  0  0  0  0  0  0  0  0  0  0
   39.3920   28.0300   39.0430 N   0  0  0  0  0  0  0  0  0  0  0  0
   38.2060   29.8070   40.1240 N   0  0  0  0  0  0  0  0  0  0  0  0
   37.7430   31.0690   39.6280 C   0  0  0  0  0  0  0  0  0  0  0  0
   36.7250   31.7250   40.5060 C   0  0  0  0  0  0  0  0  0  0  0  0
   35.8620   30.8610   41.2320 N   0  0  0  0  0  0  0  0  0  0  0  0
   36.0330   29.4740   40.9160 C   0  0  0  0  0  0  0  0  0  0  0  0
   37.4630   29.0920   41.1640 C   0  0  2  0  0  0  0  0  0  0  0  0
   40.4340   26.5050   38.1110 H   0  0  0  0  0  0  0  0  0  0  0  0
   42.6240   27.7410   38.2530 H   0  0  0  0  0  0  0  0  0  0  0  0
   42.6330   30.0190   39.3300 H   0  0  0  0  0  0  0  0  0  0  0  0
   38.6390   31.7480   39.5810 H   0  0  0  0  0  0  0  0  0  0  0  0
   37.4180   30.9880   38.5610 H   0  0  0  0  0  0  0  0  0  0  0  0
   36.1600   32.4430   39.8480 H   0  0  0  0  0  0  0  0  0  0  0  0
   37.2540   32.3880   41.2410 H   0  0  0  0  0  0  0  0  0  0  0  0
   34.8660   31.1160   40.9780 H   0  0  0  0  0  0  0  0  0  0  0  0
   35.7560   29.2070   39.8800 H   0  0  0  0  0  0  0  0  0  0  0  0
   35.3910   28.8840   41.6040 H   0  0  0  0  0  0  0  0  0  0  0  0
   37.5790   28.0200   40.9960 H   0  0  0  0  0  0  0  0  0  0  0  0
   37.9240   29.4440   42.5380 C   0  0  0  0  0  0  0  0  0  0  0  0
   37.1070   29.9740   43.0760 H   0  0  0  0  0  0  0  0  0  0  0  0
   38.8360   30.0510   42.4870 H   0  0  0  0  0  0  0  0  0  0  0  0
   38.2810   28.1660   43.2460 C   0  0  0  0  0  3  0  0  0  0  0  0
   39.4090   27.5220   43.0030 C   0  0  0  0  0  3  0  0  0  0  0  0
   39.8140   26.2450   43.6790 C   0  0  0  0  0  2  0  0  0  0  0  0
   40.1860   26.4810   44.6900 H   0  0  0  0  0  0  0  0  0  0  0  0
  1  2  2  0  0  0  0
  1  6  1  0  0  0  0
  2  3  1  0  0  0  0
  3 15  1  0  0  0  0
  3  4  2  0  0  0  0
  5  4  1  0  0  0  0
  5  7  1  0  0  0  0
  6  5  2  0  0  0  0
  7 12  1  0  0  0  0
  8  7  1  0  0  0  0
  8  9  1  0  0  0  0
  9 10  1  0  0  0  0
  9 19  1  0  0  0  0
 11 12  1  0  0  0  0
 11 10  1  0  0  0  0
 11 22  1  0  0  0  0
 12 23  1  6  0  0  0
 12 24  1  0  0  0  0
 13  1  1  0  0  0  0
 14  2  1  0  0  0  0
 16  8  1  0  0  0  0
 17  8  1  0  0  0  0
 18  9  1  0  0  0  0
 20 10  1  0  0  0  0
 21 11  1  0  0  0  0
 24 25  1  0  0  0  0
 24 27  1  0  0  0  0
 26 24  1  0  0  0  0
 28 27  2  0  0  0  0
 28 29  1  0  0  0  0
 29 30  1  0  0  0  0
M  END
>  <minimizedAffinity>
-4.25743771

$$$$

 OpenBabel03242517263D

 30 31  0  0  1  0  0  0  0  0999 V2000
   40.7230   25.5420   39.7080 C   0  0  0  0  0  0  0  0  0  0  0  0
   39.9150   24.5200   39.1350 C   0  0  0  0  0  0  0  0  0  0  0  0
   38.5590   24.4680   39.5060 C   0  0  0  0  0  0  0  0  0  0  0  0
   38.1060   25.3910   40.3820 N   0  0  0  0  0  0  0  0  0  0  0  0
   38.8800   26.3530   40.9180 C   0  0  0  0  0  0  0  0  0  0  0  0
   40.1740   26.4040   40.5660 N   0  0  0  0  0  0  0  0  0  0  0  0
   38.3220   27.2630   41.8170 N   0  0  0  0  0  0  0  0  0  0  0  0
   37.7030   26.7980   43.0220 C   0  0  0  0  0  0  0  0  0  0  0  0
   36.8260   27.8160   43.6800 C   0  0  0  0  0  0  0  0  0  0  0  0
   37.2080   29.1760   43.5280 N   0  0  0  0  0  0  0  0  0  0  0  0
   38.4580   29.3540   42.8520 C   0  0  0  0  0  0  0  0  0  0  0  0
   38.3810   28.6930   41.5070 C   0  0  2  0  0  0  0  0  0  0  0  0
   41.7620   25.6460   39.4760 H   0  0  0  0  0  0  0  0  0  0  0  0
   40.3560   23.8270   38.4470 H   0  0  0  0  0  0  0  0  0  0  0  0
   37.9220   23.7050   39.0860 H   0  0  0  0  0  0  0  0  0  0  0  0
   37.0540   25.9240   42.7370 H   0  0  0  0  0  0  0  0  0  0  0  0
   38.4570   26.3520   43.7160 H   0  0  0  0  0  0  0  0  0  0  0  0
   36.7460   27.5090   44.7600 H   0  0  0  0  0  0  0  0  0  0  0  0
   35.7810   27.7020   43.2870 H   0  0  0  0  0  0  0  0  0  0  0  0
   37.3200   29.5860   44.4980 H   0  0  0  0  0  0  0  0  0  0  0  0
   39.3330   28.9610   43.4040 H   0  0  0  0  0  0  0  0  0  0  0  0
   38.6130   30.4420   42.6980 H   0  0  0  0  0  0  0  0  0  0  0  0
   39.3040   28.8910   40.9600 H   0  0  0  0  0  0  0  0  0  0  0  0
   37.2080   29.1520   40.7060 C   0  0  0  0  0  0  0  0  0  0  0  0
   36.3430   29.3210   41.3850 H   0  0  0  0  0  0  0  0  0  0  0  0
   36.9730   28.4180   39.9260 H   0  0  0  0  0  0  0  0  0  0  0  0
   37.5950   30.4290   40.0120 C   0  0  0  0  0  3  0  0  0  0  0  0
   36.9080   31.5470   40.1690 C   0  0  0  0  0  3  0  0  0  0  0  0
   37.2490   32.8470   39.5010 C   0  0  0  0  0  2  0  0  0  0  0  0
   38.0940   33.3110   40.0370 H   0  0  0  0  0  0  0  0  0  0  0  0
  1  6  1  0  0  0  0
  2  3  1  0  0  0  0
  2  1  2  0  0  0  0
  3  4  2  0  0  0  0
  4  5  1  0  0  0  0
  5  7  1  0  0  0  0
  6  5  2  0  0  0  0
  7  8  1  0  0  0  0
  8  9  1  0  0  0  0
  8 17  1  0  0  0  0
  9 18  1  0  0  0  0
 10  9  1  0  0  0  0
 10 20  1  0  0  0  0
 11 21  1  0  0  0  0
 11 10  1  0  0  0  0
 12 23  1  6  0  0  0
 12  7  1  0  0  0  0
 12 11  1  0  0  0  0
 13  1  1  0  0  0  0
 14  2  1  0  0  0  0
 15  3  1  0  0  0  0
 16  8  1  0  0  0  0
 19  9  1  0  0  0  0
 22 11  1  0  0  0  0
 24 25  1  0  0  0  0
 24 12  1  0  0  0  0
 26 24  1  0  0  0  0
 27 28  2  0  0  0  0
 27 24  1  0  0  0  0
 29 30  1  0  0  0  0
 29 28  1  0  0  0  0
M  END
>  <minimizedAffinity>
-4.24618435

$$$$

 OpenBabel03242517263D

 30 31  0  0  1  0  0  0  0  0999 V2000
   38.6480   25.5230   38.4160 C   0  0  0  0  0  0  0  0  0  0  0  0
   37.7740   24.4040   38.3080 C   0  0  0  0  0  0  0  0  0  0  0  0
   36.7510   24.2750   39.2650 C   0  0  0  0  0  0  0  0  0  0  0  0
   36.6590   25.2180   40.2270 N   0  0  0  0  0  0  0  0  0  0  0  0
   37.4920   26.2710   40.3200 C   0  0  0  0  0  0  0  0  0  0  0  0
   38.4690   26.3970   39.4080 N   0  0  0  0  0  0  0  0  0  0  0  0
   37.3200   27.1960   41.3510 N   0  0  0  0  0  0  0  0  0  0  0  0
   37.3710   26.7680   42.7170 C   0  0  0  0  0  0  0  0  0  0  0  0
   36.7950   27.7590   43.6800 C   0  0  0  0  0  0  0  0  0  0  0  0
   36.9270   29.1310   43.3340 N   0  0  0  0  0  0  0  0  0  0  0  0
   37.7040   29.3570   42.1520 C   0  0  0  0  0  0  0  0  0  0  0  0
   37.0860   28.6010   41.0120 C   0  0  2  0  0  0  0  0  0  0  0  0
   39.4490   25.6910   37.7280 H   0  0  0  0  0  0  0  0  0  0  0  0
   37.9180   23.7030   37.5120 H   0  0  0  0  0  0  0  0  0  0  0  0
   36.0730   23.4370   39.2070 H   0  0  0  0  0  0  0  0  0  0  0  0
   36.7550   25.8300   42.7870 H   0  0  0  0  0  0  0  0  0  0  0  0
   38.3990   26.4310   42.9960 H   0  0  0  0  0  0  0  0  0  0  0  0
   37.2500   27.5220   44.6820 H   0  0  0  0  0  0  0  0  0  0  0  0
   35.7030   27.5370   43.8170 H   0  0  0  0  0  0  0  0  0  0  0  0
   37.4280   29.6140   44.1310 H   0  0  0  0  0  0  0  0  0  0  0  0
   38.7690   29.0720   42.2470 H   0  0  0  0  0  0  0  0  0  0  0  0
   37.6610   30.4410   41.9150 H   0  0  0  0  0  0  0  0  0  0  0  0
   37.6320   28.8310   40.0950 H   0  0  0  0  0  0  0  0  0  0  0  0
   35.6380   28.9120   40.8330 C   0  0  0  0  0  0  0  0  0  0  0  0
   35.3830   29.8270   41.4120 H   0  0  0  0  0  0  0  0  0  0  0  0
   35.0270   28.0540   41.1410 H   0  0  0  0  0  0  0  0  0  0  0  0
   35.3910   29.1280   39.3650 C   0  0  0  0  0  3  0  0  0  0  0  0
   36.3700   29.4110   38.5240 C   0  0  0  0  0  3  0  0  0  0  0  0
   36.1790   29.6360   37.0530 C   0  0  0  0  0  2  0  0  0  0  0  0
   36.0580   28.6590   36.5560 H   0  0  0  0  0  0  0  0  0  0  0  0
  1  6  1  0  0  0  0
  2  1  2  0  0  0  0
  2  3  1  0  0  0  0
  3  4  2  0  0  0  0
  4  5  1  0  0  0  0
  5  7  1  0  0  0  0
  6  5  2  0  0  0  0
  7  8  1  0  0  0  0
  8 16  1  0  0  0  0
  8 17  1  0  0  0  0
  8  9  1  0  0  0  0
  9 19  1  0  0  0  0
  9 18  1  0  0  0  0
 10  9  1  0  0  0  0
 10 20  1  0  0  0  0
 11 21  1  0  0  0  0
 11 10  1  0  0  0  0
 12 23  1  6  0  0  0
 12  7  1  0  0  0  0
 12 11  1  0  0  0  0
 13  1  1  0  0  0  0
 14  2  1  0  0  0  0
 15  3  1  0  0  0  0
 22 11  1  0  0  0  0
 24 12  1  0  0  0  0
 24 26  1  0  0  0  0
 24 25  1  0  0  0  0
 27 24  1  0  0  0  0
 28 27  2  0  0  0  0
 29 28  1  0  0  0  0
 30 29  1  0  0  0  0
M  END
>  <minimizedAffinity>
-4.23911667

$$$$

 OpenBabel03242517263D

 30 31  0  0  1  0  0  0  0  0999 V2000
   40.1910   28.2790   37.1710 C   0  0  0  0  0  0  0  0  0  0  0  0
   41.4250   28.9070   36.8380 C   0  0  0  0  0  0  0  0  0  0  0  0
   41.6260   30.2310   37.2700 C   0  0  0  0  0  0  0  0  0  0  0  0
   40.6380   30.8250   37.9730 N   0  0  0  0  0  0  0  0  0  0  0  0
   39.4760   30.2210   38.2810 C   0  0  0  0  0  0  0  0  0  0  0  0
   39.2810   28.9590   37.8710 N   0  0  0  0  0  0  0  0  0  0  0  0
   38.5120   30.9170   39.0130 N   0  0  0  0  0  0  0  0  0  0  0  0
   37.9810   32.1510   38.5140 C   0  0  0  0  0  0  0  0  0  0  0  0
   37.2720   32.9640   39.5510 C   0  0  0  0  0  0  0  0  0  0  0  0
   36.6100   32.2420   40.5800 N   0  0  0  0  0  0  0  0  0  0  0  0
   36.6310   30.8220   40.3960 C   0  0  0  0  0  0  0  0  0  0  0  0
   38.0580   30.3670   40.2910 C   0  0  2  0  0  0  0  0  0  0  0  0
   39.9640   27.2750   36.8790 H   0  0  0  0  0  0  0  0  0  0  0  0
   42.1550   28.3610   36.2760 H   0  0  0  0  0  0  0  0  0  0  0  0
   42.5520   30.7320   37.0330 H   0  0  0  0  0  0  0  0  0  0  0  0
   38.8550   32.7560   38.1470 H   0  0  0  0  0  0  0  0  0  0  0  0
   37.3700   31.9830   37.5920 H   0  0  0  0  0  0  0  0  0  0  0  0
   36.5760   33.6490   38.9890 H   0  0  0  0  0  0  0  0  0  0  0  0
   38.0090   33.6600   40.0310 H   0  0  0  0  0  0  0  0  0  0  0  0
   35.5930   32.5400   40.5750 H   0  0  0  0  0  0  0  0  0  0  0  0
   36.0680   30.4700   39.5120 H   0  0  0  0  0  0  0  0  0  0  0  0
   36.1810   30.3530   41.2960 H   0  0  0  0  0  0  0  0  0  0  0  0
   38.0800   29.2780   40.2270 H   0  0  0  0  0  0  0  0  0  0  0  0
   38.8940   30.8250   41.4390 C   0  0  0  0  0  0  0  0  0  0  0  0
   38.5700   31.8430   41.7480 H   0  0  0  0  0  0  0  0  0  0  0  0
   39.9560   30.8050   41.1640 H   0  0  0  0  0  0  0  0  0  0  0  0
   38.7080   29.8460   42.5650 C   0  0  0  0  0  3  0  0  0  0  0  0
   38.8660   28.5450   42.3950 C   0  0  0  0  0  3  0  0  0  0  0  0
   38.6930   27.5260   43.4830 C   0  0  0  0  0  2  0  0  0  0  0  0
   39.5900   27.5340   44.1240 H   0  0  0  0  0  0  0  0  0  0  0  0
  1  6  1  0  0  0  0
  2  1  2  0  0  0  0
  2  3  1  0  0  0  0
  3  4  2  0  0  0  0
  4  5  1  0  0  0  0
  5  7  1  0  0  0  0
  6  5  2  0  0  0  0
  7 12  1  0  0  0  0
  8  7  1  0  0  0  0
  8  9  1  0  0  0  0
  9 19  1  0  0  0  0
  9 10  1  0  0  0  0
 11 10  1  0  0  0  0
 11 22  1  0  0  0  0
 12 23  1  6  0  0  0
 12 11  1  0  0  0  0
 12 24  1  0  0  0  0
 13  1  1  0  0  0  0
 14  2  1  0  0  0  0
 15  3  1  0  0  0  0
 16  8  1  0  0  0  0
 17  8  1  0  0  0  0
 18  9  1  0  0  0  0
 20 10  1  0  0  0  0
 21 11  1  0  0  0  0
 24 25  1  0  0  0  0
 24 27  1  0  0  0  0
 26 24  1  0  0  0  0
 28 27  2  0  0  0  0
 28 29  1  0  0  0  0
 29 30  1  0  0  0  0
M  END
>  <minimizedAffinity>
-4.23577738

$$$$
