
 OpenBabel03242519323D

 43 45  0  0  0  0  0  0  0  0999 V2000
   47.9150   33.8380   42.8500 C   0  0  0  0  0  0  0  0  0  0  0  0
   48.5780   35.0850   42.6470 C   0  0  0  0  0  0  0  0  0  0  0  0
   49.9430   35.1050   42.3360 C   0  0  0  0  0  0  0  0  0  0  0  0
   50.5650   33.8870   42.2480 N   0  0  0  0  0  0  0  0  0  0  0  0
   49.8860   32.7100   42.4530 C   0  0  0  0  0  0  0  0  0  0  0  0
   48.5970   32.7070   42.7450 N   0  0  0  0  0  0  0  0  0  0  0  0
   48.1410   36.0730   42.7030 H   0  0  0  0  0  0  0  0  0  0  0  0
   50.4830   36.0060   42.1750 H   0  0  0  0  0  0  0  0  0  0  0  0
   46.4930   33.9600   43.1720 C   0  0  0  0  0  0  0  0  0  0  0  0
   45.7760   34.9610   42.4220 C   0  0  0  0  0  0  0  0  0  0  0  0
   45.3040   36.1150   43.2210 C   0  0  0  0  0  0  0  0  0  0  0  0
   44.4390   35.6490   44.3940 C   0  0  0  0  0  0  0  0  0  0  0  0
   44.9870   34.4650   45.1060 C   0  0  0  0  0  0  0  0  0  0  0  0
   46.4350   34.1980   44.7200 C   0  0  0  0  0  0  0  0  0  0  0  0
   46.0340   32.9350   43.0440 H   0  0  0  0  0  0  0  0  0  0  0  0
   46.4210   35.3780   41.5980 H   0  0  0  0  0  0  0  0  0  0  0  0
   44.8860   34.5440   41.8970 H   0  0  0  0  0  0  0  0  0  0  0  0
   46.0480   36.7860   43.6370 H   0  0  0  0  0  0  0  0  0  0  0  0
   44.6270   36.7550   42.5920 H   0  0  0  0  0  0  0  0  0  0  0  0
   43.4130   35.4660   43.9950 H   0  0  0  0  0  0  0  0  0  0  0  0
   44.3240   36.4710   45.1380 H   0  0  0  0  0  0  0  0  0  0  0  0
   44.4340   33.5230   44.8820 H   0  0  0  0  0  0  0  0  0  0  0  0
   44.9830   34.5920   46.1960 H   0  0  0  0  0  0  0  0  0  0  0  0
   46.7310   33.2350   45.1660 H   0  0  0  0  0  0  0  0  0  0  0  0
   47.0960   35.0450   44.9820 H   0  0  0  0  0  0  0  0  0  0  0  0
   50.7210   31.5220   42.3200 C   0  0  0  0  0  0  0  0  0  0  0  0
   51.3240   31.2710   41.1480 N   0  0  0  0  0  0  0  0  0  0  0  0
   52.0420   30.1230   41.2590 C   0  0  0  0  0  0  0  0  0  0  0  0
   51.8660   29.6750   42.5180 N   0  0  0  0  0  0  0  0  0  0  0  0
   51.0650   30.5180   43.1720 N   0  0  0  0  0  0  0  0  0  0  0  0
   52.6460   29.6490   40.4740 H   0  0  0  0  0  0  0  0  0  0  0  0
   52.4460   28.4970   43.1210 C   0  0  0  0  0  0  0  0  0  0  0  0
   52.4580   27.6280   42.4880 H   0  0  0  0  0  0  0  0  0  0  0  0
   51.8120   28.2140   44.0100 H   0  0  0  0  0  0  0  0  0  0  0  0
   53.7730   28.8130   43.6440 C   0  0  0  0  0  3  0  0  0  0  0  0
   54.2370   29.5930   44.5920 C   0  0  0  0  0  3  0  0  0  0  0  0
   55.6810   29.7600   45.0860 C   0  0  0  0  0  0  0  0  0  0  0  0
   55.9870   30.7240   44.6310 H   0  0  0  0  0  0  0  0  0  0  0  0
   55.6180   29.8060   46.1980 H   0  0  0  0  0  0  0  0  0  0  0  0
   56.4540   28.6320   44.5620 C   0  0  0  0  0  2  0  0  0  0  0  0
   57.2580   27.6590   44.1750 C   0  0  0  0  0  2  0  0  0  0  0  0
   57.2110   26.4920   43.2210 C   0  0  0  0  0  2  0  0  0  0  0  0
   56.2060   26.5600   42.6990 H   0  0  0  0  0  0  0  0  0  0  0  0
  1  9  1  0  0  0  0
  2  7  1  0  0  0  0
  2  1  2  0  0  0  0
  3  2  1  0  0  0  0
  4  3  2  0  0  0  0
  4  5  1  0  0  0  0
  5  6  2  0  0  0  0
  6  1  1  0  0  0  0
  8  3  1  0  0  0  0
  9 14  1  0  0  0  0
 10  9  1  0  0  0  0
 10 11  1  0  0  0  0
 11 18  1  0  0  0  0
 11 12  1  0  0  0  0
 12 13  1  0  0  0  0
 12 21  1  0  0  0  0
 13 23  1  0  0  0  0
 14 25  1  0  0  0  0
 14 13  1  0  0  0  0
 14 24  1  0  0  0  0
 15  9  1  0  0  0  0
 16 10  1  0  0  0  0
 17 10  1  0  0  0  0
 19 11  1  0  0  0  0
 20 12  1  0  0  0  0
 22 13  1  0  0  0  0
 26  5  1  0  0  0  0
 26 30  2  0  0  0  0
 27 28  2  0  0  0  0
 27 26  1  0  0  0  0
 28 29  1  0  0  0  0
 29 32  1  0  0  0  0
 29 30  1  0  0  0  0
 31 28  1  0  0  0  0
 32 35  1  0  0  0  0
 32 34  1  0  0  0  0
 33 32  1  0  0  0  0
 35 36  2  0  0  0  0
 36 37  1  0  0  0  0
 37 39  1  0  0  0  0
 38 37  1  0  0  0  0
 40 37  1  0  0  0  0
 41 40  1  0  0  0  0
 42 41  1  0  0  0  0
 43 42  1  0  0  0  0
M  END
>  <minimizedAffinity>
-3.83827448

>  <minimizedRMSD>
0.418685377

$$$$
