
 OpenBabel03242523433D

 19 19  0  0  1  0  0  0  0  0999 V2000
   45.9160   35.3140   42.3190 C   0  0  1  0  0  0  0  0  0  0  0  0
   45.8110   36.4120   42.2570 H   0  0  0  0  0  0  0  0  0  0  0  0
   44.8040   35.6230   44.4840 C   0  0  0  0  0  0  0  0  0  0  0  0
   45.6900   34.8870   43.6710 C   0  0  0  0  0  0  0  0  0  0  0  0
   46.2910   33.7630   44.2280 C   0  0  0  0  0  0  0  0  0  0  0  0
   45.9960   33.4290   45.5220 N   0  0  0  0  0  0  0  0  0  0  0  0
   45.1420   34.1570   46.2670 C   0  0  0  0  0  0  0  0  0  0  0  0
   44.5350   35.2630   45.7570 N   0  0  0  0  0  0  0  0  0  0  0  0
   44.2850   36.5110   44.1510 H   0  0  0  0  0  0  0  0  0  0  0  0
   46.9740   33.1710   43.6490 H   0  0  0  0  0  0  0  0  0  0  0  0
   44.9060   33.8910   47.2950 H   0  0  0  0  0  0  0  0  0  0  0  0
   47.3190   34.9500   41.9060 C   0  0  0  0  0  0  0  0  0  0  0  0
   47.5010   33.8780   41.8480 H   0  0  0  0  0  0  0  0  0  0  0  0
   47.4350   35.3280   40.8480 H   0  0  0  0  0  0  0  0  0  0  0  0
   48.0600   35.5140   42.4940 H   0  0  0  0  0  0  0  0  0  0  0  0
   44.9480   34.7000   41.3480 C   0  0  0  0  0  3  0  0  0  0  0  0
   43.7730   35.2080   40.9840 C   0  0  0  0  0  3  0  0  0  0  0  0
   42.8470   34.5750   40.0250 C   0  0  0  0  0  2  0  0  0  0  0  0
   41.8190   34.6710   40.4100 H   0  0  0  0  0  0  0  0  0  0  0  0
  1  2  1  6  0  0  0
  1  4  1  0  0  0  0
  3  8  1  0  0  0  0
  4  5  1  0  0  0  0
  4  3  2  0  0  0  0
  5  6  2  0  0  0  0
  6  7  1  0  0  0  0
  7 11  1  0  0  0  0
  8  7  2  0  0  0  0
  9  3  1  0  0  0  0
 10  5  1  0  0  0  0
 12  1  1  0  0  0  0
 12 15  1  0  0  0  0
 13 12  1  0  0  0  0
 14 12  1  0  0  0  0
 16  1  1  0  0  0  0
 17 16  2  0  0  0  0
 18 19  1  0  0  0  0
 18 17  1  0  0  0  0
M  END
>  <minimizedAffinity>
-3.79154229

>  <minimizedRMSD>
1.32346165

$$$$
