
 OpenBabel03252509303D

 16 16  0  0  0  0  0  0  0  0999 V2000
   44.5810   36.0340   44.5320 C   0  0  0  0  0  0  0  0  0  0  0  0
   45.3420   36.0290   43.3310 C   0  0  0  0  0  0  0  0  0  0  0  0
   46.2220   34.9750   43.1340 C   0  0  0  0  0  0  0  0  0  0  0  0
   46.3160   34.0050   44.0860 N   0  0  0  0  0  0  0  0  0  0  0  0
   45.5650   34.0470   45.2270 C   0  0  0  0  0  0  0  0  0  0  0  0
   44.7090   35.0630   45.4300 N   0  0  0  0  0  0  0  0  0  0  0  0
   43.8850   36.8520   44.7030 H   0  0  0  0  0  0  0  0  0  0  0  0
   45.1890   36.8470   42.6440 H   0  0  0  0  0  0  0  0  0  0  0  0
   45.7400   33.2130   45.8950 H   0  0  0  0  0  0  0  0  0  0  0  0
   46.9970   34.9810   41.9000 C   0  0  0  0  0  0  0  0  0  0  0  0
   47.9950   34.5920   42.1230 H   0  0  0  0  0  0  0  0  0  0  0  0
   47.0520   36.0020   41.4790 H   0  0  0  0  0  0  0  0  0  0  0  0
   46.4110   34.1100   40.8340 C   0  0  0  0  0  3  0  0  0  0  0  0
   45.1350   33.9430   40.4980 C   0  0  0  0  0  3  0  0  0  0  0  0
   44.6320   33.0520   39.4170 C   0  0  0  0  0  2  0  0  0  0  0  0
   44.3630   33.6180   38.4990 H   0  0  0  0  0  0  0  0  0  0  0  0
  1  7  1  0  0  0  0
  1  6  1  0  0  0  0
  2  1  2  0  0  0  0
  3  2  1  0  0  0  0
  3  4  2  0  0  0  0
  4  5  1  0  0  0  0
  5  6  2  0  0  0  0
  5  9  1  0  0  0  0
  8  2  1  0  0  0  0
 10 11  1  0  0  0  0
 10  3  1  0  0  0  0
 12 10  1  0  0  0  0
 13 10  1  0  0  0  0
 14 13  2  0  0  0  0
 15 14  1  0  0  0  0
 16 15  1  0  0  0  0
M  END
>  <minimizedAffinity>
-3.42137766

>  <minimizedRMSD>
0.324893743

$$$$
