
 OpenBabel03252508473D

 40 41  0  0  0  0  0  0  0  0999 V2000
   43.0340   32.5280   41.6370 C   0  0  0  0  0  0  0  0  0  0  0  0
   43.6200   32.0470   40.8120 H   0  0  0  0  0  0  0  0  0  0  0  0
   42.1470   32.9850   41.1880 H   0  0  0  0  0  0  0  0  0  0  0  0
   43.6640   34.9430   41.8870 C   0  0  0  0  0  0  0  0  0  0  0  0
   43.9020   33.6020   42.1870 C   0  0  0  0  0  0  0  0  0  0  0  0
   44.9720   33.3130   43.0130 C   0  0  0  0  0  0  0  0  0  0  0  0
   45.7560   34.3120   43.5060 C   0  0  0  0  0  0  0  0  0  0  0  0
   45.5390   35.6310   43.2240 C   0  0  0  0  0  0  0  0  0  0  0  0
   44.4630   35.8900   42.3970 C   0  0  0  0  0  0  0  0  0  0  0  0
   45.1850   32.2930   43.2640 H   0  0  0  0  0  0  0  0  0  0  0  0
   46.5900   34.0460   44.1540 H   0  0  0  0  0  0  0  0  0  0  0  0
   46.1500   36.4410   43.6070 H   0  0  0  0  0  0  0  0  0  0  0  0
   44.2600   36.9340   42.1500 H   0  0  0  0  0  0  0  0  0  0  0  0
   40.2340   35.8060   40.5220 C   0  0  0  0  0  0  0  0  0  0  0  0
   41.2670   35.5790   41.4550 C   0  0  0  0  0  0  0  0  0  0  0  0
   42.5220   35.2020   41.0110 C   0  0  0  0  0  0  0  0  0  0  0  0
   42.6980   35.0680   39.6690 N   0  0  0  0  0  0  0  0  0  0  0  0
   41.6930   35.2910   38.7820 C   0  0  0  0  0  0  0  0  0  0  0  0
   40.4690   35.6580   39.2240 N   0  0  0  0  0  0  0  0  0  0  0  0
   39.2840   36.0970   40.9560 H   0  0  0  0  0  0  0  0  0  0  0  0
   41.1500   35.6800   42.5290 H   0  0  0  0  0  0  0  0  0  0  0  0
   41.9560   35.1510   37.7470 H   0  0  0  0  0  0  0  0  0  0  0  0
   42.7000   31.5040   42.5880 N   0  0  0  0  0  0  0  0  0  0  0  0
   43.2750   30.6420   42.4780 H   0  0  0  0  0  0  0  0  0  0  0  0
   41.0340   31.1220   42.5610 S   0  0  0  0  0  0  0  0  0  0  0  0
   40.2010   32.3810   42.4320 O   0  0  0  0  0  0  0  0  0  0  0  0
   39.3530   32.5740   42.9040 H   0  0  0  0  0  0  0  0  0  0  0  0
   40.6430   30.3730   43.7980 O   0  0  0  0  0  0  0  0  0  0  0  0
   41.2810   29.8770   44.3920 H   0  0  0  0  0  0  0  0  0  0  0  0
   40.7430   30.1590   41.2220 O   0  0  0  0  0  0  0  0  0  0  0  0
   39.8690   29.1510   41.6070 C   0  0  0  0  0  0  0  0  0  0  0  0
   39.0100   29.1780   40.8830 H   0  0  0  0  0  0  0  0  0  0  0  0
   39.5340   29.1930   42.6410 H   0  0  0  0  0  0  0  0  0  0  0  0
   40.5290   27.7840   41.3330 C   0  0  0  0  0  0  0  0  0  0  0  0
   39.9930   27.2550   40.5280 H   0  0  0  0  0  0  0  0  0  0  0  0
   41.6040   27.9260   41.1070 H   0  0  0  0  0  0  0  0  0  0  0  0
   40.4290   27.0490   42.6250 C   0  0  0  0  0  3  0  0  0  0  0  0
   41.4020   26.9020   43.4860 C   0  0  0  0  0  3  0  0  0  0  0  0
   42.7270   27.4850   43.2140 C   0  0  0  0  0  2  0  0  0  0  0  0
   43.2720   27.5900   44.1970 H   0  0  0  0  0  0  0  0  0  0  0  0
  1  5  1  0  0  0  0
  1 23  1  0  0  0  0
  2  1  1  0  0  0  0
  3  1  1  0  0  0  0
  4  5  2  0  0  0  0
  4  9  1  0  0  0  0
  5  6  1  0  0  0  0
  6 10  1  0  0  0  0
  6  7  2  0  0  0  0
  7 11  1  0  0  0  0
  8  7  1  0  0  0  0
  8 12  1  0  0  0  0
  9  8  2  0  0  0  0
 13  9  1  0  0  0  0
 14 20  1  0  0  0  0
 14 15  1  0  0  0  0
 15 21  1  0  0  0  0
 16 15  2  0  0  0  0
 16  4  1  0  0  0  0
 17 16  1  0  0  0  0
 18 19  1  0  0  0  0
 18 17  2  0  0  0  0
 19 14  2  0  0  0  0
 22 18  1  0  0  0  0
 24 23  1  0  0  0  0
 25 23  1  0  0  0  0
 25 28  1  0  0  0  0
 26 25  1  0  0  0  0
 26 27  1  0  0  0  0
 28 29  1  0  0  0  0
 30 31  1  0  0  0  0
 30 25  1  0  0  0  0
 31 33  1  0  0  0  0
 32 31  1  0  0  0  0
 34 31  1  0  0  0  0
 34 37  1  0  0  0  0
 35 34  1  0  0  0  0
 36 34  1  0  0  0  0
 37 38  2  0  0  0  0
 39 38  1  0  0  0  0
 39 40  1  0  0  0  0
M  END
>  <minimizedAffinity>
-4.70983267

>  <minimizedRMSD>
0.719227493

$$$$
