
 OpenBabel03252508433D

 26 27  0  0  0  0  0  0  0  0999 V2000
   36.9420   27.0790   40.7620 C   0  0  0  0  0  0  0  0  0  0  0  0
   37.1740   26.4780   41.9880 C   0  0  0  0  0  0  0  0  0  0  0  0
   37.1000   25.1080   42.1130 C   0  0  0  0  0  0  0  0  0  0  0  0
   36.7940   24.3670   41.0100 C   0  0  0  0  0  0  0  0  0  0  0  0
   36.5560   24.9130   39.7760 C   0  0  0  0  0  0  0  0  0  0  0  0
   36.6420   26.3120   39.6930 C   0  0  0  0  0  0  0  0  0  0  0  0
   37.2770   24.6060   43.0630 H   0  0  0  0  0  0  0  0  0  0  0  0
   36.7250   23.2860   41.0620 H   0  0  0  0  0  0  0  0  0  0  0  0
   36.3080   24.3870   38.8560 H   0  0  0  0  0  0  0  0  0  0  0  0
   36.4720   26.8440   38.7660 H   0  0  0  0  0  0  0  0  0  0  0  0
   36.2080   30.7780   40.9360 C   0  0  0  0  0  0  0  0  0  0  0  0
   35.9940   29.3790   41.0150 C   0  0  0  0  0  0  0  0  0  0  0  0
   37.0400   28.5290   40.7160 C   0  0  0  0  0  0  0  0  0  0  0  0
   38.2110   29.1030   40.3640 N   0  0  0  0  0  0  0  0  0  0  0  0
   38.4200   30.4330   40.2870 C   0  0  0  0  0  0  0  0  0  0  0  0
   37.4050   31.2820   40.5760 N   0  0  0  0  0  0  0  0  0  0  0  0
   35.3920   31.4490   41.1680 H   0  0  0  0  0  0  0  0  0  0  0  0
   35.0530   28.9600   41.2970 H   0  0  0  0  0  0  0  0  0  0  0  0
   39.4390   30.6990   39.9840 H   0  0  0  0  0  0  0  0  0  0  0  0
   37.5080   27.3220   43.1800 C   0  0  0  0  0  0  0  0  0  0  0  0
   37.3080   28.3910   42.9680 H   0  0  0  0  0  0  0  0  0  0  0  0
   36.7870   27.0210   43.9700 H   0  0  0  0  0  0  0  0  0  0  0  0
   38.8680   27.0760   43.6800 C   0  0  0  0  0  3  0  0  0  0  0  0
   39.9450   27.6470   43.1030 C   0  0  0  0  0  3  0  0  0  0  0  0
   41.3730   27.4840   43.5070 C   0  0  0  0  0  2  0  0  0  0  0  0
   42.0080   27.5240   42.6210 H   0  0  0  0  0  0  0  0  0  0  0  0
  1  2  1  0  0  0  0
  2  3  2  0  0  0  0
  2 20  1  0  0  0  0
  3  7  1  0  0  0  0
  4  8  1  0  0  0  0
  4  3  1  0  0  0  0
  5  4  2  0  0  0  0
  6  5  1  0  0  0  0
  6  1  2  0  0  0  0
  9  5  1  0  0  0  0
 10  6  1  0  0  0  0
 11 12  1  0  0  0  0
 11 17  1  0  0  0  0
 12 18  1  0  0  0  0
 13  1  1  0  0  0  0
 13 12  2  0  0  0  0
 14 13  1  0  0  0  0
 15 14  2  0  0  0  0
 15 16  1  0  0  0  0
 16 11  2  0  0  0  0
 19 15  1  0  0  0  0
 20 23  1  0  0  0  0
 20 22  1  0  0  0  0
 21 20  1  0  0  0  0
 24 25  1  0  0  0  0
 24 23  2  0  0  0  0
 26 25  1  0  0  0  0
M  END
>  <minimizedAffinity>
-4.87467909

$$$$

 OpenBabel03252508433D

 26 27  0  0  0  0  0  0  0  0999 V2000
   36.9590   30.7150   38.2900 C   0  0  0  0  0  0  0  0  0  0  0  0
   35.9870   29.9120   38.8630 C   0  0  0  0  0  0  0  0  0  0  0  0
   35.3030   28.9970   38.0940 C   0  0  0  0  0  0  0  0  0  0  0  0
   35.6050   28.9030   36.7670 C   0  0  0  0  0  0  0  0  0  0  0  0
   36.5580   29.6730   36.1540 C   0  0  0  0  0  0  0  0  0  0  0  0
   37.2300   30.5930   36.9740 C   0  0  0  0  0  0  0  0  0  0  0  0
   34.5330   28.3520   38.5140 H   0  0  0  0  0  0  0  0  0  0  0  0
   35.0930   28.1960   36.1250 H   0  0  0  0  0  0  0  0  0  0  0  0
   36.8510   29.6530   35.1060 H   0  0  0  0  0  0  0  0  0  0  0  0
   38.0010   31.2500   36.5900 H   0  0  0  0  0  0  0  0  0  0  0  0
   38.0270   33.8130   40.1650 C   0  0  0  0  0  0  0  0  0  0  0  0
   37.2990   32.9910   39.2690 C   0  0  0  0  0  0  0  0  0  0  0  0
   37.6330   31.6550   39.1720 C   0  0  0  0  0  0  0  0  0  0  0  0
   38.6480   31.2220   39.9510 N   0  0  0  0  0  0  0  0  0  0  0  0
   39.3440   32.0000   40.8040 C   0  0  0  0  0  0  0  0  0  0  0  0
   39.0300   33.3120   40.9130 N   0  0  0  0  0  0  0  0  0  0  0  0
   37.7710   34.8610   40.2460 H   0  0  0  0  0  0  0  0  0  0  0  0
   36.5010   33.3690   38.6670 H   0  0  0  0  0  0  0  0  0  0  0  0
   40.1290   31.4600   41.3470 H   0  0  0  0  0  0  0  0  0  0  0  0
   35.6790   30.0420   40.3240 C   0  0  0  0  0  0  0  0  0  0  0  0
   36.3210   30.8150   40.7890 H   0  0  0  0  0  0  0  0  0  0  0  0
   34.6390   30.4270   40.3770 H   0  0  0  0  0  0  0  0  0  0  0  0
   35.7290   28.7510   41.0250 C   0  0  0  0  0  3  0  0  0  0  0  0
   36.7200   28.4560   41.8910 C   0  0  0  0  0  3  0  0  0  0  0  0
   36.8890   27.1910   42.6650 C   0  0  0  0  0  2  0  0  0  0  0  0
   37.9520   26.9770   42.7820 H   0  0  0  0  0  0  0  0  0  0  0  0
  1  2  1  0  0  0  0
  1 13  1  0  0  0  0
  2 20  1  0  0  0  0
  3  7  1  0  0  0  0
  3  2  2  0  0  0  0
  4  3  1  0  0  0  0
  5  4  2  0  0  0  0
  5  6  1  0  0  0  0
  6  1  2  0  0  0  0
  8  4  1  0  0  0  0
  9  5  1  0  0  0  0
 10  6  1  0  0  0  0
 11 17  1  0  0  0  0
 11 16  1  0  0  0  0
 12 11  2  0  0  0  0
 13 12  1  0  0  0  0
 13 14  2  0  0  0  0
 14 15  1  0  0  0  0
 15 16  2  0  0  0  0
 15 19  1  0  0  0  0
 18 12  1  0  0  0  0
 20 22  1  0  0  0  0
 20 21  1  0  0  0  0
 20 23  1  0  0  0  0
 23 24  2  0  0  0  0
 24 25  1  0  0  0  0
 25 26  1  0  0  0  0
M  END
>  <minimizedAffinity>
-4.80805588

$$$$

 OpenBabel03252508433D

 26 27  0  0  0  0  0  0  0  0999 V2000
   37.5730   29.2640   41.7300 C   0  0  0  0  0  0  0  0  0  0  0  0
   37.2320   28.1930   40.9200 C   0  0  0  0  0  0  0  0  0  0  0  0
   36.9250   26.9720   41.4780 C   0  0  0  0  0  0  0  0  0  0  0  0
   36.9660   26.8450   42.8350 C   0  0  0  0  0  0  0  0  0  0  0  0
   37.2970   27.8740   43.6790 C   0  0  0  0  0  0  0  0  0  0  0  0
   37.6030   29.1000   43.0680 C   0  0  0  0  0  0  0  0  0  0  0  0
   36.6530   26.1120   40.8690 H   0  0  0  0  0  0  0  0  0  0  0  0
   36.7320   25.9040   43.3180 H   0  0  0  0  0  0  0  0  0  0  0  0
   37.3500   27.8460   44.7660 H   0  0  0  0  0  0  0  0  0  0  0  0
   37.8770   29.9760   43.6430 H   0  0  0  0  0  0  0  0  0  0  0  0
   37.3460   32.6030   39.9840 C   0  0  0  0  0  0  0  0  0  0  0  0
   36.9240   31.4120   40.6250 C   0  0  0  0  0  0  0  0  0  0  0  0
   37.8820   30.5170   41.0600 C   0  0  0  0  0  0  0  0  0  0  0  0
   39.1730   30.8480   40.8370 N   0  0  0  0  0  0  0  0  0  0  0  0
   39.5780   31.9800   40.2260 C   0  0  0  0  0  0  0  0  0  0  0  0
   38.6530   32.8690   39.7940 N   0  0  0  0  0  0  0  0  0  0  0  0
   36.6000   33.3080   39.6400 H   0  0  0  0  0  0  0  0  0  0  0  0
   35.8930   31.1820   40.7840 H   0  0  0  0  0  0  0  0  0  0  0  0
   40.6670   32.0650   40.1410 H   0  0  0  0  0  0  0  0  0  0  0  0
   37.1960   28.3660   39.4310 C   0  0  0  0  0  0  0  0  0  0  0  0
   37.5470   29.3790   39.1500 H   0  0  0  0  0  0  0  0  0  0  0  0
   37.9470   27.6530   39.0300 H   0  0  0  0  0  0  0  0  0  0  0  0
   35.8870   28.0280   38.8580 C   0  0  0  0  0  3  0  0  0  0  0  0
   34.9910   28.9820   38.5300 C   0  0  0  0  0  3  0  0  0  0  0  0
   33.6340   28.7770   37.9430 C   0  0  0  0  0  2  0  0  0  0  0  0
   32.9570   29.5460   38.3170 H   0  0  0  0  0  0  0  0  0  0  0  0
  1  6  1  0  0  0  0
  2  3  1  0  0  0  0
  2  1  2  0  0  0  0
  3  4  2  0  0  0  0
  4  8  1  0  0  0  0
  4  5  1  0  0  0  0
  5  9  1  0  0  0  0
  6 10  1  0  0  0  0
  6  5  2  0  0  0  0
  7  3  1  0  0  0  0
 11 12  1  0  0  0  0
 12 18  1  0  0  0  0
 12 13  2  0  0  0  0
 13  1  1  0  0  0  0
 14 13  1  0  0  0  0
 15 14  2  0  0  0  0
 16 11  2  0  0  0  0
 16 15  1  0  0  0  0
 17 11  1  0  0  0  0
 19 15  1  0  0  0  0
 20  2  1  0  0  0  0
 21 20  1  0  0  0  0
 22 20  1  0  0  0  0
 23 20  1  0  0  0  0
 24 23  2  0  0  0  0
 25 26  1  0  0  0  0
 25 24  1  0  0  0  0
M  END
>  <minimizedAffinity>
-4.68332672

$$$$

 OpenBabel03252508433D

 26 27  0  0  0  0  0  0  0  0999 V2000
   38.9320   28.4010   42.0660 C   0  0  0  0  0  0  0  0  0  0  0  0
   38.5300   27.3250   42.8400 C   0  0  0  0  0  0  0  0  0  0  0  0
   39.4340   26.6810   43.6550 C   0  0  0  0  0  0  0  0  0  0  0  0
   40.7230   27.1260   43.6800 C   0  0  0  0  0  0  0  0  0  0  0  0
   41.1700   28.1860   42.9340 C   0  0  0  0  0  0  0  0  0  0  0  0
   40.2160   28.8120   42.1180 C   0  0  0  0  0  0  0  0  0  0  0  0
   39.1490   25.8330   44.2740 H   0  0  0  0  0  0  0  0  0  0  0  0
   41.4680   26.6500   44.3070 H   0  0  0  0  0  0  0  0  0  0  0  0
   42.1780   28.5940   42.9030 H   0  0  0  0  0  0  0  0  0  0  0  0
   40.4640   29.6580   41.4890 H   0  0  0  0  0  0  0  0  0  0  0  0
   36.6390   29.3320   39.2150 C   0  0  0  0  0  0  0  0  0  0  0  0
   37.6570   28.6520   39.9290 C   0  0  0  0  0  0  0  0  0  0  0  0
   37.9140   29.0240   41.2340 C   0  0  0  0  0  0  0  0  0  0  0  0
   37.1650   30.0260   41.7420 N   0  0  0  0  0  0  0  0  0  0  0  0
   36.1960   30.6760   41.0660 C   0  0  0  0  0  0  0  0  0  0  0  0
   35.9290   30.3250   39.7860 N   0  0  0  0  0  0  0  0  0  0  0  0
   36.4320   29.0460   38.1920 H   0  0  0  0  0  0  0  0  0  0  0  0
   38.2310   27.8630   39.4950 H   0  0  0  0  0  0  0  0  0  0  0  0
   35.7020   31.4580   41.6540 H   0  0  0  0  0  0  0  0  0  0  0  0
   37.1050   26.8610   42.7880 C   0  0  0  0  0  0  0  0  0  0  0  0
   36.5940   27.0700   43.7490 H   0  0  0  0  0  0  0  0  0  0  0  0
   36.6110   27.5000   42.0260 H   0  0  0  0  0  0  0  0  0  0  0  0
   36.9860   25.4600   42.3620 C   0  0  0  0  0  3  0  0  0  0  0  0
   36.9860   25.1160   41.0580 C   0  0  0  0  0  3  0  0  0  0  0  0
   36.8730   23.7390   40.4920 C   0  0  0  0  0  2  0  0  0  0  0  0
   36.3280   23.7800   39.5470 H   0  0  0  0  0  0  0  0  0  0  0  0
  1  6  2  0  0  0  0
  1  2  1  0  0  0  0
  2  3  2  0  0  0  0
  3  4  1  0  0  0  0
  3  7  1  0  0  0  0
  4  8  1  0  0  0  0
  5  4  2  0  0  0  0
  6  5  1  0  0  0  0
  9  5  1  0  0  0  0
 10  6  1  0  0  0  0
 11 16  2  0  0  0  0
 11 12  1  0  0  0  0
 12 13  2  0  0  0  0
 13 14  1  0  0  0  0
 13  1  1  0  0  0  0
 15 19  1  0  0  0  0
 15 14  2  0  0  0  0
 16 15  1  0  0  0  0
 17 11  1  0  0  0  0
 18 12  1  0  0  0  0
 20  2  1  0  0  0  0
 20 21  1  0  0  0  0
 22 20  1  0  0  0  0
 23 20  1  0  0  0  0
 24 23  2  0  0  0  0
 25 24  1  0  0  0  0
 26 25  1  0  0  0  0
M  END
>  <minimizedAffinity>
-4.57794189

$$$$

 OpenBabel03252508433D

 26 27  0  0  0  0  0  0  0  0999 V2000
   36.6290   27.1140   40.2680 C   0  0  0  0  0  0  0  0  0  0  0  0
   36.2800   28.1110   41.1630 C   0  0  0  0  0  0  0  0  0  0  0  0
   35.4820   29.1580   40.7580 C   0  0  0  0  0  0  0  0  0  0  0  0
   35.0490   29.1860   39.4650 C   0  0  0  0  0  0  0  0  0  0  0  0
   35.3650   28.2240   38.5420 C   0  0  0  0  0  0  0  0  0  0  0  0
   36.1810   27.1760   38.9970 C   0  0  0  0  0  0  0  0  0  0  0  0
   35.1910   29.9570   41.4370 H   0  0  0  0  0  0  0  0  0  0  0  0
   34.4180   29.9900   39.1030 H   0  0  0  0  0  0  0  0  0  0  0  0
   35.0570   28.1810   37.4990 H   0  0  0  0  0  0  0  0  0  0  0  0
   36.4900   26.3650   38.3490 H   0  0  0  0  0  0  0  0  0  0  0  0
   37.9100   23.9240   41.8280 C   0  0  0  0  0  0  0  0  0  0  0  0
   36.9880   24.8970   41.3690 C   0  0  0  0  0  0  0  0  0  0  0  0
   37.4750   26.0460   40.7770 C   0  0  0  0  0  0  0  0  0  0  0  0
   38.8170   26.1590   40.6790 N   0  0  0  0  0  0  0  0  0  0  0  0
   39.6980   25.2360   41.1150 C   0  0  0  0  0  0  0  0  0  0  0  0
   39.2390   24.1030   41.6970 N   0  0  0  0  0  0  0  0  0  0  0  0
   37.5350   23.0210   42.2930 H   0  0  0  0  0  0  0  0  0  0  0  0
   35.9310   24.7740   41.4640 H   0  0  0  0  0  0  0  0  0  0  0  0
   40.7440   25.5140   40.9430 H   0  0  0  0  0  0  0  0  0  0  0  0
   36.7750   28.0500   42.5770 C   0  0  0  0  0  0  0  0  0  0  0  0
   35.9310   27.8880   43.2760 H   0  0  0  0  0  0  0  0  0  0  0  0
   37.4070   27.1390   42.6320 H   0  0  0  0  0  0  0  0  0  0  0  0
   37.6050   29.2090   42.9320 C   0  0  0  0  0  3  0  0  0  0  0  0
   38.7970   29.4310   42.3400 C   0  0  0  0  0  3  0  0  0  0  0  0
   39.7350   30.5620   42.6050 C   0  0  0  0  0  2  0  0  0  0  0  0
   40.7630   30.2160   42.4870 H   0  0  0  0  0  0  0  0  0  0  0  0
  1 13  1  0  0  0  0
  1  2  1  0  0  0  0
  2 20  1  0  0  0  0
  3  2  2  0  0  0  0
  3  7  1  0  0  0  0
  4  3  1  0  0  0  0
  5  6  1  0  0  0  0
  5  4  2  0  0  0  0
  6  1  2  0  0  0  0
  8  4  1  0  0  0  0
  9  5  1  0  0  0  0
 10  6  1  0  0  0  0
 11 17  1  0  0  0  0
 12 18  1  0  0  0  0
 12 11  2  0  0  0  0
 13 12  1  0  0  0  0
 14 13  2  0  0  0  0
 14 15  1  0  0  0  0
 15 16  2  0  0  0  0
 16 11  1  0  0  0  0
 19 15  1  0  0  0  0
 20 22  1  0  0  0  0
 20 23  1  0  0  0  0
 20 21  1  0  0  0  0
 24 25  1  0  0  0  0
 24 23  2  0  0  0  0
 26 25  1  0  0  0  0
M  END
>  <minimizedAffinity>
-4.56150913

$$$$

 OpenBabel03252508433D

 26 27  0  0  0  0  0  0  0  0999 V2000
   36.7080   30.6470   38.9690 C   0  0  0  0  0  0  0  0  0  0  0  0
   36.0760   30.0430   40.0430 C   0  0  0  0  0  0  0  0  0  0  0  0
   35.1380   29.0570   39.8300 C   0  0  0  0  0  0  0  0  0  0  0  0
   34.8490   28.6960   38.5480 C   0  0  0  0  0  0  0  0  0  0  0  0
   35.4460   29.2620   37.4520 C   0  0  0  0  0  0  0  0  0  0  0  0
   36.3960   30.2620   37.7140 C   0  0  0  0  0  0  0  0  0  0  0  0
   34.6240   28.5640   40.6540 H   0  0  0  0  0  0  0  0  0  0  0  0
   34.1180   27.9240   38.3330 H   0  0  0  0  0  0  0  0  0  0  0  0
   35.2680   29.0250   36.4040 H   0  0  0  0  0  0  0  0  0  0  0  0
   36.9260   30.7740   36.9210 H   0  0  0  0  0  0  0  0  0  0  0  0
   39.9070   32.5550   39.5800 C   0  0  0  0  0  0  0  0  0  0  0  0
   39.0500   31.4740   39.2560 C   0  0  0  0  0  0  0  0  0  0  0  0
   37.6850   31.6780   39.2810 C   0  0  0  0  0  0  0  0  0  0  0  0
   37.2590   32.9140   39.6190 N   0  0  0  0  0  0  0  0  0  0  0  0
   38.0700   33.9450   39.9290 C   0  0  0  0  0  0  0  0  0  0  0  0
   39.4120   33.7640   39.9090 N   0  0  0  0  0  0  0  0  0  0  0  0
   40.9780   32.4020   39.5620 H   0  0  0  0  0  0  0  0  0  0  0  0
   39.4230   30.5080   38.9940 H   0  0  0  0  0  0  0  0  0  0  0  0
   37.5310   34.8670   40.1750 H   0  0  0  0  0  0  0  0  0  0  0  0
   36.4160   30.4640   41.4410 C   0  0  0  0  0  0  0  0  0  0  0  0
   36.9660   31.4260   41.4340 H   0  0  0  0  0  0  0  0  0  0  0  0
   35.4430   30.6640   41.9370 H   0  0  0  0  0  0  0  0  0  0  0  0
   37.1080   29.4080   42.1930 C   0  0  0  0  0  3  0  0  0  0  0  0
   38.4530   29.3820   42.2990 C   0  0  0  0  0  3  0  0  0  0  0  0
   39.2770   28.3730   43.0280 C   0  0  0  0  0  2  0  0  0  0  0  0
   40.2220   28.2290   42.5020 H   0  0  0  0  0  0  0  0  0  0  0  0
  1 13  1  0  0  0  0
  1  2  1  0  0  0  0
  2 20  1  0  0  0  0
  3  2  2  0  0  0  0
  3  7  1  0  0  0  0
  4  3  1  0  0  0  0
  5  6  1  0  0  0  0
  5  4  2  0  0  0  0
  6  1  2  0  0  0  0
  8  4  1  0  0  0  0
  9  5  1  0  0  0  0
 10  6  1  0  0  0  0
 11 16  1  0  0  0  0
 12 13  1  0  0  0  0
 12 11  2  0  0  0  0
 13 14  2  0  0  0  0
 14 15  1  0  0  0  0
 15 19  1  0  0  0  0
 16 15  2  0  0  0  0
 17 11  1  0  0  0  0
 18 12  1  0  0  0  0
 20 22  1  0  0  0  0
 20 23  1  0  0  0  0
 21 20  1  0  0  0  0
 23 24  2  0  0  0  0
 24 25  1  0  0  0  0
 26 25  1  0  0  0  0
M  END
>  <minimizedAffinity>
-4.53820372

$$$$

 OpenBabel03252508433D

 26 27  0  0  0  0  0  0  0  0999 V2000
   37.4050   31.6120   39.7550 C   0  0  0  0  0  0  0  0  0  0  0  0
   38.4520   31.1840   40.5540 C   0  0  0  0  0  0  0  0  0  0  0  0
   39.3230   32.0990   41.1040 C   0  0  0  0  0  0  0  0  0  0  0  0
   39.1300   33.4230   40.8430 C   0  0  0  0  0  0  0  0  0  0  0  0
   38.1090   33.8970   40.0610 C   0  0  0  0  0  0  0  0  0  0  0  0
   37.2460   32.9310   39.5200 C   0  0  0  0  0  0  0  0  0  0  0  0
   40.1560   31.7930   41.7350 H   0  0  0  0  0  0  0  0  0  0  0  0
   39.7900   34.1780   41.2560 H   0  0  0  0  0  0  0  0  0  0  0  0
   37.8940   34.9350   39.8110 H   0  0  0  0  0  0  0  0  0  0  0  0
   36.4080   33.1990   38.8880 H   0  0  0  0  0  0  0  0  0  0  0  0
   35.7460   29.0610   37.5220 C   0  0  0  0  0  0  0  0  0  0  0  0
   36.6560   30.0630   37.9400 C   0  0  0  0  0  0  0  0  0  0  0  0
   36.5330   30.5820   39.2140 C   0  0  0  0  0  0  0  0  0  0  0  0
   35.5360   30.0880   39.9800 N   0  0  0  0  0  0  0  0  0  0  0  0
   34.6680   29.1350   39.5860 C   0  0  0  0  0  0  0  0  0  0  0  0
   34.7740   28.6140   38.3410 N   0  0  0  0  0  0  0  0  0  0  0  0
   35.8370   28.6500   36.5250 H   0  0  0  0  0  0  0  0  0  0  0  0
   37.4330   30.4310   37.3060 H   0  0  0  0  0  0  0  0  0  0  0  0
   33.9320   28.8690   40.3540 H   0  0  0  0  0  0  0  0  0  0  0  0
   38.6370   29.7210   40.8190 C   0  0  0  0  0  0  0  0  0  0  0  0
   38.1680   29.1180   40.0160 H   0  0  0  0  0  0  0  0  0  0  0  0
   39.7300   29.5400   40.7480 H   0  0  0  0  0  0  0  0  0  0  0  0
   38.1930   29.3340   42.1660 C   0  0  0  0  0  3  0  0  0  0  0  0
   37.4390   28.2340   42.3720 C   0  0  0  0  0  3  0  0  0  0  0  0
   36.9240   27.7310   43.6800 C   0  0  0  0  0  2  0  0  0  0  0  0
   35.9500   27.2620   43.5290 H   0  0  0  0  0  0  0  0  0  0  0  0
  1  2  1  0  0  0  0
  2 20  1  0  0  0  0
  2  3  2  0  0  0  0
  3  7  1  0  0  0  0
  4  3  1  0  0  0  0
  4  8  1  0  0  0  0
  5  4  2  0  0  0  0
  6  1  2  0  0  0  0
  6  5  1  0  0  0  0
  9  5  1  0  0  0  0
 10  6  1  0  0  0  0
 11 12  2  0  0  0  0
 11 16  1  0  0  0  0
 12 13  1  0  0  0  0
 13  1  1  0  0  0  0
 13 14  2  0  0  0  0
 15 14  1  0  0  0  0
 15 19  1  0  0  0  0
 16 15  2  0  0  0  0
 17 11  1  0  0  0  0
 18 12  1  0  0  0  0
 20 23  1  0  0  0  0
 21 20  1  0  0  0  0
 22 20  1  0  0  0  0
 23 24  2  0  0  0  0
 24 25  1  0  0  0  0
 26 25  1  0  0  0  0
M  END
>  <minimizedAffinity>
-4.47983742

$$$$

 OpenBabel03252508433D

 26 27  0  0  0  0  0  0  0  0999 V2000
   36.4190   27.6260   39.9610 C   0  0  0  0  0  0  0  0  0  0  0  0
   35.6630   28.7330   39.6140 C   0  0  0  0  0  0  0  0  0  0  0  0
   34.8600   28.7000   38.4960 C   0  0  0  0  0  0  0  0  0  0  0  0
   34.8280   27.5610   37.7460 C   0  0  0  0  0  0  0  0  0  0  0  0
   35.5570   26.4390   38.0480 C   0  0  0  0  0  0  0  0  0  0  0  0
   36.3620   26.5160   39.1950 C   0  0  0  0  0  0  0  0  0  0  0  0
   34.2540   29.5540   38.1960 H   0  0  0  0  0  0  0  0  0  0  0  0
   34.2100   27.4900   36.8590 H   0  0  0  0  0  0  0  0  0  0  0  0
   35.5810   25.4990   37.5000 H   0  0  0  0  0  0  0  0  0  0  0  0
   36.9760   25.6870   39.5220 H   0  0  0  0  0  0  0  0  0  0  0  0
   37.6850   27.5980   43.5170 C   0  0  0  0  0  0  0  0  0  0  0  0
   36.7930   27.4450   42.4270 C   0  0  0  0  0  0  0  0  0  0  0  0
   37.2400   27.7440   41.1560 C   0  0  0  0  0  0  0  0  0  0  0  0
   38.5170   28.1690   41.0430 N   0  0  0  0  0  0  0  0  0  0  0  0
   39.3690   28.3170   42.0770 C   0  0  0  0  0  0  0  0  0  0  0  0
   38.9480   28.0280   43.3310 N   0  0  0  0  0  0  0  0  0  0  0  0
   37.3400   27.3660   44.5170 H   0  0  0  0  0  0  0  0  0  0  0  0
   35.7880   27.1060   42.5540 H   0  0  0  0  0  0  0  0  0  0  0  0
   40.3620   28.6730   41.7780 H   0  0  0  0  0  0  0  0  0  0  0  0
   35.7220   29.9700   40.4580 C   0  0  0  0  0  0  0  0  0  0  0  0
   34.7100   30.2450   40.8140 H   0  0  0  0  0  0  0  0  0  0  0  0
   36.3040   29.6870   41.3610 H   0  0  0  0  0  0  0  0  0  0  0  0
   36.4200   31.0750   39.7880 C   0  0  0  0  0  3  0  0  0  0  0  0
   37.1610   31.9660   40.4800 C   0  0  0  0  0  3  0  0  0  0  0  0
   37.9160   33.1280   39.9260 C   0  0  0  0  0  2  0  0  0  0  0  0
   37.9040   33.9460   40.6480 H   0  0  0  0  0  0  0  0  0  0  0  0
  1 13  1  0  0  0  0
  2  1  1  0  0  0  0
  2 20  1  0  0  0  0
  3  2  2  0  0  0  0
  4  5  2  0  0  0  0
  4  3  1  0  0  0  0
  5  6  1  0  0  0  0
  6 10  1  0  0  0  0
  6  1  2  0  0  0  0
  7  3  1  0  0  0  0
  8  4  1  0  0  0  0
  9  5  1  0  0  0  0
 11 17  1  0  0  0  0
 12 18  1  0  0  0  0
 12 11  2  0  0  0  0
 13 12  1  0  0  0  0
 14 13  2  0  0  0  0
 14 15  1  0  0  0  0
 15 16  2  0  0  0  0
 16 11  1  0  0  0  0
 19 15  1  0  0  0  0
 20 21  1  0  0  0  0
 20 22  1  0  0  0  0
 23 20  1  0  0  0  0
 23 24  2  0  0  0  0
 25 24  1  0  0  0  0
 25 26  1  0  0  0  0
M  END
>  <minimizedAffinity>
-4.47578812

$$$$

 OpenBabel03252508433D

 26 27  0  0  0  0  0  0  0  0999 V2000
   38.5320   30.6840   41.4580 C   0  0  0  0  0  0  0  0  0  0  0  0
   37.2650   30.3020   41.0500 C   0  0  0  0  0  0  0  0  0  0  0  0
   36.6190   29.2610   41.6800 C   0  0  0  0  0  0  0  0  0  0  0  0
   37.2530   28.6230   42.7040 C   0  0  0  0  0  0  0  0  0  0  0  0
   38.5060   28.9630   43.1450 C   0  0  0  0  0  0  0  0  0  0  0  0
   39.1270   30.0280   42.4750 C   0  0  0  0  0  0  0  0  0  0  0  0
   35.6230   28.9370   41.3820 H   0  0  0  0  0  0  0  0  0  0  0  0
   36.7820   27.7990   43.2290 H   0  0  0  0  0  0  0  0  0  0  0  0
   39.0710   28.5010   43.9530 H   0  0  0  0  0  0  0  0  0  0  0  0
   40.1160   30.3770   42.7440 H   0  0  0  0  0  0  0  0  0  0  0  0
   40.5380   32.7880   39.0490 C   0  0  0  0  0  0  0  0  0  0  0  0
   40.0030   31.6330   39.6720 C   0  0  0  0  0  0  0  0  0  0  0  0
   39.1430   31.7920   40.7400 C   0  0  0  0  0  0  0  0  0  0  0  0
   38.8700   33.0590   41.1200 N   0  0  0  0  0  0  0  0  0  0  0  0
   39.3770   34.1610   40.5320 C   0  0  0  0  0  0  0  0  0  0  0  0
   40.2220   34.0250   39.4830 N   0  0  0  0  0  0  0  0  0  0  0  0
   41.2130   32.6710   38.2120 H   0  0  0  0  0  0  0  0  0  0  0  0
   40.2420   30.6450   39.3440 H   0  0  0  0  0  0  0  0  0  0  0  0
   39.0340   35.0970   40.9870 H   0  0  0  0  0  0  0  0  0  0  0  0
   36.5960   31.0250   39.9200 C   0  0  0  0  0  0  0  0  0  0  0  0
   35.6590   31.5040   40.2650 H   0  0  0  0  0  0  0  0  0  0  0  0
   37.2860   31.8500   39.6430 H   0  0  0  0  0  0  0  0  0  0  0  0
   36.4060   30.1690   38.7400 C   0  0  0  0  0  3  0  0  0  0  0  0
   37.0140   30.4390   37.5670 C   0  0  0  0  0  3  0  0  0  0  0  0
   36.9080   29.6570   36.2990 C   0  0  0  0  0  2  0  0  0  0  0  0
   36.9660   30.3380   35.4480 H   0  0  0  0  0  0  0  0  0  0  0  0
  1  6  1  0  0  0  0
  2  1  2  0  0  0  0
  2  3  1  0  0  0  0
  3  4  2  0  0  0  0
  4  5  1  0  0  0  0
  4  8  1  0  0  0  0
  5  9  1  0  0  0  0
  6 10  1  0  0  0  0
  6  5  2  0  0  0  0
  7  3  1  0  0  0  0
 11 16  2  0  0  0  0
 11 12  1  0  0  0  0
 12 13  2  0  0  0  0
 13 14  1  0  0  0  0
 13  1  1  0  0  0  0
 15 19  1  0  0  0  0
 15 14  2  0  0  0  0
 16 15  1  0  0  0  0
 17 11  1  0  0  0  0
 18 12  1  0  0  0  0
 20 21  1  0  0  0  0
 20  2  1  0  0  0  0
 22 20  1  0  0  0  0
 23 20  1  0  0  0  0
 24 23  2  0  0  0  0
 25 24  1  0  0  0  0
 26 25  1  0  0  0  0
M  END
>  <minimizedAffinity>
-4.42341137

$$$$
