
 OpenBabel03242519323D

 43 45  0  0  0  0  0  0  0  0999 V2000
   47.9080   33.8580   42.8510 C   0  0  0  0  0  0  0  0  0  0  0  0
   48.5640   35.1070   42.6400 C   0  0  0  0  0  0  0  0  0  0  0  0
   49.9280   35.1320   42.3250 C   0  0  0  0  0  0  0  0  0  0  0  0
   50.5560   33.9160   42.2400 N   0  0  0  0  0  0  0  0  0  0  0  0
   49.8830   32.7370   42.4510 C   0  0  0  0  0  0  0  0  0  0  0  0
   48.5940   32.7290   42.7470 N   0  0  0  0  0  0  0  0  0  0  0  0
   48.1240   36.0940   42.6950 H   0  0  0  0  0  0  0  0  0  0  0  0
   50.4640   36.0350   42.1590 H   0  0  0  0  0  0  0  0  0  0  0  0
   46.4860   33.9750   43.1760 C   0  0  0  0  0  0  0  0  0  0  0  0
   45.7650   34.9770   42.4320 C   0  0  0  0  0  0  0  0  0  0  0  0
   45.2920   36.1260   43.2360 C   0  0  0  0  0  0  0  0  0  0  0  0
   44.4310   35.6530   44.4100 C   0  0  0  0  0  0  0  0  0  0  0  0
   44.9830   34.4680   45.1160 C   0  0  0  0  0  0  0  0  0  0  0  0
   46.4320   34.2070   44.7260 C   0  0  0  0  0  0  0  0  0  0  0  0
   46.0300   32.9490   43.0460 H   0  0  0  0  0  0  0  0  0  0  0  0
   46.4070   35.3990   41.6080 H   0  0  0  0  0  0  0  0  0  0  0  0
   44.8750   34.5590   41.9080 H   0  0  0  0  0  0  0  0  0  0  0  0
   46.0350   36.7970   43.6530 H   0  0  0  0  0  0  0  0  0  0  0  0
   44.6110   36.7660   42.6120 H   0  0  0  0  0  0  0  0  0  0  0  0
   43.4040   35.4690   44.0130 H   0  0  0  0  0  0  0  0  0  0  0  0
   44.3160   36.4720   45.1570 H   0  0  0  0  0  0  0  0  0  0  0  0
   44.4330   33.5260   44.8900 H   0  0  0  0  0  0  0  0  0  0  0  0
   44.9820   34.5920   46.2060 H   0  0  0  0  0  0  0  0  0  0  0  0
   46.7320   33.2420   45.1660 H   0  0  0  0  0  0  0  0  0  0  0  0
   47.0910   35.0540   44.9890 H   0  0  0  0  0  0  0  0  0  0  0  0
   50.7220   31.5520   42.3210 C   0  0  0  0  0  0  0  0  0  0  0  0
   51.4300   31.3710   41.1950 N   0  0  0  0  0  0  0  0  0  0  0  0
   52.1310   30.2110   41.2980 C   0  0  0  0  0  0  0  0  0  0  0  0
   51.8390   29.6860   42.5040 N   0  0  0  0  0  0  0  0  0  0  0  0
   50.9830   30.4940   43.1340 N   0  0  0  0  0  0  0  0  0  0  0  0
   52.8030   29.7830   40.5430 H   0  0  0  0  0  0  0  0  0  0  0  0
   52.3560   28.4670   43.0820 C   0  0  0  0  0  0  0  0  0  0  0  0
   52.4240   27.6400   42.3990 H   0  0  0  0  0  0  0  0  0  0  0  0
   51.6420   28.1350   43.8890 H   0  0  0  0  0  0  0  0  0  0  0  0
   53.6300   28.7370   43.7430 C   0  0  0  0  0  3  0  0  0  0  0  0
   54.0400   29.5800   44.6630 C   0  0  0  0  0  3  0  0  0  0  0  0
   55.4190   29.6910   45.3260 C   0  0  0  0  0  0  0  0  0  0  0  0
   55.2700   30.4970   46.0730 H   0  0  0  0  0  0  0  0  0  0  0  0
   55.6120   28.6970   45.7940 H   0  0  0  0  0  0  0  0  0  0  0  0
   56.3750   30.0740   44.2850 C   0  0  0  0  0  2  0  0  0  0  0  0
   57.1610   30.5380   43.3300 C   0  0  0  0  0  2  0  0  0  0  0  0
   58.4010   30.0930   42.5970 C   0  0  0  0  0  2  0  0  0  0  0  0
   58.6350   29.0540   42.9870 H   0  0  0  0  0  0  0  0  0  0  0  0
  1  9  1  0  0  0  0
  2  7  1  0  0  0  0
  2  1  2  0  0  0  0
  3  2  1  0  0  0  0
  4  3  2  0  0  0  0
  4  5  1  0  0  0  0
  5  6  2  0  0  0  0
  6  1  1  0  0  0  0
  8  3  1  0  0  0  0
  9 14  1  0  0  0  0
 10  9  1  0  0  0  0
 10 11  1  0  0  0  0
 11 18  1  0  0  0  0
 11 12  1  0  0  0  0
 12 13  1  0  0  0  0
 12 21  1  0  0  0  0
 13 23  1  0  0  0  0
 14 25  1  0  0  0  0
 14 13  1  0  0  0  0
 14 24  1  0  0  0  0
 15  9  1  0  0  0  0
 16 10  1  0  0  0  0
 17 10  1  0  0  0  0
 19 11  1  0  0  0  0
 20 12  1  0  0  0  0
 22 13  1  0  0  0  0
 26  5  1  0  0  0  0
 26 30  2  0  0  0  0
 27 28  2  0  0  0  0
 27 26  1  0  0  0  0
 28 29  1  0  0  0  0
 29 32  1  0  0  0  0
 29 30  1  0  0  0  0
 31 28  1  0  0  0  0
 32 35  1  0  0  0  0
 32 34  1  0  0  0  0
 33 32  1  0  0  0  0
 35 36  2  0  0  0  0
 36 37  1  0  0  0  0
 37 39  1  0  0  0  0
 37 38  1  0  0  0  0
 40 37  1  0  0  0  0
 41 40  1  0  0  0  0
 42 43  1  0  0  0  0
 42 41  1  0  0  0  0
M  END
>  <minimizedAffinity>
-4.09146023

>  <minimizedRMSD>
0.817673743

$$$$
