
 OpenBabel03252508473D

 40 41  0  0  0  0  0  0  0  0999 V2000
   42.9760   32.4820   41.6450 C   0  0  0  0  0  0  0  0  0  0  0  0
   43.5360   32.0220   40.7910 H   0  0  0  0  0  0  0  0  0  0  0  0
   42.0680   32.9360   41.2370 H   0  0  0  0  0  0  0  0  0  0  0  0
   43.6170   34.8970   41.8730 C   0  0  0  0  0  0  0  0  0  0  0  0
   43.8520   33.5580   42.1800 C   0  0  0  0  0  0  0  0  0  0  0  0
   44.9290   33.2700   42.9990 C   0  0  0  0  0  0  0  0  0  0  0  0
   45.7200   34.2700   43.4790 C   0  0  0  0  0  0  0  0  0  0  0  0
   45.5050   35.5880   43.1890 C   0  0  0  0  0  0  0  0  0  0  0  0
   44.4230   35.8440   42.3700 C   0  0  0  0  0  0  0  0  0  0  0  0
   45.1400   32.2510   43.2550 H   0  0  0  0  0  0  0  0  0  0  0  0
   46.5590   34.0050   44.1210 H   0  0  0  0  0  0  0  0  0  0  0  0
   46.1230   36.3990   43.5610 H   0  0  0  0  0  0  0  0  0  0  0  0
   44.2210   36.8880   42.1170 H   0  0  0  0  0  0  0  0  0  0  0  0
   40.1670   35.7220   40.5330 C   0  0  0  0  0  0  0  0  0  0  0  0
   41.2060   35.4940   41.4590 C   0  0  0  0  0  0  0  0  0  0  0  0
   42.4680   35.1550   41.0040 C   0  0  0  0  0  0  0  0  0  0  0  0
   42.6440   35.0570   39.6600 N   0  0  0  0  0  0  0  0  0  0  0  0
   41.6340   35.2810   38.7790 C   0  0  0  0  0  0  0  0  0  0  0  0
   40.4040   35.6120   39.2320 N   0  0  0  0  0  0  0  0  0  0  0  0
   39.2120   35.9830   40.9750 H   0  0  0  0  0  0  0  0  0  0  0  0
   41.0890   35.5660   42.5360 H   0  0  0  0  0  0  0  0  0  0  0  0
   41.8980   35.1730   37.7410 H   0  0  0  0  0  0  0  0  0  0  0  0
   42.6890   31.4400   42.5900 N   0  0  0  0  0  0  0  0  0  0  0  0
   43.2640   30.5830   42.4390 H   0  0  0  0  0  0  0  0  0  0  0  0
   41.0250   31.0470   42.6270 S   0  0  0  0  0  0  0  0  0  0  0  0
   40.1800   32.2980   42.5040 O   0  0  0  0  0  0  0  0  0  0  0  0
   39.3480   32.4950   43.0010 H   0  0  0  0  0  0  0  0  0  0  0  0
   40.6830   30.3190   43.8900 O   0  0  0  0  0  0  0  0  0  0  0  0
   41.3430   29.8380   44.4710 H   0  0  0  0  0  0  0  0  0  0  0  0
   40.6950   30.0580   41.3170 O   0  0  0  0  0  0  0  0  0  0  0  0
   39.4140   30.3550   40.8750 C   0  0  0  0  0  0  0  0  0  0  0  0
   39.4090   30.1800   39.7650 H   0  0  0  0  0  0  0  0  0  0  0  0
   39.0480   31.3470   41.1330 H   0  0  0  0  0  0  0  0  0  0  0  0
   38.4370   29.2890   41.4130 C   0  0  0  0  0  0  0  0  0  0  0  0
   38.7350   28.2870   41.0630 H   0  0  0  0  0  0  0  0  0  0  0  0
   38.3820   29.3550   42.5170 H   0  0  0  0  0  0  0  0  0  0  0  0
   37.1080   29.6810   40.8670 C   0  0  0  0  0  3  0  0  0  0  0  0
   36.4580   29.0420   39.9290 C   0  0  0  0  0  3  0  0  0  0  0  0
   37.0340   27.8300   39.3230 C   0  0  0  0  0  2  0  0  0  0  0  0
   36.1940   27.2370   38.8570 H   0  0  0  0  0  0  0  0  0  0  0  0
  1  5  1  0  0  0  0
  1 23  1  0  0  0  0
  2  1  1  0  0  0  0
  3  1  1  0  0  0  0
  4  5  2  0  0  0  0
  4  9  1  0  0  0  0
  5  6  1  0  0  0  0
  6 10  1  0  0  0  0
  6  7  2  0  0  0  0
  7 11  1  0  0  0  0
  8  7  1  0  0  0  0
  8 12  1  0  0  0  0
  9  8  2  0  0  0  0
 13  9  1  0  0  0  0
 14 20  1  0  0  0  0
 14 15  1  0  0  0  0
 15 21  1  0  0  0  0
 16 15  2  0  0  0  0
 16  4  1  0  0  0  0
 17 16  1  0  0  0  0
 18 19  1  0  0  0  0
 18 17  2  0  0  0  0
 19 14  2  0  0  0  0
 22 18  1  0  0  0  0
 23 25  1  0  0  0  0
 24 23  1  0  0  0  0
 25 28  1  0  0  0  0
 26 25  1  0  0  0  0
 26 27  1  0  0  0  0
 28 29  1  0  0  0  0
 30 25  1  0  0  0  0
 31 33  1  0  0  0  0
 31 30  1  0  0  0  0
 31 34  1  0  0  0  0
 32 31  1  0  0  0  0
 34 36  1  0  0  0  0
 35 34  1  0  0  0  0
 37 34  1  0  0  0  0
 38 37  2  0  0  0  0
 39 38  1  0  0  0  0
 40 39  1  0  0  0  0
M  END
>  <minimizedAffinity>
-5.11063623

>  <minimizedRMSD>
1.44873238

$$$$
