
 OpenBabel03242519543D

 35 36  0  0  1  0  0  0  0  0999 V2000
   47.3350   34.0730   42.5030 C   0  0  2  0  0  0  0  0  0  0  0  0
   48.6830   34.6640   42.6650 C   0  0  0  0  0  0  0  0  0  0  0  0
   48.9750   35.7250   41.6600 C   0  0  0  0  0  0  0  0  0  0  0  0
   48.7640   35.2890   40.2310 C   0  0  0  0  0  0  0  0  0  0  0  0
   47.6240   34.3390   40.0410 C   0  0  2  0  0  0  0  0  0  0  0  0
   46.6620   34.3970   41.2110 C   0  0  0  0  0  0  0  0  0  0  0  0
   47.4930   32.9480   42.5270 H   0  0  0  0  0  0  0  0  0  0  0  0
   48.6950   35.1740   43.6610 H   0  0  0  0  0  0  0  0  0  0  0  0
   49.4960   33.9140   42.7350 H   0  0  0  0  0  0  0  0  0  0  0  0
   50.0790   35.9470   41.7470 H   0  0  0  0  0  0  0  0  0  0  0  0
   48.4610   36.6670   41.9070 H   0  0  0  0  0  0  0  0  0  0  0  0
   48.5410   36.2190   39.6620 H   0  0  0  0  0  0  0  0  0  0  0  0
   49.6880   34.8770   39.7760 H   0  0  0  0  0  0  0  0  0  0  0  0
   47.0080   34.6450   39.1440 H   0  0  0  0  0  0  0  0  0  0  0  0
   45.8830   33.5980   41.0040 H   0  0  0  0  0  0  0  0  0  0  0  0
   46.1490   35.3370   41.1090 H   0  0  0  0  0  0  0  0  0  0  0  0
   46.4230   34.3830   43.6170 C   0  0  0  0  0  0  0  0  0  0  0  0
   45.5890   35.4720   43.3780 C   0  0  0  0  0  0  0  0  0  0  0  0
   44.6590   35.8660   44.3440 C   0  0  0  0  0  0  0  0  0  0  0  0
   44.6390   35.1150   45.5070 N   0  0  0  0  0  0  0  0  0  0  0  0
   45.4650   34.0680   45.7000 C   0  0  0  0  0  0  0  0  0  0  0  0
   46.3420   33.7160   44.7580 N   0  0  0  0  0  0  0  0  0  0  0  0
   45.4390   36.1860   42.5820 H   0  0  0  0  0  0  0  0  0  0  0  0
   43.9410   36.6420   44.3750 H   0  0  0  0  0  0  0  0  0  0  0  0
   45.4140   33.5140   46.6220 H   0  0  0  0  0  0  0  0  0  0  0  0
   48.1450   32.9850   39.7500 C   0  0  0  0  0  0  0  0  0  0  0  0
   48.6470   32.6070   40.6710 H   0  0  0  0  0  0  0  0  0  0  0  0
   48.9260   33.0700   38.9870 H   0  0  0  0  0  0  0  0  0  0  0  0
   47.1550   31.9700   39.3300 C   0  0  0  0  0  0  0  0  0  0  0  0
   46.1850   32.1080   39.8650 H   0  0  0  0  0  0  0  0  0  0  0  0
   47.5310   30.9710   39.6100 H   0  0  0  0  0  0  0  0  0  0  0  0
   46.8740   31.9430   37.8870 C   0  0  0  0  0  0  0  0  0  0  0  0
   45.8270   32.5680   37.3530 C   0  0  0  0  0  0  0  0  0  0  0  0
   45.5480   32.5360   35.8930 C   0  0  0  0  0  0  0  0  0  0  0  0
   45.3990   31.4940   35.5440 H   0  0  0  0  0  0  0  0  0  0  0  0
  1  7  1  1  0  0  0
  1  2  1  0  0  0  0
  1 17  1  0  0  0  0
  2  9  1  0  0  0  0
  2  8  1  0  0  0  0
  3 10  1  0  0  0  0
  3 11  1  0  0  0  0
  3  2  1  0  0  0  0
  4  3  1  0  0  0  0
  5 14  1  6  0  0  0
  5  4  1  0  0  0  0
  5  6  1  0  0  0  0
  6  1  1  0  0  0  0
 12  4  1  0  0  0  0
 13  4  1  0  0  0  0
 15  6  1  0  0  0  0
 16  6  1  0  0  0  0
 17 22  1  0  0  0  0
 18 17  2  0  0  0  0
 18 19  1  0  0  0  0
 19 24  1  0  0  0  0
 19 20  2  0  0  0  0
 20 21  1  0  0  0  0
 21 25  1  0  0  0  0
 22 21  2  0  0  0  0
 23 18  1  0  0  0  0
 26  5  1  0  0  0  0
 26 27  1  0  0  0  0
 28 26  1  0  0  0  0
 29 31  1  0  0  0  0
 29 26  1  0  0  0  0
 29 30  1  0  0  0  0
 32 29  1  0  0  0  0
 33 32  2  0  0  0  0
 34 33  1  0  0  0  0
 35 34  1  0  0  0  0
M  END
>  <minimizedAffinity>
-4.97326374

>  <minimizedRMSD>
0.472564101

$$$$
