
 OpenBabel03252508473D

 40 41  0  0  0  0  0  0  0  0999 V2000
   43.0230   32.5220   41.6300 C   0  0  0  0  0  0  0  0  0  0  0  0
   43.6020   32.0500   40.7950 H   0  0  0  0  0  0  0  0  0  0  0  0
   42.1310   32.9810   41.1930 H   0  0  0  0  0  0  0  0  0  0  0  0
   43.6600   34.9350   41.8820 C   0  0  0  0  0  0  0  0  0  0  0  0
   43.8940   33.5940   42.1810 C   0  0  0  0  0  0  0  0  0  0  0  0
   44.9640   33.3000   43.0060 C   0  0  0  0  0  0  0  0  0  0  0  0
   45.7500   34.2970   43.5000 C   0  0  0  0  0  0  0  0  0  0  0  0
   45.5370   35.6170   43.2190 C   0  0  0  0  0  0  0  0  0  0  0  0
   44.4610   35.8790   42.3940 C   0  0  0  0  0  0  0  0  0  0  0  0
   45.1740   32.2790   43.2550 H   0  0  0  0  0  0  0  0  0  0  0  0
   46.5850   34.0280   44.1470 H   0  0  0  0  0  0  0  0  0  0  0  0
   46.1510   36.4250   43.6030 H   0  0  0  0  0  0  0  0  0  0  0  0
   44.2610   36.9240   42.1480 H   0  0  0  0  0  0  0  0  0  0  0  0
   40.2310   35.8080   40.5200 C   0  0  0  0  0  0  0  0  0  0  0  0
   41.2640   35.5780   41.4530 C   0  0  0  0  0  0  0  0  0  0  0  0
   42.5180   35.1990   41.0070 C   0  0  0  0  0  0  0  0  0  0  0  0
   42.6920   35.0670   39.6650 N   0  0  0  0  0  0  0  0  0  0  0  0
   41.6880   35.2930   38.7790 C   0  0  0  0  0  0  0  0  0  0  0  0
   40.4650   35.6630   39.2220 N   0  0  0  0  0  0  0  0  0  0  0  0
   39.2820   36.1010   40.9560 H   0  0  0  0  0  0  0  0  0  0  0  0
   41.1480   35.6760   42.5270 H   0  0  0  0  0  0  0  0  0  0  0  0
   41.9500   35.1550   37.7440 H   0  0  0  0  0  0  0  0  0  0  0  0
   42.7010   31.4900   42.5750 N   0  0  0  0  0  0  0  0  0  0  0  0
   43.2620   30.6220   42.4370 H   0  0  0  0  0  0  0  0  0  0  0  0
   41.0290   31.1290   42.5860 S   0  0  0  0  0  0  0  0  0  0  0  0
   40.2100   32.4000   42.5000 O   0  0  0  0  0  0  0  0  0  0  0  0
   39.3780   32.5960   42.9980 H   0  0  0  0  0  0  0  0  0  0  0  0
   40.6620   30.3640   43.8200 O   0  0  0  0  0  0  0  0  0  0  0  0
   41.3080   29.8500   44.3880 H   0  0  0  0  0  0  0  0  0  0  0  0
   40.6900   30.1930   41.2400 O   0  0  0  0  0  0  0  0  0  0  0  0
   39.3680   29.7810   41.3320 C   0  0  0  0  0  0  0  0  0  0  0  0
   38.7470   30.5830   40.8470 H   0  0  0  0  0  0  0  0  0  0  0  0
   39.0210   29.5460   42.3360 H   0  0  0  0  0  0  0  0  0  0  0  0
   39.1580   28.5590   40.4140 C   0  0  0  0  0  0  0  0  0  0  0  0
   38.7310   28.8740   39.4480 H   0  0  0  0  0  0  0  0  0  0  0  0
   40.1130   28.0100   40.2980 H   0  0  0  0  0  0  0  0  0  0  0  0
   38.2170   27.6790   41.1620 C   0  0  0  0  0  3  0  0  0  0  0  0
   36.9480   27.5270   40.8900 C   0  0  0  0  0  3  0  0  0  0  0  0
   36.3380   28.2570   39.7640 C   0  0  0  0  0  2  0  0  0  0  0  0
   35.3960   27.7130   39.4620 H   0  0  0  0  0  0  0  0  0  0  0  0
  1  5  1  0  0  0  0
  1 23  1  0  0  0  0
  2  1  1  0  0  0  0
  3  1  1  0  0  0  0
  4  5  2  0  0  0  0
  4  9  1  0  0  0  0
  5  6  1  0  0  0  0
  6 10  1  0  0  0  0
  6  7  2  0  0  0  0
  7 11  1  0  0  0  0
  8  7  1  0  0  0  0
  8 12  1  0  0  0  0
  9  8  2  0  0  0  0
 13  9  1  0  0  0  0
 14 20  1  0  0  0  0
 14 15  1  0  0  0  0
 15 21  1  0  0  0  0
 16 15  2  0  0  0  0
 16  4  1  0  0  0  0
 17 16  1  0  0  0  0
 18 19  1  0  0  0  0
 18 17  2  0  0  0  0
 19 14  2  0  0  0  0
 22 18  1  0  0  0  0
 23 25  1  0  0  0  0
 24 23  1  0  0  0  0
 25 28  1  0  0  0  0
 26 25  1  0  0  0  0
 26 27  1  0  0  0  0
 28 29  1  0  0  0  0
 30 31  1  0  0  0  0
 30 25  1  0  0  0  0
 31 33  1  0  0  0  0
 32 31  1  0  0  0  0
 34 37  1  0  0  0  0
 34 31  1  0  0  0  0
 35 34  1  0  0  0  0
 36 34  1  0  0  0  0
 38 37  2  0  0  0  0
 39 38  1  0  0  0  0
 40 39  1  0  0  0  0
M  END
>  <minimizedAffinity>
-5.02172327

>  <minimizedRMSD>
1.11051333

$$$$
