
 OpenBabel03242519313D

 43 45  0  0  0  0  0  0  0  0999 V2000
   47.9050   33.8570   42.8490 C   0  0  0  0  0  0  0  0  0  0  0  0
   48.5640   35.1050   42.6410 C   0  0  0  0  0  0  0  0  0  0  0  0
   49.9270   35.1280   42.3260 C   0  0  0  0  0  0  0  0  0  0  0  0
   50.5530   33.9110   42.2370 N   0  0  0  0  0  0  0  0  0  0  0  0
   49.8780   32.7330   42.4460 C   0  0  0  0  0  0  0  0  0  0  0  0
   48.5890   32.7270   42.7420 N   0  0  0  0  0  0  0  0  0  0  0  0
   48.1250   36.0920   42.6990 H   0  0  0  0  0  0  0  0  0  0  0  0
   50.4650   36.0300   42.1620 H   0  0  0  0  0  0  0  0  0  0  0  0
   46.4840   33.9760   43.1750 C   0  0  0  0  0  0  0  0  0  0  0  0
   45.7630   34.9780   42.4310 C   0  0  0  0  0  0  0  0  0  0  0  0
   45.2920   36.1280   43.2360 C   0  0  0  0  0  0  0  0  0  0  0  0
   44.4310   35.6560   44.4100 C   0  0  0  0  0  0  0  0  0  0  0  0
   44.9830   34.4700   45.1150 C   0  0  0  0  0  0  0  0  0  0  0  0
   46.4300   34.2070   44.7250 C   0  0  0  0  0  0  0  0  0  0  0  0
   46.0260   32.9500   43.0450 H   0  0  0  0  0  0  0  0  0  0  0  0
   46.4050   35.3990   41.6070 H   0  0  0  0  0  0  0  0  0  0  0  0
   44.8720   34.5620   41.9080 H   0  0  0  0  0  0  0  0  0  0  0  0
   46.0360   36.7980   43.6530 H   0  0  0  0  0  0  0  0  0  0  0  0
   44.6120   36.7690   42.6120 H   0  0  0  0  0  0  0  0  0  0  0  0
   43.4040   35.4740   44.0130 H   0  0  0  0  0  0  0  0  0  0  0  0
   44.3180   36.4750   45.1570 H   0  0  0  0  0  0  0  0  0  0  0  0
   44.4310   33.5280   44.8900 H   0  0  0  0  0  0  0  0  0  0  0  0
   44.9820   34.5930   46.2060 H   0  0  0  0  0  0  0  0  0  0  0  0
   46.7290   33.2420   45.1650 H   0  0  0  0  0  0  0  0  0  0  0  0
   47.0910   35.0540   44.9880 H   0  0  0  0  0  0  0  0  0  0  0  0
   50.7150   31.5470   42.3120 C   0  0  0  0  0  0  0  0  0  0  0  0
   51.3750   31.3360   41.1620 N   0  0  0  0  0  0  0  0  0  0  0  0
   52.0830   30.1810   41.2670 C   0  0  0  0  0  0  0  0  0  0  0  0
   51.8450   29.6890   42.4990 N   0  0  0  0  0  0  0  0  0  0  0  0
   51.0140   30.5120   43.1420 N   0  0  0  0  0  0  0  0  0  0  0  0
   52.7240   29.7340   40.4960 H   0  0  0  0  0  0  0  0  0  0  0  0
   52.3900   28.4880   43.0870 C   0  0  0  0  0  0  0  0  0  0  0  0
   52.4720   27.6540   42.4120 H   0  0  0  0  0  0  0  0  0  0  0  0
   51.6880   28.1500   43.9010 H   0  0  0  0  0  0  0  0  0  0  0  0
   53.6630   28.7920   43.7380 C   0  0  0  0  0  3  0  0  0  0  0  0
   54.0420   29.5880   44.7100 C   0  0  0  0  0  3  0  0  0  0  0  0
   55.4290   29.7400   45.3490 C   0  0  0  0  0  0  0  0  0  0  0  0
   55.2920   30.5990   46.0370 H   0  0  0  0  0  0  0  0  0  0  0  0
   55.6240   28.7820   45.8850 H   0  0  0  0  0  0  0  0  0  0  0  0
   56.3750   30.0430   44.2720 C   0  0  0  0  0  2  0  0  0  0  0  0
   57.1810   30.4510   43.3090 C   0  0  0  0  0  2  0  0  0  0  0  0
   58.2230   29.8460   42.4020 C   0  0  0  0  0  2  0  0  0  0  0  0
   58.2250   28.7350   42.6310 H   0  0  0  0  0  0  0  0  0  0  0  0
  1  9  1  0  0  0  0
  2  7  1  0  0  0  0
  2  1  2  0  0  0  0
  3  2  1  0  0  0  0
  4  3  2  0  0  0  0
  4  5  1  0  0  0  0
  5  6  2  0  0  0  0
  6  1  1  0  0  0  0
  8  3  1  0  0  0  0
  9 14  1  0  0  0  0
 10  9  1  0  0  0  0
 10 11  1  0  0  0  0
 11 18  1  0  0  0  0
 11 12  1  0  0  0  0
 12 13  1  0  0  0  0
 12 21  1  0  0  0  0
 13 23  1  0  0  0  0
 14 25  1  0  0  0  0
 14 13  1  0  0  0  0
 14 24  1  0  0  0  0
 15  9  1  0  0  0  0
 16 10  1  0  0  0  0
 17 10  1  0  0  0  0
 19 11  1  0  0  0  0
 20 12  1  0  0  0  0
 22 13  1  0  0  0  0
 26  5  1  0  0  0  0
 26 30  2  0  0  0  0
 27 28  2  0  0  0  0
 27 26  1  0  0  0  0
 28 29  1  0  0  0  0
 29 32  1  0  0  0  0
 29 30  1  0  0  0  0
 31 28  1  0  0  0  0
 32 35  1  0  0  0  0
 32 34  1  0  0  0  0
 33 32  1  0  0  0  0
 35 36  2  0  0  0  0
 36 37  1  0  0  0  0
 37 39  1  0  0  0  0
 37 38  1  0  0  0  0
 40 37  1  0  0  0  0
 41 40  1  0  0  0  0
 42 43  1  0  0  0  0
 42 41  1  0  0  0  0
M  END
>  <minimizedAffinity>
-4.08472109

>  <minimizedRMSD>
0.824683189

$$$$
