
 OpenBabel03252508473D

 40 41  0  0  0  0  0  0  0  0999 V2000
   42.9880   32.4180   41.7040 C   0  0  0  0  0  0  0  0  0  0  0  0
   43.5450   31.9400   40.8580 H   0  0  0  0  0  0  0  0  0  0  0  0
   42.0950   32.8920   41.2840 H   0  0  0  0  0  0  0  0  0  0  0  0
   43.6820   34.8170   41.9300 C   0  0  0  0  0  0  0  0  0  0  0  0
   43.8840   33.4740   42.2430 C   0  0  0  0  0  0  0  0  0  0  0  0
   44.9480   33.1640   43.0700 C   0  0  0  0  0  0  0  0  0  0  0  0
   45.7580   34.1470   43.5530 C   0  0  0  0  0  0  0  0  0  0  0  0
   45.5760   35.4680   43.2580 C   0  0  0  0  0  0  0  0  0  0  0  0
   44.5070   35.7480   42.4300 C   0  0  0  0  0  0  0  0  0  0  0  0
   45.1330   32.1410   43.3310 H   0  0  0  0  0  0  0  0  0  0  0  0
   46.5860   33.8650   44.2030 H   0  0  0  0  0  0  0  0  0  0  0  0
   46.2100   36.2660   43.6330 H   0  0  0  0  0  0  0  0  0  0  0  0
   44.3310   36.7940   42.1730 H   0  0  0  0  0  0  0  0  0  0  0  0
   40.2650   35.7250   40.5610 C   0  0  0  0  0  0  0  0  0  0  0  0
   41.2910   35.4760   41.4960 C   0  0  0  0  0  0  0  0  0  0  0  0
   42.5470   35.0990   41.0520 C   0  0  0  0  0  0  0  0  0  0  0  0
   42.7290   34.9870   39.7090 N   0  0  0  0  0  0  0  0  0  0  0  0
   41.7300   35.2300   38.8200 C   0  0  0  0  0  0  0  0  0  0  0  0
   40.5070   35.5980   39.2620 N   0  0  0  0  0  0  0  0  0  0  0  0
   39.3150   36.0150   40.9950 H   0  0  0  0  0  0  0  0  0  0  0  0
   41.1700   35.5590   42.5710 H   0  0  0  0  0  0  0  0  0  0  0  0
   41.9980   35.1070   37.7850 H   0  0  0  0  0  0  0  0  0  0  0  0
   42.6650   31.3880   42.6510 N   0  0  0  0  0  0  0  0  0  0  0  0
   43.2440   30.5290   42.5320 H   0  0  0  0  0  0  0  0  0  0  0  0
   41.0000   30.9970   42.6340 S   0  0  0  0  0  0  0  0  0  0  0  0
   40.1710   32.2210   42.3040 O   0  0  0  0  0  0  0  0  0  0  0  0
   39.3100   32.4760   42.7210 H   0  0  0  0  0  0  0  0  0  0  0  0
   40.5770   30.4310   43.9540 O   0  0  0  0  0  0  0  0  0  0  0  0
   41.1980   30.0270   44.6300 H   0  0  0  0  0  0  0  0  0  0  0  0
   40.7470   29.8520   41.4390 O   0  0  0  0  0  0  0  0  0  0  0  0
   40.2010   28.7270   42.0400 C   0  0  0  0  0  0  0  0  0  0  0  0
   39.5210   28.2550   41.2800 H   0  0  0  0  0  0  0  0  0  0  0  0
   39.6950   28.9020   42.9880 H   0  0  0  0  0  0  0  0  0  0  0  0
   41.3110   27.6730   42.2350 C   0  0  0  0  0  0  0  0  0  0  0  0
   41.4170   27.0570   41.3270 H   0  0  0  0  0  0  0  0  0  0  0  0
   42.2570   28.1750   42.5220 H   0  0  0  0  0  0  0  0  0  0  0  0
   40.8600   26.8560   43.3960 C   0  0  0  0  0  3  0  0  0  0  0  0
   41.3950   26.8820   44.5890 C   0  0  0  0  0  3  0  0  0  0  0  0
   42.5370   27.7690   44.8710 C   0  0  0  0  0  2  0  0  0  0  0  0
   42.5850   27.9350   45.9860 H   0  0  0  0  0  0  0  0  0  0  0  0
  1  5  1  0  0  0  0
  1 23  1  0  0  0  0
  2  1  1  0  0  0  0
  3  1  1  0  0  0  0
  4  5  2  0  0  0  0
  4  9  1  0  0  0  0
  5  6  1  0  0  0  0
  6 10  1  0  0  0  0
  6  7  2  0  0  0  0
  7 11  1  0  0  0  0
  8  7  1  0  0  0  0
  8 12  1  0  0  0  0
  9  8  2  0  0  0  0
 13  9  1  0  0  0  0
 14 20  1  0  0  0  0
 14 15  1  0  0  0  0
 15 21  1  0  0  0  0
 16 15  2  0  0  0  0
 16  4  1  0  0  0  0
 17 16  1  0  0  0  0
 18 19  1  0  0  0  0
 18 17  2  0  0  0  0
 19 14  2  0  0  0  0
 22 18  1  0  0  0  0
 24 23  1  0  0  0  0
 25 23  1  0  0  0  0
 25 28  1  0  0  0  0
 26 25  1  0  0  0  0
 26 27  1  0  0  0  0
 28 29  1  0  0  0  0
 30 31  1  0  0  0  0
 30 25  1  0  0  0  0
 31 34  1  0  0  0  0
 31 33  1  0  0  0  0
 32 31  1  0  0  0  0
 34 36  1  0  0  0  0
 34 37  1  0  0  0  0
 35 34  1  0  0  0  0
 37 38  2  0  0  0  0
 38 39  1  0  0  0  0
 39 40  1  0  0  0  0
M  END
>  <minimizedAffinity>
-4.74312544

>  <minimizedRMSD>
0.812218308

$$$$
