
 OpenBabel03252503443D

 29 30  0  0  1  0  0  0  0  0999 V2000
   36.9630   27.5870   42.4070 C   0  0  0  0  0  0  0  0  0  0  0  0
   37.2440   26.4980   41.5610 C   0  0  0  0  0  0  0  0  0  0  0  0
   37.8050   26.8070   40.3120 C   0  0  0  0  0  0  0  0  0  0  0  0
   38.0390   28.0860   40.0010 N   0  0  0  0  0  0  0  0  0  0  0  0
   37.7580   29.0960   40.8370 C   0  0  0  0  0  0  0  0  0  0  0  0
   37.2170   28.8550   42.0470 N   0  0  0  0  0  0  0  0  0  0  0  0
   36.5290   27.4350   43.3870 H   0  0  0  0  0  0  0  0  0  0  0  0
   38.0010   25.9640   39.7010 H   0  0  0  0  0  0  0  0  0  0  0  0
   36.8300   31.2500   39.9600 C   0  0  2  0  0  0  0  0  0  0  0  0
   38.0830   30.4470   40.3820 C   0  0  1  0  0  0  0  0  0  0  0  0
   38.6050   31.2740   41.3380 O   0  0  0  0  0  0  0  0  0  0  0  0
   38.5460   32.5470   40.8350 C   0  0  0  0  0  0  0  0  0  0  0  0
   37.5440   32.5900   39.7090 C   0  0  2  0  0  0  0  0  0  0  0  0
   36.3690   30.8390   39.0640 H   0  0  0  0  0  0  0  0  0  0  0  0
   38.7200   30.3470   39.4820 H   0  0  0  0  0  0  0  0  0  0  0  0
   38.2010   33.2890   41.5890 H   0  0  0  0  0  0  0  0  0  0  0  0
   39.5540   32.8720   40.5240 H   0  0  0  0  0  0  0  0  0  0  0  0
   38.0740   32.4780   38.7560 H   0  0  0  0  0  0  0  0  0  0  0  0
   36.0490   31.4250   41.0540 O   0  0  0  0  0  0  0  0  0  0  0  0
   35.7960   30.5890   41.5350 H   0  0  0  0  0  0  0  0  0  0  0  0
   36.6810   33.6580   39.7540 O   0  0  0  0  0  0  0  0  0  0  0  0
   37.0560   34.2920   40.4280 H   0  0  0  0  0  0  0  0  0  0  0  0
   36.9370   25.1520   42.0850 C   0  0  0  0  0  0  0  0  0  0  0  0
   36.3540   25.2840   43.0230 H   0  0  0  0  0  0  0  0  0  0  0  0
   36.2230   24.6190   41.3970 H   0  0  0  0  0  0  0  0  0  0  0  0
   38.1680   24.3610   42.3110 C   0  0  0  0  0  3  0  0  0  0  0  0
   39.3380   24.4790   42.9020 C   0  0  0  0  0  3  0  0  0  0  0  0
   40.0400   25.5250   43.6790 C   0  0  0  0  0  2  0  0  0  0  0  0
   39.4310   26.4030   43.9340 H   0  0  0  0  0  0  0  0  0  0  0  0
  1  7  1  0  0  0  0
  2 23  1  0  0  0  0
  2  1  2  0  0  0  0
  3  2  1  0  0  0  0
  4  3  2  0  0  0  0
  4  5  1  0  0  0  0
  5  6  2  0  0  0  0
  6  1  1  0  0  0  0
  8  3  1  0  0  0  0
  9 14  1  6  0  0  0
  9 10  1  0  0  0  0
  9 19  1  0  0  0  0
 10 15  1  6  0  0  0
 10  5  1  0  0  0  0
 10 11  1  0  0  0  0
 12 11  1  0  0  0  0
 12 16  1  0  0  0  0
 13 18  1  6  0  0  0
 13 21  1  0  0  0  0
 13  9  1  0  0  0  0
 13 12  1  0  0  0  0
 17 12  1  0  0  0  0
 19 20  1  0  0  0  0
 21 22  1  0  0  0  0
 23 26  1  0  0  0  0
 23 24  1  0  0  0  0
 25 23  1  0  0  0  0
 26 27  2  0  0  0  0
 27 28  1  0  0  0  0
 28 29  1  0  0  0  0
M  END
>  <minimizedAffinity>
-5.47777367

$$$$

 OpenBabel03252503443D

 29 30  0  0  1  0  0  0  0  0999 V2000
   37.1370   27.7740   42.5880 C   0  0  0  0  0  0  0  0  0  0  0  0
   37.2810   26.6750   41.7220 C   0  0  0  0  0  0  0  0  0  0  0  0
   37.6990   26.9620   40.4140 C   0  0  0  0  0  0  0  0  0  0  0  0
   37.9340   28.2310   40.0680 N   0  0  0  0  0  0  0  0  0  0  0  0
   37.7860   29.2530   40.9240 C   0  0  0  0  0  0  0  0  0  0  0  0
   37.3850   29.0330   42.1910 N   0  0  0  0  0  0  0  0  0  0  0  0
   36.8170   27.6400   43.6140 H   0  0  0  0  0  0  0  0  0  0  0  0
   37.7950   26.1100   39.7890 H   0  0  0  0  0  0  0  0  0  0  0  0
   36.8340   31.3730   39.9930 C   0  0  2  0  0  0  0  0  0  0  0  0
   38.0970   30.5910   40.4240 C   0  0  1  0  0  0  0  0  0  0  0  0
   38.6240   31.4500   41.3480 O   0  0  0  0  0  0  0  0  0  0  0  0
   38.5510   32.7070   40.8070 C   0  0  0  0  0  0  0  0  0  0  0  0
   37.5360   32.7090   39.6920 C   0  0  2  0  0  0  0  0  0  0  0  0
   36.3660   30.9320   39.1140 H   0  0  0  0  0  0  0  0  0  0  0  0
   38.7240   30.4680   39.5200 H   0  0  0  0  0  0  0  0  0  0  0  0
   38.2100   33.4700   41.5420 H   0  0  0  0  0  0  0  0  0  0  0  0
   39.5530   33.0290   40.4740 H   0  0  0  0  0  0  0  0  0  0  0  0
   38.0560   32.5710   38.7370 H   0  0  0  0  0  0  0  0  0  0  0  0
   36.0640   31.5760   41.0890 O   0  0  0  0  0  0  0  0  0  0  0  0
   35.8220   30.7530   41.5990 H   0  0  0  0  0  0  0  0  0  0  0  0
   36.6660   33.7720   39.7140 O   0  0  0  0  0  0  0  0  0  0  0  0
   37.0450   34.4280   40.3650 H   0  0  0  0  0  0  0  0  0  0  0  0
   36.9960   25.3410   42.2880 C   0  0  0  0  0  0  0  0  0  0  0  0
   37.9140   25.0000   42.8170 H   0  0  0  0  0  0  0  0  0  0  0  0
   36.2270   25.4190   43.1060 H   0  0  0  0  0  0  0  0  0  0  0  0
   36.5800   24.3810   41.2400 C   0  0  0  0  0  3  0  0  0  0  0  0
   37.0850   23.3950   40.5280 C   0  0  0  0  0  3  0  0  0  0  0  0
   38.3980   22.7210   40.4220 C   0  0  0  0  0  2  0  0  0  0  0  0
   39.1390   23.0210   41.1760 H   0  0  0  0  0  0  0  0  0  0  0  0
  1  7  1  0  0  0  0
  2 23  1  0  0  0  0
  2  1  2  0  0  0  0
  3  2  1  0  0  0  0
  4  3  2  0  0  0  0
  4  5  1  0  0  0  0
  5  6  2  0  0  0  0
  6  1  1  0  0  0  0
  8  3  1  0  0  0  0
  9 14  1  6  0  0  0
  9 10  1  0  0  0  0
  9 19  1  0  0  0  0
 10 15  1  6  0  0  0
 10  5  1  0  0  0  0
 10 11  1  0  0  0  0
 12 11  1  0  0  0  0
 12 16  1  0  0  0  0
 13 18  1  6  0  0  0
 13 21  1  0  0  0  0
 13  9  1  0  0  0  0
 13 12  1  0  0  0  0
 17 12  1  0  0  0  0
 19 20  1  0  0  0  0
 21 22  1  0  0  0  0
 23 24  1  0  0  0  0
 23 25  1  0  0  0  0
 26 23  1  0  0  0  0
 27 26  2  0  0  0  0
 28 27  1  0  0  0  0
 28 29  1  0  0  0  0
M  END
>  <minimizedAffinity>
-5.3126812

$$$$

 OpenBabel03252503443D

 29 30  0  0  1  0  0  0  0  0999 V2000
   38.0870   29.4480   39.3310 C   0  0  0  0  0  0  0  0  0  0  0  0
   37.0850   29.9720   40.1680 C   0  0  0  0  0  0  0  0  0  0  0  0
   37.3060   31.2640   40.6710 C   0  0  0  0  0  0  0  0  0  0  0  0
   38.4260   31.9110   40.3360 N   0  0  0  0  0  0  0  0  0  0  0  0
   39.3580   31.3770   39.5330 C   0  0  0  0  0  0  0  0  0  0  0  0
   39.1960   30.1400   39.0250 N   0  0  0  0  0  0  0  0  0  0  0  0
   37.9950   28.4580   38.9020 H   0  0  0  0  0  0  0  0  0  0  0  0
   36.5320   31.6270   41.2990 H   0  0  0  0  0  0  0  0  0  0  0  0
   40.9300   32.1300   37.7360 C   0  0  2  0  0  0  0  0  0  0  0  0
   40.5260   32.2000   39.2280 C   0  0  1  0  0  0  0  0  0  0  0  0
   40.3460   33.5470   39.3780 O   0  0  0  0  0  0  0  0  0  0  0  0
   41.4020   34.1610   38.7580 C   0  0  0  0  0  0  0  0  0  0  0  0
   42.0400   33.1930   37.7930 C   0  0  2  0  0  0  0  0  0  0  0  0
   41.3000   31.1430   37.4630 H   0  0  0  0  0  0  0  0  0  0  0  0
   41.3760   31.7960   39.8100 H   0  0  0  0  0  0  0  0  0  0  0  0
   41.0910   35.0430   38.1560 H   0  0  0  0  0  0  0  0  0  0  0  0
   42.1090   34.5400   39.5150 H   0  0  0  0  0  0  0  0  0  0  0  0
   42.8960   32.7140   38.2830 H   0  0  0  0  0  0  0  0  0  0  0  0
   39.9230   32.6580   36.9980 O   0  0  0  0  0  0  0  0  0  0  0  0
   39.0250   32.2500   37.1480 H   0  0  0  0  0  0  0  0  0  0  0  0
   42.3200   33.7230   36.5560 O   0  0  0  0  0  0  0  0  0  0  0  0
   42.2210   34.7120   36.6480 H   0  0  0  0  0  0  0  0  0  0  0  0
   35.9050   29.1180   40.4100 C   0  0  0  0  0  0  0  0  0  0  0  0
   35.0900   29.7750   40.7870 H   0  0  0  0  0  0  0  0  0  0  0  0
   35.5030   28.7220   39.4360 H   0  0  0  0  0  0  0  0  0  0  0  0
   36.2100   28.0220   41.3590 C   0  0  0  0  0  3  0  0  0  0  0  0
   36.8770   27.8230   42.4760 C   0  0  0  0  0  3  0  0  0  0  0  0
   37.7000   28.6490   43.3880 C   0  0  0  0  0  2  0  0  0  0  0  0
   37.7000   29.7250   43.1700 H   0  0  0  0  0  0  0  0  0  0  0  0
  1  2  1  0  0  0  0
  2 23  1  0  0  0  0
  2  3  2  0  0  0  0
  3  8  1  0  0  0  0
  4  3  1  0  0  0  0
  5  4  2  0  0  0  0
  6  1  2  0  0  0  0
  6  5  1  0  0  0  0
  7  1  1  0  0  0  0
  9 14  1  6  0  0  0
  9 13  1  0  0  0  0
  9 10  1  0  0  0  0
 10 11  1  0  0  0  0
 10  5  1  0  0  0  0
 10 15  1  1  0  0  0
 12 11  1  0  0  0  0
 12 17  1  0  0  0  0
 13 18  1  1  0  0  0
 13 12  1  0  0  0  0
 16 12  1  0  0  0  0
 19 20  1  0  0  0  0
 19  9  1  0  0  0  0
 21 22  1  0  0  0  0
 21 13  1  0  0  0  0
 23 24  1  0  0  0  0
 23 26  1  0  0  0  0
 25 23  1  0  0  0  0
 26 27  2  0  0  0  0
 27 28  1  0  0  0  0
 29 28  1  0  0  0  0
M  END
>  <minimizedAffinity>
-5.08976221

$$$$

 OpenBabel03252503443D

 29 30  0  0  1  0  0  0  0  0999 V2000
   36.9130   31.3010   40.5110 C   0  0  0  0  0  0  0  0  0  0  0  0
   36.5470   30.2720   39.6240 C   0  0  0  0  0  0  0  0  0  0  0  0
   37.4530   29.9880   38.5910 C   0  0  0  0  0  0  0  0  0  0  0  0
   38.5870   30.6910   38.5070 N   0  0  0  0  0  0  0  0  0  0  0  0
   38.9000   31.6650   39.3730 C   0  0  0  0  0  0  0  0  0  0  0  0
   38.0650   31.9790   40.3820 N   0  0  0  0  0  0  0  0  0  0  0  0
   36.2690   31.5840   41.3350 H   0  0  0  0  0  0  0  0  0  0  0  0
   37.1450   29.2090   37.9410 H   0  0  0  0  0  0  0  0  0  0  0  0
   40.7710   32.1070   37.7700 C   0  0  2  0  0  0  0  0  0  0  0  0
   40.1810   32.3410   39.1810 C   0  0  1  0  0  0  0  0  0  0  0  0
   40.1310   33.7070   39.2110 O   0  0  0  0  0  0  0  0  0  0  0  0
   41.3210   34.1600   38.7060 C   0  0  0  0  0  0  0  0  0  0  0  0
   41.9740   33.0570   37.9100 C   0  0  2  0  0  0  0  0  0  0  0  0
   41.0640   31.0690   37.6210 H   0  0  0  0  0  0  0  0  0  0  0  0
   40.8970   31.9040   39.9040 H   0  0  0  0  0  0  0  0  0  0  0  0
   41.1920   35.0150   38.0070 H   0  0  0  0  0  0  0  0  0  0  0  0
   41.9580   34.5290   39.5280 H   0  0  0  0  0  0  0  0  0  0  0  0
   42.6980   32.5380   38.5490 H   0  0  0  0  0  0  0  0  0  0  0  0
   39.9360   32.6680   36.8620 O   0  0  0  0  0  0  0  0  0  0  0  0
   38.9870   32.3660   36.9110 H   0  0  0  0  0  0  0  0  0  0  0  0
   42.4730   33.4510   36.6930 O   0  0  0  0  0  0  0  0  0  0  0  0
   42.4710   34.4500   36.7000 H   0  0  0  0  0  0  0  0  0  0  0  0
   35.2630   29.5920   39.8880 C   0  0  0  0  0  0  0  0  0  0  0  0
   35.3270   29.1400   40.9030 H   0  0  0  0  0  0  0  0  0  0  0  0
   34.4330   30.3460   39.9800 H   0  0  0  0  0  0  0  0  0  0  0  0
   34.9630   28.5740   38.8540 C   0  0  0  0  0  3  0  0  0  0  0  0
   34.1230   28.3760   37.8590 C   0  0  0  0  0  3  0  0  0  0  0  0
   32.9990   29.1200   37.2500 C   0  0  0  0  0  2  0  0  0  0  0  0
   32.8570   30.1420   37.6260 H   0  0  0  0  0  0  0  0  0  0  0  0
  1  7  1  0  0  0  0
  2 23  1  0  0  0  0
  2  1  2  0  0  0  0
  3  2  1  0  0  0  0
  4  3  2  0  0  0  0
  4  5  1  0  0  0  0
  5  6  2  0  0  0  0
  6  1  1  0  0  0  0
  8  3  1  0  0  0  0
  9 14  1  6  0  0  0
  9 13  1  0  0  0  0
  9 10  1  0  0  0  0
 10 11  1  0  0  0  0
 10  5  1  0  0  0  0
 10 15  1  1  0  0  0
 12 11  1  0  0  0  0
 12 17  1  0  0  0  0
 13 18  1  1  0  0  0
 13 12  1  0  0  0  0
 16 12  1  0  0  0  0
 19 20  1  0  0  0  0
 19  9  1  0  0  0  0
 21 22  1  0  0  0  0
 21 13  1  0  0  0  0
 23 25  1  0  0  0  0
 23 24  1  0  0  0  0
 26 23  1  0  0  0  0
 27 26  2  0  0  0  0
 28 29  1  0  0  0  0
 28 27  1  0  0  0  0
M  END
>  <minimizedAffinity>
-4.90335464

$$$$

 OpenBabel03252503443D

 29 30  0  0  1  0  0  0  0  0999 V2000
   39.4860   27.7170   41.7590 C   0  0  0  0  0  0  0  0  0  0  0  0
   39.0050   27.3930   43.0410 C   0  0  0  0  0  0  0  0  0  0  0  0
   38.0310   28.2500   43.5770 C   0  0  0  0  0  0  0  0  0  0  0  0
   37.6220   29.3000   42.8600 N   0  0  0  0  0  0  0  0  0  0  0  0
   38.1050   29.5750   41.6390 C   0  0  0  0  0  0  0  0  0  0  0  0
   39.0420   28.7860   41.0790 N   0  0  0  0  0  0  0  0  0  0  0  0
   40.2390   27.1080   41.2750 H   0  0  0  0  0  0  0  0  0  0  0  0
   37.6930   27.9760   44.5440 H   0  0  0  0  0  0  0  0  0  0  0  0
   38.5570   31.9200   40.8880 C   0  0  2  0  0  0  0  0  0  0  0  0
   37.5550   30.7430   40.9530 C   0  0  1  0  0  0  0  0  0  0  0  0
   37.2860   30.5660   39.6250 O   0  0  0  0  0  0  0  0  0  0  0  0
   37.0930   31.8120   39.0890 C   0  0  0  0  0  0  0  0  0  0  0  0
   37.7010   32.8450   40.0050 C   0  0  2  0  0  0  0  0  0  0  0  0
   38.7550   32.3380   41.8740 H   0  0  0  0  0  0  0  0  0  0  0  0
   36.6860   31.0930   41.5430 H   0  0  0  0  0  0  0  0  0  0  0  0
   37.5920   31.9360   38.1030 H   0  0  0  0  0  0  0  0  0  0  0  0
   36.0170   31.9790   38.9110 H   0  0  0  0  0  0  0  0  0  0  0  0
   36.9170   33.2480   40.6570 H   0  0  0  0  0  0  0  0  0  0  0  0
   39.6170   31.5360   40.1360 O   0  0  0  0  0  0  0  0  0  0  0  0
   40.0660   30.6950   40.4310 H   0  0  0  0  0  0  0  0  0  0  0  0
   38.4540   33.8000   39.3660 O   0  0  0  0  0  0  0  0  0  0  0  0
   38.2530   33.7080   38.3920 H   0  0  0  0  0  0  0  0  0  0  0  0
   39.5610   26.1790   43.6730 C   0  0  0  0  0  0  0  0  0  0  0  0
   40.6380   26.3710   43.8730 H   0  0  0  0  0  0  0  0  0  0  0  0
   39.1180   26.0340   44.6970 H   0  0  0  0  0  0  0  0  0  0  0  0
   39.3670   24.9830   42.8210 C   0  0  0  0  0  3  0  0  0  0  0  0
   38.4000   24.3500   42.1890 C   0  0  0  0  0  3  0  0  0  0  0  0
   36.9440   24.5380   42.0090 C   0  0  0  0  0  2  0  0  0  0  0  0
   36.5430   25.4820   42.4020 H   0  0  0  0  0  0  0  0  0  0  0  0
  1  2  1  0  0  0  0
  2  3  2  0  0  0  0
  2 23  1  0  0  0  0
  3  8  1  0  0  0  0
  4  3  1  0  0  0  0
  5  4  2  0  0  0  0
  6  5  1  0  0  0  0
  6  1  2  0  0  0  0
  7  1  1  0  0  0  0
  9 10  1  0  0  0  0
  9 14  1  1  0  0  0
 10 15  1  1  0  0  0
 10  5  1  0  0  0  0
 11 10  1  0  0  0  0
 12 11  1  0  0  0  0
 12 13  1  0  0  0  0
 13 18  1  1  0  0  0
 13  9  1  0  0  0  0
 16 12  1  0  0  0  0
 17 12  1  0  0  0  0
 19 20  1  0  0  0  0
 19  9  1  0  0  0  0
 21 13  1  0  0  0  0
 22 21  1  0  0  0  0
 23 24  1  0  0  0  0
 23 25  1  0  0  0  0
 26 23  1  0  0  0  0
 27 26  2  0  0  0  0
 28 27  1  0  0  0  0
 28 29  1  0  0  0  0
M  END
>  <minimizedAffinity>
-4.84802151

$$$$

 OpenBabel03252503443D

 29 30  0  0  1  0  0  0  0  0999 V2000
   39.6700   28.2200   42.1280 C   0  0  0  0  0  0  0  0  0  0  0  0
   38.3990   28.5310   42.6430 C   0  0  0  0  0  0  0  0  0  0  0  0
   37.8270   29.7360   42.2080 C   0  0  0  0  0  0  0  0  0  0  0  0
   38.5020   30.5040   41.3470 N   0  0  0  0  0  0  0  0  0  0  0  0
   39.7140   30.1720   40.8780 C   0  0  0  0  0  0  0  0  0  0  0  0
   40.3080   29.0270   41.2650 N   0  0  0  0  0  0  0  0  0  0  0  0
   40.1810   27.3090   42.4140 H   0  0  0  0  0  0  0  0  0  0  0  0
   36.8700   29.9400   42.6170 H   0  0  0  0  0  0  0  0  0  0  0  0
   39.8220   30.8830   38.4800 C   0  0  2  0  0  0  0  0  0  0  0  0
   40.3340   31.0900   39.9250 C   0  0  1  0  0  0  0  0  0  0  0  0
   40.0380   32.4120   40.1120 O   0  0  0  0  0  0  0  0  0  0  0  0
   40.4260   33.0700   38.9740 C   0  0  0  0  0  0  0  0  0  0  0  0
   40.5600   32.0760   37.8480 C   0  0  2  0  0  0  0  0  0  0  0  0
   40.1370   29.9240   38.0720 H   0  0  0  0  0  0  0  0  0  0  0  0
   41.4200   30.8720   39.9150 H   0  0  0  0  0  0  0  0  0  0  0  0
   39.6790   33.8230   38.6400 H   0  0  0  0  0  0  0  0  0  0  0  0
   41.3590   33.6280   39.1660 H   0  0  0  0  0  0  0  0  0  0  0  0
   41.6100   31.7740   37.7630 H   0  0  0  0  0  0  0  0  0  0  0  0
   38.5000   31.1830   38.4500 O   0  0  0  0  0  0  0  0  0  0  0  0
   37.9360   30.6880   39.1070 H   0  0  0  0  0  0  0  0  0  0  0  0
   39.9880   32.4760   36.6640 O   0  0  0  0  0  0  0  0  0  0  0  0
   39.7860   33.4490   36.7660 H   0  0  0  0  0  0  0  0  0  0  0  0
   37.7970   27.5500   43.5680 C   0  0  0  0  0  0  0  0  0  0  0  0
   38.6300   27.0440   44.1060 H   0  0  0  0  0  0  0  0  0  0  0  0
   37.2310   28.0780   44.3850 H   0  0  0  0  0  0  0  0  0  0  0  0
   36.9380   26.5790   42.8510 C   0  0  0  0  0  3  0  0  0  0  0  0
   37.0250   25.3920   42.2870 C   0  0  0  0  0  3  0  0  0  0  0  0
   38.0890   24.3850   42.0830 C   0  0  0  0  0  2  0  0  0  0  0  0
   39.0350   24.5940   42.6000 H   0  0  0  0  0  0  0  0  0  0  0  0
  1  7  1  0  0  0  0
  1  2  1  0  0  0  0
  2 23  1  0  0  0  0
  3  8  1  0  0  0  0
  3  2  2  0  0  0  0
  4  3  1  0  0  0  0
  5  6  1  0  0  0  0
  5  4  2  0  0  0  0
  6  1  2  0  0  0  0
  9 14  1  6  0  0  0
  9 10  1  0  0  0  0
 10 15  1  1  0  0  0
 10 11  1  0  0  0  0
 10  5  1  0  0  0  0
 12 17  1  0  0  0  0
 12 11  1  0  0  0  0
 13 18  1  6  0  0  0
 13  9  1  0  0  0  0
 13 12  1  0  0  0  0
 16 12  1  0  0  0  0
 19  9  1  0  0  0  0
 19 20  1  0  0  0  0
 21 22  1  0  0  0  0
 21 13  1  0  0  0  0
 23 24  1  0  0  0  0
 23 25  1  0  0  0  0
 26 23  1  0  0  0  0
 27 26  2  0  0  0  0
 28 27  1  0  0  0  0
 28 29  1  0  0  0  0
M  END
>  <minimizedAffinity>
-4.82588911

$$$$

 OpenBabel03252503443D

 29 30  0  0  1  0  0  0  0  0999 V2000
   38.3910   29.1290   38.0560 C   0  0  0  0  0  0  0  0  0  0  0  0
   37.7970   28.8640   39.3030 C   0  0  0  0  0  0  0  0  0  0  0  0
   38.2510   29.6310   40.3860 C   0  0  0  0  0  0  0  0  0  0  0  0
   39.1990   30.5510   40.1810 N   0  0  0  0  0  0  0  0  0  0  0  0
   39.7400   30.7750   38.9750 C   0  0  0  0  0  0  0  0  0  0  0  0
   39.3410   30.0650   37.9020 N   0  0  0  0  0  0  0  0  0  0  0  0
   38.0980   28.5810   37.1690 H   0  0  0  0  0  0  0  0  0  0  0  0
   37.7830   29.4030   41.3100 H   0  0  0  0  0  0  0  0  0  0  0  0
   41.2260   32.0720   37.4320 C   0  0  2  0  0  0  0  0  0  0  0  0
   40.7520   31.8260   38.8840 C   0  0  1  0  0  0  0  0  0  0  0  0
   40.3250   33.0790   39.2270 O   0  0  0  0  0  0  0  0  0  0  0  0
   41.2790   33.9580   38.7860 C   0  0  0  0  0  0  0  0  0  0  0  0
   42.1220   33.2860   37.7310 C   0  0  2  0  0  0  0  0  0  0  0  0
   41.7790   31.2210   37.0380 H   0  0  0  0  0  0  0  0  0  0  0  0
   41.6360   31.4830   39.4570 H   0  0  0  0  0  0  0  0  0  0  0  0
   40.8390   34.8600   38.3060 H   0  0  0  0  0  0  0  0  0  0  0  0
   41.8730   34.3230   39.6400 H   0  0  0  0  0  0  0  0  0  0  0  0
   43.0280   32.8860   38.2010 H   0  0  0  0  0  0  0  0  0  0  0  0
   40.1730   32.5330   36.7140 O   0  0  0  0  0  0  0  0  0  0  0  0
   39.3580   31.9580   36.7360 H   0  0  0  0  0  0  0  0  0  0  0  0
   42.3550   34.0510   36.6140 O   0  0  0  0  0  0  0  0  0  0  0  0
   42.0740   34.9800   36.8490 H   0  0  0  0  0  0  0  0  0  0  0  0
   36.7490   27.8230   39.3330 C   0  0  0  0  0  0  0  0  0  0  0  0
   36.8820   27.1900   38.4270 H   0  0  0  0  0  0  0  0  0  0  0  0
   36.9280   27.1130   40.1870 H   0  0  0  0  0  0  0  0  0  0  0  0
   35.3930   28.4160   39.3930 C   0  0  0  0  0  3  0  0  0  0  0  0
   34.4590   28.8620   38.5790 C   0  0  0  0  0  3  0  0  0  0  0  0
   34.2960   28.9960   37.1150 C   0  0  0  0  0  2  0  0  0  0  0  0
   35.0880   28.5300   36.5130 H   0  0  0  0  0  0  0  0  0  0  0  0
  1  2  1  0  0  0  0
  2 23  1  0  0  0  0
  2  3  2  0  0  0  0
  3  8  1  0  0  0  0
  4  3  1  0  0  0  0
  5  4  2  0  0  0  0
  6  1  2  0  0  0  0
  6  5  1  0  0  0  0
  7  1  1  0  0  0  0
  9 14  1  6  0  0  0
  9 13  1  0  0  0  0
  9 10  1  0  0  0  0
 10  5  1  0  0  0  0
 10 11  1  0  0  0  0
 10 15  1  1  0  0  0
 12 11  1  0  0  0  0
 12 17  1  0  0  0  0
 13 18  1  1  0  0  0
 13 12  1  0  0  0  0
 16 12  1  0  0  0  0
 19 20  1  0  0  0  0
 19  9  1  0  0  0  0
 21 22  1  0  0  0  0
 21 13  1  0  0  0  0
 23 26  1  0  0  0  0
 23 25  1  0  0  0  0
 24 23  1  0  0  0  0
 27 26  2  0  0  0  0
 28 27  1  0  0  0  0
 29 28  1  0  0  0  0
M  END
>  <minimizedAffinity>
-4.7991538

$$$$

 OpenBabel03252503443D

 29 30  0  0  1  0  0  0  0  0999 V2000
   34.5520   29.0710   38.9850 C   0  0  0  0  0  0  0  0  0  0  0  0
   34.5520   28.8890   37.5900 C   0  0  0  0  0  0  0  0  0  0  0  0
   35.6790   29.3610   36.8990 C   0  0  0  0  0  0  0  0  0  0  0  0
   36.6670   29.9420   37.5850 N   0  0  0  0  0  0  0  0  0  0  0  0
   36.6300   30.0970   38.9170 C   0  0  0  0  0  0  0  0  0  0  0  0
   35.5710   29.6640   39.6270 N   0  0  0  0  0  0  0  0  0  0  0  0
   33.7200   28.7370   39.5920 H   0  0  0  0  0  0  0  0  0  0  0  0
   35.6440   29.2080   35.8500 H   0  0  0  0  0  0  0  0  0  0  0  0
   37.5740   32.2430   39.7970 C   0  0  2  0  0  0  0  0  0  0  0  0
   37.7870   30.7310   39.5460 C   0  0  1  0  0  0  0  0  0  0  0  0
   38.0700   30.3010   40.8130 O   0  0  0  0  0  0  0  0  0  0  0  0
   38.9510   31.2020   41.3500 C   0  0  0  0  0  0  0  0  0  0  0  0
   38.8820   32.4890   40.5680 C   0  0  2  0  0  0  0  0  0  0  0  0
   37.5170   32.8030   38.8650 H   0  0  0  0  0  0  0  0  0  0  0  0
   38.6370   30.6380   38.8430 H   0  0  0  0  0  0  0  0  0  0  0  0
   38.7080   31.4630   42.4040 H   0  0  0  0  0  0  0  0  0  0  0  0
   39.9650   30.7660   41.3690 H   0  0  0  0  0  0  0  0  0  0  0  0
   39.6820   32.4930   39.8180 H   0  0  0  0  0  0  0  0  0  0  0  0
   36.5640   32.3880   40.6880 O   0  0  0  0  0  0  0  0  0  0  0  0
   35.7080   31.9390   40.4400 H   0  0  0  0  0  0  0  0  0  0  0  0
   38.8270   33.6240   41.3410 O   0  0  0  0  0  0  0  0  0  0  0  0
   39.0560   33.3400   42.2700 H   0  0  0  0  0  0  0  0  0  0  0  0
   33.3790   28.2050   37.0080 C   0  0  0  0  0  0  0  0  0  0  0  0
   33.7460   27.5650   36.1750 H   0  0  0  0  0  0  0  0  0  0  0  0
   32.9510   27.4690   37.7440 H   0  0  0  0  0  0  0  0  0  0  0  0
   32.3570   29.1720   36.5470 C   0  0  0  0  0  3  0  0  0  0  0  0
   31.3570   29.8780   37.0320 C   0  0  0  0  0  3  0  0  0  0  0  0
   30.7280   30.0640   38.3580 C   0  0  0  0  0  2  0  0  0  0  0  0
   31.2560   29.5870   39.1950 H   0  0  0  0  0  0  0  0  0  0  0  0
  1  7  1  0  0  0  0
  1  6  1  0  0  0  0
  2  1  2  0  0  0  0
  3  4  2  0  0  0  0
  3  2  1  0  0  0  0
  4  5  1  0  0  0  0
  5 10  1  0  0  0  0
  5  6  2  0  0  0  0
  8  3  1  0  0  0  0
  9 14  1  6  0  0  0
  9 13  1  0  0  0  0
  9 19  1  0  0  0  0
 10 15  1  6  0  0  0
 10  9  1  0  0  0  0
 10 11  1  0  0  0  0
 11 12  1  0  0  0  0
 12 17  1  0  0  0  0
 12 16  1  0  0  0  0
 13 18  1  6  0  0  0
 13 21  1  0  0  0  0
 13 12  1  0  0  0  0
 20 19  1  0  0  0  0
 21 22  1  0  0  0  0
 23  2  1  0  0  0  0
 23 25  1  0  0  0  0
 24 23  1  0  0  0  0
 26 23  1  0  0  0  0
 26 27  2  0  0  0  0
 27 28  1  0  0  0  0
 28 29  1  0  0  0  0
M  END
>  <minimizedAffinity>
-4.74782801

$$$$

 OpenBabel03252503443D

 29 30  0  0  1  0  0  0  0  0999 V2000
   36.7210   29.8500   37.3570 C   0  0  0  0  0  0  0  0  0  0  0  0
   35.9490   29.6280   38.5120 C   0  0  0  0  0  0  0  0  0  0  0  0
   36.4810   30.1060   39.7190 C   0  0  0  0  0  0  0  0  0  0  0  0
   37.6620   30.7320   39.7080 N   0  0  0  0  0  0  0  0  0  0  0  0
   38.3680   30.9240   38.5840 C   0  0  0  0  0  0  0  0  0  0  0  0
   37.9030   30.4840   37.3990 N   0  0  0  0  0  0  0  0  0  0  0  0
   36.3820   29.5120   36.3860 H   0  0  0  0  0  0  0  0  0  0  0  0
   35.8740   29.9200   40.5690 H   0  0  0  0  0  0  0  0  0  0  0  0
   40.3760   31.7790   37.3570 C   0  0  2  0  0  0  0  0  0  0  0  0
   39.6350   31.6430   38.7090 C   0  0  1  0  0  0  0  0  0  0  0  0
   39.5270   32.9570   39.0720 O   0  0  0  0  0  0  0  0  0  0  0  0
   40.7440   33.5370   38.8300 C   0  0  0  0  0  0  0  0  0  0  0  0
   41.5190   32.6780   37.8620 C   0  0  2  0  0  0  0  0  0  0  0  0
   40.7240   30.8150   36.9890 H   0  0  0  0  0  0  0  0  0  0  0  0
   40.2880   31.0480   39.3750 H   0  0  0  0  0  0  0  0  0  0  0  0
   40.6540   34.5390   38.3550 H   0  0  0  0  0  0  0  0  0  0  0  0
   41.2780   33.6960   39.7820 H   0  0  0  0  0  0  0  0  0  0  0  0
   42.1930   32.0240   38.4270 H   0  0  0  0  0  0  0  0  0  0  0  0
   39.6180   32.5400   36.5310 O   0  0  0  0  0  0  0  0  0  0  0  0
   38.6820   32.2220   36.3980 H   0  0  0  0  0  0  0  0  0  0  0  0
   42.1250   33.3710   36.8430 O   0  0  0  0  0  0  0  0  0  0  0  0
   42.0830   34.3360   37.0980 H   0  0  0  0  0  0  0  0  0  0  0  0
   34.6570   28.9360   38.3270 C   0  0  0  0  0  0  0  0  0  0  0  0
   34.1540   28.8980   39.3180 H   0  0  0  0  0  0  0  0  0  0  0  0
   33.9660   29.5620   37.6970 H   0  0  0  0  0  0  0  0  0  0  0  0
   34.8400   27.5830   37.7530 C   0  0  0  0  0  3  0  0  0  0  0  0
   35.4760   26.4610   38.0190 C   0  0  0  0  0  3  0  0  0  0  0  0
   36.3750   25.9730   39.0880 C   0  0  0  0  0  2  0  0  0  0  0  0
   36.4900   26.6500   39.9460 H   0  0  0  0  0  0  0  0  0  0  0  0
  1  6  2  0  0  0  0
  1  2  1  0  0  0  0
  2  3  2  0  0  0  0
  3  8  1  0  0  0  0
  4  3  1  0  0  0  0
  5 10  1  0  0  0  0
  5  4  2  0  0  0  0
  6  5  1  0  0  0  0
  7  1  1  0  0  0  0
  9 14  1  6  0  0  0
  9 13  1  0  0  0  0
  9 10  1  0  0  0  0
 10 11  1  0  0  0  0
 10 15  1  1  0  0  0
 12 11  1  0  0  0  0
 12 17  1  0  0  0  0
 13 18  1  1  0  0  0
 13 12  1  0  0  0  0
 16 12  1  0  0  0  0
 19  9  1  0  0  0  0
 20 19  1  0  0  0  0
 21 22  1  0  0  0  0
 21 13  1  0  0  0  0
 23  2  1  0  0  0  0
 23 24  1  0  0  0  0
 25 23  1  0  0  0  0
 26 27  2  0  0  0  0
 26 23  1  0  0  0  0
 27 28  1  0  0  0  0
 28 29  1  0  0  0  0
M  END
>  <minimizedAffinity>
-4.56182766

$$$$
