
 OpenBabel03252508473D

 40 41  0  0  0  0  0  0  0  0999 V2000
   43.0100   32.4890   41.6380 C   0  0  0  0  0  0  0  0  0  0  0  0
   43.5800   32.0190   40.7970 H   0  0  0  0  0  0  0  0  0  0  0  0
   42.1180   32.9570   41.2100 H   0  0  0  0  0  0  0  0  0  0  0  0
   43.6720   34.8950   41.8950 C   0  0  0  0  0  0  0  0  0  0  0  0
   43.8910   33.5500   42.1920 C   0  0  0  0  0  0  0  0  0  0  0  0
   44.9580   33.2440   43.0170 C   0  0  0  0  0  0  0  0  0  0  0  0
   45.7540   34.2310   43.5130 C   0  0  0  0  0  0  0  0  0  0  0  0
   45.5550   35.5540   43.2350 C   0  0  0  0  0  0  0  0  0  0  0  0
   44.4830   35.8290   42.4080 C   0  0  0  0  0  0  0  0  0  0  0  0
   45.1560   32.2210   43.2650 H   0  0  0  0  0  0  0  0  0  0  0  0
   46.5850   33.9520   44.1600 H   0  0  0  0  0  0  0  0  0  0  0  0
   46.1770   36.3550   43.6200 H   0  0  0  0  0  0  0  0  0  0  0  0
   44.2940   36.8770   42.1640 H   0  0  0  0  0  0  0  0  0  0  0  0
   40.2520   35.8010   40.5320 C   0  0  0  0  0  0  0  0  0  0  0  0
   41.2810   35.5570   41.4650 C   0  0  0  0  0  0  0  0  0  0  0  0
   42.5340   35.1720   41.0190 C   0  0  0  0  0  0  0  0  0  0  0  0
   42.7100   35.0470   39.6770 N   0  0  0  0  0  0  0  0  0  0  0  0
   41.7080   35.2860   38.7900 C   0  0  0  0  0  0  0  0  0  0  0  0
   40.4880   35.6620   39.2340 N   0  0  0  0  0  0  0  0  0  0  0  0
   39.3040   36.0970   40.9670 H   0  0  0  0  0  0  0  0  0  0  0  0
   41.1640   35.6500   42.5400 H   0  0  0  0  0  0  0  0  0  0  0  0
   41.9720   35.1530   37.7550 H   0  0  0  0  0  0  0  0  0  0  0  0
   42.6850   31.4520   42.5780 N   0  0  0  0  0  0  0  0  0  0  0  0
   43.2380   30.5810   42.4310 H   0  0  0  0  0  0  0  0  0  0  0  0
   41.0110   31.1040   42.5960 S   0  0  0  0  0  0  0  0  0  0  0  0
   40.2000   32.3800   42.4970 O   0  0  0  0  0  0  0  0  0  0  0  0
   39.3710   32.5880   42.9940 H   0  0  0  0  0  0  0  0  0  0  0  0
   40.6410   30.3570   43.8400 O   0  0  0  0  0  0  0  0  0  0  0  0
   41.2840   29.8440   44.4130 H   0  0  0  0  0  0  0  0  0  0  0  0
   40.6620   30.1540   41.2620 O   0  0  0  0  0  0  0  0  0  0  0  0
   39.3450   29.7330   41.3740 C   0  0  0  0  0  0  0  0  0  0  0  0
   38.7260   30.4490   40.7680 H   0  0  0  0  0  0  0  0  0  0  0  0
   38.9720   29.6310   42.3910 H   0  0  0  0  0  0  0  0  0  0  0  0
   39.1820   28.3930   40.6270 C   0  0  0  0  0  0  0  0  0  0  0  0
   39.0510   28.5700   39.5470 H   0  0  0  0  0  0  0  0  0  0  0  0
   40.0440   27.7330   40.8500 H   0  0  0  0  0  0  0  0  0  0  0  0
   37.9680   27.7700   41.2250 C   0  0  0  0  0  3  0  0  0  0  0  0
   36.7890   27.7230   40.6620 C   0  0  0  0  0  3  0  0  0  0  0  0
   36.5790   28.3140   39.3290 C   0  0  0  0  0  2  0  0  0  0  0  0
   35.6610   27.8400   38.8760 H   0  0  0  0  0  0  0  0  0  0  0  0
  1  5  1  0  0  0  0
  1 23  1  0  0  0  0
  2  1  1  0  0  0  0
  3  1  1  0  0  0  0
  4  5  2  0  0  0  0
  4  9  1  0  0  0  0
  5  6  1  0  0  0  0
  6 10  1  0  0  0  0
  6  7  2  0  0  0  0
  7 11  1  0  0  0  0
  8  7  1  0  0  0  0
  8 12  1  0  0  0  0
  9  8  2  0  0  0  0
 13  9  1  0  0  0  0
 14 20  1  0  0  0  0
 14 15  1  0  0  0  0
 15 21  1  0  0  0  0
 16 15  2  0  0  0  0
 16  4  1  0  0  0  0
 17 16  1  0  0  0  0
 18 19  1  0  0  0  0
 18 17  2  0  0  0  0
 19 14  2  0  0  0  0
 22 18  1  0  0  0  0
 23 25  1  0  0  0  0
 24 23  1  0  0  0  0
 25 28  1  0  0  0  0
 26 25  1  0  0  0  0
 26 27  1  0  0  0  0
 28 29  1  0  0  0  0
 30 31  1  0  0  0  0
 30 25  1  0  0  0  0
 31 33  1  0  0  0  0
 32 31  1  0  0  0  0
 34 36  1  0  0  0  0
 34 37  1  0  0  0  0
 34 31  1  0  0  0  0
 35 34  1  0  0  0  0
 38 37  2  0  0  0  0
 39 38  1  0  0  0  0
 40 39  1  0  0  0  0
M  END
>  <minimizedAffinity>
-4.99106026

>  <minimizedRMSD>
1.04831421

$$$$
