
 OpenBabel03252508473D

 40 41  0  0  0  0  0  0  0  0999 V2000
   43.1390   32.5550   41.6490 C   0  0  0  0  0  0  0  0  0  0  0  0
   43.7620   32.0620   40.8600 H   0  0  0  0  0  0  0  0  0  0  0  0
   42.2620   32.9840   41.1560 H   0  0  0  0  0  0  0  0  0  0  0  0
   43.6830   34.9910   41.8990 C   0  0  0  0  0  0  0  0  0  0  0  0
   43.9700   33.6590   42.1980 C   0  0  0  0  0  0  0  0  0  0  0  0
   45.0520   33.4080   43.0210 C   0  0  0  0  0  0  0  0  0  0  0  0
   45.8000   34.4340   43.5130 C   0  0  0  0  0  0  0  0  0  0  0  0
   45.5350   35.7450   43.2320 C   0  0  0  0  0  0  0  0  0  0  0  0
   44.4490   35.9650   42.4090 C   0  0  0  0  0  0  0  0  0  0  0  0
   45.3010   32.3950   43.2700 H   0  0  0  0  0  0  0  0  0  0  0  0
   46.6450   34.1970   44.1580 H   0  0  0  0  0  0  0  0  0  0  0  0
   46.1190   36.5760   43.6140 H   0  0  0  0  0  0  0  0  0  0  0  0
   44.2080   37.0020   42.1630 H   0  0  0  0  0  0  0  0  0  0  0  0
   40.2240   35.7420   40.5430 C   0  0  0  0  0  0  0  0  0  0  0  0
   41.2660   35.5530   41.4730 C   0  0  0  0  0  0  0  0  0  0  0  0
   42.5310   35.2100   41.0260 C   0  0  0  0  0  0  0  0  0  0  0  0
   42.7040   35.0720   39.6850 N   0  0  0  0  0  0  0  0  0  0  0  0
   41.6900   35.2580   38.8000 C   0  0  0  0  0  0  0  0  0  0  0  0
   40.4580   35.5920   39.2450 N   0  0  0  0  0  0  0  0  0  0  0  0
   39.2670   36.0090   40.9790 H   0  0  0  0  0  0  0  0  0  0  0  0
   41.1510   35.6580   42.5470 H   0  0  0  0  0  0  0  0  0  0  0  0
   41.9530   35.1190   37.7660 H   0  0  0  0  0  0  0  0  0  0  0  0
   42.7880   31.5540   42.6170 N   0  0  0  0  0  0  0  0  0  0  0  0
   43.4080   30.7160   42.5800 H   0  0  0  0  0  0  0  0  0  0  0  0
   41.1460   31.0910   42.4960 S   0  0  0  0  0  0  0  0  0  0  0  0
   40.2600   32.3110   42.3440 O   0  0  0  0  0  0  0  0  0  0  0  0
   39.3800   32.4530   42.7740 H   0  0  0  0  0  0  0  0  0  0  0  0
   40.7300   30.3010   43.6970 O   0  0  0  0  0  0  0  0  0  0  0  0
   41.3590   29.8250   44.3160 H   0  0  0  0  0  0  0  0  0  0  0  0
   40.9730   30.1410   41.1270 O   0  0  0  0  0  0  0  0  0  0  0  0
   40.2390   30.8670   40.1990 C   0  0  0  0  0  0  0  0  0  0  0  0
   40.8750   30.9430   39.2760 H   0  0  0  0  0  0  0  0  0  0  0  0
   39.8900   31.8400   40.5360 H   0  0  0  0  0  0  0  0  0  0  0  0
   39.0350   30.0180   39.7380 C   0  0  0  0  0  0  0  0  0  0  0  0
   38.9850   29.9920   38.6370 H   0  0  0  0  0  0  0  0  0  0  0  0
   39.0980   29.0060   40.1850 H   0  0  0  0  0  0  0  0  0  0  0  0
   37.8460   30.6980   40.3210 C   0  0  0  0  0  0  0  0  0  0  0  0
   37.2120   30.3180   41.3980 C   0  0  0  0  0  0  0  0  0  0  0  0
   37.6600   29.1270   42.1410 C   0  0  0  0  0  0  0  0  0  0  0  0
   37.2600   29.2000   43.1950 H   0  0  0  0  0  0  0  0  0  0  0  0
  1  5  1  0  0  0  0
  1 23  1  0  0  0  0
  2  1  1  0  0  0  0
  3  1  1  0  0  0  0
  4  5  2  0  0  0  0
  4  9  1  0  0  0  0
  5  6  1  0  0  0  0
  6 10  1  0  0  0  0
  6  7  2  0  0  0  0
  7 11  1  0  0  0  0
  8  7  1  0  0  0  0
  8 12  1  0  0  0  0
  9  8  2  0  0  0  0
 13  9  1  0  0  0  0
 14 20  1  0  0  0  0
 14 15  1  0  0  0  0
 15 21  1  0  0  0  0
 16 15  2  0  0  0  0
 16  4  1  0  0  0  0
 17 16  1  0  0  0  0
 18 19  1  0  0  0  0
 18 17  2  0  0  0  0
 19 14  2  0  0  0  0
 22 18  1  0  0  0  0
 24 23  1  0  0  0  0
 25 23  1  0  0  0  0
 25 28  1  0  0  0  0
 26 25  1  0  0  0  0
 26 27  1  0  0  0  0
 28 29  1  0  0  0  0
 30 25  1  0  0  0  0
 31 33  1  0  0  0  0
 31 30  1  0  0  0  0
 32 31  1  0  0  0  0
 34 36  1  0  0  0  0
 34 31  1  0  0  0  0
 34 37  1  0  0  0  0
 35 34  1  0  0  0  0
 37 38  2  0  0  0  0
 38 39  1  0  0  0  0
 39 40  1  0  0  0  0
M  END
>  <minimizedAffinity>
-5.28128624

>  <minimizedRMSD>
2.18705797

$$$$
