
 OpenBabel03242517263D

 30 31  0  0  1  0  0  0  0  0999 V2000
   44.9930   34.6470   44.9320 C   0  0  0  0  0  0  0  0  0  0  0  0
   45.9050   34.6000   43.8400 C   0  0  0  0  0  0  0  0  0  0  0  0
   47.0200   33.7490   43.9500 C   0  0  0  0  0  0  0  0  0  0  0  0
   47.1580   33.0290   45.0850 N   0  0  0  0  0  0  0  0  0  0  0  0
   46.2890   33.0830   46.1110 C   0  0  0  0  0  0  0  0  0  0  0  0
   45.2250   33.8930   46.0080 N   0  0  0  0  0  0  0  0  0  0  0  0
   46.5160   32.3010   47.2450 N   0  0  0  0  0  0  0  0  0  0  0  0
   47.7300   32.4490   47.9910 C   0  0  0  0  0  0  0  0  0  0  0  0
   48.0080   31.3100   48.9210 C   0  0  0  0  0  0  0  0  0  0  0  0
   46.8770   30.6570   49.4810 N   0  0  0  0  0  0  0  0  0  0  0  0
   45.6290   31.2760   49.1490 C   0  0  0  0  0  0  0  0  0  0  0  0
   45.4970   31.3330   47.6550 C   0  0  2  0  0  0  0  0  0  0  0  0
   44.1230   35.2690   44.9230 H   0  0  0  0  0  0  0  0  0  0  0  0
   45.7190   35.2050   42.9760 H   0  0  0  0  0  0  0  0  0  0  0  0
   47.7280   33.6930   43.1380 H   0  0  0  0  0  0  0  0  0  0  0  0
   48.5690   32.4880   47.2420 H   0  0  0  0  0  0  0  0  0  0  0  0
   47.7760   33.4470   48.4920 H   0  0  0  0  0  0  0  0  0  0  0  0
   48.7060   31.7120   49.7080 H   0  0  0  0  0  0  0  0  0  0  0  0
   48.6210   30.5420   48.3790 H   0  0  0  0  0  0  0  0  0  0  0  0
   46.9730   30.7000   50.5350 H   0  0  0  0  0  0  0  0  0  0  0  0
   45.5000   32.2920   49.5670 H   0  0  0  0  0  0  0  0  0  0  0  0
   44.8120   30.6380   49.5470 H   0  0  0  0  0  0  0  0  0  0  0  0
   44.5150   31.7350   47.3990 H   0  0  0  0  0  0  0  0  0  0  0  0
   45.6830   30.0010   47.0100 C   0  0  0  0  0  0  0  0  0  0  0  0
   46.7600   29.7240   47.0400 H   0  0  0  0  0  0  0  0  0  0  0  0
   45.3000   30.0220   45.9830 H   0  0  0  0  0  0  0  0  0  0  0  0
   44.8590   29.0000   47.7710 C   0  0  0  0  0  0  0  0  0  0  0  0
   45.1510   27.7110   47.7780 C   0  0  0  0  0  0  0  0  0  0  0  0
   44.3630   26.6710   48.5190 C   0  0  0  0  0  0  0  0  0  0  0  0
   44.6280   26.7190   49.5880 H   0  0  0  0  0  0  0  0  0  0  0  0
  1  6  1  0  0  0  0
  2  3  1  0  0  0  0
  2  1  2  0  0  0  0
  3  4  2  0  0  0  0
  4  5  1  0  0  0  0
  5  7  1  0  0  0  0
  6  5  2  0  0  0  0
  7 12  1  0  0  0  0
  7  8  1  0  0  0  0
  8 17  1  0  0  0  0
  8  9  1  0  0  0  0
  9 10  1  0  0  0  0
  9 18  1  0  0  0  0
 10 20  1  0  0  0  0
 11 10  1  0  0  0  0
 11 22  1  0  0  0  0
 11 21  1  0  0  0  0
 12 23  1  6  0  0  0
 12 11  1  0  0  0  0
 13  1  1  0  0  0  0
 14  2  1  0  0  0  0
 15  3  1  0  0  0  0
 16  8  1  0  0  0  0
 19  9  1  0  0  0  0
 24 25  1  0  0  0  0
 24 12  1  0  0  0  0
 24 27  1  0  0  0  0
 26 24  1  0  0  0  0
 27 28  2  0  0  0  0
 28 29  1  0  0  0  0
 29 30  1  0  0  0  0
M  END
>  <minimizedAffinity>
-4.94703388

>  <minimizedRMSD>
0.71691674

$$$$
