
 OpenBabel03252505313D

 22 22  0  0  0  0  0  0  0  0999 V2000
   47.0440   32.1170   48.3190 O   0  0  0  0  0  0  0  0  0  0  0  0
   45.9890   32.3730   47.2430 P   0  0  1  0  0  0  0  0  0  0  0  0
   44.6810   33.2570   47.8480 O   0  0  0  0  0  0  0  0  0  0  0  0
   44.9180   33.7760   48.6450 H   0  0  0  0  0  0  0  0  0  0  0  0
   46.7600   33.2010   45.9810 O   0  0  0  0  0  0  0  0  0  0  0  0
   44.4710   35.6230   44.7290 C   0  0  0  0  0  0  0  0  0  0  0  0
   44.8390   35.7970   43.3710 C   0  0  0  0  0  0  0  0  0  0  0  0
   45.9300   35.0190   42.9250 C   0  0  0  0  0  0  0  0  0  0  0  0
   46.5320   34.1810   43.8120 N   0  0  0  0  0  0  0  0  0  0  0  0
   46.1340   34.0640   45.0840 C   0  0  0  0  0  0  0  0  0  0  0  0
   45.1080   34.7820   45.5410 N   0  0  0  0  0  0  0  0  0  0  0  0
   43.6370   36.2230   45.0570 H   0  0  0  0  0  0  0  0  0  0  0  0
   44.2990   36.4880   42.7450 H   0  0  0  0  0  0  0  0  0  0  0  0
   46.2390   35.1200   41.9090 H   0  0  0  0  0  0  0  0  0  0  0  0
   45.4210   30.8800   46.7460 O   0  0  0  0  0  0  0  0  0  0  0  0
   44.9750   30.2000   47.8680 C   0  0  0  0  0  0  0  0  0  0  0  0
   43.8920   30.4420   47.9590 H   0  0  0  0  0  0  0  0  0  0  0  0
   45.4640   30.6580   48.7510 H   0  0  0  0  0  0  0  0  0  0  0  0
   45.2040   28.7540   47.8280 C   0  0  0  0  0  0  0  0  0  0  0  0
   44.6130   27.9120   46.9910 C   0  0  0  0  0  0  0  0  0  0  0  0
   43.6220   28.1000   45.9160 C   0  0  0  0  0  0  0  0  0  0  0  0
   43.3190   29.1640   45.8880 H   0  0  0  0  0  0  0  0  0  0  0  0
  2  3  1  0  0  0  0
  2  1  2  1  0  0  0
  3  4  1  0  0  0  0
  5  2  1  0  0  0  0
  6 12  1  0  0  0  0
  6 11  1  0  0  0  0
  7  6  2  0  0  0  0
  8  7  1  0  0  0  0
  8  9  2  0  0  0  0
  9 10  1  0  0  0  0
 10 11  2  0  0  0  0
 10  5  1  0  0  0  0
 13  7  1  0  0  0  0
 14  8  1  0  0  0  0
 15  2  1  0  0  0  0
 15 16  1  0  0  0  0
 16 17  1  0  0  0  0
 16 18  1  0  0  0  0
 19 16  1  0  0  0  0
 20 19  2  0  0  0  0
 21 20  1  0  0  0  0
 22 21  1  0  0  0  0
M  END
>  <minimizedAffinity>
-4.36227322

>  <minimizedRMSD>
0.680461228

$$$$
