
     RDKit          3D

 35 35  0  0  0  0  0  0  0  0999 V2000
   44.7627   36.5996   43.5301 C   0  0  0  0  0  0  0  0  0  0  0  0
   44.8160   35.1156   45.4801 C   0  0  0  0  0  0  0  0  0  0  0  0
   45.2218   35.3880   44.1855 C   0  0  0  0  0  0  0  0  0  0  0  0
   46.0577   34.4700   43.5779 C   0  0  0  0  0  0  0  0  0  0  0  0
   46.4385   33.3519   44.2756 N   0  0  0  0  0  0  0  0  0  0  0  0
   46.0256   33.1191   45.5311 C   0  0  0  0  0  0  0  0  0  0  0  0
   45.2005   34.0246   46.1318 N   0  0  0  0  0  0  0  0  0  0  0  0
   46.4700   34.7855   42.2048 C   0  0  0  0  0  0  0  0  0  0  0  0
   47.1925   33.7152   41.6941 F   0  0  0  0  0  0  0  0  0  0  0  0
   47.3370   35.8489   42.3013 F   0  0  0  0  0  0  0  0  0  0  0  0
   45.4152   34.9500   41.3897 F   0  0  0  0  0  0  0  0  0  0  0  0
   44.8093   37.7433   44.4170 N   0  0  0  0  0  0  0  0  0  0  0  0
   45.7117   38.7244   43.8262 C   0  0  0  0  0  0  0  0  0  0  0  0
   45.1650   40.1237   44.0299 C   0  0  1  0  0  0  0  0  0  0  0  0
   45.0159   40.3920   45.8074 S   0  0  0  0  0  0  0  0  0  0  0  0
   44.2150   42.0173   46.0557 C   0  0  0  0  0  0  0  0  0  0  0  0
   44.4091   42.3819   47.3648 F   0  0  0  0  0  0  0  0  0  0  0  0
   42.8779   41.9822   45.7135 F   0  0  0  0  0  0  0  0  0  0  0  0
   44.9046   42.9486   45.2905 F   0  0  0  0  0  0  0  0  0  0  0  0
   45.2207   36.8510   42.5762 H   0  0  0  0  0  0  0  0  0  0  0  0
   43.6666   36.4443   43.2961 H   0  0  0  0  0  0  0  0  0  0  0  0
   44.1567   35.7901   46.0296 H   0  0  0  0  0  0  0  0  0  0  0  0
   46.3034   32.2601   46.1009 H   0  0  0  0  0  0  0  0  0  0  0  0
   43.8863   38.2219   44.5184 H   0  0  0  0  0  0  0  0  0  0  0  0
   45.7375   38.5551   42.7331 H   0  0  0  0  0  0  0  0  0  0  0  0
   46.7263   38.6395   44.2094 H   0  0  0  0  0  0  0  0  0  0  0  0
   44.1804   40.2305   43.5152 H   0  0  0  0  0  0  0  0  0  0  0  0
   46.1021   41.0935   43.4475 C   0  0  0  0  0  0  0  0  0  0  0  0
   45.9124   42.4122   43.3608 C   0  0  0  0  0  0  0  0  0  0  0  0
   44.7248   43.1710   43.8309 C   0  0  0  0  0  0  0  0  0  0  0  0
   45.0510   44.1601   44.2192 H   0  0  0  0  0  0  0  0  0  0  0  0
   47.0544   40.7153   43.0418 H   0  0  0  0  0  0  0  0  0  0  0  0
   46.6737   43.0426   42.9060 H   0  0  0  0  0  0  0  0  0  0  0  0
   43.9960   43.3030   43.0206 H   0  0  0  0  0  0  0  0  0  0  0  0
   44.2109   42.6174   44.6688 H   0  0  0  0  0  0  0  0  0  0  0  0
  1  3  1  0
  1 12  1  0
  2  7  2  0
  3  2  1  0
  4  3  2  0
  4  5  1  0
  5  6  2  0
  6  7  1  0
  8 10  1  0
  8  4  1  0
  9  8  1  0
 11  8  1  0
 13 14  1  0
 13 12  1  0
 14 15  1  0
 15 16  1  0
 16 17  1  0
 18 16  1  0
 19 16  1  0
  1 20  1  0
  1 21  1  0
  2 22  1  0
  6 23  1  0
 12 24  1  0
 13 25  1  0
 13 26  1  0
 14 27  1  6
 28 29  2  3
 29 30  1  0
 30 31  1  0
 28 32  1  0
 29 33  1  0
 30 34  1  0
 30 35  1  0
 14 28  1  0
M  ISO  8  20   8  21   8  22  14  23  14  24   5  25   8  26   8  27   8
M  ISO  1  31   8
M  END
>  <DihAtoms>  (1) 
12,13,27,28

>  <DihDeg>  (1) 
70.37079044047354

$$$$
