REMARK  Name = 
REMARK  5 active torsions:
REMARK  status: ('A' for Active; 'I' for Inactive)
REMARK    1  A    between atoms: C_1  and  C_11
REMARK    2  A    between atoms: C_5  and  C_14
REMARK    3  A    between atoms: C_15  and  C_16
REMARK    4  A    between atoms: C_16  and  C_28
REMARK    5  A    between atoms: C_29  and  C_30
REMARK                            x       y       z     vdW  Elec       q    Type
REMARK                         _______ _______ _______ _____ _____    ______ ____
ROOT
ATOM      1  C   UNL     1      46.163  32.558  47.012  0.00  0.00    +0.000 A 
ATOM      2  C   UNL     1      45.239  32.581  48.001  0.00  0.00    +0.000 A 
ATOM      3  C   UNL     1      45.436  31.771  49.101  0.00  0.00    +0.000 A 
ATOM      4  C   UNL     1      46.551  30.955  49.193  0.00  0.00    +0.000 A 
ATOM      5  C   UNL     1      47.482  30.963  48.144  0.00  0.00    +0.000 A 
ATOM      6  N   UNL     1      47.264  31.744  47.115  0.00  0.00    +0.000 NA
ATOM      7  H   UNL     1      44.381  33.235  47.890  0.00  0.00    +0.000 HD
ATOM      8  H   UNL     1      44.702  31.789  49.889  0.00  0.00    +0.000 HD
ATOM      9  H   UNL     1      46.729  30.311  50.044  0.00  0.00    +0.000 HD
ENDROOT
BRANCH   1  14
ATOM     10  C   UNL     1      44.964  34.977  44.564  0.00  0.00    +0.000 A 
ATOM     11  C   UNL     1      45.934  34.852  43.542  0.00  0.00    +0.000 A 
ATOM     12  C   UNL     1      46.995  33.944  43.686  0.00  0.00    +0.000 A 
ATOM     13  N   UNL     1      46.976  33.260  44.830  0.00  0.00    +0.000 NA
ATOM     14  C   UNL     1      46.074  33.370  45.791  0.00  0.00    +0.000 A 
ATOM     15  N   UNL     1      45.073  34.227  45.652  0.00  0.00    +0.000 NA
ATOM     16  N   UNL     1      43.902  35.914  44.363  0.00  0.00    +0.000 N 
ATOM     17  H   UNL     1      45.845  35.463  42.654  0.00  0.00    +0.000 HD
ATOM     18  H   UNL     1      47.742  33.830  42.928  0.00  0.00    +0.000 HD
ATOM     19  H   UNL     1      43.861  36.528  45.216  0.00  0.00    +0.000 HD
ATOM     20  H   UNL     1      43.282  35.967  43.508  0.00  0.00    +0.000 HD
ENDBRANCH   1  14
BRANCH   5  21
ATOM     21  C   UNL     1      48.674  30.121  48.193  0.00  0.00    +0.000 C 
ATOM     22  C   UNL     1      49.779  30.477  48.846  0.00  0.00    +0.000 C 
BRANCH  22  23
ATOM     23  C   UNL     1      49.896  31.754  49.577  0.00  0.00    +0.000 C 
ATOM     24  H   UNL     1      50.785  32.304  49.163  0.00  0.00    +0.000 HD
ATOM     25  H   UNL     1      49.023  32.399  49.395  0.00  0.00    +0.000 HD
BRANCH  23  26
ATOM     26  C   UNL     1      50.172  31.541  51.024  0.00  0.00    +0.000 C 
ATOM     27  C   UNL     1      50.847  30.488  51.524  0.00  0.00    +0.000 C 
BRANCH  27  28
ATOM     28  C   UNL     1      51.234  30.075  52.898  0.00  0.00    +0.000 C 
ATOM     29  H   UNL     1      51.156  30.931  53.608  0.00  0.00    +0.000 HD
ENDBRANCH  27  28
ENDBRANCH  23  26
ENDBRANCH  22  23
ENDBRANCH   5  21
TORSDOF 5
