
 OpenBabel03252503443D

 29 30  0  0  1  0  0  0  0  0999 V2000
   44.6560   35.3520   45.2280 C   0  0  0  0  0  0  0  0  0  0  0  0
   45.3990   35.2140   44.0410 C   0  0  0  0  0  0  0  0  0  0  0  0
   46.2540   34.1030   43.9660 C   0  0  0  0  0  0  0  0  0  0  0  0
   46.3140   33.2560   44.9980 N   0  0  0  0  0  0  0  0  0  0  0  0
   45.5880   33.4230   46.1130 C   0  0  0  0  0  0  0  0  0  0  0  0
   44.7540   34.4720   46.2380 N   0  0  0  0  0  0  0  0  0  0  0  0
   43.9750   36.1820   45.3670 H   0  0  0  0  0  0  0  0  0  0  0  0
   46.7990   34.0320   43.0590 H   0  0  0  0  0  0  0  0  0  0  0  0
   47.2110   32.1330   47.5180 C   0  0  2  0  0  0  0  0  0  0  0  0
   45.7320   32.4110   47.1580 C   0  0  1  0  0  0  0  0  0  0  0  0
   45.2350   32.7630   48.3830 O   0  0  0  0  0  0  0  0  0  0  0  0
   45.7310   31.8600   49.2860 C   0  0  0  0  0  0  0  0  0  0  0  0
   46.9410   31.1800   48.6950 C   0  0  2  0  0  0  0  0  0  0  0  0
   47.7430   31.6550   46.6970 H   0  0  0  0  0  0  0  0  0  0  0  0
   45.3140   31.4650   46.7620 H   0  0  0  0  0  0  0  0  0  0  0  0
   46.0730   32.3420   50.2290 H   0  0  0  0  0  0  0  0  0  0  0  0
   44.9390   31.1480   49.5760 H   0  0  0  0  0  0  0  0  0  0  0  0
   46.6310   30.2270   48.2500 H   0  0  0  0  0  0  0  0  0  0  0  0
   47.7400   33.2640   48.0450 O   0  0  0  0  0  0  0  0  0  0  0  0
   47.6530   34.0800   47.4780 H   0  0  0  0  0  0  0  0  0  0  0  0
   48.0150   31.0850   49.5470 O   0  0  0  0  0  0  0  0  0  0  0  0
   47.6700   31.3120   50.4560 H   0  0  0  0  0  0  0  0  0  0  0  0
   45.1850   36.2380   42.9990 C   0  0  0  0  0  0  0  0  0  0  0  0
   44.8890   37.1800   43.5130 H   0  0  0  0  0  0  0  0  0  0  0  0
   46.1610   36.4990   42.5010 H   0  0  0  0  0  0  0  0  0  0  0  0
   44.1680   35.8090   42.0120 C   0  0  0  0  0  3  0  0  0  0  0  0
   44.0180   34.9180   41.0540 C   0  0  0  0  0  3  0  0  0  0  0  0
   44.8420   33.8450   40.4570 C   0  0  0  0  0  2  0  0  0  0  0  0
   45.7880   33.6390   40.9770 H   0  0  0  0  0  0  0  0  0  0  0  0
  1  7  1  0  0  0  0
  1  6  1  0  0  0  0
  2  1  2  0  0  0  0
  3  2  1  0  0  0  0
  3  4  2  0  0  0  0
  4  5  1  0  0  0  0
  5  6  2  0  0  0  0
  5 10  1  0  0  0  0
  8  3  1  0  0  0  0
  9 14  1  6  0  0  0
  9 19  1  0  0  0  0
  9 13  1  0  0  0  0
 10 15  1  6  0  0  0
 10  9  1  0  0  0  0
 10 11  1  0  0  0  0
 11 12  1  0  0  0  0
 12 17  1  0  0  0  0
 12 16  1  0  0  0  0
 13 18  1  6  0  0  0
 13 12  1  0  0  0  0
 13 21  1  0  0  0  0
 20 19  1  0  0  0  0
 21 22  1  0  0  0  0
 23 24  1  0  0  0  0
 23  2  1  0  0  0  0
 25 23  1  0  0  0  0
 26 23  1  0  0  0  0
 27 26  2  0  0  0  0
 28 29  1  0  0  0  0
 28 27  1  0  0  0  0
M  END
>  <minimizedAffinity>
-5.7412591

>  <minimizedRMSD>
0.0958679914

$$$$
