
 OpenBabel03252503433D

 29 30  0  0  1  0  0  0  0  0999 V2000
   44.7010   35.2300   45.3780 C   0  0  0  0  0  0  0  0  0  0  0  0
   45.4230   35.0710   44.1820 C   0  0  0  0  0  0  0  0  0  0  0  0
   46.2450   33.9360   44.0960 C   0  0  0  0  0  0  0  0  0  0  0  0
   46.2950   33.0880   45.1270 N   0  0  0  0  0  0  0  0  0  0  0  0
   45.5900   33.2750   46.2520 C   0  0  0  0  0  0  0  0  0  0  0  0
   44.7870   34.3480   46.3870 N   0  0  0  0  0  0  0  0  0  0  0  0
   44.0450   36.0780   45.5260 H   0  0  0  0  0  0  0  0  0  0  0  0
   46.7760   33.8490   43.1810 H   0  0  0  0  0  0  0  0  0  0  0  0
   47.1940   31.9190   47.6140 C   0  0  2  0  0  0  0  0  0  0  0  0
   45.7190   32.2600   47.2960 C   0  0  1  0  0  0  0  0  0  0  0  0
   45.2730   32.6350   48.5330 O   0  0  0  0  0  0  0  0  0  0  0  0
   45.7550   31.7140   49.4250 C   0  0  0  0  0  0  0  0  0  0  0  0
   46.9170   30.9810   48.8010 C   0  0  2  0  0  0  0  0  0  0  0  0
   47.6820   31.4170   46.7800 H   0  0  0  0  0  0  0  0  0  0  0  0
   45.2500   31.3330   46.9140 H   0  0  0  0  0  0  0  0  0  0  0  0
   46.1440   32.1810   50.3550 H   0  0  0  0  0  0  0  0  0  0  0  0
   44.9420   31.0370   49.7380 H   0  0  0  0  0  0  0  0  0  0  0  0
   46.5540   30.0410   48.3680 H   0  0  0  0  0  0  0  0  0  0  0  0
   47.7870   33.0260   48.1230 O   0  0  0  0  0  0  0  0  0  0  0  0
   47.7190   33.8450   47.5560 H   0  0  0  0  0  0  0  0  0  0  0  0
   48.0090   30.8410   49.6220 O   0  0  0  0  0  0  0  0  0  0  0  0
   47.7010   31.0840   50.5400 H   0  0  0  0  0  0  0  0  0  0  0  0
   45.2240   36.1010   43.1420 C   0  0  0  0  0  0  0  0  0  0  0  0
   44.4790   36.8290   43.5330 H   0  0  0  0  0  0  0  0  0  0  0  0
   46.1590   36.7140   43.0150 H   0  0  0  0  0  0  0  0  0  0  0  0
   44.7860   35.5030   41.8590 C   0  0  0  0  0  3  0  0  0  0  0  0
   43.6720   35.2080   41.2220 C   0  0  0  0  0  3  0  0  0  0  0  0
   42.2230   35.3390   41.4910 C   0  0  0  0  0  2  0  0  0  0  0  0
   41.9670   35.9070   42.3950 H   0  0  0  0  0  0  0  0  0  0  0  0
  1  7  1  0  0  0  0
  1  6  1  0  0  0  0
  2  1  2  0  0  0  0
  3  2  1  0  0  0  0
  3  4  2  0  0  0  0
  4  5  1  0  0  0  0
  5  6  2  0  0  0  0
  5 10  1  0  0  0  0
  8  3  1  0  0  0  0
  9 14  1  6  0  0  0
  9 19  1  0  0  0  0
  9 13  1  0  0  0  0
 10 15  1  6  0  0  0
 10  9  1  0  0  0  0
 10 11  1  0  0  0  0
 11 12  1  0  0  0  0
 12 17  1  0  0  0  0
 12 16  1  0  0  0  0
 13 18  1  6  0  0  0
 13 12  1  0  0  0  0
 13 21  1  0  0  0  0
 20 19  1  0  0  0  0
 21 22  1  0  0  0  0
 23 24  1  0  0  0  0
 23  2  1  0  0  0  0
 25 23  1  0  0  0  0
 26 23  1  0  0  0  0
 27 28  1  0  0  0  0
 27 26  2  0  0  0  0
 28 29  1  0  0  0  0
M  END
>  <minimizedAffinity>
-5.74081612

>  <minimizedRMSD>
0.589098275

$$$$
