
 OpenBabel03242519323D

 43 45  0  0  0  0  0  0  0  0999 V2000
   47.9050   33.8570   42.8490 C   0  0  0  0  0  0  0  0  0  0  0  0
   48.5630   35.1050   42.6410 C   0  0  0  0  0  0  0  0  0  0  0  0
   49.9270   35.1280   42.3260 C   0  0  0  0  0  0  0  0  0  0  0  0
   50.5530   33.9110   42.2370 N   0  0  0  0  0  0  0  0  0  0  0  0
   49.8770   32.7330   42.4460 C   0  0  0  0  0  0  0  0  0  0  0  0
   48.5890   32.7270   42.7430 N   0  0  0  0  0  0  0  0  0  0  0  0
   48.1250   36.0920   42.6980 H   0  0  0  0  0  0  0  0  0  0  0  0
   50.4650   36.0300   42.1610 H   0  0  0  0  0  0  0  0  0  0  0  0
   46.4830   33.9760   43.1750 C   0  0  0  0  0  0  0  0  0  0  0  0
   45.7630   34.9790   42.4320 C   0  0  0  0  0  0  0  0  0  0  0  0
   45.2920   36.1280   43.2370 C   0  0  0  0  0  0  0  0  0  0  0  0
   44.4310   35.6570   44.4110 C   0  0  0  0  0  0  0  0  0  0  0  0
   44.9820   34.4710   45.1160 C   0  0  0  0  0  0  0  0  0  0  0  0
   46.4300   34.2070   44.7250 C   0  0  0  0  0  0  0  0  0  0  0  0
   46.0250   32.9500   43.0450 H   0  0  0  0  0  0  0  0  0  0  0  0
   46.4050   35.4000   41.6080 H   0  0  0  0  0  0  0  0  0  0  0  0
   44.8720   34.5620   41.9080 H   0  0  0  0  0  0  0  0  0  0  0  0
   46.0360   36.7980   43.6530 H   0  0  0  0  0  0  0  0  0  0  0  0
   44.6110   36.7700   42.6130 H   0  0  0  0  0  0  0  0  0  0  0  0
   43.4040   35.4740   44.0140 H   0  0  0  0  0  0  0  0  0  0  0  0
   44.3180   36.4750   45.1580 H   0  0  0  0  0  0  0  0  0  0  0  0
   44.4300   33.5290   44.8900 H   0  0  0  0  0  0  0  0  0  0  0  0
   44.9820   34.5940   46.2070 H   0  0  0  0  0  0  0  0  0  0  0  0
   46.7290   33.2420   45.1660 H   0  0  0  0  0  0  0  0  0  0  0  0
   47.0910   35.0540   44.9880 H   0  0  0  0  0  0  0  0  0  0  0  0
   50.7140   31.5470   42.3120 C   0  0  0  0  0  0  0  0  0  0  0  0
   51.3750   31.3360   41.1630 N   0  0  0  0  0  0  0  0  0  0  0  0
   52.0830   30.1810   41.2680 C   0  0  0  0  0  0  0  0  0  0  0  0
   51.8440   29.6890   42.4990 N   0  0  0  0  0  0  0  0  0  0  0  0
   51.0130   30.5120   43.1420 N   0  0  0  0  0  0  0  0  0  0  0  0
   52.7240   29.7340   40.4970 H   0  0  0  0  0  0  0  0  0  0  0  0
   52.3890   28.4880   43.0870 C   0  0  0  0  0  0  0  0  0  0  0  0
   52.4710   27.6540   42.4120 H   0  0  0  0  0  0  0  0  0  0  0  0
   51.6860   28.1490   43.9010 H   0  0  0  0  0  0  0  0  0  0  0  0
   53.6620   28.7910   43.7380 C   0  0  0  0  0  3  0  0  0  0  0  0
   54.0420   29.5880   44.7090 C   0  0  0  0  0  3  0  0  0  0  0  0
   55.4290   29.7400   45.3480 C   0  0  0  0  0  0  0  0  0  0  0  0
   55.2910   30.5980   46.0370 H   0  0  0  0  0  0  0  0  0  0  0  0
   55.6230   28.7810   45.8840 H   0  0  0  0  0  0  0  0  0  0  0  0
   56.3740   30.0430   44.2710 C   0  0  0  0  0  2  0  0  0  0  0  0
   57.1810   30.4500   43.3090 C   0  0  0  0  0  2  0  0  0  0  0  0
   58.2230   29.8460   42.4030 C   0  0  0  0  0  2  0  0  0  0  0  0
   58.2270   28.7350   42.6330 H   0  0  0  0  0  0  0  0  0  0  0  0
  1  9  1  0  0  0  0
  2  7  1  0  0  0  0
  2  1  2  0  0  0  0
  3  2  1  0  0  0  0
  4  3  2  0  0  0  0
  4  5  1  0  0  0  0
  5  6  2  0  0  0  0
  6  1  1  0  0  0  0
  8  3  1  0  0  0  0
  9 14  1  0  0  0  0
 10  9  1  0  0  0  0
 10 11  1  0  0  0  0
 11 18  1  0  0  0  0
 11 12  1  0  0  0  0
 12 13  1  0  0  0  0
 12 21  1  0  0  0  0
 13 23  1  0  0  0  0
 14 25  1  0  0  0  0
 14 13  1  0  0  0  0
 14 24  1  0  0  0  0
 15  9  1  0  0  0  0
 16 10  1  0  0  0  0
 17 10  1  0  0  0  0
 19 11  1  0  0  0  0
 20 12  1  0  0  0  0
 22 13  1  0  0  0  0
 26  5  1  0  0  0  0
 26 30  2  0  0  0  0
 27 28  2  0  0  0  0
 27 26  1  0  0  0  0
 28 29  1  0  0  0  0
 29 32  1  0  0  0  0
 29 30  1  0  0  0  0
 31 28  1  0  0  0  0
 32 35  1  0  0  0  0
 32 34  1  0  0  0  0
 33 32  1  0  0  0  0
 35 36  2  0  0  0  0
 36 37  1  0  0  0  0
 37 39  1  0  0  0  0
 37 38  1  0  0  0  0
 40 37  1  0  0  0  0
 41 40  1  0  0  0  0
 42 43  1  0  0  0  0
 42 41  1  0  0  0  0
M  END
>  <minimizedAffinity>
-4.08461046

>  <minimizedRMSD>
0.837420881

$$$$
