
 OpenBabel03242520133D

 29 30  0  0  0  0  0  0  0  0999 V2000
   46.1680   32.5830   46.8960 C   0  0  0  0  0  0  0  0  0  0  0  0
   45.3220   32.6670   47.9500 C   0  0  0  0  0  0  0  0  0  0  0  0
   45.5320   31.8290   49.0270 C   0  0  0  0  0  0  0  0  0  0  0  0
   46.5810   30.9250   49.0320 C   0  0  0  0  0  0  0  0  0  0  0  0
   47.4310   30.8720   47.9180 C   0  0  0  0  0  0  0  0  0  0  0  0
   47.2040   31.6810   46.9130 N   0  0  0  0  0  0  0  0  0  0  0  0
   44.5150   33.3890   47.9070 H   0  0  0  0  0  0  0  0  0  0  0  0
   44.8600   31.8960   49.8670 H   0  0  0  0  0  0  0  0  0  0  0  0
   46.7670   30.2580   49.8630 H   0  0  0  0  0  0  0  0  0  0  0  0
   44.9220   35.0370   44.5080 C   0  0  0  0  0  0  0  0  0  0  0  0
   45.8780   34.9350   43.4700 C   0  0  0  0  0  0  0  0  0  0  0  0
   46.9450   34.0300   43.5830 C   0  0  0  0  0  0  0  0  0  0  0  0
   46.9460   33.3260   44.7150 N   0  0  0  0  0  0  0  0  0  0  0  0
   46.0570   33.4150   45.6910 C   0  0  0  0  0  0  0  0  0  0  0  0
   45.0500   34.2690   45.5810 N   0  0  0  0  0  0  0  0  0  0  0  0
   43.8530   35.9720   44.3380 N   0  0  0  0  0  0  0  0  0  0  0  0
   45.7730   35.5600   42.5940 H   0  0  0  0  0  0  0  0  0  0  0  0
   47.6810   33.9320   42.8130 H   0  0  0  0  0  0  0  0  0  0  0  0
   43.8210   36.5710   45.2020 H   0  0  0  0  0  0  0  0  0  0  0  0
   43.2200   36.0370   43.4930 H   0  0  0  0  0  0  0  0  0  0  0  0
   48.5510   29.9360   47.8740 C   0  0  0  0  0  3  0  0  0  0  0  0
   49.6760   30.1280   48.5620 C   0  0  0  0  0  3  0  0  0  0  0  0
   49.8880   31.3040   49.4290 C   0  0  0  0  0  0  0  0  0  0  0  0
   50.7210   31.9120   48.9810 H   0  0  0  0  0  0  0  0  0  0  0  0
   49.0020   31.9570   49.4400 H   0  0  0  0  0  0  0  0  0  0  0  0
   50.3410   30.9120   50.7920 C   0  0  0  0  0  3  0  0  0  0  0  0
   50.4310   29.6420   51.2290 C   0  0  0  0  0  3  0  0  0  0  0  0
   50.8460   29.0270   52.5170 C   0  0  0  0  0  2  0  0  0  0  0  0
   51.4200   29.7520   53.1390 H   0  0  0  0  0  0  0  0  0  0  0  0
  1  6  2  0  0  0  0
  1  2  1  0  0  0  0
  2  3  2  0  0  0  0
  3  4  1  0  0  0  0
  3  8  1  0  0  0  0
  4  9  1  0  0  0  0
  5  4  2  0  0  0  0
  6  5  1  0  0  0  0
  7  2  1  0  0  0  0
 10 15  1  0  0  0  0
 11 12  1  0  0  0  0
 11 10  2  0  0  0  0
 12 13  2  0  0  0  0
 13 14  1  0  0  0  0
 14  1  1  0  0  0  0
 15 14  2  0  0  0  0
 16 10  1  0  0  0  0
 16 19  1  0  0  0  0
 17 11  1  0  0  0  0
 18 12  1  0  0  0  0
 20 16  1  0  0  0  0
 21  5  1  0  0  0  0
 21 22  2  0  0  0  0
 22 23  1  0  0  0  0
 23 25  1  0  0  0  0
 23 26  1  0  0  0  0
 24 23  1  0  0  0  0
 26 27  2  0  0  0  0
 27 28  1  0  0  0  0
 28 29  1  0  0  0  0
M  END
>  <minimizedAffinity>
-6.00469923

>  <minimizedRMSD>
0.605219901

$$$$
