
 OpenBabel03252508473D

 40 41  0  0  0  0  0  0  0  0999 V2000
   43.0580   32.5280   41.6550 C   0  0  0  0  0  0  0  0  0  0  0  0
   43.6500   32.0560   40.8290 H   0  0  0  0  0  0  0  0  0  0  0  0
   42.1570   32.9590   41.2090 H   0  0  0  0  0  0  0  0  0  0  0  0
   43.6310   34.9600   41.8790 C   0  0  0  0  0  0  0  0  0  0  0  0
   43.9030   33.6280   42.1900 C   0  0  0  0  0  0  0  0  0  0  0  0
   44.9860   33.3720   43.0110 C   0  0  0  0  0  0  0  0  0  0  0  0
   45.7480   34.3940   43.4900 C   0  0  0  0  0  0  0  0  0  0  0  0
   45.4970   35.7050   43.1980 C   0  0  0  0  0  0  0  0  0  0  0  0
   44.4100   35.9300   42.3760 C   0  0  0  0  0  0  0  0  0  0  0  0
   45.2240   32.3590   43.2700 H   0  0  0  0  0  0  0  0  0  0  0  0
   46.5930   34.1540   44.1350 H   0  0  0  0  0  0  0  0  0  0  0  0
   46.0920   36.5330   43.5690 H   0  0  0  0  0  0  0  0  0  0  0  0
   44.1810   36.9670   42.1210 H   0  0  0  0  0  0  0  0  0  0  0  0
   40.1650   35.6970   40.5310 C   0  0  0  0  0  0  0  0  0  0  0  0
   41.2080   35.5000   41.4600 C   0  0  0  0  0  0  0  0  0  0  0  0
   42.4780   35.1840   41.0080 C   0  0  0  0  0  0  0  0  0  0  0  0
   42.6570   35.0790   39.6650 N   0  0  0  0  0  0  0  0  0  0  0  0
   41.6420   35.2710   38.7820 C   0  0  0  0  0  0  0  0  0  0  0  0
   40.4040   35.5800   39.2320 N   0  0  0  0  0  0  0  0  0  0  0  0
   39.2050   35.9400   40.9710 H   0  0  0  0  0  0  0  0  0  0  0  0
   41.0890   35.5780   42.5360 H   0  0  0  0  0  0  0  0  0  0  0  0
   41.9090   35.1600   37.7450 H   0  0  0  0  0  0  0  0  0  0  0  0
   42.7570   31.5040   42.6160 N   0  0  0  0  0  0  0  0  0  0  0  0
   43.3730   30.6680   42.5280 H   0  0  0  0  0  0  0  0  0  0  0  0
   41.1100   31.0450   42.5710 S   0  0  0  0  0  0  0  0  0  0  0  0
   40.2210   32.2640   42.4350 O   0  0  0  0  0  0  0  0  0  0  0  0
   39.3610   32.4170   42.8990 H   0  0  0  0  0  0  0  0  0  0  0  0
   40.7420   30.2760   43.8010 O   0  0  0  0  0  0  0  0  0  0  0  0
   41.3950   29.8080   44.4010 H   0  0  0  0  0  0  0  0  0  0  0  0
   40.8790   30.0730   41.2270 O   0  0  0  0  0  0  0  0  0  0  0  0
   39.5820   30.2760   40.7760 C   0  0  0  0  0  0  0  0  0  0  0  0
   39.6250   30.2550   39.6530 H   0  0  0  0  0  0  0  0  0  0  0  0
   39.0920   31.1730   41.1490 H   0  0  0  0  0  0  0  0  0  0  0  0
   38.7290   29.0390   41.1270 C   0  0  0  0  0  0  0  0  0  0  0  0
   38.9460   28.2150   40.4290 H   0  0  0  0  0  0  0  0  0  0  0  0
   38.8990   28.7560   42.1850 H   0  0  0  0  0  0  0  0  0  0  0  0
   37.3190   29.5010   41.0010 C   0  0  0  0  0  3  0  0  0  0  0  0
   36.4990   29.1680   40.0400 C   0  0  0  0  0  3  0  0  0  0  0  0
   36.9450   28.2650   38.9640 C   0  0  0  0  0  2  0  0  0  0  0  0
   36.0300   27.8060   38.4900 H   0  0  0  0  0  0  0  0  0  0  0  0
  1  5  1  0  0  0  0
  1 23  1  0  0  0  0
  2  1  1  0  0  0  0
  3  1  1  0  0  0  0
  4  5  2  0  0  0  0
  4  9  1  0  0  0  0
  5  6  1  0  0  0  0
  6 10  1  0  0  0  0
  6  7  2  0  0  0  0
  7 11  1  0  0  0  0
  8  7  1  0  0  0  0
  8 12  1  0  0  0  0
  9  8  2  0  0  0  0
 13  9  1  0  0  0  0
 14 20  1  0  0  0  0
 14 15  1  0  0  0  0
 15 21  1  0  0  0  0
 16 15  2  0  0  0  0
 16  4  1  0  0  0  0
 17 16  1  0  0  0  0
 18 19  1  0  0  0  0
 18 17  2  0  0  0  0
 19 14  2  0  0  0  0
 22 18  1  0  0  0  0
 24 23  1  0  0  0  0
 25 23  1  0  0  0  0
 25 28  1  0  0  0  0
 26 25  1  0  0  0  0
 26 27  1  0  0  0  0
 28 29  1  0  0  0  0
 30 25  1  0  0  0  0
 31 34  1  0  0  0  0
 31 33  1  0  0  0  0
 31 30  1  0  0  0  0
 32 31  1  0  0  0  0
 34 36  1  0  0  0  0
 35 34  1  0  0  0  0
 37 34  1  0  0  0  0
 38 37  2  0  0  0  0
 39 38  1  0  0  0  0
 40 39  1  0  0  0  0
M  END
>  <minimizedAffinity>
-5.090868

>  <minimizedRMSD>
1.40494514

$$$$
