
 OpenBabel03252504293D

 22 22  0  0  0  0  0  0  0  0999 V2000
   39.8040   30.4460   41.7680 C   0  0  0  0  0  0  0  0  0  0  0  0
   40.8940   30.5710   41.9190 H   0  0  0  0  0  0  0  0  0  0  0  0
   39.7540   29.5890   41.0150 H   0  0  0  0  0  0  0  0  0  0  0  0
   37.9270   31.3010   40.5960 C   0  0  0  0  0  0  0  0  0  0  0  0
   39.1970   31.5920   41.1190 C   0  0  0  0  0  0  0  0  0  0  0  0
   39.6350   32.8780   40.9300 C   0  0  0  0  0  0  0  0  0  0  0  0
   38.8490   33.7380   40.2830 N   0  0  0  0  0  0  0  0  0  0  0  0
   37.6490   33.4460   39.7950 C   0  0  0  0  0  0  0  0  0  0  0  0
   37.1070   32.1790   39.9280 N   0  0  0  0  0  0  0  0  0  0  0  0
   37.4270   30.3210   40.6590 H   0  0  0  0  0  0  0  0  0  0  0  0
   40.6180   33.0440   41.3530 H   0  0  0  0  0  0  0  0  0  0  0  0
   37.1840   34.3070   39.3040 H   0  0  0  0  0  0  0  0  0  0  0  0
   39.1330   29.9750   42.8910 O   0  0  0  0  0  0  0  0  0  0  0  0
   38.6740   28.7010   43.1150 C   0  0  0  0  0  3  0  0  0  0  0  0
   37.3270   28.5420   43.1410 C   0  0  0  0  0  3  0  0  0  0  0  0
   36.6010   27.2310   43.3360 C   0  0  0  0  0  0  0  0  0  0  0  0
   35.5170   27.4150   43.2330 H   0  0  0  0  0  0  0  0  0  0  0  0
   36.8280   26.8830   44.3460 H   0  0  0  0  0  0  0  0  0  0  0  0
   37.0840   26.2460   42.3020 C   0  0  0  0  0  3  0  0  0  0  0  0
   37.0050   24.9290   42.2480 C   0  0  0  0  0  3  0  0  0  0  0  0
   37.4350   23.8590   41.2980 C   0  0  0  0  0  2  0  0  0  0  0  0
   36.5850   23.2620   40.9140 H   0  0  0  0  0  0  0  0  0  0  0  0
  1  2  1  0  0  0  0
  1 13  1  0  0  0  0
  3  1  1  0  0  0  0
  4 10  1  0  0  0  0
  4  5  1  0  0  0  0
  5  1  1  0  0  0  0
  6  5  2  0  0  0  0
  6 11  1  0  0  0  0
  7  6  1  0  0  0  0
  8  9  1  0  0  0  0
  8  7  2  0  0  0  0
  9  4  2  0  0  0  0
 12  8  1  0  0  0  0
 13 14  1  0  0  0  0
 14 15  2  0  0  0  0
 15 16  1  0  0  0  0
 16 18  1  0  0  0  0
 17 16  1  0  0  0  0
 19 16  1  0  0  0  0
 20 19  2  0  0  0  0
 21 20  1  0  0  0  0
 22 21  1  0  0  0  0
M  END
>  <minimizedAffinity>
-4.02342749

$$$$

 OpenBabel03252504293D

 22 22  0  0  0  0  0  0  0  0999 V2000
   36.2340   30.6350   40.8260 C   0  0  0  0  0  0  0  0  0  0  0  0
   35.3010   30.1430   41.1650 H   0  0  0  0  0  0  0  0  0  0  0  0
   36.0040   31.7410   40.9880 H   0  0  0  0  0  0  0  0  0  0  0  0
   37.2480   31.5070   38.8670 C   0  0  0  0  0  0  0  0  0  0  0  0
   36.4650   30.4720   39.4030 C   0  0  0  0  0  0  0  0  0  0  0  0
   36.0620   29.5110   38.5130 C   0  0  0  0  0  0  0  0  0  0  0  0
   36.4300   29.6190   37.2370 N   0  0  0  0  0  0  0  0  0  0  0  0
   37.1720   30.6050   36.7450 C   0  0  0  0  0  0  0  0  0  0  0  0
   37.6350   31.6300   37.5540 N   0  0  0  0  0  0  0  0  0  0  0  0
   37.6530   32.3560   39.4400 H   0  0  0  0  0  0  0  0  0  0  0  0
   35.4630   28.7410   38.9820 H   0  0  0  0  0  0  0  0  0  0  0  0
   37.3510   30.4890   35.6710 H   0  0  0  0  0  0  0  0  0  0  0  0
   37.3320   30.3760   41.6390 O   0  0  0  0  0  0  0  0  0  0  0  0
   37.5190   29.3000   42.4710 C   0  0  0  0  0  3  0  0  0  0  0  0
   36.6310   28.2810   42.3460 C   0  0  0  0  0  3  0  0  0  0  0  0
   36.6610   26.9890   43.1280 C   0  0  0  0  0  0  0  0  0  0  0  0
   35.6210   26.6980   43.3590 H   0  0  0  0  0  0  0  0  0  0  0  0
   37.2110   27.1820   44.0510 H   0  0  0  0  0  0  0  0  0  0  0  0
   37.3470   25.9320   42.2990 C   0  0  0  0  0  3  0  0  0  0  0  0
   36.9950   24.6950   41.9980 C   0  0  0  0  0  3  0  0  0  0  0  0
   37.5740   23.5710   41.2040 C   0  0  0  0  0  2  0  0  0  0  0  0
   36.9170   23.2540   40.3700 H   0  0  0  0  0  0  0  0  0  0  0  0
  1  3  1  0  0  0  0
  1  2  1  0  0  0  0
  1 13  1  0  0  0  0
  4  5  1  0  0  0  0
  4 10  1  0  0  0  0
  5  1  1  0  0  0  0
  6 11  1  0  0  0  0
  6  5  2  0  0  0  0
  7  6  1  0  0  0  0
  8  7  2  0  0  0  0
  8  9  1  0  0  0  0
  9  4  2  0  0  0  0
 12  8  1  0  0  0  0
 13 14  1  0  0  0  0
 15 14  2  0  0  0  0
 15 16  1  0  0  0  0
 16 17  1  0  0  0  0
 16 18  1  0  0  0  0
 19 16  1  0  0  0  0
 20 19  2  0  0  0  0
 21 20  1  0  0  0  0
 22 21  1  0  0  0  0
M  END
>  <minimizedAffinity>
-3.97713304

$$$$

 OpenBabel03252504293D

 22 22  0  0  0  0  0  0  0  0999 V2000
   36.7000   31.0220   39.7600 C   0  0  0  0  0  0  0  0  0  0  0  0
   36.9720   30.2290   39.0350 H   0  0  0  0  0  0  0  0  0  0  0  0
   35.7820   31.4960   39.2740 H   0  0  0  0  0  0  0  0  0  0  0  0
   39.0100   31.5580   39.8260 C   0  0  0  0  0  0  0  0  0  0  0  0
   37.7010   32.0670   39.8440 C   0  0  0  0  0  0  0  0  0  0  0  0
   37.5970   33.4310   39.9380 C   0  0  0  0  0  0  0  0  0  0  0  0
   38.7110   34.1600   40.0010 N   0  0  0  0  0  0  0  0  0  0  0  0
   39.9420   33.6610   39.9820 C   0  0  0  0  0  0  0  0  0  0  0  0
   40.1660   32.2980   39.8910 N   0  0  0  0  0  0  0  0  0  0  0  0
   39.2710   30.4900   39.7560 H   0  0  0  0  0  0  0  0  0  0  0  0
   36.5680   33.7650   39.9480 H   0  0  0  0  0  0  0  0  0  0  0  0
   40.7040   34.4450   40.0450 H   0  0  0  0  0  0  0  0  0  0  0  0
   36.2460   30.5330   40.9800 O   0  0  0  0  0  0  0  0  0  0  0  0
   36.5150   29.3110   41.5420 C   0  0  0  0  0  3  0  0  0  0  0  0
   37.4090   29.3010   42.5640 C   0  0  0  0  0  3  0  0  0  0  0  0
   37.8300   28.0820   43.3510 C   0  0  0  0  0  0  0  0  0  0  0  0
   37.6120   28.2650   44.4180 H   0  0  0  0  0  0  0  0  0  0  0  0
   38.9040   27.9560   43.2030 H   0  0  0  0  0  0  0  0  0  0  0  0
   37.0690   26.8850   42.8410 C   0  0  0  0  0  3  0  0  0  0  0  0
   37.4840   25.7530   42.3000 C   0  0  0  0  0  3  0  0  0  0  0  0
   36.8450   24.5130   41.7650 C   0  0  0  0  0  2  0  0  0  0  0  0
   37.1660   23.6010   42.3040 H   0  0  0  0  0  0  0  0  0  0  0  0
  1  5  1  0  0  0  0
  1 13  1  0  0  0  0
  2  1  1  0  0  0  0
  3  1  1  0  0  0  0
  4  5  2  0  0  0  0
  4  9  1  0  0  0  0
  5  6  1  0  0  0  0
  6 11  1  0  0  0  0
  6  7  2  0  0  0  0
  8  7  1  0  0  0  0
  8 12  1  0  0  0  0
  9  8  2  0  0  0  0
 10  4  1  0  0  0  0
 13 14  1  0  0  0  0
 14 15  2  0  0  0  0
 15 16  1  0  0  0  0
 16 17  1  0  0  0  0
 18 16  1  0  0  0  0
 19 16  1  0  0  0  0
 20 19  2  0  0  0  0
 21 20  1  0  0  0  0
 21 22  1  0  0  0  0
M  END
>  <minimizedAffinity>
-3.95384645

$$$$

 OpenBabel03252504293D

 22 22  0  0  0  0  0  0  0  0999 V2000
   36.5360   30.5760   39.5870 C   0  0  0  0  0  0  0  0  0  0  0  0
   37.1060   29.8850   38.9340 H   0  0  0  0  0  0  0  0  0  0  0  0
   35.6680   30.8900   38.9150 H   0  0  0  0  0  0  0  0  0  0  0  0
   38.3040   31.5650   40.8200 C   0  0  0  0  0  0  0  0  0  0  0  0
   37.2710   31.7870   39.8940 C   0  0  0  0  0  0  0  0  0  0  0  0
   37.1380   33.0780   39.4530 C   0  0  0  0  0  0  0  0  0  0  0  0
   37.9730   34.0070   39.9160 N   0  0  0  0  0  0  0  0  0  0  0  0
   38.9460   33.7800   40.7920 C   0  0  0  0  0  0  0  0  0  0  0  0
   39.1710   32.5140   41.3050 N   0  0  0  0  0  0  0  0  0  0  0  0
   38.5470   30.5910   41.2740 H   0  0  0  0  0  0  0  0  0  0  0  0
   36.3280   33.1880   38.7430 H   0  0  0  0  0  0  0  0  0  0  0  0
   39.5060   34.6900   41.0300 H   0  0  0  0  0  0  0  0  0  0  0  0
   35.9370   29.9500   40.6750 O   0  0  0  0  0  0  0  0  0  0  0  0
   36.0520   28.6350   41.0490 C   0  0  0  0  0  3  0  0  0  0  0  0
   36.6820   28.3980   42.2280 C   0  0  0  0  0  3  0  0  0  0  0  0
   36.8920   27.0390   42.8530 C   0  0  0  0  0  0  0  0  0  0  0  0
   36.6090   26.2690   42.1140 H   0  0  0  0  0  0  0  0  0  0  0  0
   36.2390   26.9790   43.7260 H   0  0  0  0  0  0  0  0  0  0  0  0
   38.3400   26.9020   43.2500 C   0  0  0  0  0  3  0  0  0  0  0  0
   39.3860   27.6740   43.0150 C   0  0  0  0  0  3  0  0  0  0  0  0
   40.8420   27.6510   43.3460 C   0  0  0  0  0  2  0  0  0  0  0  0
   41.1600   28.5330   43.9360 H   0  0  0  0  0  0  0  0  0  0  0  0
  1  5  1  0  0  0  0
  1 13  1  0  0  0  0
  2  1  1  0  0  0  0
  3  1  1  0  0  0  0
  4 10  1  0  0  0  0
  4  9  1  0  0  0  0
  5  4  2  0  0  0  0
  6  5  1  0  0  0  0
  6  7  2  0  0  0  0
  7  8  1  0  0  0  0
  8 12  1  0  0  0  0
  8  9  2  0  0  0  0
 11  6  1  0  0  0  0
 13 14  1  0  0  0  0
 14 15  2  0  0  0  0
 15 16  1  0  0  0  0
 16 19  1  0  0  0  0
 16 18  1  0  0  0  0
 17 16  1  0  0  0  0
 20 19  2  0  0  0  0
 20 21  1  0  0  0  0
 21 22  1  0  0  0  0
M  END
>  <minimizedAffinity>
-3.89495492

$$$$

 OpenBabel03252504293D

 22 22  0  0  0  0  0  0  0  0999 V2000
   36.5740   31.0960   40.7360 C   0  0  0  0  0  0  0  0  0  0  0  0
   35.8000   31.8840   40.8260 H   0  0  0  0  0  0  0  0  0  0  0  0
   36.8840   30.9280   41.8210 H   0  0  0  0  0  0  0  0  0  0  0  0
   38.3010   32.7170   40.6170 C   0  0  0  0  0  0  0  0  0  0  0  0
   37.7600   31.5570   40.0400 C   0  0  0  0  0  0  0  0  0  0  0  0
   38.4280   31.0710   38.9460 C   0  0  0  0  0  0  0  0  0  0  0  0
   39.5140   31.7130   38.5170 N   0  0  0  0  0  0  0  0  0  0  0  0
   40.0130   32.8100   39.0750 C   0  0  0  0  0  0  0  0  0  0  0  0
   39.4200   33.3880   40.1840 N   0  0  0  0  0  0  0  0  0  0  0  0
   37.8900   33.2360   41.4980 H   0  0  0  0  0  0  0  0  0  0  0  0
   37.9660   30.1780   38.5450 H   0  0  0  0  0  0  0  0  0  0  0  0
   40.9100   33.1650   38.5550 H   0  0  0  0  0  0  0  0  0  0  0  0
   36.0750   29.8680   40.3130 O   0  0  0  0  0  0  0  0  0  0  0  0
   35.8640   28.7470   41.0750 C   0  0  0  0  0  3  0  0  0  0  0  0
   36.7320   28.5410   42.0980 C   0  0  0  0  0  3  0  0  0  0  0  0
   36.6730   27.3980   43.0840 C   0  0  0  0  0  0  0  0  0  0  0  0
   35.6130   27.1490   43.2640 H   0  0  0  0  0  0  0  0  0  0  0  0
   37.1410   27.7430   44.0080 H   0  0  0  0  0  0  0  0  0  0  0  0
   37.4160   26.2180   42.5090 C   0  0  0  0  0  3  0  0  0  0  0  0
   36.9830   25.0750   42.0080 C   0  0  0  0  0  3  0  0  0  0  0  0
   37.6030   23.8510   41.4180 C   0  0  0  0  0  2  0  0  0  0  0  0
   37.2770   23.6660   40.3760 H   0  0  0  0  0  0  0  0  0  0  0  0
  1  2  1  0  0  0  0
  1  3  1  0  0  0  0
  4 10  1  0  0  0  0
  5  4  2  0  0  0  0
  5  1  1  0  0  0  0
  6  5  1  0  0  0  0
  7  6  2  0  0  0  0
  7  8  1  0  0  0  0
  8  9  2  0  0  0  0
  9  4  1  0  0  0  0
 11  6  1  0  0  0  0
 12  8  1  0  0  0  0
 13  1  1  0  0  0  0
 13 14  1  0  0  0  0
 14 15  2  0  0  0  0
 15 16  1  0  0  0  0
 16 17  1  0  0  0  0
 16 18  1  0  0  0  0
 19 16  1  0  0  0  0
 20 19  2  0  0  0  0
 21 20  1  0  0  0  0
 22 21  1  0  0  0  0
M  END
>  <minimizedAffinity>
-3.84030151

$$$$

 OpenBabel03252504293D

 22 22  0  0  0  0  0  0  0  0999 V2000
   35.1720   29.2170   39.8930 C   0  0  0  0  0  0  0  0  0  0  0  0
   34.2130   29.2270   39.3380 H   0  0  0  0  0  0  0  0  0  0  0  0
   34.8510   29.5170   40.9460 H   0  0  0  0  0  0  0  0  0  0  0  0
   36.4340   31.1430   40.4620 C   0  0  0  0  0  0  0  0  0  0  0  0
   36.0880   30.2450   39.4390 C   0  0  0  0  0  0  0  0  0  0  0  0
   36.6610   30.4890   38.2170 C   0  0  0  0  0  0  0  0  0  0  0  0
   37.4840   31.5300   38.0870 N   0  0  0  0  0  0  0  0  0  0  0  0
   37.8010   32.3690   39.0660 C   0  0  0  0  0  0  0  0  0  0  0  0
   37.2800   32.2190   40.3400 N   0  0  0  0  0  0  0  0  0  0  0  0
   36.0640   31.0930   41.4980 H   0  0  0  0  0  0  0  0  0  0  0  0
   36.3590   29.7670   37.4700 H   0  0  0  0  0  0  0  0  0  0  0  0
   38.4930   33.1490   38.7310 H   0  0  0  0  0  0  0  0  0  0  0  0
   35.7240   27.9490   40.0350 O   0  0  0  0  0  0  0  0  0  0  0  0
   36.7680   27.5800   40.8450 C   0  0  0  0  0  3  0  0  0  0  0  0
   36.6330   27.8620   42.1660 C   0  0  0  0  0  3  0  0  0  0  0  0
   37.6350   27.5190   43.2440 C   0  0  0  0  0  0  0  0  0  0  0  0
   37.9790   26.4820   43.0810 H   0  0  0  0  0  0  0  0  0  0  0  0
   37.1190   27.5970   44.2030 H   0  0  0  0  0  0  0  0  0  0  0  0
   38.7860   28.4900   43.1690 C   0  0  0  0  0  3  0  0  0  0  0  0
   38.8300   29.7660   42.8330 C   0  0  0  0  0  3  0  0  0  0  0  0
   39.8850   30.8180   42.7210 C   0  0  0  0  0  2  0  0  0  0  0  0
   39.6960   31.6840   43.3840 H   0  0  0  0  0  0  0  0  0  0  0  0
  1 13  1  0  0  0  0
  1  3  1  0  0  0  0
  2  1  1  0  0  0  0
  4 10  1  0  0  0  0
  5  1  1  0  0  0  0
  5  4  2  0  0  0  0
  6  5  1  0  0  0  0
  7  6  2  0  0  0  0
  7  8  1  0  0  0  0
  8  9  2  0  0  0  0
  9  4  1  0  0  0  0
 11  6  1  0  0  0  0
 12  8  1  0  0  0  0
 13 14  1  0  0  0  0
 14 15  2  0  0  0  0
 15 16  1  0  0  0  0
 16 18  1  0  0  0  0
 17 16  1  0  0  0  0
 19 16  1  0  0  0  0
 20 19  2  0  0  0  0
 21 20  1  0  0  0  0
 21 22  1  0  0  0  0
M  END
>  <minimizedAffinity>
-3.77455711

$$$$

 OpenBabel03252504293D

 22 22  0  0  0  0  0  0  0  0999 V2000
   35.3900   29.3860   40.2880 C   0  0  0  0  0  0  0  0  0  0  0  0
   34.8570   28.7880   39.5220 H   0  0  0  0  0  0  0  0  0  0  0  0
   34.5380   29.9400   40.8070 H   0  0  0  0  0  0  0  0  0  0  0  0
   36.7230   31.3120   40.6640 C   0  0  0  0  0  0  0  0  0  0  0  0
   36.2420   30.4050   39.7060 C   0  0  0  0  0  0  0  0  0  0  0  0
   36.6500   30.6330   38.4170 C   0  0  0  0  0  0  0  0  0  0  0  0
   37.4520   31.6680   38.1680 N   0  0  0  0  0  0  0  0  0  0  0  0
   37.8980   32.5160   39.0870 C   0  0  0  0  0  0  0  0  0  0  0  0
   37.5500   32.3820   40.4200 N   0  0  0  0  0  0  0  0  0  0  0  0
   36.4930   31.2740   41.7410 H   0  0  0  0  0  0  0  0  0  0  0  0
   36.2490   29.9040   37.7240 H   0  0  0  0  0  0  0  0  0  0  0  0
   38.5420   33.2890   38.6550 H   0  0  0  0  0  0  0  0  0  0  0  0
   35.9780   28.6190   41.2880 O   0  0  0  0  0  0  0  0  0  0  0  0
   36.7190   27.4740   41.1340 C   0  0  0  0  0  3  0  0  0  0  0  0
   36.9270   26.7370   42.2540 C   0  0  0  0  0  3  0  0  0  0  0  0
   37.6800   25.4280   42.3170 C   0  0  0  0  0  0  0  0  0  0  0  0
   37.3450   24.8770   43.2130 H   0  0  0  0  0  0  0  0  0  0  0  0
   38.7410   25.6680   42.3980 H   0  0  0  0  0  0  0  0  0  0  0  0
   37.3970   24.6420   41.0620 C   0  0  0  0  0  3  0  0  0  0  0  0
   36.3400   23.9430   40.6900 C   0  0  0  0  0  3  0  0  0  0  0  0
   35.9440   23.1350   39.4970 C   0  0  0  0  0  2  0  0  0  0  0  0
   35.0340   23.5250   39.0000 H   0  0  0  0  0  0  0  0  0  0  0  0
  1  3  1  0  0  0  0
  1 13  1  0  0  0  0
  2  1  1  0  0  0  0
  4 10  1  0  0  0  0
  5  1  1  0  0  0  0
  5  4  2  0  0  0  0
  6  5  1  0  0  0  0
  7  6  2  0  0  0  0
  7  8  1  0  0  0  0
  8  9  2  0  0  0  0
  9  4  1  0  0  0  0
 11  6  1  0  0  0  0
 12  8  1  0  0  0  0
 14 13  1  0  0  0  0
 14 15  2  0  0  0  0
 15 16  1  0  0  0  0
 16 18  1  0  0  0  0
 16 17  1  0  0  0  0
 19 16  1  0  0  0  0
 20 19  2  0  0  0  0
 21 20  1  0  0  0  0
 22 21  1  0  0  0  0
M  END
>  <minimizedAffinity>
-3.666394

$$$$

 OpenBabel03252504293D

 22 22  0  0  0  0  0  0  0  0999 V2000
   36.7260   27.0040   43.0490 C   0  0  0  0  0  0  0  0  0  0  0  0
   36.9710   27.1280   44.1220 H   0  0  0  0  0  0  0  0  0  0  0  0
   35.6970   26.5110   43.0850 H   0  0  0  0  0  0  0  0  0  0  0  0
   36.9670   24.8410   42.1040 C   0  0  0  0  0  0  0  0  0  0  0  0
   37.6040   26.0620   42.3820 C   0  0  0  0  0  0  0  0  0  0  0  0
   38.9130   26.1510   41.9860 C   0  0  0  0  0  0  0  0  0  0  0  0
   39.4770   25.1060   41.3810 N   0  0  0  0  0  0  0  0  0  0  0  0
   38.8590   23.9580   41.1250 C   0  0  0  0  0  0  0  0  0  0  0  0
   37.5370   23.7570   41.4820 N   0  0  0  0  0  0  0  0  0  0  0  0
   35.9210   24.6030   42.3550 H   0  0  0  0  0  0  0  0  0  0  0  0
   39.3510   27.1120   42.2250 H   0  0  0  0  0  0  0  0  0  0  0  0
   39.5160   23.2410   40.6210 H   0  0  0  0  0  0  0  0  0  0  0  0
   36.5220   28.2050   42.3780 O   0  0  0  0  0  0  0  0  0  0  0  0
   36.1900   28.3770   41.0580 C   0  0  0  0  0  3  0  0  0  0  0  0
   36.6760   29.4920   40.4550 C   0  0  0  0  0  3  0  0  0  0  0  0
   36.4690   29.8680   39.0060 C   0  0  0  0  0  0  0  0  0  0  0  0
   35.4000   29.7400   38.7630 H   0  0  0  0  0  0  0  0  0  0  0  0
   37.0750   29.1880   38.4050 H   0  0  0  0  0  0  0  0  0  0  0  0
   36.9010   31.2990   38.8060 C   0  0  0  0  0  3  0  0  0  0  0  0
   37.0500   32.2930   39.6630 C   0  0  0  0  0  3  0  0  0  0  0  0
   37.4640   33.7260   39.5930 C   0  0  0  0  0  2  0  0  0  0  0  0
   38.3590   33.9430   40.2070 H   0  0  0  0  0  0  0  0  0  0  0  0
  1  3  1  0  0  0  0
  1  2  1  0  0  0  0
  4 10  1  0  0  0  0
  4  5  1  0  0  0  0
  5  1  1  0  0  0  0
  6 11  1  0  0  0  0
  6  5  2  0  0  0  0
  7  6  1  0  0  0  0
  8  7  2  0  0  0  0
  8  9  1  0  0  0  0
  9  4  2  0  0  0  0
 12  8  1  0  0  0  0
 13  1  1  0  0  0  0
 14 13  1  0  0  0  0
 15 14  2  0  0  0  0
 16 15  1  0  0  0  0
 17 16  1  0  0  0  0
 18 16  1  0  0  0  0
 19 16  1  0  0  0  0
 19 20  2  0  0  0  0
 21 20  1  0  0  0  0
 21 22  1  0  0  0  0
M  END
>  <minimizedAffinity>
-3.64169979

$$$$

 OpenBabel03252504293D

 22 22  0  0  0  0  0  0  0  0999 V2000
   38.5560   29.1220   42.9530 C   0  0  0  0  0  0  0  0  0  0  0  0
   38.0390   29.1070   43.9330 H   0  0  0  0  0  0  0  0  0  0  0  0
   39.5560   29.6100   43.2080 H   0  0  0  0  0  0  0  0  0  0  0  0
   38.7580   31.0240   41.5500 C   0  0  0  0  0  0  0  0  0  0  0  0
   37.9090   29.9970   41.9950 C   0  0  0  0  0  0  0  0  0  0  0  0
   36.6460   29.9990   41.4610 C   0  0  0  0  0  0  0  0  0  0  0  0
   36.3190   30.9460   40.5820 N   0  0  0  0  0  0  0  0  0  0  0  0
   37.1360   31.9100   40.1720 C   0  0  0  0  0  0  0  0  0  0  0  0
   38.4330   32.0050   40.6440 N   0  0  0  0  0  0  0  0  0  0  0  0
   39.8000   31.1680   41.8770 H   0  0  0  0  0  0  0  0  0  0  0  0
   36.0390   29.1870   41.8400 H   0  0  0  0  0  0  0  0  0  0  0  0
   36.6540   32.5750   39.4470 H   0  0  0  0  0  0  0  0  0  0  0  0
   38.8880   27.8590   42.4760 O   0  0  0  0  0  0  0  0  0  0  0  0
   38.3560   26.6540   42.8630 C   0  0  0  0  0  3  0  0  0  0  0  0
   37.4690   26.0850   42.0080 C   0  0  0  0  0  3  0  0  0  0  0  0
   36.7880   24.7520   42.2090 C   0  0  0  0  0  0  0  0  0  0  0  0
   35.6990   24.9230   42.2700 H   0  0  0  0  0  0  0  0  0  0  0  0
   37.1560   24.3380   43.1500 H   0  0  0  0  0  0  0  0  0  0  0  0
   37.1290   23.8490   41.0500 C   0  0  0  0  0  3  0  0  0  0  0  0
   38.2900   23.5320   40.5040 C   0  0  0  0  0  3  0  0  0  0  0  0
   38.7530   22.6680   39.3770 C   0  0  0  0  0  2  0  0  0  0  0  0
   39.4440   21.8680   39.7080 H   0  0  0  0  0  0  0  0  0  0  0  0
  1  3  1  0  0  0  0
  1  2  1  0  0  0  0
  4 10  1  0  0  0  0
  4  5  1  0  0  0  0
  5  1  1  0  0  0  0
  6 11  1  0  0  0  0
  6  5  2  0  0  0  0
  7  6  1  0  0  0  0
  8  7  2  0  0  0  0
  8  9  1  0  0  0  0
  9  4  2  0  0  0  0
 12  8  1  0  0  0  0
 13 14  1  0  0  0  0
 13  1  1  0  0  0  0
 15 16  1  0  0  0  0
 15 14  2  0  0  0  0
 16 17  1  0  0  0  0
 16 18  1  0  0  0  0
 19 16  1  0  0  0  0
 20 19  2  0  0  0  0
 21 22  1  0  0  0  0
 21 20  1  0  0  0  0
M  END
>  <minimizedAffinity>
-3.57737947

$$$$
