
 OpenBabel03242517543D

 38 39  0  0  0  0  0  0  0  0999 V2000
   45.3140   34.2560   43.7700 C   0  0  0  0  0  0  0  0  0  0  0  0
   46.4740   34.7590   43.1490 C   0  0  0  0  0  0  0  0  0  0  0  0
   47.6570   34.0840   43.2860 C   0  0  0  0  0  0  0  0  0  0  0  0
   47.6200   32.9620   44.0230 N   0  0  0  0  0  0  0  0  0  0  0  0
   46.5320   32.4900   44.6060 C   0  0  0  0  0  0  0  0  0  0  0  0
   45.3760   33.1360   44.4810 N   0  0  0  0  0  0  0  0  0  0  0  0
   44.3730   34.7820   43.6680 H   0  0  0  0  0  0  0  0  0  0  0  0
   46.3260   35.6670   42.5920 H   0  0  0  0  0  0  0  0  0  0  0  0
   48.9150   34.5130   42.6640 C   0  0  0  0  0  0  0  0  0  0  0  0
   49.5720   34.8670   43.5100 H   0  0  0  0  0  0  0  0  0  0  0  0
   49.4720   33.6870   42.1750 H   0  0  0  0  0  0  0  0  0  0  0  0
   48.7410   35.6670   41.7240 C   0  0  0  0  0  0  0  0  0  0  0  0
   48.0030   36.3800   42.0410 H   0  0  0  0  0  0  0  0  0  0  0  0
   49.7320   36.2260   41.7700 H   0  0  0  0  0  0  0  0  0  0  0  0
   48.6030   35.2660   40.3220 C   0  0  0  0  0  3  0  0  0  0  0  0
   48.0370   34.3440   39.5530 C   0  0  0  0  0  3  0  0  0  0  0  0
   48.2350   34.1900   38.0550 C   0  0  0  0  0  0  0  0  0  0  0  0
   48.4560   33.1060   37.8750 H   0  0  0  0  0  0  0  0  0  0  0  0
   47.3660   34.5750   37.5270 H   0  0  0  0  0  0  0  0  0  0  0  0
   49.1550   34.7730   37.8070 H   0  0  0  0  0  0  0  0  0  0  0  0
   46.5070   31.3390   45.3580 O   0  0  0  0  0  0  0  0  0  0  0  0
   45.4580   30.1590   47.2520 C   0  0  0  0  0  0  0  0  0  0  0  0
   46.0620   31.2240   46.6690 C   0  0  0  0  0  0  0  0  0  0  0  0
   46.2860   32.3500   47.4380 C   0  0  0  0  0  0  0  0  0  0  0  0
   45.9200   32.4270   48.7610 C   0  0  0  0  0  0  0  0  0  0  0  0
   45.3070   31.3350   49.3440 C   0  0  0  0  0  0  0  0  0  0  0  0
   45.0820   30.2050   48.5730 C   0  0  0  0  0  0  0  0  0  0  0  0
   46.7590   33.2460   47.0560 H   0  0  0  0  0  0  0  0  0  0  0  0
   46.0960   33.3150   49.3670 H   0  0  0  0  0  0  0  0  0  0  0  0
   45.0180   31.3900   50.3880 H   0  0  0  0  0  0  0  0  0  0  0  0
   44.6020   29.3500   49.0290 H   0  0  0  0  0  0  0  0  0  0  0  0
   45.1120   28.8150   46.2140 S   0  0  0  0  0  0  0  0  0  0  0  0
   44.2450   29.1210   45.0600 O   0  0  0  0  0  0  0  0  0  0  0  0
   44.3080   27.8100   47.0710 O   0  0  0  0  0  0  0  0  0  0  0  0
   46.5630   27.9870   45.6990 C   0  0  0  0  0  3  0  0  0  0  0  0
   46.7290   26.9050   44.9640 C   0  0  0  0  0  3  0  0  0  0  0  0
   48.0550   26.3190   44.6100 C   0  0  0  0  0  2  0  0  0  0  0  0
   48.7740   26.4230   45.4470 H   0  0  0  0  0  0  0  0  0  0  0  0
  1  6  1  0  0  0  0
  2  3  1  0  0  0  0
  2  1  2  0  0  0  0
  3  4  2  0  0  0  0
  4  5  1  0  0  0  0
  5 21  1  0  0  0  0
  6  5  2  0  0  0  0
  7  1  1  0  0  0  0
  8  2  1  0  0  0  0
  9  3  1  0  0  0  0
  9 10  1  0  0  0  0
 11  9  1  0  0  0  0
 12 14  1  0  0  0  0
 12 13  1  0  0  0  0
 12  9  1  0  0  0  0
 15 12  1  0  0  0  0
 16 15  2  0  0  0  0
 17 16  1  0  0  0  0
 18 17  1  0  0  0  0
 19 17  1  0  0  0  0
 20 17  1  0  0  0  0
 21 23  1  0  0  0  0
 22 27  1  0  0  0  0
 23 22  2  0  0  0  0
 23 24  1  0  0  0  0
 24 25  2  0  0  0  0
 25 26  1  0  0  0  0
 25 29  1  0  0  0  0
 26 30  1  0  0  0  0
 27 31  1  0  0  0  0
 27 26  2  0  0  0  0
 28 24  1  0  0  0  0
 32 34  2  0  0  0  0
 32 22  1  0  0  0  0
 33 32  2  0  0  0  0
 35 32  1  0  0  0  0
 36 35  2  0  0  0  0
 37 36  1  0  0  0  0
 37 38  1  0  0  0  0
M  END
>  <minimizedAffinity>
-5.41654205

>  <minimizedRMSD>
0.824025035

$$$$
