
     RDKit          3D

 44 45  0  0  0  0  0  0  0  0999 V2000
   45.3049   34.2799   43.7491 C   0  0  0  0  0  0  0  0  0  0  0  0
   46.4702   34.7679   43.1239 C   0  0  0  0  0  0  0  0  0  0  0  0
   47.6429   34.0731   43.2519 C   0  0  0  0  0  0  0  0  0  0  0  0
   47.5922   32.9487   43.9842 N   0  0  0  0  0  0  0  0  0  0  0  0
   46.4991   32.4914   44.5703 C   0  0  0  0  0  0  0  0  0  0  0  0
   45.3530   33.1560   44.4541 N   0  0  0  0  0  0  0  0  0  0  0  0
   48.9038   34.4860   42.6264 C   0  0  0  0  0  0  0  0  0  0  0  0
   48.7491   35.6663   41.7152 C   0  0  0  0  0  0  0  0  0  0  0  0
   48.5027   35.3002   40.3188 C   0  0  0  0  0  0  0  0  0  0  0  0
   48.2824   34.2477   39.5415 C   0  0  0  0  0  0  0  0  0  0  0  0
   48.1825   34.2662   38.0250 C   0  0  0  0  0  0  0  0  0  0  0  0
   46.4600   31.3367   45.3170 O   0  0  0  0  0  0  0  0  0  0  0  0
   45.4353   30.1895   47.2430 C   0  0  0  0  0  0  0  0  0  0  0  0
   46.0638   31.2300   46.6439 C   0  0  0  0  0  0  0  0  0  0  0  0
   46.3709   32.3384   47.4106 C   0  0  0  0  0  0  0  0  0  0  0  0
   46.0637   32.4189   48.7492 C   0  0  0  0  0  0  0  0  0  0  0  0
   45.4239   31.3511   49.3490 C   0  0  0  0  0  0  0  0  0  0  0  0
   45.1156   30.2396   48.5791 C   0  0  0  0  0  0  0  0  0  0  0  0
   44.9843   28.8720   46.2110 S   0  0  0  0  0  0  0  0  0  0  0  0
   43.5382   28.7533   45.9433 O   0  0  0  0  0  0  0  0  0  0  0  0
   45.3636   27.5822   46.9726 O   0  0  0  0  0  0  0  0  0  0  0  0
   44.3721   34.8214   43.6542 H   0  0  0  0  0  0  0  0  0  0  0  0
   46.3344   35.6810   42.5734 H   0  0  0  0  0  0  0  0  0  0  0  0
   49.5793   34.8025   43.4734 H   0  0  0  0  0  0  0  0  0  0  0  0
   49.4348   33.6582   42.1117 H   0  0  0  0  0  0  0  0  0  0  0  0
   48.0789   36.4178   42.0871 H   0  0  0  0  0  0  0  0  0  0  0  0
   49.7750   36.1596   41.7102 H   0  0  0  0  0  0  0  0  0  0  0  0
   48.4955   36.2138   39.6839 H   0  0  0  0  0  0  0  0  0  0  0  0
   48.2411   33.2484   39.9752 H   0  0  0  0  0  0  0  0  0  0  0  0
   48.8419   33.4393   37.6553 H   0  0  0  0  0  0  0  0  0  0  0  0
   47.1398   34.1913   37.7243 H   0  0  0  0  0  0  0  0  0  0  0  0
   48.6328   35.2346   37.7013 H   0  0  0  0  0  0  0  0  0  0  0  0
   46.8704   33.2140   47.0168 H   0  0  0  0  0  0  0  0  0  0  0  0
   46.3052   33.2917   49.3539 H   0  0  0  0  0  0  0  0  0  0  0  0
   45.1805   31.4104   50.4035 H   0  0  0  0  0  0  0  0  0  0  0  0
   44.6154   29.4043   49.0479 H   0  0  0  0  0  0  0  0  0  0  0  0
   45.8954   28.8596   44.7188 C   0  0  0  0  0  0  0  0  0  0  0  0
   45.7989   29.6076   43.6383 C   0  0  0  0  0  0  0  0  0  0  0  0
   46.6666   29.4664   42.4320 C   0  0  0  0  0  0  0  0  0  0  0  0
   46.9113   28.4023   42.2380 H   0  0  0  0  0  0  0  0  0  0  0  0
   46.6855   28.0897   44.6842 H   0  0  0  0  0  0  0  0  0  0  0  0
   45.0323   30.3643   43.6561 H   0  0  0  0  0  0  0  0  0  0  0  0
   46.1196   29.8819   41.5661 H   0  0  0  0  0  0  0  0  0  0  0  0
   47.6419   29.9673   42.6246 H   0  0  0  0  0  0  0  0  0  0  0  0
  1  6  2  0
  2  3  2  0
  2  1  1  0
  3  4  1  0
  4  5  2  0
  5 12  1  0
  6  5  1  0
  7  3  1  0
  8  7  1  0
  9  8  1  0
 10  9  2  0
 11 10  1  0
 12 14  1  0
 13 18  2  0
 14 13  1  0
 14 15  2  0
 15 16  1  0
 16 17  2  0
 18 17  1  0
 19 21  2  0
 19 13  1  0
 20 19  2  0
  1 22  1  0
  2 23  1  0
  7 24  1  0
  7 25  1  0
  8 26  1  0
  8 27  1  0
  9 28  1  0
 10 29  1  0
 11 30  1  0
 11 31  1  0
 11 32  1  0
 15 33  1  0
 16 34  1  0
 17 35  1  0
 18 36  1  0
 37 38  2  3
 38 39  1  0
 39 40  1  0
 37 41  1  0
 38 42  1  0
 39 43  1  0
 39 44  1  0
 19 37  1  0
M  ISO  8  22  14  23  14  24   8  25   8  26   8  27   8  30   8  31   8
M  ISO  6  32   8  33  14  34  14  35  14  36  14  40   8
M  END
>  <DihAtoms>  (1) 
20,18,36,37

>  <DihDeg>  (1) 
-11.424413297698518

$$$$
