
 OpenBabel03242517553D

 38 39  0  0  0  0  0  0  0  0999 V2000
   45.3200   34.2540   43.7640 C   0  0  0  0  0  0  0  0  0  0  0  0
   46.4790   34.7610   43.1420 C   0  0  0  0  0  0  0  0  0  0  0  0
   47.6640   34.0890   43.2800 C   0  0  0  0  0  0  0  0  0  0  0  0
   47.6310   32.9680   44.0180 N   0  0  0  0  0  0  0  0  0  0  0  0
   46.5440   32.4920   44.6010 C   0  0  0  0  0  0  0  0  0  0  0  0
   45.3860   33.1340   44.4750 N   0  0  0  0  0  0  0  0  0  0  0  0
   44.3770   34.7760   43.6620 H   0  0  0  0  0  0  0  0  0  0  0  0
   46.3280   35.6680   42.5860 H   0  0  0  0  0  0  0  0  0  0  0  0
   48.9200   34.5230   42.6580 C   0  0  0  0  0  0  0  0  0  0  0  0
   49.5760   34.8800   43.5050 H   0  0  0  0  0  0  0  0  0  0  0  0
   49.4810   33.6980   42.1710 H   0  0  0  0  0  0  0  0  0  0  0  0
   48.7420   35.6750   41.7170 C   0  0  0  0  0  0  0  0  0  0  0  0
   48.0030   36.3870   42.0340 H   0  0  0  0  0  0  0  0  0  0  0  0
   49.7320   36.2370   41.7620 H   0  0  0  0  0  0  0  0  0  0  0  0
   48.6050   35.2720   40.3160 C   0  0  0  0  0  3  0  0  0  0  0  0
   48.0400   34.3480   39.5490 C   0  0  0  0  0  3  0  0  0  0  0  0
   48.2370   34.1920   38.0500 C   0  0  0  0  0  0  0  0  0  0  0  0
   48.4600   33.1080   37.8720 H   0  0  0  0  0  0  0  0  0  0  0  0
   47.3670   34.5740   37.5230 H   0  0  0  0  0  0  0  0  0  0  0  0
   49.1560   34.7770   37.8010 H   0  0  0  0  0  0  0  0  0  0  0  0
   46.5230   31.3410   45.3530 O   0  0  0  0  0  0  0  0  0  0  0  0
   45.4520   30.1600   47.2340 C   0  0  0  0  0  0  0  0  0  0  0  0
   46.0690   31.2230   46.6610 C   0  0  0  0  0  0  0  0  0  0  0  0
   46.2990   32.3430   47.4370 C   0  0  0  0  0  0  0  0  0  0  0  0
   45.9260   32.4160   48.7590 C   0  0  0  0  0  0  0  0  0  0  0  0
   45.2990   31.3260   49.3320 C   0  0  0  0  0  0  0  0  0  0  0  0
   45.0690   30.2020   48.5530 C   0  0  0  0  0  0  0  0  0  0  0  0
   46.7830   33.2360   47.0630 H   0  0  0  0  0  0  0  0  0  0  0  0
   46.1060   33.2980   49.3710 H   0  0  0  0  0  0  0  0  0  0  0  0
   45.0040   31.3780   50.3740 H   0  0  0  0  0  0  0  0  0  0  0  0
   44.5770   29.3490   49.0010 H   0  0  0  0  0  0  0  0  0  0  0  0
   45.0990   28.8250   46.1870 S   0  0  0  0  0  0  0  0  0  0  0  0
   44.3200   29.1640   44.9810 O   0  0  0  0  0  0  0  0  0  0  0  0
   44.1960   27.8710   47.0000 O   0  0  0  0  0  0  0  0  0  0  0  0
   46.5340   27.9200   45.7650 C   0  0  0  0  0  3  0  0  0  0  0  0
   47.3110   27.9720   44.7030 C   0  0  0  0  0  3  0  0  0  0  0  0
   48.5160   27.1170   44.4930 C   0  0  0  0  0  2  0  0  0  0  0  0
   48.3600   26.0980   44.9020 H   0  0  0  0  0  0  0  0  0  0  0  0
  1  6  1  0  0  0  0
  2  3  1  0  0  0  0
  2  1  2  0  0  0  0
  3  4  2  0  0  0  0
  4  5  1  0  0  0  0
  5 21  1  0  0  0  0
  6  5  2  0  0  0  0
  7  1  1  0  0  0  0
  8  2  1  0  0  0  0
  9  3  1  0  0  0  0
  9 10  1  0  0  0  0
 11  9  1  0  0  0  0
 12 14  1  0  0  0  0
 12 13  1  0  0  0  0
 12  9  1  0  0  0  0
 15 12  1  0  0  0  0
 16 15  2  0  0  0  0
 17 16  1  0  0  0  0
 18 17  1  0  0  0  0
 19 17  1  0  0  0  0
 20 17  1  0  0  0  0
 21 23  1  0  0  0  0
 22 27  1  0  0  0  0
 23 22  2  0  0  0  0
 23 24  1  0  0  0  0
 24 25  2  0  0  0  0
 25 26  1  0  0  0  0
 25 29  1  0  0  0  0
 26 30  1  0  0  0  0
 27 31  1  0  0  0  0
 27 26  2  0  0  0  0
 28 24  1  0  0  0  0
 32 34  2  0  0  0  0
 32 22  1  0  0  0  0
 33 32  2  0  0  0  0
 35 32  1  0  0  0  0
 36 35  2  0  0  0  0
 37 36  1  0  0  0  0
 37 38  1  0  0  0  0
M  END
>  <minimizedAffinity>
-5.40628815

>  <minimizedRMSD>
0.985014856

$$$$
