
 OpenBabel03242517543D

 38 39  0  0  0  0  0  0  0  0999 V2000
   45.3140   34.2550   43.7680 C   0  0  0  0  0  0  0  0  0  0  0  0
   46.4740   34.7600   43.1470 C   0  0  0  0  0  0  0  0  0  0  0  0
   47.6580   34.0840   43.2850 C   0  0  0  0  0  0  0  0  0  0  0  0
   47.6210   32.9630   44.0210 N   0  0  0  0  0  0  0  0  0  0  0  0
   46.5330   32.4890   44.6030 C   0  0  0  0  0  0  0  0  0  0  0  0
   45.3770   33.1350   44.4780 N   0  0  0  0  0  0  0  0  0  0  0  0
   44.3730   34.7800   43.6650 H   0  0  0  0  0  0  0  0  0  0  0  0
   46.3270   35.6680   42.5910 H   0  0  0  0  0  0  0  0  0  0  0  0
   48.9150   34.5160   42.6640 C   0  0  0  0  0  0  0  0  0  0  0  0
   49.5710   34.8700   43.5110 H   0  0  0  0  0  0  0  0  0  0  0  0
   49.4740   33.6900   42.1770 H   0  0  0  0  0  0  0  0  0  0  0  0
   48.7410   35.6690   41.7230 C   0  0  0  0  0  0  0  0  0  0  0  0
   48.0040   36.3820   42.0400 H   0  0  0  0  0  0  0  0  0  0  0  0
   49.7320   36.2280   41.7700 H   0  0  0  0  0  0  0  0  0  0  0  0
   48.6040   35.2670   40.3220 C   0  0  0  0  0  3  0  0  0  0  0  0
   48.0380   34.3450   39.5530 C   0  0  0  0  0  3  0  0  0  0  0  0
   48.2360   34.1900   38.0550 C   0  0  0  0  0  0  0  0  0  0  0  0
   48.4560   33.1060   37.8760 H   0  0  0  0  0  0  0  0  0  0  0  0
   47.3670   34.5750   37.5270 H   0  0  0  0  0  0  0  0  0  0  0  0
   49.1560   34.7720   37.8070 H   0  0  0  0  0  0  0  0  0  0  0  0
   46.5080   31.3380   45.3550 O   0  0  0  0  0  0  0  0  0  0  0  0
   45.4570   30.1570   47.2460 C   0  0  0  0  0  0  0  0  0  0  0  0
   46.0630   31.2210   46.6650 C   0  0  0  0  0  0  0  0  0  0  0  0
   46.2880   32.3470   47.4350 C   0  0  0  0  0  0  0  0  0  0  0  0
   45.9230   32.4220   48.7590 C   0  0  0  0  0  0  0  0  0  0  0  0
   45.3070   31.3300   49.3410 C   0  0  0  0  0  0  0  0  0  0  0  0
   45.0810   30.2020   48.5670 C   0  0  0  0  0  0  0  0  0  0  0  0
   46.7640   33.2420   47.0550 H   0  0  0  0  0  0  0  0  0  0  0  0
   46.1000   33.3080   49.3670 H   0  0  0  0  0  0  0  0  0  0  0  0
   45.0180   31.3840   50.3840 H   0  0  0  0  0  0  0  0  0  0  0  0
   44.5980   29.3470   49.0220 H   0  0  0  0  0  0  0  0  0  0  0  0
   45.1080   28.8150   46.2070 S   0  0  0  0  0  0  0  0  0  0  0  0
   44.2520   29.1270   45.0460 O   0  0  0  0  0  0  0  0  0  0  0  0
   44.2900   27.8160   47.0570 O   0  0  0  0  0  0  0  0  0  0  0  0
   46.5560   27.9760   45.7020 C   0  0  0  0  0  3  0  0  0  0  0  0
   47.1920   27.9600   44.5480 C   0  0  0  0  0  3  0  0  0  0  0  0
   48.4350   27.1790   44.2770 C   0  0  0  0  0  2  0  0  0  0  0  0
   48.4190   26.2070   44.8100 H   0  0  0  0  0  0  0  0  0  0  0  0
  1  6  1  0  0  0  0
  2  3  1  0  0  0  0
  2  1  2  0  0  0  0
  3  4  2  0  0  0  0
  4  5  1  0  0  0  0
  5 21  1  0  0  0  0
  6  5  2  0  0  0  0
  7  1  1  0  0  0  0
  8  2  1  0  0  0  0
  9  3  1  0  0  0  0
  9 10  1  0  0  0  0
 11  9  1  0  0  0  0
 12 14  1  0  0  0  0
 12 13  1  0  0  0  0
 12  9  1  0  0  0  0
 15 12  1  0  0  0  0
 16 15  2  0  0  0  0
 17 16  1  0  0  0  0
 18 17  1  0  0  0  0
 19 17  1  0  0  0  0
 20 17  1  0  0  0  0
 21 23  1  0  0  0  0
 22 27  1  0  0  0  0
 23 22  2  0  0  0  0
 23 24  1  0  0  0  0
 24 25  2  0  0  0  0
 25 26  1  0  0  0  0
 25 29  1  0  0  0  0
 26 30  1  0  0  0  0
 27 31  1  0  0  0  0
 27 26  2  0  0  0  0
 28 24  1  0  0  0  0
 32 34  2  0  0  0  0
 32 22  1  0  0  0  0
 33 32  2  0  0  0  0
 35 32  1  0  0  0  0
 36 35  2  0  0  0  0
 37 36  1  0  0  0  0
 37 38  1  0  0  0  0
M  END
>  <minimizedAffinity>
-5.41356468

>  <minimizedRMSD>
0.935300589

$$$$
