
 OpenBabel03242517553D

 38 39  0  0  0  0  0  0  0  0999 V2000
   45.3200   34.2490   43.7660 C   0  0  0  0  0  0  0  0  0  0  0  0
   46.4780   34.7560   43.1430 C   0  0  0  0  0  0  0  0  0  0  0  0
   47.6640   34.0850   43.2820 C   0  0  0  0  0  0  0  0  0  0  0  0
   47.6320   32.9650   44.0200 N   0  0  0  0  0  0  0  0  0  0  0  0
   46.5450   32.4890   44.6040 C   0  0  0  0  0  0  0  0  0  0  0  0
   45.3870   33.1300   44.4780 N   0  0  0  0  0  0  0  0  0  0  0  0
   44.3770   34.7700   43.6630 H   0  0  0  0  0  0  0  0  0  0  0  0
   46.3270   35.6620   42.5860 H   0  0  0  0  0  0  0  0  0  0  0  0
   48.9200   34.5190   42.6590 C   0  0  0  0  0  0  0  0  0  0  0  0
   49.5760   34.8760   43.5050 H   0  0  0  0  0  0  0  0  0  0  0  0
   49.4800   33.6950   42.1710 H   0  0  0  0  0  0  0  0  0  0  0  0
   48.7410   35.6720   41.7180 C   0  0  0  0  0  0  0  0  0  0  0  0
   48.0020   36.3830   42.0360 H   0  0  0  0  0  0  0  0  0  0  0  0
   49.7310   36.2340   41.7640 H   0  0  0  0  0  0  0  0  0  0  0  0
   48.6040   35.2700   40.3180 C   0  0  0  0  0  3  0  0  0  0  0  0
   48.0400   34.3470   39.5490 C   0  0  0  0  0  3  0  0  0  0  0  0
   48.2370   34.1920   38.0510 C   0  0  0  0  0  0  0  0  0  0  0  0
   48.4600   33.1080   37.8710 H   0  0  0  0  0  0  0  0  0  0  0  0
   47.3660   34.5750   37.5230 H   0  0  0  0  0  0  0  0  0  0  0  0
   49.1560   34.7770   37.8020 H   0  0  0  0  0  0  0  0  0  0  0  0
   46.5250   31.3390   45.3580 O   0  0  0  0  0  0  0  0  0  0  0  0
   45.4470   30.1600   47.2360 C   0  0  0  0  0  0  0  0  0  0  0  0
   46.0690   31.2210   46.6650 C   0  0  0  0  0  0  0  0  0  0  0  0
   46.3000   32.3400   47.4420 C   0  0  0  0  0  0  0  0  0  0  0  0
   45.9260   32.4130   48.7630 C   0  0  0  0  0  0  0  0  0  0  0  0
   45.2940   31.3250   49.3350 C   0  0  0  0  0  0  0  0  0  0  0  0
   45.0620   30.2030   48.5550 C   0  0  0  0  0  0  0  0  0  0  0  0
   46.7880   33.2320   47.0700 H   0  0  0  0  0  0  0  0  0  0  0  0
   46.1070   33.2950   49.3760 H   0  0  0  0  0  0  0  0  0  0  0  0
   44.9980   31.3780   50.3770 H   0  0  0  0  0  0  0  0  0  0  0  0
   44.5670   29.3510   49.0020 H   0  0  0  0  0  0  0  0  0  0  0  0
   45.0920   28.8270   46.1880 S   0  0  0  0  0  0  0  0  0  0  0  0
   44.2920   29.1640   44.9950 O   0  0  0  0  0  0  0  0  0  0  0  0
   44.2100   27.8600   47.0100 O   0  0  0  0  0  0  0  0  0  0  0  0
   46.5290   27.9370   45.7410 C   0  0  0  0  0  3  0  0  0  0  0  0
   47.7010   27.8270   46.3340 C   0  0  0  0  0  3  0  0  0  0  0  0
   48.8400   27.0150   45.8140 C   0  0  0  0  0  2  0  0  0  0  0  0
   48.8840   27.0520   44.7070 H   0  0  0  0  0  0  0  0  0  0  0  0
  1  6  1  0  0  0  0
  2  3  1  0  0  0  0
  2  1  2  0  0  0  0
  3  4  2  0  0  0  0
  4  5  1  0  0  0  0
  5 21  1  0  0  0  0
  6  5  2  0  0  0  0
  7  1  1  0  0  0  0
  8  2  1  0  0  0  0
  9  3  1  0  0  0  0
  9 10  1  0  0  0  0
 11  9  1  0  0  0  0
 12 14  1  0  0  0  0
 12 13  1  0  0  0  0
 12  9  1  0  0  0  0
 15 12  1  0  0  0  0
 16 15  2  0  0  0  0
 17 16  1  0  0  0  0
 18 17  1  0  0  0  0
 19 17  1  0  0  0  0
 20 17  1  0  0  0  0
 21 23  1  0  0  0  0
 22 27  1  0  0  0  0
 23 22  2  0  0  0  0
 23 24  1  0  0  0  0
 24 25  2  0  0  0  0
 25 26  1  0  0  0  0
 25 29  1  0  0  0  0
 26 30  1  0  0  0  0
 27 31  1  0  0  0  0
 27 26  2  0  0  0  0
 28 24  1  0  0  0  0
 32 34  2  0  0  0  0
 32 22  1  0  0  0  0
 33 32  2  0  0  0  0
 35 32  1  0  0  0  0
 35 36  2  0  0  0  0
 37 36  1  0  0  0  0
 38 37  1  0  0  0  0
M  END
>  <minimizedAffinity>
-5.43996334

>  <minimizedRMSD>
1.06835449

$$$$
