REMARK  Name = 
REMARK  5 active torsions:
REMARK  status: ('A' for Active; 'I' for Inactive)
REMARK    1  A    between atoms: C_1  and  C_4
REMARK    2  A    between atoms: C_2  and  C_11
REMARK    3  A    between atoms: C_8  and  O_10
REMARK    4  A    between atoms: O_10  and  C_21
REMARK    5  A    between atoms: C_22  and  C_23
REMARK                            x       y       z     vdW  Elec       q    Type
REMARK                         _______ _______ _______ _____ _____    ______ ____
ROOT
ATOM      1  C   UNL     1      45.898  32.862  44.822  0.00  0.00    +0.000 A 
ATOM      2  C   UNL     1      46.727  31.750  44.500  0.00  0.00    +0.000 A 
ATOM      3  C   UNL     1      47.406  31.046  45.504  0.00  0.00    +0.000 A 
ATOM      4  N   UNL     1      47.207  31.507  46.775  0.00  0.00    +0.000 NA
ATOM      5  C   UNL     1      46.400  32.582  47.042  0.00  0.00    +0.000 A 
ATOM      6  N   UNL     1      45.770  33.230  46.081  0.00  0.00    +0.000 NA
ATOM      7  H   UNL     1      46.865  31.409  43.475  0.00  0.00    +0.000 HD
ATOM      8  H   UNL     1      48.038  30.202  45.291  0.00  0.00    +0.000 HD
ENDROOT
BRANCH   1   9
ATOM      9  C   UNL     1      45.227  33.565  43.715  0.00  0.00    +0.000 C 
ATOM     10  C   UNL     1      45.856  34.986  43.480  0.00  0.00    +0.000 C 
ATOM     11  C   UNL     1      45.809  33.870  42.463  0.00  0.00    +0.000 C 
ATOM     12  H   UNL     1      44.110  33.611  43.853  0.00  0.00    +0.000 HD
ATOM     13  H   UNL     1      46.785  35.225  43.989  0.00  0.00    +0.000 HD
ATOM     14  H   UNL     1      45.239  33.996  41.541  0.00  0.00    +0.000 HD
ATOM     15  H   UNL     1      46.837  33.453  42.246  0.00  0.00    +0.000 HD
BRANCH  10  16
ATOM     16  C   UNL     1      44.836  36.072  43.240  0.00  0.00    +0.000 C 
ATOM     17  F   UNL     1      45.371  37.329  43.233  0.00  0.00    +0.000 F 
ATOM     18  F   UNL     1      44.238  35.855  41.985  0.00  0.00    +0.000 F 
ATOM     19  F   UNL     1      43.793  35.975  44.149  0.00  0.00    +0.000 F 
ENDBRANCH  10  16
ENDBRANCH   1   9
BRANCH   5  20
ATOM     20  O   UNL     1      46.314  32.914  48.395  0.00  0.00    +0.000 OA
BRANCH  20  21
ATOM     21  C   UNL     1      47.032  32.141  49.288  0.00  0.00    +0.000 C 
ATOM     22  C   UNL     1      48.281  31.824  48.936  0.00  0.00    +0.000 C 
BRANCH  22  23
ATOM     23  C   UNL     1      49.253  31.011  49.713  0.00  0.00    +0.000 C 
ATOM     24  H   UNL     1      48.829  30.908  50.743  0.00  0.00    +0.000 HD
ENDBRANCH  22  23
ENDBRANCH  20  21
ENDBRANCH   5  20
TORSDOF 5
