
     RDKit          3D

 28 29  0  0  0  0  0  0  0  0999 V2000
   45.2273   33.5654   43.7147 C   0  0  1  0  0  0  0  0  0  0  0  0
   45.8559   34.9856   43.4799 C   0  0  1  0  0  0  0  0  0  0  0  0
   45.8092   33.8701   42.4629 C   0  0  0  0  0  0  0  0  0  0  0  0
   45.8982   32.8623   44.8216 C   0  0  0  0  0  0  0  0  0  0  0  0
   46.7275   31.7505   44.4997 C   0  0  0  0  0  0  0  0  0  0  0  0
   47.4055   31.0463   45.5040 C   0  0  0  0  0  0  0  0  0  0  0  0
   47.2067   31.5071   46.7754 N   0  0  0  0  0  0  0  0  0  0  0  0
   46.3996   32.5823   47.0416 C   0  0  0  0  0  0  0  0  0  0  0  0
   45.7701   33.2303   46.0809 N   0  0  0  0  0  0  0  0  0  0  0  0
   46.3136   32.9137   48.3947 O   0  0  0  0  0  0  0  0  0  0  0  0
   44.8363   36.0724   43.2396 C   0  0  0  0  0  0  0  0  0  0  0  0
   45.3708   37.3290   43.2326 F   0  0  0  0  0  0  0  0  0  0  0  0
   44.2382   35.8553   41.9853 F   0  0  0  0  0  0  0  0  0  0  0  0
   43.7932   35.9747   44.1493 F   0  0  0  0  0  0  0  0  0  0  0  0
   44.1099   33.6113   43.8531 H   0  0  0  0  0  0  0  0  0  0  0  0
   46.7854   35.2248   43.9892 H   0  0  0  0  0  0  0  0  0  0  0  0
   45.2386   33.9963   41.5408 H   0  0  0  0  0  0  0  0  0  0  0  0
   46.8367   33.4533   42.2465 H   0  0  0  0  0  0  0  0  0  0  0  0
   46.8648   31.4093   43.4754 H   0  0  0  0  0  0  0  0  0  0  0  0
   48.0385   30.2021   45.2905 H   0  0  0  0  0  0  0  0  0  0  0  0
   47.0322   32.1413   49.2882 C   0  0  0  0  0  0  0  0  0  0  0  0
   48.2813   31.8236   48.9360 C   0  0  0  0  0  0  0  0  0  0  0  0
   49.2528   31.0112   49.7130 C   0  0  0  0  0  0  0  0  0  0  0  0
   48.8292   30.9081   50.7433 H   0  0  0  0  0  0  0  0  0  0  0  0
   46.7788   31.7153   50.2711 H   0  0  0  0  0  0  0  0  0  0  0  0
   48.7354   32.1461   47.9940 H   0  0  0  0  0  0  0  0  0  0  0  0
   50.2201   31.5342   49.7783 H   0  0  0  0  0  0  0  0  0  0  0  0
   49.3054   30.0275   49.1947 H   0  0  0  0  0  0  0  0  0  0  0  0
  1  4  1  0
  2  1  1  0
  3  2  1  0
  3  1  1  0
  4  9  1  0
  5  4  2  0
  5  6  1  0
  6  7  2  0
  7  8  1  0
  8 10  1  0
  9  8  2  0
 11  2  1  0
 11 14  1  0
 12 11  1  0
 13 11  1  0
  1 15  1  6
  2 16  1  1
  3 17  1  0
  3 18  1  0
  5 19  1  0
  6 20  1  0
 21 22  2  3
 22 23  1  0
 23 24  1  0
 21 25  1  0
 22 26  1  0
 23 27  1  0
 23 28  1  0
 10 21  1  0
M  ISO  7  15  13  16  13  17  13  18  13  19  14  20  14  24   8
M  END
>  <DihAtoms>  (1) 
7,9,20,21

>  <DihDeg>  (1) 
-121.67215163772573

$$$$
