REMARK  Name = 
REMARK  7 active torsions:
REMARK  status: ('A' for Active; 'I' for Inactive)
REMARK    1  A    between atoms: C_1  and  C_2
REMARK    2  A    between atoms: C_1  and  C_14
REMARK    3  A    between atoms: C_6  and  C_8
REMARK    4  A    between atoms: C_14  and  N_15
REMARK    5  A    between atoms: C_20  and  S_21
REMARK    6  A    between atoms: S_21  and  C_39
REMARK    7  A    between atoms: C_40  and  C_41
REMARK                            x       y       z     vdW  Elec       q    Type
REMARK                         _______ _______ _______ _____ _____    ______ ____
ROOT
ATOM      1  C   UNL     1      43.202  33.222  41.161  0.00  0.00    +0.000 C 
ATOM      2  H   UNL     1      43.491  32.896  40.132  0.00  0.00    +0.000 HD
ATOM      3  H   UNL     1      43.134  32.302  41.806  0.00  0.00    +0.000 HD
ENDROOT
BRANCH   1   4
ATOM      4  C   UNL     1      44.229  34.074  41.784  0.00  0.00    +0.000 A 
ATOM      5  C   UNL     1      43.880  35.249  42.407  0.00  0.00    +0.000 A 
ATOM      6  C   UNL     1      44.884  36.021  42.977  0.00  0.00    +0.000 A 
ATOM      7  N   UNL     1      46.175  35.568  42.889  0.00  0.00    +0.000 NA
ATOM      8  C   UNL     1      46.471  34.425  42.281  0.00  0.00    +0.000 A 
ATOM      9  N   UNL     1      45.489  33.704  41.741  0.00  0.00    +0.000 NA
ATOM     10  H   UNL     1      42.945  35.751  42.588  0.00  0.00    +0.000 HD
ATOM     11  H   UNL     1      44.795  36.965  43.499  0.00  0.00    +0.000 HD
BRANCH   8  12
ATOM     12  C   UNL     1      47.872  34.010  42.258  0.00  0.00    +0.000 A 
ATOM     13  C   UNL     1      48.211  32.681  42.020  0.00  0.00    +0.000 A 
ATOM     14  C   UNL     1      49.536  32.299  42.013  0.00  0.00    +0.000 A 
ATOM     15  C   UNL     1      50.424  33.307  42.251  0.00  0.00    +0.000 A 
ATOM     16  C   UNL     1      50.141  34.646  42.494  0.00  0.00    +0.000 A 
ATOM     17  N   UNL     1      48.819  34.951  42.486  0.00  0.00    +0.000 NA
ATOM     18  H   UNL     1      47.408  31.957  41.841  0.00  0.00    +0.000 HD
ATOM     19  H   UNL     1      49.838  31.296  41.835  0.00  0.00    +0.000 HD
ATOM     20  H   UNL     1      51.489  33.063  42.257  0.00  0.00    +0.000 HD
ATOM     21  H   UNL     1      50.910  35.381  42.673  0.00  0.00    +0.000 HD
ENDBRANCH   8  12
ENDBRANCH   1   4
BRANCH   1  22
ATOM     22  C   UNL     1      41.904  33.951  41.206  0.00  0.00    +0.000 C 
ATOM     23  H   UNL     1      41.547  33.952  42.261  0.00  0.00    +0.000 HD
ATOM     24  H   UNL     1      42.189  35.046  41.047  0.00  0.00    +0.000 HD
BRANCH  22  25
ATOM     25  N   UNL     1      41.001  33.489  40.348  0.00  0.00    +0.000 N 
ATOM     26  C   UNL     1      40.324  32.252  40.331  0.00  0.00    +0.000 C 
ATOM     27  C   UNL     1      38.940  32.746  40.815  0.00  0.00    +0.000 C 
ATOM     28  C   UNL     1      38.336  33.699  39.901  0.00  0.00    +0.000 C 
ATOM     29  C   UNL     1      39.174  34.508  39.041  0.00  0.00    +0.000 C 
ATOM     30  C   UNL     1      40.657  34.438  39.262  0.00  0.00    +0.000 C 
ATOM     31  H   UNL     1      40.735  31.592  41.128  0.00  0.00    +0.000 HD
ATOM     32  H   UNL     1      40.276  31.665  39.430  0.00  0.00    +0.000 HD
ATOM     33  H   UNL     1      38.336  31.819  40.965  0.00  0.00    +0.000 HD
ATOM     34  H   UNL     1      39.099  33.183  41.822  0.00  0.00    +0.000 HD
ATOM     35  H   UNL     1      37.683  34.406  40.493  0.00  0.00    +0.000 HD
ATOM     36  H   UNL     1      37.589  33.158  39.255  0.00  0.00    +0.000 HD
ATOM     37  H   UNL     1      38.872  35.171  38.272  0.00  0.00    +0.000 HD
BRANCH  30  38
ATOM     38  S   UNL     1      41.776  35.420  38.331  0.00  0.00    +0.000 S 
BRANCH  38  39
ATOM     39  C   UNL     1      41.008  36.437  37.114  0.00  0.00    +0.000 C 
ATOM     40  C   UNL     1      39.768  36.824  37.380  0.00  0.00    +0.000 C 
BRANCH  40  41
ATOM     41  C   UNL     1      38.924  37.682  36.504  0.00  0.00    +0.000 C 
ATOM     42  H   UNL     1      38.673  38.627  37.066  0.00  0.00    +0.000 HD
ENDBRANCH  40  41
ENDBRANCH  38  39
ENDBRANCH  30  38
ENDBRANCH  22  25
ENDBRANCH   1  22
TORSDOF 7
