
 OpenBabel03252508053D

 35 37  0  0  0  0  0  0  0  0999 V2000
   45.5180   36.2460   42.9870 C   0  0  0  0  0  0  0  0  0  0  0  0
   45.7430   34.8710   42.9550 C   0  0  0  0  0  0  0  0  0  0  0  0
   45.3410   34.0880   44.0220 C   0  0  0  0  0  0  0  0  0  0  0  0
   44.7220   34.7170   45.0730 N   0  0  0  0  0  0  0  0  0  0  0  0
   44.5140   36.0390   45.0830 C   0  0  0  0  0  0  0  0  0  0  0  0
   44.9170   36.7880   44.0390 N   0  0  0  0  0  0  0  0  0  0  0  0
   45.8250   36.8880   42.1680 H   0  0  0  0  0  0  0  0  0  0  0  0
   44.0110   36.4490   45.9690 H   0  0  0  0  0  0  0  0  0  0  0  0
   45.5200   32.6780   44.1090 C   0  0  0  0  0  0  0  0  0  0  0  0
   45.0830   31.7470   43.1850 C   0  0  0  0  0  0  0  0  0  0  0  0
   45.1930   30.3940   43.3340 C   0  0  0  0  0  0  0  0  0  0  0  0
   45.7800   29.8780   44.4850 C   0  0  0  0  0  0  0  0  0  0  0  0
   46.2370   30.8170   45.4480 C   0  0  0  0  0  0  0  0  0  0  0  0
   46.8270   30.3140   46.5710 C   0  0  0  0  0  0  0  0  0  0  0  0
   47.3200   31.1680   47.5420 C   0  0  0  0  0  0  0  0  0  0  0  0
   47.2090   32.5470   47.3590 C   0  0  0  0  0  0  0  0  0  0  0  0
   46.5940   33.0320   46.1900 C   0  0  0  0  0  0  0  0  0  0  0  0
   46.1050   32.1530   45.2410 C   0  0  0  0  0  0  0  0  0  0  0  0
   44.6240   32.0450   42.2940 H   0  0  0  0  0  0  0  0  0  0  0  0
   44.8490   29.6750   42.5990 H   0  0  0  0  0  0  0  0  0  0  0  0
   45.8800   28.8180   44.6390 H   0  0  0  0  0  0  0  0  0  0  0  0
   46.9000   29.2260   46.6860 H   0  0  0  0  0  0  0  0  0  0  0  0
   47.7680   30.6570   48.4020 H   0  0  0  0  0  0  0  0  0  0  0  0
   47.6430   33.0470   48.2000 H   0  0  0  0  0  0  0  0  0  0  0  0
   46.6840   34.0620   46.2990 H   0  0  0  0  0  0  0  0  0  0  0  0
   46.3500   34.3710   41.8370 O   0  0  0  0  0  0  0  0  0  0  0  0
   48.3790   33.8440   40.2440 O   0  0  0  0  0  0  0  0  0  0  0  0
   48.0330   34.3720   41.5970 P   0  0  1  0  0  0  0  0  0  0  0  0
   48.6510   35.9490   41.6930 O   0  0  0  0  0  0  0  0  0  0  0  0
   48.0450   36.6160   41.2840 H   0  0  0  0  0  0  0  0  0  0  0  0
   48.7490   33.4460   42.7980 O   0  0  0  0  0  0  0  0  0  0  0  0
   48.7300   32.0650   42.6410 C   0  0  0  0  0  3  0  0  0  0  0  0
   49.8300   31.4170   42.2980 C   0  0  0  0  0  3  0  0  0  0  0  0
   51.0900   32.1740   42.0790 C   0  0  0  0  0  2  0  0  0  0  0  0
   51.4510   32.0730   41.0300 H   0  0  0  0  0  0  0  0  0  0  0  0
  1  6  1  0  0  0  0
  2  1  2  0  0  0  0
  2  3  1  0  0  0  0
  3  9  1  0  0  0  0
  3  4  2  0  0  0  0
  4  5  1  0  0  0  0
  5  8  1  0  0  0  0
  6  5  2  0  0  0  0
  7  1  1  0  0  0  0
  9 18  1  0  0  0  0
 10 11  1  0  0  0  0
 10  9  2  0  0  0  0
 11 12  2  0  0  0  0
 12 21  1  0  0  0  0
 12 13  1  0  0  0  0
 13 14  1  0  0  0  0
 14 22  1  0  0  0  0
 14 15  2  0  0  0  0
 15 23  1  0  0  0  0
 16 15  1  0  0  0  0
 16 24  1  0  0  0  0
 17 25  1  0  0  0  0
 17 16  2  0  0  0  0
 18 13  2  0  0  0  0
 18 17  1  0  0  0  0
 19 10  1  0  0  0  0
 20 11  1  0  0  0  0
 26  2  1  0  0  0  0
 28 27  2  6  0  0  0
 28 29  1  0  0  0  0
 28 26  1  0  0  0  0
 28 31  1  0  0  0  0
 30 29  1  0  0  0  0
 32 31  1  0  0  0  0
 33 32  2  0  0  0  0
 34 33  1  0  0  0  0
 35 34  1  0  0  0  0
M  END
>  <minimizedAffinity>
-4.92115927

>  <minimizedRMSD>
1.95449865

$$$$
