
 OpenBabel03252505483D

 17 17  0  0  0  0  0  0  0  0999 V2000
   45.0790   34.7190   45.2300 C   0  0  0  0  0  0  0  0  0  0  0  0
   45.8650   34.6140   44.0800 C   0  0  0  0  0  0  0  0  0  0  0  0
   46.8220   33.5960   44.0660 C   0  0  0  0  0  0  0  0  0  0  0  0
   46.9450   32.7790   45.1350 N   0  0  0  0  0  0  0  0  0  0  0  0
   46.1650   32.9190   46.2220 C   0  0  0  0  0  0  0  0  0  0  0  0
   45.2290   33.8820   46.2870 N   0  0  0  0  0  0  0  0  0  0  0  0
   44.3000   35.4750   45.3570 H   0  0  0  0  0  0  0  0  0  0  0  0
   47.4030   33.5510   43.1650 H   0  0  0  0  0  0  0  0  0  0  0  0
   45.6030   35.5890   42.9820 C   0  0  0  0  0  0  0  0  0  0  0  0
   45.1300   36.7190   43.5760 F   0  0  0  0  0  0  0  0  0  0  0  0
   44.6310   35.0250   42.1640 F   0  0  0  0  0  0  0  0  0  0  0  0
   46.7770   35.7500   42.2860 F   0  0  0  0  0  0  0  0  0  0  0  0
   46.2900   32.0820   47.3110 O   0  0  0  0  0  0  0  0  0  0  0  0
   45.8630   32.4150   48.5760 C   0  0  0  0  0  3  0  0  0  0  0  0
   45.2770   31.5000   49.3490 C   0  0  0  0  0  3  0  0  0  0  0  0
   45.1380   30.1380   48.7280 C   0  0  0  0  0  2  0  0  0  0  0  0
   44.9050   29.3790   49.5150 H   0  0  0  0  0  0  0  0  0  0  0  0
  1  7  1  0  0  0  0
  1  6  1  0  0  0  0
  2  1  2  0  0  0  0
  3  2  1  0  0  0  0
  3  4  2  0  0  0  0
  4  5  1  0  0  0  0
  5  6  2  0  0  0  0
  5 13  1  0  0  0  0
  8  3  1  0  0  0  0
  9 10  1  0  0  0  0
  9  2  1  0  0  0  0
 11  9  1  0  0  0  0
 12  9  1  0  0  0  0
 13 14  1  0  0  0  0
 14 15  2  0  0  0  0
 16 15  1  0  0  0  0
 16 17  1  0  0  0  0
M  END
>  <minimizedAffinity>
-4.63981104

>  <minimizedRMSD>
1.19994879

$$$$
