
 OpenBabel03242518163D

 27 28  0  0  0  0  0  0  0  0999 V2000
   36.8560   27.3480   42.6290 C   0  0  0  0  0  0  0  0  0  0  0  0
   35.8980   27.0300   43.1450 H   0  0  0  0  0  0  0  0  0  0  0  0
   37.1150   26.4660   42.0160 H   0  0  0  0  0  0  0  0  0  0  0  0
   36.5460   28.4340   41.7740 C   0  0  0  0  0  0  0  0  0  0  0  0
   35.5660   28.7470   40.8050 C   0  0  0  0  0  0  0  0  0  0  0  0
   35.5750   29.9200   40.1400 C   0  0  0  0  0  0  0  0  0  0  0  0
   36.6310   30.8410   40.4600 C   0  0  0  0  0  0  0  0  0  0  0  0
   37.5960   30.0010   41.7200 S   0  0  0  0  0  0  0  0  0  0  0  0
   34.8640   27.9510   40.6980 H   0  0  0  0  0  0  0  0  0  0  0  0
   34.8300   30.1630   39.4000 H   0  0  0  0  0  0  0  0  0  0  0  0
   36.8760   32.0210   39.9790 O   0  0  0  0  0  0  0  0  0  0  0  0
   38.0710   32.6580   39.7280 C   0  0  0  0  0  2  0  0  0  0  0  0
   38.1540   33.9110   40.2030 C   0  0  0  0  0  2  0  0  0  0  0  0
   39.2560   34.9040   40.1370 C   0  0  0  0  0  2  0  0  0  0  0  0
   39.6090   35.1980   41.1350 H   0  0  0  0  0  0  0  0  0  0  0  0
   37.9170   27.5460   43.6310 C   0  0  0  0  0  0  0  0  0  0  0  0
   37.5160   27.3510   44.6570 H   0  0  0  0  0  0  0  0  0  0  0  0
   38.3300   28.5860   43.7010 H   0  0  0  0  0  0  0  0  0  0  0  0
   39.0260   26.6290   43.4070 C   0  0  0  0  0  0  0  0  0  0  0  0
   38.8670   25.4600   42.6970 C   0  0  0  0  0  0  0  0  0  0  0  0
   39.9690   24.6280   42.5210 C   0  0  0  0  0  0  0  0  0  0  0  0
   41.1380   25.0130   43.0580 N   0  0  0  0  0  0  0  0  0  0  0  0
   41.2640   26.1690   43.7520 C   0  0  0  0  0  0  0  0  0  0  0  0
   40.2260   26.9470   43.9140 N   0  0  0  0  0  0  0  0  0  0  0  0
   37.9030   25.1950   42.2840 H   0  0  0  0  0  0  0  0  0  0  0  0
   39.8980   23.6900   41.9660 H   0  0  0  0  0  0  0  0  0  0  0  0
   42.2280   26.4630   44.1810 H   0  0  0  0  0  0  0  0  0  0  0  0
  1  2  1  0  0  0  0
  1 16  1  0  0  0  0
  3  1  1  0  0  0  0
  4  1  1  0  0  0  0
  5  4  2  0  0  0  0
  6  7  2  0  0  0  0
  6  5  1  0  0  0  0
  7  8  1  0  0  0  0
  8  4  1  0  0  0  0
  9  5  1  0  0  0  0
 10  6  1  0  0  0  0
 11  7  1  0  0  0  0
 12 11  1  0  0  0  0
 12 13  1  0  0  0  0
 14 13  1  0  0  0  0
 14 15  1  0  0  0  0
 16 18  1  0  0  0  0
 16 17  1  0  0  0  0
 19 16  1  0  0  0  0
 19 24  1  0  0  0  0
 20 19  2  0  0  0  0
 21 20  1  0  0  0  0
 21 22  2  0  0  0  0
 22 23  1  0  0  0  0
 23 24  2  0  0  0  0
 23 27  1  0  0  0  0
 25 20  1  0  0  0  0
 26 21  1  0  0  0  0
M  END
>  <minimizedAffinity>
-4.7731657

$$$$

 OpenBabel03242518163D

 27 28  0  0  0  0  0  0  0  0999 V2000
   37.0430   31.9020   39.0140 C   0  0  0  0  0  0  0  0  0  0  0  0
   37.9430   31.6490   38.3740 H   0  0  0  0  0  0  0  0  0  0  0  0
   36.2650   32.1440   38.2680 H   0  0  0  0  0  0  0  0  0  0  0  0
   36.6680   30.7300   39.7150 C   0  0  0  0  0  0  0  0  0  0  0  0
   35.7800   29.6460   39.5280 C   0  0  0  0  0  0  0  0  0  0  0  0
   35.6570   28.6640   40.4430 C   0  0  0  0  0  0  0  0  0  0  0  0
   36.4710   28.7690   41.6230 C   0  0  0  0  0  0  0  0  0  0  0  0
   37.4060   30.2840   41.3940 S   0  0  0  0  0  0  0  0  0  0  0  0
   35.2600   29.7320   38.6010 H   0  0  0  0  0  0  0  0  0  0  0  0
   34.9820   27.8360   40.3050 H   0  0  0  0  0  0  0  0  0  0  0  0
   36.5500   27.9770   42.6490 O   0  0  0  0  0  0  0  0  0  0  0  0
   37.5440   27.8210   43.5880 C   0  0  0  0  0  2  0  0  0  0  0  0
   38.5820   27.0680   43.1920 C   0  0  0  0  0  2  0  0  0  0  0  0
   39.8260   26.6750   43.9030 C   0  0  0  0  0  2  0  0  0  0  0  0
   40.7280   27.0320   43.3890 H   0  0  0  0  0  0  0  0  0  0  0  0
   37.3220   33.1140   39.8040 C   0  0  0  0  0  0  0  0  0  0  0  0
   37.0740   32.9350   40.8800 H   0  0  0  0  0  0  0  0  0  0  0  0
   36.7130   34.0170   39.5380 H   0  0  0  0  0  0  0  0  0  0  0  0
   38.7300   33.4760   39.7280 C   0  0  0  0  0  0  0  0  0  0  0  0
   39.2160   34.6250   40.3130 C   0  0  0  0  0  0  0  0  0  0  0  0
   40.5730   34.9110   40.2010 C   0  0  0  0  0  0  0  0  0  0  0  0
   41.3430   34.0460   39.5220 N   0  0  0  0  0  0  0  0  0  0  0  0
   40.8380   32.9240   38.9570 C   0  0  0  0  0  0  0  0  0  0  0  0
   39.5620   32.6590   39.0660 N   0  0  0  0  0  0  0  0  0  0  0  0
   38.5530   35.2900   40.8500 H   0  0  0  0  0  0  0  0  0  0  0  0
   41.0090   35.8080   40.6460 H   0  0  0  0  0  0  0  0  0  0  0  0
   41.4860   32.2320   38.4090 H   0  0  0  0  0  0  0  0  0  0  0  0
  1  4  1  0  0  0  0
  1 16  1  0  0  0  0
  2  1  1  0  0  0  0
  3  1  1  0  0  0  0
  4  8  1  0  0  0  0
  5  4  2  0  0  0  0
  5  6  1  0  0  0  0
  6  7  2  0  0  0  0
  7 11  1  0  0  0  0
  8  7  1  0  0  0  0
  9  5  1  0  0  0  0
 10  6  1  0  0  0  0
 11 12  1  0  0  0  0
 13 12  1  0  0  0  0
 13 14  1  0  0  0  0
 15 14  1  0  0  0  0
 16 17  1  0  0  0  0
 18 16  1  0  0  0  0
 19 16  1  0  0  0  0
 19 20  1  0  0  0  0
 20 25  1  0  0  0  0
 21 20  2  0  0  0  0
 21 26  1  0  0  0  0
 22 21  1  0  0  0  0
 23 24  1  0  0  0  0
 23 22  2  0  0  0  0
 24 19  2  0  0  0  0
 27 23  1  0  0  0  0
M  END
>  <minimizedAffinity>
-4.74612284

$$$$

 OpenBabel03242518163D

 27 28  0  0  0  0  0  0  0  0999 V2000
   36.4710   30.8640   40.9770 C   0  0  0  0  0  0  0  0  0  0  0  0
   35.3450   30.8800   40.8440 H   0  0  0  0  0  0  0  0  0  0  0  0
   36.6510   31.6940   41.6840 H   0  0  0  0  0  0  0  0  0  0  0  0
   36.8150   29.6390   41.5980 C   0  0  0  0  0  0  0  0  0  0  0  0
   36.3210   28.3150   41.6320 C   0  0  0  0  0  0  0  0  0  0  0  0
   36.9110   27.3560   42.3730 C   0  0  0  0  0  0  0  0  0  0  0  0
   38.0680   27.7410   43.1320 C   0  0  0  0  0  0  0  0  0  0  0  0
   38.2910   29.4840   42.7640 S   0  0  0  0  0  0  0  0  0  0  0  0
   35.4600   28.2120   41.0110 H   0  0  0  0  0  0  0  0  0  0  0  0
   36.5380   26.3460   42.4020 H   0  0  0  0  0  0  0  0  0  0  0  0
   38.8170   27.0310   43.9200 O   0  0  0  0  0  0  0  0  0  0  0  0
   40.1780   26.8250   43.9200 C   0  0  0  0  0  2  0  0  0  0  0  0
   40.5830   25.7300   43.2560 C   0  0  0  0  0  2  0  0  0  0  0  0
   41.9430   25.1770   43.0330 C   0  0  0  0  0  2  0  0  0  0  0  0
   42.1980   25.1220   41.9660 H   0  0  0  0  0  0  0  0  0  0  0  0
   37.1260   31.1930   39.6990 C   0  0  0  0  0  0  0  0  0  0  0  0
   36.3650   31.5460   38.9590 H   0  0  0  0  0  0  0  0  0  0  0  0
   37.6260   30.3360   39.1760 H   0  0  0  0  0  0  0  0  0  0  0  0
   38.1040   32.2570   39.8710 C   0  0  0  0  0  0  0  0  0  0  0  0
   39.4550   31.9960   39.9370 C   0  0  0  0  0  0  0  0  0  0  0  0
   40.3360   33.0600   40.1030 C   0  0  0  0  0  0  0  0  0  0  0  0
   39.8170   34.2960   40.1920 N   0  0  0  0  0  0  0  0  0  0  0  0
   38.4840   34.5220   40.1250 C   0  0  0  0  0  0  0  0  0  0  0  0
   37.6610   33.5190   39.9680 N   0  0  0  0  0  0  0  0  0  0  0  0
   39.8220   30.9810   39.8590 H   0  0  0  0  0  0  0  0  0  0  0  0
   41.4160   32.9080   40.1610 H   0  0  0  0  0  0  0  0  0  0  0  0
   38.0840   35.5390   40.2000 H   0  0  0  0  0  0  0  0  0  0  0  0
  1  4  1  0  0  0  0
  1  3  1  0  0  0  0
  2  1  1  0  0  0  0
  4  5  2  0  0  0  0
  4  8  1  0  0  0  0
  5  6  1  0  0  0  0
  6 10  1  0  0  0  0
  6  7  2  0  0  0  0
  7 11  1  0  0  0  0
  8  7  1  0  0  0  0
  9  5  1  0  0  0  0
 12 11  1  0  0  0  0
 13 12  1  0  0  0  0
 14 13  1  0  0  0  0
 15 14  1  0  0  0  0
 16 19  1  0  0  0  0
 16  1  1  0  0  0  0
 17 16  1  0  0  0  0
 18 16  1  0  0  0  0
 19 20  2  0  0  0  0
 19 24  1  0  0  0  0
 20 21  1  0  0  0  0
 21 26  1  0  0  0  0
 21 22  2  0  0  0  0
 23 22  1  0  0  0  0
 23 27  1  0  0  0  0
 24 23  2  0  0  0  0
 25 20  1  0  0  0  0
M  END
>  <minimizedAffinity>
-4.64550161

$$$$

 OpenBabel03242518163D

 27 28  0  0  0  0  0  0  0  0999 V2000
   36.5180   31.2800   40.7350 C   0  0  0  0  0  0  0  0  0  0  0  0
   35.3920   31.2490   40.6130 H   0  0  0  0  0  0  0  0  0  0  0  0
   36.6750   32.1580   41.3880 H   0  0  0  0  0  0  0  0  0  0  0  0
   36.9100   30.1090   41.4270 C   0  0  0  0  0  0  0  0  0  0  0  0
   37.8800   29.7440   42.3880 C   0  0  0  0  0  0  0  0  0  0  0  0
   37.9910   28.4780   42.8400 C   0  0  0  0  0  0  0  0  0  0  0  0
   37.0760   27.5120   42.2970 C   0  0  0  0  0  0  0  0  0  0  0  0
   36.0650   28.4450   41.1430 S   0  0  0  0  0  0  0  0  0  0  0  0
   38.4700   30.5850   42.6750 H   0  0  0  0  0  0  0  0  0  0  0  0
   38.7290   28.1960   43.5710 H   0  0  0  0  0  0  0  0  0  0  0  0
   36.9640   26.2440   42.5500 O   0  0  0  0  0  0  0  0  0  0  0  0
   37.7490   25.1800   42.1680 C   0  0  0  0  0  2  0  0  0  0  0  0
   37.1470   24.2950   41.3570 C   0  0  0  0  0  2  0  0  0  0  0  0
   37.6510   23.0410   40.7410 C   0  0  0  0  0  2  0  0  0  0  0  0
   37.6250   23.0790   39.6440 H   0  0  0  0  0  0  0  0  0  0  0  0
   37.1510   31.5530   39.4330 C   0  0  0  0  0  0  0  0  0  0  0  0
   36.3900   31.9440   38.7120 H   0  0  0  0  0  0  0  0  0  0  0  0
   37.5800   30.6600   38.9070 H   0  0  0  0  0  0  0  0  0  0  0  0
   38.1990   32.5540   39.5590 C   0  0  0  0  0  0  0  0  0  0  0  0
   39.4820   32.3220   39.1150 C   0  0  0  0  0  0  0  0  0  0  0  0
   40.4360   33.3230   39.2670 C   0  0  0  0  0  0  0  0  0  0  0  0
   40.0520   34.4730   39.8460 N   0  0  0  0  0  0  0  0  0  0  0  0
   38.7830   34.6730   40.2740 C   0  0  0  0  0  0  0  0  0  0  0  0
   37.8910   33.7290   40.1270 N   0  0  0  0  0  0  0  0  0  0  0  0
   39.7400   31.3770   38.6550 H   0  0  0  0  0  0  0  0  0  0  0  0
   41.4670   33.1900   38.9320 H   0  0  0  0  0  0  0  0  0  0  0  0
   38.4930   35.6190   40.7430 H   0  0  0  0  0  0  0  0  0  0  0  0
  1  3  1  0  0  0  0
  1  4  1  0  0  0  0
  2  1  1  0  0  0  0
  4  5  2  0  0  0  0
  5  9  1  0  0  0  0
  5  6  1  0  0  0  0
  6 10  1  0  0  0  0
  7 11  1  0  0  0  0
  7  6  2  0  0  0  0
  8  4  1  0  0  0  0
  8  7  1  0  0  0  0
 12 11  1  0  0  0  0
 13 12  1  0  0  0  0
 14 13  1  0  0  0  0
 15 14  1  0  0  0  0
 16 19  1  0  0  0  0
 16  1  1  0  0  0  0
 17 16  1  0  0  0  0
 18 16  1  0  0  0  0
 19 24  1  0  0  0  0
 20 21  1  0  0  0  0
 20 19  2  0  0  0  0
 21 22  2  0  0  0  0
 22 23  1  0  0  0  0
 23 27  1  0  0  0  0
 24 23  2  0  0  0  0
 25 20  1  0  0  0  0
 26 21  1  0  0  0  0
M  END
>  <minimizedAffinity>
-4.62643862

$$$$

 OpenBabel03242518163D

 27 28  0  0  0  0  0  0  0  0999 V2000
   39.2050   30.1310   42.6580 C   0  0  0  0  0  0  0  0  0  0  0  0
   38.6440   31.0110   43.0990 H   0  0  0  0  0  0  0  0  0  0  0  0
   40.0780   30.0290   43.3280 H   0  0  0  0  0  0  0  0  0  0  0  0
   38.3820   28.9860   42.7870 C   0  0  0  0  0  0  0  0  0  0  0  0
   37.2970   28.5700   43.5930 C   0  0  0  0  0  0  0  0  0  0  0  0
   36.7340   27.3530   43.4530 C   0  0  0  0  0  0  0  0  0  0  0  0
   37.2900   26.4930   42.4450 C   0  0  0  0  0  0  0  0  0  0  0  0
   38.6160   27.4540   41.7110 S   0  0  0  0  0  0  0  0  0  0  0  0
   37.0180   29.3340   44.2840 H   0  0  0  0  0  0  0  0  0  0  0  0
   35.9080   27.0320   44.0640 H   0  0  0  0  0  0  0  0  0  0  0  0
   36.9480   25.2880   42.1040 O   0  0  0  0  0  0  0  0  0  0  0  0
   37.7100   24.1580   41.9140 C   0  0  0  0  0  2  0  0  0  0  0  0
   37.4550   23.4870   40.7800 C   0  0  0  0  0  2  0  0  0  0  0  0
   38.0550   22.2450   40.2280 C   0  0  0  0  0  2  0  0  0  0  0  0
   38.5320   22.4130   39.2540 H   0  0  0  0  0  0  0  0  0  0  0  0
   39.6910   30.4770   41.3110 C   0  0  0  0  0  0  0  0  0  0  0  0
   39.5810   29.5990   40.6270 H   0  0  0  0  0  0  0  0  0  0  0  0
   40.7810   30.7330   41.2400 H   0  0  0  0  0  0  0  0  0  0  0  0
   38.9260   31.5790   40.7460 C   0  0  0  0  0  0  0  0  0  0  0  0
   37.7950   31.3630   39.9890 C   0  0  0  0  0  0  0  0  0  0  0  0
   37.1110   32.4610   39.4780 C   0  0  0  0  0  0  0  0  0  0  0  0
   37.5950   33.6850   39.7500 N   0  0  0  0  0  0  0  0  0  0  0  0
   38.7100   33.8660   40.4960 C   0  0  0  0  0  0  0  0  0  0  0  0
   39.3480   32.8310   40.9750 N   0  0  0  0  0  0  0  0  0  0  0  0
   37.4460   30.3570   39.7990 H   0  0  0  0  0  0  0  0  0  0  0  0
   36.2090   32.3460   38.8720 H   0  0  0  0  0  0  0  0  0  0  0  0
   39.0860   34.8730   40.7060 H   0  0  0  0  0  0  0  0  0  0  0  0
  1  4  1  0  0  0  0
  1  2  1  0  0  0  0
  1  3  1  0  0  0  0
  4  5  2  0  0  0  0
  5  9  1  0  0  0  0
  6  5  1  0  0  0  0
  6 10  1  0  0  0  0
  7  6  2  0  0  0  0
  8  7  1  0  0  0  0
  8  4  1  0  0  0  0
 11  7  1  0  0  0  0
 12 11  1  0  0  0  0
 13 12  1  0  0  0  0
 14 13  1  0  0  0  0
 15 14  1  0  0  0  0
 16  1  1  0  0  0  0
 17 16  1  0  0  0  0
 18 16  1  0  0  0  0
 19 24  1  0  0  0  0
 19 16  1  0  0  0  0
 20 19  2  0  0  0  0
 21 22  2  0  0  0  0
 21 20  1  0  0  0  0
 22 23  1  0  0  0  0
 23 27  1  0  0  0  0
 23 24  2  0  0  0  0
 25 20  1  0  0  0  0
 26 21  1  0  0  0  0
M  END
>  <minimizedAffinity>
-4.59772158

$$$$

 OpenBabel03242518163D

 27 28  0  0  0  0  0  0  0  0999 V2000
   40.1270   25.9590   43.1980 C   0  0  0  0  0  0  0  0  0  0  0  0
   40.8690   26.0920   42.3510 H   0  0  0  0  0  0  0  0  0  0  0  0
   40.7570   26.0610   44.1000 H   0  0  0  0  0  0  0  0  0  0  0  0
   39.2130   27.0390   43.1430 C   0  0  0  0  0  0  0  0  0  0  0  0
   38.1350   27.5290   43.9160 C   0  0  0  0  0  0  0  0  0  0  0  0
   37.4400   28.6250   43.5510 C   0  0  0  0  0  0  0  0  0  0  0  0
   37.8450   29.2760   42.3350 C   0  0  0  0  0  0  0  0  0  0  0  0
   39.2260   28.2970   41.7370 S   0  0  0  0  0  0  0  0  0  0  0  0
   37.9760   26.9230   44.7800 H   0  0  0  0  0  0  0  0  0  0  0  0
   36.6180   29.0020   44.1360 H   0  0  0  0  0  0  0  0  0  0  0  0
   37.3580   30.3320   41.7580 O   0  0  0  0  0  0  0  0  0  0  0  0
   36.2200   30.4970   41.0010 C   0  0  0  0  0  2  0  0  0  0  0  0
   35.6920   29.3610   40.5200 C   0  0  0  0  0  2  0  0  0  0  0  0
   34.4900   29.1280   39.6780 C   0  0  0  0  0  2  0  0  0  0  0  0
   33.7490   28.4930   40.1810 H   0  0  0  0  0  0  0  0  0  0  0  0
   39.5780   24.5930   43.1660 C   0  0  0  0  0  0  0  0  0  0  0  0
   38.9170   24.4260   44.0530 H   0  0  0  0  0  0  0  0  0  0  0  0
   40.3320   23.7660   43.2380 H   0  0  0  0  0  0  0  0  0  0  0  0
   38.7780   24.3770   41.9700 C   0  0  0  0  0  0  0  0  0  0  0  0
   37.4090   24.2310   42.0290 C   0  0  0  0  0  0  0  0  0  0  0  0
   36.7060   24.0270   40.8470 C   0  0  0  0  0  0  0  0  0  0  0  0
   37.4030   23.9820   39.7000 N   0  0  0  0  0  0  0  0  0  0  0  0
   38.7490   24.1280   39.6720 C   0  0  0  0  0  0  0  0  0  0  0  0
   39.4060   24.3210   40.7860 N   0  0  0  0  0  0  0  0  0  0  0  0
   36.8940   24.2760   42.9790 H   0  0  0  0  0  0  0  0  0  0  0  0
   35.6200   23.9050   40.8380 H   0  0  0  0  0  0  0  0  0  0  0  0
   39.2980   24.0890   38.7250 H   0  0  0  0  0  0  0  0  0  0  0  0
  1  3  1  0  0  0  0
  2  1  1  0  0  0  0
  4  1  1  0  0  0  0
  4  5  2  0  0  0  0
  5  9  1  0  0  0  0
  6  5  1  0  0  0  0
  6 10  1  0  0  0  0
  7  6  2  0  0  0  0
  8  7  1  0  0  0  0
  8  4  1  0  0  0  0
 11  7  1  0  0  0  0
 12 11  1  0  0  0  0
 13 12  1  0  0  0  0
 14 15  1  0  0  0  0
 14 13  1  0  0  0  0
 16  1  1  0  0  0  0
 16 18  1  0  0  0  0
 16 17  1  0  0  0  0
 19 20  1  0  0  0  0
 19 16  1  0  0  0  0
 20 25  1  0  0  0  0
 21 20  2  0  0  0  0
 22 21  1  0  0  0  0
 23 22  2  0  0  0  0
 23 24  1  0  0  0  0
 24 19  2  0  0  0  0
 26 21  1  0  0  0  0
 27 23  1  0  0  0  0
M  END
>  <minimizedAffinity>
-4.53970814

$$$$

 OpenBabel03242518163D

 27 28  0  0  0  0  0  0  0  0999 V2000
   36.3640   28.8420   39.5570 C   0  0  0  0  0  0  0  0  0  0  0  0
   35.6130   28.5150   38.7730 H   0  0  0  0  0  0  0  0  0  0  0  0
   37.2270   28.1770   39.3700 H   0  0  0  0  0  0  0  0  0  0  0  0
   36.7340   30.1780   39.2680 C   0  0  0  0  0  0  0  0  0  0  0  0
   37.1050   30.9320   38.1310 C   0  0  0  0  0  0  0  0  0  0  0  0
   37.4210   32.2400   38.2190 C   0  0  0  0  0  0  0  0  0  0  0  0
   37.3660   32.8350   39.5260 C   0  0  0  0  0  0  0  0  0  0  0  0
   36.8550   31.4990   40.6110 S   0  0  0  0  0  0  0  0  0  0  0  0
   37.0920   30.3300   37.2510 H   0  0  0  0  0  0  0  0  0  0  0  0
   37.7050   32.8180   37.3560 H   0  0  0  0  0  0  0  0  0  0  0  0
   37.6180   34.0550   39.8920 O   0  0  0  0  0  0  0  0  0  0  0  0
   38.8160   34.7080   40.0760 C   0  0  0  0  0  2  0  0  0  0  0  0
   39.8650   33.9060   40.3190 C   0  0  0  0  0  2  0  0  0  0  0  0
   41.2950   34.2240   40.5650 C   0  0  0  0  0  2  0  0  0  0  0  0
   41.9550   33.7740   39.8120 H   0  0  0  0  0  0  0  0  0  0  0  0
   35.8370   28.5520   40.9010 C   0  0  0  0  0  0  0  0  0  0  0  0
   34.9200   27.9140   40.8240 H   0  0  0  0  0  0  0  0  0  0  0  0
   35.4910   29.4420   41.4890 H   0  0  0  0  0  0  0  0  0  0  0  0
   36.8140   27.8280   41.7010 C   0  0  0  0  0  0  0  0  0  0  0  0
   37.4000   28.3920   42.8130 C   0  0  0  0  0  0  0  0  0  0  0  0
   38.3270   27.6450   43.5330 C   0  0  0  0  0  0  0  0  0  0  0  0
   38.6050   26.4040   43.1010 N   0  0  0  0  0  0  0  0  0  0  0  0
   38.0130   25.8760   42.0040 C   0  0  0  0  0  0  0  0  0  0  0  0
   37.1420   26.5820   41.3320 N   0  0  0  0  0  0  0  0  0  0  0  0
   37.1420   29.3970   43.1200 H   0  0  0  0  0  0  0  0  0  0  0  0
   38.8220   28.0450   44.4220 H   0  0  0  0  0  0  0  0  0  0  0  0
   38.2540   24.8610   41.6710 H   0  0  0  0  0  0  0  0  0  0  0  0
  1 16  1  0  0  0  0
  2  1  1  0  0  0  0
  3  1  1  0  0  0  0
  4  1  1  0  0  0  0
  4  8  1  0  0  0  0
  5  6  1  0  0  0  0
  5  4  2  0  0  0  0
  6  7  2  0  0  0  0
  7 11  1  0  0  0  0
  7  8  1  0  0  0  0
  9  5  1  0  0  0  0
 10  6  1  0  0  0  0
 11 12  1  0  0  0  0
 12 13  1  0  0  0  0
 13 14  1  0  0  0  0
 15 14  1  0  0  0  0
 16 18  1  0  0  0  0
 16 19  1  0  0  0  0
 17 16  1  0  0  0  0
 19 20  1  0  0  0  0
 20 25  1  0  0  0  0
 20 21  2  0  0  0  0
 21 26  1  0  0  0  0
 22 21  1  0  0  0  0
 23 22  2  0  0  0  0
 24 19  2  0  0  0  0
 24 23  1  0  0  0  0
 27 23  1  0  0  0  0
M  END
>  <minimizedAffinity>
-4.41594696

$$$$

 OpenBabel03242518163D

 27 28  0  0  0  0  0  0  0  0999 V2000
   36.6190   30.7970   40.6570 C   0  0  0  0  0  0  0  0  0  0  0  0
   36.2780   30.7910   41.7380 H   0  0  0  0  0  0  0  0  0  0  0  0
   35.6690   30.8410   40.0950 H   0  0  0  0  0  0  0  0  0  0  0  0
   37.3450   31.9940   40.4400 C   0  0  0  0  0  0  0  0  0  0  0  0
   37.1460   33.2230   39.7700 C   0  0  0  0  0  0  0  0  0  0  0  0
   38.0940   34.1820   39.7520 C   0  0  0  0  0  0  0  0  0  0  0  0
   39.3200   33.8970   40.4440 C   0  0  0  0  0  0  0  0  0  0  0  0
   39.0880   32.2480   41.1160 S   0  0  0  0  0  0  0  0  0  0  0  0
   36.1830   33.2600   39.3140 H   0  0  0  0  0  0  0  0  0  0  0  0
   37.9470   35.1200   39.2430 H   0  0  0  0  0  0  0  0  0  0  0  0
   40.3830   34.6290   40.5830 O   0  0  0  0  0  0  0  0  0  0  0  0
   41.6230   34.5330   39.9910 C   0  0  0  0  0  2  0  0  0  0  0  0
   41.6050   34.4490   38.6520 C   0  0  0  0  0  2  0  0  0  0  0  0
   42.7140   34.3360   37.6700 C   0  0  0  0  0  2  0  0  0  0  0  0
   42.7330   35.1790   36.9670 H   0  0  0  0  0  0  0  0  0  0  0  0
   37.2880   29.5230   40.3400 C   0  0  0  0  0  0  0  0  0  0  0  0
   38.2620   29.7190   39.8270 H   0  0  0  0  0  0  0  0  0  0  0  0
   36.7410   28.8540   39.6250 H   0  0  0  0  0  0  0  0  0  0  0  0
   37.5690   28.7650   41.5500 C   0  0  0  0  0  0  0  0  0  0  0  0
   38.8500   28.6250   42.0370 C   0  0  0  0  0  0  0  0  0  0  0  0
   39.0490   27.8860   43.1990 C   0  0  0  0  0  0  0  0  0  0  0  0
   37.9720   27.3420   43.7890 N   0  0  0  0  0  0  0  0  0  0  0  0
   36.7240   27.4960   43.2870 C   0  0  0  0  0  0  0  0  0  0  0  0
   36.5420   28.1920   42.1960 N   0  0  0  0  0  0  0  0  0  0  0  0
   39.6850   29.0840   41.5240 H   0  0  0  0  0  0  0  0  0  0  0  0
   40.0440   27.7440   43.6270 H   0  0  0  0  0  0  0  0  0  0  0  0
   35.8600   27.0440   43.7860 H   0  0  0  0  0  0  0  0  0  0  0  0
  1  2  1  0  0  0  0
  3  1  1  0  0  0  0
  4  1  1  0  0  0  0
  4  8  1  0  0  0  0
  5  4  2  0  0  0  0
  6  5  1  0  0  0  0
  6  7  2  0  0  0  0
  7 11  1  0  0  0  0
  7  8  1  0  0  0  0
  9  5  1  0  0  0  0
 10  6  1  0  0  0  0
 12 11  1  0  0  0  0
 13 12  1  0  0  0  0
 14 13  1  0  0  0  0
 15 14  1  0  0  0  0
 16  1  1  0  0  0  0
 16 19  1  0  0  0  0
 17 16  1  0  0  0  0
 18 16  1  0  0  0  0
 19 20  2  0  0  0  0
 19 24  1  0  0  0  0
 20 21  1  0  0  0  0
 21 26  1  0  0  0  0
 21 22  2  0  0  0  0
 23 27  1  0  0  0  0
 23 22  1  0  0  0  0
 24 23  2  0  0  0  0
 25 20  1  0  0  0  0
M  END
>  <minimizedAffinity>
-4.36594868

$$$$

 OpenBabel03242518163D

 27 28  0  0  0  0  0  0  0  0999 V2000
   37.8220   28.0080   43.4940 C   0  0  0  0  0  0  0  0  0  0  0  0
   38.7050   27.4030   43.8650 H   0  0  0  0  0  0  0  0  0  0  0  0
   37.3200   28.3170   44.4280 H   0  0  0  0  0  0  0  0  0  0  0  0
   38.3300   29.1560   42.8370 C   0  0  0  0  0  0  0  0  0  0  0  0
   39.5230   29.9140   42.8430 C   0  0  0  0  0  0  0  0  0  0  0  0
   39.6740   31.0060   42.0660 C   0  0  0  0  0  0  0  0  0  0  0  0
   38.5620   31.3680   41.2310 C   0  0  0  0  0  0  0  0  0  0  0  0
   37.3140   30.1230   41.5750 S   0  0  0  0  0  0  0  0  0  0  0  0
   40.2360   29.5020   43.5200 H   0  0  0  0  0  0  0  0  0  0  0  0
   40.5800   31.5880   42.0680 H   0  0  0  0  0  0  0  0  0  0  0  0
   38.4360   32.3570   40.4000 O   0  0  0  0  0  0  0  0  0  0  0  0
   39.3470   32.9280   39.5400 C   0  0  0  0  0  2  0  0  0  0  0  0
   39.9560   34.0280   40.0120 C   0  0  0  0  0  2  0  0  0  0  0  0
   40.9800   34.9110   39.3970 C   0  0  0  0  0  2  0  0  0  0  0  0
   41.9090   34.9380   39.9820 H   0  0  0  0  0  0  0  0  0  0  0  0
   36.9050   27.1370   42.7400 C   0  0  0  0  0  0  0  0  0  0  0  0
   36.5540   27.6590   41.8140 H   0  0  0  0  0  0  0  0  0  0  0  0
   35.9530   26.8640   43.2660 H   0  0  0  0  0  0  0  0  0  0  0  0
   37.5680   25.9080   42.3310 C   0  0  0  0  0  0  0  0  0  0  0  0
   36.9470   24.9840   41.5190 C   0  0  0  0  0  0  0  0  0  0  0  0
   37.6380   23.8290   41.1670 C   0  0  0  0  0  0  0  0  0  0  0  0
   38.8850   23.6740   41.6430 N   0  0  0  0  0  0  0  0  0  0  0  0
   39.4700   24.5990   42.4390 C   0  0  0  0  0  0  0  0  0  0  0  0
   38.8160   25.6830   42.7660 N   0  0  0  0  0  0  0  0  0  0  0  0
   35.9400   25.1560   41.1630 H   0  0  0  0  0  0  0  0  0  0  0  0
   37.1920   23.0650   40.5270 H   0  0  0  0  0  0  0  0  0  0  0  0
   40.4880   24.4520   42.8140 H   0  0  0  0  0  0  0  0  0  0  0  0
  1  2  1  0  0  0  0
  1  3  1  0  0  0  0
  4  5  2  0  0  0  0
  4  1  1  0  0  0  0
  5  9  1  0  0  0  0
  6 10  1  0  0  0  0
  6  5  1  0  0  0  0
  7  8  1  0  0  0  0
  7  6  2  0  0  0  0
  8  4  1  0  0  0  0
 11  7  1  0  0  0  0
 12 13  1  0  0  0  0
 12 11  1  0  0  0  0
 14 15  1  0  0  0  0
 14 13  1  0  0  0  0
 16 18  1  0  0  0  0
 16  1  1  0  0  0  0
 17 16  1  0  0  0  0
 19 16  1  0  0  0  0
 19 24  1  0  0  0  0
 20 19  2  0  0  0  0
 21 20  1  0  0  0  0
 21 22  2  0  0  0  0
 22 23  1  0  0  0  0
 23 24  2  0  0  0  0
 23 27  1  0  0  0  0
 25 20  1  0  0  0  0
 26 21  1  0  0  0  0
M  END
>  <minimizedAffinity>
-4.33961868

$$$$
