
 OpenBabel03252505483D

 17 17  0  0  0  0  0  0  0  0999 V2000
   45.3560   33.8150   44.3900 C   0  0  0  0  0  0  0  0  0  0  0  0
   45.7060   34.8630   43.5340 C   0  0  0  0  0  0  0  0  0  0  0  0
   46.9070   34.7250   42.8340 C   0  0  0  0  0  0  0  0  0  0  0  0
   47.6590   33.6170   43.0080 N   0  0  0  0  0  0  0  0  0  0  0  0
   47.2810   32.6320   43.8430 C   0  0  0  0  0  0  0  0  0  0  0  0
   46.1350   32.7140   44.5410 N   0  0  0  0  0  0  0  0  0  0  0  0
   44.4420   33.8100   44.9890 H   0  0  0  0  0  0  0  0  0  0  0  0
   47.1380   35.5520   42.1890 H   0  0  0  0  0  0  0  0  0  0  0  0
   44.7660   36.0170   43.4480 C   0  0  0  0  0  0  0  0  0  0  0  0
   44.1180   36.0760   44.6440 F   0  0  0  0  0  0  0  0  0  0  0  0
   43.8710   35.7330   42.4220 F   0  0  0  0  0  0  0  0  0  0  0  0
   45.5090   37.1310   43.1370 F   0  0  0  0  0  0  0  0  0  0  0  0
   48.0490   31.5000   44.0160 O   0  0  0  0  0  0  0  0  0  0  0  0
   47.7520   30.5160   44.9310 C   0  0  0  0  0  2  0  0  0  0  0  0
   47.6560   29.2430   44.5400 C   0  0  0  0  0  2  0  0  0  0  0  0
   47.8940   29.0090   43.0740 C   0  0  0  0  0  2  0  0  0  0  0  0
   48.0740   27.9230   42.8850 H   0  0  0  0  0  0  0  0  0  0  0  0
  1  6  1  0  0  0  0
  1  7  1  0  0  0  0
  2  1  2  0  0  0  0
  3  4  2  0  0  0  0
  3  2  1  0  0  0  0
  4  5  1  0  0  0  0
  5 13  1  0  0  0  0
  5  6  2  0  0  0  0
  8  3  1  0  0  0  0
  9  2  1  0  0  0  0
  9 10  1  0  0  0  0
 11  9  1  0  0  0  0
 12  9  1  0  0  0  0
 13 14  1  0  0  0  0
 15 14  1  0  0  0  0
 16 15  1  0  0  0  0
 17 16  1  0  0  0  0
M  END
>  <minimizedAffinity>
-3.28199172

>  <minimizedRMSD>
3.77924585

$$$$
