
 OpenBabel03242518153D

 27 28  0  0  0  0  0  0  0  0999 V2000
   48.2080   33.8100   42.6390 C   0  0  0  0  0  0  0  0  0  0  0  0
   47.3540   33.1200   42.9200 H   0  0  0  0  0  0  0  0  0  0  0  0
   48.6960   34.0130   43.6090 H   0  0  0  0  0  0  0  0  0  0  0  0
   49.0990   33.0810   41.8130 C   0  0  0  0  0  0  0  0  0  0  0  0
   49.0260   32.3160   40.6270 C   0  0  0  0  0  0  0  0  0  0  0  0
   50.1150   31.7220   40.0980 C   0  0  0  0  0  0  0  0  0  0  0  0
   51.3570   31.9010   40.7980 C   0  0  0  0  0  0  0  0  0  0  0  0
   50.9370   32.9260   42.2100 S   0  0  0  0  0  0  0  0  0  0  0  0
   48.0300   32.2910   40.2470 H   0  0  0  0  0  0  0  0  0  0  0  0
   50.0650   31.1380   39.1940 H   0  0  0  0  0  0  0  0  0  0  0  0
   52.5400   31.4460   40.5160 O   0  0  0  0  0  0  0  0  0  0  0  0
   52.9770   30.6700   39.4670 C   0  0  0  0  0  0  0  0  0  0  0  0
   53.8000   31.2920   38.6080 C   0  0  0  0  0  0  0  0  0  0  0  0
   54.4700   30.8020   37.3760 C   0  0  0  0  0  0  0  0  0  0  0  0
   55.5640   30.8580   37.4490 H   0  0  0  0  0  0  0  0  0  0  0  0
   47.6700   35.0770   42.1150 C   0  0  0  0  0  0  0  0  0  0  0  0
   48.0430   35.2510   41.0750 H   0  0  0  0  0  0  0  0  0  0  0  0
   47.9830   36.0020   42.6670 H   0  0  0  0  0  0  0  0  0  0  0  0
   46.2160   35.0470   42.0660 C   0  0  0  0  0  0  0  0  0  0  0  0
   45.4440   35.6300   43.0470 C   0  0  0  0  0  0  0  0  0  0  0  0
   44.0590   35.5640   42.9390 C   0  0  0  0  0  0  0  0  0  0  0  0
   43.5420   34.9290   41.8740 N   0  0  0  0  0  0  0  0  0  0  0  0
   44.3260   34.3650   40.9240 C   0  0  0  0  0  0  0  0  0  0  0  0
   45.6270   34.4310   41.0300 N   0  0  0  0  0  0  0  0  0  0  0  0
   45.9100   36.1300   43.8860 H   0  0  0  0  0  0  0  0  0  0  0  0
   43.4020   36.0090   43.6890 H   0  0  0  0  0  0  0  0  0  0  0  0
   43.8820   33.8530   40.0630 H   0  0  0  0  0  0  0  0  0  0  0  0
  1  2  1  0  0  0  0
  1  3  1  0  0  0  0
  4  8  1  0  0  0  0
  4  1  1  0  0  0  0
  5  4  2  0  0  0  0
  6  5  1  0  0  0  0
  6  7  2  0  0  0  0
  7  8  1  0  0  0  0
  9  5  1  0  0  0  0
 10  6  1  0  0  0  0
 11  7  1  0  0  0  0
 12 11  1  0  0  0  0
 13 12  1  0  0  0  0
 14 15  1  0  0  0  0
 14 13  1  0  0  0  0
 16  1  1  0  0  0  0
 16 18  1  0  0  0  0
 17 16  1  0  0  0  0
 19 16  1  0  0  0  0
 19 20  1  0  0  0  0
 20 25  1  0  0  0  0
 21 20  2  0  0  0  0
 21 26  1  0  0  0  0
 22 21  1  0  0  0  0
 23 24  1  0  0  0  0
 23 22  2  0  0  0  0
 24 19  2  0  0  0  0
 27 23  1  0  0  0  0
M  END
>  <minimizedAffinity>
-3.87009621

>  <minimizedRMSD>
0.0732232034

$$$$
