
 OpenBabel03252501363D

 20 20  0  0  0  0  0  0  0  0999 V2000
   37.6830   30.3310   42.0070 C   0  0  0  0  0  0  0  0  0  0  0  0
   36.8850   31.0390   41.1430 C   0  0  0  0  0  0  0  0  0  0  0  0
   37.5350   32.0360   40.4150 C   0  0  0  0  0  0  0  0  0  0  0  0
   38.8530   32.2150   40.6140 N   0  0  0  0  0  0  0  0  0  0  0  0
   39.5890   31.4990   41.4690 C   0  0  0  0  0  0  0  0  0  0  0  0
   38.9980   30.5170   42.2000 N   0  0  0  0  0  0  0  0  0  0  0  0
   36.9170   32.6010   39.7290 H   0  0  0  0  0  0  0  0  0  0  0  0
   40.6430   31.7350   41.5440 H   0  0  0  0  0  0  0  0  0  0  0  0
   37.2450   28.0220   42.1340 C   0  0  0  0  0  0  0  0  0  0  0  0
   37.6290   28.1860   40.9340 O   0  0  0  0  0  0  0  0  0  0  0  0
   37.2170   29.2490   42.8720 N   0  0  0  0  0  0  0  0  0  0  0  0
   36.9010   29.2630   43.8550 H   0  0  0  0  0  0  0  0  0  0  0  0
   36.8790   26.8150   42.7280 O   0  0  0  0  0  0  0  0  0  0  0  0
   37.4500   25.6230   42.2620 C   0  0  0  0  0  3  0  0  0  0  0  0
   36.9250   24.6480   41.5760 C   0  0  0  0  0  3  0  0  0  0  0  0
   37.6290   23.4200   41.1310 C   0  0  0  0  0  2  0  0  0  0  0  0
   38.5820   23.3420   41.7240 H   0  0  0  0  0  0  0  0  0  0  0  0
   35.5180   30.7070   41.0690 N   0  0  0  0  0  0  0  0  0  0  0  0
   34.7960   31.4510   40.8970 H   0  0  0  0  0  0  0  0  0  0  0  0
   35.2340   29.7080   41.1870 H   0  0  0  0  0  0  0  0  0  0  0  0
  1  6  1  0  0  0  0
  1 11  1  0  0  0  0
  2  1  2  0  0  0  0
  3  4  2  0  0  0  0
  3  2  1  0  0  0  0
  4  5  1  0  0  0  0
  5  8  1  0  0  0  0
  5  6  2  0  0  0  0
  7  3  1  0  0  0  0
  9 13  1  0  0  0  0
  9 11  1  0  0  0  0
 10  9  2  0  0  0  0
 11 12  1  0  0  0  0
 14 13  1  0  0  0  0
 15 14  2  0  0  0  0
 16 15  1  0  0  0  0
 16 17  1  0  0  0  0
 18  2  1  0  0  0  0
 18 20  1  0  0  0  0
 19 18  1  0  0  0  0
M  END
>  <minimizedAffinity>
-4.53146458

$$$$

 OpenBabel03252501363D

 20 20  0  0  0  0  0  0  0  0999 V2000
   37.8770   30.2610   40.5080 C   0  0  0  0  0  0  0  0  0  0  0  0
   36.9370   31.2520   40.6510 C   0  0  0  0  0  0  0  0  0  0  0  0
   37.2900   32.4890   40.1120 C   0  0  0  0  0  0  0  0  0  0  0  0
   38.4890   32.6060   39.5130 N   0  0  0  0  0  0  0  0  0  0  0  0
   39.3730   31.6090   39.3990 C   0  0  0  0  0  0  0  0  0  0  0  0
   39.0710   30.3860   39.9090 N   0  0  0  0  0  0  0  0  0  0  0  0
   36.5570   33.2790   40.2170 H   0  0  0  0  0  0  0  0  0  0  0  0
   40.3070   31.8230   38.8950 H   0  0  0  0  0  0  0  0  0  0  0  0
   38.1580   28.8390   42.3630 C   0  0  0  0  0  0  0  0  0  0  0  0
   38.5860   29.9610   42.7800 O   0  0  0  0  0  0  0  0  0  0  0  0
   37.7240   28.8940   40.9990 N   0  0  0  0  0  0  0  0  0  0  0  0
   37.3740   28.0450   40.5270 H   0  0  0  0  0  0  0  0  0  0  0  0
   38.0920   27.6550   43.0950 O   0  0  0  0  0  0  0  0  0  0  0  0
   37.9770   26.4360   42.4130 C   0  0  0  0  0  3  0  0  0  0  0  0
   36.9740   25.6090   42.3270 C   0  0  0  0  0  3  0  0  0  0  0  0
   36.9610   24.3340   41.5700 C   0  0  0  0  0  2  0  0  0  0  0  0
   38.0280   24.0670   41.3370 H   0  0  0  0  0  0  0  0  0  0  0  0
   35.7320   30.9420   41.3110 N   0  0  0  0  0  0  0  0  0  0  0  0
   35.2480   31.6600   41.9050 H   0  0  0  0  0  0  0  0  0  0  0  0
   35.3260   29.9850   41.1980 H   0  0  0  0  0  0  0  0  0  0  0  0
  1  2  1  0  0  0  0
  1 11  1  0  0  0  0
  2 18  1  0  0  0  0
  3  7  1  0  0  0  0
  3  2  2  0  0  0  0
  4  3  1  0  0  0  0
  5  4  2  0  0  0  0
  5  6  1  0  0  0  0
  6  1  2  0  0  0  0
  8  5  1  0  0  0  0
  9 10  2  0  0  0  0
  9 13  1  0  0  0  0
 11  9  1  0  0  0  0
 12 11  1  0  0  0  0
 14 13  1  0  0  0  0
 15 14  2  0  0  0  0
 16 15  1  0  0  0  0
 17 16  1  0  0  0  0
 18 19  1  0  0  0  0
 20 18  1  0  0  0  0
M  END
>  <minimizedAffinity>
-4.31666183

$$$$

 OpenBabel03252501363D

 20 20  0  0  0  0  0  0  0  0999 V2000
   40.7410   33.4070   38.8550 C   0  0  0  0  0  0  0  0  0  0  0  0
   41.0720   32.7860   37.6760 C   0  0  0  0  0  0  0  0  0  0  0  0
   42.4400   32.6450   37.4420 C   0  0  0  0  0  0  0  0  0  0  0  0
   43.2980   33.1150   38.3650 N   0  0  0  0  0  0  0  0  0  0  0  0
   42.9270   33.7130   39.5010 C   0  0  0  0  0  0  0  0  0  0  0  0
   41.6040   33.8740   39.7710 N   0  0  0  0  0  0  0  0  0  0  0  0
   42.7150   32.1560   36.5150 H   0  0  0  0  0  0  0  0  0  0  0  0
   43.7090   34.0510   40.1680 H   0  0  0  0  0  0  0  0  0  0  0  0
   38.8930   32.5180   40.0100 C   0  0  0  0  0  0  0  0  0  0  0  0
   39.7440   31.5750   40.0400 O   0  0  0  0  0  0  0  0  0  0  0  0
   39.3750   33.6670   39.3030 N   0  0  0  0  0  0  0  0  0  0  0  0
   38.7750   34.4980   39.1830 H   0  0  0  0  0  0  0  0  0  0  0  0
   37.6200   32.5020   40.5780 O   0  0  0  0  0  0  0  0  0  0  0  0
   36.7370   31.4660   40.2480 C   0  0  0  0  0  3  0  0  0  0  0  0
   36.2930   30.4750   40.9670 C   0  0  0  0  0  3  0  0  0  0  0  0
   35.3500   29.4240   40.5110 C   0  0  0  0  0  2  0  0  0  0  0  0
   35.3210   29.4590   39.3870 H   0  0  0  0  0  0  0  0  0  0  0  0
   40.0310   32.3590   36.8290 N   0  0  0  0  0  0  0  0  0  0  0  0
   40.1450   32.3880   35.7850 H   0  0  0  0  0  0  0  0  0  0  0  0
   39.1430   32.0120   37.2570 H   0  0  0  0  0  0  0  0  0  0  0  0
  1 11  1  0  0  0  0
  1  6  1  0  0  0  0
  2  1  2  0  0  0  0
  3  2  1  0  0  0  0
  3  4  2  0  0  0  0
  4  5  1  0  0  0  0
  5  6  2  0  0  0  0
  5  8  1  0  0  0  0
  7  3  1  0  0  0  0
  9 10  2  0  0  0  0
  9 13  1  0  0  0  0
 11  9  1  0  0  0  0
 12 11  1  0  0  0  0
 14 13  1  0  0  0  0
 14 15  2  0  0  0  0
 16 15  1  0  0  0  0
 17 16  1  0  0  0  0
 18 20  1  0  0  0  0
 18  2  1  0  0  0  0
 19 18  1  0  0  0  0
M  END
>  <minimizedAffinity>
-4.22293472

$$$$

 OpenBabel03252501363D

 20 20  0  0  0  0  0  0  0  0999 V2000
   36.4320   28.5450   41.3730 C   0  0  0  0  0  0  0  0  0  0  0  0
   36.8930   28.0410   42.5630 C   0  0  0  0  0  0  0  0  0  0  0  0
   37.2680   26.6970   42.5350 C   0  0  0  0  0  0  0  0  0  0  0  0
   37.1520   26.0260   41.3760 N   0  0  0  0  0  0  0  0  0  0  0  0
   36.6970   26.5620   40.2390 C   0  0  0  0  0  0  0  0  0  0  0  0
   36.3190   27.8680   40.2200 N   0  0  0  0  0  0  0  0  0  0  0  0
   37.6340   26.2870   43.4680 H   0  0  0  0  0  0  0  0  0  0  0  0
   36.6480   25.9220   39.3670 H   0  0  0  0  0  0  0  0  0  0  0  0
   37.1150   30.7410   40.8710 C   0  0  0  0  0  0  0  0  0  0  0  0
   38.2050   30.0880   40.8870 O   0  0  0  0  0  0  0  0  0  0  0  0
   35.9810   29.9200   41.1720 N   0  0  0  0  0  0  0  0  0  0  0  0
   35.0340   30.3300   41.2160 H   0  0  0  0  0  0  0  0  0  0  0  0
   36.9700   32.1010   40.6010 O   0  0  0  0  0  0  0  0  0  0  0  0
   38.1110   32.9130   40.5500 C   0  0  0  0  0  3  0  0  0  0  0  0
   39.0140   33.0410   39.6190 C   0  0  0  0  0  3  0  0  0  0  0  0
   40.1920   33.9400   39.6690 C   0  0  0  0  0  2  0  0  0  0  0  0
   40.3300   34.2600   40.7390 H   0  0  0  0  0  0  0  0  0  0  0  0
   36.9440   28.8990   43.6800 N   0  0  0  0  0  0  0  0  0  0  0  0
   36.7580   28.5310   44.6460 H   0  0  0  0  0  0  0  0  0  0  0  0
   37.1710   29.9080   43.5300 H   0  0  0  0  0  0  0  0  0  0  0  0
  1  2  1  0  0  0  0
  2 18  1  0  0  0  0
  3  2  2  0  0  0  0
  3  7  1  0  0  0  0
  4  3  1  0  0  0  0
  5  4  2  0  0  0  0
  6  5  1  0  0  0  0
  6  1  2  0  0  0  0
  8  5  1  0  0  0  0
  9 10  2  0  0  0  0
  9 11  1  0  0  0  0
 11 12  1  0  0  0  0
 11  1  1  0  0  0  0
 13  9  1  0  0  0  0
 14 13  1  0  0  0  0
 15 16  1  0  0  0  0
 15 14  2  0  0  0  0
 16 17  1  0  0  0  0
 18 19  1  0  0  0  0
 20 18  1  0  0  0  0
M  END
>  <minimizedAffinity>
-4.16676188

$$$$

 OpenBabel03252501363D

 20 20  0  0  0  0  0  0  0  0999 V2000
   41.3020   31.9850   37.3200 C   0  0  0  0  0  0  0  0  0  0  0  0
   42.4540   32.6740   37.0360 C   0  0  0  0  0  0  0  0  0  0  0  0
   43.5860   31.8830   36.8320 C   0  0  0  0  0  0  0  0  0  0  0  0
   43.4570   30.5480   36.9270 N   0  0  0  0  0  0  0  0  0  0  0  0
   42.3100   29.9210   37.2060 C   0  0  0  0  0  0  0  0  0  0  0  0
   41.1820   30.6510   37.4140 N   0  0  0  0  0  0  0  0  0  0  0  0
   44.5020   32.4150   36.6060 H   0  0  0  0  0  0  0  0  0  0  0  0
   42.3280   28.8400   37.2570 H   0  0  0  0  0  0  0  0  0  0  0  0
   39.8900   32.8840   38.9750 C   0  0  0  0  0  0  0  0  0  0  0  0
   40.9100   32.5000   39.6300 O   0  0  0  0  0  0  0  0  0  0  0  0
   40.0040   32.6050   37.5750 N   0  0  0  0  0  0  0  0  0  0  0  0
   39.2340   32.8440   36.9290 H   0  0  0  0  0  0  0  0  0  0  0  0
   38.7590   33.5080   39.4970 O   0  0  0  0  0  0  0  0  0  0  0  0
   37.8630   32.7610   40.2730 C   0  0  0  0  0  3  0  0  0  0  0  0
   37.2050   31.6730   39.9900 C   0  0  0  0  0  3  0  0  0  0  0  0
   36.2740   30.9590   40.8980 C   0  0  0  0  0  2  0  0  0  0  0  0
   36.0130   31.6610   41.7370 H   0  0  0  0  0  0  0  0  0  0  0  0
   42.3970   34.0800   36.9780 N   0  0  0  0  0  0  0  0  0  0  0  0
   43.2120   34.6620   37.2940 H   0  0  0  0  0  0  0  0  0  0  0  0
   41.5300   34.5350   36.6130 H   0  0  0  0  0  0  0  0  0  0  0  0
  1  6  1  0  0  0  0
  1 11  1  0  0  0  0
  2  1  2  0  0  0  0
  3  4  2  0  0  0  0
  3  2  1  0  0  0  0
  4  5  1  0  0  0  0
  5  8  1  0  0  0  0
  5  6  2  0  0  0  0
  7  3  1  0  0  0  0
  9 13  1  0  0  0  0
  9 10  2  0  0  0  0
 11  9  1  0  0  0  0
 12 11  1  0  0  0  0
 13 14  1  0  0  0  0
 15 14  2  0  0  0  0
 15 16  1  0  0  0  0
 16 17  1  0  0  0  0
 18  2  1  0  0  0  0
 18 19  1  0  0  0  0
 20 18  1  0  0  0  0
M  END
>  <minimizedAffinity>
-4.03613615

$$$$

 OpenBabel03252501363D

 20 20  0  0  0  0  0  0  0  0999 V2000
   36.6430   31.4580   39.5600 C   0  0  0  0  0  0  0  0  0  0  0  0
   36.0580   30.5750   40.4330 C   0  0  0  0  0  0  0  0  0  0  0  0
   35.7390   29.3280   39.8950 C   0  0  0  0  0  0  0  0  0  0  0  0
   36.0240   29.1000   38.6000 N   0  0  0  0  0  0  0  0  0  0  0  0
   36.5960   29.9940   37.7870 C   0  0  0  0  0  0  0  0  0  0  0  0
   36.9240   31.2230   38.2690 N   0  0  0  0  0  0  0  0  0  0  0  0
   35.2770   28.6220   40.5730 H   0  0  0  0  0  0  0  0  0  0  0  0
   36.7770   29.6970   36.7620 H   0  0  0  0  0  0  0  0  0  0  0  0
   38.4830   32.8620   39.9870 C   0  0  0  0  0  0  0  0  0  0  0  0
   39.0170   31.7280   39.7780 O   0  0  0  0  0  0  0  0  0  0  0  0
   37.0540   32.8170   39.9040 N   0  0  0  0  0  0  0  0  0  0  0  0
   36.4920   33.6660   40.0770 H   0  0  0  0  0  0  0  0  0  0  0  0
   39.1520   34.0510   40.2710 O   0  0  0  0  0  0  0  0  0  0  0  0
   40.5130   34.1610   39.9580 C   0  0  0  0  0  3  0  0  0  0  0  0
   41.5680   33.9030   40.6780 C   0  0  0  0  0  3  0  0  0  0  0  0
   42.9780   34.0560   40.2410 C   0  0  0  0  0  2  0  0  0  0  0  0
   42.9780   34.6960   39.3160 H   0  0  0  0  0  0  0  0  0  0  0  0
   35.8350   30.9920   41.7600 N   0  0  0  0  0  0  0  0  0  0  0  0
   34.9920   30.6600   42.2910 H   0  0  0  0  0  0  0  0  0  0  0  0
   36.5240   31.6380   42.2080 H   0  0  0  0  0  0  0  0  0  0  0  0
  1 11  1  0  0  0  0
  1  2  1  0  0  0  0
  2 18  1  0  0  0  0
  3  2  2  0  0  0  0
  3  7  1  0  0  0  0
  4  3  1  0  0  0  0
  5  6  1  0  0  0  0
  5  4  2  0  0  0  0
  6  1  2  0  0  0  0
  8  5  1  0  0  0  0
  9 13  1  0  0  0  0
 10  9  2  0  0  0  0
 11  9  1  0  0  0  0
 11 12  1  0  0  0  0
 14 13  1  0  0  0  0
 14 15  2  0  0  0  0
 16 15  1  0  0  0  0
 17 16  1  0  0  0  0
 18 20  1  0  0  0  0
 18 19  1  0  0  0  0
M  END
>  <minimizedAffinity>
-3.89841938

$$$$

 OpenBabel03252501363D

 20 20  0  0  0  0  0  0  0  0999 V2000
   37.9490   29.0980   42.6300 C   0  0  0  0  0  0  0  0  0  0  0  0
   37.8450   27.9290   43.3420 C   0  0  0  0  0  0  0  0  0  0  0  0
   39.0570   27.3160   43.6620 C   0  0  0  0  0  0  0  0  0  0  0  0
   40.1960   27.9060   43.2570 N   0  0  0  0  0  0  0  0  0  0  0  0
   40.2470   29.0480   42.5640 C   0  0  0  0  0  0  0  0  0  0  0  0
   39.0910   29.6790   42.2300 N   0  0  0  0  0  0  0  0  0  0  0  0
   38.9890   26.3940   44.2240 H   0  0  0  0  0  0  0  0  0  0  0  0
   41.2240   29.4270   42.2930 H   0  0  0  0  0  0  0  0  0  0  0  0
   36.3480   29.3920   40.9300 C   0  0  0  0  0  0  0  0  0  0  0  0
   37.0430   28.4100   40.5180 O   0  0  0  0  0  0  0  0  0  0  0  0
   36.8150   29.9030   42.1840 N   0  0  0  0  0  0  0  0  0  0  0  0
   36.3540   30.7170   42.6220 H   0  0  0  0  0  0  0  0  0  0  0  0
   35.2480   29.9550   40.2860 O   0  0  0  0  0  0  0  0  0  0  0  0
   34.5000   29.1700   39.3980 C   0  0  0  0  0  3  0  0  0  0  0  0
   34.6200   29.0050   38.1120 C   0  0  0  0  0  3  0  0  0  0  0  0
   33.7650   28.1400   37.2620 C   0  0  0  0  0  2  0  0  0  0  0  0
   32.8400   27.8930   37.8530 H   0  0  0  0  0  0  0  0  0  0  0  0
   36.5590   27.4620   43.6790 N   0  0  0  0  0  0  0  0  0  0  0  0
   36.3570   26.4320   43.7150 H   0  0  0  0  0  0  0  0  0  0  0  0
   35.8100   28.1580   43.8940 H   0  0  0  0  0  0  0  0  0  0  0  0
  1  2  1  0  0  0  0
  2  3  2  0  0  0  0
  2 18  1  0  0  0  0
  3  7  1  0  0  0  0
  4  3  1  0  0  0  0
  5  4  2  0  0  0  0
  6  5  1  0  0  0  0
  6  1  2  0  0  0  0
  8  5  1  0  0  0  0
  9 11  1  0  0  0  0
 10  9  2  0  0  0  0
 11 12  1  0  0  0  0
 11  1  1  0  0  0  0
 13  9  1  0  0  0  0
 14 13  1  0  0  0  0
 15 14  2  0  0  0  0
 16 17  1  0  0  0  0
 16 15  1  0  0  0  0
 18 19  1  0  0  0  0
 18 20  1  0  0  0  0
M  END
>  <minimizedAffinity>
-3.86778474

$$$$

 OpenBabel03252501363D

 20 20  0  0  0  0  0  0  0  0999 V2000
   36.6770   28.4440   41.8900 C   0  0  0  0  0  0  0  0  0  0  0  0
   37.3210   29.6290   42.1510 C   0  0  0  0  0  0  0  0  0  0  0  0
   36.9670   30.6940   41.3230 C   0  0  0  0  0  0  0  0  0  0  0  0
   36.0490   30.4790   40.3640 N   0  0  0  0  0  0  0  0  0  0  0  0
   35.4490   29.3050   40.1470 C   0  0  0  0  0  0  0  0  0  0  0  0
   35.7630   28.2380   40.9300 N   0  0  0  0  0  0  0  0  0  0  0  0
   37.4670   31.6340   41.5190 H   0  0  0  0  0  0  0  0  0  0  0  0
   34.7250   29.2520   39.3440 H   0  0  0  0  0  0  0  0  0  0  0  0
   38.0520   26.5450   42.0930 C   0  0  0  0  0  0  0  0  0  0  0  0
   38.5660   27.1800   41.1200 O   0  0  0  0  0  0  0  0  0  0  0  0
   36.8950   27.2010   42.6240 N   0  0  0  0  0  0  0  0  0  0  0  0
   36.3660   26.7790   43.4050 H   0  0  0  0  0  0  0  0  0  0  0  0
   38.5120   25.3440   42.6310 O   0  0  0  0  0  0  0  0  0  0  0  0
   38.5870   24.2120   41.8090 C   0  0  0  0  0  3  0  0  0  0  0  0
   37.6540   23.5780   41.1580 C   0  0  0  0  0  3  0  0  0  0  0  0
   37.8480   22.3780   40.3080 C   0  0  0  0  0  2  0  0  0  0  0  0
   38.8580   21.9470   40.5550 H   0  0  0  0  0  0  0  0  0  0  0  0
   38.2580   29.6640   43.2030 N   0  0  0  0  0  0  0  0  0  0  0  0
   39.1130   30.2700   43.1370 H   0  0  0  0  0  0  0  0  0  0  0  0
   38.0860   29.0780   44.0510 H   0  0  0  0  0  0  0  0  0  0  0  0
  1  2  1  0  0  0  0
  1 11  1  0  0  0  0
  2 18  1  0  0  0  0
  3  7  1  0  0  0  0
  3  2  2  0  0  0  0
  4  3  1  0  0  0  0
  5  4  2  0  0  0  0
  5  6  1  0  0  0  0
  6  1  2  0  0  0  0
  8  5  1  0  0  0  0
  9 11  1  0  0  0  0
  9 13  1  0  0  0  0
 10  9  2  0  0  0  0
 11 12  1  0  0  0  0
 14 13  1  0  0  0  0
 15 14  2  0  0  0  0
 16 17  1  0  0  0  0
 16 15  1  0  0  0  0
 18 20  1  0  0  0  0
 19 18  1  0  0  0  0
M  END
>  <minimizedAffinity>
-3.83269191

$$$$

 OpenBabel03252501363D

 20 20  0  0  0  0  0  0  0  0999 V2000
   37.5710   31.0900   41.0490 C   0  0  0  0  0  0  0  0  0  0  0  0
   38.7670   31.7630   41.0430 C   0  0  0  0  0  0  0  0  0  0  0  0
   39.0470   32.4700   39.8730 C   0  0  0  0  0  0  0  0  0  0  0  0
   38.1460   32.4350   38.8760 N   0  0  0  0  0  0  0  0  0  0  0  0
   36.9910   31.7630   38.9280 C   0  0  0  0  0  0  0  0  0  0  0  0
   36.6770   31.0590   40.0480 N   0  0  0  0  0  0  0  0  0  0  0  0
   39.9870   33.0070   39.8560 H   0  0  0  0  0  0  0  0  0  0  0  0
   36.3440   31.8090   38.0610 H   0  0  0  0  0  0  0  0  0  0  0  0
   37.6740   28.9820   42.0910 C   0  0  0  0  0  0  0  0  0  0  0  0
   38.4390   28.8530   41.0840 O   0  0  0  0  0  0  0  0  0  0  0  0
   37.0770   30.2820   42.1610 N   0  0  0  0  0  0  0  0  0  0  0  0
   36.4140   30.5140   42.9180 H   0  0  0  0  0  0  0  0  0  0  0  0
   37.4030   28.0100   43.0530 O   0  0  0  0  0  0  0  0  0  0  0  0
   36.8970   26.7690   42.6460 C   0  0  0  0  0  3  0  0  0  0  0  0
   37.5180   25.6850   42.2760 C   0  0  0  0  0  3  0  0  0  0  0  0
   36.8760   24.4130   41.8630 C   0  0  0  0  0  2  0  0  0  0  0  0
   35.7940   24.6350   41.6440 H   0  0  0  0  0  0  0  0  0  0  0  0
   39.5860   31.6830   42.1860 N   0  0  0  0  0  0  0  0  0  0  0  0
   40.6330   31.6810   42.0950 H   0  0  0  0  0  0  0  0  0  0  0  0
   39.1350   31.6270   43.1280 H   0  0  0  0  0  0  0  0  0  0  0  0
  1 11  1  0  0  0  0
  2  1  1  0  0  0  0
  2 18  1  0  0  0  0
  3  2  2  0  0  0  0
  4  5  2  0  0  0  0
  4  3  1  0  0  0  0
  5  6  1  0  0  0  0
  6  1  2  0  0  0  0
  7  3  1  0  0  0  0
  8  5  1  0  0  0  0
  9 11  1  0  0  0  0
  9 13  1  0  0  0  0
 10  9  2  0  0  0  0
 11 12  1  0  0  0  0
 14 13  1  0  0  0  0
 15 14  2  0  0  0  0
 16 15  1  0  0  0  0
 17 16  1  0  0  0  0
 18 20  1  0  0  0  0
 19 18  1  0  0  0  0
M  END
>  <minimizedAffinity>
-3.82463264

$$$$
