
     RDKit          3D

 21 21  0  0  0  0  0  0  0  0999 V2000
   44.9253   35.1174   44.9491 C   0  0  0  0  0  0  0  0  0  0  0  0
   45.8327   34.7674   43.9462 C   0  0  0  0  0  0  0  0  0  0  0  0
   46.6841   33.6932   44.2194 C   0  0  0  0  0  0  0  0  0  0  0  0
   46.5974   33.0555   45.4066 N   0  0  0  0  0  0  0  0  0  0  0  0
   45.7057   33.4288   46.3430 C   0  0  0  0  0  0  0  0  0  0  0  0
   44.8637   34.4558   46.1320 N   0  0  0  0  0  0  0  0  0  0  0  0
   45.8013   35.5646   42.6869 C   0  0  0  0  0  0  0  0  0  0  0  0
   45.3359   36.7989   43.0253 F   0  0  0  0  0  0  0  0  0  0  0  0
   44.9135   34.9277   41.8271 F   0  0  0  0  0  0  0  0  0  0  0  0
   47.0696   35.5502   42.1580 F   0  0  0  0  0  0  0  0  0  0  0  0
   45.6167   32.7754   47.5543 O   0  0  0  0  0  0  0  0  0  0  0  0
   44.2108   35.9391   44.8509 H   0  0  0  0  0  0  0  0  0  0  0  0
   47.3652   33.4580   43.4229 H   0  0  0  0  0  0  0  0  0  0  0  0
   44.7213   33.1229   48.5388 C   0  0  0  0  0  0  0  0  0  0  0  0
   45.1402   33.3085   49.7926 C   0  0  0  0  0  0  0  0  0  0  0  0
   46.6144   33.1088   50.0055 C   0  0  0  0  0  0  0  0  0  0  0  0
   46.9234   33.5479   50.9860 H   0  0  0  0  0  0  0  0  0  0  0  0
   43.6855   33.2316   48.2331 H   0  0  0  0  0  0  0  0  0  0  0  0
   44.3586   33.5842   50.5154 H   0  0  0  0  0  0  0  0  0  0  0  0
   46.8637   32.0303   49.9500 H   0  0  0  0  0  0  0  0  0  0  0  0
   47.1142   33.6249   49.1636 H   0  0  0  0  0  0  0  0  0  0  0  0
  1  6  2  0
  2  3  2  0
  2  1  1  0
  3  4  1  0
  4  5  2  0
  5 11  1  0
  6  5  1  0
  7  8  1  0
  7  2  1  0
  9  7  1  0
 10  7  1  0
  1 12  1  0
  3 13  1  0
 14 15  2  3
 15 16  1  0
 16 17  1  0
 14 18  1  0
 15 19  1  0
 16 20  1  0
 16 21  1  0
 11 14  1  0
M  ISO  3  12  14  13  14  17   8
M  END
>  <DihAtoms>  (1) 
4,10,13,14

>  <DihDeg>  (1) 
-159.79563375375918

$$$$
