
 OpenBabel03242516323D

 39 41  0  0  1  0  0  0  0  0999 V2000
   48.0360   34.6860   41.9790 C   0  0  2  0  0  0  0  0  0  0  0  0
   46.7240   33.8990   42.2510 C   0  0  1  0  0  0  0  0  0  0  0  0
   47.2610   32.6840   42.5580 O   0  0  0  0  0  0  0  0  0  0  0  0
   48.1420   32.4240   41.4890 C   0  0  0  0  0  0  0  0  0  0  0  0
   48.5250   33.7860   40.8670 C   0  0  1  0  0  0  0  0  0  0  0  0
   47.8310   35.7090   41.6580 H   0  0  0  0  0  0  0  0  0  0  0  0
   46.1870   33.8400   41.2780 H   0  0  0  0  0  0  0  0  0  0  0  0
   49.0330   31.8590   41.8050 H   0  0  0  0  0  0  0  0  0  0  0  0
   47.5770   31.8300   40.7450 H   0  0  0  0  0  0  0  0  0  0  0  0
   49.6080   33.8990   40.7050 H   0  0  0  0  0  0  0  0  0  0  0  0
   44.5200   36.0560   44.4710 C   0  0  0  0  0  0  0  0  0  0  0  0
   45.1830   35.6870   43.3010 C   0  0  0  0  0  0  0  0  0  0  0  0
   45.9490   34.5370   43.3230 C   0  0  0  0  0  0  0  0  0  0  0  0
   46.0070   33.8270   44.5070 N   0  0  0  0  0  0  0  0  0  0  0  0
   45.3510   34.2170   45.6150 C   0  0  0  0  0  0  0  0  0  0  0  0
   44.6030   35.3410   45.5910 N   0  0  0  0  0  0  0  0  0  0  0  0
   43.9360   36.9770   44.3750 H   0  0  0  0  0  0  0  0  0  0  0  0
   45.1890   36.1800   42.3460 H   0  0  0  0  0  0  0  0  0  0  0  0
   45.4000   33.6580   46.5340 H   0  0  0  0  0  0  0  0  0  0  0  0
   48.9090   34.5470   43.0150 O   0  0  0  0  0  0  0  0  0  0  0  0
   49.1440   35.3830   43.4640 H   0  0  0  0  0  0  0  0  0  0  0  0
   47.7680   33.9450   39.7430 O   0  0  0  0  0  0  0  0  0  0  0  0
   49.1610   32.9310   38.1320 C   0  0  1  0  0  0  0  0  0  0  0  0
   48.4660   34.3110   38.5940 C   0  0  1  0  0  0  0  0  0  0  0  0
   47.6060   34.4460   37.5700 O   0  0  0  0  0  0  0  0  0  0  0  0
   46.8790   33.2290   37.7040 C   0  0  0  0  0  0  0  0  0  0  0  0
   47.9810   32.2040   37.5620 C   0  0  1  0  0  0  0  0  0  0  0  0
   49.6610   32.4910   38.9740 H   0  0  0  0  0  0  0  0  0  0  0  0
   49.3540   34.9140   38.7460 H   0  0  0  0  0  0  0  0  0  0  0  0
   46.3900   33.1410   38.6760 H   0  0  0  0  0  0  0  0  0  0  0  0
   46.1990   33.1530   36.8410 H   0  0  0  0  0  0  0  0  0  0  0  0
   47.8220   31.3110   38.2180 H   0  0  0  0  0  0  0  0  0  0  0  0
   49.9690   33.2940   37.0490 O   0  0  0  0  0  0  0  0  0  0  0  0
   50.3300   32.5290   36.5760 H   0  0  0  0  0  0  0  0  0  0  0  0
   48.1540   31.9080   36.2240 O   0  0  0  0  0  0  0  0  0  0  0  0
   47.2850   31.0830   35.5590 C   0  0  0  0  0  0  0  0  0  0  0  0
   46.2020   31.0200   34.8400 C   0  0  0  0  0  0  0  0  0  0  0  0
   45.3060   32.0960   34.3740 C   0  0  0  0  0  0  0  0  0  0  0  0
   45.7000   32.4740   33.3980 H   0  0  0  0  0  0  0  0  0  0  0  0
  1  6  1  6  0  0  0
  1  2  1  0  0  0  0
  1 20  1  0  0  0  0
  2  7  1  6  0  0  0
  2  3  1  0  0  0  0
  2 13  1  0  0  0  0
  4  8  1  0  0  0  0
  4  3  1  0  0  0  0
  5 10  1  6  0  0  0
  5  4  1  0  0  0  0
  5  1  1  0  0  0  0
  9  4  1  0  0  0  0
 11 16  1  0  0  0  0
 12 13  1  0  0  0  0
 12 11  2  0  0  0  0
 13 14  2  0  0  0  0
 14 15  1  0  0  0  0
 15 19  1  0  0  0  0
 16 15  2  0  0  0  0
 17 11  1  0  0  0  0
 18 12  1  0  0  0  0
 20 21  1  0  0  0  0
 22  5  1  0  0  0  0
 23 24  1  0  0  0  0
 23 28  1  1  0  0  0
 24 29  1  1  0  0  0
 24 22  1  0  0  0  0
 25 26  1  0  0  0  0
 25 24  1  0  0  0  0
 26 30  1  0  0  0  0
 27 26  1  0  0  0  0
 27 23  1  0  0  0  0
 27 32  1  1  0  0  0
 31 26  1  0  0  0  0
 33 23  1  0  0  0  0
 34 33  1  0  0  0  0
 35 27  1  0  0  0  0
 36 35  1  0  0  0  0
 37 36  2  0  0  0  0
 38 37  1  0  0  0  0
 39 38  1  0  0  0  0
M  END
>  <minimizedAffinity>
-5.19707108

>  <minimizedRMSD>
0.201062277

$$$$
