
 OpenBabel03252501343D

 20 20  0  0  0  0  0  0  0  0999 V2000
   45.6560   34.6380   44.2930 C   0  0  0  0  0  0  0  0  0  0  0  0
   45.2720   34.3870   45.5870 C   0  0  0  0  0  0  0  0  0  0  0  0
   45.9270   33.3220   46.2060 C   0  0  0  0  0  0  0  0  0  0  0  0
   46.8560   32.6480   45.5030 N   0  0  0  0  0  0  0  0  0  0  0  0
   47.1960   32.9320   44.2420 C   0  0  0  0  0  0  0  0  0  0  0  0
   46.5830   33.9610   43.5990 N   0  0  0  0  0  0  0  0  0  0  0  0
   45.6340   33.1130   47.2270 H   0  0  0  0  0  0  0  0  0  0  0  0
   47.9580   32.3180   43.7780 H   0  0  0  0  0  0  0  0  0  0  0  0
   44.1910   35.1150   42.5130 C   0  0  0  0  0  0  0  0  0  0  0  0
   44.1220   33.8500   42.6250 O   0  0  0  0  0  0  0  0  0  0  0  0
   45.1020   35.6970   43.4530 N   0  0  0  0  0  0  0  0  0  0  0  0
   45.2720   36.7160   43.4550 H   0  0  0  0  0  0  0  0  0  0  0  0
   43.4900   35.9040   41.6030 O   0  0  0  0  0  0  0  0  0  0  0  0
   42.3120   35.4060   41.0320 C   0  0  0  0  0  3  0  0  0  0  0  0
   41.1030   35.8910   41.0330 C   0  0  0  0  0  3  0  0  0  0  0  0
   39.9180   35.2740   40.3900 C   0  0  0  0  0  2  0  0  0  0  0  0
   40.1740   34.2000   40.1640 H   0  0  0  0  0  0  0  0  0  0  0  0
   44.2770   35.2020   46.1610 N   0  0  0  0  0  0  0  0  0  0  0  0
   43.5880   34.8030   46.8450 H   0  0  0  0  0  0  0  0  0  0  0  0
   44.2370   36.2120   45.8950 H   0  0  0  0  0  0  0  0  0  0  0  0
  1  2  1  0  0  0  0
  2 18  1  0  0  0  0
  2  3  2  0  0  0  0
  3  7  1  0  0  0  0
  4  3  1  0  0  0  0
  5  4  2  0  0  0  0
  6  5  1  0  0  0  0
  6  1  2  0  0  0  0
  8  5  1  0  0  0  0
  9 10  2  0  0  0  0
  9 11  1  0  0  0  0
 11 12  1  0  0  0  0
 11  1  1  0  0  0  0
 13  9  1  0  0  0  0
 14 15  2  0  0  0  0
 14 13  1  0  0  0  0
 16 15  1  0  0  0  0
 17 16  1  0  0  0  0
 18 19  1  0  0  0  0
 20 18  1  0  0  0  0
M  END
>  <minimizedAffinity>
-4.65558434

>  <minimizedRMSD>
0.52171427

$$$$
