
 OpenBabel03242523273D

 40 42  0  0  1  0  0  0  0  0999 V2000
   36.2120   27.3640   39.9180 C   0  0  0  0  0  0  0  0  0  0  0  0
   36.7810   27.0880   41.0970 C   0  0  0  0  0  0  0  0  0  0  0  0
   37.6170   25.9980   41.0840 C   0  0  0  0  0  0  0  0  0  0  0  0
   37.7830   25.3010   39.8750 N   0  0  0  0  0  0  0  0  0  0  0  0
   37.1880   25.6280   38.7500 C   0  0  0  0  0  0  0  0  0  0  0  0
   36.3430   26.7190   38.7260 N   0  0  0  0  0  0  0  0  0  0  0  0
   38.1700   25.6240   41.9420 H   0  0  0  0  0  0  0  0  0  0  0  0
   37.4140   24.9920   37.9020 H   0  0  0  0  0  0  0  0  0  0  0  0
   36.5130   27.7250   42.3580 C   0  0  1  0  0  0  0  0  0  0  0  0
   37.2110   27.5860   43.5050 C   0  0  0  0  0  0  0  0  0  0  0  0
   37.5600   28.8600   42.7780 C   0  0  1  0  0  0  0  0  0  0  0  0
   35.4890   28.2280   42.3170 H   0  0  0  0  0  0  0  0  0  0  0  0
   38.0560   26.8480   43.6140 H   0  0  0  0  0  0  0  0  0  0  0  0
   36.7860   27.7740   44.5310 H   0  0  0  0  0  0  0  0  0  0  0  0
   37.1240   29.7980   43.1460 H   0  0  0  0  0  0  0  0  0  0  0  0
   38.7440   28.8470   42.0070 N   0  0  0  0  0  0  0  0  0  0  0  0
   38.7850   29.0370   40.9790 H   0  0  0  0  0  0  0  0  0  0  0  0
   40.0190   28.5730   42.4770 C   0  0  0  0  0  2  0  0  0  0  0  0
   41.1360   28.2210   42.9580 C   0  0  0  0  0  2  0  0  0  0  0  0
   42.5550   28.6200   43.0600 C   0  0  0  0  0  2  0  0  0  0  0  0
   43.1500   28.2010   42.2300 H   0  0  0  0  0  0  0  0  0  0  0  0
   35.3190   28.5230   39.6320 C   0  0  0  0  0  0  0  0  0  0  0  0
   34.2850   29.1200   39.6530 O   0  0  0  0  0  0  0  0  0  0  0  0
   36.1980   31.0830   41.1370 Cl  0  0  0  0  0  0  0  0  0  0  0  0
   36.5880   30.7820   39.4540 C   0  0  0  0  0  0  0  0  0  0  0  0
   36.1320   29.5630   38.8960 C   0  0  0  0  0  0  0  0  0  0  0  0
   36.5120   29.4540   37.5850 C   0  0  0  0  0  0  0  0  0  0  0  0
   37.2000   30.2750   36.8150 C   0  0  0  0  0  0  0  0  0  0  0  0
   37.6170   31.4480   37.4100 C   0  0  0  0  0  0  0  0  0  0  0  0
   37.3280   31.7160   38.6980 C   0  0  0  0  0  0  0  0  0  0  0  0
   36.2090   28.5120   37.0590 H   0  0  0  0  0  0  0  0  0  0  0  0
   37.4520   30.0880   35.7660 H   0  0  0  0  0  0  0  0  0  0  0  0
   38.1950   32.1550   36.7860 H   0  0  0  0  0  0  0  0  0  0  0  0
   37.7900   32.9080   39.1900 O   0  0  0  0  0  0  0  0  0  0  0  0
   39.7910   31.9270   40.5790 O   0  0  0  0  0  0  0  0  0  0  0  0
   39.1640   33.2240   40.1370 P   0  0  0  0  0  0  0  0  0  0  0  0
   40.2530   34.1560   39.2310 O   0  0  0  0  0  0  0  0  0  0  0  0
   40.7130   33.5750   38.5730 H   0  0  0  0  0  0  0  0  0  0  0  0
   38.7740   34.1580   41.5060 O   0  0  0  0  0  0  0  0  0  0  0  0
   37.8200   34.4130   41.4640 H   0  0  0  0  0  0  0  0  0  0  0  0
  1  2  1  0  0  0  0
  2  9  1  0  0  0  0
  3  2  2  0  0  0  0
  3  7  1  0  0  0  0
  4  3  1  0  0  0  0
  5  4  2  0  0  0  0
  6  5  1  0  0  0  0
  6  1  2  0  0  0  0
  8  5  1  0  0  0  0
  9 12  1  1  0  0  0
  9 11  1  0  0  0  0
  9 10  1  0  0  0  0
 10 13  1  0  0  0  0
 10 14  1  0  0  0  0
 11 15  1  1  0  0  0
 11 10  1  0  0  0  0
 16 18  1  0  0  0  0
 16 11  1  0  0  0  0
 17 16  1  0  0  0  0
 18 19  1  0  0  0  0
 19 20  1  0  0  0  0
 21 20  1  0  0  0  0
 22 23  2  0  0  0  0
 22  1  1  0  0  0  0
 25 24  1  0  0  0  0
 26 25  1  0  0  0  0
 26 22  1  0  0  0  0
 27 26  2  0  0  0  0
 28 29  2  0  0  0  0
 28 27  1  0  0  0  0
 29 30  1  0  0  0  0
 30 34  1  0  0  0  0
 30 25  2  0  0  0  0
 31 27  1  0  0  0  0
 32 28  1  0  0  0  0
 33 29  1  0  0  0  0
 34 36  1  0  0  0  0
 36 35  2  0  0  0  0
 36 39  1  0  0  0  0
 37 36  1  0  0  0  0
 38 37  1  0  0  0  0
 40 39  1  0  0  0  0
M  END
>  <minimizedAffinity>
-6.14222717

$$$$

 OpenBabel03242523273D

 40 42  0  0  1  0  0  0  0  0999 V2000
   36.9390   28.9910   40.3320 C   0  0  0  0  0  0  0  0  0  0  0  0
   36.9180   27.9360   41.1550 C   0  0  0  0  0  0  0  0  0  0  0  0
   37.1130   26.7260   40.5350 C   0  0  0  0  0  0  0  0  0  0  0  0
   37.3070   26.7160   39.1420 N   0  0  0  0  0  0  0  0  0  0  0  0
   37.3130   27.7950   38.3930 C   0  0  0  0  0  0  0  0  0  0  0  0
   37.1220   29.0270   38.9840 N   0  0  0  0  0  0  0  0  0  0  0  0
   37.1330   25.7630   41.0370 H   0  0  0  0  0  0  0  0  0  0  0  0
   37.4720   27.6250   37.3350 H   0  0  0  0  0  0  0  0  0  0  0  0
   36.5970   27.9380   42.5570 C   0  0  1  0  0  0  0  0  0  0  0  0
   36.6030   26.8800   43.3950 C   0  0  0  0  0  0  0  0  0  0  0  0
   37.8440   27.7240   43.5360 C   0  0  1  0  0  0  0  0  0  0  0  0
   36.1340   28.9440   42.8370 H   0  0  0  0  0  0  0  0  0  0  0  0
   36.7760   25.8260   43.0370 H   0  0  0  0  0  0  0  0  0  0  0  0
   36.0050   26.8250   44.3480 H   0  0  0  0  0  0  0  0  0  0  0  0
   37.9020   28.4120   44.3900 H   0  0  0  0  0  0  0  0  0  0  0  0
   39.0050   27.2620   42.8770 N   0  0  0  0  0  0  0  0  0  0  0  0
   39.0050   26.5860   42.0800 H   0  0  0  0  0  0  0  0  0  0  0  0
   40.3100   27.6160   43.1840 C   0  0  0  0  0  2  0  0  0  0  0  0
   41.4790   27.9000   43.5790 C   0  0  0  0  0  2  0  0  0  0  0  0
   42.7720   28.4560   43.1320 C   0  0  0  0  0  2  0  0  0  0  0  0
   43.4450   27.6620   42.7630 H   0  0  0  0  0  0  0  0  0  0  0  0
   36.8210   30.4190   40.7440 C   0  0  0  0  0  0  0  0  0  0  0  0
   36.2280   31.4050   41.0610 O   0  0  0  0  0  0  0  0  0  0  0  0
   37.7990   32.2610   38.4540 Cl  0  0  0  0  0  0  0  0  0  0  0  0
   38.7960   31.8400   39.8330 C   0  0  0  0  0  0  0  0  0  0  0  0
   38.2170   30.9980   40.8130 C   0  0  0  0  0  0  0  0  0  0  0  0
   39.0970   30.7580   41.8330 C   0  0  0  0  0  0  0  0  0  0  0  0
   40.3350   31.1740   42.0210 C   0  0  0  0  0  0  0  0  0  0  0  0
   40.8490   31.9910   41.0340 C   0  0  0  0  0  0  0  0  0  0  0  0
   40.1150   32.3280   39.9570 C   0  0  0  0  0  0  0  0  0  0  0  0
   38.7230   30.1110   42.6680 H   0  0  0  0  0  0  0  0  0  0  0  0
   40.9590   30.9200   42.8840 H   0  0  0  0  0  0  0  0  0  0  0  0
   41.8860   32.3540   41.1660 H   0  0  0  0  0  0  0  0  0  0  0  0
   40.7210   33.1430   39.0380 O   0  0  0  0  0  0  0  0  0  0  0  0
   42.7550   31.8310   38.0220 O   0  0  0  0  0  0  0  0  0  0  0  0
   41.6060   32.7320   37.6490 P   0  0  0  0  0  0  0  0  0  0  0  0
   40.5690   31.9780   36.5400 O   0  0  0  0  0  0  0  0  0  0  0  0
   40.3980   31.0470   36.8320 H   0  0  0  0  0  0  0  0  0  0  0  0
   42.2080   34.1170   36.8620 O   0  0  0  0  0  0  0  0  0  0  0  0
   41.8680   34.9240   37.3200 H   0  0  0  0  0  0  0  0  0  0  0  0
  1 22  1  0  0  0  0
  1  2  1  0  0  0  0
  2  9  1  0  0  0  0
  3  7  1  0  0  0  0
  3  2  2  0  0  0  0
  4  3  1  0  0  0  0
  5  6  1  0  0  0  0
  5  4  2  0  0  0  0
  6  1  2  0  0  0  0
  8  5  1  0  0  0  0
  9 12  1  1  0  0  0
  9 10  1  0  0  0  0
  9 11  1  0  0  0  0
 10 11  1  0  0  0  0
 10 14  1  0  0  0  0
 11 15  1  1  0  0  0
 13 10  1  0  0  0  0
 16 18  1  0  0  0  0
 16 11  1  0  0  0  0
 17 16  1  0  0  0  0
 18 19  1  0  0  0  0
 20 19  1  0  0  0  0
 21 20  1  0  0  0  0
 22 26  1  0  0  0  0
 22 23  2  0  0  0  0
 24 25  1  0  0  0  0
 25 30  2  0  0  0  0
 25 26  1  0  0  0  0
 26 27  2  0  0  0  0
 27 28  1  0  0  0  0
 27 31  1  0  0  0  0
 28 32  1  0  0  0  0
 29 33  1  0  0  0  0
 29 28  2  0  0  0  0
 30 29  1  0  0  0  0
 34 30  1  0  0  0  0
 36 35  2  0  0  0  0
 36 34  1  0  0  0  0
 37 38  1  0  0  0  0
 37 36  1  0  0  0  0
 39 40  1  0  0  0  0
 39 36  1  0  0  0  0
M  END
>  <minimizedAffinity>
-5.91679335

$$$$

 OpenBabel03242523273D

 40 42  0  0  1  0  0  0  0  0999 V2000
   37.7020   30.1280   41.6450 C   0  0  0  0  0  0  0  0  0  0  0  0
   36.9850   29.0620   42.0150 C   0  0  0  0  0  0  0  0  0  0  0  0
   35.8770   28.8240   41.2380 C   0  0  0  0  0  0  0  0  0  0  0  0
   35.6140   29.6970   40.1680 N   0  0  0  0  0  0  0  0  0  0  0  0
   36.3640   30.7320   39.8630 C   0  0  0  0  0  0  0  0  0  0  0  0
   37.4860   30.9990   40.6210 N   0  0  0  0  0  0  0  0  0  0  0  0
   35.1780   28.0040   41.3810 H   0  0  0  0  0  0  0  0  0  0  0  0
   36.0300   31.3130   39.0110 H   0  0  0  0  0  0  0  0  0  0  0  0
   37.1860   28.2450   43.1820 C   0  0  1  0  0  0  0  0  0  0  0  0
   36.5910   27.0670   43.4630 C   0  0  0  0  0  0  0  0  0  0  0  0
   37.9870   26.8850   42.9240 C   0  0  1  0  0  0  0  0  0  0  0  0
   37.7850   28.8330   43.9550 H   0  0  0  0  0  0  0  0  0  0  0  0
   35.7690   26.6360   42.8230 H   0  0  0  0  0  0  0  0  0  0  0  0
   36.4690   26.6520   44.5030 H   0  0  0  0  0  0  0  0  0  0  0  0
   38.7890   26.6610   43.6410 H   0  0  0  0  0  0  0  0  0  0  0  0
   38.1020   26.5480   41.5570 N   0  0  0  0  0  0  0  0  0  0  0  0
   38.7020   27.0580   40.8680 H   0  0  0  0  0  0  0  0  0  0  0  0
   37.4390   25.5130   40.9150 C   0  0  0  0  0  2  0  0  0  0  0  0
   36.7450   24.6490   40.3030 C   0  0  0  0  0  2  0  0  0  0  0  0
   36.7160   23.2280   39.9030 C   0  0  0  0  0  2  0  0  0  0  0  0
   37.1770   23.0810   38.9100 H   0  0  0  0  0  0  0  0  0  0  0  0
   38.9810   30.5760   42.2670 C   0  0  0  0  0  0  0  0  0  0  0  0
   39.6560   31.0260   43.1420 O   0  0  0  0  0  0  0  0  0  0  0  0
   40.0930   33.0160   40.7170 Cl  0  0  0  0  0  0  0  0  0  0  0  0
   40.6760   31.3820   40.4710 C   0  0  0  0  0  0  0  0  0  0  0  0
   40.0870   30.3630   41.2570 C   0  0  0  0  0  0  0  0  0  0  0  0
   40.6390   29.1430   40.9710 C   0  0  0  0  0  0  0  0  0  0  0  0
   41.5850   28.8030   40.1170 C   0  0  0  0  0  0  0  0  0  0  0  0
   42.1230   29.8370   39.3760 C   0  0  0  0  0  0  0  0  0  0  0  0
   41.6930   31.1020   39.5330 C   0  0  0  0  0  0  0  0  0  0  0  0
   40.2460   28.2720   41.5560 H   0  0  0  0  0  0  0  0  0  0  0  0
   41.9580   27.7850   39.9650 H   0  0  0  0  0  0  0  0  0  0  0  0
   42.9180   29.5800   38.6510 H   0  0  0  0  0  0  0  0  0  0  0  0
   42.2950   32.0510   38.7480 O   0  0  0  0  0  0  0  0  0  0  0  0
   42.7570   31.4080   36.2450 O   0  0  0  0  0  0  0  0  0  0  0  0
   42.0410   32.4140   37.1090 P   0  0  0  0  0  0  0  0  0  0  0  0
   40.3740   32.4160   36.7980 O   0  0  0  0  0  0  0  0  0  0  0  0
   40.0490   31.4810   36.7480 H   0  0  0  0  0  0  0  0  0  0  0  0
   42.5920   33.9790   36.7260 O   0  0  0  0  0  0  0  0  0  0  0  0
   42.8950   34.4280   37.5530 H   0  0  0  0  0  0  0  0  0  0  0  0
  1  2  1  0  0  0  0
  1 22  1  0  0  0  0
  2  9  1  0  0  0  0
  3  7  1  0  0  0  0
  3  2  2  0  0  0  0
  4  3  1  0  0  0  0
  5  4  2  0  0  0  0
  5  6  1  0  0  0  0
  6  1  2  0  0  0  0
  8  5  1  0  0  0  0
  9 10  1  0  0  0  0
  9 12  1  1  0  0  0
 10 14  1  0  0  0  0
 11  9  1  0  0  0  0
 11 10  1  0  0  0  0
 11 15  1  1  0  0  0
 13 10  1  0  0  0  0
 16 11  1  0  0  0  0
 17 16  1  0  0  0  0
 18 16  1  0  0  0  0
 19 18  1  0  0  0  0
 20 19  1  0  0  0  0
 21 20  1  0  0  0  0
 22 23  2  0  0  0  0
 25 24  1  0  0  0  0
 25 26  1  0  0  0  0
 26 22  1  0  0  0  0
 27 26  2  0  0  0  0
 27 31  1  0  0  0  0
 28 27  1  0  0  0  0
 29 30  1  0  0  0  0
 29 28  2  0  0  0  0
 30 25  2  0  0  0  0
 32 28  1  0  0  0  0
 33 29  1  0  0  0  0
 34 30  1  0  0  0  0
 35 36  2  0  0  0  0
 36 34  1  0  0  0  0
 37 36  1  0  0  0  0
 38 37  1  0  0  0  0
 39 36  1  0  0  0  0
 39 40  1  0  0  0  0
M  END
>  <minimizedAffinity>
-5.77466106

$$$$

 OpenBabel03242523273D

 40 42  0  0  1  0  0  0  0  0999 V2000
   39.0640   26.4480   41.6900 C   0  0  0  0  0  0  0  0  0  0  0  0
   39.0360   25.1400   41.4120 C   0  0  0  0  0  0  0  0  0  0  0  0
   40.0720   24.7030   40.6230 C   0  0  0  0  0  0  0  0  0  0  0  0
   41.0270   25.6430   40.1970 N   0  0  0  0  0  0  0  0  0  0  0  0
   40.9910   26.9190   40.5080 C   0  0  0  0  0  0  0  0  0  0  0  0
   39.9650   27.3920   41.3010 N   0  0  0  0  0  0  0  0  0  0  0  0
   40.2200   23.6760   40.2970 H   0  0  0  0  0  0  0  0  0  0  0  0
   41.7970   27.5190   40.1020 H   0  0  0  0  0  0  0  0  0  0  0  0
   37.9930   24.2070   41.7440 C   0  0  1  0  0  0  0  0  0  0  0  0
   36.6650   24.4460   41.7730 C   0  0  0  0  0  0  0  0  0  0  0  0
   37.0880   23.7390   40.5100 C   0  0  1  0  0  0  0  0  0  0  0  0
   38.4580   23.2610   42.1820 H   0  0  0  0  0  0  0  0  0  0  0  0
   36.2330   25.4770   41.6250 H   0  0  0  0  0  0  0  0  0  0  0  0
   35.9270   23.8490   42.3790 H   0  0  0  0  0  0  0  0  0  0  0  0
   36.9000   22.6590   40.4400 H   0  0  0  0  0  0  0  0  0  0  0  0
   37.2500   24.5390   39.3570 N   0  0  0  0  0  0  0  0  0  0  0  0
   38.1670   24.8990   39.0090 H   0  0  0  0  0  0  0  0  0  0  0  0
   36.2340   24.9780   38.5220 C   0  0  0  0  0  2  0  0  0  0  0  0
   35.3140   25.2690   37.7030 C   0  0  0  0  0  2  0  0  0  0  0  0
   34.3730   26.3410   37.3180 C   0  0  0  0  0  2  0  0  0  0  0  0
   33.4130   26.2460   37.8560 H   0  0  0  0  0  0  0  0  0  0  0  0
   38.1060   27.1720   42.5730 C   0  0  0  0  0  0  0  0  0  0  0  0
   37.5750   27.4250   43.6120 O   0  0  0  0  0  0  0  0  0  0  0  0
   38.7270   30.1920   42.8610 Cl  0  0  0  0  0  0  0  0  0  0  0  0
   37.5180   29.5670   41.7560 C   0  0  0  0  0  0  0  0  0  0  0  0
   37.3470   28.1620   41.7180 C   0  0  0  0  0  0  0  0  0  0  0  0
   36.3830   27.8120   40.8120 C   0  0  0  0  0  0  0  0  0  0  0  0
   35.6350   28.5540   40.0170 C   0  0  0  0  0  0  0  0  0  0  0  0
   35.8440   29.9160   40.0970 C   0  0  0  0  0  0  0  0  0  0  0  0
   36.7580   30.4310   40.9400 C   0  0  0  0  0  0  0  0  0  0  0  0
   36.1850   26.7150   40.6980 H   0  0  0  0  0  0  0  0  0  0  0  0
   34.8840   28.1670   39.3200 H   0  0  0  0  0  0  0  0  0  0  0  0
   35.2290   30.5620   39.4420 H   0  0  0  0  0  0  0  0  0  0  0  0
   36.8840   31.7960   40.9400 O   0  0  0  0  0  0  0  0  0  0  0  0
   39.1420   31.9040   39.6040 O   0  0  0  0  0  0  0  0  0  0  0  0
   38.0610   32.7700   40.1970 P   0  0  0  0  0  0  0  0  0  0  0  0
   37.3150   33.7220   39.0100 O   0  0  0  0  0  0  0  0  0  0  0  0
   37.1260   33.1640   38.2130 H   0  0  0  0  0  0  0  0  0  0  0  0
   38.7560   33.8600   41.3060 O   0  0  0  0  0  0  0  0  0  0  0  0
   38.2910   33.7790   42.1740 H   0  0  0  0  0  0  0  0  0  0  0  0
  1 22  1  0  0  0  0
  2  1  1  0  0  0  0
  2  9  1  0  0  0  0
  3  2  2  0  0  0  0
  4  5  2  0  0  0  0
  4  3  1  0  0  0  0
  5  6  1  0  0  0  0
  6  1  2  0  0  0  0
  7  3  1  0  0  0  0
  8  5  1  0  0  0  0
  9 10  1  0  0  0  0
  9 12  1  1  0  0  0
 10 14  1  0  0  0  0
 11 15  1  6  0  0  0
 11  9  1  0  0  0  0
 11 10  1  0  0  0  0
 13 10  1  0  0  0  0
 16 11  1  0  0  0  0
 17 16  1  0  0  0  0
 18 16  1  0  0  0  0
 19 18  1  0  0  0  0
 20 19  1  0  0  0  0
 20 21  1  0  0  0  0
 22 23  2  0  0  0  0
 25 24  1  0  0  0  0
 26 25  1  0  0  0  0
 26 22  1  0  0  0  0
 27 26  2  0  0  0  0
 28 29  2  0  0  0  0
 28 27  1  0  0  0  0
 29 30  1  0  0  0  0
 30 25  2  0  0  0  0
 31 27  1  0  0  0  0
 32 28  1  0  0  0  0
 33 29  1  0  0  0  0
 34 30  1  0  0  0  0
 35 36  2  0  0  0  0
 36 34  1  0  0  0  0
 36 39  1  0  0  0  0
 37 36  1  0  0  0  0
 38 37  1  0  0  0  0
 39 40  1  0  0  0  0
M  END
>  <minimizedAffinity>
-5.6976738

$$$$

 OpenBabel03242523273D

 40 42  0  0  1  0  0  0  0  0999 V2000
   41.4240   31.1930   40.7040 C   0  0  0  0  0  0  0  0  0  0  0  0
   40.6610   32.0750   40.0480 C   0  0  0  0  0  0  0  0  0  0  0  0
   40.7450   31.9940   38.6800 C   0  0  0  0  0  0  0  0  0  0  0  0
   41.5980   31.0250   38.1220 N   0  0  0  0  0  0  0  0  0  0  0  0
   42.3230   30.1900   38.8290 C   0  0  0  0  0  0  0  0  0  0  0  0
   42.2620   30.2420   40.2070 N   0  0  0  0  0  0  0  0  0  0  0  0
   40.1980   32.6220   37.9810 H   0  0  0  0  0  0  0  0  0  0  0  0
   42.9340   29.5030   38.2550 H   0  0  0  0  0  0  0  0  0  0  0  0
   39.8880   33.1440   40.6200 C   0  0  1  0  0  0  0  0  0  0  0  0
   39.2320   34.1200   39.9570 C   0  0  0  0  0  0  0  0  0  0  0  0
   38.3060   33.0200   40.4110 C   0  0  1  0  0  0  0  0  0  0  0  0
   40.0640   33.1770   41.7470 H   0  0  0  0  0  0  0  0  0  0  0  0
   39.3110   34.2500   38.8400 H   0  0  0  0  0  0  0  0  0  0  0  0
   38.9680   35.1200   40.4010 H   0  0  0  0  0  0  0  0  0  0  0  0
   37.6920   33.2020   41.3040 H   0  0  0  0  0  0  0  0  0  0  0  0
   37.9390   32.0570   39.4440 N   0  0  0  0  0  0  0  0  0  0  0  0
   38.3530   31.9910   38.4860 H   0  0  0  0  0  0  0  0  0  0  0  0
   36.9800   31.0690   39.6030 C   0  0  0  0  0  2  0  0  0  0  0  0
   36.0860   30.1730   39.6250 C   0  0  0  0  0  2  0  0  0  0  0  0
   35.3460   29.2680   40.5280 C   0  0  0  0  0  2  0  0  0  0  0  0
   35.8600   28.2960   40.6320 H   0  0  0  0  0  0  0  0  0  0  0  0
   41.4770   31.0170   42.1830 C   0  0  0  0  0  0  0  0  0  0  0  0
   41.8750   31.2490   43.2840 O   0  0  0  0  0  0  0  0  0  0  0  0
   42.5150   28.2370   43.0700 Cl  0  0  0  0  0  0  0  0  0  0  0  0
   40.8090   28.6310   42.9650 C   0  0  0  0  0  0  0  0  0  0  0  0
   40.4770   29.9460   42.5570 C   0  0  0  0  0  0  0  0  0  0  0  0
   39.1190   30.1190   42.5280 C   0  0  0  0  0  0  0  0  0  0  0  0
   38.1360   29.2850   42.8080 C   0  0  0  0  0  0  0  0  0  0  0  0
   38.5190   28.0180   43.1990 C   0  0  0  0  0  0  0  0  0  0  0  0
   39.8180   27.6780   43.2820 C   0  0  0  0  0  0  0  0  0  0  0  0
   38.7570   31.1370   42.2300 H   0  0  0  0  0  0  0  0  0  0  0  0
   37.0700   29.5290   42.7510 H   0  0  0  0  0  0  0  0  0  0  0  0
   37.7140   27.2970   43.4380 H   0  0  0  0  0  0  0  0  0  0  0  0
   40.0880   26.3950   43.6800 O   0  0  0  0  0  0  0  0  0  0  0  0
   40.1670   25.2870   41.3010 O   0  0  0  0  0  0  0  0  0  0  0  0
   40.5170   25.0430   42.7460 P   0  0  0  0  0  0  0  0  0  0  0  0
   42.1760   24.7500   42.9350 O   0  0  0  0  0  0  0  0  0  0  0  0
   42.6890   25.4100   42.4020 H   0  0  0  0  0  0  0  0  0  0  0  0
   39.7270   23.6350   43.2880 O   0  0  0  0  0  0  0  0  0  0  0  0
   39.2120   23.8470   44.1040 H   0  0  0  0  0  0  0  0  0  0  0  0
  1 22  1  0  0  0  0
  2  9  1  0  0  0  0
  2  1  2  0  0  0  0
  3  2  1  0  0  0  0
  4  3  2  0  0  0  0
  4  5  1  0  0  0  0
  5  6  2  0  0  0  0
  6  1  1  0  0  0  0
  7  3  1  0  0  0  0
  8  5  1  0  0  0  0
  9 12  1  1  0  0  0
 10 14  1  0  0  0  0
 10 11  1  0  0  0  0
 10  9  1  0  0  0  0
 11  9  1  0  0  0  0
 11 15  1  1  0  0  0
 13 10  1  0  0  0  0
 16 18  1  0  0  0  0
 16 11  1  0  0  0  0
 17 16  1  0  0  0  0
 18 19  1  0  0  0  0
 19 20  1  0  0  0  0
 20 21  1  0  0  0  0
 22 26  1  0  0  0  0
 22 23  2  0  0  0  0
 25 24  1  0  0  0  0
 25 30  1  0  0  0  0
 26 25  2  0  0  0  0
 27 26  1  0  0  0  0
 27 28  2  0  0  0  0
 28 29  1  0  0  0  0
 29 30  2  0  0  0  0
 29 33  1  0  0  0  0
 30 34  1  0  0  0  0
 31 27  1  0  0  0  0
 32 28  1  0  0  0  0
 35 36  2  0  0  0  0
 36 37  1  0  0  0  0
 36 39  1  0  0  0  0
 36 34  1  0  0  0  0
 38 37  1  0  0  0  0
 39 40  1  0  0  0  0
M  END
>  <minimizedAffinity>
-5.66438961

$$$$

 OpenBabel03242523273D

 40 42  0  0  1  0  0  0  0  0999 V2000
   36.9840   27.4050   39.8710 C   0  0  0  0  0  0  0  0  0  0  0  0
   37.1930   27.1950   41.1760 C   0  0  0  0  0  0  0  0  0  0  0  0
   38.1210   26.2200   41.4530 C   0  0  0  0  0  0  0  0  0  0  0  0
   38.7350   25.5590   40.3750 N   0  0  0  0  0  0  0  0  0  0  0  0
   38.4780   25.8160   39.1130 C   0  0  0  0  0  0  0  0  0  0  0  0
   37.5540   26.7910   38.7970 N   0  0  0  0  0  0  0  0  0  0  0  0
   38.4250   25.9130   42.4510 H   0  0  0  0  0  0  0  0  0  0  0  0
   39.0310   25.2210   38.3950 H   0  0  0  0  0  0  0  0  0  0  0  0
   36.4740   27.7830   42.2740 C   0  0  1  0  0  0  0  0  0  0  0  0
   36.6320   27.5140   43.5870 C   0  0  0  0  0  0  0  0  0  0  0  0
   37.3280   28.7880   43.1790 C   0  0  1  0  0  0  0  0  0  0  0  0
   35.5910   28.3820   41.8690 H   0  0  0  0  0  0  0  0  0  0  0  0
   37.3090   26.6940   43.9600 H   0  0  0  0  0  0  0  0  0  0  0  0
   35.8380   27.6840   44.3670 H   0  0  0  0  0  0  0  0  0  0  0  0
   36.8400   29.7400   43.4240 H   0  0  0  0  0  0  0  0  0  0  0  0
   38.7200   28.7060   42.9530 N   0  0  0  0  0  0  0  0  0  0  0  0
   39.2730   27.8180   42.9670 H   0  0  0  0  0  0  0  0  0  0  0  0
   39.5660   29.7730   42.6900 C   0  0  0  0  0  2  0  0  0  0  0  0
   40.2440   30.8000   42.3910 C   0  0  0  0  0  2  0  0  0  0  0  0
   41.5820   31.4110   42.5270 C   0  0  0  0  0  2  0  0  0  0  0  0
   41.6480   32.0350   43.4350 H   0  0  0  0  0  0  0  0  0  0  0  0
   36.0860   28.4430   39.2890 C   0  0  0  0  0  0  0  0  0  0  0  0
   35.0790   28.8390   38.7840 O   0  0  0  0  0  0  0  0  0  0  0  0
   38.0410   29.1760   37.0020 Cl  0  0  0  0  0  0  0  0  0  0  0  0
   37.7420   30.2230   38.3760 C   0  0  0  0  0  0  0  0  0  0  0  0
   36.8130   29.7670   39.3420 C   0  0  0  0  0  0  0  0  0  0  0  0
   36.6690   30.6810   40.3510 C   0  0  0  0  0  0  0  0  0  0  0  0
   37.2400   31.8560   40.5400 C   0  0  0  0  0  0  0  0  0  0  0  0
   38.1380   32.2490   39.5680 C   0  0  0  0  0  0  0  0  0  0  0  0
   38.3980   31.4660   38.5040 C   0  0  0  0  0  0  0  0  0  0  0  0
   35.9400   30.4160   41.1600 H   0  0  0  0  0  0  0  0  0  0  0  0
   37.0510   32.5160   41.3930 H   0  0  0  0  0  0  0  0  0  0  0  0
   38.6320   33.2290   39.7010 H   0  0  0  0  0  0  0  0  0  0  0  0
   39.3040   31.9520   37.5980 O   0  0  0  0  0  0  0  0  0  0  0  0
   41.4930   31.5580   38.9930 O   0  0  0  0  0  0  0  0  0  0  0  0
   40.9980   31.8310   37.5970 P   0  0  0  0  0  0  0  0  0  0  0  0
   41.4600   30.5980   36.5290 O   0  0  0  0  0  0  0  0  0  0  0  0
   41.2940   29.7170   36.9530 H   0  0  0  0  0  0  0  0  0  0  0  0
   41.7230   33.2560   37.0100 O   0  0  0  0  0  0  0  0  0  0  0  0
   41.0180   33.8760   36.7030 H   0  0  0  0  0  0  0  0  0  0  0  0
  1  2  1  0  0  0  0
  2  3  2  0  0  0  0
  2  9  1  0  0  0  0
  3  7  1  0  0  0  0
  4  3  1  0  0  0  0
  5  4  2  0  0  0  0
  6  5  1  0  0  0  0
  6  1  2  0  0  0  0
  8  5  1  0  0  0  0
  9 12  1  6  0  0  0
  9 11  1  0  0  0  0
  9 10  1  0  0  0  0
 10 13  1  0  0  0  0
 10 14  1  0  0  0  0
 11 15  1  1  0  0  0
 11 10  1  0  0  0  0
 16 17  1  0  0  0  0
 16 11  1  0  0  0  0
 18 16  1  0  0  0  0
 19 20  1  0  0  0  0
 19 18  1  0  0  0  0
 20 21  1  0  0  0  0
 22 26  1  0  0  0  0
 22  1  1  0  0  0  0
 23 22  2  0  0  0  0
 24 25  1  0  0  0  0
 25 30  2  0  0  0  0
 25 26  1  0  0  0  0
 26 27  2  0  0  0  0
 27 28  1  0  0  0  0
 27 31  1  0  0  0  0
 28 32  1  0  0  0  0
 29 33  1  0  0  0  0
 29 28  2  0  0  0  0
 30 29  1  0  0  0  0
 34 30  1  0  0  0  0
 36 34  1  0  0  0  0
 36 35  2  0  0  0  0
 37 38  1  0  0  0  0
 37 36  1  0  0  0  0
 39 36  1  0  0  0  0
 40 39  1  0  0  0  0
M  END
>  <minimizedAffinity>
-5.59648657

$$$$

 OpenBabel03242523273D

 40 42  0  0  1  0  0  0  0  0999 V2000
   36.5740   30.7570   39.6800 C   0  0  0  0  0  0  0  0  0  0  0  0
   36.8480   30.7680   38.3710 C   0  0  0  0  0  0  0  0  0  0  0  0
   37.4910   31.9000   37.9330 C   0  0  0  0  0  0  0  0  0  0  0  0
   37.7840   32.9050   38.8720 N   0  0  0  0  0  0  0  0  0  0  0  0
   37.4810   32.8280   40.1480 C   0  0  0  0  0  0  0  0  0  0  0  0
   36.8370   31.7030   40.6230 N   0  0  0  0  0  0  0  0  0  0  0  0
   37.7980   32.0880   36.9070 H   0  0  0  0  0  0  0  0  0  0  0  0
   37.7700   33.6840   40.7470 H   0  0  0  0  0  0  0  0  0  0  0  0
   36.4370   29.7970   37.3920 C   0  0  1  0  0  0  0  0  0  0  0  0
   36.7250   29.7990   36.0730 C   0  0  0  0  0  0  0  0  0  0  0  0
   37.6070   28.8510   36.8460 C   0  0  1  0  0  0  0  0  0  0  0  0
   35.6500   29.1090   37.8500 H   0  0  0  0  0  0  0  0  0  0  0  0
   37.2620   30.6540   35.5720 H   0  0  0  0  0  0  0  0  0  0  0  0
   36.1070   29.2760   35.2900 H   0  0  0  0  0  0  0  0  0  0  0  0
   37.3710   27.7800   36.8030 H   0  0  0  0  0  0  0  0  0  0  0  0
   38.9020   29.3110   37.1730 N   0  0  0  0  0  0  0  0  0  0  0  0
   39.3350   30.1840   36.7930 H   0  0  0  0  0  0  0  0  0  0  0  0
   39.7980   28.6840   38.0250 C   0  0  0  0  0  2  0  0  0  0  0  0
   40.5770   28.0050   38.7560 C   0  0  0  0  0  2  0  0  0  0  0  0
   41.6050   28.1200   39.8110 C   0  0  0  0  0  2  0  0  0  0  0  0
   42.6170   28.2060   39.3780 H   0  0  0  0  0  0  0  0  0  0  0  0
   35.9460   29.6320   40.4290 C   0  0  0  0  0  0  0  0  0  0  0  0
   35.0380   28.9350   40.7690 O   0  0  0  0  0  0  0  0  0  0  0  0
   36.9850   26.8630   39.5090 Cl  0  0  0  0  0  0  0  0  0  0  0  0
   37.5850   27.6820   40.9380 C   0  0  0  0  0  0  0  0  0  0  0  0
   37.0290   28.9500   41.2340 C   0  0  0  0  0  0  0  0  0  0  0  0
   37.5910   29.4780   42.3650 C   0  0  0  0  0  0  0  0  0  0  0  0
   38.5210   29.0010   43.1700 C   0  0  0  0  0  0  0  0  0  0  0  0
   39.0270   27.7610   42.8340 C   0  0  0  0  0  0  0  0  0  0  0  0
   38.5830   27.1000   41.7490 C   0  0  0  0  0  0  0  0  0  0  0  0
   37.2250   30.4910   42.6740 H   0  0  0  0  0  0  0  0  0  0  0  0
   38.9040   29.5120   44.0600 H   0  0  0  0  0  0  0  0  0  0  0  0
   39.8070   27.3370   43.4930 H   0  0  0  0  0  0  0  0  0  0  0  0
   39.1520   25.8780   41.5060 O   0  0  0  0  0  0  0  0  0  0  0  0
   38.7780   23.4110   40.6880 O   0  0  0  0  0  0  0  0  0  0  0  0
   38.5680   24.3250   41.8680 P   0  0  0  0  0  0  0  0  0  0  0  0
   39.3680   23.7440   43.2450 O   0  0  0  0  0  0  0  0  0  0  0  0
   40.2820   23.4540   42.9960 H   0  0  0  0  0  0  0  0  0  0  0  0
   36.9120   24.3600   42.2660 O   0  0  0  0  0  0  0  0  0  0  0  0
   36.6040   25.2980   42.2880 H   0  0  0  0  0  0  0  0  0  0  0  0
  1 22  1  0  0  0  0
  1  6  1  0  0  0  0
  2  1  2  0  0  0  0
  3  2  1  0  0  0  0
  3  4  2  0  0  0  0
  4  5  1  0  0  0  0
  5  6  2  0  0  0  0
  5  8  1  0  0  0  0
  7  3  1  0  0  0  0
  9 12  1  1  0  0  0
  9  2  1  0  0  0  0
 10 11  1  0  0  0  0
 10  9  1  0  0  0  0
 11 15  1  6  0  0  0
 11 16  1  0  0  0  0
 11  9  1  0  0  0  0
 13 10  1  0  0  0  0
 14 10  1  0  0  0  0
 16 18  1  0  0  0  0
 17 16  1  0  0  0  0
 18 19  1  0  0  0  0
 19 20  1  0  0  0  0
 21 20  1  0  0  0  0
 22 23  2  0  0  0  0
 22 26  1  0  0  0  0
 24 25  1  0  0  0  0
 25 26  2  0  0  0  0
 25 30  1  0  0  0  0
 26 27  1  0  0  0  0
 27 31  1  0  0  0  0
 27 28  2  0  0  0  0
 28 32  1  0  0  0  0
 29 28  1  0  0  0  0
 29 33  1  0  0  0  0
 30 29  2  0  0  0  0
 34 30  1  0  0  0  0
 34 36  1  0  0  0  0
 35 36  2  0  0  0  0
 36 39  1  0  0  0  0
 36 37  1  0  0  0  0
 38 37  1  0  0  0  0
 39 40  1  0  0  0  0
M  END
>  <minimizedAffinity>
-5.56731176

$$$$

 OpenBabel03242523273D

 40 42  0  0  1  0  0  0  0  0999 V2000
   37.0900   28.5100   41.3700 C   0  0  0  0  0  0  0  0  0  0  0  0
   37.4800   27.7580   40.3340 C   0  0  0  0  0  0  0  0  0  0  0  0
   37.5600   26.4140   40.6060 C   0  0  0  0  0  0  0  0  0  0  0  0
   37.2380   25.9760   41.9020 N   0  0  0  0  0  0  0  0  0  0  0  0
   36.8640   26.7740   42.8760 C   0  0  0  0  0  0  0  0  0  0  0  0
   36.7710   28.1300   42.6380 N   0  0  0  0  0  0  0  0  0  0  0  0
   37.8530   25.6480   39.8910 H   0  0  0  0  0  0  0  0  0  0  0  0
   36.6520   26.2880   43.8210 H   0  0  0  0  0  0  0  0  0  0  0  0
   37.9270   28.2210   39.0480 C   0  0  1  0  0  0  0  0  0  0  0  0
   37.8360   27.5670   37.8710 C   0  0  0  0  0  0  0  0  0  0  0  0
   36.7590   28.6110   38.0270 C   0  0  1  0  0  0  0  0  0  0  0  0
   38.5650   29.1580   39.1850 H   0  0  0  0  0  0  0  0  0  0  0  0
   37.4680   26.5040   37.7960 H   0  0  0  0  0  0  0  0  0  0  0  0
   38.5040   27.7620   36.9860 H   0  0  0  0  0  0  0  0  0  0  0  0
   36.8880   29.5640   37.4980 H   0  0  0  0  0  0  0  0  0  0  0  0
   35.4840   28.1530   38.4280 N   0  0  0  0  0  0  0  0  0  0  0  0
   35.3090   27.5250   39.2460 H   0  0  0  0  0  0  0  0  0  0  0  0
   34.2810   28.4480   37.8050 C   0  0  0  0  0  2  0  0  0  0  0  0
   33.1320   28.6260   37.3030 C   0  0  0  0  0  2  0  0  0  0  0  0
   32.3830   29.4570   36.3390 C   0  0  0  0  0  2  0  0  0  0  0  0
   31.9440   30.3440   36.8290 H   0  0  0  0  0  0  0  0  0  0  0  0
   36.8560   29.9820   41.3390 C   0  0  0  0  0  0  0  0  0  0  0  0
   36.1830   30.9670   41.3160 O   0  0  0  0  0  0  0  0  0  0  0  0
   37.5410   31.9050   39.0100 Cl  0  0  0  0  0  0  0  0  0  0  0  0
   38.6550   31.5540   40.3180 C   0  0  0  0  0  0  0  0  0  0  0  0
   38.2050   30.6650   41.3240 C   0  0  0  0  0  0  0  0  0  0  0  0
   39.1660   30.4870   42.2830 C   0  0  0  0  0  0  0  0  0  0  0  0
   40.3780   30.9950   42.3960 C   0  0  0  0  0  0  0  0  0  0  0  0
   40.7640   31.8540   41.3860 C   0  0  0  0  0  0  0  0  0  0  0  0
   39.9380   32.1400   40.3620 C   0  0  0  0  0  0  0  0  0  0  0  0
   38.8960   29.8090   43.1340 H   0  0  0  0  0  0  0  0  0  0  0  0
   41.0740   30.7840   43.2150 H   0  0  0  0  0  0  0  0  0  0  0  0
   41.7760   32.2940   41.4550 H   0  0  0  0  0  0  0  0  0  0  0  0
   40.4200   33.0040   39.4150 O   0  0  0  0  0  0  0  0  0  0  0  0
   41.9800   33.8340   37.4730 O   0  0  0  0  0  0  0  0  0  0  0  0
   41.1320   32.6680   37.9100 P   0  0  0  0  0  0  0  0  0  0  0  0
   42.0550   31.2520   38.0440 O   0  0  0  0  0  0  0  0  0  0  0  0
   42.9030   31.4560   38.5150 H   0  0  0  0  0  0  0  0  0  0  0  0
   39.9550   32.3510   36.7220 O   0  0  0  0  0  0  0  0  0  0  0  0
   39.0610   32.3460   37.1440 H   0  0  0  0  0  0  0  0  0  0  0  0
  1  6  1  0  0  0  0
  2  3  1  0  0  0  0
  2  1  2  0  0  0  0
  3  4  2  0  0  0  0
  4  5  1  0  0  0  0
  5  8  1  0  0  0  0
  6  5  2  0  0  0  0
  7  3  1  0  0  0  0
  9 12  1  1  0  0  0
  9  2  1  0  0  0  0
 10 11  1  0  0  0  0
 10  9  1  0  0  0  0
 11 15  1  6  0  0  0
 11 16  1  0  0  0  0
 11  9  1  0  0  0  0
 13 10  1  0  0  0  0
 14 10  1  0  0  0  0
 16 17  1  0  0  0  0
 18 16  1  0  0  0  0
 19 18  1  0  0  0  0
 20 21  1  0  0  0  0
 20 19  1  0  0  0  0
 22  1  1  0  0  0  0
 23 22  2  0  0  0  0
 24 25  1  0  0  0  0
 25 30  2  0  0  0  0
 25 26  1  0  0  0  0
 26 22  1  0  0  0  0
 26 27  2  0  0  0  0
 27 28  1  0  0  0  0
 27 31  1  0  0  0  0
 28 32  1  0  0  0  0
 29 33  1  0  0  0  0
 29 28  2  0  0  0  0
 30 29  1  0  0  0  0
 34 30  1  0  0  0  0
 35 36  2  0  0  0  0
 36 37  1  0  0  0  0
 36 34  1  0  0  0  0
 37 38  1  0  0  0  0
 39 40  1  0  0  0  0
 39 36  1  0  0  0  0
M  END
>  <minimizedAffinity>
-5.5520997

$$$$

 OpenBabel03242523273D

 40 42  0  0  1  0  0  0  0  0999 V2000
   36.7830   26.9980   40.7170 C   0  0  0  0  0  0  0  0  0  0  0  0
   37.0230   25.6980   40.5100 C   0  0  0  0  0  0  0  0  0  0  0  0
   36.9700   25.3120   39.1930 C   0  0  0  0  0  0  0  0  0  0  0  0
   36.6760   26.2880   38.2240 N   0  0  0  0  0  0  0  0  0  0  0  0
   36.4470   27.5510   38.5000 C   0  0  0  0  0  0  0  0  0  0  0  0
   36.4940   27.9750   39.8130 N   0  0  0  0  0  0  0  0  0  0  0  0
   37.1410   24.3010   38.8310 H   0  0  0  0  0  0  0  0  0  0  0  0
   36.2320   28.1820   37.6460 H   0  0  0  0  0  0  0  0  0  0  0  0
   37.2000   24.6810   41.5120 C   0  0  1  0  0  0  0  0  0  0  0  0
   37.7320   23.4530   41.3390 C   0  0  0  0  0  0  0  0  0  0  0  0
   38.7170   24.4190   41.9470 C   0  0  1  0  0  0  0  0  0  0  0  0
   36.6380   24.9820   42.4590 H   0  0  0  0  0  0  0  0  0  0  0  0
   38.0150   23.0530   40.3230 H   0  0  0  0  0  0  0  0  0  0  0  0
   37.5190   22.5720   42.0070 H   0  0  0  0  0  0  0  0  0  0  0  0
   38.8970   24.3550   43.0280 H   0  0  0  0  0  0  0  0  0  0  0  0
   39.6630   24.9980   41.0720 N   0  0  0  0  0  0  0  0  0  0  0  0
   39.4740   25.2460   40.0740 H   0  0  0  0  0  0  0  0  0  0  0  0
   40.9760   25.3130   41.3860 C   0  0  0  0  0  2  0  0  0  0  0  0
   42.1970   25.4800   41.6740 C   0  0  0  0  0  2  0  0  0  0  0  0
   43.2140   26.5170   41.9450 C   0  0  0  0  0  2  0  0  0  0  0  0
   43.7300   26.8260   41.0190 H   0  0  0  0  0  0  0  0  0  0  0  0
   36.8410   27.6970   42.0330 C   0  0  0  0  0  0  0  0  0  0  0  0
   36.4880   27.9250   43.1500 O   0  0  0  0  0  0  0  0  0  0  0  0
   36.2000   30.6420   41.3220 Cl  0  0  0  0  0  0  0  0  0  0  0  0
   37.8250   30.0700   41.6500 C   0  0  0  0  0  0  0  0  0  0  0  0
   37.9710   28.7000   41.9750 C   0  0  0  0  0  0  0  0  0  0  0  0
   39.2830   28.3920   42.2150 C   0  0  0  0  0  0  0  0  0  0  0  0
   40.3650   29.1460   42.1880 C   0  0  0  0  0  0  0  0  0  0  0  0
   40.1640   30.4730   41.8650 C   0  0  0  0  0  0  0  0  0  0  0  0
   38.9310   30.9440   41.5980 C   0  0  0  0  0  0  0  0  0  0  0  0
   39.4980   27.3290   42.4960 H   0  0  0  0  0  0  0  0  0  0  0  0
   41.3800   28.7950   42.4000 H   0  0  0  0  0  0  0  0  0  0  0  0
   41.0550   31.1270   41.8330 H   0  0  0  0  0  0  0  0  0  0  0  0
   38.8430   32.2760   41.2890 O   0  0  0  0  0  0  0  0  0  0  0  0
   38.4730   31.9750   38.7070 O   0  0  0  0  0  0  0  0  0  0  0  0
   38.5370   33.0180   39.7920 P   0  0  0  0  0  0  0  0  0  0  0  0
   37.0850   33.8870   39.8970 O   0  0  0  0  0  0  0  0  0  0  0  0
   36.3220   33.2560   39.8570 H   0  0  0  0  0  0  0  0  0  0  0  0
   39.7400   34.1600   39.4060 O   0  0  0  0  0  0  0  0  0  0  0  0
   40.3670   34.2390   40.1660 H   0  0  0  0  0  0  0  0  0  0  0  0
  1 22  1  0  0  0  0
  2  1  1  0  0  0  0
  2  9  1  0  0  0  0
  3  2  2  0  0  0  0
  4  5  2  0  0  0  0
  4  3  1  0  0  0  0
  5  6  1  0  0  0  0
  6  1  2  0  0  0  0
  7  3  1  0  0  0  0
  8  5  1  0  0  0  0
  9 11  1  0  0  0  0
  9 12  1  1  0  0  0
 10  9  1  0  0  0  0
 10 11  1  0  0  0  0
 10 14  1  0  0  0  0
 11 15  1  1  0  0  0
 13 10  1  0  0  0  0
 16 18  1  0  0  0  0
 16 11  1  0  0  0  0
 17 16  1  0  0  0  0
 18 19  1  0  0  0  0
 19 20  1  0  0  0  0
 21 20  1  0  0  0  0
 22 23  2  0  0  0  0
 24 25  1  0  0  0  0
 25 26  1  0  0  0  0
 26 22  1  0  0  0  0
 26 27  2  0  0  0  0
 27 31  1  0  0  0  0
 28 27  1  0  0  0  0
 28 32  1  0  0  0  0
 29 28  2  0  0  0  0
 30 25  2  0  0  0  0
 30 29  1  0  0  0  0
 33 29  1  0  0  0  0
 34 30  1  0  0  0  0
 35 36  2  0  0  0  0
 36 37  1  0  0  0  0
 36 34  1  0  0  0  0
 38 37  1  0  0  0  0
 39 36  1  0  0  0  0
 39 40  1  0  0  0  0
M  END
>  <minimizedAffinity>
-5.52011919

$$$$
