
 OpenBabel03252508053D

 35 37  0  0  0  0  0  0  0  0999 V2000
   46.3870   35.2870   42.6750 C   0  0  0  0  0  0  0  0  0  0  0  0
   46.4900   33.9430   43.0320 C   0  0  0  0  0  0  0  0  0  0  0  0
   45.7010   33.4460   44.0530 C   0  0  0  0  0  0  0  0  0  0  0  0
   44.8350   34.3150   44.6690 N   0  0  0  0  0  0  0  0  0  0  0  0
   44.7510   35.6010   44.3100 C   0  0  0  0  0  0  0  0  0  0  0  0
   45.5300   36.0720   43.3170 N   0  0  0  0  0  0  0  0  0  0  0  0
   46.9930   35.7090   41.8810 H   0  0  0  0  0  0  0  0  0  0  0  0
   44.0290   36.2170   44.8610 H   0  0  0  0  0  0  0  0  0  0  0  0
   45.7200   32.0970   44.5120 C   0  0  0  0  0  0  0  0  0  0  0  0
   45.2090   31.0050   43.8360 C   0  0  0  0  0  0  0  0  0  0  0  0
   45.1640   29.7340   44.3360 C   0  0  0  0  0  0  0  0  0  0  0  0
   45.6570   29.4830   45.6120 C   0  0  0  0  0  0  0  0  0  0  0  0
   46.1880   30.5920   46.3240 C   0  0  0  0  0  0  0  0  0  0  0  0
   46.6870   30.3460   47.5700 C   0  0  0  0  0  0  0  0  0  0  0  0
   47.2430   31.3710   48.3140 C   0  0  0  0  0  0  0  0  0  0  0  0
   47.2920   32.6570   47.7750 C   0  0  0  0  0  0  0  0  0  0  0  0
   46.7680   32.8770   46.4870 C   0  0  0  0  0  0  0  0  0  0  0  0
   46.2110   31.8330   45.7710 C   0  0  0  0  0  0  0  0  0  0  0  0
   44.8110   31.1020   42.8740 H   0  0  0  0  0  0  0  0  0  0  0  0
   44.7630   28.8860   43.7930 H   0  0  0  0  0  0  0  0  0  0  0  0
   45.6340   28.4960   46.0400 H   0  0  0  0  0  0  0  0  0  0  0  0
   46.6350   29.3240   47.9660 H   0  0  0  0  0  0  0  0  0  0  0  0
   47.6080   31.0620   49.3000 H   0  0  0  0  0  0  0  0  0  0  0  0
   47.7550   33.3150   48.4810 H   0  0  0  0  0  0  0  0  0  0  0  0
   46.9680   33.8850   46.3310 H   0  0  0  0  0  0  0  0  0  0  0  0
   47.3760   33.1830   42.3220 O   0  0  0  0  0  0  0  0  0  0  0  0
   48.1760   31.7170   40.2860 O   0  0  0  0  0  0  0  0  0  0  0  0
   47.1030   32.6570   40.7280 P   0  0  1  0  0  0  0  0  0  0  0  0
   45.6290   31.8260   40.6160 O   0  0  0  0  0  0  0  0  0  0  0  0
   45.4530   31.2620   41.4100 H   0  0  0  0  0  0  0  0  0  0  0  0
   47.0360   33.9970   39.7220 O   0  0  0  0  0  0  0  0  0  0  0  0
   48.2080   34.3740   39.0760 C   0  0  0  0  0  3  0  0  0  0  0  0
   48.3320   34.2130   37.7700 C   0  0  0  0  0  3  0  0  0  0  0  0
   47.2080   33.6260   36.9940 C   0  0  0  0  0  2  0  0  0  0  0  0
   47.5030   32.6680   36.5100 H   0  0  0  0  0  0  0  0  0  0  0  0
  1  2  2  0  0  0  0
  1  6  1  0  0  0  0
  2  3  1  0  0  0  0
  3  9  1  0  0  0  0
  3  4  2  0  0  0  0
  5  4  1  0  0  0  0
  5  8  1  0  0  0  0
  6  5  2  0  0  0  0
  7  1  1  0  0  0  0
  9 18  1  0  0  0  0
 10 11  1  0  0  0  0
 10  9  2  0  0  0  0
 11 12  2  0  0  0  0
 12 21  1  0  0  0  0
 12 13  1  0  0  0  0
 13 14  1  0  0  0  0
 14 22  1  0  0  0  0
 14 15  2  0  0  0  0
 15 23  1  0  0  0  0
 16 15  1  0  0  0  0
 16 24  1  0  0  0  0
 17 16  2  0  0  0  0
 18 13  2  0  0  0  0
 18 17  1  0  0  0  0
 19 10  1  0  0  0  0
 20 11  1  0  0  0  0
 25 17  1  0  0  0  0
 26  2  1  0  0  0  0
 28 27  2  6  0  0  0
 28 26  1  0  0  0  0
 29 28  1  0  0  0  0
 29 30  1  0  0  0  0
 31 28  1  0  0  0  0
 32 31  1  0  0  0  0
 33 32  2  0  0  0  0
 34 33  1  0  0  0  0
 35 34  1  0  0  0  0
M  END
>  <minimizedAffinity>
-4.76386547

>  <minimizedRMSD>
3.14733124

$$$$
