REMARK  Name = 
REMARK  6 active torsions:
REMARK  status: ('A' for Active; 'I' for Inactive)
REMARK    1  A    between atoms: C_3  and  C_14
REMARK    2  A    between atoms: C_5  and  C_7
REMARK    3  A    between atoms: C_12  and  N_13
REMARK    4  A    between atoms: C_18  and  O_20
REMARK    5  A    between atoms: O_20  and  C_36
REMARK    6  A    between atoms: C_37  and  C_38
REMARK                            x       y       z     vdW  Elec       q    Type
REMARK                         _______ _______ _______ _____ _____    ______ ____
ROOT
ATOM      1  C   UNL     1      44.569  35.584  44.613  0.00  0.00    +0.000 A 
ATOM      2  C   UNL     1      45.225  35.595  43.365  0.00  0.00    +0.000 A 
ATOM      3  C   UNL     1      46.318  34.687  43.179  0.00  0.00    +0.000 A 
ATOM      4  N   UNL     1      46.665  33.871  44.203  0.00  0.00    +0.000 NA
ATOM      5  C   UNL     1      46.017  33.890  45.374  0.00  0.00    +0.000 A 
ATOM      6  N   UNL     1      44.962  34.749  45.589  0.00  0.00    +0.000 NA
ATOM      7  H   UNL     1      43.744  36.248  44.798  0.00  0.00    +0.000 HD
ATOM      8  H   UNL     1      44.909  36.269  42.577  0.00  0.00    +0.000 HD
ENDROOT
BRANCH   5   9
ATOM      9  C   UNL     1      46.440  32.977  46.472  0.00  0.00    +0.000 C 
ATOM     10  C   UNL     1      46.967  31.744  45.766  0.00  0.00    +0.000 C 
ATOM     11  C   UNL     1      46.099  30.562  45.781  0.00  0.00    +0.000 C 
ATOM     12  C   UNL     1      45.821  30.301  47.263  0.00  0.00    +0.000 C 
ATOM     13  C   UNL     1      45.006  31.362  47.879  0.00  0.00    +0.000 C 
ATOM     14  C   UNL     1      45.390  32.727  47.414  0.00  0.00    +0.000 C 
ATOM     15  H   UNL     1      47.300  33.483  46.959  0.00  0.00    +0.000 HD
ATOM     16  H   UNL     1      47.258  31.941  44.712  0.00  0.00    +0.000 HD
ATOM     17  H   UNL     1      47.936  31.449  46.251  0.00  0.00    +0.000 HD
ATOM     18  H   UNL     1      46.671  29.698  45.437  0.00  0.00    +0.000 HD
ATOM     19  H   UNL     1      45.172  30.705  45.214  0.00  0.00    +0.000 HD
ATOM     20  H   UNL     1      45.235  29.389  47.344  0.00  0.00    +0.000 HD
ATOM     21  H   UNL     1      46.802  30.265  47.765  0.00  0.00    +0.000 HD
ATOM     22  H   UNL     1      44.210  31.336  48.579  0.00  0.00    +0.000 HD
BRANCH  14  23
ATOM     23  N   UNL     1      44.682  33.862  47.924  0.00  0.00    +0.000 N 
ATOM     24  H   UNL     1      43.649  33.816  47.717  0.00  0.00    +0.000 HD
ATOM     25  H   UNL     1      45.290  34.551  48.416  0.00  0.00    +0.000 HD
ENDBRANCH  14  23
ENDBRANCH   5   9
BRANCH   3  26
ATOM     26  C   UNL     1      47.008  34.672  41.903  0.00  0.00    +0.000 A 
ATOM     27  C   UNL     1      48.146  35.382  41.767  0.00  0.00    +0.000 A 
ATOM     28  C   UNL     1      48.773  35.334  40.512  0.00  0.00    +0.000 A 
ATOM     29  C   UNL     1      48.166  34.572  39.552  0.00  0.00    +0.000 A 
ATOM     30  C   UNL     1      47.023  33.858  39.687  0.00  0.00    +0.000 A 
ATOM     31  N   UNL     1      46.448  33.930  40.913  0.00  0.00    +0.000 NA
ATOM     32  H   UNL     1      48.555  35.963  42.593  0.00  0.00    +0.000 HD
ATOM     33  H   UNL     1      49.684  35.889  40.370  0.00  0.00    +0.000 HD
ATOM     34  H   UNL     1      48.691  34.567  38.597  0.00  0.00    +0.000 HD
BRANCH  30  35
ATOM     35  O   UNL     1      46.466  33.104  38.657  0.00  0.00    +0.000 OA
BRANCH  35  36
ATOM     36  C   UNL     1      47.010  33.005  37.410  0.00  0.00    +0.000 C 
ATOM     37  C   UNL     1      46.885  33.920  36.477  0.00  0.00    +0.000 C 
BRANCH  37  38
ATOM     38  C   UNL     1      47.326  34.120  35.084  0.00  0.00    +0.000 C 
ATOM     39  H   UNL     1      47.880  35.084  34.948  0.00  0.00    +0.000 HD
ENDBRANCH  37  38
ENDBRANCH  35  36
ENDBRANCH  30  35
ENDBRANCH   3  26
TORSDOF 6
