
 OpenBabel03242516323D

 26 27  0  0  1  0  0  0  0  0999 V2000
   36.5360   30.1770   41.4360 C   0  0  2  0  0  0  0  0  0  0  0  0
   37.4850   30.3460   40.2420 C   0  0  1  0  0  0  0  0  0  0  0  0
   36.5500   30.3640   39.2250 O   0  0  0  0  0  0  0  0  0  0  0  0
   35.7760   29.2280   39.4490 C   0  0  0  0  0  0  0  0  0  0  0  0
   35.8870   28.8740   40.9200 C   0  0  1  0  0  0  0  0  0  0  0  0
   37.0580   30.0160   42.3780 H   0  0  0  0  0  0  0  0  0  0  0  0
   38.1270   29.4590   40.2400 H   0  0  0  0  0  0  0  0  0  0  0  0
   36.0050   28.3890   38.7730 H   0  0  0  0  0  0  0  0  0  0  0  0
   34.7100   29.5250   39.2460 H   0  0  0  0  0  0  0  0  0  0  0  0
   34.9040   28.7060   41.3930 H   0  0  0  0  0  0  0  0  0  0  0  0
   40.2180   32.9300   40.7130 C   0  0  0  0  0  0  0  0  0  0  0  0
   39.6450   31.6620   40.7050 C   0  0  0  0  0  0  0  0  0  0  0  0
   38.3040   31.5430   40.3460 C   0  0  0  0  0  0  0  0  0  0  0  0
   37.6270   32.6920   40.0200 N   0  0  0  0  0  0  0  0  0  0  0  0
   38.2110   33.9070   40.0370 C   0  0  0  0  0  0  0  0  0  0  0  0
   39.5150   34.0280   40.3840 N   0  0  0  0  0  0  0  0  0  0  0  0
   41.2700   32.9260   41.0070 H   0  0  0  0  0  0  0  0  0  0  0  0
   40.1130   30.7260   40.9480 H   0  0  0  0  0  0  0  0  0  0  0  0
   37.6530   34.7980   39.7740 H   0  0  0  0  0  0  0  0  0  0  0  0
   35.5640   31.1270   41.4140 O   0  0  0  0  0  0  0  0  0  0  0  0
   35.8520   32.0630   41.3500 H   0  0  0  0  0  0  0  0  0  0  0  0
   36.8130   27.8640   41.1520 O   0  0  0  0  0  0  0  0  0  0  0  0
   37.2160   27.3430   42.3480 C   0  0  0  0  0  2  0  0  0  0  0  0
   38.5350   27.2380   42.4760 C   0  0  0  0  0  2  0  0  0  0  0  0
   39.2730   26.7040   43.6740 C   0  0  0  0  0  2  0  0  0  0  0  0
   39.8100   25.7630   43.3580 H   0  0  0  0  0  0  0  0  0  0  0  0
  1  6  1  1  0  0  0
  2  7  1  6  0  0  0
  2 13  1  0  0  0  0
  2  1  1  0  0  0  0
  3  4  1  0  0  0  0
  3  2  1  0  0  0  0
  4  5  1  0  0  0  0
  5 22  1  0  0  0  0
  5 10  1  1  0  0  0
  5  1  1  0  0  0  0
  8  4  1  0  0  0  0
  9  4  1  0  0  0  0
 11 17  1  0  0  0  0
 12 11  1  0  0  0  0
 12 18  1  0  0  0  0
 13 12  2  0  0  0  0
 14 15  2  0  0  0  0
 14 13  1  0  0  0  0
 15 16  1  0  0  0  0
 16 11  2  0  0  0  0
 19 15  1  0  0  0  0
 20  1  1  0  0  0  0
 21 20  1  0  0  0  0
 22 23  1  0  0  0  0
 23 24  1  0  0  0  0
 24 25  1  0  0  0  0
 26 25  1  0  0  0  0
M  END
>  <minimizedAffinity>
-4.73157835

$$$$

 OpenBabel03242516323D

 26 27  0  0  1  0  0  0  0  0999 V2000
   36.5400   30.6400   40.3110 C   0  0  2  0  0  0  0  0  0  0  0  0
   37.9080   30.1990   40.8490 C   0  0  1  0  0  0  0  0  0  0  0  0
   38.2700   31.3650   41.4970 O   0  0  0  0  0  0  0  0  0  0  0  0
   38.0940   32.3590   40.5370 C   0  0  0  0  0  0  0  0  0  0  0  0
   37.0790   31.8580   39.5290 C   0  0  1  0  0  0  0  0  0  0  0  0
   36.0850   29.9080   39.6460 H   0  0  0  0  0  0  0  0  0  0  0  0
   38.5180   29.9710   39.9690 H   0  0  0  0  0  0  0  0  0  0  0  0
   39.0330   32.7140   40.0820 H   0  0  0  0  0  0  0  0  0  0  0  0
   37.6420   33.2400   41.0730 H   0  0  0  0  0  0  0  0  0  0  0  0
   36.2750   32.5890   39.3330 H   0  0  0  0  0  0  0  0  0  0  0  0
   37.8200   27.6790   43.6790 C   0  0  0  0  0  0  0  0  0  0  0  0
   37.9740   28.9270   43.0820 C   0  0  0  0  0  0  0  0  0  0  0  0
   37.8190   29.0240   41.7010 C   0  0  0  0  0  0  0  0  0  0  0  0
   37.5220   27.8750   41.0100 N   0  0  0  0  0  0  0  0  0  0  0  0
   37.3790   26.6810   41.6190 C   0  0  0  0  0  0  0  0  0  0  0  0
   37.5280   26.5810   42.9610 N   0  0  0  0  0  0  0  0  0  0  0  0
   37.9600   27.7000   44.7630 H   0  0  0  0  0  0  0  0  0  0  0  0
   38.2050   29.8620   43.5590 H   0  0  0  0  0  0  0  0  0  0  0  0
   37.1450   25.7900   41.0490 H   0  0  0  0  0  0  0  0  0  0  0  0
   35.7680   31.1370   41.3140 O   0  0  0  0  0  0  0  0  0  0  0  0
   35.6460   30.5730   42.1090 H   0  0  0  0  0  0  0  0  0  0  0  0
   37.6780   31.3450   38.3850 O   0  0  0  0  0  0  0  0  0  0  0  0
   37.0840   30.7330   37.3200 C   0  0  0  0  0  2  0  0  0  0  0  0
   37.6750   29.6020   36.9460 C   0  0  0  0  0  2  0  0  0  0  0  0
   37.2500   28.7090   35.8110 C   0  0  0  0  0  2  0  0  0  0  0  0
   38.0740   28.7160   35.0390 H   0  0  0  0  0  0  0  0  0  0  0  0
  1  6  1  6  0  0  0
  1  2  1  0  0  0  0
  1 20  1  0  0  0  0
  2  7  1  6  0  0  0
  2  3  1  0  0  0  0
  2 13  1  0  0  0  0
  4  9  1  0  0  0  0
  4  3  1  0  0  0  0
  5 10  1  6  0  0  0
  5  1  1  0  0  0  0
  5  4  1  0  0  0  0
  8  4  1  0  0  0  0
 11 17  1  0  0  0  0
 12 18  1  0  0  0  0
 12 11  1  0  0  0  0
 13 12  2  0  0  0  0
 14 15  2  0  0  0  0
 14 13  1  0  0  0  0
 15 16  1  0  0  0  0
 16 11  2  0  0  0  0
 19 15  1  0  0  0  0
 20 21  1  0  0  0  0
 22  5  1  0  0  0  0
 23 22  1  0  0  0  0
 24 23  1  0  0  0  0
 25 24  1  0  0  0  0
 26 25  1  0  0  0  0
M  END
>  <minimizedAffinity>
-4.45260143

$$$$

 OpenBabel03242516323D

 26 27  0  0  1  0  0  0  0  0999 V2000
   37.5070   31.5920   39.8950 C   0  0  2  0  0  0  0  0  0  0  0  0
   38.5810   30.9640   40.7940 C   0  0  1  0  0  0  0  0  0  0  0  0
   38.9910   32.1000   41.4650 O   0  0  0  0  0  0  0  0  0  0  0  0
   39.2630   33.0170   40.4530 C   0  0  0  0  0  0  0  0  0  0  0  0
   38.4560   32.6160   39.2340 C   0  0  1  0  0  0  0  0  0  0  0  0
   37.1000   30.8960   39.1640 H   0  0  0  0  0  0  0  0  0  0  0  0
   39.3350   30.5500   40.1170 H   0  0  0  0  0  0  0  0  0  0  0  0
   40.3370   33.1540   40.2490 H   0  0  0  0  0  0  0  0  0  0  0  0
   38.8730   34.0100   40.8130 H   0  0  0  0  0  0  0  0  0  0  0  0
   37.8890   33.4600   38.8010 H   0  0  0  0  0  0  0  0  0  0  0  0
   37.7660   28.4780   43.5370 C   0  0  0  0  0  0  0  0  0  0  0  0
   38.4520   29.5170   42.9150 C   0  0  0  0  0  0  0  0  0  0  0  0
   38.0500   29.9070   41.6400 C   0  0  0  0  0  0  0  0  0  0  0  0
   36.9940   29.2370   41.0720 N   0  0  0  0  0  0  0  0  0  0  0  0
   36.3500   28.2340   41.7010 C   0  0  0  0  0  0  0  0  0  0  0  0
   36.7370   27.8520   42.9410 N   0  0  0  0  0  0  0  0  0  0  0  0
   38.1510   28.2420   44.5320 H   0  0  0  0  0  0  0  0  0  0  0  0
   39.2820   30.0820   43.2990 H   0  0  0  0  0  0  0  0  0  0  0  0
   35.5190   27.7230   41.2290 H   0  0  0  0  0  0  0  0  0  0  0  0
   36.6220   32.3100   40.6360 O   0  0  0  0  0  0  0  0  0  0  0  0
   36.1940   31.8530   41.3930 H   0  0  0  0  0  0  0  0  0  0  0  0
   39.2110   31.9020   38.3120 O   0  0  0  0  0  0  0  0  0  0  0  0
   40.4180   32.2320   37.7690 C   0  0  0  0  0  2  0  0  0  0  0  0
   41.1670   31.1850   37.4370 C   0  0  0  0  0  2  0  0  0  0  0  0
   42.5400   31.2320   36.8200 C   0  0  0  0  0  2  0  0  0  0  0  0
   43.2660   30.7840   37.5590 H   0  0  0  0  0  0  0  0  0  0  0  0
  1  6  1  6  0  0  0
  1 20  1  0  0  0  0
  1  2  1  0  0  0  0
  2  7  1  6  0  0  0
  2  3  1  0  0  0  0
  2 13  1  0  0  0  0
  4  9  1  0  0  0  0
  4  3  1  0  0  0  0
  5 10  1  6  0  0  0
  5  1  1  0  0  0  0
  5  4  1  0  0  0  0
  8  4  1  0  0  0  0
 11 17  1  0  0  0  0
 12 18  1  0  0  0  0
 12 11  2  0  0  0  0
 13 12  1  0  0  0  0
 14 13  2  0  0  0  0
 14 15  1  0  0  0  0
 15 16  2  0  0  0  0
 16 11  1  0  0  0  0
 19 15  1  0  0  0  0
 20 21  1  0  0  0  0
 22  5  1  0  0  0  0
 23 22  1  0  0  0  0
 24 23  1  0  0  0  0
 25 24  1  0  0  0  0
 25 26  1  0  0  0  0
M  END
>  <minimizedAffinity>
-4.42822266

$$$$

 OpenBabel03242516323D

 26 27  0  0  1  0  0  0  0  0999 V2000
   37.6550   32.2720   40.6290 C   0  0  2  0  0  0  0  0  0  0  0  0
   38.5720   31.4370   39.7260 C   0  0  1  0  0  0  0  0  0  0  0  0
   37.6300   30.9880   38.8190 O   0  0  0  0  0  0  0  0  0  0  0  0
   36.6200   30.4490   39.6130 C   0  0  0  0  0  0  0  0  0  0  0  0
   36.6980   31.1100   40.9750 C   0  0  1  0  0  0  0  0  0  0  0  0
   38.1580   32.6530   41.5160 H   0  0  0  0  0  0  0  0  0  0  0  0
   38.9860   30.6500   40.3640 H   0  0  0  0  0  0  0  0  0  0  0  0
   36.6200   29.3480   39.6530 H   0  0  0  0  0  0  0  0  0  0  0  0
   35.6470   30.7560   39.1370 H   0  0  0  0  0  0  0  0  0  0  0  0
   35.7210   31.4910   41.3220 H   0  0  0  0  0  0  0  0  0  0  0  0
   41.3240   32.9470   37.6010 C   0  0  0  0  0  0  0  0  0  0  0  0
   40.3270   32.0400   37.9460 C   0  0  0  0  0  0  0  0  0  0  0  0
   39.6530   32.2220   39.1510 C   0  0  0  0  0  0  0  0  0  0  0  0
   40.0160   33.2940   39.9290 N   0  0  0  0  0  0  0  0  0  0  0  0
   40.9870   34.1560   39.5660 C   0  0  0  0  0  0  0  0  0  0  0  0
   41.6450   33.9830   38.3950 N   0  0  0  0  0  0  0  0  0  0  0  0
   41.7970   32.7240   36.6420 H   0  0  0  0  0  0  0  0  0  0  0  0
   39.9930   31.1840   37.3880 H   0  0  0  0  0  0  0  0  0  0  0  0
   41.2540   34.9940   40.2000 H   0  0  0  0  0  0  0  0  0  0  0  0
   36.9330   33.1580   39.8910 O   0  0  0  0  0  0  0  0  0  0  0  0
   37.4310   33.7500   39.2860 H   0  0  0  0  0  0  0  0  0  0  0  0
   37.3690   30.3250   41.9060 O   0  0  0  0  0  0  0  0  0  0  0  0
   37.2400   28.9860   42.1330 C   0  0  0  0  0  2  0  0  0  0  0  0
   38.1310   28.4930   42.9870 C   0  0  0  0  0  2  0  0  0  0  0  0
   38.2390   27.0590   43.4330 C   0  0  0  0  0  2  0  0  0  0  0  0
   39.2280   26.6570   43.0670 H   0  0  0  0  0  0  0  0  0  0  0  0
  1  5  1  0  0  0  0
  1  6  1  1  0  0  0
  2  7  1  1  0  0  0
  2  1  1  0  0  0  0
  3  4  1  0  0  0  0
  3  2  1  0  0  0  0
  4  8  1  0  0  0  0
  4  5  1  0  0  0  0
  5 10  1  1  0  0  0
  5 22  1  0  0  0  0
  9  4  1  0  0  0  0
 11 12  2  0  0  0  0
 11 16  1  0  0  0  0
 12 13  1  0  0  0  0
 13  2  1  0  0  0  0
 13 14  2  0  0  0  0
 15 14  1  0  0  0  0
 15 19  1  0  0  0  0
 16 15  2  0  0  0  0
 17 11  1  0  0  0  0
 18 12  1  0  0  0  0
 20  1  1  0  0  0  0
 21 20  1  0  0  0  0
 22 23  1  0  0  0  0
 23 24  1  0  0  0  0
 24 25  1  0  0  0  0
 26 25  1  0  0  0  0
M  END
>  <minimizedAffinity>
-4.42592669

$$$$

 OpenBabel03242516323D

 26 27  0  0  1  0  0  0  0  0999 V2000
   36.9460   28.5710   42.0360 C   0  0  2  0  0  0  0  0  0  0  0  0
   38.3470   27.9800   41.8260 C   0  0  1  0  0  0  0  0  0  0  0  0
   39.0260   28.6840   42.8020 O   0  0  0  0  0  0  0  0  0  0  0  0
   38.6980   30.0160   42.5560 C   0  0  0  0  0  0  0  0  0  0  0  0
   37.3750   30.0390   41.8150 C   0  0  1  0  0  0  0  0  0  0  0  0
   36.2280   28.2480   41.2840 H   0  0  0  0  0  0  0  0  0  0  0  0
   38.6360   28.2460   40.8040 H   0  0  0  0  0  0  0  0  0  0  0  0
   39.4960   30.5890   42.0580 H   0  0  0  0  0  0  0  0  0  0  0  0
   38.5370   30.4930   43.5630 H   0  0  0  0  0  0  0  0  0  0  0  0
   36.6460   30.7360   42.2650 H   0  0  0  0  0  0  0  0  0  0  0  0
   39.1830   24.3440   42.4930 C   0  0  0  0  0  0  0  0  0  0  0  0
   39.4130   25.7140   42.4060 C   0  0  0  0  0  0  0  0  0  0  0  0
   38.3710   26.5350   41.9810 C   0  0  0  0  0  0  0  0  0  0  0  0
   37.1730   25.9370   41.6720 N   0  0  0  0  0  0  0  0  0  0  0  0
   36.9830   24.6060   41.7670 C   0  0  0  0  0  0  0  0  0  0  0  0
   37.9920   23.8040   42.1810 N   0  0  0  0  0  0  0  0  0  0  0  0
   40.0550   23.7810   42.8340 H   0  0  0  0  0  0  0  0  0  0  0  0
   40.3190   26.2450   42.6310 H   0  0  0  0  0  0  0  0  0  0  0  0
   36.0270   24.1610   41.5170 H   0  0  0  0  0  0  0  0  0  0  0  0
   36.5750   28.4700   43.3400 O   0  0  0  0  0  0  0  0  0  0  0  0
   36.6250   27.5820   43.7550 H   0  0  0  0  0  0  0  0  0  0  0  0
   37.5400   30.1880   40.4440 O   0  0  0  0  0  0  0  0  0  0  0  0
   37.8630   31.3180   39.7480 C   0  0  0  0  0  2  0  0  0  0  0  0
   37.1910   32.3990   40.1310 C   0  0  0  0  0  2  0  0  0  0  0  0
   37.3300   33.7830   39.5550 C   0  0  0  0  0  2  0  0  0  0  0  0
   36.3480   34.0550   39.0680 H   0  0  0  0  0  0  0  0  0  0  0  0
  1  6  1  6  0  0  0
  1 20  1  0  0  0  0
  2  7  1  6  0  0  0
  2 13  1  0  0  0  0
  2  1  1  0  0  0  0
  2  3  1  0  0  0  0
  4  3  1  0  0  0  0
  4  9  1  0  0  0  0
  5  1  1  0  0  0  0
  5 10  1  1  0  0  0
  5  4  1  0  0  0  0
  8  4  1  0  0  0  0
 11 17  1  0  0  0  0
 12 11  1  0  0  0  0
 12 18  1  0  0  0  0
 13 12  2  0  0  0  0
 14 15  2  0  0  0  0
 14 13  1  0  0  0  0
 15 16  1  0  0  0  0
 16 11  2  0  0  0  0
 19 15  1  0  0  0  0
 20 21  1  0  0  0  0
 22  5  1  0  0  0  0
 23 24  1  0  0  0  0
 23 22  1  0  0  0  0
 25 24  1  0  0  0  0
 26 25  1  0  0  0  0
M  END
>  <minimizedAffinity>
-4.35759163

$$$$

 OpenBabel03242516323D

 26 27  0  0  1  0  0  0  0  0999 V2000
   36.5630   27.8630   41.7490 C   0  0  2  0  0  0  0  0  0  0  0  0
   38.0920   27.9850   41.7150 C   0  0  1  0  0  0  0  0  0  0  0  0
   38.2300   29.1570   42.4340 O   0  0  0  0  0  0  0  0  0  0  0  0
   37.3640   30.0490   41.8060 C   0  0  0  0  0  0  0  0  0  0  0  0
   36.2950   29.2390   41.1000 C   0  0  1  0  0  0  0  0  0  0  0  0
   36.1840   27.0500   41.1310 H   0  0  0  0  0  0  0  0  0  0  0  0
   38.3630   28.0770   40.6590 H   0  0  0  0  0  0  0  0  0  0  0  0
   37.8690   30.7800   41.1550 H   0  0  0  0  0  0  0  0  0  0  0  0
   36.8660   30.6370   42.6270 H   0  0  0  0  0  0  0  0  0  0  0  0
   35.2730   29.5910   41.3260 H   0  0  0  0  0  0  0  0  0  0  0  0
   40.3110   25.5350   43.5710 C   0  0  0  0  0  0  0  0  0  0  0  0
   39.8700   26.7780   43.1270 C   0  0  0  0  0  0  0  0  0  0  0  0
   38.7560   26.8270   42.2930 C   0  0  0  0  0  0  0  0  0  0  0  0
   38.1580   25.6370   41.9570 N   0  0  0  0  0  0  0  0  0  0  0  0
   38.6100   24.4480   42.4050 C   0  0  0  0  0  0  0  0  0  0  0  0
   39.6920   24.3960   43.2170 N   0  0  0  0  0  0  0  0  0  0  0  0
   41.1890   25.5960   44.2190 H   0  0  0  0  0  0  0  0  0  0  0  0
   40.2870   27.7430   43.3490 H   0  0  0  0  0  0  0  0  0  0  0  0
   38.1180   23.5240   42.1250 H   0  0  0  0  0  0  0  0  0  0  0  0
   36.1030   27.9440   43.0260 O   0  0  0  0  0  0  0  0  0  0  0  0
   36.4990   27.3330   43.6860 H   0  0  0  0  0  0  0  0  0  0  0  0
   36.5590   29.0820   39.7450 O   0  0  0  0  0  0  0  0  0  0  0  0
   35.7650   29.4100   38.6840 C   0  0  0  0  0  2  0  0  0  0  0  0
   34.6130   28.7480   38.6450 C   0  0  0  0  0  2  0  0  0  0  0  0
   33.5370   28.8940   37.6020 C   0  0  0  0  0  2  0  0  0  0  0  0
   33.4540   27.9120   37.0510 H   0  0  0  0  0  0  0  0  0  0  0  0
  1  6  1  6  0  0  0
  1 20  1  0  0  0  0
  2  7  1  6  0  0  0
  2  1  1  0  0  0  0
  2 13  1  0  0  0  0
  2  3  1  0  0  0  0
  4  3  1  0  0  0  0
  4  9  1  0  0  0  0
  5 10  1  1  0  0  0
  5  1  1  0  0  0  0
  5  4  1  0  0  0  0
  8  4  1  0  0  0  0
 11 17  1  0  0  0  0
 12 18  1  0  0  0  0
 12 11  2  0  0  0  0
 13 12  1  0  0  0  0
 14 13  2  0  0  0  0
 14 15  1  0  0  0  0
 15 16  2  0  0  0  0
 16 11  1  0  0  0  0
 19 15  1  0  0  0  0
 20 21  1  0  0  0  0
 22  5  1  0  0  0  0
 23 22  1  0  0  0  0
 24 23  1  0  0  0  0
 25 24  1  0  0  0  0
 26 25  1  0  0  0  0
M  END
>  <minimizedAffinity>
-4.34701157

$$$$

 OpenBabel03242516323D

 26 27  0  0  1  0  0  0  0  0999 V2000
   38.1660   28.7730   42.9810 C   0  0  2  0  0  0  0  0  0  0  0  0
   37.7250   28.4680   41.5430 C   0  0  1  0  0  0  0  0  0  0  0  0
   36.5700   27.7600   41.8180 O   0  0  0  0  0  0  0  0  0  0  0  0
   36.9730   26.7880   42.7310 C   0  0  0  0  0  0  0  0  0  0  0  0
   38.2180   27.2960   43.4310 C   0  0  1  0  0  0  0  0  0  0  0  0
   39.1460   29.2420   43.0380 H   0  0  0  0  0  0  0  0  0  0  0  0
   38.5240   27.8620   41.1050 H   0  0  0  0  0  0  0  0  0  0  0  0
   37.0880   25.7830   42.2940 H   0  0  0  0  0  0  0  0  0  0  0  0
   36.1520   26.7150   43.4980 H   0  0  0  0  0  0  0  0  0  0  0  0
   38.1530   27.2140   44.5300 H   0  0  0  0  0  0  0  0  0  0  0  0
   36.7500   31.1180   39.0140 C   0  0  0  0  0  0  0  0  0  0  0  0
   36.7980   29.8480   39.5810 C   0  0  0  0  0  0  0  0  0  0  0  0
   37.5330   29.6730   40.7520 C   0  0  0  0  0  0  0  0  0  0  0  0
   38.1680   30.7720   41.2770 N   0  0  0  0  0  0  0  0  0  0  0  0
   38.1010   31.9890   40.7030 C   0  0  0  0  0  0  0  0  0  0  0  0
   37.3870   32.1650   39.5650 N   0  0  0  0  0  0  0  0  0  0  0  0
   36.1520   31.1590   38.1010 H   0  0  0  0  0  0  0  0  0  0  0  0
   36.3290   28.9490   39.2260 H   0  0  0  0  0  0  0  0  0  0  0  0
   38.6110   32.8400   41.1390 H   0  0  0  0  0  0  0  0  0  0  0  0
   37.1540   29.3520   43.6800 O   0  0  0  0  0  0  0  0  0  0  0  0
   36.7340   30.1480   43.2870 H   0  0  0  0  0  0  0  0  0  0  0  0
   39.3830   26.7700   42.8860 O   0  0  0  0  0  0  0  0  0  0  0  0
   40.6410   26.7720   43.4140 C   0  0  0  0  0  2  0  0  0  0  0  0
   41.3770   25.7200   43.0650 C   0  0  0  0  0  2  0  0  0  0  0  0
   42.7960   25.4470   43.4880 C   0  0  0  0  0  2  0  0  0  0  0  0
   42.7950   24.5090   44.1150 H   0  0  0  0  0  0  0  0  0  0  0  0
  1  6  1  1  0  0  0
  1  5  1  0  0  0  0
  1 20  1  0  0  0  0
  2  7  1  6  0  0  0
  2  3  1  0  0  0  0
  2  1  1  0  0  0  0
  3  4  1  0  0  0  0
  4  5  1  0  0  0  0
  4  9  1  0  0  0  0
  5 10  1  1  0  0  0
  8  4  1  0  0  0  0
 11 16  2  0  0  0  0
 11 12  1  0  0  0  0
 12 13  2  0  0  0  0
 13 14  1  0  0  0  0
 13  2  1  0  0  0  0
 15 19  1  0  0  0  0
 15 14  2  0  0  0  0
 16 15  1  0  0  0  0
 17 11  1  0  0  0  0
 18 12  1  0  0  0  0
 21 20  1  0  0  0  0
 22 23  1  0  0  0  0
 22  5  1  0  0  0  0
 24 23  1  0  0  0  0
 24 25  1  0  0  0  0
 25 26  1  0  0  0  0
M  END
>  <minimizedAffinity>
-4.29355669

$$$$

 OpenBabel03242516323D

 26 27  0  0  1  0  0  0  0  0999 V2000
   38.4840   28.9010   42.5300 C   0  0  2  0  0  0  0  0  0  0  0  0
   37.6650   29.2390   41.2770 C   0  0  1  0  0  0  0  0  0  0  0  0
   36.4120   28.8790   41.7350 O   0  0  0  0  0  0  0  0  0  0  0  0
   36.5850   27.5870   42.2260 C   0  0  0  0  0  0  0  0  0  0  0  0
   38.0470   27.4210   42.5920 C   0  0  1  0  0  0  0  0  0  0  0  0
   39.5580   28.9940   42.3790 H   0  0  0  0  0  0  0  0  0  0  0  0
   38.0510   28.5920   40.4820 H   0  0  0  0  0  0  0  0  0  0  0  0
   36.2020   26.7980   41.5590 H   0  0  0  0  0  0  0  0  0  0  0  0
   35.9830   27.5270   43.1760 H   0  0  0  0  0  0  0  0  0  0  0  0
   38.1890   27.0080   43.6060 H   0  0  0  0  0  0  0  0  0  0  0  0
   37.2760   32.7480   39.8980 C   0  0  0  0  0  0  0  0  0  0  0  0
   36.9330   31.4190   40.1260 C   0  0  0  0  0  0  0  0  0  0  0  0
   37.7990   30.6320   40.8830 C   0  0  0  0  0  0  0  0  0  0  0  0
   38.9440   31.2220   41.3600 N   0  0  0  0  0  0  0  0  0  0  0  0
   39.2470   32.5130   41.1210 C   0  0  0  0  0  0  0  0  0  0  0  0
   38.4080   33.2820   40.3860 N   0  0  0  0  0  0  0  0  0  0  0  0
   36.5390   33.2850   39.2960 H   0  0  0  0  0  0  0  0  0  0  0  0
   36.0590   30.8950   39.7860 H   0  0  0  0  0  0  0  0  0  0  0  0
   40.1580   32.9540   41.5090 H   0  0  0  0  0  0  0  0  0  0  0  0
   37.9520   29.5050   43.6260 O   0  0  0  0  0  0  0  0  0  0  0  0
   37.8050   30.4750   43.5790 H   0  0  0  0  0  0  0  0  0  0  0  0
   38.7680   26.7660   41.6010 O   0  0  0  0  0  0  0  0  0  0  0  0
   38.3830   25.7040   40.8350 C   0  0  0  0  0  2  0  0  0  0  0  0
   38.6410   24.5200   41.3830 C   0  0  0  0  0  2  0  0  0  0  0  0
   38.3330   23.1750   40.7810 C   0  0  0  0  0  2  0  0  0  0  0  0
   39.3130   22.6510   40.5860 H   0  0  0  0  0  0  0  0  0  0  0  0
  1  6  1  6  0  0  0
  1  5  1  0  0  0  0
  1 20  1  0  0  0  0
  2  7  1  6  0  0  0
  2  3  1  0  0  0  0
  2  1  1  0  0  0  0
  3  4  1  0  0  0  0
  4  5  1  0  0  0  0
  4  9  1  0  0  0  0
  5 10  1  1  0  0  0
  8  4  1  0  0  0  0
 11 12  2  0  0  0  0
 11 16  1  0  0  0  0
 12 13  1  0  0  0  0
 13  2  1  0  0  0  0
 13 14  2  0  0  0  0
 15 14  1  0  0  0  0
 15 19  1  0  0  0  0
 16 15  2  0  0  0  0
 17 11  1  0  0  0  0
 18 12  1  0  0  0  0
 21 20  1  0  0  0  0
 22  5  1  0  0  0  0
 23 24  1  0  0  0  0
 23 22  1  0  0  0  0
 25 24  1  0  0  0  0
 26 25  1  0  0  0  0
M  END
>  <minimizedAffinity>
-4.25112247

$$$$

 OpenBabel03242516323D

 26 27  0  0  1  0  0  0  0  0999 V2000
   37.0520   29.5000   41.1960 C   0  0  2  0  0  0  0  0  0  0  0  0
   36.8350   30.4280   39.9930 C   0  0  1  0  0  0  0  0  0  0  0  0
   35.4610   30.5600   40.0680 O   0  0  0  0  0  0  0  0  0  0  0  0
   34.9940   29.2490   40.1340 C   0  0  0  0  0  0  0  0  0  0  0  0
   36.1100   28.3860   40.6890 C   0  0  1  0  0  0  0  0  0  0  0  0
   38.0780   29.1460   41.2840 H   0  0  0  0  0  0  0  0  0  0  0  0
   37.1810   29.8710   39.1170 H   0  0  0  0  0  0  0  0  0  0  0  0
   34.5720   28.8750   39.1870 H   0  0  0  0  0  0  0  0  0  0  0  0
   34.1540   29.2500   40.8840 H   0  0  0  0  0  0  0  0  0  0  0  0
   35.7770   27.7400   41.5200 H   0  0  0  0  0  0  0  0  0  0  0  0
   38.1140   33.9950   39.9140 C   0  0  0  0  0  0  0  0  0  0  0  0
   37.2340   32.9470   39.6650 C   0  0  0  0  0  0  0  0  0  0  0  0
   37.5790   31.6720   40.1080 C   0  0  0  0  0  0  0  0  0  0  0  0
   38.7750   31.5290   40.7680 N   0  0  0  0  0  0  0  0  0  0  0  0
   39.6060   32.5660   40.9940 C   0  0  0  0  0  0  0  0  0  0  0  0
   39.2740   33.8070   40.5660 N   0  0  0  0  0  0  0  0  0  0  0  0
   37.7610   34.9550   39.5300 H   0  0  0  0  0  0  0  0  0  0  0  0
   36.2870   32.9880   39.1570 H   0  0  0  0  0  0  0  0  0  0  0  0
   40.5440   32.4240   41.5190 H   0  0  0  0  0  0  0  0  0  0  0  0
   36.4710   30.0170   42.3110 O   0  0  0  0  0  0  0  0  0  0  0  0
   36.7080   30.9380   42.5560 H   0  0  0  0  0  0  0  0  0  0  0  0
   36.8080   27.7180   39.6890 O   0  0  0  0  0  0  0  0  0  0  0  0
   36.9070   26.3730   39.4800 C   0  0  0  0  0  2  0  0  0  0  0  0
   36.9310   25.6520   40.5960 C   0  0  0  0  0  2  0  0  0  0  0  0
   37.0330   24.1520   40.6850 C   0  0  0  0  0  2  0  0  0  0  0  0
   38.0120   23.9020   41.1880 H   0  0  0  0  0  0  0  0  0  0  0  0
  1  6  1  1  0  0  0
  1 20  1  0  0  0  0
  2  7  1  6  0  0  0
  2  3  1  0  0  0  0
  2 13  1  0  0  0  0
  2  1  1  0  0  0  0
  3  4  1  0  0  0  0
  4  5  1  0  0  0  0
  4  9  1  0  0  0  0
  5  1  1  0  0  0  0
  5 10  1  1  0  0  0
  8  4  1  0  0  0  0
 11 16  1  0  0  0  0
 12 11  2  0  0  0  0
 12 13  1  0  0  0  0
 13 14  2  0  0  0  0
 14 15  1  0  0  0  0
 15 19  1  0  0  0  0
 16 15  2  0  0  0  0
 17 11  1  0  0  0  0
 18 12  1  0  0  0  0
 20 21  1  0  0  0  0
 22  5  1  0  0  0  0
 23 22  1  0  0  0  0
 23 24  1  0  0  0  0
 24 25  1  0  0  0  0
 25 26  1  0  0  0  0
M  END
>  <minimizedAffinity>
-4.17180634

$$$$
