
 OpenBabel03242517513D

 14 14  0  0  0  0  0  0  0  0999 V2000
   38.3650   28.8160   43.3250 C   0  0  0  0  0  0  0  0  0  0  0  0
   38.1910   27.4160   43.3970 C   0  0  0  0  0  0  0  0  0  0  0  0
   37.2330   26.8500   42.5160 C   0  0  0  0  0  0  0  0  0  0  0  0
   36.5590   27.6650   41.6810 N   0  0  0  0  0  0  0  0  0  0  0  0
   36.7630   29.0000   41.6520 C   0  0  0  0  0  0  0  0  0  0  0  0
   37.6530   29.5670   42.4620 N   0  0  0  0  0  0  0  0  0  0  0  0
   39.0790   29.3060   43.9710 H   0  0  0  0  0  0  0  0  0  0  0  0
   38.7900   26.8860   44.1050 H   0  0  0  0  0  0  0  0  0  0  0  0
   37.1100   25.7930   42.5790 H   0  0  0  0  0  0  0  0  0  0  0  0
   36.0820   29.8520   40.8010 O   0  0  0  0  0  0  0  0  0  0  0  0
   36.4320   31.1950   40.7830 C   0  0  0  0  0  3  0  0  0  0  0  0
   36.8980   31.7200   39.6400 C   0  0  0  0  0  3  0  0  0  0  0  0
   37.3260   33.1210   39.4080 C   0  0  0  0  0  2  0  0  0  0  0  0
   37.4290   33.7020   40.3470 H   0  0  0  0  0  0  0  0  0  0  0  0
  1  2  1  0  0  0  0
  1  7  1  0  0  0  0
  2  8  1  0  0  0  0
  3  9  1  0  0  0  0
  3  2  2  0  0  0  0
  4  3  1  0  0  0  0
  5  4  2  0  0  0  0
  5  6  1  0  0  0  0
  6  1  2  0  0  0  0
 10  5  1  0  0  0  0
 11 10  1  0  0  0  0
 12 11  2  0  0  0  0
 13 12  1  0  0  0  0
 13 14  1  0  0  0  0
M  END
>  <minimizedAffinity>
-3.43272853

$$$$

 OpenBabel03242517513D

 14 14  0  0  0  0  0  0  0  0999 V2000
   36.9680   27.2820   42.4820 C   0  0  0  0  0  0  0  0  0  0  0  0
   38.2420   27.4170   43.0800 C   0  0  0  0  0  0  0  0  0  0  0  0
   38.8150   28.7150   43.0620 C   0  0  0  0  0  0  0  0  0  0  0  0
   38.1260   29.7210   42.4880 N   0  0  0  0  0  0  0  0  0  0  0  0
   36.9100   29.5370   41.9300 C   0  0  0  0  0  0  0  0  0  0  0  0
   36.3400   28.3360   41.9260 N   0  0  0  0  0  0  0  0  0  0  0  0
   36.4800   26.3180   42.4630 H   0  0  0  0  0  0  0  0  0  0  0  0
   38.6790   26.5380   43.5000 H   0  0  0  0  0  0  0  0  0  0  0  0
   39.7760   28.8060   43.5160 H   0  0  0  0  0  0  0  0  0  0  0  0
   36.1870   30.5570   41.3360 O   0  0  0  0  0  0  0  0  0  0  0  0
   36.8520   31.4500   40.5080 C   0  0  0  0  0  3  0  0  0  0  0  0
   36.9200   31.1780   39.1950 C   0  0  0  0  0  3  0  0  0  0  0  0
   37.5780   31.9930   38.1460 C   0  0  0  0  0  2  0  0  0  0  0  0
   38.2220   32.7950   38.5630 H   0  0  0  0  0  0  0  0  0  0  0  0
  1  2  1  0  0  0  0
  2  8  1  0  0  0  0
  3  2  2  0  0  0  0
  3  9  1  0  0  0  0
  4  3  1  0  0  0  0
  5  4  2  0  0  0  0
  6  5  1  0  0  0  0
  6  1  2  0  0  0  0
  7  1  1  0  0  0  0
 10  5  1  0  0  0  0
 11 10  1  0  0  0  0
 12 11  2  0  0  0  0
 13 14  1  0  0  0  0
 13 12  1  0  0  0  0
M  END
>  <minimizedAffinity>
-3.32753134

$$$$

 OpenBabel03242517513D

 14 14  0  0  0  0  0  0  0  0999 V2000
   39.3020   30.9770   41.8220 C   0  0  0  0  0  0  0  0  0  0  0  0
   38.3860   31.4660   40.8630 C   0  0  0  0  0  0  0  0  0  0  0  0
   37.1010   30.8630   40.8510 C   0  0  0  0  0  0  0  0  0  0  0  0
   36.8370   29.8810   41.7350 N   0  0  0  0  0  0  0  0  0  0  0  0
   37.7500   29.4510   42.6320 C   0  0  0  0  0  0  0  0  0  0  0  0
   38.9650   29.9910   42.6740 N   0  0  0  0  0  0  0  0  0  0  0  0
   40.2970   31.3960   41.8800 H   0  0  0  0  0  0  0  0  0  0  0  0
   38.7230   32.2490   40.2210 H   0  0  0  0  0  0  0  0  0  0  0  0
   36.4170   31.2390   40.1240 H   0  0  0  0  0  0  0  0  0  0  0  0
   37.4980   28.4440   43.5470 O   0  0  0  0  0  0  0  0  0  0  0  0
   36.8060   27.3180   43.1250 C   0  0  0  0  0  3  0  0  0  0  0  0
   37.4990   26.3080   42.5770 C   0  0  0  0  0  3  0  0  0  0  0  0
   36.9580   25.0260   42.0640 C   0  0  0  0  0  2  0  0  0  0  0  0
   35.8520   25.0300   41.9750 H   0  0  0  0  0  0  0  0  0  0  0  0
  1  7  1  0  0  0  0
  1  6  1  0  0  0  0
  2  1  2  0  0  0  0
  3  2  1  0  0  0  0
  3  4  2  0  0  0  0
  4  5  1  0  0  0  0
  5  6  2  0  0  0  0
  5 10  1  0  0  0  0
  8  2  1  0  0  0  0
  9  3  1  0  0  0  0
 11 10  1  0  0  0  0
 12 11  2  0  0  0  0
 13 12  1  0  0  0  0
 14 13  1  0  0  0  0
M  END
>  <minimizedAffinity>
-3.244066

$$$$

 OpenBabel03242517513D

 14 14  0  0  0  0  0  0  0  0999 V2000
   38.8550   28.9740   42.9760 C   0  0  0  0  0  0  0  0  0  0  0  0
   38.5450   27.6840   43.4610 C   0  0  0  0  0  0  0  0  0  0  0  0
   37.2970   27.1400   43.0620 C   0  0  0  0  0  0  0  0  0  0  0  0
   36.4960   27.8720   42.2620 N   0  0  0  0  0  0  0  0  0  0  0  0
   36.8410   29.1030   41.8260 C   0  0  0  0  0  0  0  0  0  0  0  0
   38.0030   29.6460   42.1780 N   0  0  0  0  0  0  0  0  0  0  0  0
   39.7910   29.4420   43.2450 H   0  0  0  0  0  0  0  0  0  0  0  0
   39.2690   27.2120   44.0890 H   0  0  0  0  0  0  0  0  0  0  0  0
   37.0720   26.1660   43.4340 H   0  0  0  0  0  0  0  0  0  0  0  0
   36.0340   29.8680   41.0040 O   0  0  0  0  0  0  0  0  0  0  0  0
   35.0200   29.2410   40.2930 C   0  0  0  0  0  3  0  0  0  0  0  0
   35.1240   29.1700   38.9570 C   0  0  0  0  0  3  0  0  0  0  0  0
   34.1600   28.5480   38.0160 C   0  0  0  0  0  2  0  0  0  0  0  0
   33.1900   28.3010   38.4950 H   0  0  0  0  0  0  0  0  0  0  0  0
  1  7  1  0  0  0  0
  1  2  1  0  0  0  0
  2  8  1  0  0  0  0
  3  9  1  0  0  0  0
  3  2  2  0  0  0  0
  4  3  1  0  0  0  0
  5  6  1  0  0  0  0
  5  4  2  0  0  0  0
  6  1  2  0  0  0  0
 10  5  1  0  0  0  0
 11 10  1  0  0  0  0
 12 11  2  0  0  0  0
 13 14  1  0  0  0  0
 13 12  1  0  0  0  0
M  END
>  <minimizedAffinity>
-3.21815133

$$$$

 OpenBabel03242517513D

 14 14  0  0  0  0  0  0  0  0999 V2000
   38.5970   24.4970   42.3510 C   0  0  0  0  0  0  0  0  0  0  0  0
   39.7810   24.7780   43.0690 C   0  0  0  0  0  0  0  0  0  0  0  0
   39.8630   26.0560   43.6790 C   0  0  0  0  0  0  0  0  0  0  0  0
   38.8290   26.9090   43.5390 N   0  0  0  0  0  0  0  0  0  0  0  0
   37.7180   26.5900   42.8410 C   0  0  0  0  0  0  0  0  0  0  0  0
   37.6040   25.4020   42.2550 N   0  0  0  0  0  0  0  0  0  0  0  0
   38.4760   23.5400   41.8630 H   0  0  0  0  0  0  0  0  0  0  0  0
   40.5250   24.0120   43.1020 H   0  0  0  0  0  0  0  0  0  0  0  0
   40.7610   26.2580   44.2190 H   0  0  0  0  0  0  0  0  0  0  0  0
   36.6470   27.4520   42.6870 O   0  0  0  0  0  0  0  0  0  0  0  0
   36.7520   28.4900   41.7720 C   0  0  0  0  0  3  0  0  0  0  0  0
   35.7110   28.7380   40.9620 C   0  0  0  0  0  3  0  0  0  0  0  0
   35.6180   29.7910   39.9220 C   0  0  0  0  0  2  0  0  0  0  0  0
   36.5950   30.2680   39.7030 H   0  0  0  0  0  0  0  0  0  0  0  0
  1  2  1  0  0  0  0
  2  8  1  0  0  0  0
  2  3  2  0  0  0  0
  3  9  1  0  0  0  0
  4  3  1  0  0  0  0
  5  4  2  0  0  0  0
  6  1  2  0  0  0  0
  6  5  1  0  0  0  0
  7  1  1  0  0  0  0
 10  5  1  0  0  0  0
 11 10  1  0  0  0  0
 12 11  2  0  0  0  0
 13 12  1  0  0  0  0
 14 13  1  0  0  0  0
M  END
>  <minimizedAffinity>
-3.18664527

$$$$

 OpenBabel03242517513D

 14 14  0  0  0  0  0  0  0  0999 V2000
   38.2790   33.4960   40.1740 C   0  0  0  0  0  0  0  0  0  0  0  0
   37.2640   32.9970   39.3270 C   0  0  0  0  0  0  0  0  0  0  0  0
   36.9470   31.6200   39.4630 C   0  0  0  0  0  0  0  0  0  0  0  0
   37.6190   30.8860   40.3710 N   0  0  0  0  0  0  0  0  0  0  0  0
   38.5830   31.4140   41.1570 C   0  0  0  0  0  0  0  0  0  0  0  0
   38.9080   32.6990   41.0590 N   0  0  0  0  0  0  0  0  0  0  0  0
   38.5660   34.5360   40.1180 H   0  0  0  0  0  0  0  0  0  0  0  0
   36.8100   33.6870   38.6500 H   0  0  0  0  0  0  0  0  0  0  0  0
   36.1800   31.2530   38.8190 H   0  0  0  0  0  0  0  0  0  0  0  0
   39.2830   30.6760   42.0950 O   0  0  0  0  0  0  0  0  0  0  0  0
   38.6180   29.6720   42.7840 C   0  0  0  0  0  3  0  0  0  0  0  0
   39.2220   28.4810   42.9200 C   0  0  0  0  0  3  0  0  0  0  0  0
   38.6900   27.2830   43.6140 C   0  0  0  0  0  2  0  0  0  0  0  0
   37.6130   27.3710   43.8620 H   0  0  0  0  0  0  0  0  0  0  0  0
  1  6  1  0  0  0  0
  2  3  1  0  0  0  0
  2  1  2  0  0  0  0
  3  4  2  0  0  0  0
  4  5  1  0  0  0  0
  5 10  1  0  0  0  0
  6  5  2  0  0  0  0
  7  1  1  0  0  0  0
  8  2  1  0  0  0  0
  9  3  1  0  0  0  0
 10 11  1  0  0  0  0
 11 12  2  0  0  0  0
 12 13  1  0  0  0  0
 13 14  1  0  0  0  0
M  END
>  <minimizedAffinity>
-3.11255527

$$$$

 OpenBabel03242517513D

 14 14  0  0  0  0  0  0  0  0999 V2000
   36.7790   29.3950   38.9020 C   0  0  0  0  0  0  0  0  0  0  0  0
   36.7660   30.7930   39.1110 C   0  0  0  0  0  0  0  0  0  0  0  0
   36.6480   31.2320   40.4540 C   0  0  0  0  0  0  0  0  0  0  0  0
   36.5550   30.3090   41.4330 N   0  0  0  0  0  0  0  0  0  0  0  0
   36.5730   28.9830   41.1790 C   0  0  0  0  0  0  0  0  0  0  0  0
   36.6820   28.5320   39.9320 N   0  0  0  0  0  0  0  0  0  0  0  0
   36.8660   28.9990   37.9010 H   0  0  0  0  0  0  0  0  0  0  0  0
   36.8460   31.4150   38.2460 H   0  0  0  0  0  0  0  0  0  0  0  0
   36.6390   32.2880   40.6010 H   0  0  0  0  0  0  0  0  0  0  0  0
   36.4800   28.0210   42.1690 O   0  0  0  0  0  0  0  0  0  0  0  0
   37.5390   27.1400   42.3440 C   0  0  0  0  0  3  0  0  0  0  0  0
   38.4210   27.3870   43.3250 C   0  0  0  0  0  3  0  0  0  0  0  0
   39.6140   26.5790   43.6780 C   0  0  0  0  0  2  0  0  0  0  0  0
   39.8610   25.8170   42.9110 H   0  0  0  0  0  0  0  0  0  0  0  0
  1  2  2  0  0  0  0
  1  6  1  0  0  0  0
  2  3  1  0  0  0  0
  3  9  1  0  0  0  0
  3  4  2  0  0  0  0
  5  4  1  0  0  0  0
  5 10  1  0  0  0  0
  6  5  2  0  0  0  0
  7  1  1  0  0  0  0
  8  2  1  0  0  0  0
 10 11  1  0  0  0  0
 11 12  2  0  0  0  0
 12 13  1  0  0  0  0
 14 13  1  0  0  0  0
M  END
>  <minimizedAffinity>
-3.09790111

$$$$

 OpenBabel03242517513D

 14 14  0  0  0  0  0  0  0  0999 V2000
   39.2970   27.8520   42.9880 C   0  0  0  0  0  0  0  0  0  0  0  0
   38.6140   29.0750   42.8010 C   0  0  0  0  0  0  0  0  0  0  0  0
   37.2360   28.9880   42.4730 C   0  0  0  0  0  0  0  0  0  0  0  0
   36.6730   27.7690   42.3590 N   0  0  0  0  0  0  0  0  0  0  0  0
   37.3720   26.6290   42.5480 C   0  0  0  0  0  0  0  0  0  0  0  0
   38.6640   26.6700   42.8570 N   0  0  0  0  0  0  0  0  0  0  0  0
   40.3470   27.8530   43.2390 H   0  0  0  0  0  0  0  0  0  0  0  0
   39.1800   29.9730   42.9210 H   0  0  0  0  0  0  0  0  0  0  0  0
   36.7300   29.9160   42.3340 H   0  0  0  0  0  0  0  0  0  0  0  0
   36.8110   25.3690   42.4360 O   0  0  0  0  0  0  0  0  0  0  0  0
   37.6280   24.3050   42.0800 C   0  0  0  0  0  3  0  0  0  0  0  0
   37.4100   23.6950   40.9050 C   0  0  0  0  0  3  0  0  0  0  0  0
   38.1620   22.5480   40.3400 C   0  0  0  0  0  2  0  0  0  0  0  0
   38.8330   22.0660   41.0800 H   0  0  0  0  0  0  0  0  0  0  0  0
  1  7  1  0  0  0  0
  2  8  1  0  0  0  0
  2  1  2  0  0  0  0
  3  2  1  0  0  0  0
  4  3  2  0  0  0  0
  4  5  1  0  0  0  0
  5  6  2  0  0  0  0
  6  1  1  0  0  0  0
  9  3  1  0  0  0  0
 10  5  1  0  0  0  0
 11 10  1  0  0  0  0
 12 11  2  0  0  0  0
 13 12  1  0  0  0  0
 13 14  1  0  0  0  0
M  END
>  <minimizedAffinity>
-3.07495832

$$$$

 OpenBabel03242517513D

 14 14  0  0  0  0  0  0  0  0999 V2000
   37.2480   29.5450   42.0190 C   0  0  0  0  0  0  0  0  0  0  0  0
   38.5660   29.7960   42.4610 C   0  0  0  0  0  0  0  0  0  0  0  0
   39.2800   28.6890   42.9870 C   0  0  0  0  0  0  0  0  0  0  0  0
   38.6700   27.4880   43.0360 N   0  0  0  0  0  0  0  0  0  0  0  0
   37.4060   27.3010   42.5990 C   0  0  0  0  0  0  0  0  0  0  0  0
   36.7050   28.3150   42.0990 N   0  0  0  0  0  0  0  0  0  0  0  0
   36.6540   30.3480   41.6080 H   0  0  0  0  0  0  0  0  0  0  0  0
   38.9300   30.7960   42.3660 H   0  0  0  0  0  0  0  0  0  0  0  0
   40.2740   28.8890   43.3180 H   0  0  0  0  0  0  0  0  0  0  0  0
   36.7630   26.0770   42.6400 O   0  0  0  0  0  0  0  0  0  0  0  0
   37.4150   24.9650   42.1230 C   0  0  0  0  0  3  0  0  0  0  0  0
   36.8200   24.2740   41.1390 C   0  0  0  0  0  3  0  0  0  0  0  0
   37.3400   23.0660   40.4540 C   0  0  0  0  0  2  0  0  0  0  0  0
   38.2170   22.6220   40.9680 H   0  0  0  0  0  0  0  0  0  0  0  0
  1  6  2  0  0  0  0
  1  2  1  0  0  0  0
  2  3  2  0  0  0  0
  3  4  1  0  0  0  0
  3  9  1  0  0  0  0
  5 10  1  0  0  0  0
  5  4  2  0  0  0  0
  6  5  1  0  0  0  0
  7  1  1  0  0  0  0
  8  2  1  0  0  0  0
 11 10  1  0  0  0  0
 12 11  2  0  0  0  0
 13 14  1  0  0  0  0
 13 12  1  0  0  0  0
M  END
>  <minimizedAffinity>
-3.03908753

$$$$
