REMARK  Name = 
REMARK  4 active torsions:
REMARK  status: ('A' for Active; 'I' for Inactive)
REMARK    1  A    between atoms: C_2  and  C_7
REMARK    2  A    between atoms: C_7  and  O_8
REMARK    3  A    between atoms: O_8  and  C_14
REMARK    4  A    between atoms: C_15  and  C_16
REMARK                            x       y       z     vdW  Elec       q    Type
REMARK                         _______ _______ _______ _____ _____    ______ ____
ROOT
ATOM      1  C   UNL     1      44.382  35.764  44.400  0.00  0.00    +0.000 A 
ATOM      2  C   UNL     1      44.661  35.052  43.236  0.00  0.00    +0.000 A 
ATOM      3  C   UNL     1      45.282  33.827  43.383  0.00  0.00    +0.000 A 
ATOM      4  N   UNL     1      45.572  33.411  44.617  0.00  0.00    +0.000 NA
ATOM      5  C   UNL     1      45.300  34.103  45.731  0.00  0.00    +0.000 A 
ATOM      6  N   UNL     1      44.682  35.330  45.655  0.00  0.00    +0.000 NA
ATOM      7  H   UNL     1      43.894  36.742  44.401  0.00  0.00    +0.000 HD
ATOM      8  H   UNL     1      45.486  33.297  42.463  0.00  0.00    +0.000 HD
ATOM      9  H   UNL     1      45.552  33.727  46.696  0.00  0.00    +0.000 HD
ENDROOT
BRANCH   2  10
ATOM     10  C   UNL     1      44.252  35.705  41.992  0.00  0.00    +0.000 C 
ATOM     11  H   UNL     1      44.957  35.418  41.161  0.00  0.00    +0.000 HD
ATOM     12  H   UNL     1      44.338  36.807  42.072  0.00  0.00    +0.000 HD
BRANCH  10  13
ATOM     13  O   UNL     1      42.962  35.391  41.589  0.00  0.00    +0.000 OA
BRANCH  13  14
ATOM     14  C   UNL     1      42.324  35.858  40.466  0.00  0.00    +0.000 C 
ATOM     15  C   UNL     1      42.561  35.292  39.271  0.00  0.00    +0.000 C 
BRANCH  15  16
ATOM     16  C   UNL     1      41.990  35.628  37.930  0.00  0.00    +0.000 C 
ATOM     17  H   UNL     1      42.816  36.068  37.339  0.00  0.00    +0.000 HD
ENDBRANCH  15  16
ENDBRANCH  13  14
ENDBRANCH  10  13
ENDBRANCH   2  10
TORSDOF 4
