
 OpenBabel03252505103D

 39 41  0  0  1  0  0  0  0  0999 V2000
   44.5740   35.5930   44.6170 C   0  0  0  0  0  0  0  0  0  0  0  0
   45.2300   35.6020   43.3700 C   0  0  0  0  0  0  0  0  0  0  0  0
   46.3200   34.6900   43.1830 C   0  0  0  0  0  0  0  0  0  0  0  0
   46.6640   33.8720   44.2070 N   0  0  0  0  0  0  0  0  0  0  0  0
   46.0160   33.8930   45.3780 C   0  0  0  0  0  0  0  0  0  0  0  0
   44.9640   34.7560   45.5930 N   0  0  0  0  0  0  0  0  0  0  0  0
   43.7520   36.2600   44.8030 H   0  0  0  0  0  0  0  0  0  0  0  0
   44.9170   36.2770   42.5820 H   0  0  0  0  0  0  0  0  0  0  0  0
   46.4350   32.9780   46.4760 C   0  0  2  0  0  0  0  0  0  0  0  0
   46.9550   31.7420   45.7690 C   0  0  0  0  0  0  0  0  0  0  0  0
   46.0810   30.5650   45.7850 C   0  0  0  0  0  0  0  0  0  0  0  0
   45.8030   30.3050   47.2680 C   0  0  0  0  0  0  0  0  0  0  0  0
   44.9940   31.3710   47.8840 C   0  0  0  0  0  0  0  0  0  0  0  0
   45.3850   32.7340   47.4190 C   0  0  0  0  0  0  0  0  0  0  0  0
   47.2980   33.4800   46.9620 H   0  0  0  0  0  0  0  0  0  0  0  0
   47.2460   31.9370   44.7150 H   0  0  0  0  0  0  0  0  0  0  0  0
   47.9230   31.4420   46.2530 H   0  0  0  0  0  0  0  0  0  0  0  0
   46.6480   29.6980   45.4410 H   0  0  0  0  0  0  0  0  0  0  0  0
   45.1540   30.7120   45.2190 H   0  0  0  0  0  0  0  0  0  0  0  0
   45.2120   29.3960   47.3500 H   0  0  0  0  0  0  0  0  0  0  0  0
   46.7840   30.2640   47.7690 H   0  0  0  0  0  0  0  0  0  0  0  0
   44.1990   31.3490   48.5850 H   0  0  0  0  0  0  0  0  0  0  0  0
   44.6830   33.8720   47.9290 N   0  0  0  0  0  0  0  0  0  0  0  0
   43.6500   33.8320   47.7240 H   0  0  0  0  0  0  0  0  0  0  0  0
   45.2950   34.5580   48.4210 H   0  0  0  0  0  0  0  0  0  0  0  0
   47.0100   34.6730   41.9070 C   0  0  0  0  0  0  0  0  0  0  0  0
   48.1440   35.3880   41.7680 C   0  0  0  0  0  0  0  0  0  0  0  0
   48.7720   35.3370   40.5140 C   0  0  0  0  0  0  0  0  0  0  0  0
   48.1680   34.5680   39.5570 C   0  0  0  0  0  0  0  0  0  0  0  0
   47.0290   33.8490   39.6950 C   0  0  0  0  0  0  0  0  0  0  0  0
   46.4540   33.9240   40.9210 N   0  0  0  0  0  0  0  0  0  0  0  0
   48.5510   35.9740   42.5920 H   0  0  0  0  0  0  0  0  0  0  0  0
   49.6800   35.8960   40.3690 H   0  0  0  0  0  0  0  0  0  0  0  0
   48.6930   34.5620   38.6020 H   0  0  0  0  0  0  0  0  0  0  0  0
   46.4760   33.0880   38.6680 O   0  0  0  0  0  0  0  0  0  0  0  0
   47.2140   32.4500   37.7150 C   0  0  0  0  0  3  0  0  0  0  0  0
   47.1430   32.7130   36.4310 C   0  0  0  0  0  3  0  0  0  0  0  0
   47.7720   32.2310   35.1850 C   0  0  0  0  0  2  0  0  0  0  0  0
   48.2390   33.0630   34.5980 H   0  0  0  0  0  0  0  0  0  0  0  0
  1  7  1  0  0  0  0
  1  6  1  0  0  0  0
  2  1  2  0  0  0  0
  3  2  1  0  0  0  0
  3  4  2  0  0  0  0
  4  5  1  0  0  0  0
  5  6  2  0  0  0  0
  5  9  1  0  0  0  0
  8  2  1  0  0  0  0
  9 15  1  1  0  0  0
  9 14  1  0  0  0  0
 10 11  1  0  0  0  0
 10 17  1  0  0  0  0
 10  9  1  0  0  0  0
 11 12  1  0  0  0  0
 12 20  1  0  0  0  0
 12 21  1  0  0  0  0
 12 13  1  0  0  0  0
 13 22  1  0  0  0  0
 14 13  2  0  0  0  0
 14 23  1  0  0  0  0
 16 10  1  0  0  0  0
 18 11  1  0  0  0  0
 19 11  1  0  0  0  0
 23 25  1  0  0  0  0
 24 23  1  0  0  0  0
 26  3  1  0  0  0  0
 27 26  1  0  0  0  0
 27 32  1  0  0  0  0
 28 27  2  0  0  0  0
 29 30  2  0  0  0  0
 29 28  1  0  0  0  0
 30 31  1  0  0  0  0
 31 26  2  0  0  0  0
 33 28  1  0  0  0  0
 34 29  1  0  0  0  0
 35 30  1  0  0  0  0
 36 35  1  0  0  0  0
 37 36  2  0  0  0  0
 38 37  1  0  0  0  0
 39 38  1  0  0  0  0
M  END
>  <minimizedAffinity>
-6.80626059

>  <minimizedRMSD>
0.535732329

$$$$
