
 OpenBabel03252505103D

 39 41  0  0  1  0  0  0  0  0999 V2000
   44.5680   35.5940   44.6080 C   0  0  0  0  0  0  0  0  0  0  0  0
   45.2260   35.6060   43.3610 C   0  0  0  0  0  0  0  0  0  0  0  0
   46.3180   34.6970   43.1760 C   0  0  0  0  0  0  0  0  0  0  0  0
   46.6630   33.8790   44.2000 N   0  0  0  0  0  0  0  0  0  0  0  0
   46.0130   33.8980   45.3700 C   0  0  0  0  0  0  0  0  0  0  0  0
   44.9580   34.7580   45.5840 N   0  0  0  0  0  0  0  0  0  0  0  0
   43.7430   36.2590   44.7930 H   0  0  0  0  0  0  0  0  0  0  0  0
   44.9120   36.2810   42.5740 H   0  0  0  0  0  0  0  0  0  0  0  0
   46.4330   32.9830   46.4680 C   0  0  2  0  0  0  0  0  0  0  0  0
   46.9530   31.7470   45.7620 C   0  0  0  0  0  0  0  0  0  0  0  0
   46.0790   30.5700   45.7790 C   0  0  0  0  0  0  0  0  0  0  0  0
   45.8020   30.3110   47.2610 C   0  0  0  0  0  0  0  0  0  0  0  0
   44.9930   31.3760   47.8780 C   0  0  0  0  0  0  0  0  0  0  0  0
   45.3830   32.7390   47.4120 C   0  0  0  0  0  0  0  0  0  0  0  0
   47.2960   33.4850   46.9530 H   0  0  0  0  0  0  0  0  0  0  0  0
   47.2430   31.9420   44.7070 H   0  0  0  0  0  0  0  0  0  0  0  0
   47.9210   31.4480   46.2450 H   0  0  0  0  0  0  0  0  0  0  0  0
   46.6460   29.7030   45.4340 H   0  0  0  0  0  0  0  0  0  0  0  0
   45.1520   30.7170   45.2130 H   0  0  0  0  0  0  0  0  0  0  0  0
   45.2120   29.4020   47.3430 H   0  0  0  0  0  0  0  0  0  0  0  0
   46.7840   30.2700   47.7620 H   0  0  0  0  0  0  0  0  0  0  0  0
   44.1980   31.3540   48.5790 H   0  0  0  0  0  0  0  0  0  0  0  0
   44.6810   33.8780   47.9220 N   0  0  0  0  0  0  0  0  0  0  0  0
   43.6480   33.8360   47.7170 H   0  0  0  0  0  0  0  0  0  0  0  0
   45.2940   34.5640   48.4130 H   0  0  0  0  0  0  0  0  0  0  0  0
   47.0110   34.6820   41.9020 C   0  0  0  0  0  0  0  0  0  0  0  0
   48.1550   35.3840   41.7710 C   0  0  0  0  0  0  0  0  0  0  0  0
   48.7830   35.3370   40.5170 C   0  0  0  0  0  0  0  0  0  0  0  0
   48.1720   34.5840   39.5520 C   0  0  0  0  0  0  0  0  0  0  0  0
   47.0230   33.8790   39.6820 C   0  0  0  0  0  0  0  0  0  0  0  0
   46.4460   33.9500   40.9070 N   0  0  0  0  0  0  0  0  0  0  0  0
   48.5670   35.9570   42.6010 H   0  0  0  0  0  0  0  0  0  0  0  0
   49.6990   35.8850   40.3790 H   0  0  0  0  0  0  0  0  0  0  0  0
   48.6990   34.5800   38.5980 H   0  0  0  0  0  0  0  0  0  0  0  0
   46.4620   33.1350   38.6470 O   0  0  0  0  0  0  0  0  0  0  0  0
   46.7620   33.3210   37.3290 C   0  0  0  0  0  3  0  0  0  0  0  0
   47.3160   32.4090   36.5650 C   0  0  0  0  0  3  0  0  0  0  0  0
   47.7540   32.2880   35.1610 C   0  0  0  0  0  2  0  0  0  0  0  0
   47.2910   31.4070   34.6460 H   0  0  0  0  0  0  0  0  0  0  0  0
  1  7  1  0  0  0  0
  1  6  1  0  0  0  0
  2  1  2  0  0  0  0
  3  2  1  0  0  0  0
  3  4  2  0  0  0  0
  4  5  1  0  0  0  0
  5  6  2  0  0  0  0
  5  9  1  0  0  0  0
  8  2  1  0  0  0  0
  9 15  1  1  0  0  0
  9 14  1  0  0  0  0
 10 11  1  0  0  0  0
 10 17  1  0  0  0  0
 10  9  1  0  0  0  0
 11 12  1  0  0  0  0
 12 20  1  0  0  0  0
 12 21  1  0  0  0  0
 12 13  1  0  0  0  0
 13 22  1  0  0  0  0
 14 13  2  0  0  0  0
 14 23  1  0  0  0  0
 16 10  1  0  0  0  0
 18 11  1  0  0  0  0
 19 11  1  0  0  0  0
 23 25  1  0  0  0  0
 24 23  1  0  0  0  0
 26  3  1  0  0  0  0
 27 26  1  0  0  0  0
 27 32  1  0  0  0  0
 28 27  2  0  0  0  0
 29 30  2  0  0  0  0
 29 28  1  0  0  0  0
 30 31  1  0  0  0  0
 31 26  2  0  0  0  0
 33 28  1  0  0  0  0
 34 29  1  0  0  0  0
 35 30  1  0  0  0  0
 36 35  1  0  0  0  0
 37 36  2  0  0  0  0
 38 37  1  0  0  0  0
 39 38  1  0  0  0  0
M  END
>  <minimizedAffinity>
-6.86871052

>  <minimizedRMSD>
0.311822563

$$$$
