
 OpenBabel03242523133D

 41 44  0  0  1  0  0  0  0  0999 V2000
   38.3530   29.5810   42.7590 C   0  0  0  0  0  0  0  0  0  0  0  0
   37.7540   29.7770   41.5170 C   0  0  0  0  0  0  0  0  0  0  0  0
   36.8400   28.8690   41.0720 C   0  0  0  0  0  0  0  0  0  0  0  0
   36.5690   27.8030   41.8890 N   0  0  0  0  0  0  0  0  0  0  0  0
   37.1460   27.6220   43.0760 C   0  0  0  0  0  0  0  0  0  0  0  0
   38.0260   28.5000   43.5020 N   0  0  0  0  0  0  0  0  0  0  0  0
   39.0850   30.2950   43.1320 H   0  0  0  0  0  0  0  0  0  0  0  0
   36.9730   26.8030   43.7610 H   0  0  0  0  0  0  0  0  0  0  0  0
   38.1410   30.8970   40.7880 N   0  0  0  0  0  0  0  0  0  0  0  0
   39.4340   31.0160   40.2020 C   0  0  0  0  0  0  0  0  0  0  0  0
   39.6120   32.2140   39.3080 C   0  0  0  0  0  0  0  0  0  0  0  0
   38.5270   32.5170   38.4950 N   0  0  0  0  0  0  0  0  0  0  0  0
   37.2810   32.4430   39.0820 C   0  0  0  0  0  0  0  0  0  0  0  0
   37.3480   32.0340   40.5380 C   0  0  0  0  0  0  0  0  0  0  0  0
   40.1740   31.1370   41.0210 H   0  0  0  0  0  0  0  0  0  0  0  0
   39.7700   30.0980   39.6590 H   0  0  0  0  0  0  0  0  0  0  0  0
   39.9170   33.0910   39.9250 H   0  0  0  0  0  0  0  0  0  0  0  0
   40.5120   31.9920   38.6670 H   0  0  0  0  0  0  0  0  0  0  0  0
   38.6990   33.3860   37.9720 H   0  0  0  0  0  0  0  0  0  0  0  0
   36.8090   33.4690   39.0740 H   0  0  0  0  0  0  0  0  0  0  0  0
   36.5350   31.7890   38.5860 H   0  0  0  0  0  0  0  0  0  0  0  0
   36.3000   31.9460   40.9010 H   0  0  0  0  0  0  0  0  0  0  0  0
   37.7680   32.8960   41.1260 H   0  0  0  0  0  0  0  0  0  0  0  0
   34.7350   29.1970   40.0770 C   0  0  0  0  0  0  0  0  0  0  0  0
   36.0670   28.7630   39.9100 C   0  0  0  0  0  0  0  0  0  0  0  0
   36.2840   28.2900   38.6370 C   0  0  0  0  0  0  0  0  0  0  0  0
   35.3630   28.2260   37.6380 C   0  0  0  0  0  0  0  0  0  0  0  0
   34.0680   28.6700   37.8840 C   0  0  0  0  0  0  0  0  0  0  0  0
   33.7520   29.1650   39.1270 C   0  0  0  0  0  0  0  0  0  0  0  0
   33.3880   28.4700   36.6940 O   0  0  0  0  0  0  0  0  0  0  0  0
   34.2540   27.9420   35.7200 C   0  0  2  0  0  0  0  0  0  0  0  0
   35.5230   27.7650   36.3460 O   0  0  0  0  0  0  0  0  0  0  0  0
   34.2390   29.6380   40.9670 H   0  0  0  0  0  0  0  0  0  0  0  0
   37.2670   27.9650   38.4940 H   0  0  0  0  0  0  0  0  0  0  0  0
   32.7390   29.4740   39.1950 H   0  0  0  0  0  0  0  0  0  0  0  0
   33.8860   27.0040   35.2770 H   0  0  0  0  0  0  0  0  0  0  0  0
   34.4030   28.9480   34.7270 O   0  0  0  0  0  0  0  0  0  0  0  0
   35.6640   29.1010   34.1750 C   0  0  0  0  0  3  0  0  0  0  0  0
   36.6060   29.7720   33.5370 C   0  0  0  0  0  3  0  0  0  0  0  0
   36.2460   31.1490   33.1170 C   0  0  0  0  0  2  0  0  0  0  0  0
   36.9750   31.4560   32.3250 H   0  0  0  0  0  0  0  0  0  0  0  0
  1  7  1  0  0  0  0
  1  6  1  0  0  0  0
  2  1  2  0  0  0  0
  3  2  1  0  0  0  0
  3  4  2  0  0  0  0
  4  5  1  0  0  0  0
  5  6  2  0  0  0  0
  5  8  1  0  0  0  0
  9  2  1  0  0  0  0
 10  9  1  0  0  0  0
 10 15  1  0  0  0  0
 11 17  1  0  0  0  0
 11 10  1  0  0  0  0
 12 13  1  0  0  0  0
 12 11  1  0  0  0  0
 13 14  1  0  0  0  0
 14  9  1  0  0  0  0
 14 22  1  0  0  0  0
 14 23  1  0  0  0  0
 16 10  1  0  0  0  0
 18 11  1  0  0  0  0
 19 12  1  0  0  0  0
 20 13  1  0  0  0  0
 21 13  1  0  0  0  0
 24 33  1  0  0  0  0
 25 24  1  0  0  0  0
 25  3  1  0  0  0  0
 26 25  2  0  0  0  0
 27 28  2  0  0  0  0
 27 26  1  0  0  0  0
 28 29  1  0  0  0  0
 29 35  1  0  0  0  0
 29 24  2  0  0  0  0
 30 28  1  0  0  0  0
 31 36  1  6  0  0  0
 31 32  1  0  0  0  0
 31 30  1  0  0  0  0
 32 27  1  0  0  0  0
 34 26  1  0  0  0  0
 37 31  1  0  0  0  0
 38 37  1  0  0  0  0
 39 38  2  0  0  0  0
 40 39  1  0  0  0  0
 41 40  1  0  0  0  0
M  END
>  <minimizedAffinity>
-5.73142195

$$$$

 OpenBabel03242523133D

 41 44  0  0  1  0  0  0  0  0999 V2000
   42.5580   33.3570   40.5220 C   0  0  0  0  0  0  0  0  0  0  0  0
   41.7560   32.2220   40.6110 C   0  0  0  0  0  0  0  0  0  0  0  0
   41.7870   31.4770   41.7530 C   0  0  0  0  0  0  0  0  0  0  0  0
   42.6230   31.9000   42.7530 N   0  0  0  0  0  0  0  0  0  0  0  0
   43.3880   32.9880   42.6590 C   0  0  0  0  0  0  0  0  0  0  0  0
   43.3540   33.7030   41.5590 N   0  0  0  0  0  0  0  0  0  0  0  0
   42.5460   33.9660   39.6190 H   0  0  0  0  0  0  0  0  0  0  0  0
   44.0640   33.3690   43.4120 H   0  0  0  0  0  0  0  0  0  0  0  0
   40.9690   31.9040   39.5090 N   0  0  0  0  0  0  0  0  0  0  0  0
   39.6300   32.3710   39.3680 C   0  0  0  0  0  0  0  0  0  0  0  0
   38.9970   32.0730   38.0340 C   0  0  0  0  0  0  0  0  0  0  0  0
   39.8310   32.2210   36.9330 N   0  0  0  0  0  0  0  0  0  0  0  0
   41.1110   31.7260   37.0620 C   0  0  0  0  0  0  0  0  0  0  0  0
   41.3590   31.1030   38.4180 C   0  0  0  0  0  0  0  0  0  0  0  0
   39.0030   31.8530   40.1230 H   0  0  0  0  0  0  0  0  0  0  0  0
   39.5030   33.4580   39.6010 H   0  0  0  0  0  0  0  0  0  0  0  0
   38.5370   31.0580   38.0650 H   0  0  0  0  0  0  0  0  0  0  0  0
   38.1230   32.7770   37.9420 H   0  0  0  0  0  0  0  0  0  0  0  0
   39.3480   31.9300   36.0730 H   0  0  0  0  0  0  0  0  0  0  0  0
   41.2630   30.8960   36.3120 H   0  0  0  0  0  0  0  0  0  0  0  0
   41.9410   32.4350   36.8640 H   0  0  0  0  0  0  0  0  0  0  0  0
   42.4270   30.7900   38.4440 H   0  0  0  0  0  0  0  0  0  0  0  0
   40.7910   30.1330   38.4690 H   0  0  0  0  0  0  0  0  0  0  0  0
   39.7620   30.5140   42.4580 C   0  0  0  0  0  0  0  0  0  0  0  0
   41.1280   30.3150   42.1690 C   0  0  0  0  0  0  0  0  0  0  0  0
   41.5080   29.0150   42.4100 C   0  0  0  0  0  0  0  0  0  0  0  0
   40.7050   28.0190   42.8710 C   0  0  0  0  0  0  0  0  0  0  0  0
   39.3680   28.2970   43.1360 C   0  0  0  0  0  0  0  0  0  0  0  0
   38.8910   29.5680   42.9240 C   0  0  0  0  0  0  0  0  0  0  0  0
   38.8350   27.1010   43.5870 O   0  0  0  0  0  0  0  0  0  0  0  0
   39.8160   26.0920   43.5710 C   0  0  2  0  0  0  0  0  0  0  0  0
   41.0270   26.7010   43.1300 O   0  0  0  0  0  0  0  0  0  0  0  0
   39.1430   31.4300   42.3630 H   0  0  0  0  0  0  0  0  0  0  0  0
   42.5170   28.8480   42.2010 H   0  0  0  0  0  0  0  0  0  0  0  0
   37.8600   29.6590   43.1590 H   0  0  0  0  0  0  0  0  0  0  0  0
   39.9420   25.5960   44.5450 H   0  0  0  0  0  0  0  0  0  0  0  0
   39.4170   25.1600   42.5750 O   0  0  0  0  0  0  0  0  0  0  0  0
   38.0570   25.0340   42.3460 C   0  0  0  0  0  3  0  0  0  0  0  0
   36.9970   24.5100   41.7560 C   0  0  0  0  0  3  0  0  0  0  0  0
   37.2730   23.4520   40.7530 C   0  0  0  0  0  2  0  0  0  0  0  0
   36.3580   23.3510   40.1160 H   0  0  0  0  0  0  0  0  0  0  0  0
  1  2  2  0  0  0  0
  1  6  1  0  0  0  0
  2  3  1  0  0  0  0
  3 25  1  0  0  0  0
  3  4  2  0  0  0  0
  5  4  1  0  0  0  0
  5  8  1  0  0  0  0
  6  5  2  0  0  0  0
  7  1  1  0  0  0  0
  9  2  1  0  0  0  0
 10  9  1  0  0  0  0
 10 16  1  0  0  0  0
 10 15  1  0  0  0  0
 11 17  1  0  0  0  0
 11 10  1  0  0  0  0
 12 13  1  0  0  0  0
 12 11  1  0  0  0  0
 13 14  1  0  0  0  0
 14 22  1  0  0  0  0
 14 23  1  0  0  0  0
 14  9  1  0  0  0  0
 18 11  1  0  0  0  0
 19 12  1  0  0  0  0
 20 13  1  0  0  0  0
 21 13  1  0  0  0  0
 24 29  1  0  0  0  0
 25 26  1  0  0  0  0
 25 24  2  0  0  0  0
 26 27  2  0  0  0  0
 27 32  1  0  0  0  0
 27 28  1  0  0  0  0
 28 30  1  0  0  0  0
 29 28  2  0  0  0  0
 29 35  1  0  0  0  0
 31 30  1  0  0  0  0
 31 36  1  1  0  0  0
 32 31  1  0  0  0  0
 33 24  1  0  0  0  0
 34 26  1  0  0  0  0
 37 31  1  0  0  0  0
 38 37  1  0  0  0  0
 39 38  2  0  0  0  0
 40 39  1  0  0  0  0
 41 40  1  0  0  0  0
M  END
>  <minimizedAffinity>
-5.62799263

$$$$

 OpenBabel03242523133D

 41 44  0  0  1  0  0  0  0  0999 V2000
   37.5560   31.3780   36.9870 C   0  0  0  0  0  0  0  0  0  0  0  0
   37.9340   31.0190   38.2790 C   0  0  0  0  0  0  0  0  0  0  0  0
   37.6810   29.7530   38.7160 C   0  0  0  0  0  0  0  0  0  0  0  0
   37.0570   28.9030   37.8400 N   0  0  0  0  0  0  0  0  0  0  0  0
   36.6990   29.2540   36.6050 C   0  0  0  0  0  0  0  0  0  0  0  0
   36.9460   30.4750   36.1880 N   0  0  0  0  0  0  0  0  0  0  0  0
   37.7500   32.3850   36.6200 H   0  0  0  0  0  0  0  0  0  0  0  0
   36.2060   28.6290   35.8730 H   0  0  0  0  0  0  0  0  0  0  0  0
   38.5430   31.9940   39.0630 N   0  0  0  0  0  0  0  0  0  0  0  0
   37.8000   33.0110   39.7290 C   0  0  0  0  0  0  0  0  0  0  0  0
   38.6070   33.8680   40.6680 C   0  0  0  0  0  0  0  0  0  0  0  0
   39.5560   33.1910   41.4240 N   0  0  0  0  0  0  0  0  0  0  0  0
   40.3020   32.2390   40.7620 C   0  0  0  0  0  0  0  0  0  0  0  0
   39.9260   32.1180   39.3010 C   0  0  0  0  0  0  0  0  0  0  0  0
   37.3970   33.7020   38.9590 H   0  0  0  0  0  0  0  0  0  0  0  0
   36.8930   32.6330   40.2630 H   0  0  0  0  0  0  0  0  0  0  0  0
   39.0630   34.7090   40.0970 H   0  0  0  0  0  0  0  0  0  0  0  0
   37.8630   34.3620   41.3540 H   0  0  0  0  0  0  0  0  0  0  0  0
   40.1110   33.8530   41.9820 H   0  0  0  0  0  0  0  0  0  0  0  0
   41.3880   32.5490   40.7730 H   0  0  0  0  0  0  0  0  0  0  0  0
   40.3000   31.2170   41.1930 H   0  0  0  0  0  0  0  0  0  0  0  0
   40.5360   31.2920   38.8740 H   0  0  0  0  0  0  0  0  0  0  0  0
   40.2970   33.0350   38.7650 H   0  0  0  0  0  0  0  0  0  0  0  0
   36.8060   29.0400   40.7780 C   0  0  0  0  0  0  0  0  0  0  0  0
   37.9220   29.0760   39.9160 C   0  0  0  0  0  0  0  0  0  0  0  0
   39.0150   28.4640   40.4850 C   0  0  0  0  0  0  0  0  0  0  0  0
   39.0600   27.8910   41.7170 C   0  0  0  0  0  0  0  0  0  0  0  0
   37.9170   27.9010   42.5100 C   0  0  0  0  0  0  0  0  0  0  0  0
   36.7710   28.4870   42.0280 C   0  0  0  0  0  0  0  0  0  0  0  0
   38.2850   27.2580   43.6800 O   0  0  0  0  0  0  0  0  0  0  0  0
   39.6230   26.8280   43.6010 C   0  0  2  0  0  0  0  0  0  0  0  0
   40.1230   27.2630   42.3380 O   0  0  0  0  0  0  0  0  0  0  0  0
   35.7770   29.4290   40.6240 H   0  0  0  0  0  0  0  0  0  0  0  0
   39.8510   28.4790   39.8600 H   0  0  0  0  0  0  0  0  0  0  0  0
   35.9660   28.4320   42.7180 H   0  0  0  0  0  0  0  0  0  0  0  0
   40.2440   27.1950   44.4320 H   0  0  0  0  0  0  0  0  0  0  0  0
   39.5880   25.4080   43.5820 O   0  0  0  0  0  0  0  0  0  0  0  0
   39.2770   24.8050   42.3740 C   0  0  0  0  0  3  0  0  0  0  0  0
   38.4460   24.3240   41.4670 C   0  0  0  0  0  3  0  0  0  0  0  0
   37.0030   24.4160   41.8010 C   0  0  0  0  0  2  0  0  0  0  0  0
   36.4620   23.6940   41.1380 H   0  0  0  0  0  0  0  0  0  0  0  0
  1  2  1  0  0  0  0
  2  3  2  0  0  0  0
  2  9  1  0  0  0  0
  3 25  1  0  0  0  0
  4  3  1  0  0  0  0
  5  4  2  0  0  0  0
  6  5  1  0  0  0  0
  6  1  2  0  0  0  0
  7  1  1  0  0  0  0
  8  5  1  0  0  0  0
  9 14  1  0  0  0  0
  9 10  1  0  0  0  0
 10 16  1  0  0  0  0
 10 11  1  0  0  0  0
 11 18  1  0  0  0  0
 11 12  1  0  0  0  0
 12 19  1  0  0  0  0
 13 20  1  0  0  0  0
 13 21  1  0  0  0  0
 13 12  1  0  0  0  0
 14 13  1  0  0  0  0
 15 10  1  0  0  0  0
 17 11  1  0  0  0  0
 22 14  1  0  0  0  0
 23 14  1  0  0  0  0
 24 29  1  0  0  0  0
 25 26  1  0  0  0  0
 25 24  2  0  0  0  0
 26 27  2  0  0  0  0
 27 32  1  0  0  0  0
 27 28  1  0  0  0  0
 28 30  1  0  0  0  0
 29 28  2  0  0  0  0
 29 35  1  0  0  0  0
 31 30  1  0  0  0  0
 31 36  1  1  0  0  0
 32 31  1  0  0  0  0
 33 24  1  0  0  0  0
 34 26  1  0  0  0  0
 37 31  1  0  0  0  0
 38 37  1  0  0  0  0
 39 40  1  0  0  0  0
 39 38  2  0  0  0  0
 41 40  1  0  0  0  0
M  END
>  <minimizedAffinity>
-5.61116648

$$$$

 OpenBabel03242523133D

 41 44  0  0  1  0  0  0  0  0999 V2000
   37.3240   32.7540   39.3450 C   0  0  0  0  0  0  0  0  0  0  0  0
   37.3930   31.4250   39.7570 C   0  0  0  0  0  0  0  0  0  0  0  0
   38.2590   31.0850   40.7540 C   0  0  0  0  0  0  0  0  0  0  0  0
   39.0210   32.0910   41.2910 N   0  0  0  0  0  0  0  0  0  0  0  0
   38.9490   33.3600   40.8900 C   0  0  0  0  0  0  0  0  0  0  0  0
   38.1120   33.6830   39.9310 N   0  0  0  0  0  0  0  0  0  0  0  0
   36.6390   33.0460   38.5510 H   0  0  0  0  0  0  0  0  0  0  0  0
   39.5220   34.1920   41.2750 H   0  0  0  0  0  0  0  0  0  0  0  0
   36.5720   30.5090   39.1090 N   0  0  0  0  0  0  0  0  0  0  0  0
   36.7830   30.1220   37.7530 C   0  0  0  0  0  0  0  0  0  0  0  0
   35.9060   28.9950   37.2770 C   0  0  0  0  0  0  0  0  0  0  0  0
   35.6990   27.9730   38.1940 N   0  0  0  0  0  0  0  0  0  0  0  0
   35.4510   28.3560   39.4940 C   0  0  0  0  0  0  0  0  0  0  0  0
   35.4540   29.8600   39.6680 C   0  0  0  0  0  0  0  0  0  0  0  0
   36.5400   30.9910   37.1060 H   0  0  0  0  0  0  0  0  0  0  0  0
   37.8500   29.8870   37.5110 H   0  0  0  0  0  0  0  0  0  0  0  0
   34.9410   29.4130   36.9060 H   0  0  0  0  0  0  0  0  0  0  0  0
   36.4060   28.5800   36.3560 H   0  0  0  0  0  0  0  0  0  0  0  0
   35.0350   27.2820   37.8210 H   0  0  0  0  0  0  0  0  0  0  0  0
   34.4140   28.0170   39.7870 H   0  0  0  0  0  0  0  0  0  0  0  0
   36.1140   27.9290   40.2740 H   0  0  0  0  0  0  0  0  0  0  0  0
   35.3060   30.0640   40.7510 H   0  0  0  0  0  0  0  0  0  0  0  0
   34.5260   30.2720   39.1840 H   0  0  0  0  0  0  0  0  0  0  0  0
   37.7610   29.6150   42.5190 C   0  0  0  0  0  0  0  0  0  0  0  0
   38.5720   29.8820   41.3960 C   0  0  0  0  0  0  0  0  0  0  0  0
   39.5230   28.9040   41.2200 C   0  0  0  0  0  0  0  0  0  0  0  0
   39.6980   27.8060   42.0040 C   0  0  0  0  0  0  0  0  0  0  0  0
   38.8580   27.6160   43.0970 C   0  0  0  0  0  0  0  0  0  0  0  0
   37.8730   28.5390   43.3550 C   0  0  0  0  0  0  0  0  0  0  0  0
   39.2900   26.4370   43.6800 O   0  0  0  0  0  0  0  0  0  0  0  0
   40.3570   25.8900   42.9430 C   0  0  2  0  0  0  0  0  0  0  0  0
   40.6290   26.7940   41.8750 O   0  0  0  0  0  0  0  0  0  0  0  0
   36.9040   30.1900   42.9290 H   0  0  0  0  0  0  0  0  0  0  0  0
   40.1330   29.0850   40.3910 H   0  0  0  0  0  0  0  0  0  0  0  0
   37.2960   28.2870   44.2100 H   0  0  0  0  0  0  0  0  0  0  0  0
   41.2530   25.7020   43.5540 H   0  0  0  0  0  0  0  0  0  0  0  0
   39.8710   24.6830   42.3700 O   0  0  0  0  0  0  0  0  0  0  0  0
   38.5230   24.4120   42.5330 C   0  0  0  0  0  3  0  0  0  0  0  0
   37.2510   24.4650   42.1800 C   0  0  0  0  0  3  0  0  0  0  0  0
   36.9590   25.1990   40.9230 C   0  0  0  0  0  2  0  0  0  0  0  0
   35.8690   25.4510   40.9300 H   0  0  0  0  0  0  0  0  0  0  0  0
  1  2  2  0  0  0  0
  1  6  1  0  0  0  0
  2  3  1  0  0  0  0
  3  4  2  0  0  0  0
  3 25  1  0  0  0  0
  5  8  1  0  0  0  0
  5  4  1  0  0  0  0
  6  5  2  0  0  0  0
  7  1  1  0  0  0  0
  9 14  1  0  0  0  0
  9  2  1  0  0  0  0
 10  9  1  0  0  0  0
 11 10  1  0  0  0  0
 11 12  1  0  0  0  0
 12 13  1  0  0  0  0
 13 14  1  0  0  0  0
 13 20  1  0  0  0  0
 13 21  1  0  0  0  0
 14 22  1  0  0  0  0
 15 10  1  0  0  0  0
 16 10  1  0  0  0  0
 17 11  1  0  0  0  0
 18 11  1  0  0  0  0
 19 12  1  0  0  0  0
 23 14  1  0  0  0  0
 24 33  1  0  0  0  0
 24 29  1  0  0  0  0
 25 24  2  0  0  0  0
 26 25  1  0  0  0  0
 26 27  2  0  0  0  0
 27 28  1  0  0  0  0
 28 29  2  0  0  0  0
 28 30  1  0  0  0  0
 29 35  1  0  0  0  0
 31 36  1  1  0  0  0
 31 30  1  0  0  0  0
 32 27  1  0  0  0  0
 32 31  1  0  0  0  0
 34 26  1  0  0  0  0
 37 38  1  0  0  0  0
 37 31  1  0  0  0  0
 39 38  2  0  0  0  0
 40 41  1  0  0  0  0
 40 39  1  0  0  0  0
M  END
>  <minimizedAffinity>
-5.5699749

$$$$

 OpenBabel03242523133D

 41 44  0  0  1  0  0  0  0  0999 V2000
   38.3140   29.6650   42.6850 C   0  0  0  0  0  0  0  0  0  0  0  0
   37.7410   29.6960   41.4160 C   0  0  0  0  0  0  0  0  0  0  0  0
   36.8590   28.7180   41.0630 C   0  0  0  0  0  0  0  0  0  0  0  0
   36.5930   27.7500   41.9960 N   0  0  0  0  0  0  0  0  0  0  0  0
   37.1460   27.7270   43.2090 C   0  0  0  0  0  0  0  0  0  0  0  0
   37.9940   28.6720   43.5450 N   0  0  0  0  0  0  0  0  0  0  0  0
   39.0200   30.4370   42.9860 H   0  0  0  0  0  0  0  0  0  0  0  0
   36.9750   26.9910   43.9830 H   0  0  0  0  0  0  0  0  0  0  0  0
   38.1190   30.7310   40.5670 N   0  0  0  0  0  0  0  0  0  0  0  0
   39.1810   30.5960   39.6260 C   0  0  0  0  0  0  0  0  0  0  0  0
   39.3310   31.7550   38.6770 C   0  0  0  0  0  0  0  0  0  0  0  0
   38.1420   32.2950   38.2040 N   0  0  0  0  0  0  0  0  0  0  0  0
   37.1340   32.4640   39.1290 C   0  0  0  0  0  0  0  0  0  0  0  0
   37.5370   32.0130   40.5160 C   0  0  0  0  0  0  0  0  0  0  0  0
   40.1350   30.5410   40.1910 H   0  0  0  0  0  0  0  0  0  0  0  0
   39.1500   29.6430   39.0420 H   0  0  0  0  0  0  0  0  0  0  0  0
   39.9750   32.5340   39.1470 H   0  0  0  0  0  0  0  0  0  0  0  0
   39.9410   31.3690   37.8110 H   0  0  0  0  0  0  0  0  0  0  0  0
   38.3280   33.1230   37.6220 H   0  0  0  0  0  0  0  0  0  0  0  0
   36.9000   33.5650   39.2210 H   0  0  0  0  0  0  0  0  0  0  0  0
   36.1590   31.9900   38.8940 H   0  0  0  0  0  0  0  0  0  0  0  0
   36.6450   32.1330   41.1700 H   0  0  0  0  0  0  0  0  0  0  0  0
   38.2770   32.7540   40.9260 H   0  0  0  0  0  0  0  0  0  0  0  0
   36.2760   27.1390   39.4220 C   0  0  0  0  0  0  0  0  0  0  0  0
   36.1170   28.4540   39.9060 C   0  0  0  0  0  0  0  0  0  0  0  0
   35.2910   29.1920   39.0910 C   0  0  0  0  0  0  0  0  0  0  0  0
   34.6880   28.7530   37.9540 C   0  0  0  0  0  0  0  0  0  0  0  0
   34.8990   27.4420   37.5400 C   0  0  0  0  0  0  0  0  0  0  0  0
   35.7080   26.6220   38.2900 C   0  0  0  0  0  0  0  0  0  0  0  0
   34.1660   27.3120   36.3720 O   0  0  0  0  0  0  0  0  0  0  0  0
   33.4890   28.5110   36.0840 C   0  0  2  0  0  0  0  0  0  0  0  0
   33.8510   29.4440   37.0990 O   0  0  0  0  0  0  0  0  0  0  0  0
   36.8600   26.2930   39.8430 H   0  0  0  0  0  0  0  0  0  0  0  0
   35.1600   30.1690   39.4350 H   0  0  0  0  0  0  0  0  0  0  0  0
   35.7910   25.6480   37.8780 H   0  0  0  0  0  0  0  0  0  0  0  0
   33.7070   28.9000   35.0780 H   0  0  0  0  0  0  0  0  0  0  0  0
   32.1030   28.2340   36.2320 O   0  0  0  0  0  0  0  0  0  0  0  0
   31.2950   29.2810   36.6420 C   0  0  0  0  0  3  0  0  0  0  0  0
   30.7300   30.4670   36.5050 C   0  0  0  0  0  3  0  0  0  0  0  0
   31.0620   31.2010   35.2590 C   0  0  0  0  0  2  0  0  0  0  0  0
   30.8080   32.2780   35.4290 H   0  0  0  0  0  0  0  0  0  0  0  0
  1  7  1  0  0  0  0
  1  6  1  0  0  0  0
  2  1  2  0  0  0  0
  3  2  1  0  0  0  0
  3  4  2  0  0  0  0
  4  5  1  0  0  0  0
  5  6  2  0  0  0  0
  5  8  1  0  0  0  0
  9  2  1  0  0  0  0
 10 15  1  0  0  0  0
 10  9  1  0  0  0  0
 11 17  1  0  0  0  0
 11 10  1  0  0  0  0
 12 11  1  0  0  0  0
 12 13  1  0  0  0  0
 13 20  1  0  0  0  0
 13 14  1  0  0  0  0
 14  9  1  0  0  0  0
 14 23  1  0  0  0  0
 14 22  1  0  0  0  0
 16 10  1  0  0  0  0
 18 11  1  0  0  0  0
 19 12  1  0  0  0  0
 21 13  1  0  0  0  0
 24 33  1  0  0  0  0
 24 25  1  0  0  0  0
 25  3  1  0  0  0  0
 26 34  1  0  0  0  0
 26 25  2  0  0  0  0
 27 26  1  0  0  0  0
 28 27  2  0  0  0  0
 28 29  1  0  0  0  0
 29 24  2  0  0  0  0
 30 28  1  0  0  0  0
 31 36  1  6  0  0  0
 31 37  1  0  0  0  0
 31 30  1  0  0  0  0
 31 32  1  0  0  0  0
 32 27  1  0  0  0  0
 35 29  1  0  0  0  0
 37 38  1  0  0  0  0
 39 38  2  0  0  0  0
 40 41  1  0  0  0  0
 40 39  1  0  0  0  0
M  END
>  <minimizedAffinity>
-5.48244762

$$$$

 OpenBabel03242523133D

 41 44  0  0  1  0  0  0  0  0999 V2000
   36.5550   24.9200   39.9970 C   0  0  0  0  0  0  0  0  0  0  0  0
   36.9840   26.1670   40.4460 C   0  0  0  0  0  0  0  0  0  0  0  0
   36.7400   27.2670   39.6790 C   0  0  0  0  0  0  0  0  0  0  0  0
   36.0790   27.0690   38.4950 N   0  0  0  0  0  0  0  0  0  0  0  0
   35.6710   25.8720   38.0720 C   0  0  0  0  0  0  0  0  0  0  0  0
   35.9080   24.8150   38.8150 N   0  0  0  0  0  0  0  0  0  0  0  0
   36.7400   24.0300   40.5960 H   0  0  0  0  0  0  0  0  0  0  0  0
   35.1480   25.6560   37.1510 H   0  0  0  0  0  0  0  0  0  0  0  0
   37.6590   26.2130   41.6610 N   0  0  0  0  0  0  0  0  0  0  0  0
   38.9960   25.7400   41.8100 C   0  0  0  0  0  0  0  0  0  0  0  0
   39.6210   26.0310   43.1480 C   0  0  0  0  0  0  0  0  0  0  0  0
   39.3390   27.2840   43.6780 N   0  0  0  0  0  0  0  0  0  0  0  0
   38.0340   27.7150   43.5700 C   0  0  0  0  0  0  0  0  0  0  0  0
   37.1440   26.7080   42.8750 C   0  0  0  0  0  0  0  0  0  0  0  0
   38.9810   24.6340   41.7160 H   0  0  0  0  0  0  0  0  0  0  0  0
   39.6880   26.0780   40.9980 H   0  0  0  0  0  0  0  0  0  0  0  0
   39.3560   25.2160   43.8620 H   0  0  0  0  0  0  0  0  0  0  0  0
   40.7330   25.9260   43.0000 H   0  0  0  0  0  0  0  0  0  0  0  0
   39.7400   27.3760   44.6200 H   0  0  0  0  0  0  0  0  0  0  0  0
   37.6010   27.8430   44.6050 H   0  0  0  0  0  0  0  0  0  0  0  0
   37.8730   28.6970   43.0790 H   0  0  0  0  0  0  0  0  0  0  0  0
   36.1360   27.1700   42.7850 H   0  0  0  0  0  0  0  0  0  0  0  0
   36.9840   25.8400   43.5720 H   0  0  0  0  0  0  0  0  0  0  0  0
   36.0370   29.3340   40.5500 C   0  0  0  0  0  0  0  0  0  0  0  0
   37.0200   28.6300   39.8230 C   0  0  0  0  0  0  0  0  0  0  0  0
   38.0160   29.4700   39.3840 C   0  0  0  0  0  0  0  0  0  0  0  0
   38.0830   30.8130   39.5960 C   0  0  0  0  0  0  0  0  0  0  0  0
   37.0700   31.4340   40.3200 C   0  0  0  0  0  0  0  0  0  0  0  0
   36.0300   30.6770   40.8050 C   0  0  0  0  0  0  0  0  0  0  0  0
   37.4220   32.7730   40.3530 O   0  0  0  0  0  0  0  0  0  0  0  0
   38.6470   32.9720   39.6900 C   0  0  2  0  0  0  0  0  0  0  0  0
   39.0540   31.7030   39.1830 O   0  0  0  0  0  0  0  0  0  0  0  0
   35.1170   28.9590   41.0470 H   0  0  0  0  0  0  0  0  0  0  0  0
   38.7540   28.9670   38.8440 H   0  0  0  0  0  0  0  0  0  0  0  0
   35.3220   31.2580   41.3410 H   0  0  0  0  0  0  0  0  0  0  0  0
   38.5880   33.7290   38.8920 H   0  0  0  0  0  0  0  0  0  0  0  0
   39.5840   33.3570   40.6860 O   0  0  0  0  0  0  0  0  0  0  0  0
   40.9250   33.1990   40.3780 C   0  0  0  0  0  3  0  0  0  0  0  0
   41.9990   33.3710   39.6280 C   0  0  0  0  0  3  0  0  0  0  0  0
   41.7980   34.1570   38.3850 C   0  0  0  0  0  2  0  0  0  0  0  0
   42.6640   33.9390   37.7100 H   0  0  0  0  0  0  0  0  0  0  0  0
  1  2  1  0  0  0  0
  1  7  1  0  0  0  0
  2  9  1  0  0  0  0
  3 25  1  0  0  0  0
  3  2  2  0  0  0  0
  4  3  1  0  0  0  0
  5  4  2  0  0  0  0
  5  6  1  0  0  0  0
  6  1  2  0  0  0  0
  8  5  1  0  0  0  0
  9 10  1  0  0  0  0
  9 14  1  0  0  0  0
 10 11  1  0  0  0  0
 11 12  1  0  0  0  0
 11 17  1  0  0  0  0
 12 19  1  0  0  0  0
 13 12  1  0  0  0  0
 13 20  1  0  0  0  0
 14 13  1  0  0  0  0
 14 23  1  0  0  0  0
 15 10  1  0  0  0  0
 16 10  1  0  0  0  0
 18 11  1  0  0  0  0
 21 13  1  0  0  0  0
 22 14  1  0  0  0  0
 24 29  1  0  0  0  0
 24 33  1  0  0  0  0
 25 24  2  0  0  0  0
 26 27  2  0  0  0  0
 26 25  1  0  0  0  0
 27 28  1  0  0  0  0
 28 30  1  0  0  0  0
 28 29  2  0  0  0  0
 29 35  1  0  0  0  0
 31 36  1  6  0  0  0
 31 30  1  0  0  0  0
 31 37  1  0  0  0  0
 32 27  1  0  0  0  0
 32 31  1  0  0  0  0
 34 26  1  0  0  0  0
 38 37  1  0  0  0  0
 39 38  2  0  0  0  0
 40 39  1  0  0  0  0
 41 40  1  0  0  0  0
M  END
>  <minimizedAffinity>
-5.33121634

$$$$

 OpenBabel03242523133D

 41 44  0  0  1  0  0  0  0  0999 V2000
   39.0990   29.9280   41.6100 C   0  0  0  0  0  0  0  0  0  0  0  0
   38.1840   30.1980   40.5960 C   0  0  0  0  0  0  0  0  0  0  0  0
   37.2970   29.2300   40.2280 C   0  0  0  0  0  0  0  0  0  0  0  0
   37.3680   28.0330   40.8910 N   0  0  0  0  0  0  0  0  0  0  0  0
   38.2470   27.7820   41.8610 C   0  0  0  0  0  0  0  0  0  0  0  0
   39.0990   28.7170   42.2120 N   0  0  0  0  0  0  0  0  0  0  0  0
   39.8150   30.6880   41.9180 H   0  0  0  0  0  0  0  0  0  0  0  0
   38.3500   26.8600   42.4170 H   0  0  0  0  0  0  0  0  0  0  0  0
   38.2390   31.4540   40.0000 N   0  0  0  0  0  0  0  0  0  0  0  0
   37.3440   32.5050   40.3520 C   0  0  0  0  0  0  0  0  0  0  0  0
   37.6650   33.8400   39.7330 C   0  0  0  0  0  0  0  0  0  0  0  0
   39.0150   34.1610   39.6780 N   0  0  0  0  0  0  0  0  0  0  0  0
   39.8710   33.1500   39.2920 C   0  0  0  0  0  0  0  0  0  0  0  0
   39.1460   31.8550   38.9990 C   0  0  0  0  0  0  0  0  0  0  0  0
   36.3330   32.2350   39.9820 H   0  0  0  0  0  0  0  0  0  0  0  0
   37.2090   32.6340   41.4550 H   0  0  0  0  0  0  0  0  0  0  0  0
   37.1890   33.9010   38.7270 H   0  0  0  0  0  0  0  0  0  0  0  0
   37.1200   34.6080   40.3510 H   0  0  0  0  0  0  0  0  0  0  0  0
   39.1550   35.0490   39.1780 H   0  0  0  0  0  0  0  0  0  0  0  0
   40.3760   33.4440   38.3260 H   0  0  0  0  0  0  0  0  0  0  0  0
   40.7070   32.9160   39.9830 H   0  0  0  0  0  0  0  0  0  0  0  0
   39.9200   31.0940   38.7580 H   0  0  0  0  0  0  0  0  0  0  0  0
   38.5780   31.9800   38.0360 H   0  0  0  0  0  0  0  0  0  0  0  0
   34.9780   29.1920   39.8450 C   0  0  0  0  0  0  0  0  0  0  0  0
   36.2700   29.1670   39.2800 C   0  0  0  0  0  0  0  0  0  0  0  0
   36.2160   29.0420   37.9120 C   0  0  0  0  0  0  0  0  0  0  0  0
   35.0870   28.9460   37.1590 C   0  0  0  0  0  0  0  0  0  0  0  0
   33.8490   28.9730   37.7940 C   0  0  0  0  0  0  0  0  0  0  0  0
   33.7970   29.0990   39.1610 C   0  0  0  0  0  0  0  0  0  0  0  0
   32.9200   28.8530   36.7730 O   0  0  0  0  0  0  0  0  0  0  0  0
   33.5700   28.7840   35.5270 C   0  0  2  0  0  0  0  0  0  0  0  0
   34.9710   28.8210   35.7890 O   0  0  0  0  0  0  0  0  0  0  0  0
   34.6690   29.2930   40.9070 H   0  0  0  0  0  0  0  0  0  0  0  0
   37.1640   29.0240   37.4750 H   0  0  0  0  0  0  0  0  0  0  0  0
   32.8020   29.1100   39.5300 H   0  0  0  0  0  0  0  0  0  0  0  0
   33.2890   27.8950   34.9420 H   0  0  0  0  0  0  0  0  0  0  0  0
   33.2320   29.9760   34.8330 O   0  0  0  0  0  0  0  0  0  0  0  0
   31.8870   30.1940   34.5800 C   0  0  0  0  0  3  0  0  0  0  0  0
   30.7360   30.8200   34.7430 C   0  0  0  0  0  3  0  0  0  0  0  0
   30.7410   31.9390   35.7170 C   0  0  0  0  0  2  0  0  0  0  0  0
   29.6770   32.1410   35.9990 H   0  0  0  0  0  0  0  0  0  0  0  0
  1  7  1  0  0  0  0
  1  6  1  0  0  0  0
  2  1  2  0  0  0  0
  3  2  1  0  0  0  0
  3  4  2  0  0  0  0
  4  5  1  0  0  0  0
  5  6  2  0  0  0  0
  5  8  1  0  0  0  0
  9 10  1  0  0  0  0
  9  2  1  0  0  0  0
 10 16  1  0  0  0  0
 11 18  1  0  0  0  0
 11 10  1  0  0  0  0
 12 11  1  0  0  0  0
 13 12  1  0  0  0  0
 13 21  1  0  0  0  0
 14 13  1  0  0  0  0
 14  9  1  0  0  0  0
 15 10  1  0  0  0  0
 17 11  1  0  0  0  0
 19 12  1  0  0  0  0
 20 13  1  0  0  0  0
 22 14  1  0  0  0  0
 23 14  1  0  0  0  0
 24 33  1  0  0  0  0
 25 24  1  0  0  0  0
 25  3  1  0  0  0  0
 26 25  2  0  0  0  0
 27 28  2  0  0  0  0
 27 26  1  0  0  0  0
 28 29  1  0  0  0  0
 29 35  1  0  0  0  0
 29 24  2  0  0  0  0
 30 28  1  0  0  0  0
 31 36  1  6  0  0  0
 31 32  1  0  0  0  0
 31 30  1  0  0  0  0
 32 27  1  0  0  0  0
 34 26  1  0  0  0  0
 37 31  1  0  0  0  0
 38 39  2  0  0  0  0
 38 37  1  0  0  0  0
 39 40  1  0  0  0  0
 40 41  1  0  0  0  0
M  END
>  <minimizedAffinity>
-5.27830982

$$$$

 OpenBabel03242523133D

 41 44  0  0  1  0  0  0  0  0999 V2000
   38.2300   22.8080   40.6020 C   0  0  0  0  0  0  0  0  0  0  0  0
   38.3530   24.1590   40.9220 C   0  0  0  0  0  0  0  0  0  0  0  0
   37.3660   25.0210   40.5460 C   0  0  0  0  0  0  0  0  0  0  0  0
   36.3010   24.4930   39.8640 N   0  0  0  0  0  0  0  0  0  0  0  0
   36.1910   23.2000   39.5610 C   0  0  0  0  0  0  0  0  0  0  0  0
   37.1430   22.3730   39.9260 N   0  0  0  0  0  0  0  0  0  0  0  0
   39.0070   22.1040   40.8940 H   0  0  0  0  0  0  0  0  0  0  0  0
   35.3770   22.7290   39.0260 H   0  0  0  0  0  0  0  0  0  0  0  0
   39.4990   24.5540   41.6040 N   0  0  0  0  0  0  0  0  0  0  0  0
   40.6070   25.1610   40.9440 C   0  0  0  0  0  0  0  0  0  0  0  0
   41.6810   25.6790   41.8650 C   0  0  0  0  0  0  0  0  0  0  0  0
   41.2250   26.2990   43.0210 N   0  0  0  0  0  0  0  0  0  0  0  0
   40.1820   25.6810   43.6780 C   0  0  0  0  0  0  0  0  0  0  0  0
   39.7280   24.4140   42.9870 C   0  0  0  0  0  0  0  0  0  0  0  0
   41.0960   24.3900   40.3120 H   0  0  0  0  0  0  0  0  0  0  0  0
   40.3190   25.9670   40.2240 H   0  0  0  0  0  0  0  0  0  0  0  0
   42.3940   24.8540   42.0970 H   0  0  0  0  0  0  0  0  0  0  0  0
   42.2830   26.4110   41.2570 H   0  0  0  0  0  0  0  0  0  0  0  0
   42.0150   26.5580   43.6270 H   0  0  0  0  0  0  0  0  0  0  0  0
   40.5300   25.3620   44.7040 H   0  0  0  0  0  0  0  0  0  0  0  0
   39.2800   26.2980   43.8700 H   0  0  0  0  0  0  0  0  0  0  0  0
   38.8540   24.0270   43.5550 H   0  0  0  0  0  0  0  0  0  0  0  0
   40.5190   23.6290   43.1370 H   0  0  0  0  0  0  0  0  0  0  0  0
   36.9820   26.7920   42.0440 C   0  0  0  0  0  0  0  0  0  0  0  0
   37.1720   26.3980   40.7030 C   0  0  0  0  0  0  0  0  0  0  0  0
   37.0770   27.4700   39.8470 C   0  0  0  0  0  0  0  0  0  0  0  0
   36.8290   28.7600   40.2030 C   0  0  0  0  0  0  0  0  0  0  0  0
   36.6490   29.0660   41.5480 C   0  0  0  0  0  0  0  0  0  0  0  0
   36.7280   28.0620   42.4830 C   0  0  0  0  0  0  0  0  0  0  0  0
   36.4140   30.4310   41.5770 O   0  0  0  0  0  0  0  0  0  0  0  0
   36.4800   30.9650   40.2770 C   0  0  2  0  0  0  0  0  0  0  0  0
   36.7240   29.8730   39.3930 O   0  0  0  0  0  0  0  0  0  0  0  0
   37.0070   26.1830   42.9730 H   0  0  0  0  0  0  0  0  0  0  0  0
   37.2160   27.1980   38.8490 H   0  0  0  0  0  0  0  0  0  0  0  0
   36.5770   28.4150   43.4720 H   0  0  0  0  0  0  0  0  0  0  0  0
   35.5740   31.5230   39.9920 H   0  0  0  0  0  0  0  0  0  0  0  0
   37.6240   31.8060   40.2460 O   0  0  0  0  0  0  0  0  0  0  0  0
   38.1830   32.0590   39.0040 C   0  0  0  0  0  3  0  0  0  0  0  0
   39.0420   31.8440   38.0240 C   0  0  0  0  0  3  0  0  0  0  0  0
   40.0110   30.7420   38.2440 C   0  0  0  0  0  2  0  0  0  0  0  0
   40.8550   30.8930   37.5250 H   0  0  0  0  0  0  0  0  0  0  0  0
  1  7  1  0  0  0  0
  1  2  1  0  0  0  0
  2  9  1  0  0  0  0
  3 25  1  0  0  0  0
  3  2  2  0  0  0  0
  4  3  1  0  0  0  0
  5  4  2  0  0  0  0
  5  6  1  0  0  0  0
  6  1  2  0  0  0  0
  8  5  1  0  0  0  0
  9 14  1  0  0  0  0
 10  9  1  0  0  0  0
 10 11  1  0  0  0  0
 11 17  1  0  0  0  0
 11 12  1  0  0  0  0
 12 19  1  0  0  0  0
 12 13  1  0  0  0  0
 13 21  1  0  0  0  0
 13 20  1  0  0  0  0
 14 23  1  0  0  0  0
 14 22  1  0  0  0  0
 14 13  1  0  0  0  0
 15 10  1  0  0  0  0
 16 10  1  0  0  0  0
 18 11  1  0  0  0  0
 24 29  1  0  0  0  0
 24 33  1  0  0  0  0
 25 24  2  0  0  0  0
 26 27  2  0  0  0  0
 26 25  1  0  0  0  0
 27 28  1  0  0  0  0
 28 30  1  0  0  0  0
 28 29  2  0  0  0  0
 29 35  1  0  0  0  0
 31 36  1  6  0  0  0
 31 30  1  0  0  0  0
 32 27  1  0  0  0  0
 32 31  1  0  0  0  0
 34 26  1  0  0  0  0
 37 31  1  0  0  0  0
 38 37  1  0  0  0  0
 39 40  1  0  0  0  0
 39 38  2  0  0  0  0
 41 40  1  0  0  0  0
M  END
>  <minimizedAffinity>
-5.26182985

$$$$

 OpenBabel03242523133D

 41 44  0  0  1  0  0  0  0  0999 V2000
   36.6130   24.5500   40.0790 C   0  0  0  0  0  0  0  0  0  0  0  0
   37.0020   25.8300   40.4700 C   0  0  0  0  0  0  0  0  0  0  0  0
   36.6270   26.8970   39.7100 C   0  0  0  0  0  0  0  0  0  0  0  0
   35.8820   26.6360   38.5900 N   0  0  0  0  0  0  0  0  0  0  0  0
   35.5130   25.4090   38.2220 C   0  0  0  0  0  0  0  0  0  0  0  0
   35.8760   24.3840   38.9580 N   0  0  0  0  0  0  0  0  0  0  0  0
   36.9020   23.6850   40.6730 H   0  0  0  0  0  0  0  0  0  0  0  0
   34.9280   25.1440   37.3530 H   0  0  0  0  0  0  0  0  0  0  0  0
   37.7730   25.9410   41.6220 N   0  0  0  0  0  0  0  0  0  0  0  0
   39.1220   25.4850   41.6840 C   0  0  0  0  0  0  0  0  0  0  0  0
   39.8510   25.8460   42.9510 C   0  0  0  0  0  0  0  0  0  0  0  0
   39.5990   27.1210   43.4400 N   0  0  0  0  0  0  0  0  0  0  0  0
   38.2860   27.5380   43.4190 C   0  0  0  0  0  0  0  0  0  0  0  0
   37.3530   26.4910   42.8490 C   0  0  0  0  0  0  0  0  0  0  0  0
   39.1120   24.3750   41.6450 H   0  0  0  0  0  0  0  0  0  0  0  0
   39.7420   25.7870   40.8030 H   0  0  0  0  0  0  0  0  0  0  0  0
   39.6540   25.0650   43.7230 H   0  0  0  0  0  0  0  0  0  0  0  0
   40.9490   25.7410   42.7180 H   0  0  0  0  0  0  0  0  0  0  0  0
   40.0750   27.2620   44.3410 H   0  0  0  0  0  0  0  0  0  0  0  0
   37.9370   27.7130   44.4780 H   0  0  0  0  0  0  0  0  0  0  0  0
   38.0750   28.4930   42.8950 H   0  0  0  0  0  0  0  0  0  0  0  0
   36.3360   26.9410   42.8190 H   0  0  0  0  0  0  0  0  0  0  0  0
   37.2590   25.6580   43.5980 H   0  0  0  0  0  0  0  0  0  0  0  0
   35.8220   28.9500   40.5240 C   0  0  0  0  0  0  0  0  0  0  0  0
   36.8350   28.2770   39.8090 C   0  0  0  0  0  0  0  0  0  0  0  0
   37.7810   29.1550   39.3340 C   0  0  0  0  0  0  0  0  0  0  0  0
   37.7780   30.5050   39.5030 C   0  0  0  0  0  0  0  0  0  0  0  0
   36.7390   31.0940   40.2180 C   0  0  0  0  0  0  0  0  0  0  0  0
   35.7460   30.2990   40.7370 C   0  0  0  0  0  0  0  0  0  0  0  0
   37.0200   32.4500   40.2060 O   0  0  0  0  0  0  0  0  0  0  0  0
   38.2260   32.6940   39.5250 C   0  0  2  0  0  0  0  0  0  0  0  0
   38.6970   31.4330   39.0530 O   0  0  0  0  0  0  0  0  0  0  0  0
   34.9280   28.5430   41.0410 H   0  0  0  0  0  0  0  0  0  0  0  0
   38.5410   28.6750   38.8030 H   0  0  0  0  0  0  0  0  0  0  0  0
   35.0120   30.8580   41.2620 H   0  0  0  0  0  0  0  0  0  0  0  0
   38.1200   33.4200   38.7050 H   0  0  0  0  0  0  0  0  0  0  0  0
   39.1500   33.1590   40.4990 O   0  0  0  0  0  0  0  0  0  0  0  0
   40.1570   32.2850   40.8740 C   0  0  0  0  0  3  0  0  0  0  0  0
   40.6830   31.3320   41.6230 C   0  0  0  0  0  3  0  0  0  0  0  0
   39.8180   30.8170   42.7140 C   0  0  0  0  0  2  0  0  0  0  0  0
   40.4830   30.2920   43.4450 H   0  0  0  0  0  0  0  0  0  0  0  0
  1  2  1  0  0  0  0
  1  7  1  0  0  0  0
  2  9  1  0  0  0  0
  3 25  1  0  0  0  0
  3  2  2  0  0  0  0
  4  3  1  0  0  0  0
  5  4  2  0  0  0  0
  5  6  1  0  0  0  0
  6  1  2  0  0  0  0
  8  5  1  0  0  0  0
  9 10  1  0  0  0  0
  9 14  1  0  0  0  0
 10 11  1  0  0  0  0
 11 12  1  0  0  0  0
 11 17  1  0  0  0  0
 12 19  1  0  0  0  0
 13 12  1  0  0  0  0
 13 20  1  0  0  0  0
 14 13  1  0  0  0  0
 14 23  1  0  0  0  0
 15 10  1  0  0  0  0
 16 10  1  0  0  0  0
 18 11  1  0  0  0  0
 21 13  1  0  0  0  0
 22 14  1  0  0  0  0
 24 29  1  0  0  0  0
 24 33  1  0  0  0  0
 25 24  2  0  0  0  0
 26 27  2  0  0  0  0
 26 25  1  0  0  0  0
 27 28  1  0  0  0  0
 28 29  2  0  0  0  0
 29 35  1  0  0  0  0
 30 28  1  0  0  0  0
 31 36  1  6  0  0  0
 31 30  1  0  0  0  0
 31 37  1  0  0  0  0
 32 27  1  0  0  0  0
 32 31  1  0  0  0  0
 34 26  1  0  0  0  0
 37 38  1  0  0  0  0
 38 39  2  0  0  0  0
 39 40  1  0  0  0  0
 40 41  1  0  0  0  0
M  END
>  <minimizedAffinity>
-5.22908926

$$$$
