
 OpenBabel03252505103D

 39 41  0  0  1  0  0  0  0  0999 V2000
   44.5730   35.5970   44.6150 C   0  0  0  0  0  0  0  0  0  0  0  0
   45.2250   35.6030   43.3650 C   0  0  0  0  0  0  0  0  0  0  0  0
   46.3130   34.6890   43.1780 C   0  0  0  0  0  0  0  0  0  0  0  0
   46.6580   33.8720   44.2020 N   0  0  0  0  0  0  0  0  0  0  0  0
   46.0130   33.8960   45.3740 C   0  0  0  0  0  0  0  0  0  0  0  0
   44.9640   34.7610   45.5910 N   0  0  0  0  0  0  0  0  0  0  0  0
   43.7520   36.2650   44.8020 H   0  0  0  0  0  0  0  0  0  0  0  0
   44.9110   36.2780   42.5770 H   0  0  0  0  0  0  0  0  0  0  0  0
   46.4340   32.9820   46.4720 C   0  0  2  0  0  0  0  0  0  0  0  0
   46.9550   31.7460   45.7660 C   0  0  0  0  0  0  0  0  0  0  0  0
   46.0830   30.5680   45.7830 C   0  0  0  0  0  0  0  0  0  0  0  0
   45.8060   30.3090   47.2660 C   0  0  0  0  0  0  0  0  0  0  0  0
   44.9960   31.3730   47.8820 C   0  0  0  0  0  0  0  0  0  0  0  0
   45.3850   32.7360   47.4160 C   0  0  0  0  0  0  0  0  0  0  0  0
   47.2970   33.4840   46.9580 H   0  0  0  0  0  0  0  0  0  0  0  0
   47.2460   31.9410   44.7120 H   0  0  0  0  0  0  0  0  0  0  0  0
   47.9240   31.4480   46.2500 H   0  0  0  0  0  0  0  0  0  0  0  0
   46.6510   29.7010   45.4390 H   0  0  0  0  0  0  0  0  0  0  0  0
   45.1550   30.7140   45.2170 H   0  0  0  0  0  0  0  0  0  0  0  0
   45.2160   29.3990   47.3480 H   0  0  0  0  0  0  0  0  0  0  0  0
   46.7870   30.2690   47.7660 H   0  0  0  0  0  0  0  0  0  0  0  0
   44.2010   31.3510   48.5830 H   0  0  0  0  0  0  0  0  0  0  0  0
   44.6820   33.8750   47.9260 N   0  0  0  0  0  0  0  0  0  0  0  0
   43.6490   33.8330   47.7210 H   0  0  0  0  0  0  0  0  0  0  0  0
   45.2940   34.5610   48.4170 H   0  0  0  0  0  0  0  0  0  0  0  0
   47.0000   34.6690   41.9000 C   0  0  0  0  0  0  0  0  0  0  0  0
   48.1430   35.3690   41.7610 C   0  0  0  0  0  0  0  0  0  0  0  0
   48.7660   35.3170   40.5040 C   0  0  0  0  0  0  0  0  0  0  0  0
   48.1510   34.5600   39.5460 C   0  0  0  0  0  0  0  0  0  0  0  0
   47.0020   33.8550   39.6840 C   0  0  0  0  0  0  0  0  0  0  0  0
   46.4310   33.9310   40.9110 N   0  0  0  0  0  0  0  0  0  0  0  0
   48.5590   35.9470   42.5860 H   0  0  0  0  0  0  0  0  0  0  0  0
   49.6810   35.8650   40.3600 H   0  0  0  0  0  0  0  0  0  0  0  0
   48.6730   34.5510   38.5890 H   0  0  0  0  0  0  0  0  0  0  0  0
   46.4370   33.1060   38.6550 O   0  0  0  0  0  0  0  0  0  0  0  0
   46.7600   33.2600   37.3380 C   0  0  0  0  0  3  0  0  0  0  0  0
   46.8320   32.2700   36.4780 C   0  0  0  0  0  3  0  0  0  0  0  0
   47.1410   32.0960   35.0460 C   0  0  0  0  0  2  0  0  0  0  0  0
   46.3220   31.5640   34.4970 H   0  0  0  0  0  0  0  0  0  0  0  0
  1  7  1  0  0  0  0
  1  6  1  0  0  0  0
  2  1  2  0  0  0  0
  3  2  1  0  0  0  0
  3  4  2  0  0  0  0
  4  5  1  0  0  0  0
  5  6  2  0  0  0  0
  5  9  1  0  0  0  0
  8  2  1  0  0  0  0
  9 15  1  1  0  0  0
  9 14  1  0  0  0  0
 10 11  1  0  0  0  0
 10 17  1  0  0  0  0
 10  9  1  0  0  0  0
 11 12  1  0  0  0  0
 12 20  1  0  0  0  0
 12 21  1  0  0  0  0
 12 13  1  0  0  0  0
 13 22  1  0  0  0  0
 14 13  2  0  0  0  0
 14 23  1  0  0  0  0
 16 10  1  0  0  0  0
 18 11  1  0  0  0  0
 19 11  1  0  0  0  0
 23 25  1  0  0  0  0
 24 23  1  0  0  0  0
 26  3  1  0  0  0  0
 27 26  1  0  0  0  0
 27 32  1  0  0  0  0
 28 27  2  0  0  0  0
 29 30  2  0  0  0  0
 29 28  1  0  0  0  0
 30 31  1  0  0  0  0
 31 26  2  0  0  0  0
 33 28  1  0  0  0  0
 34 29  1  0  0  0  0
 35 30  1  0  0  0  0
 36 35  1  0  0  0  0
 37 36  2  0  0  0  0
 38 37  1  0  0  0  0
 39 38  1  0  0  0  0
M  END
>  <minimizedAffinity>
-6.8431406

>  <minimizedRMSD>
0.226684168

$$$$
