
 OpenBabel03252504083D

 17 17  0  0  0  0  0  0  0  0999 V2000
   47.3950   32.9890   42.8330 C   0  0  0  0  0  0  0  0  0  0  0  0
   48.1990   33.6550   41.8990 C   0  0  0  0  0  0  0  0  0  0  0  0
   49.4370   33.0830   41.5830 C   0  0  0  0  0  0  0  0  0  0  0  0
   49.7980   31.9270   42.1870 N   0  0  0  0  0  0  0  0  0  0  0  0
   48.9930   31.3210   43.0800 C   0  0  0  0  0  0  0  0  0  0  0  0
   47.7840   31.8440   43.4140 N   0  0  0  0  0  0  0  0  0  0  0  0
   50.0600   33.5920   40.8630 H   0  0  0  0  0  0  0  0  0  0  0  0
   49.3780   30.4190   43.4920 H   0  0  0  0  0  0  0  0  0  0  0  0
   47.7070   34.9170   41.2980 C   0  0  0  0  0  0  0  0  0  0  0  0
   46.5400   34.6810   40.5820 F   0  0  0  0  0  0  0  0  0  0  0  0
   47.3730   35.7820   42.3290 F   0  0  0  0  0  0  0  0  0  0  0  0
   48.5950   35.5140   40.4520 F   0  0  0  0  0  0  0  0  0  0  0  0
   46.1910   33.5430   43.1380 O   0  0  0  0  0  0  0  0  0  0  0  0
   45.8610   33.6150   44.4960 C   0  0  0  0  0  3  0  0  0  0  0  0
   45.1720   34.5470   45.1010 C   0  0  0  0  0  3  0  0  0  0  0  0
   44.6660   35.6700   44.2950 C   0  0  0  0  0  2  0  0  0  0  0  0
   45.4770   36.4260   44.1800 H   0  0  0  0  0  0  0  0  0  0  0  0
  1 13  1  0  0  0  0
  1  6  1  0  0  0  0
  2  1  2  0  0  0  0
  3  2  1  0  0  0  0
  3  4  2  0  0  0  0
  4  5  1  0  0  0  0
  5  6  2  0  0  0  0
  5  8  1  0  0  0  0
  7  3  1  0  0  0  0
  9  2  1  0  0  0  0
  9 11  1  0  0  0  0
 10  9  1  0  0  0  0
 12  9  1  0  0  0  0
 13 14  1  0  0  0  0
 14 15  2  0  0  0  0
 16 15  1  0  0  0  0
 17 16  1  0  0  0  0
M  END
>  <minimizedAffinity>
-3.80133343

>  <minimizedRMSD>
3.42637825

$$$$
