REMARK  Name = 
REMARK  11 active torsions:
REMARK  status: ('A' for Active; 'I' for Inactive)
REMARK    1  A    between atoms: C_1  and  C_7
REMARK    2  A    between atoms: C_2  and  O_13
REMARK    3  A    between atoms: O_13  and  C_14
REMARK    4  A    between atoms: C_14  and  C_15
REMARK    5  A    between atoms: C_15  and  N_16
REMARK    6  A    between atoms: N_16  and  S_17
REMARK    7  A    between atoms: S_17  and  O_18
REMARK    8  A    between atoms: S_17  and  O_19
REMARK    9  A    between atoms: S_17  and  O_20
REMARK   10  A    between atoms: O_20  and  C_41
REMARK   11  A    between atoms: C_42  and  C_43
REMARK                            x       y       z     vdW  Elec       q    Type
REMARK                         _______ _______ _______ _____ _____    ______ ____
ROOT
ATOM      1  C   UNL     1      46.157  34.602  43.618  0.00  0.00    +0.000 A 
ATOM      2  C   UNL     1      46.142  33.837  44.759  0.00  0.00    +0.000 A 
ATOM      3  C   UNL     1      45.298  34.218  45.758  0.00  0.00    +0.000 A 
ATOM      4  N   UNL     1      44.517  35.322  45.589  0.00  0.00    +0.000 NA
ATOM      5  C   UNL     1      44.531  36.054  44.499  0.00  0.00    +0.000 A 
ATOM      6  N   UNL     1      45.350  35.681  43.533  0.00  0.00    +0.000 NA
ATOM      7  H   UNL     1      45.129  33.768  46.723  0.00  0.00    +0.000 HD
ATOM      8  H   UNL     1      43.904  36.941  44.360  0.00  0.00    +0.000 HD
ENDROOT
BRANCH   1   9
ATOM      9  C   UNL     1      47.014  34.147  42.516  0.00  0.00    +0.000 C 
ATOM     10  C   UNL     1      48.398  34.715  42.618  0.00  0.00    +0.000 C 
ATOM     11  C   UNL     1      48.723  35.614  41.510  0.00  0.00    +0.000 C 
ATOM     12  C   UNL     1      48.544  34.934  40.169  0.00  0.00    +0.000 C 
ATOM     13  C   UNL     1      47.301  34.139  40.067  0.00  0.00    +0.000 C 
ATOM     14  C   UNL     1      46.357  34.428  41.213  0.00  0.00    +0.000 C 
ATOM     15  H   UNL     1      47.190  33.061  42.640  0.00  0.00    +0.000 HD
ATOM     16  H   UNL     1      49.177  33.936  42.685  0.00  0.00    +0.000 HD
ATOM     17  H   UNL     1      48.463  35.277  43.572  0.00  0.00    +0.000 HD
ATOM     18  H   UNL     1      48.217  36.597  41.548  0.00  0.00    +0.000 HD
ATOM     19  H   UNL     1      49.821  35.867  41.576  0.00  0.00    +0.000 HD
ATOM     20  H   UNL     1      48.477  35.761  39.412  0.00  0.00    +0.000 HD
ATOM     21  H   UNL     1      49.443  34.298  40.001  0.00  0.00    +0.000 HD
ATOM     22  H   UNL     1      47.525  33.039  40.102  0.00  0.00    +0.000 HD
ATOM     23  H   UNL     1      46.720  34.305  39.133  0.00  0.00    +0.000 HD
ATOM     24  H   UNL     1      46.165  35.535  41.150  0.00  0.00    +0.000 HD
ATOM     25  H   UNL     1      45.406  33.888  41.065  0.00  0.00    +0.000 HD
ENDBRANCH   1   9
BRANCH   2  26
ATOM     26  O   UNL     1      46.823  32.747  45.099  0.00  0.00    +0.000 OA
BRANCH  26  27
ATOM     27  C   UNL     1      47.177  32.174  46.295  0.00  0.00    +0.000 C 
ATOM     28  H   UNL     1      46.618  32.482  47.187  0.00  0.00    +0.000 HD
ATOM     29  H   UNL     1      48.242  32.486  46.507  0.00  0.00    +0.000 HD
BRANCH  27  30
ATOM     30  C   UNL     1      47.225  30.661  46.272  0.00  0.00    +0.000 C 
ATOM     31  H   UNL     1      47.467  30.303  47.279  0.00  0.00    +0.000 HD
ATOM     32  H   UNL     1      48.039  30.350  45.559  0.00  0.00    +0.000 HD
BRANCH  30  33
ATOM     33  N   UNL     1      46.009  30.084  45.745  0.00  0.00    +0.000 NA
ATOM     34  H   UNL     1      45.333  30.787  45.442  0.00  0.00    +0.000 HD
BRANCH  33  35
ATOM     35  S   UNL     1      45.178  29.324  47.079  0.00  0.00    +0.000 S 
BRANCH  35  36
ATOM     36  O   UNL     1      44.042  28.479  46.587  0.00  0.00    +0.000 OA
ATOM     37  H   UNL     1      44.163  27.694  45.999  0.00  0.00    +0.000 HD
ENDBRANCH  35  36
BRANCH  35  38
ATOM     38  O   UNL     1      44.673  30.423  47.964  0.00  0.00    +0.000 OA
ATOM     39  H   UNL     1      44.618  30.305  48.944  0.00  0.00    +0.000 HD
ENDBRANCH  35  38
BRANCH  35  40
ATOM     40  O   UNL     1      46.232  28.403  47.983  0.00  0.00    +0.000 OA
BRANCH  40  41
ATOM     41  C   UNL     1      47.396  27.835  47.547  0.00  0.00    +0.000 C 
ATOM     42  C   UNL     1      48.472  27.918  46.779  0.00  0.00    +0.000 C 
BRANCH  42  43
ATOM     43  C   UNL     1      49.513  26.886  46.705  0.00  0.00    +0.000 C 
ATOM     44  H   UNL     1      50.415  27.078  47.304  0.00  0.00    +0.000 HD
ENDBRANCH  42  43
ENDBRANCH  40  41
ENDBRANCH  35  40
ENDBRANCH  33  35
ENDBRANCH  30  33
ENDBRANCH  27  30
ENDBRANCH  26  27
ENDBRANCH   2  26
TORSDOF 11
