REMARK  Name = 
REMARK  4 active torsions:
REMARK  status: ('A' for Active; 'I' for Inactive)
REMARK    1  A    between atoms: C_1  and  O_11
REMARK    2  A    between atoms: C_2  and  C_7
REMARK    3  A    between atoms: O_11  and  C_14
REMARK    4  A    between atoms: C_15  and  C_16
REMARK                            x       y       z     vdW  Elec       q    Type
REMARK                         _______ _______ _______ _____ _____    ______ ____
ROOT
ATOM      1  C   UNL     1      45.046  34.693  44.998  0.00  0.00    +0.000 A 
ATOM      2  C   UNL     1      45.844  34.554  43.855  0.00  0.00    +0.000 A 
ATOM      3  C   UNL     1      46.902  33.639  43.908  0.00  0.00    +0.000 A 
ATOM      4  N   UNL     1      47.105  32.938  45.048  0.00  0.00    +0.000 NA
ATOM      5  C   UNL     1      46.313  33.104  46.124  0.00  0.00    +0.000 A 
ATOM      6  N   UNL     1      45.276  33.982  46.113  0.00  0.00    +0.000 NA
ATOM      7  H   UNL     1      47.519  33.528  43.029  0.00  0.00    +0.000 HD
ATOM      8  H   UNL     1      46.565  32.502  46.964  0.00  0.00    +0.000 HD
ENDROOT
BRANCH   2   9
ATOM      9  C   UNL     1      45.533  35.373  42.659  0.00  0.00    +0.000 C 
ATOM     10  F   UNL     1      44.242  35.106  42.221  0.00  0.00    +0.000 F 
ATOM     11  F   UNL     1      45.558  36.707  43.034  0.00  0.00    +0.000 F 
ATOM     12  F   UNL     1      46.377  35.164  41.607  0.00  0.00    +0.000 F 
ENDBRANCH   2   9
BRANCH   1  13
ATOM     13  O   UNL     1      44.016  35.580  44.945  0.00  0.00    +0.000 OA
BRANCH  13  14
ATOM     14  C   UNL     1      43.234  35.699  46.099  0.00  0.00    +0.000 C 
ATOM     15  C   UNL     1      43.607  36.133  47.274  0.00  0.00    +0.000 C 
BRANCH  15  16
ATOM     16  C   UNL     1      45.007  36.556  47.445  0.00  0.00    +0.000 C 
ATOM     17  H   UNL     1      45.634  35.656  47.643  0.00  0.00    +0.000 HD
ENDBRANCH  15  16
ENDBRANCH  13  14
ENDBRANCH   1  13
TORSDOF 4
