
 OpenBabel03242514193D

 44 45  0  0  0  0  0  0  0  0999 V2000
   46.1670   34.5720   43.6030 C   0  0  0  0  0  0  0  0  0  0  0  0
   46.1650   33.8070   44.7440 C   0  0  0  0  0  0  0  0  0  0  0  0
   45.3330   34.1890   45.7530 C   0  0  0  0  0  0  0  0  0  0  0  0
   44.5520   35.2950   45.5930 N   0  0  0  0  0  0  0  0  0  0  0  0
   44.5540   36.0270   44.5030 C   0  0  0  0  0  0  0  0  0  0  0  0
   45.3610   35.6520   43.5270 N   0  0  0  0  0  0  0  0  0  0  0  0
   45.1750   33.7400   46.7200 H   0  0  0  0  0  0  0  0  0  0  0  0
   43.9270   36.9150   44.3720 H   0  0  0  0  0  0  0  0  0  0  0  0
   47.0100   34.1160   42.4900 C   0  0  0  0  0  0  0  0  0  0  0  0
   48.3950   34.6820   42.5750 C   0  0  0  0  0  0  0  0  0  0  0  0
   48.7070   35.5810   41.4620 C   0  0  0  0  0  0  0  0  0  0  0  0
   48.5110   34.9000   40.1240 C   0  0  0  0  0  0  0  0  0  0  0  0
   47.2660   34.1060   40.0380 C   0  0  0  0  0  0  0  0  0  0  0  0
   46.3370   34.3970   41.1950 C   0  0  0  0  0  0  0  0  0  0  0  0
   47.1860   33.0300   42.6130 H   0  0  0  0  0  0  0  0  0  0  0  0
   49.1750   33.9030   42.6330 H   0  0  0  0  0  0  0  0  0  0  0  0
   48.4730   35.2450   43.5280 H   0  0  0  0  0  0  0  0  0  0  0  0
   48.2030   36.5640   41.5060 H   0  0  0  0  0  0  0  0  0  0  0  0
   49.8060   35.8330   41.5150 H   0  0  0  0  0  0  0  0  0  0  0  0
   48.4360   35.7270   39.3680 H   0  0  0  0  0  0  0  0  0  0  0  0
   49.4080   34.2630   39.9450 H   0  0  0  0  0  0  0  0  0  0  0  0
   47.4900   33.0060   40.0710 H   0  0  0  0  0  0  0  0  0  0  0  0
   46.6740   34.2720   39.1110 H   0  0  0  0  0  0  0  0  0  0  0  0
   46.1450   35.5040   41.1340 H   0  0  0  0  0  0  0  0  0  0  0  0
   45.3840   33.8570   41.0600 H   0  0  0  0  0  0  0  0  0  0  0  0
   46.8480   32.7160   45.0760 O   0  0  0  0  0  0  0  0  0  0  0  0
   47.2750   32.1790   46.2640 C   0  0  0  0  0  0  0  0  0  0  0  0
   46.8520   32.5950   47.1870 H   0  0  0  0  0  0  0  0  0  0  0  0
   48.3820   32.3880   46.3410 H   0  0  0  0  0  0  0  0  0  0  0  0
   47.1700   30.6700   46.3410 C   0  0  0  0  0  0  0  0  0  0  0  0
   47.1640   30.3730   47.3950 H   0  0  0  0  0  0  0  0  0  0  0  0
   48.0750   30.2330   45.8340 H   0  0  0  0  0  0  0  0  0  0  0  0
   46.0330   30.1640   45.6050 N   0  0  0  0  0  0  0  0  0  0  0  0
   45.5400   30.8910   45.0840 H   0  0  0  0  0  0  0  0  0  0  0  0
   44.8360   29.6740   46.7770 S   0  0  0  0  0  0  0  0  0  0  0  0
   43.6040   29.1590   46.0970 O   0  0  0  0  0  0  0  0  0  0  0  0
   43.5980   28.3620   45.5120 H   0  0  0  0  0  0  0  0  0  0  0  0
   44.5160   30.8800   47.6070 O   0  0  0  0  0  0  0  0  0  0  0  0
   44.2830   30.7940   48.5640 H   0  0  0  0  0  0  0  0  0  0  0  0
   45.4550   28.5150   47.8030 O   0  0  0  0  0  0  0  0  0  0  0  0
   45.1810   27.1770   47.7780 C   0  0  0  0  0  0  0  0  0  0  0  0
   44.4290   26.1730   48.2020 C   0  0  0  0  0  0  0  0  0  0  0  0
   44.6160   24.7750   47.7940 C   0  0  0  0  0  0  0  0  0  0  0  0
   43.9430   24.4190   46.9990 H   0  0  0  0  0  0  0  0  0  0  0  0
  1  2  1  0  0  0  0
  2 26  1  0  0  0  0
  2  3  2  0  0  0  0
  3  7  1  0  0  0  0
  4  3  1  0  0  0  0
  5  4  2  0  0  0  0
  6  1  2  0  0  0  0
  6  5  1  0  0  0  0
  8  5  1  0  0  0  0
  9 10  1  0  0  0  0
  9 15  1  0  0  0  0
  9  1  1  0  0  0  0
 10 16  1  0  0  0  0
 10 17  1  0  0  0  0
 11 18  1  0  0  0  0
 11 19  1  0  0  0  0
 11 10  1  0  0  0  0
 12 11  1  0  0  0  0
 13 22  1  0  0  0  0
 13 12  1  0  0  0  0
 13 14  1  0  0  0  0
 14  9  1  0  0  0  0
 20 12  1  0  0  0  0
 21 12  1  0  0  0  0
 23 13  1  0  0  0  0
 24 14  1  0  0  0  0
 25 14  1  0  0  0  0
 26 27  1  0  0  0  0
 27 29  1  0  0  0  0
 27 30  1  0  0  0  0
 27 28  1  0  0  0  0
 30 31  1  0  0  0  0
 32 30  1  0  0  0  0
 33 30  1  0  0  0  0
 33 35  1  0  0  0  0
 34 33  1  0  0  0  0
 35 38  1  0  0  0  0
 35 40  1  0  0  0  0
 36 35  1  0  0  0  0
 37 36  1  0  0  0  0
 38 39  1  0  0  0  0
 41 40  1  0  0  0  0
 41 42  2  0  0  0  0
 43 42  1  0  0  0  0
 44 43  1  0  0  0  0
M  END
>  <minimizedAffinity>
-5.50825357

>  <minimizedRMSD>
1.48156488

$$$$
