
 OpenBabel03252507043D

 46 49  0  0  0  0  0  0  0  0999 V2000
   41.7260   32.3980   41.4560 C   0  0  0  0  0  0  0  0  0  0  0  0
   41.2740   33.4350   41.6160 H   0  0  0  0  0  0  0  0  0  0  0  0
   42.0460   32.1000   42.4790 H   0  0  0  0  0  0  0  0  0  0  0  0
   40.8820   31.5280   40.8890 N   0  0  0  0  0  0  0  0  0  0  0  0
   41.1990   30.2700   40.2920 C   0  0  0  0  0  0  0  0  0  0  0  0
   40.6750   29.3520   41.3980 C   0  0  0  0  0  0  0  0  0  0  0  0
   39.2580   29.5060   41.6720 C   0  0  0  0  0  0  0  0  0  0  0  0
   38.6140   30.7600   41.3550 C   0  0  0  0  0  0  0  0  0  0  0  0
   39.4580   31.9390   40.9340 C   0  0  0  0  0  0  0  0  0  0  0  0
   42.3180   30.1450   40.3390 H   0  0  0  0  0  0  0  0  0  0  0  0
   40.8240   30.0490   39.3080 H   0  0  0  0  0  0  0  0  0  0  0  0
   40.9400   28.2840   41.1530 H   0  0  0  0  0  0  0  0  0  0  0  0
   41.2710   29.6360   42.2990 H   0  0  0  0  0  0  0  0  0  0  0  0
   38.6970   28.6940   41.1250 H   0  0  0  0  0  0  0  0  0  0  0  0
   39.0480   29.2870   42.7580 H   0  0  0  0  0  0  0  0  0  0  0  0
   37.5870   30.9500   41.4110 H   0  0  0  0  0  0  0  0  0  0  0  0
   38.8310   33.5020   40.5790 S   0  0  0  0  0  0  0  0  0  0  0  0
   39.5440   34.2650   39.1640 C   0  0  0  0  0  0  0  0  0  0  0  0
   39.6970   34.4680   37.8170 C   0  0  0  0  0  0  0  0  0  0  0  0
   39.0180   33.8340   37.2870 H   0  0  0  0  0  0  0  0  0  0  0  0
   40.6530   35.4240   37.5470 C   0  0  0  0  0  0  0  0  0  0  0  0
   40.8610   35.6680   36.5160 H   0  0  0  0  0  0  0  0  0  0  0  0
   41.0700   35.7890   38.8080 C   0  0  0  0  0  0  0  0  0  0  0  0
   41.8560   36.5690   38.7590 H   0  0  0  0  0  0  0  0  0  0  0  0
   40.4150   35.1060   39.7310 O   0  0  0  0  0  0  0  0  0  0  0  0
   42.9470   32.6590   40.6500 C   0  0  0  0  0  0  0  0  0  0  0  0
   43.5740   31.7320   40.6840 H   0  0  0  0  0  0  0  0  0  0  0  0
   42.7350   32.9160   39.5830 H   0  0  0  0  0  0  0  0  0  0  0  0
   43.7230   33.7200   41.3200 C   0  0  0  0  0  0  0  0  0  0  0  0
   43.0900   34.8280   41.8400 C   0  0  0  0  0  0  0  0  0  0  0  0
   43.8660   35.8020   42.4440 C   0  0  0  0  0  0  0  0  0  0  0  0
   45.2200   35.6140   42.4950 N   0  0  0  0  0  0  0  0  0  0  0  0
   45.7950   34.5320   41.9850 C   0  0  0  0  0  0  0  0  0  0  0  0
   45.0280   33.6030   41.4040 N   0  0  0  0  0  0  0  0  0  0  0  0
   42.0620   35.1390   41.9100 H   0  0  0  0  0  0  0  0  0  0  0  0
   43.5440   36.7320   42.9010 H   0  0  0  0  0  0  0  0  0  0  0  0
   47.2410   34.4010   42.1100 C   0  0  0  0  0  0  0  0  0  0  0  0
   47.8160   33.1880   42.4780 C   0  0  0  0  0  0  0  0  0  0  0  0
   49.1760   33.0780   42.5960 C   0  0  0  0  0  0  0  0  0  0  0  0
   49.8760   34.2290   42.3270 C   0  0  0  0  0  0  0  0  0  0  0  0
   49.3540   35.4600   41.9570 C   0  0  0  0  0  0  0  0  0  0  0  0
   48.0030   35.4950   41.8600 N   0  0  0  0  0  0  0  0  0  0  0  0
   47.1660   32.3550   42.6650 H   0  0  0  0  0  0  0  0  0  0  0  0
   49.6680   32.1790   42.8730 H   0  0  0  0  0  0  0  0  0  0  0  0
   50.9660   34.2040   42.4040 H   0  0  0  0  0  0  0  0  0  0  0  0
   49.9850   36.3150   41.7640 H   0  0  0  0  0  0  0  0  0  0  0  0
  1  2  1  0  0  0  0
  1  3  1  0  0  0  0
  4  9  1  0  0  0  0
  4  1  1  0  0  0  0
  5 10  1  0  0  0  0
  5  4  1  0  0  0  0
  5  6  1  0  0  0  0
  6  7  1  0  0  0  0
  6 13  1  0  0  0  0
  7 15  1  0  0  0  0
  8 16  1  0  0  0  0
  8  7  1  0  0  0  0
  9  8  2  0  0  0  0
 11  5  1  0  0  0  0
 12  6  1  0  0  0  0
 14  7  1  0  0  0  0
 17  9  1  0  0  0  0
 18 25  1  0  0  0  0
 18 17  1  0  0  0  0
 19 18  2  0  0  0  0
 20 19  1  0  0  0  0
 21 19  1  0  0  0  0
 21 23  2  0  0  0  0
 22 21  1  0  0  0  0
 23 25  1  0  0  0  0
 24 23  1  0  0  0  0
 26 27  1  0  0  0  0
 26 29  1  0  0  0  0
 26  1  1  0  0  0  0
 28 26  1  0  0  0  0
 29 34  2  0  0  0  0
 29 30  1  0  0  0  0
 30 35  1  0  0  0  0
 30 31  2  0  0  0  0
 31 32  1  0  0  0  0
 31 36  1  0  0  0  0
 33 37  1  0  0  0  0
 33 32  2  0  0  0  0
 34 33  1  0  0  0  0
 37 38  1  0  0  0  0
 38 39  2  0  0  0  0
 38 43  1  0  0  0  0
 39 44  1  0  0  0  0
 40 45  1  0  0  0  0
 40 39  1  0  0  0  0
 41 40  2  0  0  0  0
 42 41  1  0  0  0  0
 42 37  2  0  0  0  0
 46 41  1  0  0  0  0
M  END
>  <minimizedAffinity>
-5.43330669

>  <minimizedRMSD>
2.49613142

$$$$
