
 OpenBabel03252503343D

 21 22  0  0  0  0  0  0  0  0999 V2000
   48.4010   32.7880   41.7540 C   0  0  0  0  0  0  0  0  0  0  0  0
   47.2770   32.3200   41.4310 O   0  0  0  0  0  0  0  0  0  0  0  0
   48.3740   33.8160   42.7340 N   0  0  0  0  0  0  0  0  0  0  0  0
   49.2950   34.2330   43.0510 H   0  0  0  0  0  0  0  0  0  0  0  0
   45.1940   35.6960   43.2740 C   0  0  0  0  0  0  0  0  0  0  0  0
   46.4010   35.2930   42.6720 C   0  0  0  0  0  0  0  0  0  0  0  0
   47.1430   34.2800   43.2810 C   0  0  0  0  0  0  0  0  0  0  0  0
   46.6770   33.7190   44.4300 N   0  0  0  0  0  0  0  0  0  0  0  0
   45.4940   34.1420   44.9840 C   0  0  0  0  0  0  0  0  0  0  0  0
   44.7780   35.1110   44.4070 N   0  0  0  0  0  0  0  0  0  0  0  0
   44.7020   36.4890   42.7150 H   0  0  0  0  0  0  0  0  0  0  0  0
   46.7780   35.7350   41.7570 H   0  0  0  0  0  0  0  0  0  0  0  0
   45.1510   33.6700   45.9060 H   0  0  0  0  0  0  0  0  0  0  0  0
   49.6380   32.3000   41.1550 C   0  0  0  0  0  0  0  0  0  0  0  0
   49.7030   31.7830   39.8800 C   0  0  0  0  0  0  0  0  0  0  0  0
   48.9660   31.6290   39.1070 H   0  0  0  0  0  0  0  0  0  0  0  0
   51.0440   31.4440   39.7120 C   0  0  0  0  0  0  0  0  0  0  0  0
   51.5870   31.0020   38.8720 H   0  0  0  0  0  0  0  0  0  0  0  0
   51.7130   31.7750   40.8960 C   0  0  0  0  0  0  0  0  0  0  0  0
   52.7650   31.6790   41.1940 H   0  0  0  0  0  0  0  0  0  0  0  0
   50.8030   32.2830   41.7130 O   0  0  0  0  0  0  0  0  0  0  0  0
  1  3  1  0  0  0  0
  2  1  2  0  0  0  0
  3  4  1  0  0  0  0
  3  7  1  0  0  0  0
  5 10  1  0  0  0  0
  6  5  2  0  0  0  0
  6  7  1  0  0  0  0
  7  8  2  0  0  0  0
  8  9  1  0  0  0  0
  9 13  1  0  0  0  0
 10  9  2  0  0  0  0
 11  5  1  0  0  0  0
 12  6  1  0  0  0  0
 14 21  1  0  0  0  0
 14  1  1  0  0  0  0
 15 14  2  0  0  0  0
 16 15  1  0  0  0  0
 17 15  1  0  0  0  0
 17 19  2  0  0  0  0
 18 17  1  0  0  0  0
 19 20  1  0  0  0  0
 19 21  1  0  0  0  0
M  END
>  <minimizedAffinity>
-3.59901857

>  <minimizedRMSD>
2.89761949

$$$$
