
 OpenBabel03252504183D

 37 39  0  0  0  0  0  0  0  0999 V2000
   47.6560   30.0450   44.9320 F   0  0  0  0  0  0  0  0  0  0  0  0
   47.5080   30.8080   46.0570 C   0  0  0  0  0  0  0  0  0  0  0  0
   46.9220   32.0540   45.9630 C   0  0  0  0  0  0  0  0  0  0  0  0
   46.8030   32.7700   47.1490 C   0  0  0  0  0  0  0  0  0  0  0  0
   47.2510   32.2460   48.3440 C   0  0  0  0  0  0  0  0  0  0  0  0
   47.8320   30.9870   48.3700 C   0  0  0  0  0  0  0  0  0  0  0  0
   47.9760   30.2290   47.2070 C   0  0  0  0  0  0  0  0  0  0  0  0
   46.3510   33.7490   47.1380 H   0  0  0  0  0  0  0  0  0  0  0  0
   47.1700   32.7770   49.2850 H   0  0  0  0  0  0  0  0  0  0  0  0
   48.2000   30.5410   49.2920 H   0  0  0  0  0  0  0  0  0  0  0  0
   46.7930   34.1280   42.9500 C   0  0  0  0  0  0  0  0  0  0  0  0
   45.6610   33.6540   42.2840 C   0  0  0  0  0  0  0  0  0  0  0  0
   44.9480   32.6140   42.8870 C   0  0  0  0  0  0  0  0  0  0  0  0
   45.3570   32.1030   44.0710 N   0  0  0  0  0  0  0  0  0  0  0  0
   46.4530   32.5860   44.6830 C   0  0  0  0  0  0  0  0  0  0  0  0
   47.1710   33.5920   44.1320 N   0  0  0  0  0  0  0  0  0  0  0  0
   44.0730   32.2590   42.3540 H   0  0  0  0  0  0  0  0  0  0  0  0
   45.2790   34.2560   41.0080 C   0  0  0  0  0  0  0  0  0  0  0  0
   44.9430   35.5870   41.1810 F   0  0  0  0  0  0  0  0  0  0  0  0
   46.3940   34.2260   40.1610 F   0  0  0  0  0  0  0  0  0  0  0  0
   44.2480   33.6610   40.3730 F   0  0  0  0  0  0  0  0  0  0  0  0
   47.4850   35.1230   42.3800 O   0  0  0  0  0  0  0  0  0  0  0  0
   48.8160   35.0760   41.8990 C   0  0  0  0  0  0  0  0  0  0  0  0
   49.6440   35.3480   42.9750 F   0  0  0  0  0  0  0  0  0  0  0  0
   49.0550   33.8570   41.3210 F   0  0  0  0  0  0  0  0  0  0  0  0
   49.0260   36.1100   41.0170 F   0  0  0  0  0  0  0  0  0  0  0  0
   48.6050   28.8770   47.2410 C   0  0  0  0  0  0  0  0  0  0  0  0
   47.8310   28.1440   47.5950 H   0  0  0  0  0  0  0  0  0  0  0  0
   48.8230   28.6020   46.1890 H   0  0  0  0  0  0  0  0  0  0  0  0
   49.8190   28.8560   48.0880 C   0  0  0  0  0  0  0  0  0  0  0  0
   51.0410   29.3630   47.6360 C   0  0  0  0  0  0  0  0  0  0  0  0
   51.3950   29.8180   46.7430 H   0  0  0  0  0  0  0  0  0  0  0  0
   51.9540   29.1900   48.6620 C   0  0  0  0  0  0  0  0  0  0  0  0
   53.0160   29.4210   48.7810 H   0  0  0  0  0  0  0  0  0  0  0  0
   51.2520   28.5820   49.7040 C   0  0  0  0  0  0  0  0  0  0  0  0
   51.5900   28.2710   50.6940 H   0  0  0  0  0  0  0  0  0  0  0  0
   50.0180   28.4170   49.3040 O   0  0  0  0  0  0  0  0  0  0  0  0
  1  2  1  0  0  0  0
  2  7  1  0  0  0  0
  3  2  2  0  0  0  0
  3  4  1  0  0  0  0
  4  5  2  0  0  0  0
  5  6  1  0  0  0  0
  5  9  1  0  0  0  0
  6 10  1  0  0  0  0
  7 27  1  0  0  0  0
  7  6  2  0  0  0  0
  8  4  1  0  0  0  0
 11 16  1  0  0  0  0
 12 13  1  0  0  0  0
 12 11  2  0  0  0  0
 13 14  2  0  0  0  0
 14 15  1  0  0  0  0
 15  3  1  0  0  0  0
 16 15  2  0  0  0  0
 17 13  1  0  0  0  0
 18 19  1  0  0  0  0
 18 12  1  0  0  0  0
 20 18  1  0  0  0  0
 21 18  1  0  0  0  0
 22 11  1  0  0  0  0
 23 22  1  0  0  0  0
 23 24  1  0  0  0  0
 25 23  1  0  0  0  0
 26 23  1  0  0  0  0
 27 28  1  0  0  0  0
 27 30  1  0  0  0  0
 29 27  1  0  0  0  0
 30 37  1  0  0  0  0
 31 30  2  0  0  0  0
 31 33  1  0  0  0  0
 32 31  1  0  0  0  0
 33 34  1  0  0  0  0
 33 35  2  0  0  0  0
 35 36  1  0  0  0  0
 37 35  1  0  0  0  0
M  END
>  <minimizedAffinity>
-5.5826211

>  <minimizedRMSD>
1.25762939

$$$$
