
 OpenBabel03242515563D

 36 39  0  0  0  0  0  0  0  0999 V2000
   45.9680   32.7150   46.6300 C   0  0  0  0  0  0  0  0  0  0  0  0
   45.4590   32.8890   47.9450 C   0  0  0  0  0  0  0  0  0  0  0  0
   45.7120   32.0220   48.9780 C   0  0  0  0  0  0  0  0  0  0  0  0
   46.4820   30.9330   48.7870 C   0  0  0  0  0  0  0  0  0  0  0  0
   47.0060   30.7120   47.5230 C   0  0  0  0  0  0  0  0  0  0  0  0
   47.7800   29.5930   47.3650 C   0  0  0  0  0  0  0  0  0  0  0  0
   48.3230   29.3130   46.1330 C   0  0  0  0  0  0  0  0  0  0  0  0
   48.0460   30.2020   45.0980 C   0  0  0  0  0  0  0  0  0  0  0  0
   47.2750   31.2810   45.3390 C   0  0  0  0  0  0  0  0  0  0  0  0
   46.7320   31.5980   46.5060 C   0  0  0  0  0  0  0  0  0  0  0  0
   44.8360   33.7470   48.1500 H   0  0  0  0  0  0  0  0  0  0  0  0
   45.2860   32.2250   49.9500 H   0  0  0  0  0  0  0  0  0  0  0  0
   46.6620   30.2730   49.6220 H   0  0  0  0  0  0  0  0  0  0  0  0
   47.9460   28.9370   48.2470 H   0  0  0  0  0  0  0  0  0  0  0  0
   48.9240   28.3840   46.1510 H   0  0  0  0  0  0  0  0  0  0  0  0
   48.5860   29.7350   44.2880 H   0  0  0  0  0  0  0  0  0  0  0  0
   44.4410   35.6410   45.2070 C   0  0  0  0  0  0  0  0  0  0  0  0
   45.0920   35.7390   43.9330 C   0  0  0  0  0  0  0  0  0  0  0  0
   46.0640   34.7670   43.5500 C   0  0  0  0  0  0  0  0  0  0  0  0
   46.3220   33.7890   44.4280 N   0  0  0  0  0  0  0  0  0  0  0  0
   45.7350   33.6920   45.5910 C   0  0  0  0  0  0  0  0  0  0  0  0
   44.8000   34.6200   45.9670 N   0  0  0  0  0  0  0  0  0  0  0  0
   43.7120   36.3930   45.4620 H   0  0  0  0  0  0  0  0  0  0  0  0
   46.4520   34.9960   42.5850 H   0  0  0  0  0  0  0  0  0  0  0  0
   44.7060   36.8360   43.1150 N   0  0  0  0  0  0  0  0  0  0  0  0
   43.8530   36.8730   42.4980 H   0  0  0  0  0  0  0  0  0  0  0  0
   45.3410   37.6560   43.1530 H   0  0  0  0  0  0  0  0  0  0  0  0
   47.1670   31.9490   44.1570 O   0  0  0  0  0  0  0  0  0  0  0  0
   47.8660   31.6360   42.9880 C   0  0  0  0  0  0  0  0  0  0  0  0
   48.9740   32.3890   42.6830 C   0  0  0  0  0  0  0  0  0  0  0  0
   49.5680   33.2380   43.0540 H   0  0  0  0  0  0  0  0  0  0  0  0
   49.5530   31.9830   41.5270 C   0  0  0  0  0  0  0  0  0  0  0  0
   50.3840   32.1970   40.8600 H   0  0  0  0  0  0  0  0  0  0  0  0
   48.7740   30.9510   41.1130 C   0  0  0  0  0  0  0  0  0  0  0  0
   48.6250   30.1980   40.3410 H   0  0  0  0  0  0  0  0  0  0  0  0
   47.8420   30.8130   41.9900 O   0  0  0  0  0  0  0  0  0  0  0  0
  1  2  1  0  0  0  0
  2 11  1  0  0  0  0
  2  3  2  0  0  0  0
  3 12  1  0  0  0  0
  4  3  1  0  0  0  0
  4 13  1  0  0  0  0
  5  4  2  0  0  0  0
  6  5  1  0  0  0  0
  6 14  1  0  0  0  0
  7 15  1  0  0  0  0
  7  6  2  0  0  0  0
  8  9  2  0  0  0  0
  8  7  1  0  0  0  0
  9 10  1  0  0  0  0
 10  1  2  0  0  0  0
 10  5  1  0  0  0  0
 16  8  1  0  0  0  0
 17 23  1  0  0  0  0
 17 22  1  0  0  0  0
 18 17  2  0  0  0  0
 19 18  1  0  0  0  0
 19 20  2  0  0  0  0
 20 21  1  0  0  0  0
 21 22  2  0  0  0  0
 21  1  1  0  0  0  0
 24 19  1  0  0  0  0
 25 27  1  0  0  0  0
 25 18  1  0  0  0  0
 26 25  1  0  0  0  0
 28  9  1  0  0  0  0
 29 28  1  0  0  0  0
 30 29  2  0  0  0  0
 30 31  1  0  0  0  0
 32 30  1  0  0  0  0
 33 32  1  0  0  0  0
 34 32  2  0  0  0  0
 34 36  1  0  0  0  0
 35 34  1  0  0  0  0
 36 29  1  0  0  0  0
M  END
>  <minimizedAffinity>
-5.7934866

>  <minimizedRMSD>
0.359109849

$$$$
