
 OpenBabel03242513113D

 19 20  0  0  0  0  0  0  0  0999 V2000
   45.3600   33.4380   46.6910 C   0  0  0  0  0  0  0  0  0  0  0  0
   44.6040   33.7680   47.6370 O   0  0  0  0  0  0  0  0  0  0  0  0
   44.6750   36.0130   44.2230 C   0  0  0  0  0  0  0  0  0  0  0  0
   45.5270   35.6870   43.1450 C   0  0  0  0  0  0  0  0  0  0  0  0
   46.3430   34.5560   43.2930 C   0  0  0  0  0  0  0  0  0  0  0  0
   46.2710   33.8450   44.4490 N   0  0  0  0  0  0  0  0  0  0  0  0
   45.4410   34.1930   45.4540 C   0  0  0  0  0  0  0  0  0  0  0  0
   44.6570   35.2720   45.3250 N   0  0  0  0  0  0  0  0  0  0  0  0
   44.0270   36.8860   44.1420 H   0  0  0  0  0  0  0  0  0  0  0  0
   45.5620   36.2650   42.2480 H   0  0  0  0  0  0  0  0  0  0  0  0
   47.0200   34.2420   42.5140 H   0  0  0  0  0  0  0  0  0  0  0  0
   46.1780   32.2480   46.8680 C   0  0  0  0  0  0  0  0  0  0  0  0
   47.3330   32.2040   47.6550 C   0  0  0  0  0  0  0  0  0  0  0  0
   47.7720   33.0110   48.2240 H   0  0  0  0  0  0  0  0  0  0  0  0
   47.7670   30.8820   47.5240 C   0  0  0  0  0  0  0  0  0  0  0  0
   48.6640   30.5820   48.0480 H   0  0  0  0  0  0  0  0  0  0  0  0
   46.8840   30.2020   46.6880 C   0  0  0  0  0  0  0  0  0  0  0  0
   47.1160   29.1790   46.5130 H   0  0  0  0  0  0  0  0  0  0  0  0
   45.9650   31.0660   46.3340 O   0  0  0  0  0  0  0  0  0  0  0  0
  1 12  1  0  0  0  0
  1  2  2  0  0  0  0
  3  8  1  0  0  0  0
  4  5  1  0  0  0  0
  4  3  2  0  0  0  0
  5  6  2  0  0  0  0
  6  7  1  0  0  0  0
  7  1  1  0  0  0  0
  8  7  2  0  0  0  0
  9  3  1  0  0  0  0
 10  4  1  0  0  0  0
 11  5  1  0  0  0  0
 12 13  2  0  0  0  0
 13 14  1  0  0  0  0
 15 13  1  0  0  0  0
 15 16  1  0  0  0  0
 17 15  2  0  0  0  0
 18 17  1  0  0  0  0
 19 17  1  0  0  0  0
 19 12  1  0  0  0  0
M  END
>  <minimizedAffinity>
-3.97422242

>  <minimizedRMSD>
1.08324862

$$$$
