
     RDKit          3D

 44 46  0  0  0  0  0  0  0  0999 V2000
   47.1675   34.1554   43.0834 N   0  0  0  0  0  0  0  0  0  0  0  0
   46.6678   35.3623   42.5329 C   0  0  0  0  0  0  0  0  0  0  0  0
   45.1870   35.5998   42.7472 C   0  0  0  0  0  0  0  0  0  0  0  0
   44.6441   35.0428   44.0348 C   0  0  0  0  0  0  0  0  0  0  0  0
   45.7427   34.4657   44.8947 C   0  0  0  0  0  0  0  0  0  0  0  0
   46.4110   33.3940   43.9572 C   0  0  2  0  0  0  0  0  0  0  0  0
   48.1529   33.4994   42.2685 C   0  0  0  0  0  0  0  0  0  0  0  0
   47.4439   32.6528   41.2560 C   0  0  0  0  0  0  0  0  0  0  0  0
   49.3321   32.2894   38.0306 C   0  0  0  0  0  0  0  0  0  0  0  0
   48.8111   32.0190   39.3097 C   0  0  0  0  0  0  0  0  0  0  0  0
   47.9887   32.9480   39.9060 C   0  0  0  0  0  0  0  0  0  0  0  0
   47.7266   34.0700   39.2290 N   0  0  0  0  0  0  0  0  0  0  0  0
   48.2287   34.3208   38.0068 C   0  0  0  0  0  0  0  0  0  0  0  0
   49.0390   33.4276   37.3960 N   0  0  0  0  0  0  0  0  0  0  0  0
   47.2051   32.6981   44.8554 O   0  0  0  0  0  0  0  0  0  0  0  0
   45.9952   30.5450   43.8668 O   0  0  0  0  0  0  0  0  0  0  0  0
   46.6710   31.1240   45.1159 P   0  0  2  0  0  0  0  0  0  0  0  0
   45.4068   31.2431   46.2678 O   0  0  0  0  0  0  0  0  0  0  0  0
   47.8350   30.1306   45.7382 O   0  0  0  0  0  0  0  0  0  0  0  0
   46.8779   35.5329   41.4713 H   0  0  0  0  0  0  0  0  0  0  0  0
   47.1985   36.1963   43.0693 H   0  0  0  0  0  0  0  0  0  0  0  0
   44.6046   35.2708   41.8610 H   0  0  0  0  0  0  0  0  0  0  0  0
   45.0130   36.7036   42.7950 H   0  0  0  0  0  0  0  0  0  0  0  0
   44.1216   35.7873   44.6549 H   0  0  0  0  0  0  0  0  0  0  0  0
   43.9357   34.2313   43.8093 H   0  0  0  0  0  0  0  0  0  0  0  0
   45.2952   33.9627   45.7598 H   0  0  0  0  0  0  0  0  0  0  0  0
   46.5299   35.1738   45.1523 H   0  0  0  0  0  0  0  0  0  0  0  0
   45.6028   32.7622   43.5362 H   0  0  0  0  0  0  0  0  0  0  0  0
   48.7885   34.2886   41.8060 H   0  0  0  0  0  0  0  0  0  0  0  0
   48.8047   32.8413   42.8791 H   0  0  0  0  0  0  0  0  0  0  0  0
   46.3480   32.8992   41.2217 H   0  0  0  0  0  0  0  0  0  0  0  0
   47.5133   31.5695   41.4586 H   0  0  0  0  0  0  0  0  0  0  0  0
   49.9717   31.6225   37.5087 H   0  0  0  0  0  0  0  0  0  0  0  0
   49.1028   31.0736   39.7448 H   0  0  0  0  0  0  0  0  0  0  0  0
   47.9939   35.2475   37.4826 H   0  0  0  0  0  0  0  0  0  0  0  0
   45.6607   31.9152   46.9591 H   0  0  0  0  0  0  0  0  0  0  0  0
   49.0188   30.4270   46.3562 C   0  0  0  0  0  0  0  0  0  0  0  0
   49.5553   29.5730   47.3259 C   0  0  0  0  0  0  0  0  0  0  0  0
   49.1558   28.6380   47.7000 H   0  0  0  0  0  0  0  0  0  0  0  0
   50.7430   30.1910   47.7223 C   0  0  0  0  0  0  0  0  0  0  0  0
   51.3781   29.7243   48.4905 H   0  0  0  0  0  0  0  0  0  0  0  0
   50.8560   31.3687   46.9792 C   0  0  0  0  0  0  0  0  0  0  0  0
   51.7368   31.9658   47.1762 H   0  0  0  0  0  0  0  0  0  0  0  0
   49.8170   31.4603   46.1913 O   0  0  0  0  0  0  0  0  0  0  0  0
  1  6  1  0
  2  3  1  0
  2  1  1  0
  3  4  1  0
  4  5  1  0
  6 15  1  0
  6  5  1  0
  7  1  1  0
  8  7  1  0
  9 10  2  0
 10 11  1  0
 11  8  1  0
 12 11  2  0
 13 12  1  0
 14 13  2  0
 14  9  1  0
 17 15  1  6
 16 17  2  0
 17 19  1  0
 17 18  1  0
  2 20  1  0
  2 21  1  0
  3 22  1  0
  3 23  1  0
  4 24  1  0
  4 25  1  0
  5 26  1  0
  5 27  1  0
  6 28  1  6
  7 29  1  0
  7 30  1  0
  8 31  1  0
  8 32  1  0
  9 33  1  0
 10 34  1  0
 13 35  1  0
 18 36  1  0
 37 38  2  0
 38 39  1  0
 38 40  1  0
 40 41  1  0
 40 42  2  0
 42 43  1  0
 42 44  1  0
 44 37  1  0
 19 37  1  0
M  ISO  8  20  13  21  13  22  13  23  13  24  13  25  13  26  13  27  13
M  ISO  8  28  13  29   8  30   8  31   8  32   8  33  14  34  14  35  14
M  ISO  4  36   3  39  16  41  16  43  14
M  END
>  <DihAtoms>  (1) 
16,18,36,37

>  <DihDeg>  (1) 
179.99888315326493

$$$$
