
 OpenBabel03242516433D

 43 45  0  0  1  0  0  0  0  0999 V2000
   49.8140   31.2340   42.3350 O   0  0  0  0  0  0  0  0  0  0  0  0
   50.3060   32.0750   41.1740 P   0  0  2  0  0  0  0  0  0  0  0  0
   51.7520   32.8460   41.5020 O   0  0  0  0  0  0  0  0  0  0  0  0
   52.1460   32.4870   42.3460 H   0  0  0  0  0  0  0  0  0  0  0  0
   49.1340   33.2210   40.7890 O   0  0  0  0  0  0  0  0  0  0  0  0
   49.0750   34.2220   41.7440 C   0  0  0  0  0  0  0  0  0  0  0  0
   49.9340   34.9230   41.7110 H   0  0  0  0  0  0  0  0  0  0  0  0
   49.1320   33.7440   42.7650 H   0  0  0  0  0  0  0  0  0  0  0  0
   47.8050   34.9980   41.6250 C   0  0  0  0  0  0  0  0  0  0  0  0
   47.2920   34.7670   40.6660 H   0  0  0  0  0  0  0  0  0  0  0  0
   47.9830   36.0910   41.6560 H   0  0  0  0  0  0  0  0  0  0  0  0
   44.9270   35.1350   44.0360 C   0  0  0  0  0  0  0  0  0  0  0  0
   45.7430   35.4090   42.9290 C   0  0  0  0  0  0  0  0  0  0  0  0
   46.9350   34.7040   42.8070 C   0  0  0  0  0  0  0  0  0  0  0  0
   47.2630   33.7880   43.7510 N   0  0  0  0  0  0  0  0  0  0  0  0
   46.4410   33.5600   44.8030 C   0  0  0  0  0  0  0  0  0  0  0  0
   45.2910   34.2110   44.9600 N   0  0  0  0  0  0  0  0  0  0  0  0
   43.7000   35.8240   44.2130 N   0  0  0  0  0  0  0  0  0  0  0  0
   45.3990   36.1490   42.2380 H   0  0  0  0  0  0  0  0  0  0  0  0
   46.7630   32.8150   45.5220 H   0  0  0  0  0  0  0  0  0  0  0  0
   43.6940   36.6200   44.8990 H   0  0  0  0  0  0  0  0  0  0  0  0
   42.7850   35.6740   43.7740 H   0  0  0  0  0  0  0  0  0  0  0  0
   50.5640   31.0590   39.8210 O   0  0  0  0  0  0  0  0  0  0  0  0
   50.0070   31.1540   37.5390 C   0  0  1  0  0  0  0  0  0  0  0  0
   50.7630   31.7810   38.6770 C   0  0  2  0  0  0  0  0  0  0  0  0
   52.2000   31.4360   38.2240 C   0  0  0  0  0  0  0  0  0  0  0  0
   52.1360   30.1730   37.7120 O   0  0  0  0  0  0  0  0  0  0  0  0
   50.8610   29.9390   37.2570 C   0  0  0  0  0  0  0  0  0  0  0  0
   50.0230   31.8520   36.6900 H   0  0  0  0  0  0  0  0  0  0  0  0
   50.6480   32.8750   38.7660 H   0  0  0  0  0  0  0  0  0  0  0  0
   52.8740   31.5260   39.1000 H   0  0  0  0  0  0  0  0  0  0  0  0
   52.4790   32.2070   37.4830 H   0  0  0  0  0  0  0  0  0  0  0  0
   50.8300   29.7380   36.1610 H   0  0  0  0  0  0  0  0  0  0  0  0
   50.4930   29.0260   37.7760 H   0  0  0  0  0  0  0  0  0  0  0  0
   48.7050   30.8440   37.8710 O   0  0  0  0  0  0  0  0  0  0  0  0
   47.6300   31.7060   37.9460 C   0  0  0  0  0  0  0  0  0  0  0  0
   47.3940   32.4620   36.7890 C   0  0  0  0  0  0  0  0  0  0  0  0
   47.8200   32.5920   35.7840 H   0  0  0  0  0  0  0  0  0  0  0  0
   46.2790   33.2610   37.0660 C   0  0  0  0  0  0  0  0  0  0  0  0
   45.6580   34.0110   36.5880 H   0  0  0  0  0  0  0  0  0  0  0  0
   45.9110   32.9450   38.3570 C   0  0  0  0  0  0  0  0  0  0  0  0
   45.1630   33.2010   39.1230 H   0  0  0  0  0  0  0  0  0  0  0  0
   46.7250   32.0390   38.8240 O   0  0  0  0  0  0  0  0  0  0  0  0
  2  3  1  0  0  0  0
  2  1  2  1  0  0  0
  3  4  1  0  0  0  0
  5  2  1  0  0  0  0
  5  6  1  0  0  0  0
  6  8  1  0  0  0  0
  7  6  1  0  0  0  0
  9 11  1  0  0  0  0
  9  6  1  0  0  0  0
  9 14  1  0  0  0  0
 10  9  1  0  0  0  0
 12 18  1  0  0  0  0
 12 17  1  0  0  0  0
 13 12  2  0  0  0  0
 14 13  1  0  0  0  0
 14 15  2  0  0  0  0
 15 16  1  0  0  0  0
 16 17  2  0  0  0  0
 16 20  1  0  0  0  0
 18 21  1  0  0  0  0
 19 13  1  0  0  0  0
 22 18  1  0  0  0  0
 23  2  1  0  0  0  0
 24 29  1  6  0  0  0
 24 35  1  0  0  0  0
 24 25  1  0  0  0  0
 25 30  1  1  0  0  0
 25 23  1  0  0  0  0
 26 25  1  0  0  0  0
 26 31  1  0  0  0  0
 27 26  1  0  0  0  0
 28 24  1  0  0  0  0
 28 27  1  0  0  0  0
 28 34  1  0  0  0  0
 32 26  1  0  0  0  0
 33 28  1  0  0  0  0
 35 36  1  0  0  0  0
 36 43  1  0  0  0  0
 37 39  1  0  0  0  0
 37 36  2  0  0  0  0
 38 37  1  0  0  0  0
 39 41  2  0  0  0  0
 40 39  1  0  0  0  0
 41 43  1  0  0  0  0
 41 42  1  0  0  0  0
M  END
>  <minimizedAffinity>
-4.75033426

>  <minimizedRMSD>
3.00885081

$$$$
