
 OpenBabel03252508503D

 27 29  0  0  0  0  0  0  0  0999 V2000
   45.9660   34.1920   41.0410 C   0  0  0  0  0  0  0  0  0  0  0  0
   46.5450   34.8090   42.1420 C   0  0  0  0  0  0  0  0  0  0  0  0
   47.8970   35.1740   42.0170 C   0  0  0  0  0  0  0  0  0  0  0  0
   48.5350   34.9040   40.8490 N   0  0  0  0  0  0  0  0  0  0  0  0
   47.9370   34.3110   39.8230 C   0  0  0  0  0  0  0  0  0  0  0  0
   46.6450   33.9500   39.9110 N   0  0  0  0  0  0  0  0  0  0  0  0
   48.3710   35.6510   42.8480 H   0  0  0  0  0  0  0  0  0  0  0  0
   48.4100   34.0780   38.8720 H   0  0  0  0  0  0  0  0  0  0  0  0
   45.7640   35.0470   43.3400 C   0  0  0  0  0  0  0  0  0  0  0  0
   45.0780   36.2190   43.5730 C   0  0  0  0  0  0  0  0  0  0  0  0
   44.4900   36.0200   44.8010 C   0  0  0  0  0  0  0  0  0  0  0  0
   44.7980   34.8010   45.2890 N   0  0  0  0  0  0  0  0  0  0  0  0
   45.5690   34.2340   44.3860 N   0  0  0  0  0  0  0  0  0  0  0  0
   44.9680   37.1270   42.9950 H   0  0  0  0  0  0  0  0  0  0  0  0
   43.8470   36.6700   45.4020 H   0  0  0  0  0  0  0  0  0  0  0  0
   44.5720   34.2670   46.1540 H   0  0  0  0  0  0  0  0  0  0  0  0
   44.6370   33.8180   41.1260 O   0  0  0  0  0  0  0  0  0  0  0  0
   43.5570   34.4570   40.5890 C   0  0  0  0  0  0  0  0  0  0  0  0
   43.2860   35.7120   40.6650 O   0  0  0  0  0  0  0  0  0  0  0  0
   42.4950   33.7550   39.8060 C   0  0  0  0  0  0  0  0  0  0  0  0
   42.6160   33.1210   38.5630 C   0  0  0  0  0  0  0  0  0  0  0  0
   43.5820   33.0940   38.0350 H   0  0  0  0  0  0  0  0  0  0  0  0
   41.4190   32.5820   38.1520 C   0  0  0  0  0  0  0  0  0  0  0  0
   41.2380   32.0410   37.2330 H   0  0  0  0  0  0  0  0  0  0  0  0
   40.5840   32.9190   39.1940 C   0  0  0  0  0  0  0  0  0  0  0  0
   39.5160   32.6610   39.2410 H   0  0  0  0  0  0  0  0  0  0  0  0
   41.2310   33.5720   40.0920 O   0  0  0  0  0  0  0  0  0  0  0  0
  1 17  1  0  0  0  0
  1  2  1  0  0  0  0
  2  9  1  0  0  0  0
  3  2  2  0  0  0  0
  3  7  1  0  0  0  0
  4  3  1  0  0  0  0
  5  6  1  0  0  0  0
  5  4  2  0  0  0  0
  6  1  2  0  0  0  0
  8  5  1  0  0  0  0
  9 10  1  0  0  0  0
  9 13  2  0  0  0  0
 10 11  2  0  0  0  0
 11 12  1  0  0  0  0
 11 15  1  0  0  0  0
 12 16  1  0  0  0  0
 13 12  1  0  0  0  0
 14 10  1  0  0  0  0
 18 19  2  0  0  0  0
 18 17  1  0  0  0  0
 20 27  1  0  0  0  0
 20 18  1  0  0  0  0
 21 20  2  0  0  0  0
 22 21  1  0  0  0  0
 23 21  1  0  0  0  0
 23 25  2  0  0  0  0
 24 23  1  0  0  0  0
 25 26  1  0  0  0  0
 25 27  1  0  0  0  0
M  END
>  <minimizedAffinity>
-5.04802322

>  <minimizedRMSD>
0.440152079

$$$$
