
 OpenBabel03242518283D

 20 21  0  0  0  0  0  0  0  0999 V2000
   47.3030   34.7570   41.9860 C   0  0  0  0  0  0  0  0  0  0  0  0
   48.1810   35.5810   41.6420 O   0  0  0  0  0  0  0  0  0  0  0  0
   46.4350   34.8130   43.1220 C   0  0  0  0  0  0  0  0  0  0  0  0
   45.5510   35.8800   43.0780 C   0  0  0  0  0  0  0  0  0  0  0  0
   44.6610   36.0050   44.1600 C   0  0  0  0  0  0  0  0  0  0  0  0
   44.7190   35.0950   45.1630 N   0  0  0  0  0  0  0  0  0  0  0  0
   45.6080   34.0750   45.1450 C   0  0  0  0  0  0  0  0  0  0  0  0
   46.4740   33.9290   44.1190 N   0  0  0  0  0  0  0  0  0  0  0  0
   45.4900   36.6090   42.2940 H   0  0  0  0  0  0  0  0  0  0  0  0
   43.9320   36.7860   44.2400 H   0  0  0  0  0  0  0  0  0  0  0  0
   45.6590   33.3390   45.9510 H   0  0  0  0  0  0  0  0  0  0  0  0
   47.1430   33.6370   41.1600 O   0  0  0  0  0  0  0  0  0  0  0  0
   47.3080   33.7460   39.7690 C   0  0  0  0  0  0  0  0  0  0  0  0
   48.2980   34.3270   39.0110 C   0  0  0  0  0  0  0  0  0  0  0  0
   49.1370   34.8080   39.4830 H   0  0  0  0  0  0  0  0  0  0  0  0
   47.9750   34.1530   37.6720 C   0  0  0  0  0  0  0  0  0  0  0  0
   48.6170   34.5340   36.8930 H   0  0  0  0  0  0  0  0  0  0  0  0
   46.7780   33.4600   37.6820 C   0  0  0  0  0  0  0  0  0  0  0  0
   46.3070   33.1950   36.7510 H   0  0  0  0  0  0  0  0  0  0  0  0
   46.4140   33.2350   38.9290 O   0  0  0  0  0  0  0  0  0  0  0  0
  1  3  1  0  0  0  0
  2  1  2  0  0  0  0
  3  8  1  0  0  0  0
  4  3  2  0  0  0  0
  4  5  1  0  0  0  0
  5 10  1  0  0  0  0
  5  6  2  0  0  0  0
  7  6  1  0  0  0  0
  7 11  1  0  0  0  0
  8  7  2  0  0  0  0
  9  4  1  0  0  0  0
 12  1  1  0  0  0  0
 13 12  1  0  0  0  0
 14 15  1  0  0  0  0
 14 13  2  0  0  0  0
 16 18  2  0  0  0  0
 16 14  1  0  0  0  0
 17 16  1  0  0  0  0
 18 20  1  0  0  0  0
 19 18  1  0  0  0  0
 20 13  1  0  0  0  0
M  END
>  <minimizedAffinity>
-4.10054398

>  <minimizedRMSD>
0.488855213

$$$$
