
 OpenBabel03252508503D

 27 29  0  0  0  0  0  0  0  0999 V2000
   45.9650   34.1850   41.0250 C   0  0  0  0  0  0  0  0  0  0  0  0
   46.5420   34.8090   42.1240 C   0  0  0  0  0  0  0  0  0  0  0  0
   47.8920   35.1820   41.9970 C   0  0  0  0  0  0  0  0  0  0  0  0
   48.5300   34.9110   40.8280 N   0  0  0  0  0  0  0  0  0  0  0  0
   47.9340   34.3120   39.8050 C   0  0  0  0  0  0  0  0  0  0  0  0
   46.6440   33.9440   39.8950 N   0  0  0  0  0  0  0  0  0  0  0  0
   48.3640   35.6630   42.8250 H   0  0  0  0  0  0  0  0  0  0  0  0
   48.4080   34.0790   38.8550 H   0  0  0  0  0  0  0  0  0  0  0  0
   45.7610   35.0470   43.3220 C   0  0  0  0  0  0  0  0  0  0  0  0
   45.0600   36.2120   43.5480 C   0  0  0  0  0  0  0  0  0  0  0  0
   44.4780   36.0150   44.7790 C   0  0  0  0  0  0  0  0  0  0  0  0
   44.8030   34.8040   45.2750 N   0  0  0  0  0  0  0  0  0  0  0  0
   45.5780   34.2390   44.3750 N   0  0  0  0  0  0  0  0  0  0  0  0
   44.9370   37.1130   42.9630 H   0  0  0  0  0  0  0  0  0  0  0  0
   43.8280   36.6610   45.3760 H   0  0  0  0  0  0  0  0  0  0  0  0
   44.5860   34.2730   46.1450 H   0  0  0  0  0  0  0  0  0  0  0  0
   44.6380   33.8050   41.1130 O   0  0  0  0  0  0  0  0  0  0  0  0
   43.5630   34.3940   40.5150 C   0  0  0  0  0  0  0  0  0  0  0  0
   43.1430   35.5960   40.6930 O   0  0  0  0  0  0  0  0  0  0  0  0
   42.6850   33.6920   39.5290 C   0  0  0  0  0  0  0  0  0  0  0  0
   42.9790   32.5500   38.7740 C   0  0  0  0  0  0  0  0  0  0  0  0
   43.9570   32.0510   38.8630 H   0  0  0  0  0  0  0  0  0  0  0  0
   41.9220   32.1890   37.9700 C   0  0  0  0  0  0  0  0  0  0  0  0
   41.8870   31.3490   37.2920 H   0  0  0  0  0  0  0  0  0  0  0  0
   40.9920   33.1570   38.2760 C   0  0  0  0  0  0  0  0  0  0  0  0
   39.9890   33.2160   37.8280 H   0  0  0  0  0  0  0  0  0  0  0  0
   41.4650   33.9720   39.1500 O   0  0  0  0  0  0  0  0  0  0  0  0
  1 17  1  0  0  0  0
  1  2  1  0  0  0  0
  2  9  1  0  0  0  0
  3  2  2  0  0  0  0
  3  7  1  0  0  0  0
  4  3  1  0  0  0  0
  5  6  1  0  0  0  0
  5  4  2  0  0  0  0
  6  1  2  0  0  0  0
  8  5  1  0  0  0  0
  9 10  1  0  0  0  0
  9 13  2  0  0  0  0
 10 11  2  0  0  0  0
 11 12  1  0  0  0  0
 11 15  1  0  0  0  0
 12 16  1  0  0  0  0
 13 12  1  0  0  0  0
 14 10  1  0  0  0  0
 18 19  2  0  0  0  0
 18 17  1  0  0  0  0
 20 18  1  0  0  0  0
 21 22  1  0  0  0  0
 21 20  2  0  0  0  0
 23 25  2  0  0  0  0
 23 21  1  0  0  0  0
 24 23  1  0  0  0  0
 25 27  1  0  0  0  0
 26 25  1  0  0  0  0
 27 20  1  0  0  0  0
M  END
>  <minimizedAffinity>
-5.03341579

>  <minimizedRMSD>
0.312768787

$$$$
