
 OpenBabel03252504293D

 26 27  0  0  0  0  0  0  0  0999 V2000
   43.5510   35.7380   41.4170 O   0  0  0  0  0  0  0  0  0  0  0  0
   44.6170   34.8990   41.6500 C   0  0  0  0  0  0  0  0  0  0  0  0
   45.5760   35.4430   41.3430 H   0  0  0  0  0  0  0  0  0  0  0  0
   44.5120   33.9630   41.0830 H   0  0  0  0  0  0  0  0  0  0  0  0
   44.4660   35.6110   43.9260 C   0  0  0  0  0  0  0  0  0  0  0  0
   44.8510   34.5670   43.0690 C   0  0  0  0  0  0  0  0  0  0  0  0
   45.3790   33.4480   43.6540 C   0  0  0  0  0  0  0  0  0  0  0  0
   45.4870   33.4360   44.9790 N   0  0  0  0  0  0  0  0  0  0  0  0
   45.1230   34.4240   45.7890 C   0  0  0  0  0  0  0  0  0  0  0  0
   44.5790   35.5930   45.2820 N   0  0  0  0  0  0  0  0  0  0  0  0
   44.0280   36.5680   43.6060 H   0  0  0  0  0  0  0  0  0  0  0  0
   45.6480   32.6920   42.9310 H   0  0  0  0  0  0  0  0  0  0  0  0
   45.2910   34.2200   46.8190 H   0  0  0  0  0  0  0  0  0  0  0  0
   42.4710   35.5150   40.5800 C   0  0  0  0  0  0  0  0  0  0  0  0
   41.2490   35.7890   41.1000 C   0  0  0  0  0  0  0  0  0  0  0  0
   39.9340   35.6800   40.3540 C   0  0  0  0  0  0  0  0  0  0  0  0
   40.1060   35.9080   39.2880 H   0  0  0  0  0  0  0  0  0  0  0  0
   39.2750   36.4370   40.7740 H   0  0  0  0  0  0  0  0  0  0  0  0
   39.4310   34.2930   40.5580 C   0  0  0  0  0  0  0  0  0  0  0  0
   38.4690   33.6110   39.8490 C   0  0  0  0  0  0  0  0  0  0  0  0
   37.9120   33.9960   39.0020 H   0  0  0  0  0  0  0  0  0  0  0  0
   38.3890   32.3610   40.4580 C   0  0  0  0  0  0  0  0  0  0  0  0
   37.7160   31.5550   40.1450 H   0  0  0  0  0  0  0  0  0  0  0  0
   39.3110   32.3590   41.5030 C   0  0  0  0  0  0  0  0  0  0  0  0
   39.4850   31.5210   42.1680 H   0  0  0  0  0  0  0  0  0  0  0  0
   39.9170   33.5350   41.5330 O   0  0  0  0  0  0  0  0  0  0  0  0
  1  2  1  0  0  0  0
  2  6  1  0  0  0  0
  3  2  1  0  0  0  0
  4  2  1  0  0  0  0
  5 10  1  0  0  0  0
  6  7  1  0  0  0  0
  6  5  2  0  0  0  0
  7  8  2  0  0  0  0
  8  9  1  0  0  0  0
  9 13  1  0  0  0  0
 10  9  2  0  0  0  0
 11  5  1  0  0  0  0
 12  7  1  0  0  0  0
 14 15  2  0  0  0  0
 14  1  1  0  0  0  0
 16 19  1  0  0  0  0
 16 18  1  0  0  0  0
 16 15  1  0  0  0  0
 17 16  1  0  0  0  0
 19 26  1  0  0  0  0
 20 22  1  0  0  0  0
 20 19  2  0  0  0  0
 21 20  1  0  0  0  0
 22 24  2  0  0  0  0
 23 22  1  0  0  0  0
 24 26  1  0  0  0  0
 24 25  1  0  0  0  0
M  END
>  <minimizedAffinity>
-4.76616287

>  <minimizedRMSD>
1.51356339

$$$$
