
 OpenBabel03252504283D

 26 27  0  0  0  0  0  0  0  0999 V2000
   43.2660   35.8190   41.6540 O   0  0  0  0  0  0  0  0  0  0  0  0
   44.4920   35.2100   41.7860 C   0  0  0  0  0  0  0  0  0  0  0  0
   45.3050   35.9920   41.5950 H   0  0  0  0  0  0  0  0  0  0  0  0
   44.5950   34.3740   41.0790 H   0  0  0  0  0  0  0  0  0  0  0  0
   44.4410   35.6470   44.1350 C   0  0  0  0  0  0  0  0  0  0  0  0
   44.8020   34.7200   43.1430 C   0  0  0  0  0  0  0  0  0  0  0  0
   45.3790   33.5530   43.5670 C   0  0  0  0  0  0  0  0  0  0  0  0
   45.5530   33.3890   44.8740 N   0  0  0  0  0  0  0  0  0  0  0  0
   45.2110   34.2650   45.8120 C   0  0  0  0  0  0  0  0  0  0  0  0
   44.6200   35.4730   45.4720 N   0  0  0  0  0  0  0  0  0  0  0  0
   43.9700   36.6230   43.9510 H   0  0  0  0  0  0  0  0  0  0  0  0
   45.6270   32.8940   42.7470 H   0  0  0  0  0  0  0  0  0  0  0  0
   45.4330   33.9460   46.8020 H   0  0  0  0  0  0  0  0  0  0  0  0
   42.0580   35.2210   41.3370 C   0  0  0  0  0  3  0  0  0  0  0  0
   41.0940   36.0450   40.8580 C   0  0  0  0  0  3  0  0  0  0  0  0
   39.7200   35.6080   40.3900 C   0  0  0  0  0  0  0  0  0  0  0  0
   39.2450   36.4400   39.8430 H   0  0  0  0  0  0  0  0  0  0  0  0
   39.1380   35.4010   41.2870 H   0  0  0  0  0  0  0  0  0  0  0  0
   39.9120   34.4060   39.5320 C   0  0  0  0  0  0  0  0  0  0  0  0
   40.3650   34.3350   38.2350 C   0  0  0  0  0  0  0  0  0  0  0  0
   40.6630   35.1770   37.6200 H   0  0  0  0  0  0  0  0  0  0  0  0
   40.3500   32.9790   37.9190 C   0  0  0  0  0  0  0  0  0  0  0  0
   40.6530   32.5580   36.9540 H   0  0  0  0  0  0  0  0  0  0  0  0
   39.8860   32.3060   39.0480 C   0  0  0  0  0  0  0  0  0  0  0  0
   39.7600   31.2310   39.1150 H   0  0  0  0  0  0  0  0  0  0  0  0
   39.6320   33.1930   39.9950 O   0  0  0  0  0  0  0  0  0  0  0  0
  1  2  1  0  0  0  0
  2  6  1  0  0  0  0
  3  2  1  0  0  0  0
  4  2  1  0  0  0  0
  5 10  1  0  0  0  0
  6  7  1  0  0  0  0
  6  5  2  0  0  0  0
  7  8  2  0  0  0  0
  8  9  1  0  0  0  0
  9 13  1  0  0  0  0
 10  9  2  0  0  0  0
 11  5  1  0  0  0  0
 12  7  1  0  0  0  0
 14  1  1  0  0  0  0
 15 14  2  0  0  0  0
 16 15  1  0  0  0  0
 16 18  1  0  0  0  0
 17 16  1  0  0  0  0
 19 26  1  0  0  0  0
 19 16  1  0  0  0  0
 20 19  2  0  0  0  0
 21 20  1  0  0  0  0
 22 20  1  0  0  0  0
 22 24  2  0  0  0  0
 23 22  1  0  0  0  0
 24 25  1  0  0  0  0
 24 26  1  0  0  0  0
M  END
>  <minimizedAffinity>
-4.31678677

>  <minimizedRMSD>
0.570200205

$$$$
