
 OpenBabel03242514193D

 48 50  0  0  0  0  0  0  0  0999 V2000
   46.1590   34.5650   43.6080 C   0  0  0  0  0  0  0  0  0  0  0  0
   46.1600   33.7970   44.7470 C   0  0  0  0  0  0  0  0  0  0  0  0
   45.3290   34.1890   45.7600 C   0  0  0  0  0  0  0  0  0  0  0  0
   44.5540   35.2840   45.6140 N   0  0  0  0  0  0  0  0  0  0  0  0
   44.5520   36.0270   44.5090 C   0  0  0  0  0  0  0  0  0  0  0  0
   45.3560   35.6460   43.5350 N   0  0  0  0  0  0  0  0  0  0  0  0
   45.1740   33.7390   46.7290 H   0  0  0  0  0  0  0  0  0  0  0  0
   43.9260   36.9070   44.3930 H   0  0  0  0  0  0  0  0  0  0  0  0
   47.0040   34.1090   42.4970 C   0  0  0  0  0  0  0  0  0  0  0  0
   48.3900   34.6830   42.5870 C   0  0  0  0  0  0  0  0  0  0  0  0
   48.7050   35.5770   41.4750 C   0  0  0  0  0  0  0  0  0  0  0  0
   48.5150   34.8990   40.1370 C   0  0  0  0  0  0  0  0  0  0  0  0
   47.2660   34.1100   40.0450 C   0  0  0  0  0  0  0  0  0  0  0  0
   46.3370   34.3970   41.2020 C   0  0  0  0  0  0  0  0  0  0  0  0
   47.1800   33.0250   42.6180 H   0  0  0  0  0  0  0  0  0  0  0  0
   49.1660   33.8960   42.6340 H   0  0  0  0  0  0  0  0  0  0  0  0
   48.4710   35.2250   43.5520 H   0  0  0  0  0  0  0  0  0  0  0  0
   48.0890   36.5020   41.5620 H   0  0  0  0  0  0  0  0  0  0  0  0
   49.7940   35.8520   41.5220 H   0  0  0  0  0  0  0  0  0  0  0  0
   49.4110   34.2750   39.9280 H   0  0  0  0  0  0  0  0  0  0  0  0
   48.4940   35.7410   39.3890 H   0  0  0  0  0  0  0  0  0  0  0  0
   46.7040   34.3910   39.1220 H   0  0  0  0  0  0  0  0  0  0  0  0
   47.4940   33.0190   40.0090 H   0  0  0  0  0  0  0  0  0  0  0  0
   45.3880   33.8460   41.0640 H   0  0  0  0  0  0  0  0  0  0  0  0
   46.1220   35.5040   41.1910 H   0  0  0  0  0  0  0  0  0  0  0  0
   46.8380   32.6990   45.0840 O   0  0  0  0  0  0  0  0  0  0  0  0
   47.2450   32.1490   46.2670 C   0  0  0  0  0  0  0  0  0  0  0  0
   46.7150   32.4610   47.1890 H   0  0  0  0  0  0  0  0  0  0  0  0
   48.3310   32.3470   46.5090 H   0  0  0  0  0  0  0  0  0  0  0  0
   47.1250   30.6300   46.3060 C   0  0  0  0  0  0  0  0  0  0  0  0
   48.0530   30.1800   45.8730 H   0  0  0  0  0  0  0  0  0  0  0  0
   47.0930   30.3000   47.3650 H   0  0  0  0  0  0  0  0  0  0  0  0
   45.9910   30.1550   45.5580 N   0  0  0  0  0  0  0  0  0  0  0  0
   46.2610   29.3120   44.9850 H   0  0  0  0  0  0  0  0  0  0  0  0
   44.8060   29.5850   46.7060 S   0  0  0  0  0  0  0  0  0  0  0  0
   43.5630   29.1230   46.0080 O   0  0  0  0  0  0  0  0  0  0  0  0
   43.3400   28.1570   45.8520 H   0  0  0  0  0  0  0  0  0  0  0  0
   44.5020   30.7230   47.6300 O   0  0  0  0  0  0  0  0  0  0  0  0
   44.2090   31.6000   47.2380 H   0  0  0  0  0  0  0  0  0  0  0  0
   45.4310   28.3440   47.6410 O   0  0  0  0  0  0  0  0  0  0  0  0
   44.8450   27.1080   47.6600 C   0  0  0  0  0  0  0  0  0  0  0  0
   45.5900   26.0730   48.2300 C   0  0  0  0  0  0  0  0  0  0  0  0
   46.5910   26.0420   48.6860 H   0  0  0  0  0  0  0  0  0  0  0  0
   44.8340   24.9160   48.1540 C   0  0  0  0  0  0  0  0  0  0  0  0
   45.0960   23.9240   48.4970 H   0  0  0  0  0  0  0  0  0  0  0  0
   43.6550   25.3290   47.5300 C   0  0  0  0  0  0  0  0  0  0  0  0
   42.8730   24.5930   47.3470 H   0  0  0  0  0  0  0  0  0  0  0  0
   43.7190   26.6050   47.2680 O   0  0  0  0  0  0  0  0  0  0  0  0
  1  2  1  0  0  0  0
  2 26  1  0  0  0  0
  2  3  2  0  0  0  0
  3  7  1  0  0  0  0
  4  3  1  0  0  0  0
  5  4  2  0  0  0  0
  6  1  2  0  0  0  0
  6  5  1  0  0  0  0
  8  5  1  0  0  0  0
  9 10  1  0  0  0  0
  9 15  1  0  0  0  0
  9  1  1  0  0  0  0
 10 16  1  0  0  0  0
 10 17  1  0  0  0  0
 11 19  1  0  0  0  0
 11 18  1  0  0  0  0
 11 10  1  0  0  0  0
 12 11  1  0  0  0  0
 13 12  1  0  0  0  0
 13 14  1  0  0  0  0
 14  9  1  0  0  0  0
 20 12  1  0  0  0  0
 21 12  1  0  0  0  0
 22 13  1  0  0  0  0
 23 13  1  0  0  0  0
 24 14  1  0  0  0  0
 25 14  1  0  0  0  0
 26 27  1  0  0  0  0
 27 30  1  0  0  0  0
 27 29  1  0  0  0  0
 27 28  1  0  0  0  0
 30 32  1  0  0  0  0
 31 30  1  0  0  0  0
 33 30  1  0  0  0  0
 33 35  1  0  0  0  0
 34 33  1  0  0  0  0
 35 38  1  0  0  0  0
 35 40  1  0  0  0  0
 36 35  1  0  0  0  0
 37 36  1  0  0  0  0
 39 38  1  0  0  0  0
 40 41  1  0  0  0  0
 41 42  2  0  0  0  0
 42 43  1  0  0  0  0
 44 42  1  0  0  0  0
 44 45  1  0  0  0  0
 46 44  2  0  0  0  0
 47 46  1  0  0  0  0
 48 46  1  0  0  0  0
 48 41  1  0  0  0  0
M  END
>  <minimizedAffinity>
-5.75281954

>  <minimizedRMSD>
1.81469738

$$$$
