
 OpenBabel03252508503D

 27 29  0  0  0  0  0  0  0  0999 V2000
   45.9090   34.1960   41.0240 C   0  0  0  0  0  0  0  0  0  0  0  0
   46.5100   34.7970   42.1230 C   0  0  0  0  0  0  0  0  0  0  0  0
   47.8680   35.1350   41.9890 C   0  0  0  0  0  0  0  0  0  0  0  0
   48.4910   34.8560   40.8150 N   0  0  0  0  0  0  0  0  0  0  0  0
   47.8740   34.2790   39.7920 C   0  0  0  0  0  0  0  0  0  0  0  0
   46.5750   33.9440   39.8880 N   0  0  0  0  0  0  0  0  0  0  0  0
   48.3570   35.5990   42.8180 H   0  0  0  0  0  0  0  0  0  0  0  0
   48.3350   34.0400   38.8370 H   0  0  0  0  0  0  0  0  0  0  0  0
   45.7420   35.0470   43.3270 C   0  0  0  0  0  0  0  0  0  0  0  0
   45.0830   36.2330   43.5710 C   0  0  0  0  0  0  0  0  0  0  0  0
   44.5000   36.0410   44.8020 C   0  0  0  0  0  0  0  0  0  0  0  0
   44.7850   34.8130   45.2820 N   0  0  0  0  0  0  0  0  0  0  0  0
   45.5360   34.2340   44.3710 N   0  0  0  0  0  0  0  0  0  0  0  0
   44.9890   37.1450   42.9970 H   0  0  0  0  0  0  0  0  0  0  0  0
   43.8760   36.7020   45.4100 H   0  0  0  0  0  0  0  0  0  0  0  0
   44.5530   34.2800   46.1460 H   0  0  0  0  0  0  0  0  0  0  0  0
   44.5740   33.8490   41.1180 O   0  0  0  0  0  0  0  0  0  0  0  0
   43.5050   34.5030   40.5780 C   0  0  0  0  0  0  0  0  0  0  0  0
   43.1390   35.7120   40.8170 O   0  0  0  0  0  0  0  0  0  0  0  0
   42.5700   33.8750   39.5950 C   0  0  0  0  0  0  0  0  0  0  0  0
   42.6920   32.6320   38.9630 C   0  0  0  0  0  0  0  0  0  0  0  0
   43.5560   31.9780   39.1630 H   0  0  0  0  0  0  0  0  0  0  0  0
   41.6340   32.3880   38.1170 C   0  0  0  0  0  0  0  0  0  0  0  0
   41.4840   31.5060   37.5110 H   0  0  0  0  0  0  0  0  0  0  0  0
   40.8800   33.5310   38.2720 C   0  0  0  0  0  0  0  0  0  0  0  0
   39.9330   33.7230   37.7500 H   0  0  0  0  0  0  0  0  0  0  0  0
   41.4450   34.3290   39.1060 O   0  0  0  0  0  0  0  0  0  0  0  0
  1 17  1  0  0  0  0
  1  2  1  0  0  0  0
  2  9  1  0  0  0  0
  3  2  2  0  0  0  0
  3  7  1  0  0  0  0
  4  3  1  0  0  0  0
  5  6  1  0  0  0  0
  5  4  2  0  0  0  0
  6  1  2  0  0  0  0
  8  5  1  0  0  0  0
  9 10  1  0  0  0  0
  9 13  2  0  0  0  0
 10 11  2  0  0  0  0
 11 12  1  0  0  0  0
 11 15  1  0  0  0  0
 12 16  1  0  0  0  0
 13 12  1  0  0  0  0
 14 10  1  0  0  0  0
 18 19  2  0  0  0  0
 18 17  1  0  0  0  0
 20 18  1  0  0  0  0
 21 22  1  0  0  0  0
 21 20  2  0  0  0  0
 23 25  2  0  0  0  0
 23 21  1  0  0  0  0
 24 23  1  0  0  0  0
 25 27  1  0  0  0  0
 26 25  1  0  0  0  0
 27 20  1  0  0  0  0
M  END
>  <minimizedAffinity>
-5.06551838

>  <minimizedRMSD>
0.468465537

$$$$
