
 OpenBabel03252509263D

 29 31  0  0  1  0  0  0  0  0999 V2000
   46.7210   35.1450   41.9230 C   0  0  1  0  0  0  0  0  0  0  0  0
   48.2450   35.4320   41.9690 C   0  0  0  0  0  0  0  0  0  0  0  0
   47.5570   34.2030   41.3020 C   0  0  2  0  0  0  0  0  0  0  0  0
   46.1910   35.9510   41.3950 H   0  0  0  0  0  0  0  0  0  0  0  0
   48.6460   36.1260   41.2180 H   0  0  0  0  0  0  0  0  0  0  0  0
   48.7990   35.2090   42.8850 H   0  0  0  0  0  0  0  0  0  0  0  0
   47.7480   33.2240   41.8290 H   0  0  0  0  0  0  0  0  0  0  0  0
   44.7040   35.2840   45.0790 C   0  0  0  0  0  0  0  0  0  0  0  0
   45.1900   35.6440   43.7950 C   0  0  0  0  0  0  0  0  0  0  0  0
   46.1870   34.8620   43.3030 C   0  0  0  0  0  0  0  0  0  0  0  0
   46.6860   33.7960   44.0130 N   0  0  0  0  0  0  0  0  0  0  0  0
   46.1950   33.4880   45.2330 C   0  0  0  0  0  0  0  0  0  0  0  0
   45.2000   34.2350   45.7660 N   0  0  0  0  0  0  0  0  0  0  0  0
   43.9040   35.8950   45.4910 H   0  0  0  0  0  0  0  0  0  0  0  0
   46.5590   32.6620   45.8220 H   0  0  0  0  0  0  0  0  0  0  0  0
   44.6800   36.7610   43.0940 N   0  0  0  0  0  0  0  0  0  0  0  0
   43.7990   36.9320   42.5660 H   0  0  0  0  0  0  0  0  0  0  0  0
   45.4490   37.4850   43.2150 H   0  0  0  0  0  0  0  0  0  0  0  0
   47.6310   34.0670   39.7990 C   0  0  0  0  0  0  0  0  0  0  0  0
   48.6030   33.6620   39.5160 H   0  0  0  0  0  0  0  0  0  0  0  0
   47.4460   35.0320   39.2850 H   0  0  0  0  0  0  0  0  0  0  0  0
   46.5590   33.0820   39.4430 C   0  0  0  0  0  0  0  0  0  0  0  0
   46.2300   31.9250   40.1070 C   0  0  0  0  0  0  0  0  0  0  0  0
   46.7110   31.5640   40.9910 H   0  0  0  0  0  0  0  0  0  0  0  0
   45.1800   31.3530   39.4040 C   0  0  0  0  0  0  0  0  0  0  0  0
   44.6770   30.4270   39.6580 H   0  0  0  0  0  0  0  0  0  0  0  0
   44.9240   32.2070   38.3350 C   0  0  0  0  0  0  0  0  0  0  0  0
   44.1370   31.9650   37.6420 H   0  0  0  0  0  0  0  0  0  0  0  0
   45.7590   33.2120   38.3990 O   0  0  0  0  0  0  0  0  0  0  0  0
  1  4  1  6  0  0  0
  1  2  1  0  0  0  0
  1 10  1  0  0  0  0
  2  6  1  0  0  0  0
  3  7  1  1  0  0  0
  3  1  1  0  0  0  0
  3  2  1  0  0  0  0
  5  2  1  0  0  0  0
  8 14  1  0  0  0  0
  8 13  1  0  0  0  0
  9  8  2  0  0  0  0
 10  9  1  0  0  0  0
 10 11  2  0  0  0  0
 11 12  1  0  0  0  0
 12 13  2  0  0  0  0
 12 15  1  0  0  0  0
 16 18  1  0  0  0  0
 16  9  1  0  0  0  0
 17 16  1  0  0  0  0
 19  3  1  0  0  0  0
 20 19  1  0  0  0  0
 21 19  1  0  0  0  0
 22 19  1  0  0  0  0
 22 23  2  0  0  0  0
 23 24  1  0  0  0  0
 25 26  1  0  0  0  0
 25 23  1  0  0  0  0
 27 29  1  0  0  0  0
 27 25  2  0  0  0  0
 28 27  1  0  0  0  0
 29 22  1  0  0  0  0
M  END
>  <minimizedAffinity>
-4.41231441

>  <minimizedRMSD>
0.916561544

$$$$
