
 OpenBabel03242520333D

 27 29  0  0  1  0  0  0  0  0999 V2000
   45.8150   33.5200   43.2650 C   0  0  0  0  0  0  0  0  0  0  0  0
   46.9140   32.8930   42.5940 C   0  0  0  0  0  0  0  0  0  0  0  0
   47.7870   32.1200   43.3370 C   0  0  0  0  0  0  0  0  0  0  0  0
   47.5570   31.9940   44.6760 N   0  0  0  0  0  0  0  0  0  0  0  0
   46.5280   32.5870   45.2780 C   0  0  0  0  0  0  0  0  0  0  0  0
   45.6720   33.3380   44.5800 N   0  0  0  0  0  0  0  0  0  0  0  0
   45.1270   34.1250   42.6920 H   0  0  0  0  0  0  0  0  0  0  0  0
   48.6130   31.6490   42.8210 H   0  0  0  0  0  0  0  0  0  0  0  0
   46.3340   32.4150   46.7160 C   0  0  0  0  0  0  0  0  0  0  0  0
   47.3340   31.8160   47.4690 C   0  0  0  0  0  0  0  0  0  0  0  0
   48.3130   31.4080   47.2110 H   0  0  0  0  0  0  0  0  0  0  0  0
   46.8890   31.7820   48.7840 C   0  0  0  0  0  0  0  0  0  0  0  0
   47.4040   31.3840   49.6590 H   0  0  0  0  0  0  0  0  0  0  0  0
   45.6360   32.3680   48.7570 C   0  0  0  0  0  0  0  0  0  0  0  0
   44.9510   32.5340   49.5880 H   0  0  0  0  0  0  0  0  0  0  0  0
   45.3410   32.7290   47.5210 O   0  0  0  0  0  0  0  0  0  0  0  0
   47.1340   33.0780   41.1240 C   0  0  1  0  0  0  0  0  0  0  0  0
   46.4690   34.1500   40.4140 C   0  0  0  0  0  0  0  0  0  0  0  0
   47.9230   34.3010   40.6710 C   0  0  1  0  0  0  0  0  0  0  0  0
   47.4990   32.1400   40.6570 H   0  0  0  0  0  0  0  0  0  0  0  0
   46.1950   34.0760   39.3410 H   0  0  0  0  0  0  0  0  0  0  0  0
   45.7620   34.7950   40.9920 H   0  0  0  0  0  0  0  0  0  0  0  0
   48.6340   34.1390   39.8170 H   0  0  0  0  0  0  0  0  0  0  0  0
   48.4350   35.2820   41.6640 C   0  0  0  0  0  0  0  0  0  0  0  0
   49.1640   36.2960   41.0740 F   0  0  0  0  0  0  0  0  0  0  0  0
   49.2370   34.6650   42.6350 F   0  0  0  0  0  0  0  0  0  0  0  0
   47.3610   35.8620   42.2880 F   0  0  0  0  0  0  0  0  0  0  0  0
  1  6  1  0  0  0  0
  2  1  2  0  0  0  0
  2  3  1  0  0  0  0
  3  4  2  0  0  0  0
  4  5  1  0  0  0  0
  5  9  1  0  0  0  0
  6  5  2  0  0  0  0
  7  1  1  0  0  0  0
  8  3  1  0  0  0  0
  9 10  2  0  0  0  0
  9 16  1  0  0  0  0
 10 12  1  0  0  0  0
 11 10  1  0  0  0  0
 12 13  1  0  0  0  0
 14 12  2  0  0  0  0
 14 15  1  0  0  0  0
 16 14  1  0  0  0  0
 17 20  1  6  0  0  0
 17  2  1  0  0  0  0
 18 19  1  0  0  0  0
 18 22  1  0  0  0  0
 18 17  1  0  0  0  0
 19 23  1  6  0  0  0
 19 17  1  0  0  0  0
 19 24  1  0  0  0  0
 21 18  1  0  0  0  0
 24 27  1  0  0  0  0
 24 26  1  0  0  0  0
 25 24  1  0  0  0  0
M  END
>  <minimizedAffinity>
-5.1228323

>  <minimizedRMSD>
1.64860427

$$$$
