REMARK  Name = 
REMARK  3 active torsions:
REMARK  status: ('A' for Active; 'I' for Inactive)
REMARK    1  A    between atoms: C_3  and  C_12
REMARK    2  A    between atoms: C_7  and  C_14
REMARK    3  A    between atoms: N_17  and  C_26
REMARK                            x       y       z     vdW  Elec       q    Type
REMARK                         _______ _______ _______ _____ _____    ______ ____
ROOT
ATOM      1 CL   UNL     1      44.837  33.080  41.135  0.00  0.00    +0.000 Cl
ATOM      2  C   UNL     1      46.354  33.933  40.917  0.00  0.00    +0.000 A 
ATOM      3  C   UNL     1      46.847  34.717  41.919  0.00  0.00    +0.000 A 
ATOM      4  C   UNL     1      48.051  35.400  41.760  0.00  0.00    +0.000 A 
ATOM      5  C   UNL     1      48.697  35.243  40.566  0.00  0.00    +0.000 A 
ATOM      6  C   UNL     1      48.196  34.450  39.556  0.00  0.00    +0.000 A 
ATOM      7  C   UNL     1      47.016  33.788  39.727  0.00  0.00    +0.000 A 
ATOM      8  H   UNL     1      48.464  36.024  42.532  0.00  0.00    +0.000 HD
ATOM      9  H   UNL     1      49.648  35.728  40.328  0.00  0.00    +0.000 HD
ATOM     10  H   UNL     1      48.704  34.319  38.601  0.00  0.00    +0.000 HD
ENDROOT
BRANCH   3  15
ATOM     11  C   UNL     1      45.601  34.056  45.323  0.00  0.00    +0.000 A 
ATOM     12  C   UNL     1      44.710  35.119  45.522  0.00  0.00    +0.000 A 
ATOM     13  C   UNL     1      44.542  36.045  44.502  0.00  0.00    +0.000 A 
ATOM     14  N   UNL     1      45.249  35.876  43.363  0.00  0.00    +0.000 NA
ATOM     15  C   UNL     1      46.108  34.846  43.178  0.00  0.00    +0.000 A 
ATOM     16  N   UNL     1      46.289  33.928  44.162  0.00  0.00    +0.000 NA
ATOM     17  H   UNL     1      45.719  33.339  46.137  0.00  0.00    +0.000 HD
ATOM     18  H   UNL     1      44.138  35.282  46.406  0.00  0.00    +0.000 HD
ATOM     19  H   UNL     1      43.910  36.903  44.490  0.00  0.00    +0.000 HD
ENDBRANCH   3  15
BRANCH   7  20
ATOM     20  C   UNL     1      46.457  32.941  38.680  0.00  0.00    +0.000 A 
ATOM     21  N   UNL     1      45.605  33.296  37.710  0.00  0.00    +0.000 NA
ATOM     22  C   UNL     1      45.332  32.223  36.948  0.00  0.00    +0.000 A 
ATOM     23  N   UNL     1      46.021  31.171  37.444  0.00  0.00    +0.000 N 
ATOM     24  N   UNL     1      46.708  31.623  38.506  0.00  0.00    +0.000 NA
ATOM     25  H   UNL     1      44.708  32.092  36.089  0.00  0.00    +0.000 HD
BRANCH  23  26
ATOM     26  C   UNL     1      46.135  29.801  37.071  0.00  0.00    +0.000 A 
ATOM     27  C   UNL     1      45.824  28.848  38.047  0.00  0.00    +0.000 A 
ATOM     28  H   UNL     1      45.500  28.911  39.079  0.00  0.00    +0.000 HD
ATOM     29  C   UNL     1      46.009  27.603  37.449  0.00  0.00    +0.000 A 
ATOM     30  H   UNL     1      45.903  26.571  37.776  0.00  0.00    +0.000 HD
ATOM     31  C   UNL     1      46.422  27.879  36.141  0.00  0.00    +0.000 A 
ATOM     32  H   UNL     1      46.690  27.265  35.283  0.00  0.00    +0.000 HD
ATOM     33  O   UNL     1      46.481  29.188  35.965  0.00  0.00    +0.000 OA
ENDBRANCH  23  26
ENDBRANCH   7  20
TORSDOF 3
