
 OpenBabel03252508503D

 27 29  0  0  0  0  0  0  0  0999 V2000
   45.9750   34.1940   41.0450 C   0  0  0  0  0  0  0  0  0  0  0  0
   46.5510   34.8130   42.1460 C   0  0  0  0  0  0  0  0  0  0  0  0
   47.9020   35.1830   42.0240 C   0  0  0  0  0  0  0  0  0  0  0  0
   48.5420   34.9140   40.8570 N   0  0  0  0  0  0  0  0  0  0  0  0
   47.9480   34.3190   39.8300 C   0  0  0  0  0  0  0  0  0  0  0  0
   46.6570   33.9540   39.9160 N   0  0  0  0  0  0  0  0  0  0  0  0
   48.3730   35.6610   42.8550 H   0  0  0  0  0  0  0  0  0  0  0  0
   48.4230   34.0880   38.8800 H   0  0  0  0  0  0  0  0  0  0  0  0
   45.7670   35.0490   43.3430 C   0  0  0  0  0  0  0  0  0  0  0  0
   45.0780   36.2200   43.5760 C   0  0  0  0  0  0  0  0  0  0  0  0
   44.4890   36.0190   44.8020 C   0  0  0  0  0  0  0  0  0  0  0  0
   44.7980   34.8000   45.2900 N   0  0  0  0  0  0  0  0  0  0  0  0
   45.5720   34.2350   44.3890 N   0  0  0  0  0  0  0  0  0  0  0  0
   44.9670   37.1270   42.9970 H   0  0  0  0  0  0  0  0  0  0  0  0
   43.8430   36.6670   45.4030 H   0  0  0  0  0  0  0  0  0  0  0  0
   44.5720   34.2650   46.1550 H   0  0  0  0  0  0  0  0  0  0  0  0
   44.6470   33.8160   41.1280 O   0  0  0  0  0  0  0  0  0  0  0  0
   43.5650   34.4590   40.5990 C   0  0  0  0  0  0  0  0  0  0  0  0
   43.3060   35.7160   40.6660 O   0  0  0  0  0  0  0  0  0  0  0  0
   42.4850   33.7570   39.8410 C   0  0  0  0  0  0  0  0  0  0  0  0
   41.3130   33.1780   40.3470 C   0  0  0  0  0  0  0  0  0  0  0  0
   41.0910   33.2030   41.4240 H   0  0  0  0  0  0  0  0  0  0  0  0
   40.5530   32.6200   39.3440 C   0  0  0  0  0  0  0  0  0  0  0  0
   39.6060   32.1130   39.4620 H   0  0  0  0  0  0  0  0  0  0  0  0
   41.3140   32.8900   38.2280 C   0  0  0  0  0  0  0  0  0  0  0  0
   41.0390   32.5970   37.2050 H   0  0  0  0  0  0  0  0  0  0  0  0
   42.3820   33.5250   38.5590 O   0  0  0  0  0  0  0  0  0  0  0  0
  1 17  1  0  0  0  0
  1  2  1  0  0  0  0
  2  9  1  0  0  0  0
  3  2  2  0  0  0  0
  3  7  1  0  0  0  0
  4  3  1  0  0  0  0
  5  6  1  0  0  0  0
  5  4  2  0  0  0  0
  6  1  2  0  0  0  0
  8  5  1  0  0  0  0
  9 10  1  0  0  0  0
  9 13  2  0  0  0  0
 10 11  2  0  0  0  0
 11 12  1  0  0  0  0
 11 15  1  0  0  0  0
 12 16  1  0  0  0  0
 13 12  1  0  0  0  0
 14 10  1  0  0  0  0
 18 19  2  0  0  0  0
 18 17  1  0  0  0  0
 20 21  2  0  0  0  0
 20 18  1  0  0  0  0
 21 22  1  0  0  0  0
 23 24  1  0  0  0  0
 23 21  1  0  0  0  0
 25 27  1  0  0  0  0
 25 23  2  0  0  0  0
 26 25  1  0  0  0  0
 27 20  1  0  0  0  0
M  END
>  <minimizedAffinity>
-5.01569176

>  <minimizedRMSD>
0.455494791

$$$$
