
 OpenBabel03242513003D

 34 37  0  0  0  0  0  0  0  0999 V2000
   37.6150   26.6150   40.0530 F   0  0  0  0  0  0  0  0  0  0  0  0
   38.2800   26.5090   41.2450 C   0  0  0  0  0  0  0  0  0  0  0  0
   38.8710   25.3400   41.6340 C   0  0  0  0  0  0  0  0  0  0  0  0
   39.5150   25.3300   42.8460 C   0  0  0  0  0  0  0  0  0  0  0  0
   39.5980   26.4220   43.6790 C   0  0  0  0  0  0  0  0  0  0  0  0
   38.9890   27.5740   43.2440 C   0  0  0  0  0  0  0  0  0  0  0  0
   38.3270   27.6370   42.0350 C   0  0  0  0  0  0  0  0  0  0  0  0
   39.9840   24.4000   43.1560 H   0  0  0  0  0  0  0  0  0  0  0  0
   40.1140   26.3820   44.6310 H   0  0  0  0  0  0  0  0  0  0  0  0
   39.0010   28.4800   43.8300 H   0  0  0  0  0  0  0  0  0  0  0  0
   37.8110   22.0760   40.0150 C   0  0  0  0  0  0  0  0  0  0  0  0
   37.8630   23.1560   40.9030 C   0  0  0  0  0  0  0  0  0  0  0  0
   38.7740   24.1870   40.7350 C   0  0  0  0  0  0  0  0  0  0  0  0
   39.6020   24.0620   39.6520 N   0  0  0  0  0  0  0  0  0  0  0  0
   39.5490   23.0220   38.8000 C   0  0  0  0  0  0  0  0  0  0  0  0
   38.6550   22.0370   38.9860 N   0  0  0  0  0  0  0  0  0  0  0  0
   37.0900   21.2840   40.1670 H   0  0  0  0  0  0  0  0  0  0  0  0
   37.1890   23.1990   41.7330 H   0  0  0  0  0  0  0  0  0  0  0  0
   40.2980   23.1440   38.0260 H   0  0  0  0  0  0  0  0  0  0  0  0
   37.6890   28.8650   41.5890 C   0  0  0  0  0  0  0  0  0  0  0  0
   36.3570   29.1000   41.3890 C   0  0  0  0  0  0  0  0  0  0  0  0
   36.1890   30.4110   40.9610 C   0  0  0  0  0  0  0  0  0  0  0  0
   37.4160   30.9350   40.9120 N   0  0  0  0  0  0  0  0  0  0  0  0
   38.3210   30.0330   41.2810 N   0  0  0  0  0  0  0  0  0  0  0  0
   35.5380   28.4100   41.5280 H   0  0  0  0  0  0  0  0  0  0  0  0
   35.2900   30.9550   40.7050 H   0  0  0  0  0  0  0  0  0  0  0  0
   37.8390   32.2530   40.5380 C   0  0  0  0  0  0  0  0  0  0  0  0
   37.3120   33.2840   39.7860 C   0  0  0  0  0  0  0  0  0  0  0  0
   36.3450   33.1490   39.3300 H   0  0  0  0  0  0  0  0  0  0  0  0
   38.2660   34.3050   39.8310 C   0  0  0  0  0  0  0  0  0  0  0  0
   38.0780   35.2320   39.3080 H   0  0  0  0  0  0  0  0  0  0  0  0
   39.3160   33.8160   40.6150 C   0  0  0  0  0  0  0  0  0  0  0  0
   40.1780   34.4530   40.7860 H   0  0  0  0  0  0  0  0  0  0  0  0
   39.0300   32.6000   41.0160 O   0  0  0  0  0  0  0  0  0  0  0  0
  1  2  1  0  0  0  0
  2  3  2  0  0  0  0
  2  7  1  0  0  0  0
  3  4  1  0  0  0  0
  4  8  1  0  0  0  0
  4  5  2  0  0  0  0
  5  9  1  0  0  0  0
  6  5  1  0  0  0  0
  6 10  1  0  0  0  0
  7  6  2  0  0  0  0
 11 17  1  0  0  0  0
 11 12  1  0  0  0  0
 12 18  1  0  0  0  0
 13 12  2  0  0  0  0
 13  3  1  0  0  0  0
 14 13  1  0  0  0  0
 15 16  1  0  0  0  0
 15 14  2  0  0  0  0
 16 11  2  0  0  0  0
 19 15  1  0  0  0  0
 20  7  1  0  0  0  0
 21 25  1  0  0  0  0
 21 20  1  0  0  0  0
 22 21  2  0  0  0  0
 23 22  1  0  0  0  0
 23 24  1  0  0  0  0
 24 20  2  0  0  0  0
 26 22  1  0  0  0  0
 27 23  1  0  0  0  0
 27 34  1  0  0  0  0
 28 30  1  0  0  0  0
 28 27  2  0  0  0  0
 29 28  1  0  0  0  0
 30 32  2  0  0  0  0
 31 30  1  0  0  0  0
 32 33  1  0  0  0  0
 32 34  1  0  0  0  0
M  END
>  <minimizedAffinity>
-5.77639437

$$$$

 OpenBabel03242513003D

 34 37  0  0  0  0  0  0  0  0999 V2000
   33.0100   29.1170   38.9360 F   0  0  0  0  0  0  0  0  0  0  0  0
   33.3260   28.9790   37.6110 C   0  0  0  0  0  0  0  0  0  0  0  0
   32.5370   29.5070   36.6280 C   0  0  0  0  0  0  0  0  0  0  0  0
   32.9340   29.3170   35.3280 C   0  0  0  0  0  0  0  0  0  0  0  0
   34.0720   28.6330   34.9670 C   0  0  0  0  0  0  0  0  0  0  0  0
   34.8330   28.1220   35.9900 C   0  0  0  0  0  0  0  0  0  0  0  0
   34.4780   28.2830   37.3130 C   0  0  0  0  0  0  0  0  0  0  0  0
   32.3060   29.7360   34.5470 H   0  0  0  0  0  0  0  0  0  0  0  0
   34.3590   28.5000   33.9310 H   0  0  0  0  0  0  0  0  0  0  0  0
   35.7410   27.5710   35.8030 H   0  0  0  0  0  0  0  0  0  0  0  0
   29.3780   30.5820   38.4360 C   0  0  0  0  0  0  0  0  0  0  0  0
   30.5230   29.8540   38.0930 C   0  0  0  0  0  0  0  0  0  0  0  0
   31.3290   30.2320   37.0310 C   0  0  0  0  0  0  0  0  0  0  0  0
   30.9200   31.3530   36.3600 N   0  0  0  0  0  0  0  0  0  0  0  0
   29.8190   32.0510   36.6930 C   0  0  0  0  0  0  0  0  0  0  0  0
   29.0560   31.6620   37.7280 N   0  0  0  0  0  0  0  0  0  0  0  0
   28.7660   30.2670   39.2710 H   0  0  0  0  0  0  0  0  0  0  0  0
   30.7930   28.9840   38.6550 H   0  0  0  0  0  0  0  0  0  0  0  0
   29.7020   32.8930   36.0210 H   0  0  0  0  0  0  0  0  0  0  0  0
   35.2950   27.7360   38.3840 C   0  0  0  0  0  0  0  0  0  0  0  0
   35.9000   26.5120   38.4450 C   0  0  0  0  0  0  0  0  0  0  0  0
   36.5810   26.4020   39.6510 C   0  0  0  0  0  0  0  0  0  0  0  0
   36.3720   27.5570   40.2890 N   0  0  0  0  0  0  0  0  0  0  0  0
   35.6100   28.3620   39.5540 N   0  0  0  0  0  0  0  0  0  0  0  0
   35.8780   25.7280   37.7010 H   0  0  0  0  0  0  0  0  0  0  0  0
   37.1720   25.5900   40.0510 H   0  0  0  0  0  0  0  0  0  0  0  0
   36.8380   27.9950   41.5720 C   0  0  0  0  0  0  0  0  0  0  0  0
   36.6720   27.5800   42.8770 C   0  0  0  0  0  0  0  0  0  0  0  0
   36.0550   26.7190   43.0720 H   0  0  0  0  0  0  0  0  0  0  0  0
   37.4190   28.4740   43.6520 C   0  0  0  0  0  0  0  0  0  0  0  0
   37.4460   28.3530   44.7260 H   0  0  0  0  0  0  0  0  0  0  0  0
   37.9900   29.3780   42.7510 C   0  0  0  0  0  0  0  0  0  0  0  0
   38.6210   30.1720   43.1390 H   0  0  0  0  0  0  0  0  0  0  0  0
   37.6260   29.0650   41.5300 O   0  0  0  0  0  0  0  0  0  0  0  0
  2  1  1  0  0  0  0
  3 13  1  0  0  0  0
  3  2  2  0  0  0  0
  4  3  1  0  0  0  0
  5  4  2  0  0  0  0
  5  6  1  0  0  0  0
  6  7  2  0  0  0  0
  7  2  1  0  0  0  0
  7 20  1  0  0  0  0
  8  4  1  0  0  0  0
  9  5  1  0  0  0  0
 10  6  1  0  0  0  0
 11 17  1  0  0  0  0
 12 11  1  0  0  0  0
 12 18  1  0  0  0  0
 13 12  2  0  0  0  0
 14 15  2  0  0  0  0
 14 13  1  0  0  0  0
 15 16  1  0  0  0  0
 16 11  2  0  0  0  0
 19 15  1  0  0  0  0
 20 21  1  0  0  0  0
 20 24  2  0  0  0  0
 21 22  2  0  0  0  0
 22 26  1  0  0  0  0
 22 23  1  0  0  0  0
 23 27  1  0  0  0  0
 24 23  1  0  0  0  0
 25 21  1  0  0  0  0
 27 28  2  0  0  0  0
 28 29  1  0  0  0  0
 28 30  1  0  0  0  0
 30 31  1  0  0  0  0
 32 33  1  0  0  0  0
 32 30  2  0  0  0  0
 34 27  1  0  0  0  0
 34 32  1  0  0  0  0
M  END
>  <minimizedAffinity>
-5.75741482

$$$$

 OpenBabel03242513003D

 34 37  0  0  0  0  0  0  0  0999 V2000
   40.5600   30.6820   40.6110 F   0  0  0  0  0  0  0  0  0  0  0  0
   39.3960   31.3500   40.3420 C   0  0  0  0  0  0  0  0  0  0  0  0
   39.3850   32.4960   39.5970 C   0  0  0  0  0  0  0  0  0  0  0  0
   38.1700   33.0960   39.3790 C   0  0  0  0  0  0  0  0  0  0  0  0
   36.9780   32.6120   39.8650 C   0  0  0  0  0  0  0  0  0  0  0  0
   37.0410   31.4580   40.6080 C   0  0  0  0  0  0  0  0  0  0  0  0
   38.2350   30.8150   40.8570 C   0  0  0  0  0  0  0  0  0  0  0  0
   38.1610   34.0070   38.7870 H   0  0  0  0  0  0  0  0  0  0  0  0
   36.0340   33.1090   39.6760 H   0  0  0  0  0  0  0  0  0  0  0  0
   36.1570   31.0040   41.0300 H   0  0  0  0  0  0  0  0  0  0  0  0
   42.3200   33.3300   37.3410 C   0  0  0  0  0  0  0  0  0  0  0  0
   41.0880   32.8310   37.7780 C   0  0  0  0  0  0  0  0  0  0  0  0
   40.6630   32.9980   39.0870 C   0  0  0  0  0  0  0  0  0  0  0  0
   41.5320   33.6770   39.8980 N   0  0  0  0  0  0  0  0  0  0  0  0
   42.7160   34.1560   39.4740 C   0  0  0  0  0  0  0  0  0  0  0  0
   43.1020   33.9810   38.2000 N   0  0  0  0  0  0  0  0  0  0  0  0
   42.6280   33.1880   36.3130 H   0  0  0  0  0  0  0  0  0  0  0  0
   40.4500   32.3070   37.0970 H   0  0  0  0  0  0  0  0  0  0  0  0
   43.2230   34.6540   40.2920 H   0  0  0  0  0  0  0  0  0  0  0  0
   38.2850   29.5940   41.6450 C   0  0  0  0  0  0  0  0  0  0  0  0
   38.5090   29.4630   42.9870 C   0  0  0  0  0  0  0  0  0  0  0  0
   38.4710   28.1150   43.3230 C   0  0  0  0  0  0  0  0  0  0  0  0
   38.2260   27.4660   42.1810 N   0  0  0  0  0  0  0  0  0  0  0  0
   38.1130   28.3270   41.1730 N   0  0  0  0  0  0  0  0  0  0  0  0
   38.6910   30.2500   43.7050 H   0  0  0  0  0  0  0  0  0  0  0  0
   38.6020   27.6270   44.2790 H   0  0  0  0  0  0  0  0  0  0  0  0
   38.0820   26.0610   41.9360 C   0  0  0  0  0  0  0  0  0  0  0  0
   37.0740   25.1310   42.0840 C   0  0  0  0  0  0  0  0  0  0  0  0
   36.1240   25.4550   42.4750 H   0  0  0  0  0  0  0  0  0  0  0  0
   37.6160   23.9180   41.6460 C   0  0  0  0  0  0  0  0  0  0  0  0
   37.0080   23.0250   41.6660 H   0  0  0  0  0  0  0  0  0  0  0  0
   38.9300   24.2030   41.2590 C   0  0  0  0  0  0  0  0  0  0  0  0
   39.5470   23.3950   40.8790 H   0  0  0  0  0  0  0  0  0  0  0  0
   39.1710   25.4790   41.4430 O   0  0  0  0  0  0  0  0  0  0  0  0
  2  1  1  0  0  0  0
  2  7  1  0  0  0  0
  3  2  2  0  0  0  0
  4  3  1  0  0  0  0
  4  5  2  0  0  0  0
  5  6  1  0  0  0  0
  6  7  2  0  0  0  0
  6 10  1  0  0  0  0
  7 20  1  0  0  0  0
  8  4  1  0  0  0  0
  9  5  1  0  0  0  0
 11 12  2  0  0  0  0
 11 16  1  0  0  0  0
 12 13  1  0  0  0  0
 13  3  1  0  0  0  0
 13 14  2  0  0  0  0
 15 14  1  0  0  0  0
 15 19  1  0  0  0  0
 16 15  2  0  0  0  0
 17 11  1  0  0  0  0
 18 12  1  0  0  0  0
 20 21  1  0  0  0  0
 21 22  2  0  0  0  0
 21 25  1  0  0  0  0
 22 26  1  0  0  0  0
 23 22  1  0  0  0  0
 24 20  2  0  0  0  0
 24 23  1  0  0  0  0
 27 28  2  0  0  0  0
 27 23  1  0  0  0  0
 28 29  1  0  0  0  0
 30 31  1  0  0  0  0
 30 28  1  0  0  0  0
 32 34  1  0  0  0  0
 32 30  2  0  0  0  0
 33 32  1  0  0  0  0
 34 27  1  0  0  0  0
M  END
>  <minimizedAffinity>
-5.69797754

$$$$

 OpenBabel03242513003D

 34 37  0  0  0  0  0  0  0  0999 V2000
   37.8230   27.8770   39.6070 F   0  0  0  0  0  0  0  0  0  0  0  0
   37.5930   27.7610   40.9520 C   0  0  0  0  0  0  0  0  0  0  0  0
   37.4910   26.5410   41.5580 C   0  0  0  0  0  0  0  0  0  0  0  0
   37.2580   26.5240   42.9110 C   0  0  0  0  0  0  0  0  0  0  0  0
   37.1240   27.6570   43.6790 C   0  0  0  0  0  0  0  0  0  0  0  0
   37.2340   28.8610   43.0240 C   0  0  0  0  0  0  0  0  0  0  0  0
   37.4660   28.9330   41.6670 C   0  0  0  0  0  0  0  0  0  0  0  0
   37.1770   25.5540   43.3930 H   0  0  0  0  0  0  0  0  0  0  0  0
   36.9400   27.6120   44.7460 H   0  0  0  0  0  0  0  0  0  0  0  0
   37.1430   29.8010   43.5440 H   0  0  0  0  0  0  0  0  0  0  0  0
   36.7620   23.4340   39.5040 C   0  0  0  0  0  0  0  0  0  0  0  0
   36.5690   24.5700   40.2990 C   0  0  0  0  0  0  0  0  0  0  0  0
   37.6370   25.3440   40.7250 C   0  0  0  0  0  0  0  0  0  0  0  0
   38.8690   24.9130   40.3130 N   0  0  0  0  0  0  0  0  0  0  0  0
   39.0510   23.8220   39.5490 C   0  0  0  0  0  0  0  0  0  0  0  0
   37.9980   23.0900   39.1490 N   0  0  0  0  0  0  0  0  0  0  0  0
   35.9120   22.8470   39.1830 H   0  0  0  0  0  0  0  0  0  0  0  0
   35.5800   24.8570   40.5900 H   0  0  0  0  0  0  0  0  0  0  0  0
   40.1080   23.6840   39.3530 H   0  0  0  0  0  0  0  0  0  0  0  0
   37.5810   30.2140   40.9890 C   0  0  0  0  0  0  0  0  0  0  0  0
   36.5770   31.0260   40.5410 C   0  0  0  0  0  0  0  0  0  0  0  0
   37.1350   32.1540   39.9520 C   0  0  0  0  0  0  0  0  0  0  0  0
   38.4570   31.9980   40.0560 N   0  0  0  0  0  0  0  0  0  0  0  0
   38.7430   30.8520   40.6680 N   0  0  0  0  0  0  0  0  0  0  0  0
   35.5120   30.8570   40.6130 H   0  0  0  0  0  0  0  0  0  0  0  0
   36.6620   33.0100   39.4900 H   0  0  0  0  0  0  0  0  0  0  0  0
   39.5210   32.8540   39.6190 C   0  0  0  0  0  0  0  0  0  0  0  0
   39.9720   34.1150   39.9490 C   0  0  0  0  0  0  0  0  0  0  0  0
   39.4540   34.6660   40.7170 H   0  0  0  0  0  0  0  0  0  0  0  0
   41.0740   34.3480   39.1190 C   0  0  0  0  0  0  0  0  0  0  0  0
   41.6070   35.2850   39.1930 H   0  0  0  0  0  0  0  0  0  0  0  0
   41.2140   33.1970   38.3370 C   0  0  0  0  0  0  0  0  0  0  0  0
   42.0200   33.1570   37.6100 H   0  0  0  0  0  0  0  0  0  0  0  0
   40.2790   32.3350   38.6590 O   0  0  0  0  0  0  0  0  0  0  0  0
  1  2  1  0  0  0  0
  2  3  2  0  0  0  0
  2  7  1  0  0  0  0
  3  4  1  0  0  0  0
  4  8  1  0  0  0  0
  4  5  2  0  0  0  0
  5  9  1  0  0  0  0
  6 10  1  0  0  0  0
  6  5  1  0  0  0  0
  7  6  2  0  0  0  0
 11 12  1  0  0  0  0
 12 18  1  0  0  0  0
 12 13  2  0  0  0  0
 13  3  1  0  0  0  0
 14 13  1  0  0  0  0
 15 14  2  0  0  0  0
 16 11  2  0  0  0  0
 16 15  1  0  0  0  0
 17 11  1  0  0  0  0
 19 15  1  0  0  0  0
 20  7  1  0  0  0  0
 21 25  1  0  0  0  0
 21 20  1  0  0  0  0
 22 23  1  0  0  0  0
 22 21  2  0  0  0  0
 23 24  1  0  0  0  0
 24 20  2  0  0  0  0
 26 22  1  0  0  0  0
 27 28  2  0  0  0  0
 27 23  1  0  0  0  0
 28 29  1  0  0  0  0
 30 31  1  0  0  0  0
 30 28  1  0  0  0  0
 32 34  1  0  0  0  0
 32 30  2  0  0  0  0
 33 32  1  0  0  0  0
 34 27  1  0  0  0  0
M  END
>  <minimizedAffinity>
-5.54480457

$$$$

 OpenBabel03242513003D

 34 37  0  0  0  0  0  0  0  0999 V2000
   35.3720   29.2970   39.4570 F   0  0  0  0  0  0  0  0  0  0  0  0
   35.6700   27.9880   39.1910 C   0  0  0  0  0  0  0  0  0  0  0  0
   36.5150   27.2690   39.9900 C   0  0  0  0  0  0  0  0  0  0  0  0
   36.7540   25.9630   39.6430 C   0  0  0  0  0  0  0  0  0  0  0  0
   36.1950   25.3460   38.5480 C   0  0  0  0  0  0  0  0  0  0  0  0
   35.3530   26.1090   37.7760 C   0  0  0  0  0  0  0  0  0  0  0  0
   35.0800   27.4270   38.0790 C   0  0  0  0  0  0  0  0  0  0  0  0
   37.4260   25.3920   40.2780 H   0  0  0  0  0  0  0  0  0  0  0  0
   36.4040   24.3120   38.3000 H   0  0  0  0  0  0  0  0  0  0  0  0
   34.8690   25.7110   36.8980 H   0  0  0  0  0  0  0  0  0  0  0  0
   37.3140   28.3570   43.5360 C   0  0  0  0  0  0  0  0  0  0  0  0
   36.7230   27.6850   42.4600 C   0  0  0  0  0  0  0  0  0  0  0  0
   37.1020   27.9420   41.1520 C   0  0  0  0  0  0  0  0  0  0  0  0
   38.0820   28.8860   41.0040 N   0  0  0  0  0  0  0  0  0  0  0  0
   38.6490   29.5280   42.0410 C   0  0  0  0  0  0  0  0  0  0  0  0
   38.2630   29.2600   43.2990 N   0  0  0  0  0  0  0  0  0  0  0  0
   37.0020   28.1380   44.5490 H   0  0  0  0  0  0  0  0  0  0  0  0
   35.9600   26.9570   42.6380 H   0  0  0  0  0  0  0  0  0  0  0  0
   39.3950   30.2250   41.6760 H   0  0  0  0  0  0  0  0  0  0  0  0
   34.1850   28.2200   37.2520 C   0  0  0  0  0  0  0  0  0  0  0  0
   34.2270   28.4050   35.8990 C   0  0  0  0  0  0  0  0  0  0  0  0
   33.1820   29.2400   35.5230 C   0  0  0  0  0  0  0  0  0  0  0  0
   32.5360   29.5390   36.6530 N   0  0  0  0  0  0  0  0  0  0  0  0
   33.1170   28.9440   37.6910 N   0  0  0  0  0  0  0  0  0  0  0  0
   34.9380   27.9890   35.1990 H   0  0  0  0  0  0  0  0  0  0  0  0
   32.8940   29.6070   34.5470 H   0  0  0  0  0  0  0  0  0  0  0  0
   31.3800   30.3620   36.8610 C   0  0  0  0  0  0  0  0  0  0  0  0
   30.7420   31.3640   36.1580 C   0  0  0  0  0  0  0  0  0  0  0  0
   31.1450   31.6660   35.2060 H   0  0  0  0  0  0  0  0  0  0  0  0
   29.6530   31.7410   36.9510 C   0  0  0  0  0  0  0  0  0  0  0  0
   28.9900   32.5230   36.6070 H   0  0  0  0  0  0  0  0  0  0  0  0
   29.7090   30.9320   38.0900 C   0  0  0  0  0  0  0  0  0  0  0  0
   28.9470   31.0550   38.8540 H   0  0  0  0  0  0  0  0  0  0  0  0
   30.7430   30.1280   38.0030 O   0  0  0  0  0  0  0  0  0  0  0  0
  2  1  1  0  0  0  0
  2  3  1  0  0  0  0
  3 13  1  0  0  0  0
  4  3  2  0  0  0  0
  4  8  1  0  0  0  0
  5  4  1  0  0  0  0
  6  7  1  0  0  0  0
  6  5  2  0  0  0  0
  7  2  2  0  0  0  0
  9  5  1  0  0  0  0
 10  6  1  0  0  0  0
 11 17  1  0  0  0  0
 12 18  1  0  0  0  0
 12 11  2  0  0  0  0
 13 12  1  0  0  0  0
 14 13  2  0  0  0  0
 14 15  1  0  0  0  0
 15 16  2  0  0  0  0
 16 11  1  0  0  0  0
 19 15  1  0  0  0  0
 20 24  2  0  0  0  0
 20  7  1  0  0  0  0
 21 20  1  0  0  0  0
 22 21  2  0  0  0  0
 22 23  1  0  0  0  0
 23 27  1  0  0  0  0
 23 24  1  0  0  0  0
 25 21  1  0  0  0  0
 26 22  1  0  0  0  0
 27 34  1  0  0  0  0
 28 27  2  0  0  0  0
 28 30  1  0  0  0  0
 29 28  1  0  0  0  0
 30 32  2  0  0  0  0
 31 30  1  0  0  0  0
 32 33  1  0  0  0  0
 34 32  1  0  0  0  0
M  END
>  <minimizedAffinity>
-5.42988062

$$$$

 OpenBabel03242513003D

 34 37  0  0  0  0  0  0  0  0999 V2000
   38.2760   27.4520   40.3330 F   0  0  0  0  0  0  0  0  0  0  0  0
   38.8200   26.8330   41.4260 C   0  0  0  0  0  0  0  0  0  0  0  0
   38.6630   25.4920   41.6410 C   0  0  0  0  0  0  0  0  0  0  0  0
   39.2450   24.9600   42.7650 C   0  0  0  0  0  0  0  0  0  0  0  0
   39.9680   25.6960   43.6750 C   0  0  0  0  0  0  0  0  0  0  0  0
   40.0980   27.0390   43.4150 C   0  0  0  0  0  0  0  0  0  0  0  0
   39.5330   27.6230   42.3010 C   0  0  0  0  0  0  0  0  0  0  0  0
   39.1200   23.8950   42.9360 H   0  0  0  0  0  0  0  0  0  0  0  0
   40.4160   25.2460   44.5540 H   0  0  0  0  0  0  0  0  0  0  0  0
   40.6480   27.6940   44.0720 H   0  0  0  0  0  0  0  0  0  0  0  0
   35.8690   23.6270   39.8770 C   0  0  0  0  0  0  0  0  0  0  0  0
   36.5630   24.3630   40.8430 C   0  0  0  0  0  0  0  0  0  0  0  0
   37.8900   24.7240   40.6630 C   0  0  0  0  0  0  0  0  0  0  0  0
   38.4510   24.3080   39.4850 N   0  0  0  0  0  0  0  0  0  0  0  0
   37.7800   23.6010   38.5580 C   0  0  0  0  0  0  0  0  0  0  0  0
   36.4950   23.2660   38.7590 N   0  0  0  0  0  0  0  0  0  0  0  0
   34.8340   23.3590   40.0410 H   0  0  0  0  0  0  0  0  0  0  0  0
   36.0710   24.6600   41.7460 H   0  0  0  0  0  0  0  0  0  0  0  0
   38.4300   23.3900   37.7170 H   0  0  0  0  0  0  0  0  0  0  0  0
   39.6810   29.0460   42.0410 C   0  0  0  0  0  0  0  0  0  0  0  0
   40.7040   29.8720   42.4120 C   0  0  0  0  0  0  0  0  0  0  0  0
   40.4380   31.1570   41.9560 C   0  0  0  0  0  0  0  0  0  0  0  0
   39.2660   31.0790   41.3220 N   0  0  0  0  0  0  0  0  0  0  0  0
   38.7980   29.8340   41.3620 N   0  0  0  0  0  0  0  0  0  0  0  0
   41.5930   29.6100   42.9700 H   0  0  0  0  0  0  0  0  0  0  0  0
   41.0120   32.0690   42.0550 H   0  0  0  0  0  0  0  0  0  0  0  0
   38.5110   32.1000   40.6560 C   0  0  0  0  0  0  0  0  0  0  0  0
   37.3620   32.1390   39.8920 C   0  0  0  0  0  0  0  0  0  0  0  0
   36.8380   31.2190   39.6980 H   0  0  0  0  0  0  0  0  0  0  0  0
   37.1850   33.4850   39.5520 C   0  0  0  0  0  0  0  0  0  0  0  0
   36.3380   33.7730   38.9460 H   0  0  0  0  0  0  0  0  0  0  0  0
   38.2510   34.1730   40.1410 C   0  0  0  0  0  0  0  0  0  0  0  0
   38.3150   35.2480   40.0060 H   0  0  0  0  0  0  0  0  0  0  0  0
   39.0150   33.3230   40.7860 O   0  0  0  0  0  0  0  0  0  0  0  0
  1  2  1  0  0  0  0
  2  3  2  0  0  0  0
  2  7  1  0  0  0  0
  3  4  1  0  0  0  0
  4  8  1  0  0  0  0
  4  5  2  0  0  0  0
  5  9  1  0  0  0  0
  6  5  1  0  0  0  0
  6 10  1  0  0  0  0
  7  6  2  0  0  0  0
 11 17  1  0  0  0  0
 11 12  1  0  0  0  0
 12 18  1  0  0  0  0
 13 12  2  0  0  0  0
 13  3  1  0  0  0  0
 14 13  1  0  0  0  0
 15 16  1  0  0  0  0
 15 14  2  0  0  0  0
 16 11  2  0  0  0  0
 19 15  1  0  0  0  0
 20  7  1  0  0  0  0
 20 21  1  0  0  0  0
 21 25  1  0  0  0  0
 22 26  1  0  0  0  0
 22 21  2  0  0  0  0
 23 24  1  0  0  0  0
 23 22  1  0  0  0  0
 24 20  2  0  0  0  0
 27 34  1  0  0  0  0
 27 23  1  0  0  0  0
 28 27  2  0  0  0  0
 29 28  1  0  0  0  0
 30 28  1  0  0  0  0
 30 32  2  0  0  0  0
 31 30  1  0  0  0  0
 32 34  1  0  0  0  0
 33 32  1  0  0  0  0
M  END
>  <minimizedAffinity>
-5.41727591

$$$$

 OpenBabel03242513003D

 34 37  0  0  0  0  0  0  0  0999 V2000
   36.1930   26.5530   40.1680 F   0  0  0  0  0  0  0  0  0  0  0  0
   37.0500   25.6220   40.6900 C   0  0  0  0  0  0  0  0  0  0  0  0
   36.9950   24.3080   40.3170 C   0  0  0  0  0  0  0  0  0  0  0  0
   37.8950   23.4480   40.8940 C   0  0  0  0  0  0  0  0  0  0  0  0
   38.8400   23.8340   41.8170 C   0  0  0  0  0  0  0  0  0  0  0  0
   38.8560   25.1640   42.1600 C   0  0  0  0  0  0  0  0  0  0  0  0
   37.9730   26.0700   41.6110 C   0  0  0  0  0  0  0  0  0  0  0  0
   37.8510   22.4040   40.5970 H   0  0  0  0  0  0  0  0  0  0  0  0
   39.5370   23.1300   42.2550 H   0  0  0  0  0  0  0  0  0  0  0  0
   39.5610   25.5580   42.8750 H   0  0  0  0  0  0  0  0  0  0  0  0
   33.9350   22.7930   38.6590 C   0  0  0  0  0  0  0  0  0  0  0  0
   34.8730   23.1430   39.6380 C   0  0  0  0  0  0  0  0  0  0  0  0
   35.9830   23.9150   39.3320 C   0  0  0  0  0  0  0  0  0  0  0  0
   36.0830   24.2970   38.0220 N   0  0  0  0  0  0  0  0  0  0  0  0
   35.1800   23.9600   37.0840 C   0  0  0  0  0  0  0  0  0  0  0  0
   34.1130   23.2120   37.4080 N   0  0  0  0  0  0  0  0  0  0  0  0
   33.0760   22.1910   38.9230 H   0  0  0  0  0  0  0  0  0  0  0  0
   34.7420   22.8130   40.6470 H   0  0  0  0  0  0  0  0  0  0  0  0
   35.4720   24.3770   36.1270 H   0  0  0  0  0  0  0  0  0  0  0  0
   38.0040   27.4750   41.9840 C   0  0  0  0  0  0  0  0  0  0  0  0
   38.1460   28.0140   43.2320 C   0  0  0  0  0  0  0  0  0  0  0  0
   38.1210   29.4000   43.1310 C   0  0  0  0  0  0  0  0  0  0  0  0
   37.9640   29.6640   41.8320 N   0  0  0  0  0  0  0  0  0  0  0  0
   37.8920   28.5350   41.1330 N   0  0  0  0  0  0  0  0  0  0  0  0
   38.2620   27.4870   44.1680 H   0  0  0  0  0  0  0  0  0  0  0  0
   38.2050   30.1600   43.8970 H   0  0  0  0  0  0  0  0  0  0  0  0
   37.8730   30.9250   41.1550 C   0  0  0  0  0  0  0  0  0  0  0  0
   36.9620   31.5300   40.3130 C   0  0  0  0  0  0  0  0  0  0  0  0
   36.0680   30.9920   40.0450 H   0  0  0  0  0  0  0  0  0  0  0  0
   37.5040   32.7850   40.0150 C   0  0  0  0  0  0  0  0  0  0  0  0
   36.9650   33.4560   39.3620 H   0  0  0  0  0  0  0  0  0  0  0  0
   38.7180   32.8520   40.7060 C   0  0  0  0  0  0  0  0  0  0  0  0
   39.3180   33.7530   40.6180 H   0  0  0  0  0  0  0  0  0  0  0  0
   38.9040   31.7350   41.3690 O   0  0  0  0  0  0  0  0  0  0  0  0
  1  2  1  0  0  0  0
  2  7  1  0  0  0  0
  3  2  2  0  0  0  0
  3  4  1  0  0  0  0
  4  5  2  0  0  0  0
  5  6  1  0  0  0  0
  5  9  1  0  0  0  0
  6 10  1  0  0  0  0
  7 20  1  0  0  0  0
  7  6  2  0  0  0  0
  8  4  1  0  0  0  0
 11 17  1  0  0  0  0
 11 12  1  0  0  0  0
 12 18  1  0  0  0  0
 13 12  2  0  0  0  0
 13  3  1  0  0  0  0
 14 13  1  0  0  0  0
 15 16  1  0  0  0  0
 15 14  2  0  0  0  0
 16 11  2  0  0  0  0
 19 15  1  0  0  0  0
 20 21  1  0  0  0  0
 21 25  1  0  0  0  0
 22 21  2  0  0  0  0
 22 26  1  0  0  0  0
 23 22  1  0  0  0  0
 24 23  1  0  0  0  0
 24 20  2  0  0  0  0
 27 34  1  0  0  0  0
 27 23  1  0  0  0  0
 28 27  2  0  0  0  0
 29 28  1  0  0  0  0
 30 28  1  0  0  0  0
 30 32  2  0  0  0  0
 31 30  1  0  0  0  0
 32 34  1  0  0  0  0
 33 32  1  0  0  0  0
M  END
>  <minimizedAffinity>
-5.40035343

$$$$

 OpenBabel03242513003D

 34 37  0  0  0  0  0  0  0  0999 V2000
   37.1650   31.0280   37.3420 F   0  0  0  0  0  0  0  0  0  0  0  0
   36.5290   30.4480   38.4070 C   0  0  0  0  0  0  0  0  0  0  0  0
   35.6670   29.4000   38.2420 C   0  0  0  0  0  0  0  0  0  0  0  0
   35.0770   28.8840   39.3690 C   0  0  0  0  0  0  0  0  0  0  0  0
   35.3050   29.3590   40.6400 C   0  0  0  0  0  0  0  0  0  0  0  0
   36.1800   30.4120   40.7540 C   0  0  0  0  0  0  0  0  0  0  0  0
   36.7990   30.9680   39.6540 C   0  0  0  0  0  0  0  0  0  0  0  0
   34.3910   28.0520   39.2370 H   0  0  0  0  0  0  0  0  0  0  0  0
   34.8230   28.9300   41.5100 H   0  0  0  0  0  0  0  0  0  0  0  0
   36.4200   30.8500   41.7100 H   0  0  0  0  0  0  0  0  0  0  0  0
   36.0650   27.6680   34.8900 C   0  0  0  0  0  0  0  0  0  0  0  0
   36.3340   28.1120   36.1890 C   0  0  0  0  0  0  0  0  0  0  0  0
   35.4350   28.9070   36.8820 C   0  0  0  0  0  0  0  0  0  0  0  0
   34.2860   29.2140   36.2030 N   0  0  0  0  0  0  0  0  0  0  0  0
   34.0300   28.7840   34.9550 C   0  0  0  0  0  0  0  0  0  0  0  0
   34.9190   28.0140   34.3060 N   0  0  0  0  0  0  0  0  0  0  0  0
   36.7830   27.0470   34.3700 H   0  0  0  0  0  0  0  0  0  0  0  0
   37.2510   27.8400   36.6690 H   0  0  0  0  0  0  0  0  0  0  0  0
   33.0640   29.1540   34.6310 H   0  0  0  0  0  0  0  0  0  0  0  0
   37.7230   32.0820   39.7930 C   0  0  0  0  0  0  0  0  0  0  0  0
   37.4390   33.4190   39.8050 C   0  0  0  0  0  0  0  0  0  0  0  0
   38.6220   34.1320   39.9580 C   0  0  0  0  0  0  0  0  0  0  0  0
   39.5880   33.2140   40.0340 N   0  0  0  0  0  0  0  0  0  0  0  0
   39.0760   31.9900   39.9370 N   0  0  0  0  0  0  0  0  0  0  0  0
   36.4690   33.8880   39.7140 H   0  0  0  0  0  0  0  0  0  0  0  0
   38.7950   35.1980   40.0130 H   0  0  0  0  0  0  0  0  0  0  0  0
   41.0030   33.3800   40.1950 C   0  0  0  0  0  0  0  0  0  0  0  0
   41.8300   34.3480   40.7300 C   0  0  0  0  0  0  0  0  0  0  0  0
   41.3840   35.2330   41.1530 H   0  0  0  0  0  0  0  0  0  0  0  0
   43.1310   33.8660   40.5560 C   0  0  0  0  0  0  0  0  0  0  0  0
   43.9680   34.4570   40.9010 H   0  0  0  0  0  0  0  0  0  0  0  0
   43.0000   32.6270   39.9220 C   0  0  0  0  0  0  0  0  0  0  0  0
   43.8990   32.0640   39.6860 H   0  0  0  0  0  0  0  0  0  0  0  0
   41.7280   32.3710   39.7240 O   0  0  0  0  0  0  0  0  0  0  0  0
  1  2  1  0  0  0  0
  2  7  1  0  0  0  0
  3  2  2  0  0  0  0
  3  4  1  0  0  0  0
  4  5  2  0  0  0  0
  5  6  1  0  0  0  0
  5  9  1  0  0  0  0
  6 10  1  0  0  0  0
  7 20  1  0  0  0  0
  7  6  2  0  0  0  0
  8  4  1  0  0  0  0
 11 12  1  0  0  0  0
 12 18  1  0  0  0  0
 12 13  2  0  0  0  0
 13  3  1  0  0  0  0
 14 13  1  0  0  0  0
 15 14  2  0  0  0  0
 16 11  2  0  0  0  0
 16 15  1  0  0  0  0
 17 11  1  0  0  0  0
 19 15  1  0  0  0  0
 20 21  1  0  0  0  0
 20 24  2  0  0  0  0
 21 22  2  0  0  0  0
 22 26  1  0  0  0  0
 22 23  1  0  0  0  0
 23 27  1  0  0  0  0
 24 23  1  0  0  0  0
 25 21  1  0  0  0  0
 27 28  2  0  0  0  0
 28 29  1  0  0  0  0
 30 28  1  0  0  0  0
 30 31  1  0  0  0  0
 32 30  2  0  0  0  0
 33 32  1  0  0  0  0
 34 32  1  0  0  0  0
 34 27  1  0  0  0  0
M  END
>  <minimizedAffinity>
-5.27588463

$$$$

 OpenBabel03242513003D

 34 37  0  0  0  0  0  0  0  0999 V2000
   33.6220   28.9720   38.7980 F   0  0  0  0  0  0  0  0  0  0  0  0
   34.4230   29.1200   37.6970 C   0  0  0  0  0  0  0  0  0  0  0  0
   33.9240   29.0160   36.4290 C   0  0  0  0  0  0  0  0  0  0  0  0
   34.8040   29.1790   35.3880 C   0  0  0  0  0  0  0  0  0  0  0  0
   36.1450   29.4400   35.5520 C   0  0  0  0  0  0  0  0  0  0  0  0
   36.5990   29.5360   36.8450 C   0  0  0  0  0  0  0  0  0  0  0  0
   35.7570   29.3790   37.9270 C   0  0  0  0  0  0  0  0  0  0  0  0
   34.4070   29.0960   34.3800 H   0  0  0  0  0  0  0  0  0  0  0  0
   36.8140   29.5640   34.7090 H   0  0  0  0  0  0  0  0  0  0  0  0
   37.6340   29.7380   37.0710 H   0  0  0  0  0  0  0  0  0  0  0  0
   30.1490   29.3750   36.2820 C   0  0  0  0  0  0  0  0  0  0  0  0
   31.5030   29.6920   36.4420 C   0  0  0  0  0  0  0  0  0  0  0  0
   32.4940   28.7380   36.2730 C   0  0  0  0  0  0  0  0  0  0  0  0
   32.0470   27.4870   35.9440 N   0  0  0  0  0  0  0  0  0  0  0  0
   30.7450   27.1860   35.7900 C   0  0  0  0  0  0  0  0  0  0  0  0
   29.8060   28.1300   35.9590 N   0  0  0  0  0  0  0  0  0  0  0  0
   29.3940   30.1380   36.4180 H   0  0  0  0  0  0  0  0  0  0  0  0
   31.7920   30.6900   36.7010 H   0  0  0  0  0  0  0  0  0  0  0  0
   30.6400   26.1380   35.5310 H   0  0  0  0  0  0  0  0  0  0  0  0
   36.2540   29.4850   39.2890 C   0  0  0  0  0  0  0  0  0  0  0  0
   36.1670   30.5500   40.1400 C   0  0  0  0  0  0  0  0  0  0  0  0
   36.7760   30.2190   41.3440 C   0  0  0  0  0  0  0  0  0  0  0  0
   37.2150   28.9670   41.1940 N   0  0  0  0  0  0  0  0  0  0  0  0
   36.9150   28.5130   39.9800 N   0  0  0  0  0  0  0  0  0  0  0  0
   35.7100   31.5110   39.9490 H   0  0  0  0  0  0  0  0  0  0  0  0
   36.9020   30.7990   42.2490 H   0  0  0  0  0  0  0  0  0  0  0  0
   37.9150   28.1210   42.1160 C   0  0  0  0  0  0  0  0  0  0  0  0
   38.5780   28.3010   43.3130 C   0  0  0  0  0  0  0  0  0  0  0  0
   38.6310   29.2920   43.7310 H   0  0  0  0  0  0  0  0  0  0  0  0
   39.0380   27.0310   43.6790 C   0  0  0  0  0  0  0  0  0  0  0  0
   39.5970   26.9130   44.5970 H   0  0  0  0  0  0  0  0  0  0  0  0
   38.6160   26.1630   42.6670 C   0  0  0  0  0  0  0  0  0  0  0  0
   38.8670   25.1100   42.7480 H   0  0  0  0  0  0  0  0  0  0  0  0
   37.9550   26.8410   41.7590 O   0  0  0  0  0  0  0  0  0  0  0  0
  2  7  1  0  0  0  0
  2  1  1  0  0  0  0
  3  2  2  0  0  0  0
  4  5  2  0  0  0  0
  4  3  1  0  0  0  0
  5  6  1  0  0  0  0
  6 10  1  0  0  0  0
  6  7  2  0  0  0  0
  7 20  1  0  0  0  0
  8  4  1  0  0  0  0
  9  5  1  0  0  0  0
 11 17  1  0  0  0  0
 11 12  1  0  0  0  0
 12 18  1  0  0  0  0
 13  3  1  0  0  0  0
 13 12  2  0  0  0  0
 14 13  1  0  0  0  0
 15 14  2  0  0  0  0
 15 16  1  0  0  0  0
 16 11  2  0  0  0  0
 19 15  1  0  0  0  0
 20 24  2  0  0  0  0
 20 21  1  0  0  0  0
 21 22  2  0  0  0  0
 22 26  1  0  0  0  0
 23 22  1  0  0  0  0
 23 27  1  0  0  0  0
 24 23  1  0  0  0  0
 25 21  1  0  0  0  0
 27 28  2  0  0  0  0
 28 30  1  0  0  0  0
 28 29  1  0  0  0  0
 30 31  1  0  0  0  0
 32 33  1  0  0  0  0
 32 30  2  0  0  0  0
 34 27  1  0  0  0  0
 34 32  1  0  0  0  0
M  END
>  <minimizedAffinity>
-5.23157597

$$$$
