
 OpenBabel03242518023D

 36 38  0  0  0  0  0  0  0  0999 V2000
   46.2730   31.7270   45.5520 C   0  0  0  0  0  0  0  0  0  0  0  0
   46.1810   30.7680   44.9600 H   0  0  0  0  0  0  0  0  0  0  0  0
   45.2470   31.9910   45.8010 H   0  0  0  0  0  0  0  0  0  0  0  0
   47.3330   32.3740   47.6870 C   0  0  0  0  0  0  0  0  0  0  0  0
   47.1690   31.4300   46.6600 C   0  0  0  0  0  0  0  0  0  0  0  0
   47.8960   30.2480   46.7790 C   0  0  0  0  0  0  0  0  0  0  0  0
   48.6960   30.0850   47.8510 N   0  0  0  0  0  0  0  0  0  0  0  0
   48.8370   30.9930   48.8160 C   0  0  0  0  0  0  0  0  0  0  0  0
   48.1570   32.1250   48.7250 N   0  0  0  0  0  0  0  0  0  0  0  0
   46.8300   33.3230   47.7150 H   0  0  0  0  0  0  0  0  0  0  0  0
   47.7950   29.4900   46.0000 H   0  0  0  0  0  0  0  0  0  0  0  0
   49.7140   30.7870   49.9690 C   0  0  0  0  0  0  0  0  0  0  0  0
   50.5350   31.6860   50.5890 C   0  0  0  0  0  0  0  0  0  0  0  0
   50.6530   32.7330   50.2910 H   0  0  0  0  0  0  0  0  0  0  0  0
   51.1640   31.0150   51.6350 C   0  0  0  0  0  0  0  0  0  0  0  0
   51.8670   31.4570   52.3050 H   0  0  0  0  0  0  0  0  0  0  0  0
   50.6590   29.7240   51.5660 C   0  0  0  0  0  0  0  0  0  0  0  0
   50.9460   28.9190   52.2550 H   0  0  0  0  0  0  0  0  0  0  0  0
   49.8070   29.6200   50.5740 O   0  0  0  0  0  0  0  0  0  0  0  0
   46.9780   32.7050   44.6330 C   0  0  0  0  0  0  0  0  0  0  0  0
   47.3590   32.2150   43.7150 H   0  0  0  0  0  0  0  0  0  0  0  0
   47.9230   33.0940   45.1200 H   0  0  0  0  0  0  0  0  0  0  0  0
   46.4160   34.6240   43.1950 C   0  0  0  0  0  0  0  0  0  0  0  0
   46.1910   33.9340   44.3740 C   0  0  0  0  0  0  0  0  0  0  0  0
   45.2780   34.3370   45.3180 C   0  0  0  0  0  0  0  0  0  0  0  0
   44.5560   35.4820   45.0740 C   0  0  0  0  0  0  0  0  0  0  0  0
   44.7090   36.2240   43.9470 C   0  0  0  0  0  0  0  0  0  0  0  0
   45.6500   35.7570   43.0360 C   0  0  0  0  0  0  0  0  0  0  0  0
   45.0660   33.8510   46.2330 H   0  0  0  0  0  0  0  0  0  0  0  0
   43.8160   35.8510   45.7870 H   0  0  0  0  0  0  0  0  0  0  0  0
   44.1460   37.1220   43.7500 H   0  0  0  0  0  0  0  0  0  0  0  0
   45.7860   36.3400   42.1240 H   0  0  0  0  0  0  0  0  0  0  0  0
   47.5600   34.1490   41.9750 S   0  0  0  0  0  0  0  0  0  0  0  0
   48.8160   34.9670   42.0030 O   0  0  0  0  0  0  0  0  0  0  0  0
   46.9540   34.4430   40.6070 O   0  0  0  0  0  0  0  0  0  0  0  0
   47.8030   32.8000   41.9430 H   0  0  0  0  0  0  0  0  0  0  0  0
  1  3  1  0  0  0  0
  1  5  1  0  0  0  0
  2  1  1  0  0  0  0
  4 10  1  0  0  0  0
  4  9  1  0  0  0  0
  5  6  1  0  0  0  0
  5  4  2  0  0  0  0
  6  7  2  0  0  0  0
  7  8  1  0  0  0  0
  8 12  1  0  0  0  0
  9  8  2  0  0  0  0
 11  6  1  0  0  0  0
 12 19  1  0  0  0  0
 12 13  2  0  0  0  0
 13 15  1  0  0  0  0
 14 13  1  0  0  0  0
 15 16  1  0  0  0  0
 17 15  2  0  0  0  0
 17 18  1  0  0  0  0
 19 17  1  0  0  0  0
 20 22  1  0  0  0  0
 20  1  1  0  0  0  0
 21 20  1  0  0  0  0
 23 24  1  0  0  0  0
 24 20  1  0  0  0  0
 24 25  2  0  0  0  0
 25 29  1  0  0  0  0
 26 25  1  0  0  0  0
 26 30  1  0  0  0  0
 27 26  2  0  0  0  0
 28 23  2  0  0  0  0
 28 27  1  0  0  0  0
 31 27  1  0  0  0  0
 32 28  1  0  0  0  0
 33 34  2  0  0  0  0
 33 23  1  0  0  0  0
 35 33  2  0  0  0  0
 36 33  1  0  0  0  0
M  END
>  <minimizedAffinity>
-5.77102613

>  <minimizedRMSD>
0.365358859

$$$$
