
 OpenBabel03252508503D

 27 29  0  0  0  0  0  0  0  0999 V2000
   45.9760   34.1930   41.0430 C   0  0  0  0  0  0  0  0  0  0  0  0
   46.5520   34.8110   42.1450 C   0  0  0  0  0  0  0  0  0  0  0  0
   47.9030   35.1800   42.0230 C   0  0  0  0  0  0  0  0  0  0  0  0
   48.5430   34.9110   40.8560 N   0  0  0  0  0  0  0  0  0  0  0  0
   47.9500   34.3170   39.8290 C   0  0  0  0  0  0  0  0  0  0  0  0
   46.6580   33.9530   39.9140 N   0  0  0  0  0  0  0  0  0  0  0  0
   48.3730   35.6570   42.8550 H   0  0  0  0  0  0  0  0  0  0  0  0
   48.4250   34.0860   38.8790 H   0  0  0  0  0  0  0  0  0  0  0  0
   45.7670   35.0470   43.3410 C   0  0  0  0  0  0  0  0  0  0  0  0
   45.0780   36.2180   43.5740 C   0  0  0  0  0  0  0  0  0  0  0  0
   44.4880   36.0170   44.8000 C   0  0  0  0  0  0  0  0  0  0  0  0
   44.7970   34.7980   45.2870 N   0  0  0  0  0  0  0  0  0  0  0  0
   45.5710   34.2330   44.3860 N   0  0  0  0  0  0  0  0  0  0  0  0
   44.9670   37.1250   42.9950 H   0  0  0  0  0  0  0  0  0  0  0  0
   43.8420   36.6650   45.4000 H   0  0  0  0  0  0  0  0  0  0  0  0
   44.5700   34.2620   46.1520 H   0  0  0  0  0  0  0  0  0  0  0  0
   44.6480   33.8150   41.1250 O   0  0  0  0  0  0  0  0  0  0  0  0
   43.5660   34.4590   40.5960 C   0  0  0  0  0  0  0  0  0  0  0  0
   43.3080   35.7170   40.6640 O   0  0  0  0  0  0  0  0  0  0  0  0
   42.4860   33.7590   39.8370 C   0  0  0  0  0  0  0  0  0  0  0  0
   41.5110   32.8850   40.3340 C   0  0  0  0  0  0  0  0  0  0  0  0
   41.4720   32.6320   41.4060 H   0  0  0  0  0  0  0  0  0  0  0  0
   40.6800   32.4320   39.3340 C   0  0  0  0  0  0  0  0  0  0  0  0
   39.8500   31.7510   39.4460 H   0  0  0  0  0  0  0  0  0  0  0  0
   41.1980   33.0700   38.2280 C   0  0  0  0  0  0  0  0  0  0  0  0
   40.7990   32.9640   37.2090 H   0  0  0  0  0  0  0  0  0  0  0  0
   42.2030   33.7990   38.5610 O   0  0  0  0  0  0  0  0  0  0  0  0
  1 17  1  0  0  0  0
  1  2  1  0  0  0  0
  2  9  1  0  0  0  0
  3  2  2  0  0  0  0
  3  7  1  0  0  0  0
  4  3  1  0  0  0  0
  5  6  1  0  0  0  0
  5  4  2  0  0  0  0
  6  1  2  0  0  0  0
  8  5  1  0  0  0  0
  9 10  1  0  0  0  0
  9 13  2  0  0  0  0
 10 11  2  0  0  0  0
 11 12  1  0  0  0  0
 11 15  1  0  0  0  0
 12 16  1  0  0  0  0
 13 12  1  0  0  0  0
 14 10  1  0  0  0  0
 18 19  2  0  0  0  0
 18 17  1  0  0  0  0
 20 21  2  0  0  0  0
 20 18  1  0  0  0  0
 21 22  1  0  0  0  0
 23 24  1  0  0  0  0
 23 21  1  0  0  0  0
 25 27  1  0  0  0  0
 25 23  2  0  0  0  0
 26 25  1  0  0  0  0
 27 20  1  0  0  0  0
M  END
>  <minimizedAffinity>
-5.01595259

>  <minimizedRMSD>
0.462329835

$$$$
