
     RDKit          3D

 30 32  0  0  0  0  0  0  0  0999 V2000
   44.0984   32.5627   42.6933 Cl  0  0  0  0  0  0  0  0  0  0  0  0
   45.5493   33.4759   42.4017 C   0  0  0  0  0  0  0  0  0  0  0  0
   46.3252   33.9228   43.4054 C   0  0  0  0  0  0  0  0  0  0  0  0
   47.4601   34.6411   43.0652 C   0  0  0  0  0  0  0  0  0  0  0  0
   47.7942   34.8951   41.7772 C   0  0  0  0  0  0  0  0  0  0  0  0
   47.0053   34.4410   40.7478 C   0  0  0  0  0  0  0  0  0  0  0  0
   45.8858   33.7327   41.0775 C   0  0  0  0  0  0  0  0  0  0  0  0
   44.7750   34.1453   46.8562 C   0  0  0  0  0  0  0  0  0  0  0  0
   45.1257   34.4684   45.5404 C   0  0  0  0  0  0  0  0  0  0  0  0
   45.9316   33.6285   44.7844 C   0  0  0  0  0  0  0  0  0  0  0  0
   46.3550   32.4825   45.3972 N   0  0  0  0  0  0  0  0  0  0  0  0
   46.0102   32.1813   46.6671 C   0  0  0  0  0  0  0  0  0  0  0  0
   45.2279   33.0020   47.3934 N   0  0  0  0  0  0  0  0  0  0  0  0
   49.0169   35.6690   41.4111 C   0  0  0  0  0  0  0  0  0  0  0  0
   50.1145   34.9366   41.7670 F   0  0  0  0  0  0  0  0  0  0  0  0
   49.0039   36.9293   41.9828 F   0  0  0  0  0  0  0  0  0  0  0  0
   49.0049   35.8479   40.0273 F   0  0  0  0  0  0  0  0  0  0  0  0
   48.0869   35.0019   43.8809 H   0  0  0  0  0  0  0  0  0  0  0  0
   47.2377   34.6229   39.7064 H   0  0  0  0  0  0  0  0  0  0  0  0
   45.2599   33.3723   40.2646 H   0  0  0  0  0  0  0  0  0  0  0  0
   44.1448   34.8179   47.4249 H   0  0  0  0  0  0  0  0  0  0  0  0
   44.7743   35.3791   45.0897 H   0  0  0  0  0  0  0  0  0  0  0  0
   46.5779   30.9121   47.1057 C   0  0  0  0  0  0  0  0  0  0  0  0
   47.7845   30.9933   47.8061 C   0  0  0  0  0  0  0  0  0  0  0  0
   48.4229   31.8267   48.1108 H   0  0  0  0  0  0  0  0  0  0  0  0
   48.1539   29.6921   48.1311 C   0  0  0  0  0  0  0  0  0  0  0  0
   49.0341   29.3185   48.6782 H   0  0  0  0  0  0  0  0  0  0  0  0
   47.1405   28.8958   47.6036 C   0  0  0  0  0  0  0  0  0  0  0  0
   47.1200   27.8192   47.6813 H   0  0  0  0  0  0  0  0  0  0  0  0
   46.2444   29.6355   47.0167 O   0  0  0  0  0  0  0  0  0  0  0  0
  2  1  1  0
  2  3  2  0
  3 10  1  0
  4  3  1  0
  5  4  2  0
  6  7  2  0
  6  5  1  0
  7  2  1  0
  8 13  2  0
  9  8  1  0
 10 11  1  0
 10  9  2  0
 11 12  2  0
 12 13  1  0
 14 15  1  0
 14  5  1  0
 14 16  1  0
 17 14  1  0
  4 18  1  0
  6 19  1  0
  7 20  1  0
  8 21  1  0
  9 22  1  0
 23 24  2  0
 24 25  1  0
 24 26  1  0
 26 27  1  0
 26 28  2  0
 28 29  1  0
 28 30  1  0
 30 23  1  0
 12 23  1  0
M  ISO  8  18  14  19  14  20  14  21  14  22  14  25  16  27  16  29  14
M  END
>  <DihAtoms>  (1) 
10,11,22,23

>  <DihDeg>  (1) 
95.03458092982868

$$$$
