
 OpenBabel03252502503D

 33 35  0  0  0  0  0  0  0  0999 V2000
   44.5850   36.2020   43.8630 C   0  0  0  0  0  0  0  0  0  0  0  0
   44.8080   35.4010   45.0010 C   0  0  0  0  0  0  0  0  0  0  0  0
   45.5520   34.2340   44.8370 C   0  0  0  0  0  0  0  0  0  0  0  0
   46.0230   33.9230   43.6090 N   0  0  0  0  0  0  0  0  0  0  0  0
   45.7900   34.7190   42.5320 C   0  0  0  0  0  0  0  0  0  0  0  0
   45.0730   35.8560   42.6560 N   0  0  0  0  0  0  0  0  0  0  0  0
   44.0130   37.1160   43.9430 H   0  0  0  0  0  0  0  0  0  0  0  0
   44.4070   35.6980   45.9620 H   0  0  0  0  0  0  0  0  0  0  0  0
   48.5400   35.7060   41.9420 Cl  0  0  0  0  0  0  0  0  0  0  0  0
   47.5790   34.7240   40.8610 C   0  0  0  0  0  0  0  0  0  0  0  0
   46.3300   34.3230   41.2260 C   0  0  0  0  0  0  0  0  0  0  0  0
   45.5300   33.5310   40.3800 C   0  0  0  0  0  0  0  0  0  0  0  0
   46.1040   33.1980   39.1650 C   0  0  0  0  0  0  0  0  0  0  0  0
   47.3570   33.6020   38.8040 C   0  0  0  0  0  0  0  0  0  0  0  0
   48.1260   34.3750   39.6410 C   0  0  0  0  0  0  0  0  0  0  0  0
   44.5520   33.2070   40.6430 H   0  0  0  0  0  0  0  0  0  0  0  0
   45.5780   32.5870   38.4270 H   0  0  0  0  0  0  0  0  0  0  0  0
   47.8130   33.3440   37.8540 H   0  0  0  0  0  0  0  0  0  0  0  0
   49.1060   34.7070   39.3900 H   0  0  0  0  0  0  0  0  0  0  0  0
   45.7820   33.3940   46.0280 C   0  0  0  0  0  0  0  0  0  0  0  0
   45.9190   33.9810   46.9460 H   0  0  0  0  0  0  0  0  0  0  0  0
   44.8410   32.7890   46.1680 H   0  0  0  0  0  0  0  0  0  0  0  0
   46.8930   32.3740   45.8330 C   0  0  0  0  0  0  0  0  0  0  0  0
   46.6230   31.6020   45.1100 H   0  0  0  0  0  0  0  0  0  0  0  0
   47.8390   32.9140   45.6160 H   0  0  0  0  0  0  0  0  0  0  0  0
   47.1020   31.7320   47.1800 C   0  0  0  0  0  0  0  0  0  0  0  0
   46.3100   31.9380   48.3110 C   0  0  0  0  0  0  0  0  0  0  0  0
   45.4330   32.5880   48.3860 H   0  0  0  0  0  0  0  0  0  0  0  0
   46.8900   31.1380   49.2980 C   0  0  0  0  0  0  0  0  0  0  0  0
   46.5100   31.0660   50.3190 H   0  0  0  0  0  0  0  0  0  0  0  0
   47.9720   30.5070   48.7280 C   0  0  0  0  0  0  0  0  0  0  0  0
   48.6430   29.8090   49.2290 H   0  0  0  0  0  0  0  0  0  0  0  0
   48.0680   30.8810   47.4740 O   0  0  0  0  0  0  0  0  0  0  0  0
  1  7  1  0  0  0  0
  1  2  1  0  0  0  0
  2  8  1  0  0  0  0
  3  2  2  0  0  0  0
  3 20  1  0  0  0  0
  4  3  1  0  0  0  0
  5  6  1  0  0  0  0
  5  4  2  0  0  0  0
  6  1  2  0  0  0  0
 10 11  1  0  0  0  0
 10  9  1  0  0  0  0
 11  5  1  0  0  0  0
 12 16  1  0  0  0  0
 12 11  2  0  0  0  0
 13 12  1  0  0  0  0
 14 13  2  0  0  0  0
 14 15  1  0  0  0  0
 15 10  2  0  0  0  0
 17 13  1  0  0  0  0
 18 14  1  0  0  0  0
 19 15  1  0  0  0  0
 20 22  1  0  0  0  0
 20 21  1  0  0  0  0
 23 20  1  0  0  0  0
 23 26  1  0  0  0  0
 24 23  1  0  0  0  0
 25 23  1  0  0  0  0
 26 33  1  0  0  0  0
 26 27  2  0  0  0  0
 27 28  1  0  0  0  0
 27 29  1  0  0  0  0
 29 30  1  0  0  0  0
 31 32  1  0  0  0  0
 31 29  2  0  0  0  0
 33 31  1  0  0  0  0
M  END
>  <minimizedAffinity>
-5.50243998

>  <minimizedRMSD>
0.236356109

$$$$
