
 OpenBabel03242514233D

 33 36  0  0  0  0  0  0  0  0999 V2000
   44.7960   33.1270   41.1120 Cl  0  0  0  0  0  0  0  0  0  0  0  0
   46.3280   33.9550   40.9020 C   0  0  0  0  0  0  0  0  0  0  0  0
   46.8390   34.7150   41.9130 C   0  0  0  0  0  0  0  0  0  0  0  0
   48.0550   35.3770   41.7610 C   0  0  0  0  0  0  0  0  0  0  0  0
   48.6940   35.2260   40.5630 C   0  0  0  0  0  0  0  0  0  0  0  0
   48.1760   34.4570   39.5430 C   0  0  0  0  0  0  0  0  0  0  0  0
   46.9840   33.8150   39.7080 C   0  0  0  0  0  0  0  0  0  0  0  0
   48.4810   35.9820   42.5410 H   0  0  0  0  0  0  0  0  0  0  0  0
   49.6540   35.6970   40.3290 H   0  0  0  0  0  0  0  0  0  0  0  0
   48.6790   34.3310   38.5840 H   0  0  0  0  0  0  0  0  0  0  0  0
   45.6050   34.0380   45.3190 C   0  0  0  0  0  0  0  0  0  0  0  0
   44.7190   35.1030   45.5280 C   0  0  0  0  0  0  0  0  0  0  0  0
   44.5500   36.0350   44.5140 C   0  0  0  0  0  0  0  0  0  0  0  0
   45.2510   35.8710   43.3710 N   0  0  0  0  0  0  0  0  0  0  0  0
   46.1060   34.8390   43.1760 C   0  0  0  0  0  0  0  0  0  0  0  0
   46.2880   33.9140   44.1540 N   0  0  0  0  0  0  0  0  0  0  0  0
   45.7240   33.3160   46.1280 H   0  0  0  0  0  0  0  0  0  0  0  0
   44.1510   35.2630   46.4160 H   0  0  0  0  0  0  0  0  0  0  0  0
   43.9210   36.8960   44.5100 H   0  0  0  0  0  0  0  0  0  0  0  0
   46.4070   32.9940   38.6500 C   0  0  0  0  0  0  0  0  0  0  0  0
   45.4670   33.3470   37.7630 N   0  0  0  0  0  0  0  0  0  0  0  0
   45.2090   32.3030   36.9560 C   0  0  0  0  0  0  0  0  0  0  0  0
   45.9960   31.2730   37.3380 N   0  0  0  0  0  0  0  0  0  0  0  0
   46.7270   31.7080   38.3780 N   0  0  0  0  0  0  0  0  0  0  0  0
   44.5350   32.1800   36.1350 H   0  0  0  0  0  0  0  0  0  0  0  0
   46.1700   29.9380   36.8740 C   0  0  0  0  0  0  0  0  0  0  0  0
   45.2190   28.9950   37.2800 C   0  0  0  0  0  0  0  0  0  0  0  0
   44.3300   29.0450   37.8990 H   0  0  0  0  0  0  0  0  0  0  0  0
   45.6000   27.7840   36.7050 C   0  0  0  0  0  0  0  0  0  0  0  0
   45.2030   26.7710   36.7140 H   0  0  0  0  0  0  0  0  0  0  0  0
   46.7640   28.0680   35.9830 C   0  0  0  0  0  0  0  0  0  0  0  0
   47.4400   27.4780   35.3670 H   0  0  0  0  0  0  0  0  0  0  0  0
   47.0610   29.3500   36.1120 O   0  0  0  0  0  0  0  0  0  0  0  0
  2  1  1  0  0  0  0
  2  3  1  0  0  0  0
  3 15  1  0  0  0  0
  4  3  2  0  0  0  0
  4  8  1  0  0  0  0
  5  4  1  0  0  0  0
  6  7  1  0  0  0  0
  6  5  2  0  0  0  0
  7  2  2  0  0  0  0
  9  5  1  0  0  0  0
 10  6  1  0  0  0  0
 11 12  1  0  0  0  0
 11 17  1  0  0  0  0
 12 18  1  0  0  0  0
 13 12  2  0  0  0  0
 14 13  1  0  0  0  0
 15 14  2  0  0  0  0
 15 16  1  0  0  0  0
 16 11  2  0  0  0  0
 19 13  1  0  0  0  0
 20  7  1  0  0  0  0
 21 20  1  0  0  0  0
 22 23  1  0  0  0  0
 22 21  2  0  0  0  0
 23 24  1  0  0  0  0
 24 20  2  0  0  0  0
 25 22  1  0  0  0  0
 26 27  2  0  0  0  0
 26 23  1  0  0  0  0
 27 28  1  0  0  0  0
 29 30  1  0  0  0  0
 29 27  1  0  0  0  0
 31 33  1  0  0  0  0
 31 29  2  0  0  0  0
 32 31  1  0  0  0  0
 33 26  1  0  0  0  0
M  END
>  <minimizedAffinity>
-5.30371094

>  <minimizedRMSD>
0.170268044

$$$$
