
 OpenBabel03252502273D

 34 36  0  0  0  0  0  0  0  0999 V2000
   45.2380   34.4120   41.0200 C   0  0  0  0  0  0  0  0  0  0  0  0
   45.4060   34.9970   42.2780 C   0  0  0  0  0  0  0  0  0  0  0  0
   46.6920   35.2640   42.7230 C   0  0  0  0  0  0  0  0  0  0  0  0
   47.7700   34.9490   41.9200 C   0  0  0  0  0  0  0  0  0  0  0  0
   47.6260   34.3730   40.6800 C   0  0  0  0  0  0  0  0  0  0  0  0
   46.3220   34.1170   40.2600 C   0  0  0  0  0  0  0  0  0  0  0  0
   44.5450   35.2380   42.8960 H   0  0  0  0  0  0  0  0  0  0  0  0
   46.7630   35.7170   43.7020 H   0  0  0  0  0  0  0  0  0  0  0  0
   48.7540   35.1770   42.3150 H   0  0  0  0  0  0  0  0  0  0  0  0
   48.4570   34.1240   40.0500 H   0  0  0  0  0  0  0  0  0  0  0  0
   41.6210   34.7550   40.0330 C   0  0  0  0  0  0  0  0  0  0  0  0
   42.9210   35.1350   40.4200 C   0  0  0  0  0  0  0  0  0  0  0  0
   43.8580   34.1610   40.6190 C   0  0  0  0  0  0  0  0  0  0  0  0
   43.4780   32.8720   40.4330 N   0  0  0  0  0  0  0  0  0  0  0  0
   42.2300   32.5140   40.0620 C   0  0  0  0  0  0  0  0  0  0  0  0
   41.2890   33.4650   39.8590 N   0  0  0  0  0  0  0  0  0  0  0  0
   43.2020   36.1710   40.5630 H   0  0  0  0  0  0  0  0  0  0  0  0
   42.0150   31.4610   39.9360 H   0  0  0  0  0  0  0  0  0  0  0  0
   40.5880   35.7920   39.8120 C   0  0  0  0  0  0  0  0  0  0  0  0
   39.3740   35.1390   39.5650 F   0  0  0  0  0  0  0  0  0  0  0  0
   40.8980   36.4080   38.5940 F   0  0  0  0  0  0  0  0  0  0  0  0
   40.4620   36.6780   40.8340 F   0  0  0  0  0  0  0  0  0  0  0  0
   46.3230   32.2830   38.3800 C   0  0  0  0  0  0  0  0  0  0  0  0
   46.9580   31.3550   38.8980 O   0  0  0  0  0  0  0  0  0  0  0  0
   46.0350   33.5300   39.0080 N   0  0  0  0  0  0  0  0  0  0  0  0
   45.4670   34.2630   38.4780 H   0  0  0  0  0  0  0  0  0  0  0  0
   45.8190   32.1040   37.0120 C   0  0  0  0  0  0  0  0  0  0  0  0
   44.7480   31.2770   36.7480 C   0  0  0  0  0  0  0  0  0  0  0  0
   44.1270   30.6610   37.4120 H   0  0  0  0  0  0  0  0  0  0  0  0
   44.4790   31.2900   35.3730 C   0  0  0  0  0  0  0  0  0  0  0  0
   43.7530   30.8060   34.7330 H   0  0  0  0  0  0  0  0  0  0  0  0
   45.4520   32.1620   34.8890 C   0  0  0  0  0  0  0  0  0  0  0  0
   45.6390   32.4860   33.8670 H   0  0  0  0  0  0  0  0  0  0  0  0
   46.1950   32.6010   35.8710 O   0  0  0  0  0  0  0  0  0  0  0  0
  1  2  1  0  0  0  0
  2  3  2  0  0  0  0
  2  7  1  0  0  0  0
  3  8  1  0  0  0  0
  4  9  1  0  0  0  0
  4  3  1  0  0  0  0
  5  4  2  0  0  0  0
  6  5  1  0  0  0  0
  6  1  2  0  0  0  0
 10  5  1  0  0  0  0
 11 12  1  0  0  0  0
 12 17  1  0  0  0  0
 12 13  2  0  0  0  0
 13  1  1  0  0  0  0
 14 13  1  0  0  0  0
 15 14  2  0  0  0  0
 16 11  2  0  0  0  0
 16 15  1  0  0  0  0
 18 15  1  0  0  0  0
 19 11  1  0  0  0  0
 19 22  1  0  0  0  0
 20 19  1  0  0  0  0
 21 19  1  0  0  0  0
 23 24  2  0  0  0  0
 23 25  1  0  0  0  0
 25  6  1  0  0  0  0
 26 25  1  0  0  0  0
 27 23  1  0  0  0  0
 28 27  2  0  0  0  0
 28 29  1  0  0  0  0
 30 28  1  0  0  0  0
 31 30  1  0  0  0  0
 32 30  2  0  0  0  0
 32 34  1  0  0  0  0
 33 32  1  0  0  0  0
 34 27  1  0  0  0  0
M  END
>  <minimizedAffinity>
-5.84024477

>  <minimizedRMSD>
0.819865704

$$$$
