
 OpenBabel03252505003D

 36 38  0  0  1  0  0  0  0  0999 V2000
   38.8220   29.4750   42.6860 N   0  0  0  0  0  0  0  0  0  0  0  0
   39.5080   28.2420   42.7720 C   0  0  0  0  0  0  0  0  0  0  0  0
   38.5200   27.3700   43.4470 C   0  0  0  0  0  0  0  0  0  0  0  0
   37.2470   28.1710   43.6780 C   0  0  0  0  0  0  0  0  0  0  0  0
   37.4240   29.3230   42.6770 C   0  0  2  0  0  0  0  0  0  0  0  0
   40.4340   27.7960   42.5210 H   0  0  0  0  0  0  0  0  0  0  0  0
   38.5890   26.3310   43.7350 H   0  0  0  0  0  0  0  0  0  0  0  0
   36.4230   27.5200   43.3880 H   0  0  0  0  0  0  0  0  0  0  0  0
   37.1980   28.5430   44.7180 H   0  0  0  0  0  0  0  0  0  0  0  0
   36.8900   30.2300   42.9470 H   0  0  0  0  0  0  0  0  0  0  0  0
   39.5330   30.6490   42.6560 C   0  0  0  0  0  0  0  0  0  0  0  0
   39.2090   31.4150   43.3980 H   0  0  0  0  0  0  0  0  0  0  0  0
   40.5740   30.4230   43.0040 H   0  0  0  0  0  0  0  0  0  0  0  0
   40.1860   31.6450   39.0610 C   0  0  0  0  0  0  0  0  0  0  0  0
   40.2800   30.8900   40.2710 C   0  0  0  0  0  0  0  0  0  0  0  0
   39.5550   31.3300   41.3780 C   0  0  0  0  0  0  0  0  0  0  0  0
   38.8100   32.4460   41.2290 N   0  0  0  0  0  0  0  0  0  0  0  0
   38.7310   33.1630   40.0530 C   0  0  0  0  0  0  0  0  0  0  0  0
   39.4220   32.7530   38.9820 N   0  0  0  0  0  0  0  0  0  0  0  0
   40.7860   31.2100   38.2820 H   0  0  0  0  0  0  0  0  0  0  0  0
   40.8750   30.0110   40.3650 H   0  0  0  0  0  0  0  0  0  0  0  0
   38.1110   34.0450   40.0200 H   0  0  0  0  0  0  0  0  0  0  0  0
   37.0880   28.7970   41.4210 O   0  0  0  0  0  0  0  0  0  0  0  0
   36.8640   30.2810   39.2290 O   0  0  0  0  0  0  0  0  0  0  0  0
   36.1700   29.8060   40.4800 P   0  0  2  0  0  0  0  0  0  0  0  0
   35.7890   31.1840   41.3970 O   0  0  0  0  0  0  0  0  0  0  0  0
   34.9250   31.1190   41.8460 H   0  0  0  0  0  0  0  0  0  0  0  0
   34.6640   29.0780   40.0950 O   0  0  0  0  0  0  0  0  0  0  0  0
   34.5660   28.5100   38.8120 C   0  0  0  0  0  0  0  0  0  0  0  0
   33.6830   28.8870   37.8310 C   0  0  0  0  0  0  0  0  0  0  0  0
   32.9210   29.6690   37.8560 H   0  0  0  0  0  0  0  0  0  0  0  0
   33.9370   28.0670   36.7490 C   0  0  0  0  0  0  0  0  0  0  0  0
   33.4570   28.0470   35.7800 H   0  0  0  0  0  0  0  0  0  0  0  0
   34.9650   27.2280   37.1250 C   0  0  0  0  0  0  0  0  0  0  0  0
   35.3930   26.4640   36.4880 H   0  0  0  0  0  0  0  0  0  0  0  0
   35.3130   27.5260   38.3730 O   0  0  0  0  0  0  0  0  0  0  0  0
  1  2  1  0  0  0  0
  2  3  2  0  0  0  0
  3  4  1  0  0  0  0
  3  7  1  0  0  0  0
  4  9  1  0  0  0  0
  5  1  1  0  0  0  0
  5 10  1  1  0  0  0
  5  4  1  0  0  0  0
  6  2  1  0  0  0  0
  8  4  1  0  0  0  0
 11  1  1  0  0  0  0
 11 13  1  0  0  0  0
 11 12  1  0  0  0  0
 14 15  1  0  0  0  0
 15 21  1  0  0  0  0
 15 16  2  0  0  0  0
 16 11  1  0  0  0  0
 17 16  1  0  0  0  0
 18 17  2  0  0  0  0
 19 14  2  0  0  0  0
 19 18  1  0  0  0  0
 20 14  1  0  0  0  0
 22 18  1  0  0  0  0
 23  5  1  0  0  0  0
 25 24  2  6  0  0  0
 25 26  1  0  0  0  0
 25 23  1  0  0  0  0
 26 27  1  0  0  0  0
 28 25  1  0  0  0  0
 29 28  1  0  0  0  0
 30 31  1  0  0  0  0
 30 29  2  0  0  0  0
 32 34  2  0  0  0  0
 32 30  1  0  0  0  0
 33 32  1  0  0  0  0
 34 36  1  0  0  0  0
 35 34  1  0  0  0  0
 36 29  1  0  0  0  0
M  END
>  <minimizedAffinity>
-5.21385574

$$$$

 OpenBabel03252505003D

 36 38  0  0  1  0  0  0  0  0999 V2000
   36.5170   27.8350   39.1290 N   0  0  0  0  0  0  0  0  0  0  0  0
   37.0390   27.5790   37.8410 C   0  0  0  0  0  0  0  0  0  0  0  0
   36.2490   28.4950   36.9860 C   0  0  0  0  0  0  0  0  0  0  0  0
   35.3100   29.2960   37.8750 C   0  0  0  0  0  0  0  0  0  0  0  0
   35.9700   29.1240   39.2520 C   0  0  2  0  0  0  0  0  0  0  0  0
   37.7600   26.9820   37.3490 H   0  0  0  0  0  0  0  0  0  0  0  0
   36.2860   28.6560   35.9190 H   0  0  0  0  0  0  0  0  0  0  0  0
   35.3750   30.3280   37.5320 H   0  0  0  0  0  0  0  0  0  0  0  0
   34.2910   28.8680   37.8600 H   0  0  0  0  0  0  0  0  0  0  0  0
   35.2830   29.2250   40.0890 H   0  0  0  0  0  0  0  0  0  0  0  0
   36.5520   26.8500   40.0860 C   0  0  0  0  0  0  0  0  0  0  0  0
   35.5550   26.4910   40.4300 H   0  0  0  0  0  0  0  0  0  0  0  0
   36.9720   25.9290   39.6070 H   0  0  0  0  0  0  0  0  0  0  0  0
   37.5260   27.7880   43.6240 C   0  0  0  0  0  0  0  0  0  0  0  0
   36.6810   27.5110   42.5060 C   0  0  0  0  0  0  0  0  0  0  0  0
   37.2830   27.1820   41.2920 C   0  0  0  0  0  0  0  0  0  0  0  0
   38.6320   27.1470   41.2580 N   0  0  0  0  0  0  0  0  0  0  0  0
   39.4330   27.4170   42.3480 C   0  0  0  0  0  0  0  0  0  0  0  0
   38.8680   27.7350   43.5200 N   0  0  0  0  0  0  0  0  0  0  0  0
   36.9490   28.0280   44.5000 H   0  0  0  0  0  0  0  0  0  0  0  0
   35.6170   27.5450   42.5570 H   0  0  0  0  0  0  0  0  0  0  0  0
   40.5040   27.3660   42.2340 H   0  0  0  0  0  0  0  0  0  0  0  0
   37.0530   30.0150   39.2730 O   0  0  0  0  0  0  0  0  0  0  0  0
   38.1420   30.6050   41.6240 O   0  0  0  0  0  0  0  0  0  0  0  0
   37.1030   31.0010   40.6060 P   0  0  2  0  0  0  0  0  0  0  0  0
   35.5920   30.9260   41.3760 O   0  0  0  0  0  0  0  0  0  0  0  0
   34.9850   31.6390   41.1010 H   0  0  0  0  0  0  0  0  0  0  0  0
   37.3040   32.6410   40.1440 O   0  0  0  0  0  0  0  0  0  0  0  0
   38.6220   33.0440   39.8630 C   0  0  0  0  0  0  0  0  0  0  0  0
   39.2470   34.1580   40.3670 C   0  0  0  0  0  0  0  0  0  0  0  0
   38.8580   34.9120   41.0540 H   0  0  0  0  0  0  0  0  0  0  0  0
   40.5200   34.1610   39.8290 C   0  0  0  0  0  0  0  0  0  0  0  0
   41.3220   34.8710   39.9790 H   0  0  0  0  0  0  0  0  0  0  0  0
   40.6070   33.0460   39.0220 C   0  0  0  0  0  0  0  0  0  0  0  0
   41.4890   32.7710   38.4560 H   0  0  0  0  0  0  0  0  0  0  0  0
   39.4450   32.4020   39.0700 O   0  0  0  0  0  0  0  0  0  0  0  0
  1  5  1  0  0  0  0
  1 11  1  0  0  0  0
  2  1  1  0  0  0  0
  3  2  2  0  0  0  0
  3  4  1  0  0  0  0
  4  5  1  0  0  0  0
  5 23  1  0  0  0  0
  5 10  1  1  0  0  0
  6  2  1  0  0  0  0
  7  3  1  0  0  0  0
  8  4  1  0  0  0  0
  9  4  1  0  0  0  0
 11 12  1  0  0  0  0
 11 16  1  0  0  0  0
 13 11  1  0  0  0  0
 14 20  1  0  0  0  0
 15 21  1  0  0  0  0
 15 14  2  0  0  0  0
 16 15  1  0  0  0  0
 17 16  2  0  0  0  0
 17 18  1  0  0  0  0
 18 19  2  0  0  0  0
 19 14  1  0  0  0  0
 22 18  1  0  0  0  0
 23 25  1  0  0  0  0
 25 26  1  0  0  0  0
 25 24  2  1  0  0  0
 27 26  1  0  0  0  0
 28 25  1  0  0  0  0
 29 28  1  0  0  0  0
 29 30  2  0  0  0  0
 30 31  1  0  0  0  0
 32 33  1  0  0  0  0
 32 30  1  0  0  0  0
 34 36  1  0  0  0  0
 34 32  2  0  0  0  0
 35 34  1  0  0  0  0
 36 29  1  0  0  0  0
M  END
>  <minimizedAffinity>
-5.19081593

$$$$

 OpenBabel03252505003D

 36 38  0  0  1  0  0  0  0  0999 V2000
   36.9980   30.7910   40.0180 N   0  0  0  0  0  0  0  0  0  0  0  0
   37.1070   29.9790   38.8670 C   0  0  0  0  0  0  0  0  0  0  0  0
   37.2610   30.9760   37.7830 C   0  0  0  0  0  0  0  0  0  0  0  0
   37.2810   32.3650   38.4030 C   0  0  0  0  0  0  0  0  0  0  0  0
   37.6220   32.0420   39.8660 C   0  0  2  0  0  0  0  0  0  0  0  0
   37.1110   28.9620   38.5740 H   0  0  0  0  0  0  0  0  0  0  0  0
   37.3760   30.8350   36.7180 H   0  0  0  0  0  0  0  0  0  0  0  0
   38.0960   32.9010   37.9180 H   0  0  0  0  0  0  0  0  0  0  0  0
   36.2920   32.8510   38.3170 H   0  0  0  0  0  0  0  0  0  0  0  0
   37.2740   32.7880   40.5770 H   0  0  0  0  0  0  0  0  0  0  0  0
   36.3030   30.3350   41.1110 C   0  0  0  0  0  0  0  0  0  0  0  0
   36.0070   31.1200   41.8430 H   0  0  0  0  0  0  0  0  0  0  0  0
   35.3060   29.9730   40.7500 H   0  0  0  0  0  0  0  0  0  0  0  0
   38.7340   28.3940   43.2720 C   0  0  0  0  0  0  0  0  0  0  0  0
   38.2060   29.4820   42.5110 C   0  0  0  0  0  0  0  0  0  0  0  0
   36.9700   29.3100   41.8880 C   0  0  0  0  0  0  0  0  0  0  0  0
   36.3550   28.1190   42.0480 N   0  0  0  0  0  0  0  0  0  0  0  0
   36.8790   27.0790   42.7860 C   0  0  0  0  0  0  0  0  0  0  0  0
   38.0660   27.2300   43.3900 N   0  0  0  0  0  0  0  0  0  0  0  0
   39.6880   28.6450   43.7020 H   0  0  0  0  0  0  0  0  0  0  0  0
   38.7100   30.4140   42.3990 H   0  0  0  0  0  0  0  0  0  0  0  0
   36.3210   26.1590   42.8630 H   0  0  0  0  0  0  0  0  0  0  0  0
   39.0040   31.8040   39.8960 O   0  0  0  0  0  0  0  0  0  0  0  0
   41.0770   32.6330   41.3360 O   0  0  0  0  0  0  0  0  0  0  0  0
   39.9020   33.0620   40.4950 P   0  0  2  0  0  0  0  0  0  0  0  0
   38.8960   34.0080   41.4830 O   0  0  0  0  0  0  0  0  0  0  0  0
   38.4950   34.7620   41.0120 H   0  0  0  0  0  0  0  0  0  0  0  0
   40.4150   34.1020   39.2290 O   0  0  0  0  0  0  0  0  0  0  0  0
   41.5050   33.6490   38.4650 C   0  0  0  0  0  0  0  0  0  0  0  0
   41.4800   32.6170   37.5610 C   0  0  0  0  0  0  0  0  0  0  0  0
   40.6440   31.9770   37.2720 H   0  0  0  0  0  0  0  0  0  0  0  0
   42.7600   32.5230   37.0490 C   0  0  0  0  0  0  0  0  0  0  0  0
   43.1510   31.8360   36.3110 H   0  0  0  0  0  0  0  0  0  0  0  0
   43.5040   33.5050   37.6700 C   0  0  0  0  0  0  0  0  0  0  0  0
   44.5550   33.6850   37.4800 H   0  0  0  0  0  0  0  0  0  0  0  0
   42.7120   34.1590   38.5140 O   0  0  0  0  0  0  0  0  0  0  0  0
  1 11  1  0  0  0  0
  2  1  1  0  0  0  0
  3  4  1  0  0  0  0
  3  2  2  0  0  0  0
  4  5  1  0  0  0  0
  5 23  1  0  0  0  0
  5  1  1  0  0  0  0
  5 10  1  1  0  0  0
  6  2  1  0  0  0  0
  7  3  1  0  0  0  0
  8  4  1  0  0  0  0
  9  4  1  0  0  0  0
 11 12  1  0  0  0  0
 11 16  1  0  0  0  0
 13 11  1  0  0  0  0
 14 19  1  0  0  0  0
 14 20  1  0  0  0  0
 15 14  2  0  0  0  0
 16 17  2  0  0  0  0
 16 15  1  0  0  0  0
 17 18  1  0  0  0  0
 18 22  1  0  0  0  0
 18 19  2  0  0  0  0
 21 15  1  0  0  0  0
 23 25  1  0  0  0  0
 25 24  2  1  0  0  0
 25 26  1  0  0  0  0
 27 26  1  0  0  0  0
 28 25  1  0  0  0  0
 29 36  1  0  0  0  0
 29 28  1  0  0  0  0
 30 29  2  0  0  0  0
 31 30  1  0  0  0  0
 32 30  1  0  0  0  0
 32 34  2  0  0  0  0
 33 32  1  0  0  0  0
 34 36  1  0  0  0  0
 35 34  1  0  0  0  0
M  END
>  <minimizedAffinity>
-5.09675074

$$$$

 OpenBabel03252505003D

 36 38  0  0  1  0  0  0  0  0999 V2000
   38.2430   31.8470   38.5280 N   0  0  0  0  0  0  0  0  0  0  0  0
   39.5830   32.2980   38.5650 C   0  0  0  0  0  0  0  0  0  0  0  0
   39.5660   33.2620   39.6900 C   0  0  0  0  0  0  0  0  0  0  0  0
   38.1700   33.2760   40.2930 C   0  0  0  0  0  0  0  0  0  0  0  0
   37.5970   31.9500   39.7720 C   0  0  2  0  0  0  0  0  0  0  0  0
   40.5100   32.1650   38.0740 H   0  0  0  0  0  0  0  0  0  0  0  0
   40.3610   33.8670   40.0990 H   0  0  0  0  0  0  0  0  0  0  0  0
   38.3080   33.2490   41.3740 H   0  0  0  0  0  0  0  0  0  0  0  0
   37.5890   34.1410   39.9230 H   0  0  0  0  0  0  0  0  0  0  0  0
   36.5120   31.9340   39.6980 H   0  0  0  0  0  0  0  0  0  0  0  0
   37.7050   31.4080   37.3430 C   0  0  0  0  0  0  0  0  0  0  0  0
   36.8190   31.9810   36.9860 H   0  0  0  0  0  0  0  0  0  0  0  0
   38.4520   31.6170   36.5350 H   0  0  0  0  0  0  0  0  0  0  0  0
   35.7260   28.1810   37.2020 C   0  0  0  0  0  0  0  0  0  0  0  0
   35.9780   29.5870   37.2440 C   0  0  0  0  0  0  0  0  0  0  0  0
   37.3020   30.0160   37.3220 C   0  0  0  0  0  0  0  0  0  0  0  0
   38.2620   29.0670   37.3540 N   0  0  0  0  0  0  0  0  0  0  0  0
   38.0010   27.7130   37.3120 C   0  0  0  0  0  0  0  0  0  0  0  0
   36.7330   27.2860   37.2370 N   0  0  0  0  0  0  0  0  0  0  0  0
   34.6720   27.9750   37.1430 H   0  0  0  0  0  0  0  0  0  0  0  0
   35.2040   30.3190   37.2180 H   0  0  0  0  0  0  0  0  0  0  0  0
   38.8280   27.0210   37.3410 H   0  0  0  0  0  0  0  0  0  0  0  0
   38.1420   30.9470   40.5880 O   0  0  0  0  0  0  0  0  0  0  0  0
   36.7340   28.6950   40.5850 O   0  0  0  0  0  0  0  0  0  0  0  0
   37.0190   29.9770   41.3250 P   0  0  2  0  0  0  0  0  0  0  0  0
   35.5580   30.8370   41.4190 O   0  0  0  0  0  0  0  0  0  0  0  0
   35.4410   31.3020   42.2690 H   0  0  0  0  0  0  0  0  0  0  0  0
   37.4670   29.6490   42.9480 O   0  0  0  0  0  0  0  0  0  0  0  0
   38.4680   28.6780   43.1260 C   0  0  0  0  0  0  0  0  0  0  0  0
   38.2830   27.4160   43.6330 C   0  0  0  0  0  0  0  0  0  0  0  0
   37.3620   26.9420   43.9780 H   0  0  0  0  0  0  0  0  0  0  0  0
   39.5270   26.8140   43.6290 C   0  0  0  0  0  0  0  0  0  0  0  0
   39.8050   25.8190   43.9490 H   0  0  0  0  0  0  0  0  0  0  0  0
   40.4110   27.7430   43.1190 C   0  0  0  0  0  0  0  0  0  0  0  0
   41.4720   27.5680   42.9900 H   0  0  0  0  0  0  0  0  0  0  0  0
   39.7340   28.8500   42.8300 O   0  0  0  0  0  0  0  0  0  0  0  0
  1  2  1  0  0  0  0
  1  5  1  0  0  0  0
  2  3  2  0  0  0  0
  3  7  1  0  0  0  0
  3  4  1  0  0  0  0
  4  8  1  0  0  0  0
  5 10  1  6  0  0  0
  5  4  1  0  0  0  0
  5 23  1  0  0  0  0
  6  2  1  0  0  0  0
  9  4  1  0  0  0  0
 11  1  1  0  0  0  0
 12 11  1  0  0  0  0
 13 11  1  0  0  0  0
 14 19  2  0  0  0  0
 14 15  1  0  0  0  0
 15 16  2  0  0  0  0
 16 11  1  0  0  0  0
 16 17  1  0  0  0  0
 18 22  1  0  0  0  0
 18 17  2  0  0  0  0
 19 18  1  0  0  0  0
 20 14  1  0  0  0  0
 21 15  1  0  0  0  0
 23 25  1  0  0  0  0
 25 24  2  6  0  0  0
 25 26  1  0  0  0  0
 25 28  1  0  0  0  0
 26 27  1  0  0  0  0
 28 29  1  0  0  0  0
 29 30  2  0  0  0  0
 30 31  1  0  0  0  0
 32 30  1  0  0  0  0
 32 33  1  0  0  0  0
 34 32  2  0  0  0  0
 35 34  1  0  0  0  0
 36 34  1  0  0  0  0
 36 29  1  0  0  0  0
M  END
>  <minimizedAffinity>
-5.06793356

$$$$

 OpenBabel03252505003D

 36 38  0  0  1  0  0  0  0  0999 V2000
   36.4400   28.0770   38.3410 N   0  0  0  0  0  0  0  0  0  0  0  0
   35.9260   28.1340   37.0250 C   0  0  0  0  0  0  0  0  0  0  0  0
   34.5300   28.5770   37.2430 C   0  0  0  0  0  0  0  0  0  0  0  0
   34.3230   28.8070   38.7330 C   0  0  0  0  0  0  0  0  0  0  0  0
   35.7720   28.9420   39.2260 C   0  0  2  0  0  0  0  0  0  0  0  0
   36.2150   27.9700   36.0210 H   0  0  0  0  0  0  0  0  0  0  0  0
   33.7390   28.7610   36.5320 H   0  0  0  0  0  0  0  0  0  0  0  0
   33.7870   29.7510   38.8220 H   0  0  0  0  0  0  0  0  0  0  0  0
   33.8170   27.9420   39.1990 H   0  0  0  0  0  0  0  0  0  0  0  0
   35.9110   28.6800   40.2720 H   0  0  0  0  0  0  0  0  0  0  0  0
   37.4620   27.2090   38.6360 C   0  0  0  0  0  0  0  0  0  0  0  0
   37.7900   26.5620   37.7900 H   0  0  0  0  0  0  0  0  0  0  0  0
   38.3810   27.8220   38.8230 H   0  0  0  0  0  0  0  0  0  0  0  0
   36.4540   24.2570   40.7840 C   0  0  0  0  0  0  0  0  0  0  0  0
   36.6130   25.0560   39.6090 C   0  0  0  0  0  0  0  0  0  0  0  0
   37.2120   26.3080   39.7420 C   0  0  0  0  0  0  0  0  0  0  0  0
   37.6020   26.6810   40.9790 N   0  0  0  0  0  0  0  0  0  0  0  0
   37.4420   25.8970   42.1020 C   0  0  0  0  0  0  0  0  0  0  0  0
   36.8670   24.6920   41.9900 N   0  0  0  0  0  0  0  0  0  0  0  0
   35.9820   23.3180   40.5560 H   0  0  0  0  0  0  0  0  0  0  0  0
   36.2960   24.7390   38.6420 H   0  0  0  0  0  0  0  0  0  0  0  0
   37.7830   26.2720   43.0540 H   0  0  0  0  0  0  0  0  0  0  0  0
   36.1730   30.2430   38.8910 O   0  0  0  0  0  0  0  0  0  0  0  0
   38.0720   30.4890   40.7330 O   0  0  0  0  0  0  0  0  0  0  0  0
   36.8260   31.1040   40.1470 P   0  0  2  0  0  0  0  0  0  0  0  0
   35.6730   31.1830   41.3910 O   0  0  0  0  0  0  0  0  0  0  0  0
   35.1300   31.9930   41.3610 H   0  0  0  0  0  0  0  0  0  0  0  0
   37.1170   32.7310   39.6860 O   0  0  0  0  0  0  0  0  0  0  0  0
   38.4550   33.1610   39.7550 C   0  0  0  0  0  0  0  0  0  0  0  0
   38.9760   34.0180   40.6920 C   0  0  0  0  0  0  0  0  0  0  0  0
   38.4750   34.5090   41.5290 H   0  0  0  0  0  0  0  0  0  0  0  0
   40.3150   34.1600   40.3800 C   0  0  0  0  0  0  0  0  0  0  0  0
   41.0720   34.7500   40.8780 H   0  0  0  0  0  0  0  0  0  0  0  0
   40.5430   33.3800   39.2650 C   0  0  0  0  0  0  0  0  0  0  0  0
   41.5040   33.2830   38.7760 H   0  0  0  0  0  0  0  0  0  0  0  0
   39.3980   32.7970   38.9210 O   0  0  0  0  0  0  0  0  0  0  0  0
  1 11  1  0  0  0  0
  1  5  1  0  0  0  0
  2  3  2  0  0  0  0
  2  1  1  0  0  0  0
  3  4  1  0  0  0  0
  4  8  1  0  0  0  0
  4  9  1  0  0  0  0
  4  5  1  0  0  0  0
  5 10  1  1  0  0  0
  6  2  1  0  0  0  0
  7  3  1  0  0  0  0
 11 13  1  0  0  0  0
 11 16  1  0  0  0  0
 12 11  1  0  0  0  0
 14 19  1  0  0  0  0
 15 16  1  0  0  0  0
 15 14  2  0  0  0  0
 16 17  2  0  0  0  0
 17 18  1  0  0  0  0
 18 22  1  0  0  0  0
 19 18  2  0  0  0  0
 20 14  1  0  0  0  0
 21 15  1  0  0  0  0
 23  5  1  0  0  0  0
 23 25  1  0  0  0  0
 25 24  2  1  0  0  0
 25 26  1  0  0  0  0
 27 26  1  0  0  0  0
 28 29  1  0  0  0  0
 28 25  1  0  0  0  0
 29 30  2  0  0  0  0
 30 31  1  0  0  0  0
 32 30  1  0  0  0  0
 32 33  1  0  0  0  0
 34 32  2  0  0  0  0
 35 34  1  0  0  0  0
 36 34  1  0  0  0  0
 36 29  1  0  0  0  0
M  END
>  <minimizedAffinity>
-4.98437262

$$$$

 OpenBabel03252505003D

 36 38  0  0  1  0  0  0  0  0999 V2000
   39.0370   31.8770   40.3640 N   0  0  0  0  0  0  0  0  0  0  0  0
   38.7190   33.2190   40.6730 C   0  0  0  0  0  0  0  0  0  0  0  0
   37.5180   33.4650   39.8410 C   0  0  0  0  0  0  0  0  0  0  0  0
   37.1690   32.1800   39.1060 C   0  0  0  0  0  0  0  0  0  0  0  0
   37.9200   31.1330   39.9430 C   0  0  2  0  0  0  0  0  0  0  0  0
   39.0520   34.0280   41.2670 H   0  0  0  0  0  0  0  0  0  0  0  0
   36.9140   34.3530   39.7360 H   0  0  0  0  0  0  0  0  0  0  0  0
   36.0900   32.0600   39.2020 H   0  0  0  0  0  0  0  0  0  0  0  0
   37.5400   32.2070   38.0650 H   0  0  0  0  0  0  0  0  0  0  0  0
   38.1830   30.2320   39.3940 H   0  0  0  0  0  0  0  0  0  0  0  0
   40.3370   31.4450   40.4600 C   0  0  0  0  0  0  0  0  0  0  0  0
   40.8250   31.6370   41.4430 H   0  0  0  0  0  0  0  0  0  0  0  0
   40.3240   30.3250   40.4280 H   0  0  0  0  0  0  0  0  0  0  0  0
   43.1650   33.2250   38.6770 C   0  0  0  0  0  0  0  0  0  0  0  0
   42.3340   32.7960   39.7580 C   0  0  0  0  0  0  0  0  0  0  0  0
   41.2440   31.9780   39.4640 C   0  0  0  0  0  0  0  0  0  0  0  0
   41.0470   31.6480   38.1700 N   0  0  0  0  0  0  0  0  0  0  0  0
   41.8580   32.0720   37.1390 C   0  0  0  0  0  0  0  0  0  0  0  0
   42.9090   32.8580   37.4060 N   0  0  0  0  0  0  0  0  0  0  0  0
   43.9690   33.8480   39.0270 H   0  0  0  0  0  0  0  0  0  0  0  0
   42.5100   33.0690   40.7730 H   0  0  0  0  0  0  0  0  0  0  0  0
   41.6290   31.7600   36.1320 H   0  0  0  0  0  0  0  0  0  0  0  0
   37.1340   30.9150   41.0830 O   0  0  0  0  0  0  0  0  0  0  0  0
   35.8400   28.5950   41.1400 O   0  0  0  0  0  0  0  0  0  0  0  0
   37.0760   29.3360   41.5840 P   0  0  2  0  0  0  0  0  0  0  0  0
   37.0890   29.3180   43.2820 O   0  0  0  0  0  0  0  0  0  0  0  0
   37.9830   29.2110   43.6580 H   0  0  0  0  0  0  0  0  0  0  0  0
   38.4910   28.4920   41.1040 O   0  0  0  0  0  0  0  0  0  0  0  0
   39.1690   27.7970   42.1220 C   0  0  0  0  0  0  0  0  0  0  0  0
   40.4220   28.0900   42.5980 C   0  0  0  0  0  0  0  0  0  0  0  0
   41.1040   28.8860   42.2930 H   0  0  0  0  0  0  0  0  0  0  0  0
   40.6870   27.1580   43.5830 C   0  0  0  0  0  0  0  0  0  0  0  0
   41.5680   27.0490   44.2000 H   0  0  0  0  0  0  0  0  0  0  0  0
   39.5780   26.3410   43.6580 C   0  0  0  0  0  0  0  0  0  0  0  0
   39.4800   25.5070   44.3410 H   0  0  0  0  0  0  0  0  0  0  0  0
   38.6880   26.7590   42.7620 O   0  0  0  0  0  0  0  0  0  0  0  0
  1 11  1  0  0  0  0
  1  2  1  0  0  0  0
  2  6  1  0  0  0  0
  3  2  2  0  0  0  0
  4  8  1  0  0  0  0
  4  3  1  0  0  0  0
  4  5  1  0  0  0  0
  5 10  1  6  0  0  0
  5  1  1  0  0  0  0
  5 23  1  0  0  0  0
  7  3  1  0  0  0  0
  9  4  1  0  0  0  0
 11 12  1  0  0  0  0
 13 11  1  0  0  0  0
 14 20  1  0  0  0  0
 14 15  1  0  0  0  0
 15 21  1  0  0  0  0
 16 15  2  0  0  0  0
 16 11  1  0  0  0  0
 17 16  1  0  0  0  0
 18 19  1  0  0  0  0
 18 17  2  0  0  0  0
 19 14  2  0  0  0  0
 22 18  1  0  0  0  0
 23 25  1  0  0  0  0
 25 24  2  6  0  0  0
 25 26  1  0  0  0  0
 26 27  1  0  0  0  0
 28 25  1  0  0  0  0
 28 29  1  0  0  0  0
 29 30  2  0  0  0  0
 29 36  1  0  0  0  0
 30 32  1  0  0  0  0
 31 30  1  0  0  0  0
 32 34  2  0  0  0  0
 32 33  1  0  0  0  0
 34 35  1  0  0  0  0
 36 34  1  0  0  0  0
M  END
>  <minimizedAffinity>
-4.89285517

$$$$

 OpenBabel03252505003D

 36 38  0  0  1  0  0  0  0  0999 V2000
   38.1320   29.5420   37.9820 N   0  0  0  0  0  0  0  0  0  0  0  0
   39.4380   30.0510   37.7950 C   0  0  0  0  0  0  0  0  0  0  0  0
   39.2740   31.4860   38.1230 C   0  0  0  0  0  0  0  0  0  0  0  0
   37.8320   31.7230   38.5460 C   0  0  0  0  0  0  0  0  0  0  0  0
   37.3760   30.2980   38.8950 C   0  0  2  0  0  0  0  0  0  0  0  0
   40.4100   29.7410   37.5150 H   0  0  0  0  0  0  0  0  0  0  0  0
   39.9970   32.2880   38.1220 H   0  0  0  0  0  0  0  0  0  0  0  0
   37.8770   32.3520   39.4350 H   0  0  0  0  0  0  0  0  0  0  0  0
   37.2400   32.1440   37.7120 H   0  0  0  0  0  0  0  0  0  0  0  0
   36.3050   30.1400   38.8040 H   0  0  0  0  0  0  0  0  0  0  0  0
   37.7230   28.4400   37.2720 C   0  0  0  0  0  0  0  0  0  0  0  0
   38.4940   28.0010   36.5980 H   0  0  0  0  0  0  0  0  0  0  0  0
   37.5600   27.6090   38.0050 H   0  0  0  0  0  0  0  0  0  0  0  0
   35.2870   29.5460   34.5910 C   0  0  0  0  0  0  0  0  0  0  0  0
   36.5060   29.4730   35.3330 C   0  0  0  0  0  0  0  0  0  0  0  0
   36.5480   28.6340   36.4460 C   0  0  0  0  0  0  0  0  0  0  0  0
   35.4270   27.9450   36.7480 N   0  0  0  0  0  0  0  0  0  0  0  0
   34.2590   28.0280   36.0200 C   0  0  0  0  0  0  0  0  0  0  0  0
   34.2030   28.8300   34.9480 N   0  0  0  0  0  0  0  0  0  0  0  0
   35.3760   30.2220   33.7590 H   0  0  0  0  0  0  0  0  0  0  0  0
   37.3790   30.0270   35.0760 H   0  0  0  0  0  0  0  0  0  0  0  0
   33.4080   27.4420   36.3300 H   0  0  0  0  0  0  0  0  0  0  0  0
   37.9010   30.0270   40.1670 O   0  0  0  0  0  0  0  0  0  0  0  0
   35.9900   28.4100   41.0580 O   0  0  0  0  0  0  0  0  0  0  0  0
   36.7610   29.6790   41.3190 P   0  0  2  0  0  0  0  0  0  0  0  0
   35.6370   30.9510   41.3510 O   0  0  0  0  0  0  0  0  0  0  0  0
   35.8420   31.6280   42.0240 H   0  0  0  0  0  0  0  0  0  0  0  0
   37.4650   29.6460   42.8830 O   0  0  0  0  0  0  0  0  0  0  0  0
   38.4400   28.6560   43.0990 C   0  0  0  0  0  0  0  0  0  0  0  0
   38.2240   27.4240   43.6630 C   0  0  0  0  0  0  0  0  0  0  0  0
   37.2930   26.9920   44.0350 H   0  0  0  0  0  0  0  0  0  0  0  0
   39.4510   26.7870   43.6780 C   0  0  0  0  0  0  0  0  0  0  0  0
   39.7030   25.8000   44.0410 H   0  0  0  0  0  0  0  0  0  0  0  0
   40.3560   27.6670   43.1210 C   0  0  0  0  0  0  0  0  0  0  0  0
   41.4100   27.4570   42.9930 H   0  0  0  0  0  0  0  0  0  0  0  0
   39.7080   28.7790   42.7870 O   0  0  0  0  0  0  0  0  0  0  0  0
  1  5  1  0  0  0  0
  2  1  1  0  0  0  0
  2  3  2  0  0  0  0
  3  4  1  0  0  0  0
  4  5  1  0  0  0  0
  4  8  1  0  0  0  0
  5 10  1  6  0  0  0
  5 23  1  0  0  0  0
  6  2  1  0  0  0  0
  7  3  1  0  0  0  0
  9  4  1  0  0  0  0
 11  1  1  0  0  0  0
 11 13  1  0  0  0  0
 12 11  1  0  0  0  0
 14 19  2  0  0  0  0
 14 15  1  0  0  0  0
 15 16  2  0  0  0  0
 16 17  1  0  0  0  0
 16 11  1  0  0  0  0
 18 22  1  0  0  0  0
 18 17  2  0  0  0  0
 19 18  1  0  0  0  0
 20 14  1  0  0  0  0
 21 15  1  0  0  0  0
 23 25  1  0  0  0  0
 25 24  2  6  0  0  0
 25 26  1  0  0  0  0
 25 28  1  0  0  0  0
 26 27  1  0  0  0  0
 28 29  1  0  0  0  0
 29 30  2  0  0  0  0
 30 32  1  0  0  0  0
 30 31  1  0  0  0  0
 32 33  1  0  0  0  0
 34 32  2  0  0  0  0
 35 34  1  0  0  0  0
 36 29  1  0  0  0  0
 36 34  1  0  0  0  0
M  END
>  <minimizedAffinity>
-4.83536148

$$$$

 OpenBabel03252505003D

 36 38  0  0  1  0  0  0  0  0999 V2000
   37.1700   30.1520   37.2860 N   0  0  0  0  0  0  0  0  0  0  0  0
   36.2970   29.6220   36.3080 C   0  0  0  0  0  0  0  0  0  0  0  0
   36.4370   28.1620   36.5080 C   0  0  0  0  0  0  0  0  0  0  0  0
   37.3870   27.9230   37.6710 C   0  0  0  0  0  0  0  0  0  0  0  0
   37.3560   29.2860   38.3780 C   0  0  2  0  0  0  0  0  0  0  0  0
   35.6330   29.9310   35.5450 H   0  0  0  0  0  0  0  0  0  0  0  0
   35.9660   27.3400   35.9900 H   0  0  0  0  0  0  0  0  0  0  0  0
   36.9250   27.1500   38.2850 H   0  0  0  0  0  0  0  0  0  0  0  0
   38.4030   27.6790   37.3090 H   0  0  0  0  0  0  0  0  0  0  0  0
   38.2500   29.5070   38.9570 H   0  0  0  0  0  0  0  0  0  0  0  0
   37.7570   31.3770   37.0840 C   0  0  0  0  0  0  0  0  0  0  0  0
   38.6220   31.3740   36.3820 H   0  0  0  0  0  0  0  0  0  0  0  0
   37.0200   32.0170   36.5350 H   0  0  0  0  0  0  0  0  0  0  0  0
   39.8830   32.7560   39.8990 C   0  0  0  0  0  0  0  0  0  0  0  0
   39.5520   32.0270   38.7150 C   0  0  0  0  0  0  0  0  0  0  0  0
   38.2280   32.0450   38.2800 C   0  0  0  0  0  0  0  0  0  0  0  0
   37.3430   32.7540   39.0130 N   0  0  0  0  0  0  0  0  0  0  0  0
   37.6790   33.4520   40.1540 C   0  0  0  0  0  0  0  0  0  0  0  0
   38.9480   33.4440   40.5840 N   0  0  0  0  0  0  0  0  0  0  0  0
   40.9290   32.6670   40.1330 H   0  0  0  0  0  0  0  0  0  0  0  0
   40.2690   31.4740   38.1520 H   0  0  0  0  0  0  0  0  0  0  0  0
   36.9090   33.9930   40.6810 H   0  0  0  0  0  0  0  0  0  0  0  0
   36.1620   29.3110   39.1140 O   0  0  0  0  0  0  0  0  0  0  0  0
   35.7670   28.3940   41.5760 O   0  0  0  0  0  0  0  0  0  0  0  0
   36.3680   29.5010   40.7480 P   0  0  2  0  0  0  0  0  0  0  0  0
   35.6070   30.9460   41.2130 O   0  0  0  0  0  0  0  0  0  0  0  0
   36.2140   31.7100   41.2340 H   0  0  0  0  0  0  0  0  0  0  0  0
   38.0270   29.7090   41.1330 O   0  0  0  0  0  0  0  0  0  0  0  0
   38.6410   28.6400   41.8100 C   0  0  0  0  0  0  0  0  0  0  0  0
   38.8290   28.5490   43.1660 C   0  0  0  0  0  0  0  0  0  0  0  0
   38.5490   29.2580   43.9480 H   0  0  0  0  0  0  0  0  0  0  0  0
   39.4660   27.3430   43.3860 C   0  0  0  0  0  0  0  0  0  0  0  0
   39.7870   26.9010   44.3200 H   0  0  0  0  0  0  0  0  0  0  0  0
   39.6350   26.7570   42.1480 C   0  0  0  0  0  0  0  0  0  0  0  0
   40.1090   25.7960   41.9880 H   0  0  0  0  0  0  0  0  0  0  0  0
   39.1260   27.5700   41.2280 O   0  0  0  0  0  0  0  0  0  0  0  0
  1  5  1  0  0  0  0
  2  3  2  0  0  0  0
  2  1  1  0  0  0  0
  3  4  1  0  0  0  0
  4  8  1  0  0  0  0
  4  5  1  0  0  0  0
  5 10  1  1  0  0  0
  5 23  1  0  0  0  0
  6  2  1  0  0  0  0
  7  3  1  0  0  0  0
  9  4  1  0  0  0  0
 11  1  1  0  0  0  0
 11 16  1  0  0  0  0
 12 11  1  0  0  0  0
 13 11  1  0  0  0  0
 14 20  1  0  0  0  0
 14 19  1  0  0  0  0
 15 14  2  0  0  0  0
 16 15  1  0  0  0  0
 16 17  2  0  0  0  0
 17 18  1  0  0  0  0
 18 19  2  0  0  0  0
 18 22  1  0  0  0  0
 21 15  1  0  0  0  0
 23 25  1  0  0  0  0
 25 28  1  0  0  0  0
 25 26  1  0  0  0  0
 25 24  2  1  0  0  0
 26 27  1  0  0  0  0
 28 29  1  0  0  0  0
 29 30  2  0  0  0  0
 30 32  1  0  0  0  0
 30 31  1  0  0  0  0
 32 33  1  0  0  0  0
 34 32  2  0  0  0  0
 35 34  1  0  0  0  0
 36 29  1  0  0  0  0
 36 34  1  0  0  0  0
M  END
>  <minimizedAffinity>
-4.76815987

$$$$

 OpenBabel03252505003D

 36 38  0  0  1  0  0  0  0  0999 V2000
   38.3080   29.0030   38.1080 N   0  0  0  0  0  0  0  0  0  0  0  0
   39.4370   29.7960   37.8010 C   0  0  0  0  0  0  0  0  0  0  0  0
   38.8760   31.1660   37.7970 C   0  0  0  0  0  0  0  0  0  0  0  0
   37.4020   31.0860   38.1640 C   0  0  0  0  0  0  0  0  0  0  0  0
   37.3270   29.7040   38.8310 C   0  0  2  0  0  0  0  0  0  0  0  0
   40.4710   29.7100   37.5940 H   0  0  0  0  0  0  0  0  0  0  0  0
   39.3570   32.1150   37.6090 H   0  0  0  0  0  0  0  0  0  0  0  0
   37.2260   31.8820   38.8860 H   0  0  0  0  0  0  0  0  0  0  0  0
   36.7670   31.1340   37.2600 H   0  0  0  0  0  0  0  0  0  0  0  0
   36.3430   29.2420   38.7840 H   0  0  0  0  0  0  0  0  0  0  0  0
   38.2490   27.7020   37.6700 C   0  0  0  0  0  0  0  0  0  0  0  0
   37.3720   27.4610   37.0270 H   0  0  0  0  0  0  0  0  0  0  0  0
   39.1010   27.5480   36.9590 H   0  0  0  0  0  0  0  0  0  0  0  0
   37.2870   25.0170   40.1610 C   0  0  0  0  0  0  0  0  0  0  0  0
   37.1260   26.0080   39.1440 C   0  0  0  0  0  0  0  0  0  0  0  0
   38.2590   26.6950   38.7110 C   0  0  0  0  0  0  0  0  0  0  0  0
   39.4380   26.3740   39.2860 N   0  0  0  0  0  0  0  0  0  0  0  0
   39.5750   25.4140   40.2660 C   0  0  0  0  0  0  0  0  0  0  0  0
   38.4950   24.7460   40.6930 N   0  0  0  0  0  0  0  0  0  0  0  0
   36.3470   24.5580   40.4110 H   0  0  0  0  0  0  0  0  0  0  0  0
   36.1840   26.2450   38.7040 H   0  0  0  0  0  0  0  0  0  0  0  0
   40.5550   25.2190   40.6730 H   0  0  0  0  0  0  0  0  0  0  0  0
   37.8330   29.8740   40.1270 O   0  0  0  0  0  0  0  0  0  0  0  0
   35.8570   28.4320   41.1640 O   0  0  0  0  0  0  0  0  0  0  0  0
   36.7150   29.6600   41.3330 P   0  0  2  0  0  0  0  0  0  0  0  0
   35.6750   31.0030   41.3340 O   0  0  0  0  0  0  0  0  0  0  0  0
   35.9470   31.6980   41.9630 H   0  0  0  0  0  0  0  0  0  0  0  0
   37.4710   29.6610   42.8730 O   0  0  0  0  0  0  0  0  0  0  0  0
   38.4260   28.6520   43.0900 C   0  0  0  0  0  0  0  0  0  0  0  0
   38.1880   27.4300   43.6680 C   0  0  0  0  0  0  0  0  0  0  0  0
   37.2500   27.0230   44.0520 H   0  0  0  0  0  0  0  0  0  0  0  0
   39.4000   26.7670   43.6800 C   0  0  0  0  0  0  0  0  0  0  0  0
   39.6330   25.7780   44.0500 H   0  0  0  0  0  0  0  0  0  0  0  0
   40.3200   27.6210   43.1070 C   0  0  0  0  0  0  0  0  0  0  0  0
   41.3680   27.3860   42.9730 H   0  0  0  0  0  0  0  0  0  0  0  0
   39.6930   28.7440   42.7670 O   0  0  0  0  0  0  0  0  0  0  0  0
  1  5  1  0  0  0  0
  2  1  1  0  0  0  0
  3  2  2  0  0  0  0
  3  4  1  0  0  0  0
  4  5  1  0  0  0  0
  4  8  1  0  0  0  0
  5 10  1  6  0  0  0
  5 23  1  0  0  0  0
  6  2  1  0  0  0  0
  7  3  1  0  0  0  0
  9  4  1  0  0  0  0
 11  1  1  0  0  0  0
 11 16  1  0  0  0  0
 12 11  1  0  0  0  0
 13 11  1  0  0  0  0
 14 20  1  0  0  0  0
 14 19  1  0  0  0  0
 15 14  2  0  0  0  0
 16 15  1  0  0  0  0
 16 17  2  0  0  0  0
 17 18  1  0  0  0  0
 18 22  1  0  0  0  0
 18 19  2  0  0  0  0
 21 15  1  0  0  0  0
 23 25  1  0  0  0  0
 25 24  2  6  0  0  0
 25 26  1  0  0  0  0
 25 28  1  0  0  0  0
 26 27  1  0  0  0  0
 28 29  1  0  0  0  0
 29 30  2  0  0  0  0
 30 32  1  0  0  0  0
 30 31  1  0  0  0  0
 32 33  1  0  0  0  0
 34 32  2  0  0  0  0
 35 34  1  0  0  0  0
 36 29  1  0  0  0  0
 36 34  1  0  0  0  0
M  END
>  <minimizedAffinity>
-4.71825695

$$$$
