
 OpenBabel03252503343D

 21 22  0  0  0  0  0  0  0  0999 V2000
   46.3360   33.9740   40.8750 C   0  0  0  0  0  0  0  0  0  0  0  0
   45.3150   33.2870   41.1390 O   0  0  0  0  0  0  0  0  0  0  0  0
   46.7880   34.8240   41.9200 N   0  0  0  0  0  0  0  0  0  0  0  0
   47.6530   35.4120   41.7520 H   0  0  0  0  0  0  0  0  0  0  0  0
   44.5200   35.8760   44.6920 C   0  0  0  0  0  0  0  0  0  0  0  0
   45.1580   35.8810   43.4380 C   0  0  0  0  0  0  0  0  0  0  0  0
   46.0990   34.8880   43.1650 C   0  0  0  0  0  0  0  0  0  0  0  0
   46.3670   33.9520   44.1180 N   0  0  0  0  0  0  0  0  0  0  0  0
   45.7220   33.9840   45.3290 C   0  0  0  0  0  0  0  0  0  0  0  0
   44.8200   34.9330   45.5960 N   0  0  0  0  0  0  0  0  0  0  0  0
   43.8090   36.6940   44.7930 H   0  0  0  0  0  0  0  0  0  0  0  0
   44.9500   36.6220   42.6740 H   0  0  0  0  0  0  0  0  0  0  0  0
   45.9610   33.2190   46.0690 H   0  0  0  0  0  0  0  0  0  0  0  0
   47.0010   33.8950   39.5780 C   0  0  0  0  0  0  0  0  0  0  0  0
   46.5270   33.1260   38.5370 C   0  0  0  0  0  0  0  0  0  0  0  0
   45.6710   32.4800   38.4270 H   0  0  0  0  0  0  0  0  0  0  0  0
   47.4420   33.3360   37.5080 C   0  0  0  0  0  0  0  0  0  0  0  0
   47.4980   32.9470   36.4880 H   0  0  0  0  0  0  0  0  0  0  0  0
   48.4160   34.2200   37.9860 C   0  0  0  0  0  0  0  0  0  0  0  0
   49.3100   34.6490   37.5140 H   0  0  0  0  0  0  0  0  0  0  0  0
   48.0840   34.5100   39.2340 O   0  0  0  0  0  0  0  0  0  0  0  0
  1  2  2  0  0  0  0
  1  3  1  0  0  0  0
  3  7  1  0  0  0  0
  4  3  1  0  0  0  0
  5 11  1  0  0  0  0
  5 10  1  0  0  0  0
  6  5  2  0  0  0  0
  7  6  1  0  0  0  0
  7  8  2  0  0  0  0
  8  9  1  0  0  0  0
  9 10  2  0  0  0  0
  9 13  1  0  0  0  0
 12  6  1  0  0  0  0
 14  1  1  0  0  0  0
 15 14  2  0  0  0  0
 16 15  1  0  0  0  0
 17 19  2  0  0  0  0
 17 15  1  0  0  0  0
 18 17  1  0  0  0  0
 19 21  1  0  0  0  0
 20 19  1  0  0  0  0
 21 14  1  0  0  0  0
M  END
>  <minimizedAffinity>
-4.18070602

>  <minimizedRMSD>
0.767830908

$$$$
