REMARK  Name = 
REMARK  5 active torsions:
REMARK  status: ('A' for Active; 'I' for Inactive)
REMARK    1  A    between atoms: C_2  and  C_7
REMARK    2  A    between atoms: C_7  and  O_8
REMARK    3  A    between atoms: O_8  and  C_9
REMARK    4  A    between atoms: C_10  and  C_11
REMARK    5  A    between atoms: C_11  and  C_21
REMARK                            x       y       z     vdW  Elec       q    Type
REMARK                         _______ _______ _______ _____ _____    ______ ____
ROOT
ATOM      1  O   UNL     1      42.738  35.657  41.684  0.00  0.00    +0.000 OA
ENDROOT
BRANCH   1   2
ATOM      2  C   UNL     1      44.094  35.442  41.777  0.00  0.00    +0.000 C 
ATOM      3  H   UNL     1      44.623  36.456  41.731  0.00  0.00    +0.000 HD
ATOM      4  H   UNL     1      44.446  34.792  40.963  0.00  0.00    +0.000 HD
BRANCH   2   6
ATOM      5  C   UNL     1      44.310  35.749  44.137  0.00  0.00    +0.000 A 
ATOM      6  C   UNL     1      44.549  34.877  43.062  0.00  0.00    +0.000 A 
ATOM      7  C   UNL     1      45.159  33.687  43.354  0.00  0.00    +0.000 A 
ATOM      8  N   UNL     1      45.476  33.450  44.623  0.00  0.00    +0.000 NA
ATOM      9  C   UNL     1      45.250  34.275  45.639  0.00  0.00    +0.000 A 
ATOM     10  N   UNL     1      44.636  35.501  45.434  0.00  0.00    +0.000 NA
ATOM     11  H   UNL     1      43.830  36.736  44.060  0.00  0.00    +0.000 HD
ATOM     12  H   UNL     1      45.307  33.073  42.477  0.00  0.00    +0.000 HD
ATOM     13  H   UNL     1      45.578  33.901  46.579  0.00  0.00    +0.000 HD
ENDBRANCH   2   6
ENDBRANCH   1   2
BRANCH   1  14
ATOM     14  C   UNL     1      41.832  34.986  40.880  0.00  0.00    +0.000 C 
ATOM     15  C   UNL     1      40.603  35.547  40.772  0.00  0.00    +0.000 C 
BRANCH  15  16
ATOM     16  C   UNL     1      39.474  35.026  39.905  0.00  0.00    +0.000 C 
ATOM     17  H   UNL     1      39.175  35.814  39.193  0.00  0.00    +0.000 HD
ATOM     18  H   UNL     1      38.639  34.821  40.573  0.00  0.00    +0.000 HD
BRANCH  16  19
ATOM     19  C   UNL     1      39.980  33.807  39.215  0.00  0.00    +0.000 A 
ATOM     20  C   UNL     1      40.697  32.755  39.737  0.00  0.00    +0.000 A 
ATOM     21  H   UNL     1      41.014  32.653  40.768  0.00  0.00    +0.000 HD
ATOM     22  C   UNL     1      40.907  31.893  38.663  0.00  0.00    +0.000 A 
ATOM     23  H   UNL     1      41.450  30.943  38.721  0.00  0.00    +0.000 HD
ATOM     24  C   UNL     1      40.302  32.475  37.550  0.00  0.00    +0.000 A 
ATOM     25  H   UNL     1      40.294  32.042  36.558  0.00  0.00    +0.000 HD
ATOM     26  O   UNL     1      39.756  33.623  37.919  0.00  0.00    +0.000 OA
ENDBRANCH  16  19
ENDBRANCH  15  16
ENDBRANCH   1  14
TORSDOF 5
