
 OpenBabel03242515113D

 35 37  0  0  0  0  0  0  0  0999 V2000
   36.6560   30.5890   39.3140 C   0  0  0  0  0  0  0  0  0  0  0  0
   36.4230   30.4360   37.9800 C   0  0  0  0  0  0  0  0  0  0  0  0
   35.6070   29.4650   37.4410 C   0  0  0  0  0  0  0  0  0  0  0  0
   34.9800   28.5870   38.2820 C   0  0  0  0  0  0  0  0  0  0  0  0
   35.1850   28.7060   39.6230 C   0  0  0  0  0  0  0  0  0  0  0  0
   36.0180   29.7000   40.1500 C   0  0  0  0  0  0  0  0  0  0  0  0
   36.9080   31.1190   37.2880 H   0  0  0  0  0  0  0  0  0  0  0  0
   35.4700   29.4030   36.3750 H   0  0  0  0  0  0  0  0  0  0  0  0
   34.3390   27.8240   37.8630 H   0  0  0  0  0  0  0  0  0  0  0  0
   34.6720   27.9930   40.2550 H   0  0  0  0  0  0  0  0  0  0  0  0
   38.0400   33.9120   39.9850 C   0  0  0  0  0  0  0  0  0  0  0  0
   39.1290   33.6580   40.8040 C   0  0  0  0  0  0  0  0  0  0  0  0
   39.3870   32.3280   41.1290 C   0  0  0  0  0  0  0  0  0  0  0  0
   38.5950   31.3270   40.6540 N   0  0  0  0  0  0  0  0  0  0  0  0
   37.5290   31.6330   39.8440 C   0  0  0  0  0  0  0  0  0  0  0  0
   37.2850   32.9090   39.5360 N   0  0  0  0  0  0  0  0  0  0  0  0
   37.7840   34.9230   39.6940 H   0  0  0  0  0  0  0  0  0  0  0  0
   39.7410   34.4650   41.1690 H   0  0  0  0  0  0  0  0  0  0  0  0
   40.2180   32.0620   41.7620 H   0  0  0  0  0  0  0  0  0  0  0  0
   36.1270   29.6900   41.5580 N   0  0  0  0  0  0  0  0  0  0  0  0
   35.5030   30.4360   41.9850 H   0  0  0  0  0  0  0  0  0  0  0  0
   37.0410   28.7330   42.6220 S   0  0  0  0  0  0  0  0  0  0  0  0
   38.1000   29.6210   43.2880 O   0  0  0  0  0  0  0  0  0  0  0  0
   38.3780   29.5030   44.2250 H   0  0  0  0  0  0  0  0  0  0  0  0
   36.2670   28.0350   43.6790 O   0  0  0  0  0  0  0  0  0  0  0  0
   35.2820   27.9020   43.6010 H   0  0  0  0  0  0  0  0  0  0  0  0
   37.9310   27.6660   41.6440 O   0  0  0  0  0  0  0  0  0  0  0  0
   37.5220   26.3850   41.4290 C   0  0  0  0  0  0  0  0  0  0  0  0
   37.4000   25.9140   40.1280 C   0  0  0  0  0  0  0  0  0  0  0  0
   37.5830   26.4100   39.1830 H   0  0  0  0  0  0  0  0  0  0  0  0
   36.9690   24.5870   40.2340 C   0  0  0  0  0  0  0  0  0  0  0  0
   36.7470   23.8480   39.4800 H   0  0  0  0  0  0  0  0  0  0  0  0
   36.8510   24.3220   41.5720 C   0  0  0  0  0  0  0  0  0  0  0  0
   36.5350   23.3810   42.0510 H   0  0  0  0  0  0  0  0  0  0  0  0
   37.1850   25.4020   42.2220 O   0  0  0  0  0  0  0  0  0  0  0  0
  1 15  1  0  0  0  0
  1  6  1  0  0  0  0
  2  1  2  0  0  0  0
  3  2  1  0  0  0  0
  3  4  2  0  0  0  0
  4  5  1  0  0  0  0
  5  6  2  0  0  0  0
  5 10  1  0  0  0  0
  6 20  1  0  0  0  0
  7  2  1  0  0  0  0
  8  3  1  0  0  0  0
  9  4  1  0  0  0  0
 11 12  1  0  0  0  0
 12 13  2  0  0  0  0
 12 18  1  0  0  0  0
 13 19  1  0  0  0  0
 14 13  1  0  0  0  0
 15 14  2  0  0  0  0
 16 15  1  0  0  0  0
 16 11  2  0  0  0  0
 17 11  1  0  0  0  0
 20 21  1  0  0  0  0
 20 22  1  0  0  0  0
 22 23  1  0  0  0  0
 22 25  1  0  0  0  0
 23 24  1  0  0  0  0
 26 25  1  0  0  0  0
 27 22  1  0  0  0  0
 28 27  1  0  0  0  0
 28 35  1  0  0  0  0
 29 31  1  0  0  0  0
 29 28  2  0  0  0  0
 30 29  1  0  0  0  0
 31 33  2  0  0  0  0
 32 31  1  0  0  0  0
 33 34  1  0  0  0  0
 33 35  1  0  0  0  0
M  END
>  <minimizedAffinity>
-5.76205397

$$$$

 OpenBabel03242515113D

 35 37  0  0  0  0  0  0  0  0999 V2000
   39.7830   29.0860   42.6300 C   0  0  0  0  0  0  0  0  0  0  0  0
   39.9650   27.8480   43.1700 C   0  0  0  0  0  0  0  0  0  0  0  0
   38.9510   27.0660   43.6790 C   0  0  0  0  0  0  0  0  0  0  0  0
   37.6690   27.5450   43.6500 C   0  0  0  0  0  0  0  0  0  0  0  0
   37.4440   28.7780   43.1170 C   0  0  0  0  0  0  0  0  0  0  0  0
   38.4890   29.5560   42.6060 C   0  0  0  0  0  0  0  0  0  0  0  0
   40.9720   27.4420   43.2070 H   0  0  0  0  0  0  0  0  0  0  0  0
   39.1680   26.0960   44.0920 H   0  0  0  0  0  0  0  0  0  0  0  0
   36.8710   26.9340   44.0480 H   0  0  0  0  0  0  0  0  0  0  0  0
   36.4170   29.1220   43.1130 H   0  0  0  0  0  0  0  0  0  0  0  0
   42.6790   30.0450   40.6060 C   0  0  0  0  0  0  0  0  0  0  0  0
   42.9880   31.3200   41.0520 C   0  0  0  0  0  0  0  0  0  0  0  0
   42.1900   31.8540   42.0610 C   0  0  0  0  0  0  0  0  0  0  0  0
   41.1500   31.1420   42.5790 N   0  0  0  0  0  0  0  0  0  0  0  0
   40.8870   29.8820   42.1010 C   0  0  0  0  0  0  0  0  0  0  0  0
   41.6560   29.3740   41.1340 N   0  0  0  0  0  0  0  0  0  0  0  0
   43.2600   29.5710   39.8240 H   0  0  0  0  0  0  0  0  0  0  0  0
   43.8140   31.8660   40.6280 H   0  0  0  0  0  0  0  0  0  0  0  0
   42.3750   32.8400   42.4540 H   0  0  0  0  0  0  0  0  0  0  0  0
   38.0910   30.8090   42.0900 N   0  0  0  0  0  0  0  0  0  0  0  0
   38.6340   31.5930   42.5590 H   0  0  0  0  0  0  0  0  0  0  0  0
   36.9510   31.2440   40.9100 S   0  0  0  0  0  0  0  0  0  0  0  0
   35.5480   30.9410   41.4530 O   0  0  0  0  0  0  0  0  0  0  0  0
   34.7700   31.5120   41.2590 H   0  0  0  0  0  0  0  0  0  0  0  0
   36.9980   32.6600   40.4670 O   0  0  0  0  0  0  0  0  0  0  0  0
   37.8020   33.2280   40.6250 H   0  0  0  0  0  0  0  0  0  0  0  0
   37.1610   30.1460   39.6300 O   0  0  0  0  0  0  0  0  0  0  0  0
   36.0990   29.6400   38.9440 C   0  0  0  0  0  0  0  0  0  0  0  0
   36.1230   29.6310   37.5540 C   0  0  0  0  0  0  0  0  0  0  0  0
   36.8820   29.9770   36.8650 H   0  0  0  0  0  0  0  0  0  0  0  0
   34.9130   29.0580   37.1490 C   0  0  0  0  0  0  0  0  0  0  0  0
   34.5140   28.8570   36.1670 H   0  0  0  0  0  0  0  0  0  0  0  0
   34.2240   28.7520   38.2930 C   0  0  0  0  0  0  0  0  0  0  0  0
   33.2290   28.2870   38.3810 H   0  0  0  0  0  0  0  0  0  0  0  0
   34.9600   29.1110   39.3070 O   0  0  0  0  0  0  0  0  0  0  0  0
  1  2  1  0  0  0  0
  2  7  1  0  0  0  0
  2  3  2  0  0  0  0
  3  8  1  0  0  0  0
  4  3  1  0  0  0  0
  4  9  1  0  0  0  0
  5  4  2  0  0  0  0
  6  1  2  0  0  0  0
  6  5  1  0  0  0  0
 10  5  1  0  0  0  0
 11 12  2  0  0  0  0
 11 16  1  0  0  0  0
 12 13  1  0  0  0  0
 13 19  1  0  0  0  0
 13 14  2  0  0  0  0
 15 14  1  0  0  0  0
 15  1  1  0  0  0  0
 16 15  2  0  0  0  0
 17 11  1  0  0  0  0
 18 12  1  0  0  0  0
 20 21  1  0  0  0  0
 20  6  1  0  0  0  0
 22 23  1  0  0  0  0
 22 20  1  0  0  0  0
 24 23  1  0  0  0  0
 25 26  1  0  0  0  0
 25 22  1  0  0  0  0
 27 22  1  0  0  0  0
 28 35  1  0  0  0  0
 28 27  1  0  0  0  0
 29 28  2  0  0  0  0
 30 29  1  0  0  0  0
 31 29  1  0  0  0  0
 31 33  2  0  0  0  0
 32 31  1  0  0  0  0
 33 34  1  0  0  0  0
 33 35  1  0  0  0  0
M  END
>  <minimizedAffinity>
-5.56246758

$$$$

 OpenBabel03242515113D

 35 37  0  0  0  0  0  0  0  0999 V2000
   37.2840   26.5590   39.5170 C   0  0  0  0  0  0  0  0  0  0  0  0
   37.8150   25.3110   39.6480 C   0  0  0  0  0  0  0  0  0  0  0  0
   37.9160   24.6310   40.8430 C   0  0  0  0  0  0  0  0  0  0  0  0
   37.4590   25.2300   41.9840 C   0  0  0  0  0  0  0  0  0  0  0  0
   36.9200   26.4780   41.8970 C   0  0  0  0  0  0  0  0  0  0  0  0
   36.8270   27.1500   40.6730 C   0  0  0  0  0  0  0  0  0  0  0  0
   38.1870   24.8100   38.7580 H   0  0  0  0  0  0  0  0  0  0  0  0
   38.3490   23.6450   40.8710 H   0  0  0  0  0  0  0  0  0  0  0  0
   37.5360   24.7000   42.9240 H   0  0  0  0  0  0  0  0  0  0  0  0
   36.5690   26.9180   42.8230 H   0  0  0  0  0  0  0  0  0  0  0  0
   38.2290   27.8140   36.2110 C   0  0  0  0  0  0  0  0  0  0  0  0
   37.1080   28.5120   35.7880 C   0  0  0  0  0  0  0  0  0  0  0  0
   36.0160   28.5480   36.6520 C   0  0  0  0  0  0  0  0  0  0  0  0
   36.0600   27.9200   37.8610 N   0  0  0  0  0  0  0  0  0  0  0  0
   37.1960   27.2440   38.2310 C   0  0  0  0  0  0  0  0  0  0  0  0
   38.2400   27.2120   37.4000 N   0  0  0  0  0  0  0  0  0  0  0  0
   39.1120   27.7470   35.5880 H   0  0  0  0  0  0  0  0  0  0  0  0
   37.0940   29.0000   34.8290 H   0  0  0  0  0  0  0  0  0  0  0  0
   35.1130   29.0720   36.3850 H   0  0  0  0  0  0  0  0  0  0  0  0
   36.2440   28.4350   40.7520 N   0  0  0  0  0  0  0  0  0  0  0  0
   35.3700   28.4830   40.1500 H   0  0  0  0  0  0  0  0  0  0  0  0
   36.6880   29.8360   41.6020 S   0  0  0  0  0  0  0  0  0  0  0  0
   35.5670   30.8730   41.4520 O   0  0  0  0  0  0  0  0  0  0  0  0
   35.3110   31.4860   42.1770 H   0  0  0  0  0  0  0  0  0  0  0  0
   36.9720   29.6440   43.0470 O   0  0  0  0  0  0  0  0  0  0  0  0
   37.1690   28.7410   43.4220 H   0  0  0  0  0  0  0  0  0  0  0  0
   38.0020   30.5010   40.7550 O   0  0  0  0  0  0  0  0  0  0  0  0
   38.0860   31.8370   40.5040 C   0  0  0  0  0  0  0  0  0  0  0  0
   39.2350   32.5310   40.8640 C   0  0  0  0  0  0  0  0  0  0  0  0
   40.1410   32.1840   41.3430 H   0  0  0  0  0  0  0  0  0  0  0  0
   39.0210   33.8590   40.4810 C   0  0  0  0  0  0  0  0  0  0  0  0
   39.6460   34.7350   40.5690 H   0  0  0  0  0  0  0  0  0  0  0  0
   37.7740   33.9070   39.9160 C   0  0  0  0  0  0  0  0  0  0  0  0
   37.2540   34.7820   39.4950 H   0  0  0  0  0  0  0  0  0  0  0  0
   37.2750   32.7030   39.9550 O   0  0  0  0  0  0  0  0  0  0  0  0
  1  2  2  0  0  0  0
  1  6  1  0  0  0  0
  2  3  1  0  0  0  0
  3  8  1  0  0  0  0
  3  4  2  0  0  0  0
  4  9  1  0  0  0  0
  5  4  1  0  0  0  0
  5 10  1  0  0  0  0
  6 20  1  0  0  0  0
  6  5  2  0  0  0  0
  7  2  1  0  0  0  0
 11 16  1  0  0  0  0
 12 11  2  0  0  0  0
 12 13  1  0  0  0  0
 13 14  2  0  0  0  0
 14 15  1  0  0  0  0
 15  1  1  0  0  0  0
 16 15  2  0  0  0  0
 17 11  1  0  0  0  0
 18 12  1  0  0  0  0
 19 13  1  0  0  0  0
 20 22  1  0  0  0  0
 21 20  1  0  0  0  0
 22 25  1  0  0  0  0
 23 22  1  0  0  0  0
 23 24  1  0  0  0  0
 25 26  1  0  0  0  0
 27 22  1  0  0  0  0
 28 27  1  0  0  0  0
 28 29  2  0  0  0  0
 29 30  1  0  0  0  0
 31 32  1  0  0  0  0
 31 29  1  0  0  0  0
 33 35  1  0  0  0  0
 33 31  2  0  0  0  0
 34 33  1  0  0  0  0
 35 28  1  0  0  0  0
M  END
>  <minimizedAffinity>
-5.40921164

$$$$

 OpenBabel03242515113D

 35 37  0  0  0  0  0  0  0  0999 V2000
   37.7960   25.8590   41.6810 C   0  0  0  0  0  0  0  0  0  0  0  0
   38.8740   25.2090   42.2020 C   0  0  0  0  0  0  0  0  0  0  0  0
   39.6930   25.7270   43.1830 C   0  0  0  0  0  0  0  0  0  0  0  0
   39.4230   26.9730   43.6790 C   0  0  0  0  0  0  0  0  0  0  0  0
   38.3530   27.6560   43.1860 C   0  0  0  0  0  0  0  0  0  0  0  0
   37.5350   27.1120   42.1890 C   0  0  0  0  0  0  0  0  0  0  0  0
   39.1140   24.2180   41.8270 H   0  0  0  0  0  0  0  0  0  0  0  0
   40.5300   25.1560   43.5480 H   0  0  0  0  0  0  0  0  0  0  0  0
   40.0630   27.3820   44.4490 H   0  0  0  0  0  0  0  0  0  0  0  0
   38.1730   28.6390   43.6040 H   0  0  0  0  0  0  0  0  0  0  0  0
   35.7040   23.4420   39.8980 C   0  0  0  0  0  0  0  0  0  0  0  0
   35.3590   24.1000   38.7280 C   0  0  0  0  0  0  0  0  0  0  0  0
   35.8530   25.3910   38.5530 C   0  0  0  0  0  0  0  0  0  0  0  0
   36.6410   25.9720   39.5010 N   0  0  0  0  0  0  0  0  0  0  0  0
   36.9540   25.2740   40.6420 C   0  0  0  0  0  0  0  0  0  0  0  0
   36.4780   24.0370   40.8050 N   0  0  0  0  0  0  0  0  0  0  0  0
   35.3540   22.4360   40.0960 H   0  0  0  0  0  0  0  0  0  0  0  0
   34.7340   23.6240   37.9920 H   0  0  0  0  0  0  0  0  0  0  0  0
   35.6230   25.9600   37.6670 H   0  0  0  0  0  0  0  0  0  0  0  0
   36.4680   27.9450   41.7850 N   0  0  0  0  0  0  0  0  0  0  0  0
   35.5460   27.5780   42.1630 H   0  0  0  0  0  0  0  0  0  0  0  0
   36.4220   29.3590   40.8450 S   0  0  0  0  0  0  0  0  0  0  0  0
   36.8280   29.0030   39.4090 O   0  0  0  0  0  0  0  0  0  0  0  0
   36.4210   29.4310   38.6220 H   0  0  0  0  0  0  0  0  0  0  0  0
   35.1160   30.0630   40.8140 O   0  0  0  0  0  0  0  0  0  0  0  0
   34.4160   29.8930   41.5040 H   0  0  0  0  0  0  0  0  0  0  0  0
   37.6870   30.3410   41.4160 O   0  0  0  0  0  0  0  0  0  0  0  0
   37.9210   31.5770   40.8950 C   0  0  0  0  0  0  0  0  0  0  0  0
   39.1850   32.1400   41.0090 C   0  0  0  0  0  0  0  0  0  0  0  0
   40.0860   31.7540   41.4690 H   0  0  0  0  0  0  0  0  0  0  0  0
   39.1110   33.3910   40.3860 C   0  0  0  0  0  0  0  0  0  0  0  0
   39.8540   34.1600   40.2440 H   0  0  0  0  0  0  0  0  0  0  0  0
   37.8260   33.5240   39.9310 C   0  0  0  0  0  0  0  0  0  0  0  0
   37.3840   34.3740   39.3880 H   0  0  0  0  0  0  0  0  0  0  0  0
   37.1770   32.4400   40.2540 O   0  0  0  0  0  0  0  0  0  0  0  0
  1  6  2  0  0  0  0
  1  2  1  0  0  0  0
  2  3  2  0  0  0  0
  3  8  1  0  0  0  0
  3  4  1  0  0  0  0
  4  9  1  0  0  0  0
  5 10  1  0  0  0  0
  5  4  2  0  0  0  0
  6  5  1  0  0  0  0
  7  2  1  0  0  0  0
 11 17  1  0  0  0  0
 11 16  1  0  0  0  0
 12 11  2  0  0  0  0
 13 12  1  0  0  0  0
 13 14  2  0  0  0  0
 14 15  1  0  0  0  0
 15 16  2  0  0  0  0
 15  1  1  0  0  0  0
 18 12  1  0  0  0  0
 19 13  1  0  0  0  0
 20 21  1  0  0  0  0
 20  6  1  0  0  0  0
 22 27  1  0  0  0  0
 22 20  1  0  0  0  0
 23 22  1  0  0  0  0
 24 23  1  0  0  0  0
 25 22  1  0  0  0  0
 25 26  1  0  0  0  0
 28 29  2  0  0  0  0
 28 27  1  0  0  0  0
 29 30  1  0  0  0  0
 31 29  1  0  0  0  0
 32 31  1  0  0  0  0
 33 35  1  0  0  0  0
 33 31  2  0  0  0  0
 34 33  1  0  0  0  0
 35 28  1  0  0  0  0
M  END
>  <minimizedAffinity>
-5.40497398

$$$$

 OpenBabel03242515113D

 35 37  0  0  0  0  0  0  0  0999 V2000
   36.1230   26.9570   38.8510 C   0  0  0  0  0  0  0  0  0  0  0  0
   36.0720   26.7190   37.5100 C   0  0  0  0  0  0  0  0  0  0  0  0
   35.6110   27.6250   36.5790 C   0  0  0  0  0  0  0  0  0  0  0  0
   35.1730   28.8480   37.0070 C   0  0  0  0  0  0  0  0  0  0  0  0
   35.2090   29.1260   38.3400 C   0  0  0  0  0  0  0  0  0  0  0  0
   35.6800   28.1910   39.2690 C   0  0  0  0  0  0  0  0  0  0  0  0
   36.4130   25.7560   37.1400 H   0  0  0  0  0  0  0  0  0  0  0  0
   35.5980   27.3690   35.5330 H   0  0  0  0  0  0  0  0  0  0  0  0
   34.8110   29.5620   36.2800 H   0  0  0  0  0  0  0  0  0  0  0  0
   34.8530   30.1040   38.6390 H   0  0  0  0  0  0  0  0  0  0  0  0
   37.9790   25.4960   41.6490 C   0  0  0  0  0  0  0  0  0  0  0  0
   37.6010   24.1630   41.6380 C   0  0  0  0  0  0  0  0  0  0  0  0
   36.6960   23.7640   40.6570 C   0  0  0  0  0  0  0  0  0  0  0  0
   36.2100   24.6580   39.7500 N   0  0  0  0  0  0  0  0  0  0  0  0
   36.6190   25.9680   39.8040 C   0  0  0  0  0  0  0  0  0  0  0  0
   37.4870   26.3450   40.7470 N   0  0  0  0  0  0  0  0  0  0  0  0
   38.6800   25.8720   42.3840 H   0  0  0  0  0  0  0  0  0  0  0  0
   37.9960   23.4740   42.3650 H   0  0  0  0  0  0  0  0  0  0  0  0
   36.3600   22.7430   40.5920 H   0  0  0  0  0  0  0  0  0  0  0  0
   35.6520   28.6310   40.6110 N   0  0  0  0  0  0  0  0  0  0  0  0
   34.9360   28.0780   41.1680 H   0  0  0  0  0  0  0  0  0  0  0  0
   36.5270   29.8310   41.4340 S   0  0  0  0  0  0  0  0  0  0  0  0
   35.7370   31.1450   41.3640 O   0  0  0  0  0  0  0  0  0  0  0  0
   35.7130   31.7890   42.1070 H   0  0  0  0  0  0  0  0  0  0  0  0
   36.8380   29.5350   42.8550 O   0  0  0  0  0  0  0  0  0  0  0  0
   36.7970   28.6050   43.2130 H   0  0  0  0  0  0  0  0  0  0  0  0
   37.9180   30.1180   40.5010 O   0  0  0  0  0  0  0  0  0  0  0  0
   38.4260   31.3720   40.3440 C   0  0  0  0  0  0  0  0  0  0  0  0
   39.2050   31.6620   39.2310 C   0  0  0  0  0  0  0  0  0  0  0  0
   39.5080   31.0320   38.4040 H   0  0  0  0  0  0  0  0  0  0  0  0
   39.5710   33.0070   39.3520 C   0  0  0  0  0  0  0  0  0  0  0  0
   40.1690   33.6410   38.7170 H   0  0  0  0  0  0  0  0  0  0  0  0
   39.0050   33.4610   40.5140 C   0  0  0  0  0  0  0  0  0  0  0  0
   39.0680   34.4710   40.9480 H   0  0  0  0  0  0  0  0  0  0  0  0
   38.3500   32.4690   41.0500 O   0  0  0  0  0  0  0  0  0  0  0  0
  1  6  1  0  0  0  0
  1 15  1  0  0  0  0
  2  1  2  0  0  0  0
  3  4  2  0  0  0  0
  3  2  1  0  0  0  0
  4  5  1  0  0  0  0
  5 10  1  0  0  0  0
  5  6  2  0  0  0  0
  6 20  1  0  0  0  0
  7  2  1  0  0  0  0
  8  3  1  0  0  0  0
  9  4  1  0  0  0  0
 11 17  1  0  0  0  0
 12 11  1  0  0  0  0
 12 18  1  0  0  0  0
 13 12  2  0  0  0  0
 14 15  2  0  0  0  0
 14 13  1  0  0  0  0
 15 16  1  0  0  0  0
 16 11  2  0  0  0  0
 19 13  1  0  0  0  0
 20 21  1  0  0  0  0
 20 22  1  0  0  0  0
 22 25  1  0  0  0  0
 23 22  1  0  0  0  0
 23 24  1  0  0  0  0
 25 26  1  0  0  0  0
 27 22  1  0  0  0  0
 28 27  1  0  0  0  0
 28 35  1  0  0  0  0
 29 31  1  0  0  0  0
 29 28  2  0  0  0  0
 30 29  1  0  0  0  0
 31 33  2  0  0  0  0
 32 31  1  0  0  0  0
 33 34  1  0  0  0  0
 33 35  1  0  0  0  0
M  END
>  <minimizedAffinity>
-5.38797569

$$$$

 OpenBabel03242515113D

 35 37  0  0  0  0  0  0  0  0999 V2000
   37.2110   29.4310   39.6280 C   0  0  0  0  0  0  0  0  0  0  0  0
   37.0390   28.5350   38.6150 C   0  0  0  0  0  0  0  0  0  0  0  0
   36.9440   28.8770   37.2830 C   0  0  0  0  0  0  0  0  0  0  0  0
   37.0250   30.1970   36.9330 C   0  0  0  0  0  0  0  0  0  0  0  0
   37.1980   31.1250   37.9150 C   0  0  0  0  0  0  0  0  0  0  0  0
   37.2920   30.7550   39.2620 C   0  0  0  0  0  0  0  0  0  0  0  0
   36.9710   27.4790   38.8630 H   0  0  0  0  0  0  0  0  0  0  0  0
   36.8080   28.1140   36.5360 H   0  0  0  0  0  0  0  0  0  0  0  0
   36.9510   30.4690   35.8890 H   0  0  0  0  0  0  0  0  0  0  0  0
   37.2570   32.1590   37.5970 H   0  0  0  0  0  0  0  0  0  0  0  0
   38.3730   29.2670   43.0950 C   0  0  0  0  0  0  0  0  0  0  0  0
   37.5520   28.3130   43.6760 C   0  0  0  0  0  0  0  0  0  0  0  0
   36.5870   27.7220   42.8630 C   0  0  0  0  0  0  0  0  0  0  0  0
   36.4660   28.0750   41.5520 N   0  0  0  0  0  0  0  0  0  0  0  0
   37.3070   29.0250   41.0270 C   0  0  0  0  0  0  0  0  0  0  0  0
   38.2300   29.5890   41.8100 N   0  0  0  0  0  0  0  0  0  0  0  0
   39.1440   29.7640   43.6710 H   0  0  0  0  0  0  0  0  0  0  0  0
   37.6640   28.0500   44.7140 H   0  0  0  0  0  0  0  0  0  0  0  0
   35.9150   26.9740   43.2510 H   0  0  0  0  0  0  0  0  0  0  0  0
   37.4690   31.8350   40.1560 N   0  0  0  0  0  0  0  0  0  0  0  0
   36.6690   31.8740   40.8530 H   0  0  0  0  0  0  0  0  0  0  0  0
   38.6840   33.0130   40.2920 S   0  0  0  0  0  0  0  0  0  0  0  0
   38.4090   34.1170   39.2620 O   0  0  0  0  0  0  0  0  0  0  0  0
   38.5900   35.0670   39.4430 H   0  0  0  0  0  0  0  0  0  0  0  0
   38.8270   33.6330   41.6330 O   0  0  0  0  0  0  0  0  0  0  0  0
   38.4500   33.2000   42.4480 H   0  0  0  0  0  0  0  0  0  0  0  0
   40.1150   32.2720   39.7530 O   0  0  0  0  0  0  0  0  0  0  0  0
   41.0570   32.9640   39.0530 C   0  0  0  0  0  0  0  0  0  0  0  0
   42.1900   33.4320   39.7070 C   0  0  0  0  0  0  0  0  0  0  0  0
   42.4860   33.3450   40.7440 H   0  0  0  0  0  0  0  0  0  0  0  0
   42.9530   34.0910   38.7370 C   0  0  0  0  0  0  0  0  0  0  0  0
   43.9020   34.6010   38.8030 H   0  0  0  0  0  0  0  0  0  0  0  0
   42.2580   33.9920   37.5600 C   0  0  0  0  0  0  0  0  0  0  0  0
   42.5400   34.3880   36.5720 H   0  0  0  0  0  0  0  0  0  0  0  0
   41.1630   33.3270   37.8010 O   0  0  0  0  0  0  0  0  0  0  0  0
  1 15  1  0  0  0  0
  2  7  1  0  0  0  0
  2  1  2  0  0  0  0
  3  2  1  0  0  0  0
  4  3  2  0  0  0  0
  4  5  1  0  0  0  0
  5  6  2  0  0  0  0
  6  1  1  0  0  0  0
  6 20  1  0  0  0  0
  8  3  1  0  0  0  0
  9  4  1  0  0  0  0
 10  5  1  0  0  0  0
 11 17  1  0  0  0  0
 11 12  1  0  0  0  0
 12 18  1  0  0  0  0
 13 19  1  0  0  0  0
 13 12  2  0  0  0  0
 14 13  1  0  0  0  0
 15 14  2  0  0  0  0
 15 16  1  0  0  0  0
 16 11  2  0  0  0  0
 20 22  1  0  0  0  0
 20 21  1  0  0  0  0
 22 25  1  0  0  0  0
 23 24  1  0  0  0  0
 23 22  1  0  0  0  0
 25 26  1  0  0  0  0
 27 22  1  0  0  0  0
 28 29  2  0  0  0  0
 28 27  1  0  0  0  0
 29 30  1  0  0  0  0
 31 32  1  0  0  0  0
 31 29  1  0  0  0  0
 33 35  1  0  0  0  0
 33 31  2  0  0  0  0
 34 33  1  0  0  0  0
 35 28  1  0  0  0  0
M  END
>  <minimizedAffinity>
-5.35451555

$$$$

 OpenBabel03242515113D

 35 37  0  0  0  0  0  0  0  0999 V2000
   37.3110   28.6910   40.8320 C   0  0  0  0  0  0  0  0  0  0  0  0
   36.7090   27.7070   41.5580 C   0  0  0  0  0  0  0  0  0  0  0  0
   36.7970   27.5900   42.9280 C   0  0  0  0  0  0  0  0  0  0  0  0
   37.5320   28.5100   43.6250 C   0  0  0  0  0  0  0  0  0  0  0  0
   38.1490   29.5100   42.9360 C   0  0  0  0  0  0  0  0  0  0  0  0
   38.0470   29.6110   41.5440 C   0  0  0  0  0  0  0  0  0  0  0  0
   36.1190   26.9620   41.0320 H   0  0  0  0  0  0  0  0  0  0  0  0
   36.2940   26.7850   43.4370 H   0  0  0  0  0  0  0  0  0  0  0  0
   37.6030   28.4220   44.7000 H   0  0  0  0  0  0  0  0  0  0  0  0
   38.7220   30.2180   43.5230 H   0  0  0  0  0  0  0  0  0  0  0  0
   36.3190   29.9040   37.5230 C   0  0  0  0  0  0  0  0  0  0  0  0
   36.9190   29.0110   36.6480 C   0  0  0  0  0  0  0  0  0  0  0  0
   37.6730   27.9810   37.2060 C   0  0  0  0  0  0  0  0  0  0  0  0
   37.8080   27.8670   38.5570 N   0  0  0  0  0  0  0  0  0  0  0  0
   37.1920   28.7790   39.3790 C   0  0  0  0  0  0  0  0  0  0  0  0
   36.4700   29.7640   38.8400 N   0  0  0  0  0  0  0  0  0  0  0  0
   35.7190   30.7280   37.1550 H   0  0  0  0  0  0  0  0  0  0  0  0
   36.8000   29.1210   35.5840 H   0  0  0  0  0  0  0  0  0  0  0  0
   38.1660   27.2530   36.5840 H   0  0  0  0  0  0  0  0  0  0  0  0
   38.7450   30.7020   40.9810 N   0  0  0  0  0  0  0  0  0  0  0  0
   39.7590   30.4410   40.8000 H   0  0  0  0  0  0  0  0  0  0  0  0
   38.2560   32.2750   40.5670 S   0  0  0  0  0  0  0  0  0  0  0  0
   36.7230   32.3340   40.6050 O   0  0  0  0  0  0  0  0  0  0  0  0
   36.2310   33.1290   40.9120 H   0  0  0  0  0  0  0  0  0  0  0  0
   38.7990   33.3590   41.4230 O   0  0  0  0  0  0  0  0  0  0  0  0
   39.6000   33.2150   41.9990 H   0  0  0  0  0  0  0  0  0  0  0  0
   38.6510   32.4700   38.9260 O   0  0  0  0  0  0  0  0  0  0  0  0
   39.6650   31.7690   38.3480 C   0  0  0  0  0  0  0  0  0  0  0  0
   40.6730   32.4490   37.6750 C   0  0  0  0  0  0  0  0  0  0  0  0
   40.8130   33.5100   37.5100 H   0  0  0  0  0  0  0  0  0  0  0  0
   41.5530   31.4700   37.2010 C   0  0  0  0  0  0  0  0  0  0  0  0
   42.4650   31.5490   36.6300 H   0  0  0  0  0  0  0  0  0  0  0  0
   41.0460   30.2630   37.6030 C   0  0  0  0  0  0  0  0  0  0  0  0
   41.4610   29.2590   37.4200 H   0  0  0  0  0  0  0  0  0  0  0  0
   39.9480   30.4950   38.2660 O   0  0  0  0  0  0  0  0  0  0  0  0
  1  6  2  0  0  0  0
  1  2  1  0  0  0  0
  2  3  2  0  0  0  0
  3  8  1  0  0  0  0
  3  4  1  0  0  0  0
  4  9  1  0  0  0  0
  5 10  1  0  0  0  0
  5  4  2  0  0  0  0
  6  5  1  0  0  0  0
  7  2  1  0  0  0  0
 11 16  1  0  0  0  0
 12 13  1  0  0  0  0
 12 11  2  0  0  0  0
 13 14  2  0  0  0  0
 14 15  1  0  0  0  0
 15  1  1  0  0  0  0
 16 15  2  0  0  0  0
 17 11  1  0  0  0  0
 18 12  1  0  0  0  0
 19 13  1  0  0  0  0
 20  6  1  0  0  0  0
 21 20  1  0  0  0  0
 22 23  1  0  0  0  0
 22 20  1  0  0  0  0
 22 25  1  0  0  0  0
 23 24  1  0  0  0  0
 25 26  1  0  0  0  0
 27 22  1  0  0  0  0
 28 27  1  0  0  0  0
 29 28  2  0  0  0  0
 30 29  1  0  0  0  0
 31 33  2  0  0  0  0
 31 29  1  0  0  0  0
 32 31  1  0  0  0  0
 33 35  1  0  0  0  0
 34 33  1  0  0  0  0
 35 28  1  0  0  0  0
M  END
>  <minimizedAffinity>
-5.331985

$$$$

 OpenBabel03242515113D

 35 37  0  0  0  0  0  0  0  0999 V2000
   36.5780   26.2650   39.6380 C   0  0  0  0  0  0  0  0  0  0  0  0
   36.2550   24.9420   39.6570 C   0  0  0  0  0  0  0  0  0  0  0  0
   36.4970   24.0990   40.7200 C   0  0  0  0  0  0  0  0  0  0  0  0
   37.1000   24.6030   41.8390 C   0  0  0  0  0  0  0  0  0  0  0  0
   37.4390   25.9220   41.8620 C   0  0  0  0  0  0  0  0  0  0  0  0
   37.1840   26.7610   40.7710 C   0  0  0  0  0  0  0  0  0  0  0  0
   35.7750   24.5130   38.7810 H   0  0  0  0  0  0  0  0  0  0  0  0
   36.2140   23.0610   40.6650 H   0  0  0  0  0  0  0  0  0  0  0  0
   37.2910   23.9450   42.6760 H   0  0  0  0  0  0  0  0  0  0  0  0
   37.9150   26.2830   42.7650 H   0  0  0  0  0  0  0  0  0  0  0  0
   35.1510   28.9630   37.6160 C   0  0  0  0  0  0  0  0  0  0  0  0
   35.7330   28.7880   36.3700 C   0  0  0  0  0  0  0  0  0  0  0  0
   36.6280   27.7290   36.2270 C   0  0  0  0  0  0  0  0  0  0  0  0
   36.9100   26.9070   37.2760 N   0  0  0  0  0  0  0  0  0  0  0  0
   36.3040   27.1240   38.4900 C   0  0  0  0  0  0  0  0  0  0  0  0
   35.4470   28.1400   38.6210 N   0  0  0  0  0  0  0  0  0  0  0  0
   34.4470   29.7660   37.7950 H   0  0  0  0  0  0  0  0  0  0  0  0
   35.4970   29.4500   35.5550 H   0  0  0  0  0  0  0  0  0  0  0  0
   37.1160   27.5370   35.2860 H   0  0  0  0  0  0  0  0  0  0  0  0
   37.5960   28.1000   40.9500 N   0  0  0  0  0  0  0  0  0  0  0  0
   38.5490   28.2580   40.5090 H   0  0  0  0  0  0  0  0  0  0  0  0
   36.8570   29.4250   41.7130 S   0  0  0  0  0  0  0  0  0  0  0  0
   35.3890   29.4840   41.2730 O   0  0  0  0  0  0  0  0  0  0  0  0
   34.6640   29.7600   41.8790 H   0  0  0  0  0  0  0  0  0  0  0  0
   36.9130   29.4220   43.1960 O   0  0  0  0  0  0  0  0  0  0  0  0
   37.5690   28.8560   43.6910 H   0  0  0  0  0  0  0  0  0  0  0  0
   37.5640   30.8110   41.0300 O   0  0  0  0  0  0  0  0  0  0  0  0
   37.8410   30.8880   39.6990 C   0  0  0  0  0  0  0  0  0  0  0  0
   37.2520   31.8870   38.9330 C   0  0  0  0  0  0  0  0  0  0  0  0
   36.5630   32.6720   39.2160 H   0  0  0  0  0  0  0  0  0  0  0  0
   37.7250   31.7060   37.6290 C   0  0  0  0  0  0  0  0  0  0  0  0
   37.5280   32.2510   36.7180 H   0  0  0  0  0  0  0  0  0  0  0  0
   38.5640   30.6240   37.6650 C   0  0  0  0  0  0  0  0  0  0  0  0
   39.1280   30.1760   36.8320 H   0  0  0  0  0  0  0  0  0  0  0  0
   38.5950   30.1880   38.8930 O   0  0  0  0  0  0  0  0  0  0  0  0
  1  2  2  0  0  0  0
  1  6  1  0  0  0  0
  2  3  1  0  0  0  0
  3  4  2  0  0  0  0
  4  5  1  0  0  0  0
  4  9  1  0  0  0  0
  5 10  1  0  0  0  0
  6 20  1  0  0  0  0
  6  5  2  0  0  0  0
  7  2  1  0  0  0  0
  8  3  1  0  0  0  0
 11 17  1  0  0  0  0
 11 16  1  0  0  0  0
 12 11  2  0  0  0  0
 13 12  1  0  0  0  0
 13 14  2  0  0  0  0
 14 15  1  0  0  0  0
 15 16  2  0  0  0  0
 15  1  1  0  0  0  0
 18 12  1  0  0  0  0
 19 13  1  0  0  0  0
 20 22  1  0  0  0  0
 21 20  1  0  0  0  0
 22 25  1  0  0  0  0
 23 22  1  0  0  0  0
 23 24  1  0  0  0  0
 25 26  1  0  0  0  0
 27 22  1  0  0  0  0
 28 27  1  0  0  0  0
 29 30  1  0  0  0  0
 29 28  2  0  0  0  0
 31 33  2  0  0  0  0
 31 29  1  0  0  0  0
 32 31  1  0  0  0  0
 33 35  1  0  0  0  0
 34 33  1  0  0  0  0
 35 28  1  0  0  0  0
M  END
>  <minimizedAffinity>
-5.26704693

$$$$

 OpenBabel03242515113D

 35 37  0  0  0  0  0  0  0  0999 V2000
   37.3640   29.0470   37.3070 C   0  0  0  0  0  0  0  0  0  0  0  0
   38.1750   28.1130   36.7330 C   0  0  0  0  0  0  0  0  0  0  0  0
   39.5510   28.1290   36.8090 C   0  0  0  0  0  0  0  0  0  0  0  0
   40.1630   29.1390   37.5010 C   0  0  0  0  0  0  0  0  0  0  0  0
   39.3890   30.0910   38.0900 C   0  0  0  0  0  0  0  0  0  0  0  0
   37.9920   30.0560   38.0000 C   0  0  0  0  0  0  0  0  0  0  0  0
   37.7170   27.3000   36.1770 H   0  0  0  0  0  0  0  0  0  0  0  0
   40.1300   27.3580   36.3300 H   0  0  0  0  0  0  0  0  0  0  0  0
   41.2430   29.1540   37.5630 H   0  0  0  0  0  0  0  0  0  0  0  0
   39.9100   30.8730   38.6280 H   0  0  0  0  0  0  0  0  0  0  0  0
   34.0150   29.0030   35.8280 C   0  0  0  0  0  0  0  0  0  0  0  0
   33.1710   28.8960   36.9220 C   0  0  0  0  0  0  0  0  0  0  0  0
   33.7630   28.8380   38.1820 C   0  0  0  0  0  0  0  0  0  0  0  0
   35.1180   28.8850   38.3200 N   0  0  0  0  0  0  0  0  0  0  0  0
   35.9090   28.9920   37.2020 C   0  0  0  0  0  0  0  0  0  0  0  0
   35.3360   29.0480   35.9970 N   0  0  0  0  0  0  0  0  0  0  0  0
   33.6200   29.0540   34.8210 H   0  0  0  0  0  0  0  0  0  0  0  0
   32.1030   28.8590   36.7910 H   0  0  0  0  0  0  0  0  0  0  0  0
   33.1650   28.7540   39.0740 H   0  0  0  0  0  0  0  0  0  0  0  0
   37.3340   31.1150   38.6640 N   0  0  0  0  0  0  0  0  0  0  0  0
   37.0920   31.8900   37.9790 H   0  0  0  0  0  0  0  0  0  0  0  0
   36.8910   31.3400   40.2880 S   0  0  0  0  0  0  0  0  0  0  0  0
   37.0060   32.8330   40.6220 O   0  0  0  0  0  0  0  0  0  0  0  0
   36.3790   33.2910   41.2270 H   0  0  0  0  0  0  0  0  0  0  0  0
   35.5300   30.8720   40.6490 O   0  0  0  0  0  0  0  0  0  0  0  0
   35.0320   30.2260   40.0750 H   0  0  0  0  0  0  0  0  0  0  0  0
   38.1100   30.6000   41.2120 O   0  0  0  0  0  0  0  0  0  0  0  0
   37.8530   29.5130   41.9910 C   0  0  0  0  0  0  0  0  0  0  0  0
   38.8180   29.0680   42.8860 C   0  0  0  0  0  0  0  0  0  0  0  0
   39.8090   29.4500   43.0950 H   0  0  0  0  0  0  0  0  0  0  0  0
   38.2670   27.9540   43.5290 C   0  0  0  0  0  0  0  0  0  0  0  0
   38.6650   27.3040   44.2920 H   0  0  0  0  0  0  0  0  0  0  0  0
   37.0150   27.7800   43.0020 C   0  0  0  0  0  0  0  0  0  0  0  0
   36.2740   27.0060   43.2580 H   0  0  0  0  0  0  0  0  0  0  0  0
   36.8260   28.7140   42.1130 O   0  0  0  0  0  0  0  0  0  0  0  0
  1  6  1  0  0  0  0
  2  3  1  0  0  0  0
  2  1  2  0  0  0  0
  3  4  2  0  0  0  0
  4  9  1  0  0  0  0
  4  5  1  0  0  0  0
  5 10  1  0  0  0  0
  6  5  2  0  0  0  0
  6 20  1  0  0  0  0
  7  2  1  0  0  0  0
  8  3  1  0  0  0  0
 11 16  2  0  0  0  0
 11 12  1  0  0  0  0
 12 13  2  0  0  0  0
 13 14  1  0  0  0  0
 13 19  1  0  0  0  0
 15  1  1  0  0  0  0
 15 14  2  0  0  0  0
 16 15  1  0  0  0  0
 17 11  1  0  0  0  0
 18 12  1  0  0  0  0
 20 22  1  0  0  0  0
 21 20  1  0  0  0  0
 22 23  1  0  0  0  0
 22 25  1  0  0  0  0
 22 27  1  0  0  0  0
 23 24  1  0  0  0  0
 26 25  1  0  0  0  0
 27 28  1  0  0  0  0
 28 35  1  0  0  0  0
 28 29  2  0  0  0  0
 29 30  1  0  0  0  0
 29 31  1  0  0  0  0
 31 32  1  0  0  0  0
 33 34  1  0  0  0  0
 33 31  2  0  0  0  0
 35 33  1  0  0  0  0
M  END
>  <minimizedAffinity>
-5.25991964

$$$$
