
 OpenBabel03252505403D

 27 29  0  0  1  0  0  0  0  0999 V2000
   45.0440   33.7080   43.7230 C   0  0  1  0  0  0  0  0  0  0  0  0
   45.2630   35.1910   44.0500 C   0  0  0  0  0  0  0  0  0  0  0  0
   45.6910   34.5880   42.7540 C   0  0  1  0  0  0  0  0  0  0  0  0
   43.9870   33.4010   43.5630 H   0  0  0  0  0  0  0  0  0  0  0  0
   45.9830   35.4080   44.8530 H   0  0  0  0  0  0  0  0  0  0  0  0
   44.3240   35.7770   44.1070 H   0  0  0  0  0  0  0  0  0  0  0  0
   45.0550   34.9070   41.8740 H   0  0  0  0  0  0  0  0  0  0  0  0
   45.7740   32.7600   44.5880 C   0  0  0  0  0  0  0  0  0  0  0  0
   46.3150   31.6150   43.9490 C   0  0  0  0  0  0  0  0  0  0  0  0
   47.0220   30.7170   44.7310 C   0  0  0  0  0  0  0  0  0  0  0  0
   47.1550   30.9900   46.0670 N   0  0  0  0  0  0  0  0  0  0  0  0
   46.6250   32.0880   46.6290 C   0  0  0  0  0  0  0  0  0  0  0  0
   45.9360   32.9670   45.8810 N   0  0  0  0  0  0  0  0  0  0  0  0
   46.2280   31.3530   42.9020 H   0  0  0  0  0  0  0  0  0  0  0  0
   47.4530   29.8320   44.2980 H   0  0  0  0  0  0  0  0  0  0  0  0
   46.8870   32.1940   48.0990 C   0  0  0  0  0  0  0  0  0  0  0  0
   45.8630   32.8260   48.7570 F   0  0  0  0  0  0  0  0  0  0  0  0
   48.0700   32.9030   48.3230 F   0  0  0  0  0  0  0  0  0  0  0  0
   47.1090   30.9160   48.6080 F   0  0  0  0  0  0  0  0  0  0  0  0
   47.1630   34.6980   42.5630 C   0  0  0  0  0  0  0  0  0  0  0  0
   47.6570   35.2050   41.3790 C   0  0  0  0  0  0  0  0  0  0  0  0
   47.1570   35.5740   40.4700 H   0  0  0  0  0  0  0  0  0  0  0  0
   49.0440   35.2050   41.4500 C   0  0  0  0  0  0  0  0  0  0  0  0
   49.8020   35.5190   40.7400 H   0  0  0  0  0  0  0  0  0  0  0  0
   49.3160   34.6940   42.6870 C   0  0  0  0  0  0  0  0  0  0  0  0
   50.3110   34.5490   43.0870 H   0  0  0  0  0  0  0  0  0  0  0  0
   48.2120   34.4160   43.2930 O   0  0  0  0  0  0  0  0  0  0  0  0
  1  4  1  6  0  0  0
  1  2  1  0  0  0  0
  1  8  1  0  0  0  0
  2  6  1  0  0  0  0
  2  5  1  0  0  0  0
  3  7  1  6  0  0  0
  3  1  1  0  0  0  0
  3  2  1  0  0  0  0
  8 13  1  0  0  0  0
  9  8  2  0  0  0  0
  9 10  1  0  0  0  0
 10 11  2  0  0  0  0
 11 12  1  0  0  0  0
 12 16  1  0  0  0  0
 13 12  2  0  0  0  0
 14  9  1  0  0  0  0
 15 10  1  0  0  0  0
 16 18  1  0  0  0  0
 16 19  1  0  0  0  0
 16 17  1  0  0  0  0
 20  3  1  0  0  0  0
 20 27  1  0  0  0  0
 21 23  1  0  0  0  0
 21 20  2  0  0  0  0
 22 21  1  0  0  0  0
 23 25  2  0  0  0  0
 24 23  1  0  0  0  0
 25 26  1  0  0  0  0
 25 27  1  0  0  0  0
M  END
>  <minimizedAffinity>
-4.92594337

>  <minimizedRMSD>
1.57745731

$$$$
