
 OpenBabel03252503343D

 21 22  0  0  0  0  0  0  0  0999 V2000
   46.2230   34.0160   40.8250 C   0  0  0  0  0  0  0  0  0  0  0  0
   45.1210   33.4510   41.0590 O   0  0  0  0  0  0  0  0  0  0  0  0
   46.7510   34.7910   41.8920 N   0  0  0  0  0  0  0  0  0  0  0  0
   47.6820   35.2750   41.7490 H   0  0  0  0  0  0  0  0  0  0  0  0
   44.5080   36.0250   44.6090 C   0  0  0  0  0  0  0  0  0  0  0  0
   45.1620   35.9690   43.3640 C   0  0  0  0  0  0  0  0  0  0  0  0
   46.0490   34.9190   43.1250 C   0  0  0  0  0  0  0  0  0  0  0  0
   46.2500   33.9880   44.0990 N   0  0  0  0  0  0  0  0  0  0  0  0
   45.5910   34.0810   45.2990 C   0  0  0  0  0  0  0  0  0  0  0  0
   44.7400   35.0840   45.5350 N   0  0  0  0  0  0  0  0  0  0  0  0
   43.8430   36.8840   44.6840 H   0  0  0  0  0  0  0  0  0  0  0  0
   45.0080   36.7060   42.5840 H   0  0  0  0  0  0  0  0  0  0  0  0
   45.7750   33.3180   46.0570 H   0  0  0  0  0  0  0  0  0  0  0  0
   46.8990   33.8770   39.5390 C   0  0  0  0  0  0  0  0  0  0  0  0
   48.1410   34.4140   39.2810 C   0  0  0  0  0  0  0  0  0  0  0  0
   48.8340   34.9900   39.8740 H   0  0  0  0  0  0  0  0  0  0  0  0
   48.4080   34.0520   37.9630 C   0  0  0  0  0  0  0  0  0  0  0  0
   49.2640   34.2430   37.3110 H   0  0  0  0  0  0  0  0  0  0  0  0
   47.3100   33.3180   37.4980 C   0  0  0  0  0  0  0  0  0  0  0  0
   47.1020   32.8460   36.5290 H   0  0  0  0  0  0  0  0  0  0  0  0
   46.4480   33.2550   38.5010 O   0  0  0  0  0  0  0  0  0  0  0  0
  1  2  2  0  0  0  0
  1  3  1  0  0  0  0
  3  7  1  0  0  0  0
  4  3  1  0  0  0  0
  5 11  1  0  0  0  0
  5 10  1  0  0  0  0
  6  5  2  0  0  0  0
  7  6  1  0  0  0  0
  7  8  2  0  0  0  0
  8  9  1  0  0  0  0
  9 10  2  0  0  0  0
  9 13  1  0  0  0  0
 12  6  1  0  0  0  0
 14  1  1  0  0  0  0
 15 14  2  0  0  0  0
 15 16  1  0  0  0  0
 17 15  1  0  0  0  0
 18 17  1  0  0  0  0
 19 17  2  0  0  0  0
 19 21  1  0  0  0  0
 20 19  1  0  0  0  0
 21 14  1  0  0  0  0
M  END
>  <minimizedAffinity>
-4.26572657

>  <minimizedRMSD>
0.29079023

$$$$
