
 OpenBabel03252509083D

 40 43  0  0  0  0  0  0  0  0999 V2000
   47.4300   31.6520   39.1540 C   0  0  0  0  0  0  0  0  0  0  0  0
   47.0720   32.9640   39.0960 C   0  0  0  0  0  0  0  0  0  0  0  0
   47.7800   33.8430   38.2900 C   0  0  0  0  0  0  0  0  0  0  0  0
   48.8440   33.3850   37.5500 C   0  0  0  0  0  0  0  0  0  0  0  0
   49.2430   32.0500   37.5790 C   0  0  0  0  0  0  0  0  0  0  0  0
   48.5110   31.1850   38.4010 C   0  0  0  0  0  0  0  0  0  0  0  0
   47.5290   34.8900   38.2160 H   0  0  0  0  0  0  0  0  0  0  0  0
   49.4650   33.9680   36.8920 H   0  0  0  0  0  0  0  0  0  0  0  0
   50.0540   31.6270   37.0330 H   0  0  0  0  0  0  0  0  0  0  0  0
   48.7910   30.1340   38.4520 H   0  0  0  0  0  0  0  0  0  0  0  0
   45.3500   35.6240   43.1730 Cl  0  0  0  0  0  0  0  0  0  0  0  0
   45.1500   34.7530   41.6750 C   0  0  0  0  0  0  0  0  0  0  0  0
   46.2180   34.2400   41.0130 C   0  0  0  0  0  0  0  0  0  0  0  0
   45.9550   33.5480   39.8400 C   0  0  0  0  0  0  0  0  0  0  0  0
   44.6750   33.3870   39.3670 C   0  0  0  0  0  0  0  0  0  0  0  0
   43.6200   33.9070   40.0410 C   0  0  0  0  0  0  0  0  0  0  0  0
   43.8690   34.5930   41.2040 C   0  0  0  0  0  0  0  0  0  0  0  0
   44.5330   32.8400   38.4500 H   0  0  0  0  0  0  0  0  0  0  0  0
   42.6230   33.7640   39.6430 H   0  0  0  0  0  0  0  0  0  0  0  0
   43.0060   35.0000   41.7250 H   0  0  0  0  0  0  0  0  0  0  0  0
   49.5570   35.7500   41.9140 C   0  0  0  0  0  0  0  0  0  0  0  0
   48.2740   35.5820   41.3780 C   0  0  0  0  0  0  0  0  0  0  0  0
   47.5430   34.4250   41.5610 C   0  0  0  0  0  0  0  0  0  0  0  0
   48.1680   33.4700   42.2980 N   0  0  0  0  0  0  0  0  0  0  0  0
   49.3940   33.6230   42.8130 C   0  0  0  0  0  0  0  0  0  0  0  0
   50.0790   34.7540   42.6200 N   0  0  0  0  0  0  0  0  0  0  0  0
   50.0540   36.6930   41.7180 H   0  0  0  0  0  0  0  0  0  0  0  0
   47.8230   36.3750   40.8010 H   0  0  0  0  0  0  0  0  0  0  0  0
   49.7400   32.7630   43.3730 H   0  0  0  0  0  0  0  0  0  0  0  0
   46.5670   30.5510   40.0910 S   0  0  0  0  0  0  0  0  0  0  0  0
   45.3140   30.0610   39.3980 O   0  0  0  0  0  0  0  0  0  0  0  0
   47.4810   29.2690   40.0930 O   0  0  0  0  0  0  0  0  0  0  0  0
   46.1540   30.7880   41.7450 C   0  0  0  0  0  0  0  0  0  0  0  0
   46.9970   30.2730   42.7640 C   0  0  0  0  0  0  0  0  0  0  0  0
   47.9430   29.7020   42.6580 H   0  0  0  0  0  0  0  0  0  0  0  0
   46.5480   30.5350   44.0370 C   0  0  0  0  0  0  0  0  0  0  0  0
   46.9600   30.2780   44.9800 H   0  0  0  0  0  0  0  0  0  0  0  0
   45.4110   31.2230   43.7620 C   0  0  0  0  0  0  0  0  0  0  0  0
   44.6800   31.6590   44.4620 H   0  0  0  0  0  0  0  0  0  0  0  0
   45.2420   31.3340   42.5100 O   0  0  0  0  0  0  0  0  0  0  0  0
  1 30  1  0  0  0  0
  2  1  1  0  0  0  0
  2 14  1  0  0  0  0
  3  2  2  0  0  0  0
  4  5  2  0  0  0  0
  4  3  1  0  0  0  0
  5  6  1  0  0  0  0
  6 10  1  0  0  0  0
  6  1  2  0  0  0  0
  7  3  1  0  0  0  0
  8  4  1  0  0  0  0
  9  5  1  0  0  0  0
 12 11  1  0  0  0  0
 13 23  1  0  0  0  0
 13 12  2  0  0  0  0
 14 13  1  0  0  0  0
 15 14  2  0  0  0  0
 15 16  1  0  0  0  0
 16 17  2  0  0  0  0
 17 12  1  0  0  0  0
 17 20  1  0  0  0  0
 18 15  1  0  0  0  0
 19 16  1  0  0  0  0
 21 26  1  0  0  0  0
 22 23  1  0  0  0  0
 22 21  2  0  0  0  0
 23 24  2  0  0  0  0
 24 25  1  0  0  0  0
 25 29  1  0  0  0  0
 26 25  2  0  0  0  0
 27 21  1  0  0  0  0
 28 22  1  0  0  0  0
 30 32  2  0  0  0  0
 30 33  1  0  0  0  0
 31 30  2  0  0  0  0
 33 40  1  0  0  0  0
 33 34  2  0  0  0  0
 34 36  1  0  0  0  0
 35 34  1  0  0  0  0
 36 37  1  0  0  0  0
 38 36  2  0  0  0  0
 38 39  1  0  0  0  0
 40 38  1  0  0  0  0
M  END
>  <minimizedAffinity>
-4.66846895

>  <minimizedRMSD>
0.824081063

$$$$
