REMARK  Name = 
REMARK  5 active torsions:
REMARK  status: ('A' for Active; 'I' for Inactive)
REMARK    1  A    between atoms: C_2  and  C_12
REMARK    2  A    between atoms: C_3  and  C_7
REMARK    3  A    between atoms: C_12  and  C_14
REMARK    4  A    between atoms: N_16  and  C_20
REMARK    5  A    between atoms: C_20  and  C_31
REMARK                            x       y       z     vdW  Elec       q    Type
REMARK                         _______ _______ _______ _____ _____    ______ ____
ROOT
ATOM      1  C   UNL     1      45.775  34.143  40.730  0.00  0.00    +0.000 A 
ATOM      2  C   UNL     1      44.423  34.130  40.542  0.00  0.00    +0.000 A 
ATOM      3  N   UNL     1      44.233  33.431  39.399  0.00  0.00    +0.000 N 
ATOM      4  C   UNL     1      45.406  33.043  38.921  0.00  0.00    +0.000 A 
ATOM      5  N   UNL     1      46.372  33.484  39.747  0.00  0.00    +0.000 NA
ATOM      6  N   UNL     1      45.730  32.292  37.759  0.00  0.00    +0.000 N 
ATOM      7  H   UNL     1      43.663  34.568  41.148  0.00  0.00    +0.000 HD
ATOM      8  H   UNL     1      46.625  32.398  37.242  0.00  0.00    +0.000 HD
ATOM      9  H   UNL     1      45.083  31.582  37.351  0.00  0.00    +0.000 HD
ENDROOT
BRANCH   3  10
ATOM     10  C   UNL     1      42.966  33.121  38.745  0.00  0.00    +0.000 C 
ATOM     11  H   UNL     1      43.106  33.037  37.654  0.00  0.00    +0.000 HD
ATOM     12  H   UNL     1      42.289  33.974  38.957  0.00  0.00    +0.000 HD
BRANCH  10  13
ATOM     13  C   UNL     1      42.398  31.846  39.221  0.00  0.00    +0.000 A 
ATOM     14  C   UNL     1      41.098  31.417  39.339  0.00  0.00    +0.000 A 
ATOM     15  H   UNL     1      40.242  31.995  39.081  0.00  0.00    +0.000 HD
ATOM     16  C   UNL     1      41.134  30.142  39.838  0.00  0.00    +0.000 A 
ATOM     17  H   UNL     1      40.237  29.559  40.031  0.00  0.00    +0.000 HD
ATOM     18  C   UNL     1      42.464  29.826  40.011  0.00  0.00    +0.000 A 
ATOM     19  H   UNL     1      42.816  28.885  40.392  0.00  0.00    +0.000 HD
ATOM     20  O   UNL     1      43.185  30.855  39.637  0.00  0.00    +0.000 OA
ENDBRANCH  10  13
ENDBRANCH   3  10
BRANCH   1  21
ATOM     21  C   UNL     1      46.512  34.799  41.871  0.00  0.00    +0.000 C 
ATOM     22  O   UNL     1      47.689  35.239  41.805  0.00  0.00    +0.000 OA
BRANCH  21  24
ATOM     23  C   UNL     1      45.214  36.159  43.453  0.00  0.00    +0.000 A 
ATOM     24  C   UNL     1      45.865  34.952  43.136  0.00  0.00    +0.000 A 
ATOM     25  C   UNL     1      45.809  33.992  44.131  0.00  0.00    +0.000 A 
ATOM     26  N   UNL     1      45.195  34.174  45.301  0.00  0.00    +0.000 NA
ATOM     27  C   UNL     1      44.578  35.372  45.551  0.00  0.00    +0.000 A 
ATOM     28  N   UNL     1      44.597  36.340  44.629  0.00  0.00    +0.000 NA
ATOM     29  H   UNL     1      45.191  36.988  42.750  0.00  0.00    +0.000 HD
ATOM     30  H   UNL     1      44.071  35.542  46.497  0.00  0.00    +0.000 HD
BRANCH  25  31
ATOM     31  C   UNL     1      46.450  32.739  43.886  0.00  0.00    +0.000 A 
ATOM     32  C   UNL     1      47.713  32.256  43.983  0.00  0.00    +0.000 A 
ATOM     33  C   UNL     1      48.036  31.021  43.683  0.00  0.00    +0.000 A 
ATOM     34  C   UNL     1      47.029  30.240  43.267  0.00  0.00    +0.000 A 
ATOM     35  S   UNL     1      45.558  31.306  43.301  0.00  0.00    +0.000 S 
ATOM     36  H   UNL     1      48.438  33.016  44.340  0.00  0.00    +0.000 HD
ATOM     37  H   UNL     1      49.025  30.583  43.742  0.00  0.00    +0.000 HD
ATOM     38  H   UNL     1      47.051  29.122  42.945  0.00  0.00    +0.000 HD
ENDBRANCH  25  31
ENDBRANCH  21  24
ENDBRANCH   1  21
TORSDOF 5
