
 OpenBabel03252509083D

 40 43  0  0  0  0  0  0  0  0999 V2000
   48.6790   32.1560   38.7440 C   0  0  0  0  0  0  0  0  0  0  0  0
   48.3010   33.3010   39.3770 C   0  0  0  0  0  0  0  0  0  0  0  0
   48.1040   34.4640   38.6490 C   0  0  0  0  0  0  0  0  0  0  0  0
   48.2910   34.4590   37.2870 C   0  0  0  0  0  0  0  0  0  0  0  0
   48.6760   33.3080   36.6010 C   0  0  0  0  0  0  0  0  0  0  0  0
   48.8680   32.1490   37.3600 C   0  0  0  0  0  0  0  0  0  0  0  0
   47.8050   35.3930   39.1110 H   0  0  0  0  0  0  0  0  0  0  0  0
   48.1690   35.2940   36.6200 H   0  0  0  0  0  0  0  0  0  0  0  0
   48.8380   33.2310   35.5500 H   0  0  0  0  0  0  0  0  0  0  0  0
   49.1690   31.2290   36.8600 H   0  0  0  0  0  0  0  0  0  0  0  0
   45.0760   33.0510   43.4010 Cl  0  0  0  0  0  0  0  0  0  0  0  0
   46.6340   33.2980   42.6580 C   0  0  0  0  0  0  0  0  0  0  0  0
   46.7990   33.1740   41.3170 C   0  0  0  0  0  0  0  0  0  0  0  0
   48.0730   33.4090   40.8190 C   0  0  0  0  0  0  0  0  0  0  0  0
   49.1200   33.7510   41.6400 C   0  0  0  0  0  0  0  0  0  0  0  0
   48.9360   33.8690   42.9790 C   0  0  0  0  0  0  0  0  0  0  0  0
   47.6790   33.6400   43.4830 C   0  0  0  0  0  0  0  0  0  0  0  0
   50.0860   33.9190   41.1960 H   0  0  0  0  0  0  0  0  0  0  0  0
   49.7800   34.1390   43.6010 H   0  0  0  0  0  0  0  0  0  0  0  0
   47.5580   33.7410   44.5580 H   0  0  0  0  0  0  0  0  0  0  0  0
   44.1830   31.1970   39.4510 C   0  0  0  0  0  0  0  0  0  0  0  0
   45.2860   31.5220   40.2500 C   0  0  0  0  0  0  0  0  0  0  0  0
   45.6620   32.8270   40.4950 C   0  0  0  0  0  0  0  0  0  0  0  0
   44.8790   33.7640   39.9000 N   0  0  0  0  0  0  0  0  0  0  0  0
   43.8220   33.4620   39.1350 C   0  0  0  0  0  0  0  0  0  0  0  0
   43.4810   32.1890   38.9150 N   0  0  0  0  0  0  0  0  0  0  0  0
   43.9640   30.1440   39.3150 H   0  0  0  0  0  0  0  0  0  0  0  0
   45.8750   30.7360   40.7000 H   0  0  0  0  0  0  0  0  0  0  0  0
   43.3090   34.3300   38.7400 H   0  0  0  0  0  0  0  0  0  0  0  0
   48.8870   30.7170   39.5930 S   0  0  0  0  0  0  0  0  0  0  0  0
   47.6370   29.8650   39.6000 O   0  0  0  0  0  0  0  0  0  0  0  0
   49.8620   29.8850   38.6790 O   0  0  0  0  0  0  0  0  0  0  0  0
   49.5700   30.6010   41.1690 C   0  0  0  0  0  0  0  0  0  0  0  0
   50.9620   30.8110   41.3510 C   0  0  0  0  0  0  0  0  0  0  0  0
   51.7330   31.0530   40.5900 H   0  0  0  0  0  0  0  0  0  0  0  0
   51.3710   30.6860   42.6570 C   0  0  0  0  0  0  0  0  0  0  0  0
   52.3350   30.7850   43.0910 H   0  0  0  0  0  0  0  0  0  0  0  0
   50.1910   30.3960   43.2610 C   0  0  0  0  0  0  0  0  0  0  0  0
   49.9890   30.2040   44.3270 H   0  0  0  0  0  0  0  0  0  0  0  0
   49.2490   30.3610   42.4140 O   0  0  0  0  0  0  0  0  0  0  0  0
  1  2  1  0  0  0  0
  1 30  1  0  0  0  0
  2 14  1  0  0  0  0
  3  7  1  0  0  0  0
  3  2  2  0  0  0  0
  4  3  1  0  0  0  0
  5  4  2  0  0  0  0
  5  6  1  0  0  0  0
  6  1  2  0  0  0  0
  8  4  1  0  0  0  0
  9  5  1  0  0  0  0
 10  6  1  0  0  0  0
 12 11  1  0  0  0  0
 12 17  1  0  0  0  0
 13 12  2  0  0  0  0
 14 13  1  0  0  0  0
 14 15  2  0  0  0  0
 15 16  1  0  0  0  0
 16 17  2  0  0  0  0
 16 19  1  0  0  0  0
 17 20  1  0  0  0  0
 18 15  1  0  0  0  0
 21 22  1  0  0  0  0
 22 23  2  0  0  0  0
 22 28  1  0  0  0  0
 23 13  1  0  0  0  0
 24 23  1  0  0  0  0
 25 24  2  0  0  0  0
 26 25  1  0  0  0  0
 26 21  2  0  0  0  0
 27 21  1  0  0  0  0
 29 25  1  0  0  0  0
 30 31  2  0  0  0  0
 30 33  1  0  0  0  0
 32 30  2  0  0  0  0
 33 34  2  0  0  0  0
 33 40  1  0  0  0  0
 34 36  1  0  0  0  0
 35 34  1  0  0  0  0
 36 37  1  0  0  0  0
 36 38  2  0  0  0  0
 38 39  1  0  0  0  0
 40 38  1  0  0  0  0
M  END
>  <minimizedAffinity>
-4.1875391

>  <minimizedRMSD>
4.22177553

$$$$
