
 OpenBabel03252504293D

 26 27  0  0  0  0  0  0  0  0999 V2000
   43.8810   34.8430   40.5610 O   0  0  0  0  0  0  0  0  0  0  0  0
   45.0710   34.5430   41.1820 C   0  0  0  0  0  0  0  0  0  0  0  0
   45.8310   35.3570   40.9160 H   0  0  0  0  0  0  0  0  0  0  0  0
   45.4430   33.5580   40.8660 H   0  0  0  0  0  0  0  0  0  0  0  0
   44.7760   35.8730   43.1460 C   0  0  0  0  0  0  0  0  0  0  0  0
   45.0310   34.5810   42.6570 C   0  0  0  0  0  0  0  0  0  0  0  0
   45.2140   33.5930   43.5860 C   0  0  0  0  0  0  0  0  0  0  0  0
   45.1360   33.9290   44.8690 N   0  0  0  0  0  0  0  0  0  0  0  0
   44.8950   35.1510   45.3310 C   0  0  0  0  0  0  0  0  0  0  0  0
   44.6970   36.2110   44.4610 N   0  0  0  0  0  0  0  0  0  0  0  0
   44.6080   36.7660   42.5250 H   0  0  0  0  0  0  0  0  0  0  0  0
   45.4040   32.6300   43.1320 H   0  0  0  0  0  0  0  0  0  0  0  0
   44.8710   35.2140   46.3920 H   0  0  0  0  0  0  0  0  0  0  0  0
   42.6060   34.4840   40.9640 C   0  0  0  0  0  3  0  0  0  0  0  0
   41.6360   35.4090   40.7650 C   0  0  0  0  0  3  0  0  0  0  0  0
   40.1640   35.2170   41.0710 C   0  0  0  0  0  0  0  0  0  0  0  0
   39.7230   36.1910   41.3440 H   0  0  0  0  0  0  0  0  0  0  0  0
   40.1100   34.5540   41.9330 H   0  0  0  0  0  0  0  0  0  0  0  0
   39.5360   34.6380   39.8520 C   0  0  0  0  0  0  0  0  0  0  0  0
   38.4640   33.7790   39.7580 C   0  0  0  0  0  0  0  0  0  0  0  0
   37.8950   33.3820   40.5880 H   0  0  0  0  0  0  0  0  0  0  0  0
   38.2990   33.5570   38.3930 C   0  0  0  0  0  0  0  0  0  0  0  0
   37.5270   32.9150   37.9520 H   0  0  0  0  0  0  0  0  0  0  0  0
   39.2830   34.2960   37.7380 C   0  0  0  0  0  0  0  0  0  0  0  0
   39.4140   34.3290   36.6640 H   0  0  0  0  0  0  0  0  0  0  0  0
   40.0070   34.9310   38.6460 O   0  0  0  0  0  0  0  0  0  0  0  0
  1 14  1  0  0  0  0
  1  2  1  0  0  0  0
  2  6  1  0  0  0  0
  3  2  1  0  0  0  0
  4  2  1  0  0  0  0
  5 10  1  0  0  0  0
  6  5  2  0  0  0  0
  6  7  1  0  0  0  0
  7  8  2  0  0  0  0
  8  9  1  0  0  0  0
  9 13  1  0  0  0  0
 10  9  2  0  0  0  0
 11  5  1  0  0  0  0
 12  7  1  0  0  0  0
 15 14  2  0  0  0  0
 15 16  1  0  0  0  0
 16 17  1  0  0  0  0
 16 18  1  0  0  0  0
 19 16  1  0  0  0  0
 20 19  2  0  0  0  0
 20 21  1  0  0  0  0
 22 20  1  0  0  0  0
 23 22  1  0  0  0  0
 24 22  2  0  0  0  0
 24 26  1  0  0  0  0
 25 24  1  0  0  0  0
 26 19  1  0  0  0  0
M  END
>  <minimizedAffinity>
-4.70776224

>  <minimizedRMSD>
1.52656615

$$$$
