
 OpenBabel03252509083D

 40 43  0  0  0  0  0  0  0  0999 V2000
   47.5900   31.7900   38.9090 C   0  0  0  0  0  0  0  0  0  0  0  0
   47.1690   33.0850   38.9450 C   0  0  0  0  0  0  0  0  0  0  0  0
   47.8200   34.0480   38.1910 C   0  0  0  0  0  0  0  0  0  0  0  0
   48.8930   33.6930   37.4070 C   0  0  0  0  0  0  0  0  0  0  0  0
   49.3540   32.3800   37.3400 C   0  0  0  0  0  0  0  0  0  0  0  0
   48.6790   31.4280   38.1120 C   0  0  0  0  0  0  0  0  0  0  0  0
   47.5190   35.0850   38.1910 H   0  0  0  0  0  0  0  0  0  0  0  0
   49.4740   34.3490   36.7810 H   0  0  0  0  0  0  0  0  0  0  0  0
   50.1750   32.0340   36.7560 H   0  0  0  0  0  0  0  0  0  0  0  0
   49.0090   30.3910   38.0870 H   0  0  0  0  0  0  0  0  0  0  0  0
   45.3910   35.3580   43.2260 Cl  0  0  0  0  0  0  0  0  0  0  0  0
   45.2080   34.5920   41.6700 C   0  0  0  0  0  0  0  0  0  0  0  0
   46.2880   34.1770   40.9610 C   0  0  0  0  0  0  0  0  0  0  0  0
   46.0380   33.5620   39.7430 C   0  0  0  0  0  0  0  0  0  0  0  0
   44.7600   33.3800   39.2720 C   0  0  0  0  0  0  0  0  0  0  0  0
   43.6920   33.8030   39.9950 C   0  0  0  0  0  0  0  0  0  0  0  0
   43.9280   34.4120   41.2020 C   0  0  0  0  0  0  0  0  0  0  0  0
   44.6290   32.8970   38.3190 H   0  0  0  0  0  0  0  0  0  0  0  0
   42.6970   33.6450   39.5970 H   0  0  0  0  0  0  0  0  0  0  0  0
   43.0560   34.7400   41.7620 H   0  0  0  0  0  0  0  0  0  0  0  0
   49.5790   35.7560   41.9180 C   0  0  0  0  0  0  0  0  0  0  0  0
   48.2960   35.5710   41.3850 C   0  0  0  0  0  0  0  0  0  0  0  0
   47.6110   34.3790   41.5070 C   0  0  0  0  0  0  0  0  0  0  0  0
   48.2780   33.4070   42.1810 N   0  0  0  0  0  0  0  0  0  0  0  0
   49.5040   33.5750   42.6930 C   0  0  0  0  0  0  0  0  0  0  0  0
   50.1450   34.7400   42.5600 N   0  0  0  0  0  0  0  0  0  0  0  0
   50.0390   36.7260   41.7730 H   0  0  0  0  0  0  0  0  0  0  0  0
   47.8110   36.3790   40.8590 H   0  0  0  0  0  0  0  0  0  0  0  0
   49.8870   32.6980   43.1990 H   0  0  0  0  0  0  0  0  0  0  0  0
   46.7960   30.5890   39.7810 S   0  0  0  0  0  0  0  0  0  0  0  0
   45.5330   30.1160   39.0950 O   0  0  0  0  0  0  0  0  0  0  0  0
   47.7470   29.3410   39.6450 O   0  0  0  0  0  0  0  0  0  0  0  0
   46.4390   30.6760   41.4630 C   0  0  0  0  0  0  0  0  0  0  0  0
   47.3380   30.1080   42.4040 C   0  0  0  0  0  0  0  0  0  0  0  0
   48.2960   29.5830   42.2190 H   0  0  0  0  0  0  0  0  0  0  0  0
   46.9290   30.2490   43.7100 C   0  0  0  0  0  0  0  0  0  0  0  0
   47.3860   29.9310   44.6140 H   0  0  0  0  0  0  0  0  0  0  0  0
   45.7590   30.9150   43.5350 C   0  0  0  0  0  0  0  0  0  0  0  0
   45.0430   31.2650   44.2940 H   0  0  0  0  0  0  0  0  0  0  0  0
   45.5390   31.1210   42.3030 O   0  0  0  0  0  0  0  0  0  0  0  0
  1  2  1  0  0  0  0
  1 30  1  0  0  0  0
  2 14  1  0  0  0  0
  3  7  1  0  0  0  0
  3  2  2  0  0  0  0
  4  3  1  0  0  0  0
  5  4  2  0  0  0  0
  5  6  1  0  0  0  0
  6  1  2  0  0  0  0
  8  4  1  0  0  0  0
  9  5  1  0  0  0  0
 10  6  1  0  0  0  0
 12 11  1  0  0  0  0
 13 23  1  0  0  0  0
 13 12  2  0  0  0  0
 14 13  1  0  0  0  0
 15 14  2  0  0  0  0
 15 16  1  0  0  0  0
 16 17  2  0  0  0  0
 17 12  1  0  0  0  0
 17 20  1  0  0  0  0
 18 15  1  0  0  0  0
 19 16  1  0  0  0  0
 21 26  1  0  0  0  0
 22 23  1  0  0  0  0
 22 21  2  0  0  0  0
 23 24  2  0  0  0  0
 24 25  1  0  0  0  0
 25 29  1  0  0  0  0
 26 25  2  0  0  0  0
 27 21  1  0  0  0  0
 28 22  1  0  0  0  0
 30 33  1  0  0  0  0
 31 30  2  0  0  0  0
 32 30  2  0  0  0  0
 33 40  1  0  0  0  0
 33 34  2  0  0  0  0
 34 36  1  0  0  0  0
 35 34  1  0  0  0  0
 36 37  1  0  0  0  0
 38 36  2  0  0  0  0
 38 39  1  0  0  0  0
 40 38  1  0  0  0  0
M  END
>  <minimizedAffinity>
-4.65252209

>  <minimizedRMSD>
0.935337961

$$$$
