
 OpenBabel03242523403D

 36 40  0  0  1  0  0  0  0  0999 V2000
   40.7650   32.5980   37.9510 C   0  0  2  0  0  0  0  0  0  0  0  0
   41.4990   33.3350   37.2020 N   0  0  1  0  0  4  0  0  0  0  0  0
   42.4340   34.1610   37.4060 C   0  0  0  0  0  0  0  0  0  0  0  0
   43.3330   33.2380   37.0430 N   0  0  0  0  0  0  0  0  0  0  0  0
   42.9300   31.9420   36.9220 C   0  0  2  0  0  3  0  0  0  0  0  0
   43.8670   31.0430   36.3480 C   0  0  0  0  0  0  0  0  0  0  0  0
   43.4770   29.7580   36.1840 C   0  0  0  0  0  0  0  0  0  0  0  0
   42.2470   29.2590   36.5280 C   0  0  0  0  0  0  0  0  0  0  0  0
   41.4270   30.2300   37.0750 C   0  0  0  0  0  0  0  0  0  0  0  0
   41.6160   31.5880   37.3370 C   0  0  1  0  0  0  0  0  0  0  0  0
   41.2750   32.7400   39.0030 H   0  0  0  0  0  0  0  0  0  0  0  0
   40.9350   33.6320   36.3520 H   0  0  0  0  0  0  0  0  0  0  0  0
   42.4920   35.0880   36.7620 H   0  0  0  0  0  0  0  0  0  0  0  0
   42.5880   34.5630   38.4350 H   0  0  0  0  0  0  0  0  0  0  0  0
   44.3110   33.6110   36.8780 H   0  0  0  0  0  0  0  0  0  0  0  0
   44.8400   31.3310   36.0500 H   0  0  0  0  0  0  0  0  0  0  0  0
   44.2130   29.0650   35.7380 H   0  0  0  0  0  0  0  0  0  0  0  0
   41.9780   28.2540   36.3850 H   0  0  0  0  0  0  0  0  0  0  0  0
   40.4680   29.7760   37.2910 H   0  0  0  0  0  0  0  0  0  0  0  0
   37.8760   30.4120   38.7610 C   0  0  0  0  0  0  0  0  0  0  0  0
   38.1600   30.3070   40.1160 C   0  0  0  0  0  0  0  0  0  0  0  0
   39.2720   30.9860   40.5890 C   0  0  0  0  0  0  0  0  0  0  0  0
   39.9820   31.6930   39.6840 N   0  0  0  0  0  0  0  0  0  0  0  0
   39.6820   31.7790   38.3600 C   0  0  0  0  0  0  0  0  0  0  0  0
   38.6590   31.1340   38.0160 N   0  0  0  0  0  0  0  0  0  0  0  0
   37.0160   29.9000   38.3360 H   0  0  0  0  0  0  0  0  0  0  0  0
   37.5350   29.7170   40.7710 H   0  0  0  0  0  0  0  0  0  0  0  0
   39.6710   30.8470   42.3340 S   0  0  0  0  0  0  0  0  0  0  0  0
   39.0170   29.2580   42.8530 C   0  0  0  0  0  0  0  0  0  0  0  0
   39.5370   27.9820   42.8420 C   0  0  0  0  0  0  0  0  0  0  0  0
   40.5530   27.8480   42.4490 H   0  0  0  0  0  0  0  0  0  0  0  0
   38.5470   27.1600   43.3770 C   0  0  0  0  0  0  0  0  0  0  0  0
   38.8100   26.1000   43.4380 H   0  0  0  0  0  0  0  0  0  0  0  0
   37.4880   27.9850   43.6790 C   0  0  0  0  0  0  0  0  0  0  0  0
   36.6080   27.5250   44.1100 H   0  0  0  0  0  0  0  0  0  0  0  0
   37.8000   29.2160   43.3560 O   0  0  0  0  0  0  0  0  0  0  0  0
  1 24  1  0  0  0  0
  1 11  1  1  0  0  0
  2 12  1  6  0  0  0
  2 10  1  0  0  0  0
  2  3  1  0  0  0  0
  2  1  1  0  0  0  0
  3 14  1  0  0  0  0
  4  3  1  0  0  0  0
  5  6  1  6  0  0  0
  5  4  1  0  0  0  0
  5 10  1  0  0  0  0
  7  6  2  0  0  0  0
  7  8  1  0  0  0  0
  8  9  2  0  0  0  0
  9 19  1  0  0  0  0
 10  9  1  6  0  0  0
 10  1  1  0  0  0  0
 13  3  1  0  0  0  0
 15  4  1  0  0  0  0
 16  6  1  0  0  0  0
 17  7  1  0  0  0  0
 18  8  1  0  0  0  0
 20 21  1  0  0  0  0
 21 22  2  0  0  0  0
 21 27  1  0  0  0  0
 22 28  1  0  0  0  0
 23 22  1  0  0  0  0
 24 23  2  0  0  0  0
 25 24  1  0  0  0  0
 25 20  2  0  0  0  0
 26 20  1  0  0  0  0
 28 29  1  0  0  0  0
 29 36  1  0  0  0  0
 30 29  2  0  0  0  0
 30 32  1  0  0  0  0
 31 30  1  0  0  0  0
 32 33  1  0  0  0  0
 32 34  2  0  0  0  0
 34 35  1  0  0  0  0
 36 34  1  0  0  0  0
M  END
>  <minimizedAffinity>
-5.68801355

$$$$

 OpenBabel03242523403D

 36 40  0  0  1  0  0  0  0  0999 V2000
   37.8880   27.8310   42.0820 C   0  0  2  0  0  0  0  0  0  0  0  0
   39.0440   27.3960   42.4240 N   0  0  1  0  0  4  0  0  0  0  0  0
   39.6200   27.1710   43.5260 C   0  0  0  0  0  0  0  0  0  0  0  0
   39.3860   25.8600   43.3850 N   0  0  0  0  0  0  0  0  0  0  0  0
   38.5120   25.4510   42.4220 C   0  0  2  0  0  3  0  0  0  0  0  0
   38.4500   24.0520   42.1850 C   0  0  0  0  0  0  0  0  0  0  0  0
   37.6170   23.6240   41.2080 C   0  0  0  0  0  0  0  0  0  0  0  0
   36.8310   24.4360   40.4320 C   0  0  0  0  0  0  0  0  0  0  0  0
   36.9810   25.7720   40.7600 C   0  0  0  0  0  0  0  0  0  0  0  0
   37.7640   26.4290   41.7110 C   0  0  1  0  0  0  0  0  0  0  0  0
   37.3250   27.8620   43.1150 H   0  0  0  0  0  0  0  0  0  0  0  0
   39.7580   27.7060   41.7010 H   0  0  0  0  0  0  0  0  0  0  0  0
   40.7230   27.3980   43.6210 H   0  0  0  0  0  0  0  0  0  0  0  0
   39.1950   27.6080   44.4600 H   0  0  0  0  0  0  0  0  0  0  0  0
   39.9170   25.2380   44.0590 H   0  0  0  0  0  0  0  0  0  0  0  0
   39.0160   23.3450   42.7300 H   0  0  0  0  0  0  0  0  0  0  0  0
   37.5730   22.5340   41.0310 H   0  0  0  0  0  0  0  0  0  0  0  0
   36.1960   24.0680   39.6810 H   0  0  0  0  0  0  0  0  0  0  0  0
   36.3610   26.3530   40.0890 H   0  0  0  0  0  0  0  0  0  0  0  0
   35.0190   29.1880   40.1560 C   0  0  0  0  0  0  0  0  0  0  0  0
   35.7890   29.9190   39.2610 C   0  0  0  0  0  0  0  0  0  0  0  0
   37.1660   29.8590   39.4060 C   0  0  0  0  0  0  0  0  0  0  0  0
   37.6360   29.0890   40.4110 N   0  0  0  0  0  0  0  0  0  0  0  0
   36.8600   28.3830   41.2750 C   0  0  0  0  0  0  0  0  0  0  0  0
   35.6240   28.4940   41.0730 N   0  0  0  0  0  0  0  0  0  0  0  0
   33.9340   29.2000   40.0880 H   0  0  0  0  0  0  0  0  0  0  0  0
   35.3260   30.5100   38.4830 H   0  0  0  0  0  0  0  0  0  0  0  0
   38.1810   30.8120   38.2730 S   0  0  0  0  0  0  0  0  0  0  0  0
   38.6100   32.3140   39.1570 C   0  0  0  0  0  0  0  0  0  0  0  0
   37.8890   33.1570   39.9740 C   0  0  0  0  0  0  0  0  0  0  0  0
   36.8360   32.9130   40.1610 H   0  0  0  0  0  0  0  0  0  0  0  0
   38.7750   34.1610   40.3640 C   0  0  0  0  0  0  0  0  0  0  0  0
   38.3490   34.9210   41.0270 H   0  0  0  0  0  0  0  0  0  0  0  0
   39.9760   33.8670   39.7600 C   0  0  0  0  0  0  0  0  0  0  0  0
   40.8020   34.5420   39.9440 H   0  0  0  0  0  0  0  0  0  0  0  0
   39.8410   32.7700   39.0550 O   0  0  0  0  0  0  0  0  0  0  0  0
  1  2  1  0  0  0  0
  1 11  1  1  0  0  0
  2 12  1  6  0  0  0
  2  3  1  0  0  0  0
  3 13  1  0  0  0  0
  3 14  1  0  0  0  0
  4  3  1  0  0  0  0
  4 15  1  0  0  0  0
  5  6  1  6  0  0  0
  5  4  1  0  0  0  0
  6 16  1  0  0  0  0
  7  6  2  0  0  0  0
  8  9  2  0  0  0  0
  8  7  1  0  0  0  0
 10  9  1  6  0  0  0
 10  1  1  0  0  0  0
 10  5  1  0  0  0  0
 10  2  1  0  0  0  0
 17  7  1  0  0  0  0
 18  8  1  0  0  0  0
 19  9  1  0  0  0  0
 20 25  1  0  0  0  0
 21 22  1  0  0  0  0
 21 20  2  0  0  0  0
 22 23  2  0  0  0  0
 23 24  1  0  0  0  0
 24  1  1  0  0  0  0
 25 24  2  0  0  0  0
 26 20  1  0  0  0  0
 27 21  1  0  0  0  0
 28 29  1  0  0  0  0
 28 22  1  0  0  0  0
 29 30  2  0  0  0  0
 30 31  1  0  0  0  0
 30 32  1  0  0  0  0
 32 33  1  0  0  0  0
 34 35  1  0  0  0  0
 34 32  2  0  0  0  0
 36 29  1  0  0  0  0
 36 34  1  0  0  0  0
M  END
>  <minimizedAffinity>
-5.64851236

$$$$

 OpenBabel03242523403D

 36 40  0  0  1  0  0  0  0  0999 V2000
   37.0090   29.4000   41.8760 C   0  0  2  0  0  0  0  0  0  0  0  0
   36.9210   28.7380   42.9690 N   0  0  1  0  0  4  0  0  0  0  0  0
   36.5990   27.5530   43.2700 C   0  0  0  0  0  0  0  0  0  0  0  0
   37.8910   27.2320   43.4100 N   0  0  0  0  0  0  0  0  0  0  0  0
   38.8350   28.1020   42.9510 C   0  0  2  0  0  3  0  0  0  0  0  0
   40.1800   27.8090   43.2980 C   0  0  0  0  0  0  0  0  0  0  0  0
   41.1330   28.6780   42.8850 C   0  0  0  0  0  0  0  0  0  0  0  0
   40.8970   29.8170   42.1590 C   0  0  0  0  0  0  0  0  0  0  0  0
   39.5520   29.9890   41.8850 C   0  0  0  0  0  0  0  0  0  0  0  0
   38.4190   29.2370   42.2010 C   0  0  1  0  0  0  0  0  0  0  0  0
   36.8460   28.5580   41.0690 H   0  0  0  0  0  0  0  0  0  0  0  0
   36.6350   29.3980   43.7510 H   0  0  0  0  0  0  0  0  0  0  0  0
   36.0110   27.3720   44.2180 H   0  0  0  0  0  0  0  0  0  0  0  0
   36.0570   26.9310   42.5190 H   0  0  0  0  0  0  0  0  0  0  0  0
   38.0700   26.3000   43.8790 H   0  0  0  0  0  0  0  0  0  0  0  0
   40.4640   26.9560   43.8550 H   0  0  0  0  0  0  0  0  0  0  0  0
   42.1770   28.4410   43.1580 H   0  0  0  0  0  0  0  0  0  0  0  0
   41.6620   30.4690   41.8550 H   0  0  0  0  0  0  0  0  0  0  0  0
   39.4370   30.9190   41.3420 H   0  0  0  0  0  0  0  0  0  0  0  0
   37.3090   32.4510   39.7830 C   0  0  0  0  0  0  0  0  0  0  0  0
   37.2000   31.7930   38.5650 C   0  0  0  0  0  0  0  0  0  0  0  0
   37.0300   30.4180   38.5970 C   0  0  0  0  0  0  0  0  0  0  0  0
   36.9850   29.8400   39.8170 N   0  0  0  0  0  0  0  0  0  0  0  0
   37.0950   30.5090   40.9950 C   0  0  0  0  0  0  0  0  0  0  0  0
   37.2460   31.7510   40.8760 N   0  0  0  0  0  0  0  0  0  0  0  0
   37.4440   33.5300   39.8180 H   0  0  0  0  0  0  0  0  0  0  0  0
   37.2460   32.3380   37.6330 H   0  0  0  0  0  0  0  0  0  0  0  0
   36.9070   29.5430   37.0340 S   0  0  0  0  0  0  0  0  0  0  0  0
   35.1610   29.1810   36.8210 C   0  0  0  0  0  0  0  0  0  0  0  0
   34.1460   28.9100   37.7110 C   0  0  0  0  0  0  0  0  0  0  0  0
   34.3920   28.9000   38.7800 H   0  0  0  0  0  0  0  0  0  0  0  0
   33.0030   28.7100   36.9380 C   0  0  0  0  0  0  0  0  0  0  0  0
   32.0960   28.4820   37.5060 H   0  0  0  0  0  0  0  0  0  0  0  0
   33.3940   28.8710   35.6290 C   0  0  0  0  0  0  0  0  0  0  0  0
   32.6350   28.7520   34.8660 H   0  0  0  0  0  0  0  0  0  0  0  0
   34.6740   29.1480   35.5970 O   0  0  0  0  0  0  0  0  0  0  0  0
  1 11  1  6  0  0  0
  1 10  1  0  0  0  0
  1  2  1  0  0  0  0
  2  3  1  0  0  0  0
  2 12  1  1  0  0  0
  3  4  1  0  0  0  0
  3 13  1  0  0  0  0
  4 15  1  0  0  0  0
  5  6  1  1  0  0  0
  5  4  1  0  0  0  0
  6 16  1  0  0  0  0
  7 17  1  0  0  0  0
  7  6  2  0  0  0  0
  8  7  1  0  0  0  0
  9  8  2  0  0  0  0
 10  9  1  1  0  0  0
 10  5  1  0  0  0  0
 10  2  1  0  0  0  0
 14  3  1  0  0  0  0
 18  8  1  0  0  0  0
 19  9  1  0  0  0  0
 20 26  1  0  0  0  0
 20 25  1  0  0  0  0
 21 22  1  0  0  0  0
 21 20  2  0  0  0  0
 22 23  2  0  0  0  0
 23 24  1  0  0  0  0
 24  1  1  0  0  0  0
 25 24  2  0  0  0  0
 27 21  1  0  0  0  0
 28 22  1  0  0  0  0
 29 28  1  0  0  0  0
 29 30  2  0  0  0  0
 30 31  1  0  0  0  0
 32 33  1  0  0  0  0
 32 30  1  0  0  0  0
 34 32  2  0  0  0  0
 35 34  1  0  0  0  0
 36 34  1  0  0  0  0
 36 29  1  0  0  0  0
M  END
>  <minimizedAffinity>
-5.63109493

$$$$

 OpenBabel03242523403D

 36 40  0  0  1  0  0  0  0  0999 V2000
   37.3760   26.8360   40.0950 C   0  0  2  0  0  0  0  0  0  0  0  0
   37.6590   26.7490   38.8480 N   0  0  1  0  0  4  0  0  0  0  0  0
   37.6460   25.8180   37.9940 C   0  0  0  0  0  0  0  0  0  0  0  0
   36.4920   26.2820   37.4990 N   0  0  0  0  0  0  0  0  0  0  0  0
   35.8050   27.2210   38.2090 C   0  0  2  0  0  3  0  0  0  0  0  0
   34.6980   27.8200   37.5520 C   0  0  0  0  0  0  0  0  0  0  0  0
   34.0220   28.7810   38.2230 C   0  0  0  0  0  0  0  0  0  0  0  0
   34.3250   29.2200   39.4860 C   0  0  0  0  0  0  0  0  0  0  0  0
   35.4190   28.5610   40.0170 C   0  0  0  0  0  0  0  0  0  0  0  0
   36.2500   27.5570   39.5180 C   0  0  1  0  0  0  0  0  0  0  0  0
   36.9050   25.7780   40.3100 H   0  0  0  0  0  0  0  0  0  0  0  0
   38.4400   27.4340   38.6230 H   0  0  0  0  0  0  0  0  0  0  0  0
   38.4610   25.7840   37.2120 H   0  0  0  0  0  0  0  0  0  0  0  0
   37.5940   24.7610   38.3450 H   0  0  0  0  0  0  0  0  0  0  0  0
   36.2060   25.8630   36.5690 H   0  0  0  0  0  0  0  0  0  0  0  0
   34.3850   27.5500   36.5780 H   0  0  0  0  0  0  0  0  0  0  0  0
   33.1610   29.2410   37.7050 H   0  0  0  0  0  0  0  0  0  0  0  0
   33.7770   29.9700   39.9770 H   0  0  0  0  0  0  0  0  0  0  0  0
   35.6200   28.9790   40.9950 H   0  0  0  0  0  0  0  0  0  0  0  0
   37.1480   27.9450   43.6300 C   0  0  0  0  0  0  0  0  0  0  0  0
   37.9650   29.0580   43.4770 C   0  0  0  0  0  0  0  0  0  0  0  0
   38.4780   29.3030   42.2140 C   0  0  0  0  0  0  0  0  0  0  0  0
   38.1360   28.4320   41.2400 N   0  0  0  0  0  0  0  0  0  0  0  0
   37.3340   27.3480   41.4170 C   0  0  0  0  0  0  0  0  0  0  0  0
   36.9120   27.2000   42.5920 N   0  0  0  0  0  0  0  0  0  0  0  0
   36.7180   27.7060   44.6000 H   0  0  0  0  0  0  0  0  0  0  0  0
   38.1870   29.7040   44.3150 H   0  0  0  0  0  0  0  0  0  0  0  0
   39.5530   30.7240   41.9960 S   0  0  0  0  0  0  0  0  0  0  0  0
   38.6240   31.8800   40.9840 C   0  0  0  0  0  0  0  0  0  0  0  0
   37.4470   31.7700   40.2770 C   0  0  0  0  0  0  0  0  0  0  0  0
   36.9250   30.8040   40.3010 H   0  0  0  0  0  0  0  0  0  0  0  0
   37.2370   33.0150   39.6870 C   0  0  0  0  0  0  0  0  0  0  0  0
   36.3280   33.0920   39.0830 H   0  0  0  0  0  0  0  0  0  0  0  0
   38.2970   33.8040   40.0710 C   0  0  0  0  0  0  0  0  0  0  0  0
   38.3140   34.8230   39.7070 H   0  0  0  0  0  0  0  0  0  0  0  0
   39.0970   33.1010   40.8350 O   0  0  0  0  0  0  0  0  0  0  0  0
  1 11  1  1  0  0  0
  1 24  1  0  0  0  0
  2 12  1  6  0  0  0
  2 10  1  0  0  0  0
  2  1  1  0  0  0  0
  3 14  1  0  0  0  0
  3  2  1  0  0  0  0
  4  3  1  0  0  0  0
  4  5  1  0  0  0  0
  5  6  1  6  0  0  0
  5 10  1  0  0  0  0
  6  7  2  0  0  0  0
  7  8  1  0  0  0  0
  8 18  1  0  0  0  0
  8  9  2  0  0  0  0
  9 19  1  0  0  0  0
 10  9  1  1  0  0  0
 10  1  1  0  0  0  0
 13  3  1  0  0  0  0
 15  4  1  0  0  0  0
 16  6  1  0  0  0  0
 17  7  1  0  0  0  0
 20 26  1  0  0  0  0
 21 20  1  0  0  0  0
 21 27  1  0  0  0  0
 22 21  2  0  0  0  0
 23 24  2  0  0  0  0
 23 22  1  0  0  0  0
 24 25  1  0  0  0  0
 25 20  2  0  0  0  0
 28 22  1  0  0  0  0
 29 28  1  0  0  0  0
 30 31  1  0  0  0  0
 30 29  2  0  0  0  0
 32 34  2  0  0  0  0
 32 30  1  0  0  0  0
 33 32  1  0  0  0  0
 34 36  1  0  0  0  0
 35 34  1  0  0  0  0
 36 29  1  0  0  0  0
M  END
>  <minimizedAffinity>
-5.48971939

$$$$

 OpenBabel03242523403D

 36 40  0  0  1  0  0  0  0  0999 V2000
   39.5430   30.2040   42.5380 C   0  0  2  0  0  0  0  0  0  0  0  0
   40.1650   31.3240   42.5170 N   0  0  1  0  0  4  0  0  0  0  0  0
   41.2690   31.7220   42.0470 C   0  0  0  0  0  0  0  0  0  0  0  0
   40.6310   32.2810   41.0110 N   0  0  0  0  0  0  0  0  0  0  0  0
   39.3210   31.9690   40.8030 C   0  0  2  0  0  3  0  0  0  0  0  0
   38.6420   32.7340   39.8180 C   0  0  0  0  0  0  0  0  0  0  0  0
   37.3300   32.4680   39.6190 C   0  0  0  0  0  0  0  0  0  0  0  0
   36.6090   31.5170   40.2940 C   0  0  0  0  0  0  0  0  0  0  0  0
   37.3800   30.8420   41.2230 C   0  0  0  0  0  0  0  0  0  0  0  0
   38.7230   30.9450   41.5890 C   0  0  1  0  0  0  0  0  0  0  0  0
   40.2080   29.5450   41.8240 H   0  0  0  0  0  0  0  0  0  0  0  0
   39.9370   31.8620   43.4040 H   0  0  0  0  0  0  0  0  0  0  0  0
   41.8710   32.4760   42.6330 H   0  0  0  0  0  0  0  0  0  0  0  0
   42.0360   30.9670   41.7510 H   0  0  0  0  0  0  0  0  0  0  0  0
   41.2220   32.9380   40.4270 H   0  0  0  0  0  0  0  0  0  0  0  0
   39.1100   33.4890   39.2450 H   0  0  0  0  0  0  0  0  0  0  0  0
   36.8100   33.0670   38.8500 H   0  0  0  0  0  0  0  0  0  0  0  0
   35.5900   31.3380   40.1130 H   0  0  0  0  0  0  0  0  0  0  0  0
   36.7420   30.1350   41.7380 H   0  0  0  0  0  0  0  0  0  0  0  0
   36.9680   27.7850   43.6800 C   0  0  0  0  0  0  0  0  0  0  0  0
   37.4070   26.7340   42.8860 C   0  0  0  0  0  0  0  0  0  0  0  0
   38.5110   26.9610   42.0790 C   0  0  0  0  0  0  0  0  0  0  0  0
   39.0630   28.1920   42.1400 N   0  0  0  0  0  0  0  0  0  0  0  0
   38.6130   29.2060   42.9260 C   0  0  0  0  0  0  0  0  0  0  0  0
   37.6090   28.9150   43.6250 N   0  0  0  0  0  0  0  0  0  0  0  0
   36.1070   27.6630   44.3320 H   0  0  0  0  0  0  0  0  0  0  0  0
   36.9030   25.7780   42.9010 H   0  0  0  0  0  0  0  0  0  0  0  0
   39.0840   25.6220   41.0290 S   0  0  0  0  0  0  0  0  0  0  0  0
   37.5990   24.8650   40.3610 C   0  0  0  0  0  0  0  0  0  0  0  0
   36.9100   23.7160   40.6800 C   0  0  0  0  0  0  0  0  0  0  0  0
   37.2980   23.0970   41.5000 H   0  0  0  0  0  0  0  0  0  0  0  0
   35.8290   23.6610   39.8020 C   0  0  0  0  0  0  0  0  0  0  0  0
   35.1740   22.7940   39.9280 H   0  0  0  0  0  0  0  0  0  0  0  0
   35.9280   24.7780   39.0040 C   0  0  0  0  0  0  0  0  0  0  0  0
   35.1680   24.9160   38.2470 H   0  0  0  0  0  0  0  0  0  0  0  0
   36.9850   25.4650   39.3630 O   0  0  0  0  0  0  0  0  0  0  0  0
  1 11  1  6  0  0  0
  1 24  1  0  0  0  0
  2  1  1  0  0  0  0
  2 12  1  1  0  0  0
  3  2  1  0  0  0  0
  3 13  1  0  0  0  0
  4  3  1  0  0  0  0
  5  6  1  1  0  0  0
  5  4  1  0  0  0  0
  5 10  1  0  0  0  0
  7  6  2  0  0  0  0
  7  8  1  0  0  0  0
  8  9  2  0  0  0  0
  9 19  1  0  0  0  0
 10  9  1  1  0  0  0
 10  2  1  0  0  0  0
 10  1  1  0  0  0  0
 14  3  1  0  0  0  0
 15  4  1  0  0  0  0
 16  6  1  0  0  0  0
 17  7  1  0  0  0  0
 18  8  1  0  0  0  0
 20 26  1  0  0  0  0
 21 27  1  0  0  0  0
 21 20  2  0  0  0  0
 22 23  2  0  0  0  0
 22 21  1  0  0  0  0
 23 24  1  0  0  0  0
 24 25  2  0  0  0  0
 25 20  1  0  0  0  0
 28 22  1  0  0  0  0
 29 30  2  0  0  0  0
 29 28  1  0  0  0  0
 30 31  1  0  0  0  0
 32 33  1  0  0  0  0
 32 30  1  0  0  0  0
 34 36  1  0  0  0  0
 34 32  2  0  0  0  0
 35 34  1  0  0  0  0
 36 29  1  0  0  0  0
M  END
>  <minimizedAffinity>
-5.48815012

$$$$

 OpenBabel03242523403D

 36 40  0  0  1  0  0  0  0  0999 V2000
   36.8060   31.1090   40.5110 C   0  0  2  0  0  0  0  0  0  0  0  0
   35.8070   30.4170   40.9190 N   0  0  1  0  0  4  0  0  0  0  0  0
   35.0570   29.5430   40.3990 C   0  0  0  0  0  0  0  0  0  0  0  0
   35.7330   28.5780   41.0340 N   0  0  0  0  0  0  0  0  0  0  0  0
   36.9210   28.8910   41.6260 C   0  0  2  0  0  3  0  0  0  0  0  0
   37.4960   27.8870   42.4480 C   0  0  0  0  0  0  0  0  0  0  0  0
   38.6570   28.1870   43.0760 C   0  0  0  0  0  0  0  0  0  0  0  0
   39.3170   29.3850   42.9790 C   0  0  0  0  0  0  0  0  0  0  0  0
   38.6580   30.2760   42.1520 C   0  0  0  0  0  0  0  0  0  0  0  0
   37.4760   30.1840   41.4150 C   0  0  1  0  0  0  0  0  0  0  0  0
   37.0230   30.6250   39.4600 H   0  0  0  0  0  0  0  0  0  0  0  0
   35.2580   30.9880   41.6270 H   0  0  0  0  0  0  0  0  0  0  0  0
   33.9590   29.5390   40.6650 H   0  0  0  0  0  0  0  0  0  0  0  0
   35.0440   29.4310   39.2890 H   0  0  0  0  0  0  0  0  0  0  0  0
   35.2690   27.6260   41.0180 H   0  0  0  0  0  0  0  0  0  0  0  0
   37.0640   26.9320   42.5870 H   0  0  0  0  0  0  0  0  0  0  0  0
   39.0990   27.3990   43.7130 H   0  0  0  0  0  0  0  0  0  0  0  0
   40.2170   29.5830   43.4830 H   0  0  0  0  0  0  0  0  0  0  0  0
   39.2140   31.2050   42.1490 H   0  0  0  0  0  0  0  0  0  0  0  0
   39.2670   33.8860   40.6280 C   0  0  0  0  0  0  0  0  0  0  0  0
   39.9970   33.4680   39.5240 C   0  0  0  0  0  0  0  0  0  0  0  0
   39.5700   32.3210   38.8740 C   0  0  0  0  0  0  0  0  0  0  0  0
   38.4760   31.7100   39.3780 N   0  0  0  0  0  0  0  0  0  0  0  0
   37.7790   32.1400   40.4630 C   0  0  0  0  0  0  0  0  0  0  0  0
   38.2340   33.1860   40.9910 N   0  0  0  0  0  0  0  0  0  0  0  0
   39.5570   34.7790   41.1760 H   0  0  0  0  0  0  0  0  0  0  0  0
   40.8630   34.0210   39.1880 H   0  0  0  0  0  0  0  0  0  0  0  0
   40.5110   31.7500   37.4550 S   0  0  0  0  0  0  0  0  0  0  0  0
   42.2080   32.2410   37.7730 C   0  0  0  0  0  0  0  0  0  0  0  0
   43.2300   31.6640   38.4950 C   0  0  0  0  0  0  0  0  0  0  0  0
   43.0250   30.7110   39.0000 H   0  0  0  0  0  0  0  0  0  0  0  0
   44.3200   32.5230   38.3690 C   0  0  0  0  0  0  0  0  0  0  0  0
   45.2250   32.2010   38.8930 H   0  0  0  0  0  0  0  0  0  0  0  0
   43.8950   33.5670   37.5800 C   0  0  0  0  0  0  0  0  0  0  0  0
   44.6100   34.3500   37.3650 H   0  0  0  0  0  0  0  0  0  0  0  0
   42.6430   33.3670   37.2470 O   0  0  0  0  0  0  0  0  0  0  0  0
  1 11  1  6  0  0  0
  1  2  1  0  0  0  0
  1 10  1  0  0  0  0
  2 10  1  0  0  0  0
  2 12  1  1  0  0  0
  3 13  1  0  0  0  0
  3  2  1  0  0  0  0
  3  4  1  0  0  0  0
  4  5  1  0  0  0  0
  5  6  1  1  0  0  0
  6 16  1  0  0  0  0
  6  7  2  0  0  0  0
  7 17  1  0  0  0  0
  8  7  1  0  0  0  0
  8 18  1  0  0  0  0
  9  8  2  0  0  0  0
 10  5  1  0  0  0  0
 10  9  1  1  0  0  0
 14  3  1  0  0  0  0
 15  4  1  0  0  0  0
 19  9  1  0  0  0  0
 20 25  1  0  0  0  0
 20 26  1  0  0  0  0
 21 20  2  0  0  0  0
 22 23  2  0  0  0  0
 22 21  1  0  0  0  0
 23 24  1  0  0  0  0
 24  1  1  0  0  0  0
 24 25  2  0  0  0  0
 27 21  1  0  0  0  0
 28 29  1  0  0  0  0
 28 22  1  0  0  0  0
 29 30  2  0  0  0  0
 30 31  1  0  0  0  0
 32 30  1  0  0  0  0
 32 33  1  0  0  0  0
 34 32  2  0  0  0  0
 35 34  1  0  0  0  0
 36 34  1  0  0  0  0
 36 29  1  0  0  0  0
M  END
>  <minimizedAffinity>
-5.48427677

$$$$

 OpenBabel03242523403D

 36 40  0  0  1  0  0  0  0  0999 V2000
   36.7640   27.0620   40.1360 C   0  0  2  0  0  0  0  0  0  0  0  0
   36.1790   26.4690   39.1630 N   0  0  1  0  0  4  0  0  0  0  0  0
   36.3450   26.4350   37.9100 C   0  0  0  0  0  0  0  0  0  0  0  0
   36.9450   25.2430   38.0180 N   0  0  0  0  0  0  0  0  0  0  0  0
   37.3160   24.8060   39.2550 C   0  0  2  0  0  3  0  0  0  0  0  0
   37.7660   23.4620   39.3370 C   0  0  0  0  0  0  0  0  0  0  0  0
   38.1050   22.9930   40.5600 C   0  0  0  0  0  0  0  0  0  0  0  0
   38.0470   23.7150   41.7240 C   0  0  0  0  0  0  0  0  0  0  0  0
   37.5950   25.0060   41.5120 C   0  0  0  0  0  0  0  0  0  0  0  0
   37.1990   25.6910   40.3620 C   0  0  1  0  0  0  0  0  0  0  0  0
   37.7030   27.5320   39.6040 H   0  0  0  0  0  0  0  0  0  0  0  0
   35.1470   26.3660   39.3920 H   0  0  0  0  0  0  0  0  0  0  0  0
   35.4360   26.3940   37.2410 H   0  0  0  0  0  0  0  0  0  0  0  0
   36.9760   27.2170   37.4260 H   0  0  0  0  0  0  0  0  0  0  0  0
   37.0840   24.7310   37.1020 H   0  0  0  0  0  0  0  0  0  0  0  0
   37.8460   22.8240   38.4970 H   0  0  0  0  0  0  0  0  0  0  0  0
   38.4550   21.9460   40.6150 H   0  0  0  0  0  0  0  0  0  0  0  0
   38.3180   23.3180   42.6570 H   0  0  0  0  0  0  0  0  0  0  0  0
   37.5430   25.5040   42.4720 H   0  0  0  0  0  0  0  0  0  0  0  0
   37.1930   28.2480   43.6280 C   0  0  0  0  0  0  0  0  0  0  0  0
   38.1180   29.2380   43.3230 C   0  0  0  0  0  0  0  0  0  0  0  0
   38.4730   29.3910   41.9930 C   0  0  0  0  0  0  0  0  0  0  0  0
   37.8830   28.5590   41.1080 N   0  0  0  0  0  0  0  0  0  0  0  0
   36.9790   27.5960   41.4330 C   0  0  0  0  0  0  0  0  0  0  0  0
   36.7140   27.5260   42.6590 N   0  0  0  0  0  0  0  0  0  0  0  0
   36.8780   28.0840   44.6560 H   0  0  0  0  0  0  0  0  0  0  0  0
   38.5410   29.8610   44.0990 H   0  0  0  0  0  0  0  0  0  0  0  0
   39.6830   30.6510   41.5780 S   0  0  0  0  0  0  0  0  0  0  0  0
   38.7550   31.9660   40.7810 C   0  0  0  0  0  0  0  0  0  0  0  0
   37.5420   31.9930   40.1300 C   0  0  0  0  0  0  0  0  0  0  0  0
   36.9810   31.0530   40.0520 H   0  0  0  0  0  0  0  0  0  0  0  0
   37.3550   33.3140   39.7250 C   0  0  0  0  0  0  0  0  0  0  0  0
   36.4220   33.5040   39.1860 H   0  0  0  0  0  0  0  0  0  0  0  0
   38.4650   34.0060   40.1520 C   0  0  0  0  0  0  0  0  0  0  0  0
   38.5070   35.0630   39.9280 H   0  0  0  0  0  0  0  0  0  0  0  0
   39.2710   33.1780   40.7720 O   0  0  0  0  0  0  0  0  0  0  0  0
  1 11  1  6  0  0  0
  1 10  1  0  0  0  0
  1 24  1  0  0  0  0
  2 12  1  1  0  0  0
  2  1  1  0  0  0  0
  2 10  1  0  0  0  0
  3  4  1  0  0  0  0
  3  2  1  0  0  0  0
  4  5  1  0  0  0  0
  5  6  1  1  0  0  0
  5 10  1  0  0  0  0
  6  7  2  0  0  0  0
  7 17  1  0  0  0  0
  7  8  1  0  0  0  0
  8 18  1  0  0  0  0
  9  8  2  0  0  0  0
  9 19  1  0  0  0  0
 10  9  1  1  0  0  0
 13  3  1  0  0  0  0
 14  3  1  0  0  0  0
 15  4  1  0  0  0  0
 16  6  1  0  0  0  0
 20 26  1  0  0  0  0
 21 20  1  0  0  0  0
 21 27  1  0  0  0  0
 22 21  2  0  0  0  0
 23 24  2  0  0  0  0
 23 22  1  0  0  0  0
 24 25  1  0  0  0  0
 25 20  2  0  0  0  0
 28 22  1  0  0  0  0
 29 28  1  0  0  0  0
 30 29  2  0  0  0  0
 31 30  1  0  0  0  0
 32 30  1  0  0  0  0
 32 34  2  0  0  0  0
 33 32  1  0  0  0  0
 34 36  1  0  0  0  0
 35 34  1  0  0  0  0
 36 29  1  0  0  0  0
M  END
>  <minimizedAffinity>
-5.46144581

$$$$

 OpenBabel03242523403D

 36 40  0  0  1  0  0  0  0  0999 V2000
   31.7980   29.2550   37.1530 C   0  0  2  0  0  0  0  0  0  0  0  0
   30.6730   29.5170   37.7070 N   0  0  1  0  0  4  0  0  0  0  0  0
   30.3190   30.0560   38.7940 C   0  0  0  0  0  0  0  0  0  0  0  0
   30.0420   31.1940   38.1450 N   0  0  0  0  0  0  0  0  0  0  0  0
   30.4750   31.3380   36.8610 C   0  0  2  0  0  3  0  0  0  0  0  0
   29.9890   32.4720   36.1580 C   0  0  0  0  0  0  0  0  0  0  0  0
   30.3760   32.6170   34.8690 C   0  0  0  0  0  0  0  0  0  0  0  0
   31.1990   31.7540   34.1920 C   0  0  0  0  0  0  0  0  0  0  0  0
   31.6040   30.6940   34.9840 C   0  0  0  0  0  0  0  0  0  0  0  0
   31.3370   30.3490   36.3100 C   0  0  1  0  0  0  0  0  0  0  0  0
   32.5550   29.8020   37.8710 H   0  0  0  0  0  0  0  0  0  0  0  0
   29.9690   28.7720   37.4280 H   0  0  0  0  0  0  0  0  0  0  0  0
   29.4170   29.6460   39.3370 H   0  0  0  0  0  0  0  0  0  0  0  0
   31.0690   30.1720   39.6110 H   0  0  0  0  0  0  0  0  0  0  0  0
   29.4930   31.9040   38.7080 H   0  0  0  0  0  0  0  0  0  0  0  0
   29.3500   33.1940   36.5910 H   0  0  0  0  0  0  0  0  0  0  0  0
   29.9940   33.5030   34.3290 H   0  0  0  0  0  0  0  0  0  0  0  0
   31.4780   31.8990   33.1900 H   0  0  0  0  0  0  0  0  0  0  0  0
   32.2190   30.0400   34.3790 H   0  0  0  0  0  0  0  0  0  0  0  0
   34.0670   27.6350   34.7020 C   0  0  0  0  0  0  0  0  0  0  0  0
   35.2400   28.1390   35.2470 C   0  0  0  0  0  0  0  0  0  0  0  0
   35.1270   28.9460   36.3680 C   0  0  0  0  0  0  0  0  0  0  0  0
   33.8780   29.1690   36.8310 N   0  0  0  0  0  0  0  0  0  0  0  0
   32.7440   28.6630   36.2770 C   0  0  0  0  0  0  0  0  0  0  0  0
   32.9370   27.9430   35.2650 N   0  0  0  0  0  0  0  0  0  0  0  0
   34.0970   26.9960   33.8220 H   0  0  0  0  0  0  0  0  0  0  0  0
   36.2010   27.9080   34.8100 H   0  0  0  0  0  0  0  0  0  0  0  0
   36.6290   29.6270   37.0780 S   0  0  0  0  0  0  0  0  0  0  0  0
   36.3360   29.6960   38.8480 C   0  0  0  0  0  0  0  0  0  0  0  0
   35.9660   28.7460   39.7740 C   0  0  0  0  0  0  0  0  0  0  0  0
   35.8040   27.7200   39.4180 H   0  0  0  0  0  0  0  0  0  0  0  0
   35.8990   29.4100   40.9980 C   0  0  0  0  0  0  0  0  0  0  0  0
   35.6140   28.7830   41.8480 H   0  0  0  0  0  0  0  0  0  0  0  0
   36.2300   30.7200   40.7410 C   0  0  0  0  0  0  0  0  0  0  0  0
   36.2340   31.4040   41.5790 H   0  0  0  0  0  0  0  0  0  0  0  0
   36.4820   30.8530   39.4610 O   0  0  0  0  0  0  0  0  0  0  0  0
  1  2  1  0  0  0  0
  1 11  1  1  0  0  0
  2 12  1  6  0  0  0
  2  3  1  0  0  0  0
  3 13  1  0  0  0  0
  3 14  1  0  0  0  0
  4 15  1  0  0  0  0
  4  3  1  0  0  0  0
  5  6  1  6  0  0  0
  5  4  1  0  0  0  0
  6 16  1  0  0  0  0
  7  6  2  0  0  0  0
  8  7  1  0  0  0  0
  8  9  2  0  0  0  0
 10  9  1  6  0  0  0
 10  5  1  0  0  0  0
 10  1  1  0  0  0  0
 10  2  1  0  0  0  0
 17  7  1  0  0  0  0
 18  8  1  0  0  0  0
 19  9  1  0  0  0  0
 20 21  2  0  0  0  0
 20 25  1  0  0  0  0
 21 22  1  0  0  0  0
 22 23  2  0  0  0  0
 22 28  1  0  0  0  0
 24 23  1  0  0  0  0
 24  1  1  0  0  0  0
 25 24  2  0  0  0  0
 26 20  1  0  0  0  0
 27 21  1  0  0  0  0
 28 29  1  0  0  0  0
 29 36  1  0  0  0  0
 29 30  2  0  0  0  0
 30 32  1  0  0  0  0
 31 30  1  0  0  0  0
 32 33  1  0  0  0  0
 34 32  2  0  0  0  0
 34 35  1  0  0  0  0
 36 34  1  0  0  0  0
M  END
>  <minimizedAffinity>
-5.42964029

$$$$

 OpenBabel03242523403D

 36 40  0  0  1  0  0  0  0  0999 V2000
   37.1230   29.6880   41.9490 C   0  0  2  0  0  0  0  0  0  0  0  0
   37.0720   29.0730   43.0720 N   0  0  1  0  0  4  0  0  0  0  0  0
   36.7180   27.9160   43.4390 C   0  0  0  0  0  0  0  0  0  0  0  0
   38.0010   27.5430   43.5160 N   0  0  0  0  0  0  0  0  0  0  0  0
   38.9520   28.3510   42.9680 C   0  0  2  0  0  3  0  0  0  0  0  0
   40.3020   28.0110   43.2490 C   0  0  0  0  0  0  0  0  0  0  0  0
   41.2640   28.8190   42.7460 C   0  0  0  0  0  0  0  0  0  0  0  0
   41.0350   29.9390   41.9890 C   0  0  0  0  0  0  0  0  0  0  0  0
   39.6840   30.1620   41.7870 C   0  0  0  0  0  0  0  0  0  0  0  0
   38.5410   29.4750   42.1990 C   0  0  1  0  0  0  0  0  0  0  0  0
   36.8760   28.8240   41.1880 H   0  0  0  0  0  0  0  0  0  0  0  0
   36.8620   29.7740   43.8410 H   0  0  0  0  0  0  0  0  0  0  0  0
   36.1800   27.7980   44.4260 H   0  0  0  0  0  0  0  0  0  0  0  0
   36.1060   27.2910   42.7460 H   0  0  0  0  0  0  0  0  0  0  0  0
   38.1670   26.6220   44.0120 H   0  0  0  0  0  0  0  0  0  0  0  0
   40.5810   27.1680   43.8220 H   0  0  0  0  0  0  0  0  0  0  0  0
   42.3120   28.5470   42.9680 H   0  0  0  0  0  0  0  0  0  0  0  0
   41.8080   30.5440   41.6160 H   0  0  0  0  0  0  0  0  0  0  0  0
   39.5780   31.0750   41.2140 H   0  0  0  0  0  0  0  0  0  0  0  0
   37.4330   32.6400   39.7190 C   0  0  0  0  0  0  0  0  0  0  0  0
   37.1950   31.9460   38.5400 C   0  0  0  0  0  0  0  0  0  0  0  0
   36.9500   30.5850   38.6390 C   0  0  0  0  0  0  0  0  0  0  0  0
   36.9660   30.0550   39.8810 N   0  0  0  0  0  0  0  0  0  0  0  0
   37.2030   30.7570   41.0210 C   0  0  0  0  0  0  0  0  0  0  0  0
   37.4150   31.9830   40.8410 N   0  0  0  0  0  0  0  0  0  0  0  0
   37.6310   33.7090   39.7000 H   0  0  0  0  0  0  0  0  0  0  0  0
   37.2000   32.4530   37.5860 H   0  0  0  0  0  0  0  0  0  0  0  0
   36.6590   29.6640   37.1260 S   0  0  0  0  0  0  0  0  0  0  0  0
   38.0910   28.5990   36.9280 C   0  0  0  0  0  0  0  0  0  0  0  0
   38.2410   27.3050   36.4780 C   0  0  0  0  0  0  0  0  0  0  0  0
   37.3390   26.7650   36.1630 H   0  0  0  0  0  0  0  0  0  0  0  0
   39.6050   27.0280   36.5570 C   0  0  0  0  0  0  0  0  0  0  0  0
   39.8920   26.0240   36.2300 H   0  0  0  0  0  0  0  0  0  0  0  0
   40.1980   28.1680   37.0490 C   0  0  0  0  0  0  0  0  0  0  0  0
   41.2720   28.1490   37.1840 H   0  0  0  0  0  0  0  0  0  0  0  0
   39.2750   29.0740   37.2560 O   0  0  0  0  0  0  0  0  0  0  0  0
  1 11  1  6  0  0  0
  1 10  1  0  0  0  0
  1  2  1  0  0  0  0
  2  3  1  0  0  0  0
  2 12  1  1  0  0  0
  3  4  1  0  0  0  0
  3 13  1  0  0  0  0
  4 15  1  0  0  0  0
  5  6  1  1  0  0  0
  5  4  1  0  0  0  0
  6 16  1  0  0  0  0
  7 17  1  0  0  0  0
  7  6  2  0  0  0  0
  8  7  1  0  0  0  0
  9  8  2  0  0  0  0
 10  9  1  1  0  0  0
 10  5  1  0  0  0  0
 10  2  1  0  0  0  0
 14  3  1  0  0  0  0
 18  8  1  0  0  0  0
 19  9  1  0  0  0  0
 20 25  1  0  0  0  0
 21 22  1  0  0  0  0
 21 20  2  0  0  0  0
 22 23  2  0  0  0  0
 23 24  1  0  0  0  0
 24  1  1  0  0  0  0
 25 24  2  0  0  0  0
 26 20  1  0  0  0  0
 27 21  1  0  0  0  0
 28 22  1  0  0  0  0
 29 28  1  0  0  0  0
 29 36  1  0  0  0  0
 30 32  1  0  0  0  0
 30 29  2  0  0  0  0
 31 30  1  0  0  0  0
 32 34  2  0  0  0  0
 33 32  1  0  0  0  0
 34 35  1  0  0  0  0
 34 36  1  0  0  0  0
M  END
>  <minimizedAffinity>
-5.39918232

$$$$
