
 OpenBabel03252509083D

 40 43  0  0  0  0  0  0  0  0999 V2000
   47.5590   31.7730   38.9710 C   0  0  0  0  0  0  0  0  0  0  0  0
   47.1490   33.0720   38.9750 C   0  0  0  0  0  0  0  0  0  0  0  0
   47.8090   34.0110   38.1980 C   0  0  0  0  0  0  0  0  0  0  0  0
   48.8790   33.6280   37.4230 C   0  0  0  0  0  0  0  0  0  0  0  0
   49.3290   32.3100   37.3880 C   0  0  0  0  0  0  0  0  0  0  0  0
   48.6450   31.3820   38.1820 C   0  0  0  0  0  0  0  0  0  0  0  0
   47.5170   35.0500   38.1730 H   0  0  0  0  0  0  0  0  0  0  0  0
   49.4660   34.2630   36.7830 H   0  0  0  0  0  0  0  0  0  0  0  0
   50.1470   31.9430   36.8130 H   0  0  0  0  0  0  0  0  0  0  0  0
   48.9660   30.3420   38.1830 H   0  0  0  0  0  0  0  0  0  0  0  0
   45.3900   35.4490   43.2070 Cl  0  0  0  0  0  0  0  0  0  0  0  0
   45.2010   34.6550   41.6650 C   0  0  0  0  0  0  0  0  0  0  0  0
   46.2770   34.2130   40.9670 C   0  0  0  0  0  0  0  0  0  0  0  0
   46.0220   33.5780   39.7610 C   0  0  0  0  0  0  0  0  0  0  0  0
   44.7430   33.4030   39.2900 C   0  0  0  0  0  0  0  0  0  0  0  0
   43.6790   33.8520   40.0020 C   0  0  0  0  0  0  0  0  0  0  0  0
   43.9200   34.4810   41.1980 C   0  0  0  0  0  0  0  0  0  0  0  0
   44.6080   32.9030   38.3460 H   0  0  0  0  0  0  0  0  0  0  0  0
   42.6830   33.6990   39.6050 H   0  0  0  0  0  0  0  0  0  0  0  0
   43.0500   34.8310   41.7490 H   0  0  0  0  0  0  0  0  0  0  0  0
   49.5820   35.7730   41.9070 C   0  0  0  0  0  0  0  0  0  0  0  0
   48.2990   35.5940   41.3750 C   0  0  0  0  0  0  0  0  0  0  0  0
   47.6010   34.4100   41.5120 C   0  0  0  0  0  0  0  0  0  0  0  0
   48.2580   33.4420   42.2010 N   0  0  0  0  0  0  0  0  0  0  0  0
   49.4840   33.6050   42.7130 C   0  0  0  0  0  0  0  0  0  0  0  0
   50.1370   34.7610   42.5650 N   0  0  0  0  0  0  0  0  0  0  0  0
   50.0520   36.7360   41.7490 H   0  0  0  0  0  0  0  0  0  0  0  0
   47.8220   36.3990   40.8360 H   0  0  0  0  0  0  0  0  0  0  0  0
   49.8580   32.7310   43.2320 H   0  0  0  0  0  0  0  0  0  0  0  0
   46.7540   30.6000   39.8710 S   0  0  0  0  0  0  0  0  0  0  0  0
   45.4880   30.1210   39.1940 O   0  0  0  0  0  0  0  0  0  0  0  0
   47.6950   29.3420   39.7660 O   0  0  0  0  0  0  0  0  0  0  0  0
   46.3950   30.7310   41.5500 C   0  0  0  0  0  0  0  0  0  0  0  0
   47.2870   30.1790   42.5050 C   0  0  0  0  0  0  0  0  0  0  0  0
   48.2420   29.6410   42.3340 H   0  0  0  0  0  0  0  0  0  0  0  0
   46.8780   30.3550   43.8060 C   0  0  0  0  0  0  0  0  0  0  0  0
   47.3310   30.0550   44.7190 H   0  0  0  0  0  0  0  0  0  0  0  0
   45.7160   31.0290   43.6130 C   0  0  0  0  0  0  0  0  0  0  0  0
   45.0010   31.4040   44.3630 H   0  0  0  0  0  0  0  0  0  0  0  0
   45.5000   31.2070   42.3770 O   0  0  0  0  0  0  0  0  0  0  0  0
  1  2  1  0  0  0  0
  1 30  1  0  0  0  0
  2 14  1  0  0  0  0
  3  2  2  0  0  0  0
  4  3  1  0  0  0  0
  5  4  2  0  0  0  0
  5  6  1  0  0  0  0
  6 10  1  0  0  0  0
  6  1  2  0  0  0  0
  7  3  1  0  0  0  0
  8  4  1  0  0  0  0
  9  5  1  0  0  0  0
 12 11  1  0  0  0  0
 13 23  1  0  0  0  0
 13 12  2  0  0  0  0
 14 13  1  0  0  0  0
 15 14  2  0  0  0  0
 15 16  1  0  0  0  0
 16 17  2  0  0  0  0
 17 12  1  0  0  0  0
 17 20  1  0  0  0  0
 18 15  1  0  0  0  0
 19 16  1  0  0  0  0
 21 26  1  0  0  0  0
 22 23  1  0  0  0  0
 22 21  2  0  0  0  0
 23 24  2  0  0  0  0
 24 25  1  0  0  0  0
 25 29  1  0  0  0  0
 26 25  2  0  0  0  0
 27 21  1  0  0  0  0
 28 22  1  0  0  0  0
 30 33  1  0  0  0  0
 31 30  2  0  0  0  0
 32 30  2  0  0  0  0
 33 40  1  0  0  0  0
 33 34  2  0  0  0  0
 34 36  1  0  0  0  0
 35 34  1  0  0  0  0
 36 37  1  0  0  0  0
 38 36  2  0  0  0  0
 38 39  1  0  0  0  0
 40 38  1  0  0  0  0
M  END
>  <minimizedAffinity>
-4.6732173

>  <minimizedRMSD>
0.842093647

$$$$
