
 OpenBabel03252501173D

 34 37  0  0  1  0  0  0  0  0999 V2000
   38.2080   31.4170   40.0810 C   0  0  1  0  0  0  0  0  0  0  0  0
   37.5600   32.2490   39.0490 C   0  0  0  0  0  0  0  0  0  0  0  0
   37.9240   32.7920   40.4820 C   0  0  2  0  0  0  0  0  0  0  0  0
   39.2720   31.1010   39.8530 H   0  0  0  0  0  0  0  0  0  0  0  0
   38.1540   32.6720   38.2100 H   0  0  0  0  0  0  0  0  0  0  0  0
   36.4940   32.2280   38.8400 H   0  0  0  0  0  0  0  0  0  0  0  0
   37.0540   33.0280   41.0990 H   0  0  0  0  0  0  0  0  0  0  0  0
   36.9010   28.5980   42.1870 C   0  0  0  0  0  0  0  0  0  0  0  0
   37.7320   29.6290   41.7850 C   0  0  0  0  0  0  0  0  0  0  0  0
   37.3840   30.2900   40.6190 C   0  0  0  0  0  0  0  0  0  0  0  0
   36.2820   29.9220   39.9300 N   0  0  0  0  0  0  0  0  0  0  0  0
   35.4920   28.8970   40.3640 C   0  0  0  0  0  0  0  0  0  0  0  0
   35.8140   28.2400   41.4980 N   0  0  0  0  0  0  0  0  0  0  0  0
   38.6000   29.9220   42.3240 H   0  0  0  0  0  0  0  0  0  0  0  0
   34.6190   28.5920   39.8340 H   0  0  0  0  0  0  0  0  0  0  0  0
   37.2480   27.8720   43.4510 C   0  0  0  0  0  0  0  0  0  0  0  0
   36.2810   26.9160   43.6580 F   0  0  0  0  0  0  0  0  0  0  0  0
   37.1710   28.7840   44.4830 F   0  0  0  0  0  0  0  0  0  0  0  0
   38.4750   27.2790   43.3620 F   0  0  0  0  0  0  0  0  0  0  0  0
   39.0800   33.7370   40.4610 C   0  0  0  0  0  0  0  0  0  0  0  0
   39.0380   35.1130   40.2690 C   0  0  0  0  0  0  0  0  0  0  0  0
   40.3640   35.4740   40.3410 C   0  0  0  0  0  0  0  0  0  0  0  0
   41.1470   34.3510   40.5680 C   0  0  0  0  0  0  0  0  0  0  0  0
   40.3020   33.3470   40.6290 O   0  0  0  0  0  0  0  0  0  0  0  0
   38.1600   35.7080   40.1070 H   0  0  0  0  0  0  0  0  0  0  0  0
   40.7060   36.5080   40.2310 H   0  0  0  0  0  0  0  0  0  0  0  0
   42.6010   34.3460   40.7030 C   0  0  0  0  0  0  0  0  0  0  0  0
   43.3000   34.8850   41.7640 C   0  0  0  0  0  0  0  0  0  0  0  0
   42.9300   35.3850   42.6470 H   0  0  0  0  0  0  0  0  0  0  0  0
   44.6300   34.6230   41.4130 C   0  0  0  0  0  0  0  0  0  0  0  0
   45.5020   34.9000   42.0080 H   0  0  0  0  0  0  0  0  0  0  0  0
   44.6580   33.9590   40.1940 C   0  0  0  0  0  0  0  0  0  0  0  0
   45.5670   33.6280   39.6760 H   0  0  0  0  0  0  0  0  0  0  0  0
   43.3930   33.8160   39.8060 O   0  0  0  0  0  0  0  0  0  0  0  0
  1  4  1  6  0  0  0
  1  3  1  0  0  0  0
  1 10  1  0  0  0  0
  2  1  1  0  0  0  0
  2  3  1  0  0  0  0
  3  7  1  1  0  0  0
  5  2  1  0  0  0  0
  6  2  1  0  0  0  0
  8 16  1  0  0  0  0
  9  8  1  0  0  0  0
  9 14  1  0  0  0  0
 10  9  2  0  0  0  0
 11 12  2  0  0  0  0
 11 10  1  0  0  0  0
 12 13  1  0  0  0  0
 13  8  2  0  0  0  0
 15 12  1  0  0  0  0
 16 17  1  0  0  0  0
 16 18  1  0  0  0  0
 19 16  1  0  0  0  0
 20  3  1  0  0  0  0
 20 24  1  0  0  0  0
 21 22  1  0  0  0  0
 21 20  2  0  0  0  0
 22 23  2  0  0  0  0
 23 24  1  0  0  0  0
 23 27  1  0  0  0  0
 25 21  1  0  0  0  0
 26 22  1  0  0  0  0
 27 28  2  0  0  0  0
 28 29  1  0  0  0  0
 30 28  1  0  0  0  0
 30 31  1  0  0  0  0
 32 30  2  0  0  0  0
 33 32  1  0  0  0  0
 34 32  1  0  0  0  0
 34 27  1  0  0  0  0
M  END
>  <minimizedAffinity>
-6.30299616

$$$$

 OpenBabel03252501173D

 34 37  0  0  1  0  0  0  0  0999 V2000
   35.4310   28.7150   39.3820 C   0  0  1  0  0  0  0  0  0  0  0  0
   36.2410   29.4600   38.3980 C   0  0  0  0  0  0  0  0  0  0  0  0
   35.2820   28.2760   37.9970 C   0  0  2  0  0  0  0  0  0  0  0  0
   34.6060   29.3100   39.8810 H   0  0  0  0  0  0  0  0  0  0  0  0
   35.9270   30.4700   38.0560 H   0  0  0  0  0  0  0  0  0  0  0  0
   37.2940   29.2610   38.2100 H   0  0  0  0  0  0  0  0  0  0  0  0
   35.8040   27.3890   37.6310 H   0  0  0  0  0  0  0  0  0  0  0  0
   37.1250   27.4410   42.4800 C   0  0  0  0  0  0  0  0  0  0  0  0
   36.3930   28.2880   41.6670 C   0  0  0  0  0  0  0  0  0  0  0  0
   36.1990   27.8800   40.3580 C   0  0  0  0  0  0  0  0  0  0  0  0
   36.7130   26.7080   39.9260 N   0  0  0  0  0  0  0  0  0  0  0  0
   37.4300   25.9030   40.7640 C   0  0  0  0  0  0  0  0  0  0  0  0
   37.6300   26.2840   42.0440 N   0  0  0  0  0  0  0  0  0  0  0  0
   35.9880   29.2110   42.0020 H   0  0  0  0  0  0  0  0  0  0  0  0
   37.8430   24.9760   40.4420 H   0  0  0  0  0  0  0  0  0  0  0  0
   37.3420   27.8520   43.9050 C   0  0  0  0  0  0  0  0  0  0  0  0
   37.6320   29.1960   43.9080 F   0  0  0  0  0  0  0  0  0  0  0  0
   38.4540   27.1760   44.3620 F   0  0  0  0  0  0  0  0  0  0  0  0
   36.2310   27.6150   44.6640 F   0  0  0  0  0  0  0  0  0  0  0  0
   34.0580   28.7460   37.2850 C   0  0  0  0  0  0  0  0  0  0  0  0
   33.8690   28.8460   35.9110 C   0  0  0  0  0  0  0  0  0  0  0  0
   32.5850   29.3290   35.8110 C   0  0  0  0  0  0  0  0  0  0  0  0
   32.0450   29.5010   37.0780 C   0  0  0  0  0  0  0  0  0  0  0  0
   32.9910   29.1290   37.9100 O   0  0  0  0  0  0  0  0  0  0  0  0
   34.5830   28.5970   35.1500 H   0  0  0  0  0  0  0  0  0  0  0  0
   32.0980   29.5310   34.8510 H   0  0  0  0  0  0  0  0  0  0  0  0
   30.7020   29.9960   37.3660 C   0  0  0  0  0  0  0  0  0  0  0  0
   30.2010   30.2410   38.6290 C   0  0  0  0  0  0  0  0  0  0  0  0
   30.6770   30.1200   39.5910 H   0  0  0  0  0  0  0  0  0  0  0  0
   28.9040   30.6900   38.3570 C   0  0  0  0  0  0  0  0  0  0  0  0
   28.1730   30.9900   39.1110 H   0  0  0  0  0  0  0  0  0  0  0  0
   28.6990   30.6920   36.9840 C   0  0  0  0  0  0  0  0  0  0  0  0
   27.7720   30.9980   36.4850 H   0  0  0  0  0  0  0  0  0  0  0  0
   29.8280   30.2600   36.4280 O   0  0  0  0  0  0  0  0  0  0  0  0
  1  4  1  1  0  0  0
  1 10  1  0  0  0  0
  2  1  1  0  0  0  0
  3  7  1  6  0  0  0
  3  2  1  0  0  0  0
  3  1  1  0  0  0  0
  5  2  1  0  0  0  0
  6  2  1  0  0  0  0
  8 16  1  0  0  0  0
  9 14  1  0  0  0  0
  9  8  2  0  0  0  0
 10  9  1  0  0  0  0
 11 10  2  0  0  0  0
 11 12  1  0  0  0  0
 12 13  2  0  0  0  0
 13  8  1  0  0  0  0
 15 12  1  0  0  0  0
 16 17  1  0  0  0  0
 16 18  1  0  0  0  0
 16 19  1  0  0  0  0
 20 24  1  0  0  0  0
 20  3  1  0  0  0  0
 21 20  2  0  0  0  0
 22 21  1  0  0  0  0
 22 23  2  0  0  0  0
 23 27  1  0  0  0  0
 23 24  1  0  0  0  0
 25 21  1  0  0  0  0
 26 22  1  0  0  0  0
 27 28  2  0  0  0  0
 28 29  1  0  0  0  0
 30 28  1  0  0  0  0
 30 31  1  0  0  0  0
 32 30  2  0  0  0  0
 33 32  1  0  0  0  0
 34 32  1  0  0  0  0
 34 27  1  0  0  0  0
M  END
>  <minimizedAffinity>
-6.01146173

$$$$

 OpenBabel03252501173D

 34 37  0  0  1  0  0  0  0  0999 V2000
   39.4820   30.5740   41.1690 C   0  0  1  0  0  0  0  0  0  0  0  0
   40.4070   30.1520   42.2390 C   0  0  0  0  0  0  0  0  0  0  0  0
   38.8610   30.3450   42.4710 C   0  0  2  0  0  0  0  0  0  0  0  0
   39.3350   29.8260   40.3310 H   0  0  0  0  0  0  0  0  0  0  0  0
   40.7730   29.1030   42.2880 H   0  0  0  0  0  0  0  0  0  0  0  0
   41.0300   30.8410   42.8030 H   0  0  0  0  0  0  0  0  0  0  0  0
   38.6150   31.1810   43.1300 H   0  0  0  0  0  0  0  0  0  0  0  0
   40.7870   33.6140   39.3950 C   0  0  0  0  0  0  0  0  0  0  0  0
   40.7040   32.2920   39.7970 C   0  0  0  0  0  0  0  0  0  0  0  0
   39.6700   31.9680   40.6590 C   0  0  0  0  0  0  0  0  0  0  0  0
   38.8010   32.9180   41.0710 N   0  0  0  0  0  0  0  0  0  0  0  0
   38.9230   34.2110   40.6480 C   0  0  0  0  0  0  0  0  0  0  0  0
   39.9250   34.5470   39.8080 N   0  0  0  0  0  0  0  0  0  0  0  0
   41.3840   31.5420   39.4770 H   0  0  0  0  0  0  0  0  0  0  0  0
   38.2490   34.9740   40.9610 H   0  0  0  0  0  0  0  0  0  0  0  0
   41.8900   33.9910   38.4540 C   0  0  0  0  0  0  0  0  0  0  0  0
   41.8800   35.3610   38.3320 F   0  0  0  0  0  0  0  0  0  0  0  0
   41.5810   33.4520   37.2220 F   0  0  0  0  0  0  0  0  0  0  0  0
   43.1050   33.5750   38.9200 F   0  0  0  0  0  0  0  0  0  0  0  0
   38.1400   29.0490   42.6380 C   0  0  0  0  0  0  0  0  0  0  0  0
   37.5140   28.5770   43.7860 C   0  0  0  0  0  0  0  0  0  0  0  0
   37.0230   27.3550   43.3880 C   0  0  0  0  0  0  0  0  0  0  0  0
   37.3490   27.1250   42.0590 C   0  0  0  0  0  0  0  0  0  0  0  0
   38.0190   28.1890   41.6790 O   0  0  0  0  0  0  0  0  0  0  0  0
   37.4540   29.0790   44.7330 H   0  0  0  0  0  0  0  0  0  0  0  0
   36.4610   26.6930   44.0560 H   0  0  0  0  0  0  0  0  0  0  0  0
   36.9950   25.9330   41.2950 C   0  0  0  0  0  0  0  0  0  0  0  0
   36.9260   24.6540   41.8080 C   0  0  0  0  0  0  0  0  0  0  0  0
   37.1090   24.3070   42.8140 H   0  0  0  0  0  0  0  0  0  0  0  0
   36.5540   23.8990   40.6890 C   0  0  0  0  0  0  0  0  0  0  0  0
   36.3940   22.8190   40.6860 H   0  0  0  0  0  0  0  0  0  0  0  0
   36.4230   24.7420   39.5930 C   0  0  0  0  0  0  0  0  0  0  0  0
   36.1400   24.4230   38.5830 H   0  0  0  0  0  0  0  0  0  0  0  0
   36.7040   25.9710   40.0190 O   0  0  0  0  0  0  0  0  0  0  0  0
  1  4  1  6  0  0  0
  1  2  1  0  0  0  0
  1  3  1  0  0  0  0
  2  5  1  0  0  0  0
  2  3  1  0  0  0  0
  2  6  1  0  0  0  0
  3 20  1  0  0  0  0
  3  7  1  1  0  0  0
  8  9  2  0  0  0  0
  8 13  1  0  0  0  0
  9 10  1  0  0  0  0
 10 11  2  0  0  0  0
 10  1  1  0  0  0  0
 12 15  1  0  0  0  0
 12 11  1  0  0  0  0
 13 12  2  0  0  0  0
 14  9  1  0  0  0  0
 16 19  1  0  0  0  0
 16  8  1  0  0  0  0
 17 16  1  0  0  0  0
 18 16  1  0  0  0  0
 20 21  2  0  0  0  0
 21 25  1  0  0  0  0
 22 21  1  0  0  0  0
 22 26  1  0  0  0  0
 23 22  2  0  0  0  0
 24 23  1  0  0  0  0
 24 20  1  0  0  0  0
 27 28  2  0  0  0  0
 27 23  1  0  0  0  0
 28 29  1  0  0  0  0
 30 28  1  0  0  0  0
 31 30  1  0  0  0  0
 32 34  1  0  0  0  0
 32 30  2  0  0  0  0
 33 32  1  0  0  0  0
 34 27  1  0  0  0  0
M  END
>  <minimizedAffinity>
-5.83485365

$$$$

 OpenBabel03252501173D

 34 37  0  0  1  0  0  0  0  0999 V2000
   36.1100   28.5450   40.3050 C   0  0  1  0  0  0  0  0  0  0  0  0
   35.7950   29.9870   40.3520 C   0  0  0  0  0  0  0  0  0  0  0  0
   36.7520   29.3550   39.2720 C   0  0  2  0  0  0  0  0  0  0  0  0
   35.2440   27.8670   40.0370 H   0  0  0  0  0  0  0  0  0  0  0  0
   34.8220   30.3640   39.9700 H   0  0  0  0  0  0  0  0  0  0  0  0
   36.2840   30.6890   41.0220 H   0  0  0  0  0  0  0  0  0  0  0  0
   37.7940   29.6660   39.3700 H   0  0  0  0  0  0  0  0  0  0  0  0
   38.1860   26.3630   42.5450 C   0  0  0  0  0  0  0  0  0  0  0  0
   37.4710   26.7510   41.4250 C   0  0  0  0  0  0  0  0  0  0  0  0
   36.9120   28.0170   41.4530 C   0  0  0  0  0  0  0  0  0  0  0  0
   37.0730   28.8110   42.5340 N   0  0  0  0  0  0  0  0  0  0  0  0
   37.7870   28.3850   43.6180 C   0  0  0  0  0  0  0  0  0  0  0  0
   38.3400   27.1540   43.6090 N   0  0  0  0  0  0  0  0  0  0  0  0
   37.3410   26.1310   40.5730 H   0  0  0  0  0  0  0  0  0  0  0  0
   37.9250   28.9960   44.4790 H   0  0  0  0  0  0  0  0  0  0  0  0
   38.8120   25.0010   42.5380 C   0  0  0  0  0  0  0  0  0  0  0  0
   37.7950   24.0780   42.6090 F   0  0  0  0  0  0  0  0  0  0  0  0
   39.5660   24.8910   43.6880 F   0  0  0  0  0  0  0  0  0  0  0  0
   39.5460   24.7970   41.4040 F   0  0  0  0  0  0  0  0  0  0  0  0
   36.1320   29.3050   37.9150 C   0  0  0  0  0  0  0  0  0  0  0  0
   34.9100   28.7370   37.5690 C   0  0  0  0  0  0  0  0  0  0  0  0
   34.8370   28.9680   36.2150 C   0  0  0  0  0  0  0  0  0  0  0  0
   35.9710   29.6450   35.7880 C   0  0  0  0  0  0  0  0  0  0  0  0
   36.7000   29.8110   36.8690 O   0  0  0  0  0  0  0  0  0  0  0  0
   34.2240   28.2480   38.2320 H   0  0  0  0  0  0  0  0  0  0  0  0
   33.9880   28.6470   35.6010 H   0  0  0  0  0  0  0  0  0  0  0  0
   36.2430   30.0600   34.4160 C   0  0  0  0  0  0  0  0  0  0  0  0
   36.2930   31.3680   33.9790 C   0  0  0  0  0  0  0  0  0  0  0  0
   36.1480   32.2830   34.5340 H   0  0  0  0  0  0  0  0  0  0  0  0
   36.5810   31.2210   32.6170 C   0  0  0  0  0  0  0  0  0  0  0  0
   36.7020   32.0430   31.9080 H   0  0  0  0  0  0  0  0  0  0  0  0
   36.6860   29.8690   32.3160 C   0  0  0  0  0  0  0  0  0  0  0  0
   36.9060   29.4590   31.3230 H   0  0  0  0  0  0  0  0  0  0  0  0
   36.4710   29.2070   33.4500 O   0  0  0  0  0  0  0  0  0  0  0  0
  1  4  1  6  0  0  0
  1  2  1  0  0  0  0
  1 10  1  0  0  0  0
  2  6  1  0  0  0  0
  3  7  1  1  0  0  0
  3  1  1  0  0  0  0
  3  2  1  0  0  0  0
  5  2  1  0  0  0  0
  8 13  1  0  0  0  0
  9 10  1  0  0  0  0
  9  8  2  0  0  0  0
 10 11  2  0  0  0  0
 11 12  1  0  0  0  0
 12 15  1  0  0  0  0
 13 12  2  0  0  0  0
 14  9  1  0  0  0  0
 16  8  1  0  0  0  0
 16 17  1  0  0  0  0
 16 18  1  0  0  0  0
 19 16  1  0  0  0  0
 20  3  1  0  0  0  0
 21 20  2  0  0  0  0
 21 25  1  0  0  0  0
 22 21  1  0  0  0  0
 23 22  2  0  0  0  0
 23 24  1  0  0  0  0
 24 20  1  0  0  0  0
 26 22  1  0  0  0  0
 27 23  1  0  0  0  0
 28 27  2  0  0  0  0
 28 29  1  0  0  0  0
 30 28  1  0  0  0  0
 31 30  1  0  0  0  0
 32 30  2  0  0  0  0
 32 34  1  0  0  0  0
 33 32  1  0  0  0  0
 34 27  1  0  0  0  0
M  END
>  <minimizedAffinity>
-5.72709036

$$$$

 OpenBabel03252501173D

 34 37  0  0  1  0  0  0  0  0999 V2000
   34.9190   29.0200   38.9650 C   0  0  1  0  0  0  0  0  0  0  0  0
   35.5340   29.4310   37.6870 C   0  0  0  0  0  0  0  0  0  0  0  0
   34.2670   28.4980   37.7660 C   0  0  2  0  0  0  0  0  0  0  0  0
   34.4320   29.8520   39.5590 H   0  0  0  0  0  0  0  0  0  0  0  0
   35.3550   30.4490   37.2760 H   0  0  0  0  0  0  0  0  0  0  0  0
   36.4110   28.9530   37.2590 H   0  0  0  0  0  0  0  0  0  0  0  0
   34.4500   27.4750   37.4290 H   0  0  0  0  0  0  0  0  0  0  0  0
   36.7720   27.5050   41.8560 C   0  0  0  0  0  0  0  0  0  0  0  0
   35.9860   28.4050   41.1580 C   0  0  0  0  0  0  0  0  0  0  0  0
   35.7480   28.1190   39.8240 C   0  0  0  0  0  0  0  0  0  0  0  0
   36.2720   27.0080   39.2610 N   0  0  0  0  0  0  0  0  0  0  0  0
   37.0440   26.1480   39.9890 C   0  0  0  0  0  0  0  0  0  0  0  0
   37.2870   26.4100   41.2910 N   0  0  0  0  0  0  0  0  0  0  0  0
   35.5710   29.2790   41.5960 H   0  0  0  0  0  0  0  0  0  0  0  0
   37.4660   25.2680   39.5630 H   0  0  0  0  0  0  0  0  0  0  0  0
   37.0370   27.7840   43.3040 C   0  0  0  0  0  0  0  0  0  0  0  0
   37.2680   29.1340   43.4300 F   0  0  0  0  0  0  0  0  0  0  0  0
   38.1990   27.1220   43.6440 F   0  0  0  0  0  0  0  0  0  0  0  0
   35.9760   27.4200   44.0830 F   0  0  0  0  0  0  0  0  0  0  0  0
   33.0160   29.1920   37.3420 C   0  0  0  0  0  0  0  0  0  0  0  0
   31.9160   29.5030   38.1340 C   0  0  0  0  0  0  0  0  0  0  0  0
   31.0650   30.1230   37.2490 C   0  0  0  0  0  0  0  0  0  0  0  0
   31.6470   30.1740   35.9900 C   0  0  0  0  0  0  0  0  0  0  0  0
   32.8190   29.5940   36.1280 O   0  0  0  0  0  0  0  0  0  0  0  0
   31.8030   29.2900   39.1790 H   0  0  0  0  0  0  0  0  0  0  0  0
   30.0820   30.5080   37.5390 H   0  0  0  0  0  0  0  0  0  0  0  0
   31.0400   30.7600   34.7990 C   0  0  0  0  0  0  0  0  0  0  0  0
   30.9170   32.1130   34.5560 C   0  0  0  0  0  0  0  0  0  0  0  0
   31.2280   32.9500   35.1630 H   0  0  0  0  0  0  0  0  0  0  0  0
   30.2810   32.1390   33.3090 C   0  0  0  0  0  0  0  0  0  0  0  0
   30.0040   33.0440   32.7650 H   0  0  0  0  0  0  0  0  0  0  0  0
   30.0610   30.8360   32.8810 C   0  0  0  0  0  0  0  0  0  0  0  0
   29.5800   30.5550   31.9370 H   0  0  0  0  0  0  0  0  0  0  0  0
   30.5440   30.0350   33.8280 O   0  0  0  0  0  0  0  0  0  0  0  0
  1  4  1  1  0  0  0
  1 10  1  0  0  0  0
  2  3  1  0  0  0  0
  2  1  1  0  0  0  0
  3  7  1  6  0  0  0
  3  1  1  0  0  0  0
  5  2  1  0  0  0  0
  6  2  1  0  0  0  0
  8 16  1  0  0  0  0
  9 14  1  0  0  0  0
  9  8  2  0  0  0  0
 10  9  1  0  0  0  0
 11 10  2  0  0  0  0
 11 12  1  0  0  0  0
 12 13  2  0  0  0  0
 13  8  1  0  0  0  0
 15 12  1  0  0  0  0
 16 17  1  0  0  0  0
 16 18  1  0  0  0  0
 16 19  1  0  0  0  0
 20  3  1  0  0  0  0
 20 21  2  0  0  0  0
 21 25  1  0  0  0  0
 22 26  1  0  0  0  0
 22 21  1  0  0  0  0
 23 24  1  0  0  0  0
 23 22  2  0  0  0  0
 24 20  1  0  0  0  0
 27 23  1  0  0  0  0
 28 27  2  0  0  0  0
 28 29  1  0  0  0  0
 30 28  1  0  0  0  0
 31 30  1  0  0  0  0
 32 30  2  0  0  0  0
 32 34  1  0  0  0  0
 33 32  1  0  0  0  0
 34 27  1  0  0  0  0
M  END
>  <minimizedAffinity>
-5.70237923

$$$$

 OpenBabel03252501173D

 34 37  0  0  1  0  0  0  0  0999 V2000
   35.8700   29.9230   39.4670 C   0  0  1  0  0  0  0  0  0  0  0  0
   36.5330   30.2300   38.1840 C   0  0  0  0  0  0  0  0  0  0  0  0
   35.7940   28.8660   38.4610 C   0  0  2  0  0  0  0  0  0  0  0  0
   34.9550   30.5480   39.7030 H   0  0  0  0  0  0  0  0  0  0  0  0
   36.0450   30.8980   37.4430 H   0  0  0  0  0  0  0  0  0  0  0  0
   37.6030   30.1290   38.0200 H   0  0  0  0  0  0  0  0  0  0  0  0
   36.4620   28.0030   38.5040 H   0  0  0  0  0  0  0  0  0  0  0  0
   37.4520   28.7670   42.6690 C   0  0  0  0  0  0  0  0  0  0  0  0
   36.5540   28.8100   41.6160 C   0  0  0  0  0  0  0  0  0  0  0  0
   36.7760   29.7740   40.6480 C   0  0  0  0  0  0  0  0  0  0  0  0
   37.8260   30.6180   40.7540 N   0  0  0  0  0  0  0  0  0  0  0  0
   38.6860   30.5390   41.8120 C   0  0  0  0  0  0  0  0  0  0  0  0
   38.4860   29.6050   42.7660 N   0  0  0  0  0  0  0  0  0  0  0  0
   35.7270   28.1490   41.5280 H   0  0  0  0  0  0  0  0  0  0  0  0
   39.5190   31.1950   41.9140 H   0  0  0  0  0  0  0  0  0  0  0  0
   37.2410   27.7260   43.7260 C   0  0  0  0  0  0  0  0  0  0  0  0
   36.3490   26.8040   43.2280 F   0  0  0  0  0  0  0  0  0  0  0  0
   36.6500   28.3500   44.8050 F   0  0  0  0  0  0  0  0  0  0  0  0
   38.4140   27.1060   44.0540 F   0  0  0  0  0  0  0  0  0  0  0  0
   34.5030   28.7530   37.7210 C   0  0  0  0  0  0  0  0  0  0  0  0
   34.2760   28.0840   36.5240 C   0  0  0  0  0  0  0  0  0  0  0  0
   32.9360   28.3010   36.2990 C   0  0  0  0  0  0  0  0  0  0  0  0
   32.4030   29.0650   37.3270 C   0  0  0  0  0  0  0  0  0  0  0  0
   33.4070   29.2960   38.1430 O   0  0  0  0  0  0  0  0  0  0  0  0
   35.0020   27.5430   35.9480 H   0  0  0  0  0  0  0  0  0  0  0  0
   32.4080   27.9070   35.4240 H   0  0  0  0  0  0  0  0  0  0  0  0
   31.0110   29.4930   37.4300 C   0  0  0  0  0  0  0  0  0  0  0  0
   30.4840   30.2340   38.4690 C   0  0  0  0  0  0  0  0  0  0  0  0
   30.9700   30.6170   39.3540 H   0  0  0  0  0  0  0  0  0  0  0  0
   29.1430   30.3720   38.0920 C   0  0  0  0  0  0  0  0  0  0  0  0
   28.3820   30.9050   38.6650 H   0  0  0  0  0  0  0  0  0  0  0  0
   28.9410   29.7240   36.8800 C   0  0  0  0  0  0  0  0  0  0  0  0
   27.9850   29.6690   36.3460 H   0  0  0  0  0  0  0  0  0  0  0  0
   30.1130   29.2060   36.5220 O   0  0  0  0  0  0  0  0  0  0  0  0
  1  4  1  1  0  0  0
  1 10  1  0  0  0  0
  2  3  1  0  0  0  0
  2  1  1  0  0  0  0
  3  7  1  1  0  0  0
  3  1  1  0  0  0  0
  5  2  1  0  0  0  0
  6  2  1  0  0  0  0
  8 13  1  0  0  0  0
  8 16  1  0  0  0  0
  9  8  2  0  0  0  0
 10 11  2  0  0  0  0
 10  9  1  0  0  0  0
 11 12  1  0  0  0  0
 12 15  1  0  0  0  0
 12 13  2  0  0  0  0
 14  9  1  0  0  0  0
 16 19  1  0  0  0  0
 16 18  1  0  0  0  0
 17 16  1  0  0  0  0
 20 24  1  0  0  0  0
 20  3  1  0  0  0  0
 21 20  2  0  0  0  0
 22 21  1  0  0  0  0
 22 23  2  0  0  0  0
 23 27  1  0  0  0  0
 23 24  1  0  0  0  0
 25 21  1  0  0  0  0
 26 22  1  0  0  0  0
 27 28  2  0  0  0  0
 28 29  1  0  0  0  0
 30 28  1  0  0  0  0
 30 31  1  0  0  0  0
 32 30  2  0  0  0  0
 33 32  1  0  0  0  0
 34 32  1  0  0  0  0
 34 27  1  0  0  0  0
M  END
>  <minimizedAffinity>
-5.68385363

$$$$

 OpenBabel03252501173D

 34 37  0  0  1  0  0  0  0  0999 V2000
   35.8030   29.1570   38.7900 C   0  0  1  0  0  0  0  0  0  0  0  0
   36.4230   28.2680   37.7880 C   0  0  0  0  0  0  0  0  0  0  0  0
   35.0020   27.9960   38.4100 C   0  0  2  0  0  0  0  0  0  0  0  0
   35.5200   30.1880   38.4150 H   0  0  0  0  0  0  0  0  0  0  0  0
   36.4310   28.5490   36.7120 H   0  0  0  0  0  0  0  0  0  0  0  0
   37.1660   27.5120   38.0310 H   0  0  0  0  0  0  0  0  0  0  0  0
   34.9600   27.1100   39.0470 H   0  0  0  0  0  0  0  0  0  0  0  0
   37.0010   28.3240   42.2480 C   0  0  0  0  0  0  0  0  0  0  0  0
   36.3390   28.1740   41.0410 C   0  0  0  0  0  0  0  0  0  0  0  0
   36.4760   29.2020   40.1250 C   0  0  0  0  0  0  0  0  0  0  0  0
   37.2250   30.2870   40.4230 N   0  0  0  0  0  0  0  0  0  0  0  0
   37.8590   30.3920   41.6280 C   0  0  0  0  0  0  0  0  0  0  0  0
   37.7380   29.3990   42.5350 N   0  0  0  0  0  0  0  0  0  0  0  0
   35.7500   27.3230   40.8020 H   0  0  0  0  0  0  0  0  0  0  0  0
   38.4540   31.2390   41.8820 H   0  0  0  0  0  0  0  0  0  0  0  0
   36.8790   27.2200   43.2550 C   0  0  0  0  0  0  0  0  0  0  0  0
   38.0570   27.1740   43.9620 F   0  0  0  0  0  0  0  0  0  0  0  0
   36.7560   26.0380   42.5550 F   0  0  0  0  0  0  0  0  0  0  0  0
   35.8340   27.4390   44.1070 F   0  0  0  0  0  0  0  0  0  0  0  0
   33.8940   28.2490   37.4410 C   0  0  0  0  0  0  0  0  0  0  0  0
   33.3020   27.3300   36.5820 C   0  0  0  0  0  0  0  0  0  0  0  0
   32.3580   28.0860   35.9270 C   0  0  0  0  0  0  0  0  0  0  0  0
   32.3960   29.3940   36.3880 C   0  0  0  0  0  0  0  0  0  0  0  0
   33.3450   29.4110   37.2970 O   0  0  0  0  0  0  0  0  0  0  0  0
   33.5550   26.2920   36.4870 H   0  0  0  0  0  0  0  0  0  0  0  0
   31.6920   27.6740   35.1610 H   0  0  0  0  0  0  0  0  0  0  0  0
   31.5400   30.4810   35.9240 C   0  0  0  0  0  0  0  0  0  0  0  0
   31.4050   30.8780   34.6100 C   0  0  0  0  0  0  0  0  0  0  0  0
   31.8790   30.4860   33.7220 H   0  0  0  0  0  0  0  0  0  0  0  0
   30.4890   31.9330   34.7050 C   0  0  0  0  0  0  0  0  0  0  0  0
   30.1180   32.5200   33.8630 H   0  0  0  0  0  0  0  0  0  0  0  0
   30.1320   32.1080   36.0350 C   0  0  0  0  0  0  0  0  0  0  0  0
   29.4280   32.8630   36.4050 H   0  0  0  0  0  0  0  0  0  0  0  0
   30.8020   31.1960   36.7350 O   0  0  0  0  0  0  0  0  0  0  0  0
  1  4  1  6  0  0  0
  1 10  1  0  0  0  0
  2  6  1  0  0  0  0
  2  3  1  0  0  0  0
  2  1  1  0  0  0  0
  3  1  1  0  0  0  0
  3  7  1  1  0  0  0
  5  2  1  0  0  0  0
  8 13  1  0  0  0  0
  8 16  1  0  0  0  0
  9  8  2  0  0  0  0
 10 11  2  0  0  0  0
 10  9  1  0  0  0  0
 11 12  1  0  0  0  0
 12 15  1  0  0  0  0
 12 13  2  0  0  0  0
 14  9  1  0  0  0  0
 16 17  1  0  0  0  0
 16 19  1  0  0  0  0
 18 16  1  0  0  0  0
 20  3  1  0  0  0  0
 21 20  2  0  0  0  0
 22 23  2  0  0  0  0
 22 21  1  0  0  0  0
 23 24  1  0  0  0  0
 24 20  1  0  0  0  0
 25 21  1  0  0  0  0
 26 22  1  0  0  0  0
 27 23  1  0  0  0  0
 27 34  1  0  0  0  0
 28 30  1  0  0  0  0
 28 27  2  0  0  0  0
 29 28  1  0  0  0  0
 30 32  2  0  0  0  0
 31 30  1  0  0  0  0
 32 33  1  0  0  0  0
 32 34  1  0  0  0  0
M  END
>  <minimizedAffinity>
-5.60950136

$$$$

 OpenBabel03252501173D

 34 37  0  0  1  0  0  0  0  0999 V2000
   38.2980   30.2150   40.6790 C   0  0  1  0  0  0  0  0  0  0  0  0
   37.2170   30.7740   39.8420 C   0  0  0  0  0  0  0  0  0  0  0  0
   37.9030   31.5830   41.0060 C   0  0  2  0  0  0  0  0  0  0  0  0
   39.2760   30.0210   40.1420 H   0  0  0  0  0  0  0  0  0  0  0  0
   37.4310   31.1370   38.8130 H   0  0  0  0  0  0  0  0  0  0  0  0
   36.1620   30.5690   40.0050 H   0  0  0  0  0  0  0  0  0  0  0  0
   37.2410   31.7890   41.8500 H   0  0  0  0  0  0  0  0  0  0  0  0
   37.3530   26.8340   42.0050 C   0  0  0  0  0  0  0  0  0  0  0  0
   37.7210   27.8020   41.0870 C   0  0  0  0  0  0  0  0  0  0  0  0
   37.9060   29.0840   41.5760 C   0  0  0  0  0  0  0  0  0  0  0  0
   37.7290   29.3460   42.8890 N   0  0  0  0  0  0  0  0  0  0  0  0
   37.3640   28.3580   43.7590 C   0  0  0  0  0  0  0  0  0  0  0  0
   37.1780   27.1020   43.3020 N   0  0  0  0  0  0  0  0  0  0  0  0
   37.8610   27.6010   40.0530 H   0  0  0  0  0  0  0  0  0  0  0  0
   37.2200   28.5450   44.7980 H   0  0  0  0  0  0  0  0  0  0  0  0
   37.1540   25.4350   41.5060 C   0  0  0  0  0  0  0  0  0  0  0  0
   36.4830   24.7380   42.4830 F   0  0  0  0  0  0  0  0  0  0  0  0
   38.4050   24.8690   41.3630 F   0  0  0  0  0  0  0  0  0  0  0  0
   36.4330   25.4190   40.3460 F   0  0  0  0  0  0  0  0  0  0  0  0
   38.7980   32.6660   40.5020 C   0  0  0  0  0  0  0  0  0  0  0  0
   38.5420   34.0320   40.4930 C   0  0  0  0  0  0  0  0  0  0  0  0
   39.6820   34.5550   39.9260 C   0  0  0  0  0  0  0  0  0  0  0  0
   40.5690   33.5320   39.6190 C   0  0  0  0  0  0  0  0  0  0  0  0
   39.9650   32.4270   39.9970 O   0  0  0  0  0  0  0  0  0  0  0  0
   37.6550   34.5180   40.8500 H   0  0  0  0  0  0  0  0  0  0  0  0
   39.8270   35.6280   39.7610 H   0  0  0  0  0  0  0  0  0  0  0  0
   41.8820   33.7050   39.0070 C   0  0  0  0  0  0  0  0  0  0  0  0
   42.1160   33.8240   37.6520 C   0  0  0  0  0  0  0  0  0  0  0  0
   41.4140   33.8120   36.8310 H   0  0  0  0  0  0  0  0  0  0  0  0
   43.5070   33.9660   37.5970 C   0  0  0  0  0  0  0  0  0  0  0  0
   44.0900   34.0880   36.6810 H   0  0  0  0  0  0  0  0  0  0  0  0
   44.0220   33.9260   38.8860 C   0  0  0  0  0  0  0  0  0  0  0  0
   45.0840   34.0130   39.1440 H   0  0  0  0  0  0  0  0  0  0  0  0
   42.9870   33.7650   39.7070 O   0  0  0  0  0  0  0  0  0  0  0  0
  1  4  1  6  0  0  0
  1  3  1  0  0  0  0
  1 10  1  0  0  0  0
  2  6  1  0  0  0  0
  2  1  1  0  0  0  0
  2  3  1  0  0  0  0
  3  7  1  1  0  0  0
  5  2  1  0  0  0  0
  8 13  1  0  0  0  0
  9 10  1  0  0  0  0
  9  8  2  0  0  0  0
 10 11  2  0  0  0  0
 11 12  1  0  0  0  0
 12 15  1  0  0  0  0
 13 12  2  0  0  0  0
 14  9  1  0  0  0  0
 16  8  1  0  0  0  0
 16 17  1  0  0  0  0
 18 16  1  0  0  0  0
 19 16  1  0  0  0  0
 20  3  1  0  0  0  0
 21 20  2  0  0  0  0
 21 25  1  0  0  0  0
 22 21  1  0  0  0  0
 23 22  2  0  0  0  0
 23 24  1  0  0  0  0
 24 20  1  0  0  0  0
 26 22  1  0  0  0  0
 27 23  1  0  0  0  0
 27 34  1  0  0  0  0
 28 27  2  0  0  0  0
 29 28  1  0  0  0  0
 30 28  1  0  0  0  0
 30 32  2  0  0  0  0
 31 30  1  0  0  0  0
 32 33  1  0  0  0  0
 32 34  1  0  0  0  0
M  END
>  <minimizedAffinity>
-5.58374405

$$$$

 OpenBabel03252501173D

 34 37  0  0  1  0  0  0  0  0999 V2000
   38.2480   31.9900   40.8290 C   0  0  1  0  0  0  0  0  0  0  0  0
   37.1090   31.6420   39.9570 C   0  0  0  0  0  0  0  0  0  0  0  0
   38.3450   30.6900   40.1700 C   0  0  2  0  0  0  0  0  0  0  0  0
   38.0120   32.0480   41.9350 H   0  0  0  0  0  0  0  0  0  0  0  0
   36.1500   31.2890   40.3940 H   0  0  0  0  0  0  0  0  0  0  0  0
   36.9980   32.0050   38.9380 H   0  0  0  0  0  0  0  0  0  0  0  0
   38.9610   30.5590   39.2770 H   0  0  0  0  0  0  0  0  0  0  0  0
   40.9690   34.0580   39.2790 C   0  0  0  0  0  0  0  0  0  0  0  0
   40.2600   32.9280   39.6490 C   0  0  0  0  0  0  0  0  0  0  0  0
   39.0950   33.1330   40.3680 C   0  0  0  0  0  0  0  0  0  0  0  0
   38.6960   34.3860   40.6790 N   0  0  0  0  0  0  0  0  0  0  0  0
   39.4290   35.4720   40.2940 C   0  0  0  0  0  0  0  0  0  0  0  0
   40.5690   35.2930   39.5920 N   0  0  0  0  0  0  0  0  0  0  0  0
   40.5700   31.9410   39.4070 H   0  0  0  0  0  0  0  0  0  0  0  0
   39.1320   36.4680   40.5290 H   0  0  0  0  0  0  0  0  0  0  0  0
   42.2300   33.8670   38.4910 C   0  0  0  0  0  0  0  0  0  0  0  0
   42.4720   32.5150   38.4190 F   0  0  0  0  0  0  0  0  0  0  0  0
   43.2550   34.4450   39.2110 F   0  0  0  0  0  0  0  0  0  0  0  0
   42.1120   34.3850   37.2330 F   0  0  0  0  0  0  0  0  0  0  0  0
   38.0150   29.5000   41.0080 C   0  0  0  0  0  0  0  0  0  0  0  0
   37.4930   29.4960   42.2960 C   0  0  0  0  0  0  0  0  0  0  0  0
   37.3900   28.1550   42.5830 C   0  0  0  0  0  0  0  0  0  0  0  0
   37.8340   27.4050   41.5030 C   0  0  0  0  0  0  0  0  0  0  0  0
   38.1910   28.2860   40.5960 O   0  0  0  0  0  0  0  0  0  0  0  0
   37.2460   30.3580   42.8860 H   0  0  0  0  0  0  0  0  0  0  0  0
   37.0070   27.7780   43.5380 H   0  0  0  0  0  0  0  0  0  0  0  0
   37.8720   25.9470   41.4430 C   0  0  0  0  0  0  0  0  0  0  0  0
   36.9870   25.1040   42.0830 C   0  0  0  0  0  0  0  0  0  0  0  0
   36.1450   25.3450   42.7150 H   0  0  0  0  0  0  0  0  0  0  0  0
   37.4520   23.8380   41.7090 C   0  0  0  0  0  0  0  0  0  0  0  0
   37.0080   22.8890   42.0190 H   0  0  0  0  0  0  0  0  0  0  0  0
   38.5610   23.9830   40.8870 C   0  0  0  0  0  0  0  0  0  0  0  0
   39.1310   23.1570   40.4440 H   0  0  0  0  0  0  0  0  0  0  0  0
   38.7730   25.2910   40.7580 O   0  0  0  0  0  0  0  0  0  0  0  0
  1  4  1  1  0  0  0
  2  3  1  0  0  0  0
  2  5  1  0  0  0  0
  2  1  1  0  0  0  0
  3  7  1  6  0  0  0
  3  1  1  0  0  0  0
  3 20  1  0  0  0  0
  6  2  1  0  0  0  0
  8 13  2  0  0  0  0
  8  9  1  0  0  0  0
  9 10  2  0  0  0  0
 10 11  1  0  0  0  0
 10  1  1  0  0  0  0
 12 15  1  0  0  0  0
 12 11  2  0  0  0  0
 13 12  1  0  0  0  0
 14  9  1  0  0  0  0
 16 18  1  0  0  0  0
 16  8  1  0  0  0  0
 17 16  1  0  0  0  0
 19 16  1  0  0  0  0
 20 21  2  0  0  0  0
 21 22  1  0  0  0  0
 21 25  1  0  0  0  0
 22 26  1  0  0  0  0
 23 22  2  0  0  0  0
 24 20  1  0  0  0  0
 24 23  1  0  0  0  0
 27 23  1  0  0  0  0
 27 28  2  0  0  0  0
 28 29  1  0  0  0  0
 30 31  1  0  0  0  0
 30 28  1  0  0  0  0
 32 30  2  0  0  0  0
 33 32  1  0  0  0  0
 34 32  1  0  0  0  0
 34 27  1  0  0  0  0
M  END
>  <minimizedAffinity>
-5.57130623

$$$$
