
 OpenBabel03252509273D

 29 31  0  0  1  0  0  0  0  0999 V2000
   46.5860   35.0850   41.9140 C   0  0  1  0  0  0  0  0  0  0  0  0
   48.1220   35.2980   41.9160 C   0  0  0  0  0  0  0  0  0  0  0  0
   47.3600   34.0870   41.3000 C   0  0  2  0  0  0  0  0  0  0  0  0
   46.0820   35.9020   41.3750 H   0  0  0  0  0  0  0  0  0  0  0  0
   48.5380   35.9520   41.1370 H   0  0  0  0  0  0  0  0  0  0  0  0
   48.6880   35.0720   42.8250 H   0  0  0  0  0  0  0  0  0  0  0  0
   47.5160   33.1140   41.8490 H   0  0  0  0  0  0  0  0  0  0  0  0
   44.6570   35.4090   45.1110 C   0  0  0  0  0  0  0  0  0  0  0  0
   45.1290   35.7100   43.8070 C   0  0  0  0  0  0  0  0  0  0  0  0
   46.0730   34.8650   43.3130 C   0  0  0  0  0  0  0  0  0  0  0  0
   46.5340   33.7940   44.0390 N   0  0  0  0  0  0  0  0  0  0  0  0
   46.0590   33.5430   45.2780 C   0  0  0  0  0  0  0  0  0  0  0  0
   45.1170   34.3540   45.8140 N   0  0  0  0  0  0  0  0  0  0  0  0
   43.9010   36.0710   45.5250 H   0  0  0  0  0  0  0  0  0  0  0  0
   46.3940   32.7150   45.8800 H   0  0  0  0  0  0  0  0  0  0  0  0
   44.6600   36.8340   43.0880 N   0  0  0  0  0  0  0  0  0  0  0  0
   43.7760   37.0370   42.5770 H   0  0  0  0  0  0  0  0  0  0  0  0
   45.4680   37.5200   43.1720 H   0  0  0  0  0  0  0  0  0  0  0  0
   47.3910   33.9070   39.8000 C   0  0  0  0  0  0  0  0  0  0  0  0
   48.3210   33.4190   39.5090 H   0  0  0  0  0  0  0  0  0  0  0  0
   47.2720   34.8710   39.2630 H   0  0  0  0  0  0  0  0  0  0  0  0
   46.2360   33.0030   39.4910 C   0  0  0  0  0  0  0  0  0  0  0  0
   45.4440   33.0120   38.3680 C   0  0  0  0  0  0  0  0  0  0  0  0
   45.5500   33.6840   37.5440 H   0  0  0  0  0  0  0  0  0  0  0  0
   44.5130   31.9960   38.5370 C   0  0  0  0  0  0  0  0  0  0  0  0
   43.7340   31.7300   37.8320 H   0  0  0  0  0  0  0  0  0  0  0  0
   44.7960   31.4180   39.7700 C   0  0  0  0  0  0  0  0  0  0  0  0
   44.1950   30.5960   40.1180 H   0  0  0  0  0  0  0  0  0  0  0  0
   45.8180   32.0430   40.2970 O   0  0  0  0  0  0  0  0  0  0  0  0
  1  4  1  6  0  0  0
  1  2  1  0  0  0  0
  1 10  1  0  0  0  0
  2  6  1  0  0  0  0
  3  7  1  1  0  0  0
  3  1  1  0  0  0  0
  3  2  1  0  0  0  0
  5  2  1  0  0  0  0
  8 14  1  0  0  0  0
  8 13  1  0  0  0  0
  9  8  2  0  0  0  0
 10  9  1  0  0  0  0
 10 11  2  0  0  0  0
 11 12  1  0  0  0  0
 12 13  2  0  0  0  0
 12 15  1  0  0  0  0
 16 18  1  0  0  0  0
 16  9  1  0  0  0  0
 17 16  1  0  0  0  0
 19  3  1  0  0  0  0
 20 19  1  0  0  0  0
 21 19  1  0  0  0  0
 22 19  1  0  0  0  0
 22 29  1  0  0  0  0
 23 25  1  0  0  0  0
 23 22  2  0  0  0  0
 24 23  1  0  0  0  0
 25 27  2  0  0  0  0
 26 25  1  0  0  0  0
 27 28  1  0  0  0  0
 27 29  1  0  0  0  0
M  END
>  <minimizedAffinity>
-4.38558197

>  <minimizedRMSD>
0.701229453

$$$$
