
 OpenBabel03252503343D

 21 22  0  0  0  0  0  0  0  0999 V2000
   46.3350   33.9750   40.8740 C   0  0  0  0  0  0  0  0  0  0  0  0
   45.3120   33.2890   41.1380 O   0  0  0  0  0  0  0  0  0  0  0  0
   46.7880   34.8220   41.9190 N   0  0  0  0  0  0  0  0  0  0  0  0
   47.6540   35.4100   41.7510 H   0  0  0  0  0  0  0  0  0  0  0  0
   44.5200   35.8770   44.6910 C   0  0  0  0  0  0  0  0  0  0  0  0
   45.1580   35.8810   43.4370 C   0  0  0  0  0  0  0  0  0  0  0  0
   46.0990   34.8870   43.1650 C   0  0  0  0  0  0  0  0  0  0  0  0
   46.3670   33.9520   44.1170 N   0  0  0  0  0  0  0  0  0  0  0  0
   45.7220   33.9840   45.3280 C   0  0  0  0  0  0  0  0  0  0  0  0
   44.8200   34.9330   45.5960 N   0  0  0  0  0  0  0  0  0  0  0  0
   43.8090   36.6950   44.7920 H   0  0  0  0  0  0  0  0  0  0  0  0
   44.9510   36.6220   42.6730 H   0  0  0  0  0  0  0  0  0  0  0  0
   45.9610   33.2190   46.0690 H   0  0  0  0  0  0  0  0  0  0  0  0
   46.9990   33.8950   39.5770 C   0  0  0  0  0  0  0  0  0  0  0  0
   46.5270   33.1250   38.5360 C   0  0  0  0  0  0  0  0  0  0  0  0
   45.6700   32.4790   38.4260 H   0  0  0  0  0  0  0  0  0  0  0  0
   47.4430   33.3350   37.5080 C   0  0  0  0  0  0  0  0  0  0  0  0
   47.4990   32.9450   36.4890 H   0  0  0  0  0  0  0  0  0  0  0  0
   48.4170   34.2190   37.9860 C   0  0  0  0  0  0  0  0  0  0  0  0
   49.3120   34.6470   37.5150 H   0  0  0  0  0  0  0  0  0  0  0  0
   48.0830   34.5100   39.2330 O   0  0  0  0  0  0  0  0  0  0  0  0
  1  2  2  0  0  0  0
  1  3  1  0  0  0  0
  3  7  1  0  0  0  0
  4  3  1  0  0  0  0
  5 11  1  0  0  0  0
  5 10  1  0  0  0  0
  6  5  2  0  0  0  0
  7  6  1  0  0  0  0
  7  8  2  0  0  0  0
  8  9  1  0  0  0  0
  9 10  2  0  0  0  0
  9 13  1  0  0  0  0
 12  6  1  0  0  0  0
 14  1  1  0  0  0  0
 15 14  2  0  0  0  0
 16 15  1  0  0  0  0
 17 19  2  0  0  0  0
 17 15  1  0  0  0  0
 18 17  1  0  0  0  0
 19 21  1  0  0  0  0
 20 19  1  0  0  0  0
 21 14  1  0  0  0  0
M  END
>  <minimizedAffinity>
-4.17984486

>  <minimizedRMSD>
0.415260732

$$$$
