
 OpenBabel03252505403D

 27 29  0  0  1  0  0  0  0  0999 V2000
   44.6730   34.4000   43.3560 C   0  0  1  0  0  0  0  0  0  0  0  0
   45.2910   35.8030   43.4390 C   0  0  0  0  0  0  0  0  0  0  0  0
   45.1800   35.0540   42.1520 C   0  0  1  0  0  0  0  0  0  0  0  0
   43.5750   34.3470   43.5280 H   0  0  0  0  0  0  0  0  0  0  0  0
   46.2440   35.8800   43.9830 H   0  0  0  0  0  0  0  0  0  0  0  0
   44.5580   36.5970   43.6840 H   0  0  0  0  0  0  0  0  0  0  0  0
   44.3980   35.4730   41.4500 H   0  0  0  0  0  0  0  0  0  0  0  0
   45.4040   33.3480   44.0900 C   0  0  0  0  0  0  0  0  0  0  0  0
   45.9480   32.2980   43.3060 C   0  0  0  0  0  0  0  0  0  0  0  0
   46.6560   31.3070   43.9640 C   0  0  0  0  0  0  0  0  0  0  0  0
   46.7860   31.4010   45.3250 N   0  0  0  0  0  0  0  0  0  0  0  0
   46.2520   32.4140   46.0260 C   0  0  0  0  0  0  0  0  0  0  0  0
   45.5620   33.3830   45.3990 N   0  0  0  0  0  0  0  0  0  0  0  0
   45.8650   32.1770   42.2340 H   0  0  0  0  0  0  0  0  0  0  0  0
   47.0900   30.4880   43.4190 H   0  0  0  0  0  0  0  0  0  0  0  0
   46.5110   32.3260   47.4980 C   0  0  0  0  0  0  0  0  0  0  0  0
   45.5110   32.9160   48.2290 F   0  0  0  0  0  0  0  0  0  0  0  0
   47.7220   32.9490   47.8080 F   0  0  0  0  0  0  0  0  0  0  0  0
   46.6740   30.9870   47.8450 F   0  0  0  0  0  0  0  0  0  0  0  0
   46.5200   34.8010   41.5540 C   0  0  0  0  0  0  0  0  0  0  0  0
   47.6390   35.3700   42.1290 C   0  0  0  0  0  0  0  0  0  0  0  0
   47.7630   36.0230   43.0060 H   0  0  0  0  0  0  0  0  0  0  0  0
   48.7510   34.9840   41.3930 C   0  0  0  0  0  0  0  0  0  0  0  0
   49.8050   35.2100   41.5090 H   0  0  0  0  0  0  0  0  0  0  0  0
   48.2400   34.1960   40.4020 C   0  0  0  0  0  0  0  0  0  0  0  0
   48.8290   33.7160   39.6310 H   0  0  0  0  0  0  0  0  0  0  0  0
   46.9570   34.1160   40.5290 O   0  0  0  0  0  0  0  0  0  0  0  0
  1  2  1  0  0  0  0
  1  4  1  1  0  0  0
  1  8  1  0  0  0  0
  2  6  1  0  0  0  0
  2  5  1  0  0  0  0
  3  7  1  6  0  0  0
  3  1  1  0  0  0  0
  3  2  1  0  0  0  0
  8 13  1  0  0  0  0
  9 10  1  0  0  0  0
  9  8  2  0  0  0  0
 10 11  2  0  0  0  0
 11 12  1  0  0  0  0
 12 16  1  0  0  0  0
 13 12  2  0  0  0  0
 14  9  1  0  0  0  0
 15 10  1  0  0  0  0
 16 18  1  0  0  0  0
 16 19  1  0  0  0  0
 16 17  1  0  0  0  0
 20 21  2  0  0  0  0
 20  3  1  0  0  0  0
 21 22  1  0  0  0  0
 23 24  1  0  0  0  0
 23 21  1  0  0  0  0
 25 27  1  0  0  0  0
 25 23  2  0  0  0  0
 26 25  1  0  0  0  0
 27 20  1  0  0  0  0
M  END
>  <minimizedAffinity>
-4.75999928

>  <minimizedRMSD>
1.47738957

$$$$
