
 OpenBabel03252508503D

 27 29  0  0  0  0  0  0  0  0999 V2000
   45.9750   34.2020   41.0370 C   0  0  0  0  0  0  0  0  0  0  0  0
   46.5530   34.8110   42.1430 C   0  0  0  0  0  0  0  0  0  0  0  0
   47.9070   35.1700   42.0260 C   0  0  0  0  0  0  0  0  0  0  0  0
   48.5480   34.9020   40.8590 N   0  0  0  0  0  0  0  0  0  0  0  0
   47.9520   34.3170   39.8280 C   0  0  0  0  0  0  0  0  0  0  0  0
   46.6580   33.9630   39.9080 N   0  0  0  0  0  0  0  0  0  0  0  0
   48.3800   35.6400   42.8610 H   0  0  0  0  0  0  0  0  0  0  0  0
   48.4280   34.0870   38.8780 H   0  0  0  0  0  0  0  0  0  0  0  0
   45.7680   35.0480   43.3390 C   0  0  0  0  0  0  0  0  0  0  0  0
   45.0850   36.2210   43.5750 C   0  0  0  0  0  0  0  0  0  0  0  0
   44.4920   36.0200   44.7990 C   0  0  0  0  0  0  0  0  0  0  0  0
   44.7930   34.7970   45.2830 N   0  0  0  0  0  0  0  0  0  0  0  0
   45.5650   34.2310   44.3810 N   0  0  0  0  0  0  0  0  0  0  0  0
   44.9810   37.1320   42.9990 H   0  0  0  0  0  0  0  0  0  0  0  0
   43.8490   36.6700   45.4000 H   0  0  0  0  0  0  0  0  0  0  0  0
   44.5610   34.2600   46.1450 H   0  0  0  0  0  0  0  0  0  0  0  0
   44.6440   33.8350   41.1140 O   0  0  0  0  0  0  0  0  0  0  0  0
   43.5680   34.4920   40.5910 C   0  0  0  0  0  0  0  0  0  0  0  0
   43.3060   35.7470   40.6920 O   0  0  0  0  0  0  0  0  0  0  0  0
   42.4980   33.8130   39.7990 C   0  0  0  0  0  0  0  0  0  0  0  0
   41.1800   33.5400   40.1860 C   0  0  0  0  0  0  0  0  0  0  0  0
   40.8120   33.8320   41.1820 H   0  0  0  0  0  0  0  0  0  0  0  0
   40.4820   32.8990   39.1880 C   0  0  0  0  0  0  0  0  0  0  0  0
   39.4520   32.5760   39.2280 H   0  0  0  0  0  0  0  0  0  0  0  0
   41.4340   32.8000   38.1970 C   0  0  0  0  0  0  0  0  0  0  0  0
   41.2600   32.3360   37.2160 H   0  0  0  0  0  0  0  0  0  0  0  0
   42.5410   33.3250   38.5870 O   0  0  0  0  0  0  0  0  0  0  0  0
  1 17  1  0  0  0  0
  1  2  1  0  0  0  0
  2  9  1  0  0  0  0
  3  2  2  0  0  0  0
  3  7  1  0  0  0  0
  4  3  1  0  0  0  0
  5  6  1  0  0  0  0
  5  4  2  0  0  0  0
  6  1  2  0  0  0  0
  8  5  1  0  0  0  0
  9 10  1  0  0  0  0
  9 13  2  0  0  0  0
 10 11  2  0  0  0  0
 11 12  1  0  0  0  0
 11 15  1  0  0  0  0
 12 16  1  0  0  0  0
 13 12  1  0  0  0  0
 14 10  1  0  0  0  0
 18 19  2  0  0  0  0
 18 17  1  0  0  0  0
 20 21  2  0  0  0  0
 20 18  1  0  0  0  0
 21 22  1  0  0  0  0
 23 24  1  0  0  0  0
 23 21  1  0  0  0  0
 25 27  1  0  0  0  0
 25 23  2  0  0  0  0
 26 25  1  0  0  0  0
 27 20  1  0  0  0  0
M  END
>  <minimizedAffinity>
-5.02365303

>  <minimizedRMSD>
0.465979069

$$$$
