REMARK  Name = 
REMARK  2 active torsions:
REMARK  status: ('A' for Active; 'I' for Inactive)
REMARK    1  A    between atoms: C_3  and  N_9
REMARK    2  A    between atoms: C_7  and  C_14
REMARK                            x       y       z     vdW  Elec       q    Type
REMARK                         _______ _______ _______ _____ _____    ______ ____
ROOT
ATOM      1  C   UNL     1      46.378  34.201  40.796  0.00  0.00    +0.000 C 
ATOM      2  O   UNL     1      45.218  33.727  40.925  0.00  0.00    +0.000 OA
ATOM      3  N   UNL     1      46.905  34.847  41.946  0.00  0.00    +0.000 N 
ATOM      4  H   UNL     1      47.883  35.250  41.893  0.00  0.00    +0.000 HD
ENDROOT
BRANCH   3   7
ATOM      5  C   UNL     1      44.531  36.042  44.568  0.00  0.00    +0.000 A 
ATOM      6  C   UNL     1      45.249  36.006  43.358  0.00  0.00    +0.000 A 
ATOM      7  C   UNL     1      46.141  34.955  43.144  0.00  0.00    +0.000 A 
ATOM      8  N   UNL     1      46.286  34.004  44.108  0.00  0.00    +0.000 NA
ATOM      9  C   UNL     1      45.566  34.077  45.274  0.00  0.00    +0.000 A 
ATOM     10  N   UNL     1      44.710  35.081  45.486  0.00  0.00    +0.000 NA
ATOM     11  H   UNL     1      43.868  36.903  44.626  0.00  0.00    +0.000 HD
ATOM     12  H   UNL     1      45.139  36.759  42.586  0.00  0.00    +0.000 HD
ATOM     13  H   UNL     1      45.707  33.298  46.025  0.00  0.00    +0.000 HD
ENDBRANCH   3   7
BRANCH   1  14
ATOM     14  C   UNL     1      47.119  34.088  39.544  0.00  0.00    +0.000 A 
ATOM     15  C   UNL     1      46.761  33.222  38.534  0.00  0.00    +0.000 A 
ATOM     16  H   UNL     1      45.958  32.510  38.423  0.00  0.00    +0.000 HD
ATOM     17  C   UNL     1      47.717  33.432  37.543  0.00  0.00    +0.000 A 
ATOM     18  H   UNL     1      47.857  32.983  36.557  0.00  0.00    +0.000 HD
ATOM     19  C   UNL     1      48.599  34.412  38.011  0.00  0.00    +0.000 A 
ATOM     20  H   UNL     1      49.487  34.873  37.560  0.00  0.00    +0.000 HD
ATOM     21  O   UNL     1      48.176  34.756  39.217  0.00  0.00    +0.000 OA
ENDBRANCH   1  14
TORSDOF 2
