
 OpenBabel03252509003D

 44 46  0  0  1  0  0  0  0  0999 V2000
   46.9170   34.2750   43.3120 N   0  0  0  0  0  0  0  0  0  0  0  0
   46.4900   35.5040   42.7490 C   0  0  0  0  0  0  0  0  0  0  0  0
   45.0180   35.8150   42.9310 C   0  0  0  0  0  0  0  0  0  0  0  0
   44.4210   35.2890   44.2080 C   0  0  0  0  0  0  0  0  0  0  0  0
   45.4720   34.6610   45.0930 C   0  0  0  0  0  0  0  0  0  0  0  0
   46.1060   33.5550   44.1710 C   0  0  2  0  0  0  0  0  0  0  0  0
   46.7310   35.6610   41.6910 H   0  0  0  0  0  0  0  0  0  0  0  0
   47.0500   36.3120   43.2940 H   0  0  0  0  0  0  0  0  0  0  0  0
   44.4400   35.5120   42.0330 H   0  0  0  0  0  0  0  0  0  0  0  0
   44.8980   36.9260   42.9730 H   0  0  0  0  0  0  0  0  0  0  0  0
   43.9240   36.0600   44.8150 H   0  0  0  0  0  0  0  0  0  0  0  0
   43.6790   34.5120   43.9690 H   0  0  0  0  0  0  0  0  0  0  0  0
   44.9820   34.1840   45.9490 H   0  0  0  0  0  0  0  0  0  0  0  0
   46.2880   35.3310   45.3650 H   0  0  0  0  0  0  0  0  0  0  0  0
   45.2770   32.9620   43.7340 H   0  0  0  0  0  0  0  0  0  0  0  0
   47.8870   33.5690   42.5200 C   0  0  0  0  0  0  0  0  0  0  0  0
   48.5680   34.3260   42.0670 H   0  0  0  0  0  0  0  0  0  0  0  0
   48.4940   32.8840   43.1460 H   0  0  0  0  0  0  0  0  0  0  0  0
   47.1590   32.7530   41.4970 C   0  0  0  0  0  0  0  0  0  0  0  0
   46.0940   33.0960   41.3910 H   0  0  0  0  0  0  0  0  0  0  0  0
   47.1160   31.6770   41.7390 H   0  0  0  0  0  0  0  0  0  0  0  0
   49.2980   32.1640   38.4680 C   0  0  0  0  0  0  0  0  0  0  0  0
   48.6840   31.9910   39.7220 C   0  0  0  0  0  0  0  0  0  0  0  0
   47.8010   32.9460   40.1710 C   0  0  0  0  0  0  0  0  0  0  0  0
   47.5720   33.9990   39.3820 N   0  0  0  0  0  0  0  0  0  0  0  0
   48.1620   34.1580   38.1840 C   0  0  0  0  0  0  0  0  0  0  0  0
   49.0340   33.2370   37.7160 N   0  0  0  0  0  0  0  0  0  0  0  0
   49.9880   31.4710   38.0550 H   0  0  0  0  0  0  0  0  0  0  0  0
   48.9590   31.0930   40.2580 H   0  0  0  0  0  0  0  0  0  0  0  0
   47.9520   35.0310   37.5660 H   0  0  0  0  0  0  0  0  0  0  0  0
   46.8460   32.8240   45.0870 O   0  0  0  0  0  0  0  0  0  0  0  0
   45.3140   30.8520   44.1710 O   0  0  0  0  0  0  0  0  0  0  0  0
   46.2530   31.2650   45.3110 P   0  0  2  0  0  0  0  0  0  0  0  0
   45.2390   31.3430   46.6910 O   0  0  0  0  0  0  0  0  0  0  0  0
   45.6680   31.9280   47.3750 H   0  0  0  0  0  0  0  0  0  0  0  0
   47.4350   30.1500   45.6090 O   0  0  0  0  0  0  0  0  0  0  0  0
   48.5830   29.8660   44.9220 C   0  0  0  0  0  0  0  0  0  0  0  0
   48.6810   30.1220   43.5510 C   0  0  0  0  0  0  0  0  0  0  0  0
   47.9350   30.5440   42.8860 H   0  0  0  0  0  0  0  0  0  0  0  0
   49.9700   29.7130   43.2050 C   0  0  0  0  0  0  0  0  0  0  0  0
   50.3190   29.8050   42.1660 H   0  0  0  0  0  0  0  0  0  0  0  0
   50.5720   29.2380   44.3740 C   0  0  0  0  0  0  0  0  0  0  0  0
   51.5870   28.8810   44.2670 H   0  0  0  0  0  0  0  0  0  0  0  0
   49.7150   29.3510   45.3540 O   0  0  0  0  0  0  0  0  0  0  0  0
  1  6  1  0  0  0  0
  2  3  1  0  0  0  0
  2  8  1  0  0  0  0
  2  1  1  0  0  0  0
  3 10  1  0  0  0  0
  3  4  1  0  0  0  0
  4 11  1  0  0  0  0
  4  5  1  0  0  0  0
  5 14  1  0  0  0  0
  5 13  1  0  0  0  0
  6 15  1  6  0  0  0
  6 31  1  0  0  0  0
  6  5  1  0  0  0  0
  7  2  1  0  0  0  0
  9  3  1  0  0  0  0
 12  4  1  0  0  0  0
 16 18  1  0  0  0  0
 16  1  1  0  0  0  0
 17 16  1  0  0  0  0
 19 21  1  0  0  0  0
 19 16  1  0  0  0  0
 20 19  1  0  0  0  0
 22 23  1  0  0  0  0
 23 24  2  0  0  0  0
 23 29  1  0  0  0  0
 24 19  1  0  0  0  0
 25 24  1  0  0  0  0
 26 25  2  0  0  0  0
 27 26  1  0  0  0  0
 27 22  2  0  0  0  0
 28 22  1  0  0  0  0
 30 26  1  0  0  0  0
 31 33  1  0  0  0  0
 33 32  2  6  0  0  0
 33 36  1  0  0  0  0
 33 34  1  0  0  0  0
 34 35  1  0  0  0  0
 37 44  1  0  0  0  0
 37 36  1  0  0  0  0
 38 37  2  0  0  0  0
 39 38  1  0  0  0  0
 40 38  1  0  0  0  0
 40 42  2  0  0  0  0
 41 40  1  0  0  0  0
 42 44  1  0  0  0  0
 43 42  1  0  0  0  0
M  END
>  <minimizedAffinity>
-3.9344182

>  <minimizedRMSD>
1.40706933

$$$$
