
 OpenBabel03252509083D

 40 43  0  0  0  0  0  0  0  0999 V2000
   47.3950   31.8130   38.7030 C   0  0  0  0  0  0  0  0  0  0  0  0
   47.0770   33.1280   38.8550 C   0  0  0  0  0  0  0  0  0  0  0  0
   47.8150   34.1020   38.2010 C   0  0  0  0  0  0  0  0  0  0  0  0
   48.8700   33.7360   37.3970 C   0  0  0  0  0  0  0  0  0  0  0  0
   49.2270   32.4020   37.2130 C   0  0  0  0  0  0  0  0  0  0  0  0
   48.4660   31.4400   37.8860 C   0  0  0  0  0  0  0  0  0  0  0  0
   47.5970   35.1550   38.2950 H   0  0  0  0  0  0  0  0  0  0  0  0
   49.5110   34.3970   36.8410 H   0  0  0  0  0  0  0  0  0  0  0  0
   50.0290   32.0470   36.6070 H   0  0  0  0  0  0  0  0  0  0  0  0
   48.7140   30.3860   37.7680 H   0  0  0  0  0  0  0  0  0  0  0  0
   45.4250   35.2340   43.2710 Cl  0  0  0  0  0  0  0  0  0  0  0  0
   45.2010   34.5750   41.6710 C   0  0  0  0  0  0  0  0  0  0  0  0
   46.2570   34.1440   40.9360 C   0  0  0  0  0  0  0  0  0  0  0  0
   45.9740   33.6190   39.6830 C   0  0  0  0  0  0  0  0  0  0  0  0
   44.6880   33.5380   39.2050 C   0  0  0  0  0  0  0  0  0  0  0  0
   43.6460   33.9750   39.9540 C   0  0  0  0  0  0  0  0  0  0  0  0
   43.9130   34.4960   41.1960 C   0  0  0  0  0  0  0  0  0  0  0  0
   44.5310   33.1220   38.2240 H   0  0  0  0  0  0  0  0  0  0  0  0
   42.6440   33.8990   39.5510 H   0  0  0  0  0  0  0  0  0  0  0  0
   43.0610   34.8380   41.7760 H   0  0  0  0  0  0  0  0  0  0  0  0
   49.6090   35.4890   42.0300 C   0  0  0  0  0  0  0  0  0  0  0  0
   48.3180   35.4100   41.4900 C   0  0  0  0  0  0  0  0  0  0  0  0
   47.5880   34.2380   41.4900 C   0  0  0  0  0  0  0  0  0  0  0  0
   48.2210   33.1760   42.0520 N   0  0  0  0  0  0  0  0  0  0  0  0
   49.4540   33.2430   42.5700 C   0  0  0  0  0  0  0  0  0  0  0  0
   50.1380   34.3910   42.5560 N   0  0  0  0  0  0  0  0  0  0  0  0
   50.1040   36.4510   41.9840 H   0  0  0  0  0  0  0  0  0  0  0  0
   47.8620   36.2860   41.0550 H   0  0  0  0  0  0  0  0  0  0  0  0
   49.8060   32.3030   42.9780 H   0  0  0  0  0  0  0  0  0  0  0  0
   46.4940   30.6030   39.4520 S   0  0  0  0  0  0  0  0  0  0  0  0
   47.0930   29.2290   39.2480 O   0  0  0  0  0  0  0  0  0  0  0  0
   46.7350   30.8580   40.9860 O   0  0  0  0  0  0  0  0  0  0  0  0
   44.7880   30.4240   39.3060 C   0  0  0  0  0  0  0  0  0  0  0  0
   43.9930   30.2770   40.4720 C   0  0  0  0  0  0  0  0  0  0  0  0
   44.3140   30.2600   41.5340 H   0  0  0  0  0  0  0  0  0  0  0  0
   42.6490   30.1420   40.2090 C   0  0  0  0  0  0  0  0  0  0  0  0
   41.8260   30.0190   40.8670 H   0  0  0  0  0  0  0  0  0  0  0  0
   42.6540   30.2100   38.8530 C   0  0  0  0  0  0  0  0  0  0  0  0
   41.8030   30.1520   38.1550 H   0  0  0  0  0  0  0  0  0  0  0  0
   43.8330   30.3620   38.4130 O   0  0  0  0  0  0  0  0  0  0  0  0
  1  2  1  0  0  0  0
  1 30  1  0  0  0  0
  2 14  1  0  0  0  0
  3  7  1  0  0  0  0
  3  2  2  0  0  0  0
  4  3  1  0  0  0  0
  5  4  2  0  0  0  0
  5  6  1  0  0  0  0
  6  1  2  0  0  0  0
  8  4  1  0  0  0  0
  9  5  1  0  0  0  0
 10  6  1  0  0  0  0
 12 11  1  0  0  0  0
 13 23  1  0  0  0  0
 13 12  2  0  0  0  0
 14 13  1  0  0  0  0
 15 14  2  0  0  0  0
 15 16  1  0  0  0  0
 16 17  2  0  0  0  0
 17 12  1  0  0  0  0
 17 20  1  0  0  0  0
 18 15  1  0  0  0  0
 19 16  1  0  0  0  0
 21 26  1  0  0  0  0
 22 21  2  0  0  0  0
 23 22  1  0  0  0  0
 23 24  2  0  0  0  0
 24 25  1  0  0  0  0
 25 29  1  0  0  0  0
 26 25  2  0  0  0  0
 27 21  1  0  0  0  0
 28 22  1  0  0  0  0
 30 32  2  0  0  0  0
 31 30  2  0  0  0  0
 33 30  1  0  0  0  0
 33 34  2  0  0  0  0
 34 35  1  0  0  0  0
 36 34  1  0  0  0  0
 36 37  1  0  0  0  0
 38 36  2  0  0  0  0
 39 38  1  0  0  0  0
 40 38  1  0  0  0  0
 40 33  1  0  0  0  0
M  END
>  <minimizedAffinity>
-4.56412029

>  <minimizedRMSD>
1.4891125

$$$$
