
 OpenBabel03242514233D

 33 36  0  0  0  0  0  0  0  0999 V2000
   44.7810   33.1320   41.1150 Cl  0  0  0  0  0  0  0  0  0  0  0  0
   46.3170   33.9530   40.9030 C   0  0  0  0  0  0  0  0  0  0  0  0
   46.8320   34.7100   41.9150 C   0  0  0  0  0  0  0  0  0  0  0  0
   48.0510   35.3670   41.7610 C   0  0  0  0  0  0  0  0  0  0  0  0
   48.6880   35.2130   40.5630 C   0  0  0  0  0  0  0  0  0  0  0  0
   48.1650   34.4470   39.5430 C   0  0  0  0  0  0  0  0  0  0  0  0
   46.9710   33.8100   39.7090 C   0  0  0  0  0  0  0  0  0  0  0  0
   48.4810   35.9700   42.5410 H   0  0  0  0  0  0  0  0  0  0  0  0
   49.6490   35.6800   40.3280 H   0  0  0  0  0  0  0  0  0  0  0  0
   48.6670   34.3190   38.5840 H   0  0  0  0  0  0  0  0  0  0  0  0
   45.6010   34.0390   45.3220 C   0  0  0  0  0  0  0  0  0  0  0  0
   44.7180   35.1060   45.5320 C   0  0  0  0  0  0  0  0  0  0  0  0
   44.5500   36.0390   44.5180 C   0  0  0  0  0  0  0  0  0  0  0  0
   45.2490   35.8710   43.3740 N   0  0  0  0  0  0  0  0  0  0  0  0
   46.1010   34.8370   43.1790 C   0  0  0  0  0  0  0  0  0  0  0  0
   46.2810   33.9120   44.1570 N   0  0  0  0  0  0  0  0  0  0  0  0
   45.7190   33.3170   46.1320 H   0  0  0  0  0  0  0  0  0  0  0  0
   44.1520   35.2680   46.4200 H   0  0  0  0  0  0  0  0  0  0  0  0
   43.9230   36.9010   44.5140 H   0  0  0  0  0  0  0  0  0  0  0  0
   46.3890   32.9920   38.6510 C   0  0  0  0  0  0  0  0  0  0  0  0
   45.4840   33.3630   37.7360 N   0  0  0  0  0  0  0  0  0  0  0  0
   45.2070   32.3160   36.9410 C   0  0  0  0  0  0  0  0  0  0  0  0
   45.9460   31.2640   37.3600 N   0  0  0  0  0  0  0  0  0  0  0  0
   46.6670   31.6910   38.4090 N   0  0  0  0  0  0  0  0  0  0  0  0
   44.5480   32.2030   36.1050 H   0  0  0  0  0  0  0  0  0  0  0  0
   46.0800   29.9150   36.9230 C   0  0  0  0  0  0  0  0  0  0  0  0
   45.8740   28.9140   37.8780 C   0  0  0  0  0  0  0  0  0  0  0  0
   45.6230   28.9240   38.9320 H   0  0  0  0  0  0  0  0  0  0  0  0
   46.0580   27.7010   37.2170 C   0  0  0  0  0  0  0  0  0  0  0  0
   46.0120   26.6540   37.5070 H   0  0  0  0  0  0  0  0  0  0  0  0
   46.3660   28.0430   35.8960 C   0  0  0  0  0  0  0  0  0  0  0  0
   46.5930   27.4740   34.9960 H   0  0  0  0  0  0  0  0  0  0  0  0
   46.3670   29.3590   35.7710 O   0  0  0  0  0  0  0  0  0  0  0  0
  2  1  1  0  0  0  0
  2  3  1  0  0  0  0
  3 15  1  0  0  0  0
  4  3  2  0  0  0  0
  4  8  1  0  0  0  0
  5  4  1  0  0  0  0
  6  7  1  0  0  0  0
  6  5  2  0  0  0  0
  7  2  2  0  0  0  0
  9  5  1  0  0  0  0
 10  6  1  0  0  0  0
 11 12  1  0  0  0  0
 11 17  1  0  0  0  0
 12 18  1  0  0  0  0
 13 12  2  0  0  0  0
 14 13  1  0  0  0  0
 15 14  2  0  0  0  0
 15 16  1  0  0  0  0
 16 11  2  0  0  0  0
 19 13  1  0  0  0  0
 20  7  1  0  0  0  0
 21 20  1  0  0  0  0
 22 23  1  0  0  0  0
 22 21  2  0  0  0  0
 23 24  1  0  0  0  0
 24 20  2  0  0  0  0
 25 22  1  0  0  0  0
 26 23  1  0  0  0  0
 26 27  2  0  0  0  0
 27 28  1  0  0  0  0
 29 30  1  0  0  0  0
 29 27  1  0  0  0  0
 31 29  2  0  0  0  0
 32 31  1  0  0  0  0
 33 31  1  0  0  0  0
 33 26  1  0  0  0  0
M  END
>  <minimizedAffinity>
-5.27797031

>  <minimizedRMSD>
0.134379968

$$$$
