
 OpenBabel03252502503D

 33 35  0  0  0  0  0  0  0  0999 V2000
   44.6300   36.4410   43.8120 C   0  0  0  0  0  0  0  0  0  0  0  0
   44.7480   35.6440   44.9690 C   0  0  0  0  0  0  0  0  0  0  0  0
   45.3890   34.4120   44.8440 C   0  0  0  0  0  0  0  0  0  0  0  0
   45.8630   34.0380   43.6350 N   0  0  0  0  0  0  0  0  0  0  0  0
   45.7310   34.8320   42.5400 C   0  0  0  0  0  0  0  0  0  0  0  0
   45.1170   36.0300   42.6260 N   0  0  0  0  0  0  0  0  0  0  0  0
   44.1410   37.4040   43.8620 H   0  0  0  0  0  0  0  0  0  0  0  0
   44.3500   35.9930   45.9130 H   0  0  0  0  0  0  0  0  0  0  0  0
   48.5220   35.6920   41.9430 Cl  0  0  0  0  0  0  0  0  0  0  0  0
   47.5360   34.7060   40.8900 C   0  0  0  0  0  0  0  0  0  0  0  0
   46.2690   34.3650   41.2560 C   0  0  0  0  0  0  0  0  0  0  0  0
   45.4480   33.5710   40.4320 C   0  0  0  0  0  0  0  0  0  0  0  0
   46.0210   33.1690   39.2370 C   0  0  0  0  0  0  0  0  0  0  0  0
   47.2920   33.5130   38.8750 C   0  0  0  0  0  0  0  0  0  0  0  0
   48.0810   34.2880   39.6900 C   0  0  0  0  0  0  0  0  0  0  0  0
   44.4560   33.2940   40.6970 H   0  0  0  0  0  0  0  0  0  0  0  0
   45.4800   32.5500   38.5180 H   0  0  0  0  0  0  0  0  0  0  0  0
   47.7470   33.2010   37.9410 H   0  0  0  0  0  0  0  0  0  0  0  0
   49.0750   34.5740   39.4380 H   0  0  0  0  0  0  0  0  0  0  0  0
   45.5090   33.5770   46.0550 C   0  0  0  0  0  0  0  0  0  0  0  0
   45.3800   34.1480   46.9830 H   0  0  0  0  0  0  0  0  0  0  0  0
   44.6590   32.8380   46.0080 H   0  0  0  0  0  0  0  0  0  0  0  0
   46.7760   32.7350   46.0730 C   0  0  0  0  0  0  0  0  0  0  0  0
   46.7900   31.9920   45.2740 H   0  0  0  0  0  0  0  0  0  0  0  0
   47.6540   33.4130   46.1050 H   0  0  0  0  0  0  0  0  0  0  0  0
   46.7750   32.0240   47.4020 C   0  0  0  0  0  0  0  0  0  0  0  0
   47.9110   31.6580   48.1280 C   0  0  0  0  0  0  0  0  0  0  0  0
   48.9530   31.8320   47.8460 H   0  0  0  0  0  0  0  0  0  0  0  0
   47.4110   31.0340   49.2740 C   0  0  0  0  0  0  0  0  0  0  0  0
   48.0420   30.6240   50.0640 H   0  0  0  0  0  0  0  0  0  0  0  0
   46.0370   31.0530   49.1820 C   0  0  0  0  0  0  0  0  0  0  0  0
   45.3400   30.6470   49.9150 H   0  0  0  0  0  0  0  0  0  0  0  0
   45.6950   31.6470   48.0620 O   0  0  0  0  0  0  0  0  0  0  0  0
  1  7  1  0  0  0  0
  1  2  1  0  0  0  0
  2  8  1  0  0  0  0
  3  2  2  0  0  0  0
  3 20  1  0  0  0  0
  4  3  1  0  0  0  0
  5  6  1  0  0  0  0
  5  4  2  0  0  0  0
  6  1  2  0  0  0  0
 10 11  1  0  0  0  0
 10  9  1  0  0  0  0
 11  5  1  0  0  0  0
 12 16  1  0  0  0  0
 12 11  2  0  0  0  0
 13 12  1  0  0  0  0
 14 13  2  0  0  0  0
 14 15  1  0  0  0  0
 15 10  2  0  0  0  0
 17 13  1  0  0  0  0
 18 14  1  0  0  0  0
 19 15  1  0  0  0  0
 20 23  1  0  0  0  0
 20 21  1  0  0  0  0
 22 20  1  0  0  0  0
 23 25  1  0  0  0  0
 23 26  1  0  0  0  0
 24 23  1  0  0  0  0
 26 33  1  0  0  0  0
 26 27  2  0  0  0  0
 27 29  1  0  0  0  0
 28 27  1  0  0  0  0
 29 30  1  0  0  0  0
 31 29  2  0  0  0  0
 31 32  1  0  0  0  0
 33 31  1  0  0  0  0
M  END
>  <minimizedAffinity>
-5.59468222

>  <minimizedRMSD>
0.585734487

$$$$
