
 OpenBabel03242520293D

 40 42  0  0  0  0  0  0  0  0999 V2000
   45.1000   35.7270   43.4830 C   0  0  0  0  0  0  0  0  0  0  0  0
   46.0050   34.6350   43.5630 C   0  0  0  0  0  0  0  0  0  0  0  0
   46.0980   33.9500   44.7630 C   0  0  0  0  0  0  0  0  0  0  0  0
   45.3290   34.3460   45.8040 N   0  0  0  0  0  0  0  0  0  0  0  0
   44.4710   35.3890   45.7120 C   0  0  0  0  0  0  0  0  0  0  0  0
   44.3640   36.0660   44.5620 N   0  0  0  0  0  0  0  0  0  0  0  0
   45.0020   36.2860   42.5540 H   0  0  0  0  0  0  0  0  0  0  0  0
   43.9080   35.6120   46.6110 H   0  0  0  0  0  0  0  0  0  0  0  0
   46.7310   34.3580   42.3810 N   0  0  0  0  0  0  0  0  0  0  0  0
   47.9260   35.0860   41.9940 C   0  0  0  0  0  0  0  0  0  0  0  0
   48.5310   34.4700   40.7680 C   0  0  0  0  0  0  0  0  0  0  0  0
   47.5860   34.2850   39.6970 N   0  0  0  0  0  0  0  0  0  0  0  0
   46.3640   33.6580   40.0660 C   0  0  0  0  0  0  0  0  0  0  0  0
   46.2460   33.2880   41.5170 C   0  0  0  0  0  0  0  0  0  0  0  0
   47.7490   36.1710   41.8520 H   0  0  0  0  0  0  0  0  0  0  0  0
   48.6430   34.9420   42.8300 H   0  0  0  0  0  0  0  0  0  0  0  0
   49.3580   35.0950   40.4000 H   0  0  0  0  0  0  0  0  0  0  0  0
   48.9150   33.4570   41.0560 H   0  0  0  0  0  0  0  0  0  0  0  0
   48.0510   33.7320   38.9470 H   0  0  0  0  0  0  0  0  0  0  0  0
   46.1110   32.7670   39.4700 H   0  0  0  0  0  0  0  0  0  0  0  0
   45.5340   34.3970   39.8750 H   0  0  0  0  0  0  0  0  0  0  0  0
   46.7640   32.3440   41.7310 H   0  0  0  0  0  0  0  0  0  0  0  0
   45.1630   33.1100   41.7110 H   0  0  0  0  0  0  0  0  0  0  0  0
   46.9900   32.8960   44.7970 O   0  0  0  0  0  0  0  0  0  0  0  0
   45.4150   30.7810   44.5010 O   0  0  0  0  0  0  0  0  0  0  0  0
   46.4610   31.3670   45.4440 P   0  0  1  0  0  0  0  0  0  0  0  0
   47.7870   30.3980   45.5970 O   0  0  0  0  0  0  0  0  0  0  0  0
   48.6950   30.0720   44.5800 C   0  0  0  0  0  0  0  0  0  0  0  0
   48.8910   30.2590   43.2170 C   0  0  0  0  0  0  0  0  0  0  0  0
   48.0920   30.8530   42.7620 H   0  0  0  0  0  0  0  0  0  0  0  0
   50.0690   29.6110   42.8940 C   0  0  0  0  0  0  0  0  0  0  0  0
   50.3510   29.6740   41.8500 H   0  0  0  0  0  0  0  0  0  0  0  0
   50.5270   29.0620   44.0780 C   0  0  0  0  0  0  0  0  0  0  0  0
   51.4600   28.5020   44.0270 H   0  0  0  0  0  0  0  0  0  0  0  0
   49.7120   29.3450   45.0380 O   0  0  0  0  0  0  0  0  0  0  0  0
   45.7370   31.7260   46.9190 O   0  0  0  0  0  0  0  0  0  0  0  0
   46.6350   31.8530   47.9460 C   0  0  0  0  0  0  0  0  0  0  0  0
   47.7040   32.6780   47.6340 F   0  0  0  0  0  0  0  0  0  0  0  0
   47.1030   30.6830   48.4700 F   0  0  0  0  0  0  0  0  0  0  0  0
   45.9180   32.4790   48.9820 F   0  0  0  0  0  0  0  0  0  0  0  0
  1  2  2  0  0  0  0
  1  6  1  0  0  0  0
  2  3  1  0  0  0  0
  3 24  1  0  0  0  0
  3  4  2  0  0  0  0
  5  4  1  0  0  0  0
  5  8  1  0  0  0  0
  6  5  2  0  0  0  0
  7  1  1  0  0  0  0
  9  2  1  0  0  0  0
 10  9  1  0  0  0  0
 10 16  1  0  0  0  0
 11 18  1  0  0  0  0
 11 10  1  0  0  0  0
 12 13  1  0  0  0  0
 12 11  1  0  0  0  0
 13 14  1  0  0  0  0
 14 23  1  0  0  0  0
 14 22  1  0  0  0  0
 14  9  1  0  0  0  0
 15 10  1  0  0  0  0
 17 11  1  0  0  0  0
 19 12  1  0  0  0  0
 20 13  1  0  0  0  0
 21 13  1  0  0  0  0
 24 26  1  0  0  0  0
 26 25  2  6  0  0  0
 26 27  1  0  0  0  0
 26 36  1  0  0  0  0
 28 35  1  0  0  0  0
 28 27  1  0  0  0  0
 29 28  2  0  0  0  0
 30 29  1  0  0  0  0
 31 29  1  0  0  0  0
 31 33  2  0  0  0  0
 32 31  1  0  0  0  0
 33 35  1  0  0  0  0
 34 33  1  0  0  0  0
 36 37  1  0  0  0  0
 37 39  1  0  0  0  0
 37 40  1  0  0  0  0
 38 37  1  0  0  0  0
M  END
>  <minimizedAffinity>
-4.98163939

>  <minimizedRMSD>
0.540326536

$$$$
