
 OpenBabel03252508593D

 44 46  0  0  1  0  0  0  0  0999 V2000
   46.7480   34.4510   43.5700 N   0  0  0  0  0  0  0  0  0  0  0  0
   46.2950   35.5430   42.7880 C   0  0  0  0  0  0  0  0  0  0  0  0
   44.7970   35.7670   42.8070 C   0  0  0  0  0  0  0  0  0  0  0  0
   44.1260   35.4020   44.1040 C   0  0  0  0  0  0  0  0  0  0  0  0
   45.1350   34.9980   45.1530 C   0  0  0  0  0  0  0  0  0  0  0  0
   45.9130   33.8130   44.4710 C   0  0  2  0  0  0  0  0  0  0  0  0
   46.6150   35.5520   41.7400 H   0  0  0  0  0  0  0  0  0  0  0  0
   46.7550   36.4650   43.2380 H   0  0  0  0  0  0  0  0  0  0  0  0
   44.3170   35.2870   41.9290 H   0  0  0  0  0  0  0  0  0  0  0  0
   44.6040   36.8600   42.6620 H   0  0  0  0  0  0  0  0  0  0  0  0
   43.5320   36.2170   44.5420 H   0  0  0  0  0  0  0  0  0  0  0  0
   43.4570   34.5440   43.9370 H   0  0  0  0  0  0  0  0  0  0  0  0
   44.6030   34.6230   46.0360 H   0  0  0  0  0  0  0  0  0  0  0  0
   45.8800   35.7600   45.3750 H   0  0  0  0  0  0  0  0  0  0  0  0
   45.1620   33.1000   44.0730 H   0  0  0  0  0  0  0  0  0  0  0  0
   47.8230   33.7060   42.9760 C   0  0  0  0  0  0  0  0  0  0  0  0
   48.4750   34.4280   42.4340 H   0  0  0  0  0  0  0  0  0  0  0  0
   48.4350   33.1970   43.7490 H   0  0  0  0  0  0  0  0  0  0  0  0
   47.2360   32.6620   42.0770 C   0  0  0  0  0  0  0  0  0  0  0  0
   46.1200   32.7760   42.0010 H   0  0  0  0  0  0  0  0  0  0  0  0
   47.4190   31.6290   42.4200 H   0  0  0  0  0  0  0  0  0  0  0  0
   49.0680   31.9970   38.8680 C   0  0  0  0  0  0  0  0  0  0  0  0
   48.5520   31.8380   40.1670 C   0  0  0  0  0  0  0  0  0  0  0  0
   47.7760   32.8400   40.7040 C   0  0  0  0  0  0  0  0  0  0  0  0
   47.5520   33.9220   39.9530 N   0  0  0  0  0  0  0  0  0  0  0  0
   48.0490   34.0670   38.7120 C   0  0  0  0  0  0  0  0  0  0  0  0
   48.8150   33.1010   38.1580 N   0  0  0  0  0  0  0  0  0  0  0  0
   49.6740   31.2700   38.3870 H   0  0  0  0  0  0  0  0  0  0  0  0
   48.8100   30.9140   40.6640 H   0  0  0  0  0  0  0  0  0  0  0  0
   47.8460   34.9640   38.1270 H   0  0  0  0  0  0  0  0  0  0  0  0
   46.6150   33.2890   45.5440 O   0  0  0  0  0  0  0  0  0  0  0  0
   45.4530   31.0570   44.6830 O   0  0  0  0  0  0  0  0  0  0  0  0
   46.2470   31.6750   45.8410 P   0  0  2  0  0  0  0  0  0  0  0  0
   45.1470   31.6790   47.1560 O   0  0  0  0  0  0  0  0  0  0  0  0
   45.4410   32.3610   47.8210 H   0  0  0  0  0  0  0  0  0  0  0  0
   47.5590   30.7720   46.2770 O   0  0  0  0  0  0  0  0  0  0  0  0
   48.1390   30.5780   47.5010 C   0  0  0  0  0  0  0  0  0  0  0  0
   49.1070   29.5860   47.6870 C   0  0  0  0  0  0  0  0  0  0  0  0
   49.5080   28.8870   46.9630 H   0  0  0  0  0  0  0  0  0  0  0  0
   49.4600   29.6860   49.0350 C   0  0  0  0  0  0  0  0  0  0  0  0
   50.2170   29.0110   49.4580 H   0  0  0  0  0  0  0  0  0  0  0  0
   48.6940   30.7200   49.5800 C   0  0  0  0  0  0  0  0  0  0  0  0
   48.8570   30.9220   50.6300 H   0  0  0  0  0  0  0  0  0  0  0  0
   47.9340   31.2120   48.6360 O   0  0  0  0  0  0  0  0  0  0  0  0
  1  6  1  0  0  0  0
  2  3  1  0  0  0  0
  2  8  1  0  0  0  0
  2  1  1  0  0  0  0
  3  4  1  0  0  0  0
  4 11  1  0  0  0  0
  4  5  1  0  0  0  0
  5 14  1  0  0  0  0
  5 13  1  0  0  0  0
  6 15  1  6  0  0  0
  6  5  1  0  0  0  0
  6 31  1  0  0  0  0
  7  2  1  0  0  0  0
  9  3  1  0  0  0  0
 10  3  1  0  0  0  0
 12  4  1  0  0  0  0
 16  1  1  0  0  0  0
 16 18  1  0  0  0  0
 17 16  1  0  0  0  0
 19 21  1  0  0  0  0
 19 16  1  0  0  0  0
 20 19  1  0  0  0  0
 22 23  1  0  0  0  0
 23 29  1  0  0  0  0
 23 24  2  0  0  0  0
 24 19  1  0  0  0  0
 25 24  1  0  0  0  0
 26 25  2  0  0  0  0
 27 26  1  0  0  0  0
 27 22  2  0  0  0  0
 28 22  1  0  0  0  0
 30 26  1  0  0  0  0
 31 33  1  0  0  0  0
 33 32  2  6  0  0  0
 33 36  1  0  0  0  0
 33 34  1  0  0  0  0
 34 35  1  0  0  0  0
 36 37  1  0  0  0  0
 37 38  2  0  0  0  0
 37 44  1  0  0  0  0
 38 40  1  0  0  0  0
 39 38  1  0  0  0  0
 40 41  1  0  0  0  0
 40 42  2  0  0  0  0
 42 43  1  0  0  0  0
 44 42  1  0  0  0  0
M  END
>  <minimizedAffinity>
-4.52336359

>  <minimizedRMSD>
1.3063308

$$$$
