REMARK  Name = 
REMARK  3 active torsions:
REMARK  status: ('A' for Active; 'I' for Inactive)
REMARK    1  A    between atoms: C_3  and  C_10
REMARK    2  A    between atoms: C_5  and  C_14
REMARK    3  A    between atoms: C_12  and  C_23
REMARK                            x       y       z     vdW  Elec       q    Type
REMARK                         _______ _______ _______ _____ _____    ______ ____
ROOT
ATOM      1  C   UNL     1      44.775  34.145  46.856  0.00  0.00    +0.000 A 
ATOM      2  C   UNL     1      45.126  34.468  45.540  0.00  0.00    +0.000 A 
ATOM      3  C   UNL     1      45.932  33.629  44.784  0.00  0.00    +0.000 A 
ATOM      4  N   UNL     1      46.355  32.483  45.397  0.00  0.00    +0.000 NA
ATOM      5  C   UNL     1      46.010  32.181  46.667  0.00  0.00    +0.000 A 
ATOM      6  N   UNL     1      45.228  33.002  47.393  0.00  0.00    +0.000 NA
ATOM      7  H   UNL     1      44.145  34.818  47.425  0.00  0.00    +0.000 HD
ATOM      8  H   UNL     1      44.774  35.379  45.090  0.00  0.00    +0.000 HD
ENDROOT
BRANCH   3  11
ATOM      9 CL   UNL     1      44.098  32.563  42.693  0.00  0.00    +0.000 Cl
ATOM     10  C   UNL     1      45.549  33.476  42.402  0.00  0.00    +0.000 A 
ATOM     11  C   UNL     1      46.325  33.923  43.405  0.00  0.00    +0.000 A 
ATOM     12  C   UNL     1      47.460  34.641  43.065  0.00  0.00    +0.000 A 
ATOM     13  C   UNL     1      47.794  34.895  41.777  0.00  0.00    +0.000 A 
ATOM     14  C   UNL     1      47.005  34.441  40.748  0.00  0.00    +0.000 A 
ATOM     15  C   UNL     1      45.886  33.733  41.078  0.00  0.00    +0.000 A 
ATOM     16  H   UNL     1      48.087  35.002  43.881  0.00  0.00    +0.000 HD
ATOM     17  H   UNL     1      47.238  34.623  39.706  0.00  0.00    +0.000 HD
ATOM     18  H   UNL     1      45.260  33.372  40.265  0.00  0.00    +0.000 HD
BRANCH  13  19
ATOM     19  C   UNL     1      49.017  35.669  41.411  0.00  0.00    +0.000 C 
ATOM     20  F   UNL     1      50.114  34.937  41.767  0.00  0.00    +0.000 F 
ATOM     21  F   UNL     1      49.004  36.929  41.983  0.00  0.00    +0.000 F 
ATOM     22  F   UNL     1      49.005  35.848  40.027  0.00  0.00    +0.000 F 
ENDBRANCH  13  19
ENDBRANCH   3  11
BRANCH   5  23
ATOM     23  C   UNL     1      46.578  30.912  47.106  0.00  0.00    +0.000 A 
ATOM     24  C   UNL     1      47.785  30.993  47.806  0.00  0.00    +0.000 A 
ATOM     25  H   UNL     1      48.423  31.827  48.111  0.00  0.00    +0.000 HD
ATOM     26  C   UNL     1      48.154  29.692  48.131  0.00  0.00    +0.000 A 
ATOM     27  H   UNL     1      49.034  29.319  48.678  0.00  0.00    +0.000 HD
ATOM     28  C   UNL     1      47.141  28.896  47.604  0.00  0.00    +0.000 A 
ATOM     29  H   UNL     1      47.120  27.819  47.681  0.00  0.00    +0.000 HD
ATOM     30  O   UNL     1      46.244  29.636  47.017  0.00  0.00    +0.000 OA
ENDBRANCH   5  23
TORSDOF 3
