
 OpenBabel03252509083D

 40 43  0  0  0  0  0  0  0  0999 V2000
   47.4740   31.7610   38.8660 C   0  0  0  0  0  0  0  0  0  0  0  0
   47.1180   33.0730   38.9280 C   0  0  0  0  0  0  0  0  0  0  0  0
   47.8240   34.0200   38.2030 C   0  0  0  0  0  0  0  0  0  0  0  0
   48.8850   33.6300   37.4200 C   0  0  0  0  0  0  0  0  0  0  0  0
   49.2810   32.2980   37.3270 C   0  0  0  0  0  0  0  0  0  0  0  0
   48.5520   31.3630   38.0700 C   0  0  0  0  0  0  0  0  0  0  0  0
   47.5740   35.0710   38.2240 H   0  0  0  0  0  0  0  0  0  0  0  0
   49.5040   34.2700   36.8150 H   0  0  0  0  0  0  0  0  0  0  0  0
   50.0900   31.9250   36.7420 H   0  0  0  0  0  0  0  0  0  0  0  0
   48.8310   30.3120   38.0240 H   0  0  0  0  0  0  0  0  0  0  0  0
   45.4190   35.3950   43.2150 Cl  0  0  0  0  0  0  0  0  0  0  0  0
   45.2090   34.6410   41.6570 C   0  0  0  0  0  0  0  0  0  0  0  0
   46.2740   34.1900   40.9470 C   0  0  0  0  0  0  0  0  0  0  0  0
   46.0040   33.5880   39.7270 C   0  0  0  0  0  0  0  0  0  0  0  0
   44.7200   33.4530   39.2550 C   0  0  0  0  0  0  0  0  0  0  0  0
   43.6680   33.9110   39.9780 C   0  0  0  0  0  0  0  0  0  0  0  0
   43.9240   34.5080   41.1870 C   0  0  0  0  0  0  0  0  0  0  0  0
   44.5730   32.9790   38.2990 H   0  0  0  0  0  0  0  0  0  0  0  0
   42.6680   33.7910   39.5790 H   0  0  0  0  0  0  0  0  0  0  0  0
   43.0640   34.8660   41.7470 H   0  0  0  0  0  0  0  0  0  0  0  0
   49.5930   35.6680   41.9690 C   0  0  0  0  0  0  0  0  0  0  0  0
   48.3050   35.5310   41.4350 C   0  0  0  0  0  0  0  0  0  0  0  0
   47.6030   34.3430   41.4940 C   0  0  0  0  0  0  0  0  0  0  0  0
   48.2610   33.3260   42.1080 N   0  0  0  0  0  0  0  0  0  0  0  0
   49.4920   33.4490   42.6210 C   0  0  0  0  0  0  0  0  0  0  0  0
   50.1480   34.6110   42.5490 N   0  0  0  0  0  0  0  0  0  0  0  0
   50.0650   36.6380   41.8750 H   0  0  0  0  0  0  0  0  0  0  0  0
   47.8270   36.3740   40.9580 H   0  0  0  0  0  0  0  0  0  0  0  0
   49.8670   32.5390   43.0740 H   0  0  0  0  0  0  0  0  0  0  0  0
   46.6130   30.5810   39.7030 S   0  0  0  0  0  0  0  0  0  0  0  0
   45.3570   30.1570   38.9740 O   0  0  0  0  0  0  0  0  0  0  0  0
   47.5240   29.3030   39.5850 O   0  0  0  0  0  0  0  0  0  0  0  0
   46.2070   30.6670   41.3740 C   0  0  0  0  0  0  0  0  0  0  0  0
   44.8510   30.8260   41.7610 C   0  0  0  0  0  0  0  0  0  0  0  0
   43.9510   30.9110   41.1200 H   0  0  0  0  0  0  0  0  0  0  0  0
   44.6710   30.8800   43.1240 C   0  0  0  0  0  0  0  0  0  0  0  0
   43.7860   30.9920   43.7000 H   0  0  0  0  0  0  0  0  0  0  0  0
   45.9540   30.7490   43.5500 C   0  0  0  0  0  0  0  0  0  0  0  0
   46.3410   30.7310   44.5810 H   0  0  0  0  0  0  0  0  0  0  0  0
   46.7450   30.6370   42.5660 O   0  0  0  0  0  0  0  0  0  0  0  0
  1  2  1  0  0  0  0
  1 30  1  0  0  0  0
  2 14  1  0  0  0  0
  3  7  1  0  0  0  0
  3  2  2  0  0  0  0
  4  3  1  0  0  0  0
  5  4  2  0  0  0  0
  5  6  1  0  0  0  0
  6  1  2  0  0  0  0
  8  4  1  0  0  0  0
  9  5  1  0  0  0  0
 10  6  1  0  0  0  0
 12 11  1  0  0  0  0
 13 23  1  0  0  0  0
 13 12  2  0  0  0  0
 14 13  1  0  0  0  0
 15 14  2  0  0  0  0
 15 16  1  0  0  0  0
 16 17  2  0  0  0  0
 17 12  1  0  0  0  0
 17 20  1  0  0  0  0
 18 15  1  0  0  0  0
 19 16  1  0  0  0  0
 21 26  1  0  0  0  0
 22 23  1  0  0  0  0
 22 21  2  0  0  0  0
 23 24  2  0  0  0  0
 24 25  1  0  0  0  0
 25 29  1  0  0  0  0
 26 25  2  0  0  0  0
 27 21  1  0  0  0  0
 28 22  1  0  0  0  0
 30 33  1  0  0  0  0
 31 30  2  0  0  0  0
 32 30  2  0  0  0  0
 33 34  2  0  0  0  0
 33 40  1  0  0  0  0
 34 36  1  0  0  0  0
 35 34  1  0  0  0  0
 36 38  2  0  0  0  0
 36 37  1  0  0  0  0
 38 39  1  0  0  0  0
 40 38  1  0  0  0  0
M  END
>  <minimizedAffinity>
-4.67153931

>  <minimizedRMSD>
0.83405751

$$$$
