
 OpenBabel03252509003D

 44 46  0  0  1  0  0  0  0  0999 V2000
   47.4420   30.7440   47.9900 N   0  0  0  0  0  0  0  0  0  0  0  0
   46.7090   30.8440   49.1990 C   0  0  0  0  0  0  0  0  0  0  0  0
   45.7310   31.9990   49.2630 C   0  0  0  0  0  0  0  0  0  0  0  0
   45.1150   32.3700   47.9410 C   0  0  0  0  0  0  0  0  0  0  0  0
   45.5280   31.4120   46.8500 C   0  0  0  0  0  0  0  0  0  0  0  0
   47.0990   31.4900   46.8760 C   0  0  2  0  0  0  0  0  0  0  0  0
   47.3000   30.8620   50.1220 H   0  0  0  0  0  0  0  0  0  0  0  0
   46.0920   29.9070   49.2710 H   0  0  0  0  0  0  0  0  0  0  0  0
   46.1850   32.8690   49.7810 H   0  0  0  0  0  0  0  0  0  0  0  0
   44.8790   31.7010   49.9230 H   0  0  0  0  0  0  0  0  0  0  0  0
   44.0150   32.3750   47.9510 H   0  0  0  0  0  0  0  0  0  0  0  0
   45.4580   33.3750   47.6510 H   0  0  0  0  0  0  0  0  0  0  0  0
   45.1610   31.7860   45.8870 H   0  0  0  0  0  0  0  0  0  0  0  0
   45.2740   30.3710   47.0470 H   0  0  0  0  0  0  0  0  0  0  0  0
   47.3850   32.5610   46.8550 H   0  0  0  0  0  0  0  0  0  0  0  0
   48.8120   30.3450   48.1610 C   0  0  0  0  0  0  0  0  0  0  0  0
   48.8560   29.2370   48.0530 H   0  0  0  0  0  0  0  0  0  0  0  0
   49.4620   30.7960   47.3840 H   0  0  0  0  0  0  0  0  0  0  0  0
   49.2790   30.8200   49.5020 C   0  0  0  0  0  0  0  0  0  0  0  0
   48.4140   31.1570   50.1340 H   0  0  0  0  0  0  0  0  0  0  0  0
   49.9770   31.6740   49.4500 H   0  0  0  0  0  0  0  0  0  0  0  0
   50.6940   27.4200   50.2370 C   0  0  0  0  0  0  0  0  0  0  0  0
   50.0880   28.4960   49.5610 C   0  0  0  0  0  0  0  0  0  0  0  0
   49.9190   29.6900   50.2240 C   0  0  0  0  0  0  0  0  0  0  0  0
   50.3440   29.7630   51.4890 N   0  0  0  0  0  0  0  0  0  0  0  0
   50.9210   28.7300   52.1280 C   0  0  0  0  0  0  0  0  0  0  0  0
   51.1010   27.5450   51.5030 N   0  0  0  0  0  0  0  0  0  0  0  0
   50.8580   26.4700   49.7920 H   0  0  0  0  0  0  0  0  0  0  0  0
   49.7910   28.3010   48.5410 H   0  0  0  0  0  0  0  0  0  0  0  0
   51.2560   28.8260   53.1610 H   0  0  0  0  0  0  0  0  0  0  0  0
   47.4270   30.8380   45.6970 O   0  0  0  0  0  0  0  0  0  0  0  0
   45.9830   31.2850   43.5090 O   0  0  0  0  0  0  0  0  0  0  0  0
   47.1750   31.7890   44.3320 P   0  0  2  0  0  0  0  0  0  0  0  0
   48.5330   31.5260   43.3200 O   0  0  0  0  0  0  0  0  0  0  0  0
   49.3540   31.4880   43.8840 H   0  0  0  0  0  0  0  0  0  0  0  0
   47.0920   33.4050   44.6640 O   0  0  0  0  0  0  0  0  0  0  0  0
   46.1970   34.3530   44.2500 C   0  0  0  0  0  0  0  0  0  0  0  0
   45.1250   34.7310   45.0650 C   0  0  0  0  0  0  0  0  0  0  0  0
   44.8630   34.3690   46.0510 H   0  0  0  0  0  0  0  0  0  0  0  0
   44.4440   35.6990   44.3240 C   0  0  0  0  0  0  0  0  0  0  0  0
   43.5410   36.1760   44.7360 H   0  0  0  0  0  0  0  0  0  0  0  0
   45.1340   35.8490   43.1180 C   0  0  0  0  0  0  0  0  0  0  0  0
   44.7230   36.5740   42.4280 H   0  0  0  0  0  0  0  0  0  0  0  0
   46.1570   35.0350   43.1260 O   0  0  0  0  0  0  0  0  0  0  0  0
  1 16  1  0  0  0  0
  1  2  1  0  0  0  0
  2  3  1  0  0  0  0
  2  8  1  0  0  0  0
  2  7  1  0  0  0  0
  3  9  1  0  0  0  0
  3 10  1  0  0  0  0
  4 11  1  0  0  0  0
  4  3  1  0  0  0  0
  5  6  1  0  0  0  0
  5 14  1  0  0  0  0
  5  4  1  0  0  0  0
  6 15  1  1  0  0  0
  6  1  1  0  0  0  0
 12  4  1  0  0  0  0
 13  5  1  0  0  0  0
 16 19  1  0  0  0  0
 17 16  1  0  0  0  0
 18 16  1  0  0  0  0
 19 20  1  0  0  0  0
 19 24  1  0  0  0  0
 21 19  1  0  0  0  0
 22 27  1  0  0  0  0
 23 24  1  0  0  0  0
 23 22  2  0  0  0  0
 24 25  2  0  0  0  0
 25 26  1  0  0  0  0
 26 30  1  0  0  0  0
 27 26  2  0  0  0  0
 28 22  1  0  0  0  0
 29 23  1  0  0  0  0
 31  6  1  0  0  0  0
 33 32  2  6  0  0  0
 33 36  1  0  0  0  0
 33 31  1  0  0  0  0
 34 35  1  0  0  0  0
 34 33  1  0  0  0  0
 37 36  1  0  0  0  0
 37 38  2  0  0  0  0
 38 39  1  0  0  0  0
 40 41  1  0  0  0  0
 40 38  1  0  0  0  0
 42 44  1  0  0  0  0
 42 40  2  0  0  0  0
 43 42  1  0  0  0  0
 44 37  1  0  0  0  0
M  END
>  <minimizedAffinity>
-5.11447906

>  <minimizedRMSD>
8.39582825

$$$$
