
 OpenBabel03252502503D

 33 35  0  0  0  0  0  0  0  0999 V2000
   44.6130   36.2120   43.9620 C   0  0  0  0  0  0  0  0  0  0  0  0
   44.8200   35.3990   45.0940 C   0  0  0  0  0  0  0  0  0  0  0  0
   45.5360   34.2150   44.9180 C   0  0  0  0  0  0  0  0  0  0  0  0
   45.9950   33.9020   43.6870 N   0  0  0  0  0  0  0  0  0  0  0  0
   45.7770   34.7100   42.6170 C   0  0  0  0  0  0  0  0  0  0  0  0
   45.0880   35.8630   42.7510 N   0  0  0  0  0  0  0  0  0  0  0  0
   44.0630   37.1400   44.0510 H   0  0  0  0  0  0  0  0  0  0  0  0
   44.4300   35.6980   46.0580 H   0  0  0  0  0  0  0  0  0  0  0  0
   48.5210   35.6950   41.9950 Cl  0  0  0  0  0  0  0  0  0  0  0  0
   47.5490   34.7110   40.9270 C   0  0  0  0  0  0  0  0  0  0  0  0
   46.3040   34.3110   41.3060 C   0  0  0  0  0  0  0  0  0  0  0  0
   45.4940   33.5170   40.4700 C   0  0  0  0  0  0  0  0  0  0  0  0
   46.0550   33.1800   39.2500 C   0  0  0  0  0  0  0  0  0  0  0  0
   47.3050   33.5830   38.8750 C   0  0  0  0  0  0  0  0  0  0  0  0
   48.0830   34.3570   39.7010 C   0  0  0  0  0  0  0  0  0  0  0  0
   44.5180   33.1940   40.7450 H   0  0  0  0  0  0  0  0  0  0  0  0
   45.5220   32.5680   38.5190 H   0  0  0  0  0  0  0  0  0  0  0  0
   47.7500   33.3230   37.9200 H   0  0  0  0  0  0  0  0  0  0  0  0
   49.0600   34.6890   39.4400 H   0  0  0  0  0  0  0  0  0  0  0  0
   45.7490   33.3620   46.1040 C   0  0  0  0  0  0  0  0  0  0  0  0
   46.3540   33.8500   46.8790 H   0  0  0  0  0  0  0  0  0  0  0  0
   44.7280   33.1890   46.5500 H   0  0  0  0  0  0  0  0  0  0  0  0
   46.2780   31.9790   45.7540 C   0  0  0  0  0  0  0  0  0  0  0  0
   45.4740   31.2620   45.5780 H   0  0  0  0  0  0  0  0  0  0  0  0
   47.0140   32.0770   44.9290 H   0  0  0  0  0  0  0  0  0  0  0  0
   47.0790   31.5330   46.9490 C   0  0  0  0  0  0  0  0  0  0  0  0
   47.4770   32.3450   48.0120 C   0  0  0  0  0  0  0  0  0  0  0  0
   47.2700   33.4120   48.1330 H   0  0  0  0  0  0  0  0  0  0  0  0
   48.1860   31.4930   48.8620 C   0  0  0  0  0  0  0  0  0  0  0  0
   48.6390   31.8150   49.8010 H   0  0  0  0  0  0  0  0  0  0  0  0
   48.1780   30.2440   48.2850 C   0  0  0  0  0  0  0  0  0  0  0  0
   48.6450   29.3470   48.6930 H   0  0  0  0  0  0  0  0  0  0  0  0
   47.5160   30.3020   47.1550 O   0  0  0  0  0  0  0  0  0  0  0  0
  1  7  1  0  0  0  0
  1  2  1  0  0  0  0
  2  8  1  0  0  0  0
  3  2  2  0  0  0  0
  3 20  1  0  0  0  0
  4  3  1  0  0  0  0
  5  6  1  0  0  0  0
  5  4  2  0  0  0  0
  6  1  2  0  0  0  0
 10 11  1  0  0  0  0
 10  9  1  0  0  0  0
 11  5  1  0  0  0  0
 12 16  1  0  0  0  0
 12 11  2  0  0  0  0
 13 12  1  0  0  0  0
 14 13  2  0  0  0  0
 14 15  1  0  0  0  0
 15 10  2  0  0  0  0
 17 13  1  0  0  0  0
 18 14  1  0  0  0  0
 19 15  1  0  0  0  0
 20 22  1  0  0  0  0
 20 21  1  0  0  0  0
 23 20  1  0  0  0  0
 23 26  1  0  0  0  0
 24 23  1  0  0  0  0
 25 23  1  0  0  0  0
 26 33  1  0  0  0  0
 26 27  2  0  0  0  0
 27 28  1  0  0  0  0
 27 29  1  0  0  0  0
 29 30  1  0  0  0  0
 31 32  1  0  0  0  0
 31 29  2  0  0  0  0
 33 31  1  0  0  0  0
M  END
>  <minimizedAffinity>
-5.60128212

>  <minimizedRMSD>
0.487971097

$$$$
