
 OpenBabel03252505403D

 27 29  0  0  1  0  0  0  0  0999 V2000
   44.6730   34.4010   43.3560 C   0  0  1  0  0  0  0  0  0  0  0  0
   45.2920   35.8030   43.4390 C   0  0  0  0  0  0  0  0  0  0  0  0
   45.1810   35.0550   42.1530 C   0  0  1  0  0  0  0  0  0  0  0  0
   43.5750   34.3480   43.5280 H   0  0  0  0  0  0  0  0  0  0  0  0
   46.2450   35.8800   43.9830 H   0  0  0  0  0  0  0  0  0  0  0  0
   44.5600   36.5980   43.6840 H   0  0  0  0  0  0  0  0  0  0  0  0
   44.3990   35.4750   41.4510 H   0  0  0  0  0  0  0  0  0  0  0  0
   45.4030   33.3480   44.0900 C   0  0  0  0  0  0  0  0  0  0  0  0
   45.9460   32.2980   43.3070 C   0  0  0  0  0  0  0  0  0  0  0  0
   46.6530   31.3060   43.9650 C   0  0  0  0  0  0  0  0  0  0  0  0
   46.7840   31.4000   45.3250 N   0  0  0  0  0  0  0  0  0  0  0  0
   46.2510   32.4140   46.0270 C   0  0  0  0  0  0  0  0  0  0  0  0
   45.5620   33.3840   45.4000 N   0  0  0  0  0  0  0  0  0  0  0  0
   45.8620   32.1760   42.2350 H   0  0  0  0  0  0  0  0  0  0  0  0
   47.0860   30.4860   43.4200 H   0  0  0  0  0  0  0  0  0  0  0  0
   46.5110   32.3270   47.4980 C   0  0  0  0  0  0  0  0  0  0  0  0
   45.5110   32.9150   48.2300 F   0  0  0  0  0  0  0  0  0  0  0  0
   47.7210   32.9510   47.8080 F   0  0  0  0  0  0  0  0  0  0  0  0
   46.6760   30.9870   47.8450 F   0  0  0  0  0  0  0  0  0  0  0  0
   46.5200   34.8010   41.5550 C   0  0  0  0  0  0  0  0  0  0  0  0
   47.6390   35.3700   42.1290 C   0  0  0  0  0  0  0  0  0  0  0  0
   47.7650   36.0240   43.0060 H   0  0  0  0  0  0  0  0  0  0  0  0
   48.7510   34.9850   41.3930 C   0  0  0  0  0  0  0  0  0  0  0  0
   49.8060   35.2100   41.5080 H   0  0  0  0  0  0  0  0  0  0  0  0
   48.2400   34.1950   40.4030 C   0  0  0  0  0  0  0  0  0  0  0  0
   48.8290   33.7140   39.6330 H   0  0  0  0  0  0  0  0  0  0  0  0
   46.9580   34.1150   40.5310 O   0  0  0  0  0  0  0  0  0  0  0  0
  1  2  1  0  0  0  0
  1  4  1  1  0  0  0
  1  8  1  0  0  0  0
  2  6  1  0  0  0  0
  2  5  1  0  0  0  0
  3  7  1  6  0  0  0
  3  1  1  0  0  0  0
  3  2  1  0  0  0  0
  8 13  1  0  0  0  0
  9 10  1  0  0  0  0
  9  8  2  0  0  0  0
 10 11  2  0  0  0  0
 11 12  1  0  0  0  0
 12 16  1  0  0  0  0
 13 12  2  0  0  0  0
 14  9  1  0  0  0  0
 15 10  1  0  0  0  0
 16 18  1  0  0  0  0
 16 19  1  0  0  0  0
 16 17  1  0  0  0  0
 20 21  2  0  0  0  0
 20  3  1  0  0  0  0
 21 22  1  0  0  0  0
 23 24  1  0  0  0  0
 23 21  1  0  0  0  0
 25 27  1  0  0  0  0
 25 23  2  0  0  0  0
 26 25  1  0  0  0  0
 27 20  1  0  0  0  0
M  END
>  <minimizedAffinity>
-4.75937843

>  <minimizedRMSD>
1.49561906

$$$$
