
 OpenBabel03242514213D

 48 50  0  0  0  0  0  0  0  0999 V2000
   38.9740   25.8390   42.2300 C   0  0  0  0  0  0  0  0  0  0  0  0
   39.1480   26.8480   43.1450 C   0  0  0  0  0  0  0  0  0  0  0  0
   40.3990   26.9900   43.6800 C   0  0  0  0  0  0  0  0  0  0  0  0
   41.3950   26.1620   43.3020 N   0  0  0  0  0  0  0  0  0  0  0  0
   41.2260   25.1850   42.4140 C   0  0  0  0  0  0  0  0  0  0  0  0
   40.0180   25.0500   41.9010 N   0  0  0  0  0  0  0  0  0  0  0  0
   40.7540   27.7060   44.4060 H   0  0  0  0  0  0  0  0  0  0  0  0
   42.0290   24.5200   42.1100 H   0  0  0  0  0  0  0  0  0  0  0  0
   37.6490   25.7250   41.6080 C   0  0  0  0  0  0  0  0  0  0  0  0
   37.0480   24.3660   41.8350 C   0  0  0  0  0  0  0  0  0  0  0  0
   36.8690   23.6130   40.5950 C   0  0  0  0  0  0  0  0  0  0  0  0
   36.0420   24.3790   39.5870 C   0  0  0  0  0  0  0  0  0  0  0  0
   36.4220   25.8040   39.4700 C   0  0  0  0  0  0  0  0  0  0  0  0
   37.7280   26.0940   40.1720 C   0  0  0  0  0  0  0  0  0  0  0  0
   36.9540   26.3920   42.1500 H   0  0  0  0  0  0  0  0  0  0  0  0
   36.0750   24.4200   42.3550 H   0  0  0  0  0  0  0  0  0  0  0  0
   37.7150   23.8120   42.5280 H   0  0  0  0  0  0  0  0  0  0  0  0
   37.8680   23.3360   40.1860 H   0  0  0  0  0  0  0  0  0  0  0  0
   36.2870   22.6770   40.8150 H   0  0  0  0  0  0  0  0  0  0  0  0
   34.9680   24.2600   39.8490 H   0  0  0  0  0  0  0  0  0  0  0  0
   36.2230   23.8520   38.6080 H   0  0  0  0  0  0  0  0  0  0  0  0
   36.5830   26.0710   38.3980 H   0  0  0  0  0  0  0  0  0  0  0  0
   35.6200   26.4590   39.8860 H   0  0  0  0  0  0  0  0  0  0  0  0
   38.0160   27.1490   40.0050 H   0  0  0  0  0  0  0  0  0  0  0  0
   38.5100   25.4250   39.7120 H   0  0  0  0  0  0  0  0  0  0  0  0
   38.3100   27.7570   43.6430 O   0  0  0  0  0  0  0  0  0  0  0  0
   38.0880   29.0850   43.4090 C   0  0  0  0  0  0  0  0  0  0  0  0
   38.9660   29.7620   43.4130 H   0  0  0  0  0  0  0  0  0  0  0  0
   37.3840   29.5640   44.1520 H   0  0  0  0  0  0  0  0  0  0  0  0
   37.4490   29.3680   42.0540 C   0  0  0  0  0  0  0  0  0  0  0  0
   37.5330   28.4540   41.4140 H   0  0  0  0  0  0  0  0  0  0  0  0
   36.3630   29.5400   42.1990 H   0  0  0  0  0  0  0  0  0  0  0  0
   38.0840   30.4660   41.3740 N   0  0  0  0  0  0  0  0  0  0  0  0
   38.7340   30.1040   40.6270 H   0  0  0  0  0  0  0  0  0  0  0  0
   36.8390   31.3490   40.5260 S   0  0  0  0  0  0  0  0  0  0  0  0
   37.0930   32.8240   40.5850 O   0  0  0  0  0  0  0  0  0  0  0  0
   37.4770   33.3530   39.8220 H   0  0  0  0  0  0  0  0  0  0  0  0
   35.5340   31.0120   41.1810 O   0  0  0  0  0  0  0  0  0  0  0  0
   35.4400   31.1470   42.1710 H   0  0  0  0  0  0  0  0  0  0  0  0
   36.7350   30.8490   38.9320 O   0  0  0  0  0  0  0  0  0  0  0  0
   35.8250   29.9030   38.5450 C   0  0  0  0  0  0  0  0  0  0  0  0
   36.0170   29.3340   37.2840 C   0  0  0  0  0  0  0  0  0  0  0  0
   36.7770   29.4920   36.5040 H   0  0  0  0  0  0  0  0  0  0  0  0
   35.0040   28.4120   37.0780 C   0  0  0  0  0  0  0  0  0  0  0  0
   34.8380   27.7850   36.2120 H   0  0  0  0  0  0  0  0  0  0  0  0
   34.2470   28.4820   38.2500 C   0  0  0  0  0  0  0  0  0  0  0  0
   33.3710   27.8420   38.3470 H   0  0  0  0  0  0  0  0  0  0  0  0
   34.7690   29.3610   39.0600 O   0  0  0  0  0  0  0  0  0  0  0  0
  1  2  1  0  0  0  0
  2 26  1  0  0  0  0
  2  3  2  0  0  0  0
  3  7  1  0  0  0  0
  4  3  1  0  0  0  0
  5  4  2  0  0  0  0
  6  1  2  0  0  0  0
  6  5  1  0  0  0  0
  8  5  1  0  0  0  0
  9 10  1  0  0  0  0
  9 15  1  0  0  0  0
  9  1  1  0  0  0  0
 10 16  1  0  0  0  0
 10 17  1  0  0  0  0
 11 19  1  0  0  0  0
 11 10  1  0  0  0  0
 12 20  1  0  0  0  0
 12 11  1  0  0  0  0
 13 12  1  0  0  0  0
 13 23  1  0  0  0  0
 13 14  1  0  0  0  0
 14  9  1  0  0  0  0
 18 11  1  0  0  0  0
 21 12  1  0  0  0  0
 22 13  1  0  0  0  0
 24 14  1  0  0  0  0
 25 14  1  0  0  0  0
 27 28  1  0  0  0  0
 27 26  1  0  0  0  0
 27 29  1  0  0  0  0
 30 32  1  0  0  0  0
 30 27  1  0  0  0  0
 31 30  1  0  0  0  0
 33 30  1  0  0  0  0
 34 33  1  0  0  0  0
 35 36  1  0  0  0  0
 35 38  1  0  0  0  0
 35 33  1  0  0  0  0
 37 36  1  0  0  0  0
 38 39  1  0  0  0  0
 40 35  1  0  0  0  0
 41 40  1  0  0  0  0
 41 48  1  0  0  0  0
 42 41  2  0  0  0  0
 43 42  1  0  0  0  0
 44 42  1  0  0  0  0
 44 46  2  0  0  0  0
 45 44  1  0  0  0  0
 46 47  1  0  0  0  0
 46 48  1  0  0  0  0
M  END
>  <minimizedAffinity>
-5.70938826

$$$$

 OpenBabel03242514213D

 48 50  0  0  0  0  0  0  0  0999 V2000
   37.1460   29.5820   41.2870 C   0  0  0  0  0  0  0  0  0  0  0  0
   38.3470   30.1790   41.5860 C   0  0  0  0  0  0  0  0  0  0  0  0
   39.0170   29.7080   42.6810 C   0  0  0  0  0  0  0  0  0  0  0  0
   38.4970   28.7010   43.4110 N   0  0  0  0  0  0  0  0  0  0  0  0
   37.3340   28.1210   43.1210 C   0  0  0  0  0  0  0  0  0  0  0  0
   36.6900   28.5790   42.0640 N   0  0  0  0  0  0  0  0  0  0  0  0
   39.9630   30.0280   43.0920 H   0  0  0  0  0  0  0  0  0  0  0  0
   36.9180   27.3090   43.7090 H   0  0  0  0  0  0  0  0  0  0  0  0
   36.4560   30.0440   40.0760 C   0  0  0  0  0  0  0  0  0  0  0  0
   35.0600   29.4910   39.9920 C   0  0  0  0  0  0  0  0  0  0  0  0
   34.8750   28.5940   38.8540 C   0  0  0  0  0  0  0  0  0  0  0  0
   35.2430   29.2620   37.5470 C   0  0  0  0  0  0  0  0  0  0  0  0
   36.5050   30.0310   37.6100 C   0  0  0  0  0  0  0  0  0  0  0  0
   37.2760   29.7380   38.8760 C   0  0  0  0  0  0  0  0  0  0  0  0
   36.2820   31.1310   40.1690 H   0  0  0  0  0  0  0  0  0  0  0  0
   34.2970   30.2890   39.9380 H   0  0  0  0  0  0  0  0  0  0  0  0
   34.8500   28.9560   40.9420 H   0  0  0  0  0  0  0  0  0  0  0  0
   35.4600   27.6620   39.0220 H   0  0  0  0  0  0  0  0  0  0  0  0
   33.7840   28.3360   38.7640 H   0  0  0  0  0  0  0  0  0  0  0  0
   34.3900   29.8980   37.2230 H   0  0  0  0  0  0  0  0  0  0  0  0
   35.3450   28.4150   36.8120 H   0  0  0  0  0  0  0  0  0  0  0  0
   37.1750   29.7360   36.7670 H   0  0  0  0  0  0  0  0  0  0  0  0
   36.3010   31.1260   37.5410 H   0  0  0  0  0  0  0  0  0  0  0  0
   38.2430   30.2740   38.8570 H   0  0  0  0  0  0  0  0  0  0  0  0
   37.4740   28.6280   38.8980 H   0  0  0  0  0  0  0  0  0  0  0  0
   39.0220   31.1700   41.0020 O   0  0  0  0  0  0  0  0  0  0  0  0
   38.8930   32.5300   40.9720 C   0  0  0  0  0  0  0  0  0  0  0  0
   39.6960   33.1330   41.4410 H   0  0  0  0  0  0  0  0  0  0  0  0
   37.9540   32.9070   41.4750 H   0  0  0  0  0  0  0  0  0  0  0  0
   38.8180   33.1050   39.5620 C   0  0  0  0  0  0  0  0  0  0  0  0
   38.3240   32.3600   38.8900 H   0  0  0  0  0  0  0  0  0  0  0  0
   38.1530   33.9930   39.5730 H   0  0  0  0  0  0  0  0  0  0  0  0
   40.1200   33.4120   39.0310 N   0  0  0  0  0  0  0  0  0  0  0  0
   40.8600   33.2430   39.7630 H   0  0  0  0  0  0  0  0  0  0  0  0
   40.4500   32.2680   37.7550 S   0  0  0  0  0  0  0  0  0  0  0  0
   39.3740   32.3030   36.7120 O   0  0  0  0  0  0  0  0  0  0  0  0
   39.4740   32.7640   35.8260 H   0  0  0  0  0  0  0  0  0  0  0  0
   40.5290   30.9120   38.3860 O   0  0  0  0  0  0  0  0  0  0  0  0
   39.7600   30.5920   38.9450 H   0  0  0  0  0  0  0  0  0  0  0  0
   41.9380   32.5730   37.0520 O   0  0  0  0  0  0  0  0  0  0  0  0
   42.7630   31.5500   36.6690 C   0  0  0  0  0  0  0  0  0  0  0  0
   44.1250   31.7160   36.9330 C   0  0  0  0  0  0  0  0  0  0  0  0
   44.6970   32.5290   37.4030 H   0  0  0  0  0  0  0  0  0  0  0  0
   44.7840   30.5880   36.4760 C   0  0  0  0  0  0  0  0  0  0  0  0
   45.8440   30.3720   36.5150 H   0  0  0  0  0  0  0  0  0  0  0  0
   43.7610   29.7920   35.9540 C   0  0  0  0  0  0  0  0  0  0  0  0
   44.0170   28.8260   35.5210 H   0  0  0  0  0  0  0  0  0  0  0  0
   42.6160   30.4010   36.0930 O   0  0  0  0  0  0  0  0  0  0  0  0
  1  2  2  0  0  0  0
  1  6  1  0  0  0  0
  2  3  1  0  0  0  0
  3  7  1  0  0  0  0
  3  4  2  0  0  0  0
  5  4  1  0  0  0  0
  5  8  1  0  0  0  0
  6  5  2  0  0  0  0
  9 15  1  0  0  0  0
  9  1  1  0  0  0  0
 10  9  1  0  0  0  0
 10 17  1  0  0  0  0
 11 18  1  0  0  0  0
 11 10  1  0  0  0  0
 12 13  1  0  0  0  0
 12 11  1  0  0  0  0
 13 14  1  0  0  0  0
 14 25  1  0  0  0  0
 14  9  1  0  0  0  0
 16 10  1  0  0  0  0
 19 11  1  0  0  0  0
 20 12  1  0  0  0  0
 21 12  1  0  0  0  0
 22 13  1  0  0  0  0
 23 13  1  0  0  0  0
 24 14  1  0  0  0  0
 26  2  1  0  0  0  0
 27 26  1  0  0  0  0
 27 28  1  0  0  0  0
 27 29  1  0  0  0  0
 30 32  1  0  0  0  0
 30 27  1  0  0  0  0
 31 30  1  0  0  0  0
 33 30  1  0  0  0  0
 33 34  1  0  0  0  0
 35 38  1  0  0  0  0
 35 33  1  0  0  0  0
 36 35  1  0  0  0  0
 37 36  1  0  0  0  0
 38 39  1  0  0  0  0
 40 35  1  0  0  0  0
 41 42  2  0  0  0  0
 41 40  1  0  0  0  0
 42 43  1  0  0  0  0
 44 45  1  0  0  0  0
 44 42  1  0  0  0  0
 46 48  1  0  0  0  0
 46 44  2  0  0  0  0
 47 46  1  0  0  0  0
 48 41  1  0  0  0  0
M  END
>  <minimizedAffinity>
-5.43052912

$$$$

 OpenBabel03242514213D

 48 50  0  0  0  0  0  0  0  0999 V2000
   37.5540   27.0470   41.9580 C   0  0  0  0  0  0  0  0  0  0  0  0
   36.9270   28.2670   41.8920 C   0  0  0  0  0  0  0  0  0  0  0  0
   37.5610   29.3230   42.4880 C   0  0  0  0  0  0  0  0  0  0  0  0
   38.7470   29.1400   43.1030 N   0  0  0  0  0  0  0  0  0  0  0  0
   39.3560   27.9580   43.1660 C   0  0  0  0  0  0  0  0  0  0  0  0
   38.7410   26.9420   42.5910 N   0  0  0  0  0  0  0  0  0  0  0  0
   37.2510   30.3550   42.5550 H   0  0  0  0  0  0  0  0  0  0  0  0
   40.3120   27.8130   43.6600 H   0  0  0  0  0  0  0  0  0  0  0  0
   36.9070   25.9270   41.2650 C   0  0  0  0  0  0  0  0  0  0  0  0
   37.0050   24.6550   42.0590 C   0  0  0  0  0  0  0  0  0  0  0  0
   37.8050   23.6310   41.3900 C   0  0  0  0  0  0  0  0  0  0  0  0
   37.2860   23.3310   40.0010 C   0  0  0  0  0  0  0  0  0  0  0  0
   36.9400   24.5410   39.2240 C   0  0  0  0  0  0  0  0  0  0  0  0
   37.4520   25.7980   39.8890 C   0  0  0  0  0  0  0  0  0  0  0  0
   35.8180   26.1160   41.2420 H   0  0  0  0  0  0  0  0  0  0  0  0
   36.0120   24.2280   42.2910 H   0  0  0  0  0  0  0  0  0  0  0  0
   37.4480   24.9050   43.0460 H   0  0  0  0  0  0  0  0  0  0  0  0
   38.8720   23.9510   41.3730 H   0  0  0  0  0  0  0  0  0  0  0  0
   37.7180   22.6660   41.9610 H   0  0  0  0  0  0  0  0  0  0  0  0
   36.4200   22.6380   40.0910 H   0  0  0  0  0  0  0  0  0  0  0  0
   38.1250   22.7760   39.4960 H   0  0  0  0  0  0  0  0  0  0  0  0
   37.4280   24.5040   38.2210 H   0  0  0  0  0  0  0  0  0  0  0  0
   35.8350   24.6150   39.0850 H   0  0  0  0  0  0  0  0  0  0  0  0
   37.2370   26.6730   39.2480 H   0  0  0  0  0  0  0  0  0  0  0  0
   38.5690   25.6880   39.9960 H   0  0  0  0  0  0  0  0  0  0  0  0
   35.7750   28.6510   41.3410 O   0  0  0  0  0  0  0  0  0  0  0  0
   35.3870   29.0050   40.0800 C   0  0  0  0  0  0  0  0  0  0  0  0
   34.7090   29.8760   39.9750 H   0  0  0  0  0  0  0  0  0  0  0  0
   34.8450   28.1830   39.5250 H   0  0  0  0  0  0  0  0  0  0  0  0
   36.5500   29.3700   39.1640 C   0  0  0  0  0  0  0  0  0  0  0  0
   37.4840   29.4510   39.7750 H   0  0  0  0  0  0  0  0  0  0  0  0
   36.7220   28.5360   38.4530 H   0  0  0  0  0  0  0  0  0  0  0  0
   36.3340   30.6220   38.4860 N   0  0  0  0  0  0  0  0  0  0  0  0
   35.3210   30.9030   38.5560 H   0  0  0  0  0  0  0  0  0  0  0  0
   37.2240   31.8480   39.3520 S   0  0  0  0  0  0  0  0  0  0  0  0
   36.5280   32.2160   40.6270 O   0  0  0  0  0  0  0  0  0  0  0  0
   36.8150   31.8880   41.5320 H   0  0  0  0  0  0  0  0  0  0  0  0
   37.3330   33.0370   38.4480 O   0  0  0  0  0  0  0  0  0  0  0  0
   36.4940   33.4290   38.0600 H   0  0  0  0  0  0  0  0  0  0  0  0
   38.7830   31.3340   39.6800 O   0  0  0  0  0  0  0  0  0  0  0  0
   39.8100   31.5920   38.8130 C   0  0  0  0  0  0  0  0  0  0  0  0
   41.0970   31.2860   39.2630 C   0  0  0  0  0  0  0  0  0  0  0  0
   41.4740   30.8630   40.2060 H   0  0  0  0  0  0  0  0  0  0  0  0
   41.9870   31.6160   38.2550 C   0  0  0  0  0  0  0  0  0  0  0  0
   43.0640   31.5150   38.2550 H   0  0  0  0  0  0  0  0  0  0  0  0
   41.1680   32.1120   37.2370 C   0  0  0  0  0  0  0  0  0  0  0  0
   41.6300   32.4490   36.3100 H   0  0  0  0  0  0  0  0  0  0  0  0
   39.9210   32.0730   37.6170 O   0  0  0  0  0  0  0  0  0  0  0  0
  1  6  1  0  0  0  0
  2  1  2  0  0  0  0
  2  3  1  0  0  0  0
  3  7  1  0  0  0  0
  3  4  2  0  0  0  0
  4  5  1  0  0  0  0
  5  8  1  0  0  0  0
  6  5  2  0  0  0  0
  9  1  1  0  0  0  0
  9 10  1  0  0  0  0
 10 16  1  0  0  0  0
 10 17  1  0  0  0  0
 11 19  1  0  0  0  0
 11 10  1  0  0  0  0
 12 20  1  0  0  0  0
 12 11  1  0  0  0  0
 13 14  1  0  0  0  0
 13 12  1  0  0  0  0
 14 25  1  0  0  0  0
 14  9  1  0  0  0  0
 15  9  1  0  0  0  0
 18 11  1  0  0  0  0
 21 12  1  0  0  0  0
 22 13  1  0  0  0  0
 23 13  1  0  0  0  0
 24 14  1  0  0  0  0
 26  2  1  0  0  0  0
 27 26  1  0  0  0  0
 28 27  1  0  0  0  0
 29 27  1  0  0  0  0
 30 31  1  0  0  0  0
 30 27  1  0  0  0  0
 32 30  1  0  0  0  0
 33 34  1  0  0  0  0
 33 30  1  0  0  0  0
 33 35  1  0  0  0  0
 35 40  1  0  0  0  0
 35 36  1  0  0  0  0
 36 37  1  0  0  0  0
 38 35  1  0  0  0  0
 39 38  1  0  0  0  0
 41 42  2  0  0  0  0
 41 40  1  0  0  0  0
 42 43  1  0  0  0  0
 44 42  1  0  0  0  0
 45 44  1  0  0  0  0
 46 48  1  0  0  0  0
 46 44  2  0  0  0  0
 47 46  1  0  0  0  0
 48 41  1  0  0  0  0
M  END
>  <minimizedAffinity>
-5.3751049

$$$$

 OpenBabel03242514213D

 48 50  0  0  0  0  0  0  0  0999 V2000
   36.4940   25.5880   38.8180 C   0  0  0  0  0  0  0  0  0  0  0  0
   35.8000   26.6950   38.3930 C   0  0  0  0  0  0  0  0  0  0  0  0
   35.2530   26.6400   37.1410 C   0  0  0  0  0  0  0  0  0  0  0  0
   35.4050   25.5330   36.3840 N   0  0  0  0  0  0  0  0  0  0  0  0
   36.0760   24.4600   36.7960 C   0  0  0  0  0  0  0  0  0  0  0  0
   36.6030   24.5180   38.0050 N   0  0  0  0  0  0  0  0  0  0  0  0
   34.6770   27.3860   36.6140 H   0  0  0  0  0  0  0  0  0  0  0  0
   36.1950   23.5700   36.1870 H   0  0  0  0  0  0  0  0  0  0  0  0
   37.0270   25.6210   40.1850 C   0  0  0  0  0  0  0  0  0  0  0  0
   38.4750   26.0260   40.2030 C   0  0  0  0  0  0  0  0  0  0  0  0
   39.3530   24.9630   40.6860 C   0  0  0  0  0  0  0  0  0  0  0  0
   38.9400   24.4710   42.0550 C   0  0  0  0  0  0  0  0  0  0  0  0
   37.4820   24.2660   42.1960 C   0  0  0  0  0  0  0  0  0  0  0  0
   36.7780   24.3220   40.8590 C   0  0  0  0  0  0  0  0  0  0  0  0
   36.5360   26.4490   40.7290 H   0  0  0  0  0  0  0  0  0  0  0  0
   38.6490   26.9300   40.8160 H   0  0  0  0  0  0  0  0  0  0  0  0
   38.7570   26.3200   39.1710 H   0  0  0  0  0  0  0  0  0  0  0  0
   39.3760   24.1370   39.9380 H   0  0  0  0  0  0  0  0  0  0  0  0
   40.3920   25.3740   40.8130 H   0  0  0  0  0  0  0  0  0  0  0  0
   39.3310   25.1810   42.8170 H   0  0  0  0  0  0  0  0  0  0  0  0
   39.4800   23.4900   42.1820 H   0  0  0  0  0  0  0  0  0  0  0  0
   37.2760   23.2500   42.6090 H   0  0  0  0  0  0  0  0  0  0  0  0
   37.0430   25.0290   42.8810 H   0  0  0  0  0  0  0  0  0  0  0  0
   35.7030   24.0950   40.9940 H   0  0  0  0  0  0  0  0  0  0  0  0
   37.2400   23.5280   40.2050 H   0  0  0  0  0  0  0  0  0  0  0  0
   35.5400   27.8650   38.9770 O   0  0  0  0  0  0  0  0  0  0  0  0
   35.4910   29.1610   38.5460 C   0  0  0  0  0  0  0  0  0  0  0  0
   34.8830   29.8760   39.1340 H   0  0  0  0  0  0  0  0  0  0  0  0
   35.0870   29.2740   37.4960 H   0  0  0  0  0  0  0  0  0  0  0  0
   36.8550   29.8390   38.4950 C   0  0  0  0  0  0  0  0  0  0  0  0
   37.5470   29.3200   39.2050 H   0  0  0  0  0  0  0  0  0  0  0  0
   37.2900   29.6950   37.4850 H   0  0  0  0  0  0  0  0  0  0  0  0
   36.7830   31.2300   38.8580 N   0  0  0  0  0  0  0  0  0  0  0  0
   35.8180   31.6080   38.6620 H   0  0  0  0  0  0  0  0  0  0  0  0
   36.9860   31.3330   40.5890 S   0  0  0  0  0  0  0  0  0  0  0  0
   35.6710   31.1960   41.2920 O   0  0  0  0  0  0  0  0  0  0  0  0
   35.3690   30.3530   41.7460 H   0  0  0  0  0  0  0  0  0  0  0  0
   37.6070   32.6650   40.8820 O   0  0  0  0  0  0  0  0  0  0  0  0
   37.1590   33.4940   40.5380 H   0  0  0  0  0  0  0  0  0  0  0  0
   38.0510   30.1620   41.1340 O   0  0  0  0  0  0  0  0  0  0  0  0
   37.6420   29.1770   41.9910 C   0  0  0  0  0  0  0  0  0  0  0  0
   38.6090   28.6650   42.8590 C   0  0  0  0  0  0  0  0  0  0  0  0
   39.6740   28.8970   43.0050 H   0  0  0  0  0  0  0  0  0  0  0  0
   38.0060   27.6900   43.6350 C   0  0  0  0  0  0  0  0  0  0  0  0
   38.4530   27.0840   44.4130 H   0  0  0  0  0  0  0  0  0  0  0  0
   36.6850   27.6710   43.1810 C   0  0  0  0  0  0  0  0  0  0  0  0
   35.9830   26.9750   43.6380 H   0  0  0  0  0  0  0  0  0  0  0  0
   36.5340   28.5520   42.2300 O   0  0  0  0  0  0  0  0  0  0  0  0
  1  9  1  0  0  0  0
  2  1  1  0  0  0  0
  2 26  1  0  0  0  0
  3  2  2  0  0  0  0
  4  5  2  0  0  0  0
  4  3  1  0  0  0  0
  5  6  1  0  0  0  0
  6  1  2  0  0  0  0
  7  3  1  0  0  0  0
  8  5  1  0  0  0  0
  9 10  1  0  0  0  0
  9 15  1  0  0  0  0
  9 14  1  0  0  0  0
 10 11  1  0  0  0  0
 10 16  1  0  0  0  0
 11 19  1  0  0  0  0
 11 12  1  0  0  0  0
 12 21  1  0  0  0  0
 12 13  1  0  0  0  0
 12 20  1  0  0  0  0
 13 22  1  0  0  0  0
 13 23  1  0  0  0  0
 14 24  1  0  0  0  0
 14 13  1  0  0  0  0
 17 10  1  0  0  0  0
 18 11  1  0  0  0  0
 25 14  1  0  0  0  0
 27 26  1  0  0  0  0
 27 28  1  0  0  0  0
 29 27  1  0  0  0  0
 30 27  1  0  0  0  0
 30 33  1  0  0  0  0
 30 31  1  0  0  0  0
 32 30  1  0  0  0  0
 33 35  1  0  0  0  0
 34 33  1  0  0  0  0
 35 38  1  0  0  0  0
 35 40  1  0  0  0  0
 35 36  1  0  0  0  0
 36 37  1  0  0  0  0
 39 38  1  0  0  0  0
 40 41  1  0  0  0  0
 41 48  1  0  0  0  0
 41 42  2  0  0  0  0
 42 43  1  0  0  0  0
 42 44  1  0  0  0  0
 44 45  1  0  0  0  0
 46 44  2  0  0  0  0
 46 47  1  0  0  0  0
 48 46  1  0  0  0  0
M  END
>  <minimizedAffinity>
-5.2684598

$$$$

 OpenBabel03242514213D

 48 50  0  0  0  0  0  0  0  0999 V2000
   39.8260   29.7060   42.3830 C   0  0  0  0  0  0  0  0  0  0  0  0
   39.9260   30.9760   41.8680 C   0  0  0  0  0  0  0  0  0  0  0  0
   41.1550   31.5740   41.9280 C   0  0  0  0  0  0  0  0  0  0  0  0
   42.2010   30.9180   42.4720 N   0  0  0  0  0  0  0  0  0  0  0  0
   42.1040   29.6870   42.9700 C   0  0  0  0  0  0  0  0  0  0  0  0
   40.9170   29.1140   42.9110 N   0  0  0  0  0  0  0  0  0  0  0  0
   41.4540   32.5540   41.5880 H   0  0  0  0  0  0  0  0  0  0  0  0
   42.9480   29.1610   43.4060 H   0  0  0  0  0  0  0  0  0  0  0  0
   38.5240   29.0390   42.2620 C   0  0  0  0  0  0  0  0  0  0  0  0
   38.0360   28.5380   43.5930 C   0  0  0  0  0  0  0  0  0  0  0  0
   37.9380   27.0810   43.6470 C   0  0  0  0  0  0  0  0  0  0  0  0
   37.0640   26.5350   42.5390 C   0  0  0  0  0  0  0  0  0  0  0  0
   37.3250   27.1530   41.2200 C   0  0  0  0  0  0  0  0  0  0  0  0
   38.5920   27.9750   41.2290 C   0  0  0  0  0  0  0  0  0  0  0  0
   37.7680   29.8000   41.9970 H   0  0  0  0  0  0  0  0  0  0  0  0
   37.0540   28.9650   43.8660 H   0  0  0  0  0  0  0  0  0  0  0  0
   38.7370   28.9050   44.3710 H   0  0  0  0  0  0  0  0  0  0  0  0
   38.9620   26.6430   43.6200 H   0  0  0  0  0  0  0  0  0  0  0  0
   37.4320   26.7820   44.6060 H   0  0  0  0  0  0  0  0  0  0  0  0
   35.9990   26.6480   42.8430 H   0  0  0  0  0  0  0  0  0  0  0  0
   37.3010   25.4350   42.5020 H   0  0  0  0  0  0  0  0  0  0  0  0
   37.4780   26.3590   40.4500 H   0  0  0  0  0  0  0  0  0  0  0  0
   36.4650   27.7930   40.9110 H   0  0  0  0  0  0  0  0  0  0  0  0
   38.7930   28.3620   40.2120 H   0  0  0  0  0  0  0  0  0  0  0  0
   39.4340   27.2880   41.5310 H   0  0  0  0  0  0  0  0  0  0  0  0
   39.0300   31.7810   41.2980 O   0  0  0  0  0  0  0  0  0  0  0  0
   38.9820   33.1190   41.0220 C   0  0  0  0  0  0  0  0  0  0  0  0
   39.7100   33.7770   41.5380 H   0  0  0  0  0  0  0  0  0  0  0  0
   37.9850   33.5950   41.2590 H   0  0  0  0  0  0  0  0  0  0  0  0
   39.2130   33.4480   39.5520 C   0  0  0  0  0  0  0  0  0  0  0  0
   39.3470   34.5530   39.4420 H   0  0  0  0  0  0  0  0  0  0  0  0
   40.1710   32.9910   39.2280 H   0  0  0  0  0  0  0  0  0  0  0  0
   38.1120   33.0330   38.7240 N   0  0  0  0  0  0  0  0  0  0  0  0
   37.8540   33.8010   38.0490 H   0  0  0  0  0  0  0  0  0  0  0  0
   38.6670   31.7050   37.7360 S   0  0  0  0  0  0  0  0  0  0  0  0
   39.8740   31.0550   38.3400 O   0  0  0  0  0  0  0  0  0  0  0  0
   39.8440   30.1880   38.8450 H   0  0  0  0  0  0  0  0  0  0  0  0
   38.9890   32.2640   36.3840 O   0  0  0  0  0  0  0  0  0  0  0  0
   39.6290   33.0340   36.3190 H   0  0  0  0  0  0  0  0  0  0  0  0
   37.4530   30.5720   37.5250 O   0  0  0  0  0  0  0  0  0  0  0  0
   36.5960   30.2550   38.5440 C   0  0  0  0  0  0  0  0  0  0  0  0
   35.5990   29.3210   38.2520 C   0  0  0  0  0  0  0  0  0  0  0  0
   35.3480   28.7630   37.3370 H   0  0  0  0  0  0  0  0  0  0  0  0
   34.8440   29.1370   39.3970 C   0  0  0  0  0  0  0  0  0  0  0  0
   33.9900   28.4870   39.5370 H   0  0  0  0  0  0  0  0  0  0  0  0
   35.4410   29.9870   40.3310 C   0  0  0  0  0  0  0  0  0  0  0  0
   35.0290   30.0330   41.3380 H   0  0  0  0  0  0  0  0  0  0  0  0
   36.4480   30.6070   39.7800 O   0  0  0  0  0  0  0  0  0  0  0  0
  1  6  1  0  0  0  0
  2  3  1  0  0  0  0
  2  1  2  0  0  0  0
  3  4  2  0  0  0  0
  4  5  1  0  0  0  0
  5  8  1  0  0  0  0
  6  5  2  0  0  0  0
  7  3  1  0  0  0  0
  9  1  1  0  0  0  0
  9 10  1  0  0  0  0
 10 11  1  0  0  0  0
 10 16  1  0  0  0  0
 10 17  1  0  0  0  0
 11 19  1  0  0  0  0
 12 20  1  0  0  0  0
 12 11  1  0  0  0  0
 13 14  1  0  0  0  0
 13 12  1  0  0  0  0
 14 25  1  0  0  0  0
 14  9  1  0  0  0  0
 15  9  1  0  0  0  0
 18 11  1  0  0  0  0
 21 12  1  0  0  0  0
 22 13  1  0  0  0  0
 23 13  1  0  0  0  0
 24 14  1  0  0  0  0
 26  2  1  0  0  0  0
 27 29  1  0  0  0  0
 27 26  1  0  0  0  0
 27 28  1  0  0  0  0
 30 27  1  0  0  0  0
 31 30  1  0  0  0  0
 32 30  1  0  0  0  0
 33 30  1  0  0  0  0
 34 33  1  0  0  0  0
 35 36  1  0  0  0  0
 35 33  1  0  0  0  0
 36 37  1  0  0  0  0
 38 35  1  0  0  0  0
 39 38  1  0  0  0  0
 40 35  1  0  0  0  0
 40 41  1  0  0  0  0
 41 48  1  0  0  0  0
 42 41  2  0  0  0  0
 42 44  1  0  0  0  0
 43 42  1  0  0  0  0
 44 45  1  0  0  0  0
 44 46  2  0  0  0  0
 46 47  1  0  0  0  0
 48 46  1  0  0  0  0
M  END
>  <minimizedAffinity>
-5.1842041

$$$$

 OpenBabel03242514213D

 48 50  0  0  0  0  0  0  0  0999 V2000
   38.4900   27.6340   41.4910 C   0  0  0  0  0  0  0  0  0  0  0  0
   39.2840   28.5820   40.8930 C   0  0  0  0  0  0  0  0  0  0  0  0
   39.4940   29.7420   41.5860 C   0  0  0  0  0  0  0  0  0  0  0  0
   38.9340   29.9150   42.8020 N   0  0  0  0  0  0  0  0  0  0  0  0
   38.1660   28.9960   43.3820 C   0  0  0  0  0  0  0  0  0  0  0  0
   37.9650   27.8780   42.7090 N   0  0  0  0  0  0  0  0  0  0  0  0
   40.0750   30.6090   41.3080 H   0  0  0  0  0  0  0  0  0  0  0  0
   37.7180   29.1360   44.3610 H   0  0  0  0  0  0  0  0  0  0  0  0
   38.3160   26.3640   40.7760 C   0  0  0  0  0  0  0  0  0  0  0  0
   36.9290   25.8140   40.9590 C   0  0  0  0  0  0  0  0  0  0  0  0
   36.9150   24.5470   41.6860 C   0  0  0  0  0  0  0  0  0  0  0  0
   37.7960   23.5100   41.0250 C   0  0  0  0  0  0  0  0  0  0  0  0
   39.1110   24.0360   40.5980 C   0  0  0  0  0  0  0  0  0  0  0  0
   39.3790   25.4070   41.1750 C   0  0  0  0  0  0  0  0  0  0  0  0
   38.3560   26.5690   39.6910 H   0  0  0  0  0  0  0  0  0  0  0  0
   36.4050   25.6720   39.9960 H   0  0  0  0  0  0  0  0  0  0  0  0
   36.3320   26.5760   41.5020 H   0  0  0  0  0  0  0  0  0  0  0  0
   37.2100   24.7270   42.7450 H   0  0  0  0  0  0  0  0  0  0  0  0
   35.8750   24.1200   41.6600 H   0  0  0  0  0  0  0  0  0  0  0  0
   37.2360   23.0630   40.1740 H   0  0  0  0  0  0  0  0  0  0  0  0
   37.9370   22.7120   41.8080 H   0  0  0  0  0  0  0  0  0  0  0  0
   39.9280   23.3770   40.9790 H   0  0  0  0  0  0  0  0  0  0  0  0
   39.1730   24.0800   39.4850 H   0  0  0  0  0  0  0  0  0  0  0  0
   40.3970   25.7380   40.8940 H   0  0  0  0  0  0  0  0  0  0  0  0
   39.3220   25.3140   42.2970 H   0  0  0  0  0  0  0  0  0  0  0  0
   39.9200   28.6050   39.7210 O   0  0  0  0  0  0  0  0  0  0  0  0
   41.1500   29.0310   39.3060 C   0  0  0  0  0  0  0  0  0  0  0  0
   41.8240   28.2830   38.8430 H   0  0  0  0  0  0  0  0  0  0  0  0
   41.7790   29.4740   40.1340 H   0  0  0  0  0  0  0  0  0  0  0  0
   41.0920   30.1310   38.2530 C   0  0  0  0  0  0  0  0  0  0  0  0
   41.0390   31.1240   38.7650 H   0  0  0  0  0  0  0  0  0  0  0  0
   42.0440   30.1330   37.6830 H   0  0  0  0  0  0  0  0  0  0  0  0
   39.9470   29.9970   37.3910 N   0  0  0  0  0  0  0  0  0  0  0  0
   39.3520   29.1840   37.7000 H   0  0  0  0  0  0  0  0  0  0  0  0
   38.9550   31.4170   37.6100 S   0  0  0  0  0  0  0  0  0  0  0  0
   39.1540   32.3880   36.4870 O   0  0  0  0  0  0  0  0  0  0  0  0
   38.5050   32.5010   35.7290 H   0  0  0  0  0  0  0  0  0  0  0  0
   39.3480   32.0330   38.9180 O   0  0  0  0  0  0  0  0  0  0  0  0
   40.3140   32.2590   39.0760 H   0  0  0  0  0  0  0  0  0  0  0  0
   37.3380   31.0010   37.7280 O   0  0  0  0  0  0  0  0  0  0  0  0
   36.7550   30.7610   38.9430 C   0  0  0  0  0  0  0  0  0  0  0  0
   36.0340   29.5710   39.0640 C   0  0  0  0  0  0  0  0  0  0  0  0
   35.8270   28.7520   38.3580 H   0  0  0  0  0  0  0  0  0  0  0  0
   35.5270   29.5130   40.3500 C   0  0  0  0  0  0  0  0  0  0  0  0
   34.9210   28.7350   40.7950 H   0  0  0  0  0  0  0  0  0  0  0  0
   35.9820   30.6940   40.9420 C   0  0  0  0  0  0  0  0  0  0  0  0
   35.7160   30.8980   41.9780 H   0  0  0  0  0  0  0  0  0  0  0  0
   36.6860   31.3750   40.0790 O   0  0  0  0  0  0  0  0  0  0  0  0
  1  6  1  0  0  0  0
  2  1  2  0  0  0  0
  2  3  1  0  0  0  0
  3  4  2  0  0  0  0
  4  5  1  0  0  0  0
  5  8  1  0  0  0  0
  6  5  2  0  0  0  0
  7  3  1  0  0  0  0
  9 10  1  0  0  0  0
  9 14  1  0  0  0  0
  9  1  1  0  0  0  0
 10 17  1  0  0  0  0
 10 11  1  0  0  0  0
 11 18  1  0  0  0  0
 12 11  1  0  0  0  0
 12 21  1  0  0  0  0
 13 22  1  0  0  0  0
 13 12  1  0  0  0  0
 13 14  1  0  0  0  0
 14 25  1  0  0  0  0
 15  9  1  0  0  0  0
 16 10  1  0  0  0  0
 19 11  1  0  0  0  0
 20 12  1  0  0  0  0
 23 13  1  0  0  0  0
 24 14  1  0  0  0  0
 26  2  1  0  0  0  0
 27 26  1  0  0  0  0
 27 29  1  0  0  0  0
 28 27  1  0  0  0  0
 30 31  1  0  0  0  0
 30 27  1  0  0  0  0
 32 30  1  0  0  0  0
 33 35  1  0  0  0  0
 33 34  1  0  0  0  0
 33 30  1  0  0  0  0
 35 40  1  0  0  0  0
 35 38  1  0  0  0  0
 36 35  1  0  0  0  0
 37 36  1  0  0  0  0
 38 39  1  0  0  0  0
 40 41  1  0  0  0  0
 41 42  2  0  0  0  0
 41 48  1  0  0  0  0
 42 44  1  0  0  0  0
 43 42  1  0  0  0  0
 44 45  1  0  0  0  0
 44 46  2  0  0  0  0
 46 47  1  0  0  0  0
 48 46  1  0  0  0  0
M  END
>  <minimizedAffinity>
-5.18056393

$$$$

 OpenBabel03242514213D

 48 50  0  0  0  0  0  0  0  0999 V2000
   37.2450   29.6910   41.1430 C   0  0  0  0  0  0  0  0  0  0  0  0
   38.4360   30.2840   41.4850 C   0  0  0  0  0  0  0  0  0  0  0  0
   39.0340   29.8550   42.6390 C   0  0  0  0  0  0  0  0  0  0  0  0
   38.4540   28.8900   43.3820 N   0  0  0  0  0  0  0  0  0  0  0  0
   37.3010   28.3140   43.0500 C   0  0  0  0  0  0  0  0  0  0  0  0
   36.7270   28.7320   41.9370 N   0  0  0  0  0  0  0  0  0  0  0  0
   39.9590   30.1800   43.0900 H   0  0  0  0  0  0  0  0  0  0  0  0
   36.8370   27.5360   43.6490 H   0  0  0  0  0  0  0  0  0  0  0  0
   36.6360   30.1050   39.8740 C   0  0  0  0  0  0  0  0  0  0  0  0
   35.1860   29.7130   39.8040 C   0  0  0  0  0  0  0  0  0  0  0  0
   34.9160   28.7340   38.7540 C   0  0  0  0  0  0  0  0  0  0  0  0
   35.3820   29.2190   37.3990 C   0  0  0  0  0  0  0  0  0  0  0  0
   36.7250   29.8400   37.4230 C   0  0  0  0  0  0  0  0  0  0  0  0
   37.4340   29.5880   38.7340 C   0  0  0  0  0  0  0  0  0  0  0  0
   36.5900   31.2100   39.8550 H   0  0  0  0  0  0  0  0  0  0  0  0
   34.5240   30.5840   39.6500 H   0  0  0  0  0  0  0  0  0  0  0  0
   34.8980   29.3040   40.7950 H   0  0  0  0  0  0  0  0  0  0  0  0
   35.3840   27.7610   39.0290 H   0  0  0  0  0  0  0  0  0  0  0  0
   33.8040   28.5960   38.6580 H   0  0  0  0  0  0  0  0  0  0  0  0
   34.6160   29.9140   36.9910 H   0  0  0  0  0  0  0  0  0  0  0  0
   35.3960   28.2970   36.7530 H   0  0  0  0  0  0  0  0  0  0  0  0
   37.3700   29.3860   36.6330 H   0  0  0  0  0  0  0  0  0  0  0  0
   36.6520   30.9380   37.2420 H   0  0  0  0  0  0  0  0  0  0  0  0
   38.4580   30.0040   38.6900 H   0  0  0  0  0  0  0  0  0  0  0  0
   37.4990   28.4710   38.8690 H   0  0  0  0  0  0  0  0  0  0  0  0
   39.1610   31.2370   40.8980 O   0  0  0  0  0  0  0  0  0  0  0  0
   39.0270   32.5890   40.7500 C   0  0  0  0  0  0  0  0  0  0  0  0
   39.7800   33.2370   41.2400 H   0  0  0  0  0  0  0  0  0  0  0  0
   38.0440   32.9910   41.1350 H   0  0  0  0  0  0  0  0  0  0  0  0
   39.0770   33.0510   39.2980 C   0  0  0  0  0  0  0  0  0  0  0  0
   38.9250   32.1680   38.6280 H   0  0  0  0  0  0  0  0  0  0  0  0
   38.2190   33.7280   39.1080 H   0  0  0  0  0  0  0  0  0  0  0  0
   40.3340   33.6670   38.9670 N   0  0  0  0  0  0  0  0  0  0  0  0
   41.0020   33.5890   39.7790 H   0  0  0  0  0  0  0  0  0  0  0  0
   41.0520   32.7370   37.6760 S   0  0  0  0  0  0  0  0  0  0  0  0
   42.0130   33.5710   36.8840 O   0  0  0  0  0  0  0  0  0  0  0  0
   43.0100   33.5160   36.9850 H   0  0  0  0  0  0  0  0  0  0  0  0
   39.9340   32.2510   36.8070 O   0  0  0  0  0  0  0  0  0  0  0  0
   39.2860   32.9200   36.4320 H   0  0  0  0  0  0  0  0  0  0  0  0
   41.8320   31.3840   38.2800 O   0  0  0  0  0  0  0  0  0  0  0  0
   41.3770   30.1230   38.0040 C   0  0  0  0  0  0  0  0  0  0  0  0
   41.2710   29.2480   39.0880 C   0  0  0  0  0  0  0  0  0  0  0  0
   41.4850   29.3650   40.1610 H   0  0  0  0  0  0  0  0  0  0  0  0
   40.8000   28.0380   38.6090 C   0  0  0  0  0  0  0  0  0  0  0  0
   40.5980   27.1330   39.1670 H   0  0  0  0  0  0  0  0  0  0  0  0
   40.6460   28.2580   37.2380 C   0  0  0  0  0  0  0  0  0  0  0  0
   40.2800   27.4450   36.6140 H   0  0  0  0  0  0  0  0  0  0  0  0
   40.9960   29.4810   36.9480 O   0  0  0  0  0  0  0  0  0  0  0  0
  1  2  2  0  0  0  0
  1  6  1  0  0  0  0
  2  3  1  0  0  0  0
  3  7  1  0  0  0  0
  3  4  2  0  0  0  0
  5  4  1  0  0  0  0
  5  8  1  0  0  0  0
  6  5  2  0  0  0  0
  9  1  1  0  0  0  0
 10  9  1  0  0  0  0
 10 17  1  0  0  0  0
 11 18  1  0  0  0  0
 11 10  1  0  0  0  0
 12 13  1  0  0  0  0
 12 11  1  0  0  0  0
 13 14  1  0  0  0  0
 14 25  1  0  0  0  0
 14  9  1  0  0  0  0
 15  9  1  0  0  0  0
 16 10  1  0  0  0  0
 19 11  1  0  0  0  0
 20 12  1  0  0  0  0
 21 12  1  0  0  0  0
 22 13  1  0  0  0  0
 23 13  1  0  0  0  0
 24 14  1  0  0  0  0
 26  2  1  0  0  0  0
 27 26  1  0  0  0  0
 27 29  1  0  0  0  0
 27 28  1  0  0  0  0
 30 27  1  0  0  0  0
 31 30  1  0  0  0  0
 32 30  1  0  0  0  0
 33 30  1  0  0  0  0
 33 34  1  0  0  0  0
 35 40  1  0  0  0  0
 35 33  1  0  0  0  0
 36 37  1  0  0  0  0
 36 35  1  0  0  0  0
 38 35  1  0  0  0  0
 39 38  1  0  0  0  0
 41 40  1  0  0  0  0
 41 42  2  0  0  0  0
 42 43  1  0  0  0  0
 44 42  1  0  0  0  0
 44 45  1  0  0  0  0
 46 44  2  0  0  0  0
 47 46  1  0  0  0  0
 48 46  1  0  0  0  0
 48 41  1  0  0  0  0
M  END
>  <minimizedAffinity>
-5.16267061

$$$$

 OpenBabel03242514213D

 48 50  0  0  0  0  0  0  0  0999 V2000
   37.9350   31.6690   39.9680 C   0  0  0  0  0  0  0  0  0  0  0  0
   39.2820   31.6290   40.2320 C   0  0  0  0  0  0  0  0  0  0  0  0
   39.9290   32.8300   40.3370 C   0  0  0  0  0  0  0  0  0  0  0  0
   39.2440   33.9820   40.1840 N   0  0  0  0  0  0  0  0  0  0  0  0
   37.9380   34.0210   39.9280 C   0  0  0  0  0  0  0  0  0  0  0  0
   37.3190   32.8600   39.8270 N   0  0  0  0  0  0  0  0  0  0  0  0
   40.9710   33.0290   40.5360 H   0  0  0  0  0  0  0  0  0  0  0  0
   37.3890   34.9490   39.8070 H   0  0  0  0  0  0  0  0  0  0  0  0
   37.2280   30.3830   39.9180 C   0  0  0  0  0  0  0  0  0  0  0  0
   37.2060   29.8190   38.5250 C   0  0  0  0  0  0  0  0  0  0  0  0
   35.8570   29.7320   37.9720 C   0  0  0  0  0  0  0  0  0  0  0  0
   34.9330   28.9330   38.8650 C   0  0  0  0  0  0  0  0  0  0  0  0
   35.0620   29.2680   40.3000 C   0  0  0  0  0  0  0  0  0  0  0  0
   35.8740   30.5250   40.5110 C   0  0  0  0  0  0  0  0  0  0  0  0
   37.8260   29.6370   40.4740 H   0  0  0  0  0  0  0  0  0  0  0  0
   37.6720   28.8180   38.4720 H   0  0  0  0  0  0  0  0  0  0  0  0
   37.8420   30.4670   37.8870 H   0  0  0  0  0  0  0  0  0  0  0  0
   35.4680   30.7600   37.7880 H   0  0  0  0  0  0  0  0  0  0  0  0
   35.8940   29.1710   36.9980 H   0  0  0  0  0  0  0  0  0  0  0  0
   35.1120   27.8510   38.6780 H   0  0  0  0  0  0  0  0  0  0  0  0
   33.8970   29.1830   38.5030 H   0  0  0  0  0  0  0  0  0  0  0  0
   34.0550   29.4760   40.7360 H   0  0  0  0  0  0  0  0  0  0  0  0
   35.5280   28.4230   40.8600 H   0  0  0  0  0  0  0  0  0  0  0  0
   35.8890   30.7840   41.5860 H   0  0  0  0  0  0  0  0  0  0  0  0
   35.3610   31.3530   39.9430 H   0  0  0  0  0  0  0  0  0  0  0  0
   40.1280   30.6140   40.4150 O   0  0  0  0  0  0  0  0  0  0  0  0
   40.9080   30.1930   41.4550 C   0  0  0  0  0  0  0  0  0  0  0  0
   41.1610   30.9320   42.2410 H   0  0  0  0  0  0  0  0  0  0  0  0
   41.9160   29.7960   41.1330 H   0  0  0  0  0  0  0  0  0  0  0  0
   40.2940   29.0480   42.2530 C   0  0  0  0  0  0  0  0  0  0  0  0
   40.0540   28.2060   41.5560 H   0  0  0  0  0  0  0  0  0  0  0  0
   41.0560   28.6530   42.9560 H   0  0  0  0  0  0  0  0  0  0  0  0
   39.0880   29.4430   42.9300 N   0  0  0  0  0  0  0  0  0  0  0  0
   38.5810   30.1790   42.3700 H   0  0  0  0  0  0  0  0  0  0  0  0
   38.0240   28.0590   42.9600 S   0  0  0  0  0  0  0  0  0  0  0  0
   36.7410   28.3840   43.6630 O   0  0  0  0  0  0  0  0  0  0  0  0
   35.8790   28.5760   43.1850 H   0  0  0  0  0  0  0  0  0  0  0  0
   38.7510   26.9590   43.6700 O   0  0  0  0  0  0  0  0  0  0  0  0
   39.1170   27.1340   44.5890 H   0  0  0  0  0  0  0  0  0  0  0  0
   37.7060   27.5190   41.4080 O   0  0  0  0  0  0  0  0  0  0  0  0
   37.2640   26.2440   41.1800 C   0  0  0  0  0  0  0  0  0  0  0  0
   36.8830   25.9420   39.8700 C   0  0  0  0  0  0  0  0  0  0  0  0
   36.8630   26.5380   38.9450 H   0  0  0  0  0  0  0  0  0  0  0  0
   36.4700   24.6210   39.8440 C   0  0  0  0  0  0  0  0  0  0  0  0
   36.1090   24.0500   38.9980 H   0  0  0  0  0  0  0  0  0  0  0  0
   36.6300   24.1950   41.1650 C   0  0  0  0  0  0  0  0  0  0  0  0
   36.3700   23.1690   41.4210 H   0  0  0  0  0  0  0  0  0  0  0  0
   37.0910   25.1770   41.8900 O   0  0  0  0  0  0  0  0  0  0  0  0
  1  2  1  0  0  0  0
  2  3  2  0  0  0  0
  2 26  1  0  0  0  0
  3  7  1  0  0  0  0
  4  3  1  0  0  0  0
  5  4  2  0  0  0  0
  6  5  1  0  0  0  0
  6  1  2  0  0  0  0
  8  5  1  0  0  0  0
  9  1  1  0  0  0  0
  9 15  1  0  0  0  0
  9 14  1  0  0  0  0
 10  9  1  0  0  0  0
 11 10  1  0  0  0  0
 11 12  1  0  0  0  0
 12 13  1  0  0  0  0
 13 14  1  0  0  0  0
 13 22  1  0  0  0  0
 13 23  1  0  0  0  0
 14 24  1  0  0  0  0
 16 10  1  0  0  0  0
 17 10  1  0  0  0  0
 18 11  1  0  0  0  0
 19 11  1  0  0  0  0
 20 12  1  0  0  0  0
 21 12  1  0  0  0  0
 25 14  1  0  0  0  0
 26 27  1  0  0  0  0
 27 28  1  0  0  0  0
 27 30  1  0  0  0  0
 29 27  1  0  0  0  0
 30 33  1  0  0  0  0
 30 32  1  0  0  0  0
 31 30  1  0  0  0  0
 33 35  1  0  0  0  0
 34 33  1  0  0  0  0
 35 36  1  0  0  0  0
 35 38  1  0  0  0  0
 37 36  1  0  0  0  0
 38 39  1  0  0  0  0
 40 35  1  0  0  0  0
 41 40  1  0  0  0  0
 41 48  1  0  0  0  0
 42 41  2  0  0  0  0
 43 42  1  0  0  0  0
 44 42  1  0  0  0  0
 44 46  2  0  0  0  0
 45 44  1  0  0  0  0
 46 47  1  0  0  0  0
 46 48  1  0  0  0  0
M  END
>  <minimizedAffinity>
-5.15081263

$$$$

 OpenBabel03242514213D

 48 50  0  0  0  0  0  0  0  0999 V2000
   38.3920   28.1630   41.7560 C   0  0  0  0  0  0  0  0  0  0  0  0
   38.3260   29.4510   41.2810 C   0  0  0  0  0  0  0  0  0  0  0  0
   39.3600   30.2850   41.6060 C   0  0  0  0  0  0  0  0  0  0  0  0
   40.3840   29.8320   42.3580 N   0  0  0  0  0  0  0  0  0  0  0  0
   40.4490   28.5840   42.8170 C   0  0  0  0  0  0  0  0  0  0  0  0
   39.4490   27.7820   42.5020 N   0  0  0  0  0  0  0  0  0  0  0  0
   39.5090   31.3210   41.3440 H   0  0  0  0  0  0  0  0  0  0  0  0
   41.2750   28.2200   43.4210 H   0  0  0  0  0  0  0  0  0  0  0  0
   37.3150   27.2500   41.3550 C   0  0  0  0  0  0  0  0  0  0  0  0
   36.9620   26.2950   42.4610 C   0  0  0  0  0  0  0  0  0  0  0  0
   37.2540   24.9040   42.1210 C   0  0  0  0  0  0  0  0  0  0  0  0
   36.5680   24.4830   40.8400 C   0  0  0  0  0  0  0  0  0  0  0  0
   36.6700   25.4850   39.7570 C   0  0  0  0  0  0  0  0  0  0  0  0
   37.6750   26.5650   40.0880 C   0  0  0  0  0  0  0  0  0  0  0  0
   36.3870   27.8390   41.2370 H   0  0  0  0  0  0  0  0  0  0  0  0
   35.8990   26.3680   42.7540 H   0  0  0  0  0  0  0  0  0  0  0  0
   37.5310   26.5970   43.3650 H   0  0  0  0  0  0  0  0  0  0  0  0
   38.3570   24.7630   42.0660 H   0  0  0  0  0  0  0  0  0  0  0  0
   36.8350   24.2350   42.9220 H   0  0  0  0  0  0  0  0  0  0  0  0
   35.5090   24.2360   41.0730 H   0  0  0  0  0  0  0  0  0  0  0  0
   37.0890   23.5320   40.5350 H   0  0  0  0  0  0  0  0  0  0  0  0
   37.0380   25.0000   38.8210 H   0  0  0  0  0  0  0  0  0  0  0  0
   35.6750   25.9480   39.5560 H   0  0  0  0  0  0  0  0  0  0  0  0
   37.7770   27.2550   39.2290 H   0  0  0  0  0  0  0  0  0  0  0  0
   38.6650   26.0570   40.2680 H   0  0  0  0  0  0  0  0  0  0  0  0
   37.4190   30.0830   40.5360 O   0  0  0  0  0  0  0  0  0  0  0  0
   36.9250   31.3560   40.5030 C   0  0  0  0  0  0  0  0  0  0  0  0
   37.4070   32.1120   41.1550 H   0  0  0  0  0  0  0  0  0  0  0  0
   35.8320   31.4260   40.7830 H   0  0  0  0  0  0  0  0  0  0  0  0
   36.9980   32.0030   39.1250 C   0  0  0  0  0  0  0  0  0  0  0  0
   36.7260   31.2430   38.3500 H   0  0  0  0  0  0  0  0  0  0  0  0
   36.2250   32.7960   39.0590 H   0  0  0  0  0  0  0  0  0  0  0  0
   38.3140   32.5080   38.8310 N   0  0  0  0  0  0  0  0  0  0  0  0
   38.9870   32.2360   39.5960 H   0  0  0  0  0  0  0  0  0  0  0  0
   38.8810   31.6940   37.3950 S   0  0  0  0  0  0  0  0  0  0  0  0
   40.0720   32.3950   36.8160 O   0  0  0  0  0  0  0  0  0  0  0  0
   41.0160   32.0710   36.9290 H   0  0  0  0  0  0  0  0  0  0  0  0
   37.7470   31.6840   36.4160 O   0  0  0  0  0  0  0  0  0  0  0  0
   37.3110   32.5540   36.1700 H   0  0  0  0  0  0  0  0  0  0  0  0
   39.2610   30.0980   37.7260 O   0  0  0  0  0  0  0  0  0  0  0  0
   38.4830   29.0730   37.2590 C   0  0  0  0  0  0  0  0  0  0  0  0
   39.1540   28.0050   36.6590 C   0  0  0  0  0  0  0  0  0  0  0  0
   40.2200   27.8060   36.4750 H   0  0  0  0  0  0  0  0  0  0  0  0
   38.2040   27.0820   36.2560 C   0  0  0  0  0  0  0  0  0  0  0  0
   38.3620   26.1350   35.7570 H   0  0  0  0  0  0  0  0  0  0  0  0
   36.9920   27.6590   36.6450 C   0  0  0  0  0  0  0  0  0  0  0  0
   36.0660   27.1240   36.4400 H   0  0  0  0  0  0  0  0  0  0  0  0
   37.2170   28.8090   37.2190 O   0  0  0  0  0  0  0  0  0  0  0  0
  1  6  1  0  0  0  0
  2  3  1  0  0  0  0
  2  1  2  0  0  0  0
  3  4  2  0  0  0  0
  4  5  1  0  0  0  0
  5  8  1  0  0  0  0
  6  5  2  0  0  0  0
  7  3  1  0  0  0  0
  9  1  1  0  0  0  0
  9 10  1  0  0  0  0
 10 16  1  0  0  0  0
 10 17  1  0  0  0  0
 11 10  1  0  0  0  0
 11 19  1  0  0  0  0
 12 20  1  0  0  0  0
 12 11  1  0  0  0  0
 13 14  1  0  0  0  0
 13 12  1  0  0  0  0
 14 25  1  0  0  0  0
 14  9  1  0  0  0  0
 15  9  1  0  0  0  0
 18 11  1  0  0  0  0
 21 12  1  0  0  0  0
 22 13  1  0  0  0  0
 23 13  1  0  0  0  0
 24 14  1  0  0  0  0
 26  2  1  0  0  0  0
 27 26  1  0  0  0  0
 27 29  1  0  0  0  0
 27 28  1  0  0  0  0
 30 27  1  0  0  0  0
 31 30  1  0  0  0  0
 32 30  1  0  0  0  0
 33 30  1  0  0  0  0
 33 34  1  0  0  0  0
 35 40  1  0  0  0  0
 35 33  1  0  0  0  0
 36 37  1  0  0  0  0
 36 35  1  0  0  0  0
 38 35  1  0  0  0  0
 39 38  1  0  0  0  0
 41 40  1  0  0  0  0
 42 41  2  0  0  0  0
 43 42  1  0  0  0  0
 44 46  2  0  0  0  0
 44 42  1  0  0  0  0
 45 44  1  0  0  0  0
 46 48  1  0  0  0  0
 47 46  1  0  0  0  0
 48 41  1  0  0  0  0
M  END
>  <minimizedAffinity>
-5.05328083

$$$$
