
 OpenBabel03252509083D

 40 43  0  0  0  0  0  0  0  0999 V2000
   47.5360   31.7700   38.9240 C   0  0  0  0  0  0  0  0  0  0  0  0
   47.1470   33.0740   38.9530 C   0  0  0  0  0  0  0  0  0  0  0  0
   47.8280   34.0200   38.2030 C   0  0  0  0  0  0  0  0  0  0  0  0
   48.8980   33.6370   37.4290 C   0  0  0  0  0  0  0  0  0  0  0  0
   49.3280   32.3130   37.3690 C   0  0  0  0  0  0  0  0  0  0  0  0
   48.6220   31.3790   38.1360 C   0  0  0  0  0  0  0  0  0  0  0  0
   47.5530   35.0640   38.1990 H   0  0  0  0  0  0  0  0  0  0  0  0
   49.5010   34.2770   36.8070 H   0  0  0  0  0  0  0  0  0  0  0  0
   50.1450   31.9460   36.7920 H   0  0  0  0  0  0  0  0  0  0  0  0
   48.9270   30.3340   38.1170 H   0  0  0  0  0  0  0  0  0  0  0  0
   45.3910   35.4300   43.1990 Cl  0  0  0  0  0  0  0  0  0  0  0  0
   45.2010   34.6490   41.6510 C   0  0  0  0  0  0  0  0  0  0  0  0
   46.2760   34.2060   40.9520 C   0  0  0  0  0  0  0  0  0  0  0  0
   46.0210   33.5810   39.7400 C   0  0  0  0  0  0  0  0  0  0  0  0
   44.7420   33.4160   39.2660 C   0  0  0  0  0  0  0  0  0  0  0  0
   43.6790   33.8660   39.9790 C   0  0  0  0  0  0  0  0  0  0  0  0
   43.9200   34.4850   41.1800 C   0  0  0  0  0  0  0  0  0  0  0  0
   44.6060   32.9240   38.3180 H   0  0  0  0  0  0  0  0  0  0  0  0
   42.6830   33.7220   39.5790 H   0  0  0  0  0  0  0  0  0  0  0  0
   43.0520   34.8360   41.7320 H   0  0  0  0  0  0  0  0  0  0  0  0
   49.5810   35.7460   41.9260 C   0  0  0  0  0  0  0  0  0  0  0  0
   48.2980   35.5780   41.3890 C   0  0  0  0  0  0  0  0  0  0  0  0
   47.6000   34.3920   41.5010 C   0  0  0  0  0  0  0  0  0  0  0  0
   48.2570   33.4090   42.1690 N   0  0  0  0  0  0  0  0  0  0  0  0
   49.4840   33.5610   42.6850 C   0  0  0  0  0  0  0  0  0  0  0  0
   50.1360   34.7210   42.5610 N   0  0  0  0  0  0  0  0  0  0  0  0
   50.0510   36.7130   41.7880 H   0  0  0  0  0  0  0  0  0  0  0  0
   47.8210   36.3940   40.8680 H   0  0  0  0  0  0  0  0  0  0  0  0
   49.8580   32.6760   43.1850 H   0  0  0  0  0  0  0  0  0  0  0  0
   46.7050   30.5900   39.7910 S   0  0  0  0  0  0  0  0  0  0  0  0
   45.4160   30.1770   39.1150 O   0  0  0  0  0  0  0  0  0  0  0  0
   47.6030   29.3080   39.6270 O   0  0  0  0  0  0  0  0  0  0  0  0
   46.3720   30.6700   41.4780 C   0  0  0  0  0  0  0  0  0  0  0  0
   45.0430   30.8860   41.9250 C   0  0  0  0  0  0  0  0  0  0  0  0
   44.1220   31.0230   41.3220 H   0  0  0  0  0  0  0  0  0  0  0  0
   44.9220   30.9290   43.2940 C   0  0  0  0  0  0  0  0  0  0  0  0
   44.0670   31.0740   43.9080 H   0  0  0  0  0  0  0  0  0  0  0  0
   46.2130   30.7310   43.6640 C   0  0  0  0  0  0  0  0  0  0  0  0
   46.6410   30.6790   44.6780 H   0  0  0  0  0  0  0  0  0  0  0  0
   46.9570   30.5970   42.6470 O   0  0  0  0  0  0  0  0  0  0  0  0
  1  2  1  0  0  0  0
  1 30  1  0  0  0  0
  2 14  1  0  0  0  0
  3  2  2  0  0  0  0
  4  3  1  0  0  0  0
  5  4  2  0  0  0  0
  5  6  1  0  0  0  0
  6  1  2  0  0  0  0
  7  3  1  0  0  0  0
  8  4  1  0  0  0  0
  9  5  1  0  0  0  0
 10  6  1  0  0  0  0
 12 11  1  0  0  0  0
 13 23  1  0  0  0  0
 13 12  2  0  0  0  0
 14 13  1  0  0  0  0
 15 14  2  0  0  0  0
 15 16  1  0  0  0  0
 16 17  2  0  0  0  0
 17 12  1  0  0  0  0
 17 20  1  0  0  0  0
 18 15  1  0  0  0  0
 19 16  1  0  0  0  0
 21 26  1  0  0  0  0
 22 23  1  0  0  0  0
 22 21  2  0  0  0  0
 23 24  2  0  0  0  0
 24 25  1  0  0  0  0
 25 29  1  0  0  0  0
 26 25  2  0  0  0  0
 27 21  1  0  0  0  0
 28 22  1  0  0  0  0
 30 33  1  0  0  0  0
 31 30  2  0  0  0  0
 32 30  2  0  0  0  0
 33 34  2  0  0  0  0
 33 40  1  0  0  0  0
 34 36  1  0  0  0  0
 35 34  1  0  0  0  0
 36 38  2  0  0  0  0
 36 37  1  0  0  0  0
 38 39  1  0  0  0  0
 40 38  1  0  0  0  0
M  END
>  <minimizedAffinity>
-4.66118717

>  <minimizedRMSD>
0.843593597

$$$$
