
     RDKit          3D

 33 35  0  0  0  0  0  0  0  0999 V2000
   44.6204   36.2018   43.9784 C   0  0  0  0  0  0  0  0  0  0  0  0
   44.8233   35.3819   45.1060 C   0  0  0  0  0  0  0  0  0  0  0  0
   45.5344   34.1961   44.9255 C   0  0  0  0  0  0  0  0  0  0  0  0
   45.9933   33.8874   43.6920 N   0  0  0  0  0  0  0  0  0  0  0  0
   45.7793   34.7019   42.6259 C   0  0  0  0  0  0  0  0  0  0  0  0
   45.0946   35.8570   42.7663 N   0  0  0  0  0  0  0  0  0  0  0  0
   48.5218   35.6904   42.0062 Cl  0  0  0  0  0  0  0  0  0  0  0  0
   47.5496   34.7086   40.9348 C   0  0  0  0  0  0  0  0  0  0  0  0
   46.3047   34.3073   41.3137 C   0  0  0  0  0  0  0  0  0  0  0  0
   45.4946   33.5160   40.4762 C   0  0  0  0  0  0  0  0  0  0  0  0
   46.0560   33.1829   39.2542 C   0  0  0  0  0  0  0  0  0  0  0  0
   47.3050   33.5883   38.8796 C   0  0  0  0  0  0  0  0  0  0  0  0
   48.0827   34.3598   39.7078 C   0  0  0  0  0  0  0  0  0  0  0  0
   45.7431   33.3364   46.1062 C   0  0  0  0  0  0  0  0  0  0  0  0
   46.9061   32.3703   45.9401 C   0  0  0  0  0  0  0  0  0  0  0  0
   44.0741   37.1313   44.0714 H   0  0  0  0  0  0  0  0  0  0  0  0
   44.4333   35.6784   46.0712 H   0  0  0  0  0  0  0  0  0  0  0  0
   44.5201   33.1908   40.7504 H   0  0  0  0  0  0  0  0  0  0  0  0
   45.5217   32.5731   38.5221 H   0  0  0  0  0  0  0  0  0  0  0  0
   47.7500   33.3307   37.9241 H   0  0  0  0  0  0  0  0  0  0  0  0
   49.0596   34.6926   39.4470 H   0  0  0  0  0  0  0  0  0  0  0  0
   45.8098   33.9044   47.0426 H   0  0  0  0  0  0  0  0  0  0  0  0
   44.8238   32.6882   46.1853 H   0  0  0  0  0  0  0  0  0  0  0  0
   46.7539   31.6793   45.1088 H   0  0  0  0  0  0  0  0  0  0  0  0
   47.8509   32.9523   45.9054 H   0  0  0  0  0  0  0  0  0  0  0  0
   46.9716   31.5835   47.2239 C   0  0  0  0  0  0  0  0  0  0  0  0
   47.1361   30.2001   47.3224 C   0  0  0  0  0  0  0  0  0  0  0  0
   47.2402   29.4932   46.4954 H   0  0  0  0  0  0  0  0  0  0  0  0
   47.1357   29.9424   48.6957 C   0  0  0  0  0  0  0  0  0  0  0  0
   47.2461   28.9450   49.1235 H   0  0  0  0  0  0  0  0  0  0  0  0
   46.9755   31.1497   49.3371 C   0  0  0  0  0  0  0  0  0  0  0  0
   46.9327   31.3005   50.4162 H   0  0  0  0  0  0  0  0  0  0  0  0
   46.8817   32.0992   48.4367 O   0  0  0  0  0  0  0  0  0  0  0  0
  1  2  2  0
  3  2  1  0
  3 14  1  0
  4  3  2  0
  5  6  2  0
  5  4  1  0
  6  1  1  0
  8  9  2  0
  8  7  1  0
  9  5  1  0
 10  9  1  0
 11 10  2  0
 12 11  1  0
 12 13  2  0
 13  8  1  0
 15 14  1  0
  1 16  1  0
  2 17  1  0
 10 18  1  0
 11 19  1  0
 12 20  1  0
 13 21  1  0
 14 22  1  0
 14 23  1  0
 15 24  1  0
 15 25  1  0
 26 27  2  0
 27 28  1  0
 27 29  1  0
 29 30  1  0
 29 31  2  0
 31 32  1  0
 31 33  1  0
 33 26  1  0
 15 26  1  0
M  ISO  8  16  14  17  14  18  14  19  14  20  14  21  14  22   8  23   8
M  ISO  5  24   8  25   8  28  16  30  16  32  14
M  END
>  <DihAtoms>  (1) 
13,14,25,26

>  <DihDeg>  (1) 
-179.99974148416032

$$$$
