
 OpenBabel03252502503D

 33 35  0  0  0  0  0  0  0  0999 V2000
   44.5950   36.5250   43.7500 C   0  0  0  0  0  0  0  0  0  0  0  0
   44.7050   35.7650   44.9320 C   0  0  0  0  0  0  0  0  0  0  0  0
   45.3470   34.5300   44.8510 C   0  0  0  0  0  0  0  0  0  0  0  0
   45.8320   34.1190   43.6580 N   0  0  0  0  0  0  0  0  0  0  0  0
   45.7090   34.8790   42.5380 C   0  0  0  0  0  0  0  0  0  0  0  0
   45.0930   36.0790   42.5810 N   0  0  0  0  0  0  0  0  0  0  0  0
   44.1050   37.4890   43.7660 H   0  0  0  0  0  0  0  0  0  0  0  0
   44.2980   36.1430   45.8610 H   0  0  0  0  0  0  0  0  0  0  0  0
   48.5090   35.7120   41.9450 Cl  0  0  0  0  0  0  0  0  0  0  0  0
   47.5300   34.6980   40.9110 C   0  0  0  0  0  0  0  0  0  0  0  0
   46.2580   34.3730   41.2740 C   0  0  0  0  0  0  0  0  0  0  0  0
   45.4420   33.5590   40.4650 C   0  0  0  0  0  0  0  0  0  0  0  0
   46.0260   33.1200   39.2880 C   0  0  0  0  0  0  0  0  0  0  0  0
   47.3020   33.4480   38.9300 C   0  0  0  0  0  0  0  0  0  0  0  0
   48.0860   34.2440   39.7290 C   0  0  0  0  0  0  0  0  0  0  0  0
   44.4460   33.2930   40.7280 H   0  0  0  0  0  0  0  0  0  0  0  0
   45.4900   32.4830   38.5820 H   0  0  0  0  0  0  0  0  0  0  0  0
   47.7650   33.1080   38.0090 H   0  0  0  0  0  0  0  0  0  0  0  0
   49.0830   34.5190   39.4790 H   0  0  0  0  0  0  0  0  0  0  0  0
   45.4580   33.7340   46.0880 C   0  0  0  0  0  0  0  0  0  0  0  0
   45.7440   34.3350   46.9610 H   0  0  0  0  0  0  0  0  0  0  0  0
   44.4240   33.3340   46.2940 H   0  0  0  0  0  0  0  0  0  0  0  0
   46.3410   32.5060   45.9280 C   0  0  0  0  0  0  0  0  0  0  0  0
   45.9490   31.8090   45.1850 H   0  0  0  0  0  0  0  0  0  0  0  0
   47.3870   32.8380   45.7600 H   0  0  0  0  0  0  0  0  0  0  0  0
   46.3510   31.8300   47.2740 C   0  0  0  0  0  0  0  0  0  0  0  0
   45.2430   31.6650   48.1090 C   0  0  0  0  0  0  0  0  0  0  0  0
   44.2210   31.9960   47.9120 H   0  0  0  0  0  0  0  0  0  0  0  0
   45.7430   30.9920   49.2280 C   0  0  0  0  0  0  0  0  0  0  0  0
   45.1300   30.7040   50.0830 H   0  0  0  0  0  0  0  0  0  0  0  0
   47.0870   30.7910   49.0160 C   0  0  0  0  0  0  0  0  0  0  0  0
   47.7760   30.2920   49.6990 H   0  0  0  0  0  0  0  0  0  0  0  0
   47.4140   31.2990   47.8510 O   0  0  0  0  0  0  0  0  0  0  0  0
  1  7  1  0  0  0  0
  1  2  1  0  0  0  0
  2  8  1  0  0  0  0
  3  2  2  0  0  0  0
  3 20  1  0  0  0  0
  4  3  1  0  0  0  0
  5  6  1  0  0  0  0
  5  4  2  0  0  0  0
  6  1  2  0  0  0  0
 10 11  1  0  0  0  0
 10  9  1  0  0  0  0
 11  5  1  0  0  0  0
 12 16  1  0  0  0  0
 12 11  2  0  0  0  0
 13 12  1  0  0  0  0
 14 13  2  0  0  0  0
 14 15  1  0  0  0  0
 15 10  2  0  0  0  0
 17 13  1  0  0  0  0
 18 14  1  0  0  0  0
 19 15  1  0  0  0  0
 20 22  1  0  0  0  0
 20 21  1  0  0  0  0
 23 20  1  0  0  0  0
 23 26  1  0  0  0  0
 24 23  1  0  0  0  0
 25 23  1  0  0  0  0
 26 33  1  0  0  0  0
 26 27  2  0  0  0  0
 27 29  1  0  0  0  0
 28 27  1  0  0  0  0
 29 30  1  0  0  0  0
 31 29  2  0  0  0  0
 31 32  1  0  0  0  0
 33 31  1  0  0  0  0
M  END
>  <minimizedAffinity>
-5.58707571

>  <minimizedRMSD>
0.626192153

$$$$
