
 OpenBabel03252509083D

 40 43  0  0  0  0  0  0  0  0999 V2000
   47.5850   31.7880   38.9120 C   0  0  0  0  0  0  0  0  0  0  0  0
   47.1660   33.0830   38.9470 C   0  0  0  0  0  0  0  0  0  0  0  0
   47.8180   34.0460   38.1920 C   0  0  0  0  0  0  0  0  0  0  0  0
   48.8900   33.6890   37.4090 C   0  0  0  0  0  0  0  0  0  0  0  0
   49.3500   32.3760   37.3430 C   0  0  0  0  0  0  0  0  0  0  0  0
   48.6730   31.4250   38.1150 C   0  0  0  0  0  0  0  0  0  0  0  0
   47.5190   35.0830   38.1920 H   0  0  0  0  0  0  0  0  0  0  0  0
   49.4720   34.3430   36.7830 H   0  0  0  0  0  0  0  0  0  0  0  0
   50.1710   32.0280   36.7580 H   0  0  0  0  0  0  0  0  0  0  0  0
   49.0030   30.3870   38.0910 H   0  0  0  0  0  0  0  0  0  0  0  0
   45.3900   35.3620   43.2260 Cl  0  0  0  0  0  0  0  0  0  0  0  0
   45.2060   34.5950   41.6710 C   0  0  0  0  0  0  0  0  0  0  0  0
   46.2860   34.1780   40.9620 C   0  0  0  0  0  0  0  0  0  0  0  0
   46.0350   33.5630   39.7440 C   0  0  0  0  0  0  0  0  0  0  0  0
   44.7570   33.3820   39.2740 C   0  0  0  0  0  0  0  0  0  0  0  0
   43.6900   33.8060   39.9960 C   0  0  0  0  0  0  0  0  0  0  0  0
   43.9260   34.4160   41.2030 C   0  0  0  0  0  0  0  0  0  0  0  0
   44.6250   32.8980   38.3210 H   0  0  0  0  0  0  0  0  0  0  0  0
   42.6950   33.6490   39.5990 H   0  0  0  0  0  0  0  0  0  0  0  0
   43.0540   34.7460   41.7620 H   0  0  0  0  0  0  0  0  0  0  0  0
   49.5780   35.7550   41.9180 C   0  0  0  0  0  0  0  0  0  0  0  0
   48.2950   35.5710   41.3850 C   0  0  0  0  0  0  0  0  0  0  0  0
   47.6090   34.3800   41.5080 C   0  0  0  0  0  0  0  0  0  0  0  0
   48.2750   33.4080   42.1820 N   0  0  0  0  0  0  0  0  0  0  0  0
   49.5010   33.5750   42.6940 C   0  0  0  0  0  0  0  0  0  0  0  0
   50.1430   34.7390   42.5610 N   0  0  0  0  0  0  0  0  0  0  0  0
   50.0390   36.7250   41.7720 H   0  0  0  0  0  0  0  0  0  0  0  0
   47.8110   36.3790   40.8590 H   0  0  0  0  0  0  0  0  0  0  0  0
   49.8840   32.6980   43.2010 H   0  0  0  0  0  0  0  0  0  0  0  0
   46.7900   30.5880   39.7850 S   0  0  0  0  0  0  0  0  0  0  0  0
   45.5250   30.1190   39.1000 O   0  0  0  0  0  0  0  0  0  0  0  0
   47.7370   29.3390   39.6460 O   0  0  0  0  0  0  0  0  0  0  0  0
   46.4350   30.6750   41.4670 C   0  0  0  0  0  0  0  0  0  0  0  0
   47.3360   30.1100   42.4060 C   0  0  0  0  0  0  0  0  0  0  0  0
   48.2960   29.5860   42.2200 H   0  0  0  0  0  0  0  0  0  0  0  0
   46.9280   30.2500   43.7120 C   0  0  0  0  0  0  0  0  0  0  0  0
   47.3870   29.9340   44.6160 H   0  0  0  0  0  0  0  0  0  0  0  0
   45.7570   30.9140   43.5390 C   0  0  0  0  0  0  0  0  0  0  0  0
   45.0410   31.2630   44.2990 H   0  0  0  0  0  0  0  0  0  0  0  0
   45.5360   31.1190   42.3070 O   0  0  0  0  0  0  0  0  0  0  0  0
  1  2  1  0  0  0  0
  1 30  1  0  0  0  0
  2 14  1  0  0  0  0
  3  7  1  0  0  0  0
  3  2  2  0  0  0  0
  4  3  1  0  0  0  0
  5  4  2  0  0  0  0
  5  6  1  0  0  0  0
  6  1  2  0  0  0  0
  8  4  1  0  0  0  0
  9  5  1  0  0  0  0
 10  6  1  0  0  0  0
 12 11  1  0  0  0  0
 13 23  1  0  0  0  0
 13 12  2  0  0  0  0
 14 13  1  0  0  0  0
 15 14  2  0  0  0  0
 15 16  1  0  0  0  0
 16 17  2  0  0  0  0
 17 12  1  0  0  0  0
 17 20  1  0  0  0  0
 18 15  1  0  0  0  0
 19 16  1  0  0  0  0
 21 26  1  0  0  0  0
 22 23  1  0  0  0  0
 22 21  2  0  0  0  0
 23 24  2  0  0  0  0
 24 25  1  0  0  0  0
 25 29  1  0  0  0  0
 26 25  2  0  0  0  0
 27 21  1  0  0  0  0
 28 22  1  0  0  0  0
 30 33  1  0  0  0  0
 31 30  2  0  0  0  0
 32 30  2  0  0  0  0
 33 40  1  0  0  0  0
 33 34  2  0  0  0  0
 34 36  1  0  0  0  0
 35 34  1  0  0  0  0
 36 37  1  0  0  0  0
 38 36  2  0  0  0  0
 38 39  1  0  0  0  0
 40 38  1  0  0  0  0
M  END
>  <minimizedAffinity>
-4.65631104

>  <minimizedRMSD>
0.980680287

$$$$
