
 OpenBabel03252508053D

 41 44  0  0  1  0  0  0  0  0999 V2000
   36.7240   29.8290   38.6320 C   0  0  0  0  0  0  0  0  0  0  0  0
   35.9610   29.5060   39.7150 C   0  0  0  0  0  0  0  0  0  0  0  0
   34.7210   28.8860   39.4930 C   0  0  0  0  0  0  0  0  0  0  0  0
   34.2410   28.5890   38.2390 C   0  0  0  0  0  0  0  0  0  0  0  0
   35.0110   28.9150   37.1590 C   0  0  0  0  0  0  0  0  0  0  0  0
   36.2150   29.5180   37.3650 C   0  0  0  0  0  0  0  0  0  0  0  0
   34.0550   28.6040   40.2970 H   0  0  0  0  0  0  0  0  0  0  0  0
   33.3060   28.1220   38.0760 H   0  0  0  0  0  0  0  0  0  0  0  0
   34.7110   28.7190   36.1420 H   0  0  0  0  0  0  0  0  0  0  0  0
   36.8280   29.7770   36.4860 H   0  0  0  0  0  0  0  0  0  0  0  0
   38.2550   30.5280   38.7580 S   0  0  0  0  0  0  0  0  0  0  0  0
   38.4670   31.0710   37.3280 O   0  0  0  0  0  0  0  0  0  0  0  0
   39.3280   29.5240   39.0080 O   0  0  0  0  0  0  0  0  0  0  0  0
   38.6450   32.0720   39.3630 C   0  0  0  0  0  0  0  0  0  0  0  0
   37.5900   33.0140   39.4900 C   0  0  0  0  0  0  0  0  0  0  0  0
   36.5140   32.9730   39.2690 H   0  0  0  0  0  0  0  0  0  0  0  0
   38.1240   34.1610   39.9940 C   0  0  0  0  0  0  0  0  0  0  0  0
   37.6370   35.1010   40.2280 H   0  0  0  0  0  0  0  0  0  0  0  0
   39.4470   33.9560   40.1750 C   0  0  0  0  0  0  0  0  0  0  0  0
   40.2670   34.5260   40.5320 H   0  0  0  0  0  0  0  0  0  0  0  0
   39.6920   32.7420   39.8000 O   0  0  0  0  0  0  0  0  0  0  0  0
   36.3900   29.7910   41.0840 C   0  0  0  0  0  0  0  0  0  0  0  0
   36.1560   30.8880   41.7070 O   0  0  0  0  0  0  0  0  0  0  0  0
   37.1130   28.7020   41.6780 C   0  0  0  0  0  0  0  0  0  0  0  0
   38.3180   29.0370   42.3480 C   0  0  0  0  0  0  0  0  0  0  0  0
   39.0230   27.9970   42.9330 C   0  0  0  0  0  0  0  0  0  0  0  0
   38.5240   26.7340   42.8330 N   0  0  0  0  0  0  0  0  0  0  0  0
   37.3570   26.4560   42.1760 C   0  0  0  0  0  0  0  0  0  0  0  0
   36.7230   27.4360   41.6410 N   0  0  0  0  0  0  0  0  0  0  0  0
   38.7770   29.9810   42.4730 H   0  0  0  0  0  0  0  0  0  0  0  0
   39.9560   28.1230   43.4730 H   0  0  0  0  0  0  0  0  0  0  0  0
   36.8860   25.0570   42.1280 C   0  0  1  0  0  0  0  0  0  0  0  0
   36.6790   24.4000   40.7820 C   0  0  0  0  0  0  0  0  0  0  0  0
   37.8900   24.0880   41.6180 C   0  0  1  0  0  0  0  0  0  0  0  0
   36.2830   24.6880   42.9760 H   0  0  0  0  0  0  0  0  0  0  0  0
   35.9410   23.5610   40.7790 H   0  0  0  0  0  0  0  0  0  0  0  0
   36.7620   24.9730   39.8480 H   0  0  0  0  0  0  0  0  0  0  0  0
   38.0100   23.0840   42.0800 H   0  0  0  0  0  0  0  0  0  0  0  0
   39.1140   24.5580   41.0070 N   0  0  0  0  0  0  0  0  0  0  0  0
   39.0700   24.4840   39.9710 H   0  0  0  0  0  0  0  0  0  0  0  0
   39.9800   24.1870   41.4200 H   0  0  0  0  0  0  0  0  0  0  0  0
  1 11  1  0  0  0  0
  1  2  1  0  0  0  0
  2 22  1  0  0  0  0
  3  2  2  0  0  0  0
  3  7  1  0  0  0  0
  4  3  1  0  0  0  0
  5  6  1  0  0  0  0
  5  4  2  0  0  0  0
  6  1  2  0  0  0  0
  8  4  1  0  0  0  0
  9  5  1  0  0  0  0
 10  6  1  0  0  0  0
 11 13  2  0  0  0  0
 11 14  1  0  0  0  0
 12 11  2  0  0  0  0
 14 15  2  0  0  0  0
 14 21  1  0  0  0  0
 15 17  1  0  0  0  0
 16 15  1  0  0  0  0
 17 19  2  0  0  0  0
 17 18  1  0  0  0  0
 19 20  1  0  0  0  0
 21 19  1  0  0  0  0
 22 24  1  0  0  0  0
 22 23  2  0  0  0  0
 24 25  1  0  0  0  0
 25 30  1  0  0  0  0
 25 26  2  0  0  0  0
 26 31  1  0  0  0  0
 27 26  1  0  0  0  0
 28 27  2  0  0  0  0
 29 24  2  0  0  0  0
 29 28  1  0  0  0  0
 32 28  1  0  0  0  0
 32 35  1  1  0  0  0
 33 34  1  0  0  0  0
 33 32  1  0  0  0  0
 34 38  1  1  0  0  0
 34 32  1  0  0  0  0
 36 33  1  0  0  0  0
 37 33  1  0  0  0  0
 39 41  1  0  0  0  0
 39 34  1  0  0  0  0
 40 39  1  0  0  0  0
M  END
>  <minimizedAffinity>
-6.15285778

$$$$

 OpenBabel03252508053D

 41 44  0  0  1  0  0  0  0  0999 V2000
   36.5650   26.9670   39.8960 C   0  0  0  0  0  0  0  0  0  0  0  0
   36.1690   28.1230   40.5000 C   0  0  0  0  0  0  0  0  0  0  0  0
   35.2550   28.9480   39.8250 C   0  0  0  0  0  0  0  0  0  0  0  0
   34.7410   28.6450   38.5870 C   0  0  0  0  0  0  0  0  0  0  0  0
   35.1400   27.4850   37.9870 C   0  0  0  0  0  0  0  0  0  0  0  0
   36.0270   26.6800   38.6350 C   0  0  0  0  0  0  0  0  0  0  0  0
   34.8980   29.8840   40.2340 H   0  0  0  0  0  0  0  0  0  0  0  0
   34.0530   29.2690   38.0810 H   0  0  0  0  0  0  0  0  0  0  0  0
   34.7870   27.1720   37.0170 H   0  0  0  0  0  0  0  0  0  0  0  0
   36.3430   25.7450   38.1410 H   0  0  0  0  0  0  0  0  0  0  0  0
   37.6150   25.8600   40.6170 S   0  0  0  0  0  0  0  0  0  0  0  0
   38.4770   25.4200   39.4150 O   0  0  0  0  0  0  0  0  0  0  0  0
   36.9140   24.6450   41.1220 O   0  0  0  0  0  0  0  0  0  0  0  0
   39.0470   26.1970   41.4750 C   0  0  0  0  0  0  0  0  0  0  0  0
   39.1030   25.8090   42.8410 C   0  0  0  0  0  0  0  0  0  0  0  0
   38.3860   25.3150   43.5110 H   0  0  0  0  0  0  0  0  0  0  0  0
   40.3270   26.1650   43.3180 C   0  0  0  0  0  0  0  0  0  0  0  0
   40.7410   26.0360   44.3120 H   0  0  0  0  0  0  0  0  0  0  0  0
   41.0100   26.7480   42.3090 C   0  0  0  0  0  0  0  0  0  0  0  0
   41.9720   27.1780   42.1850 H   0  0  0  0  0  0  0  0  0  0  0  0
   40.2310   26.7390   41.2750 O   0  0  0  0  0  0  0  0  0  0  0  0
   36.6720   28.5270   41.8140 C   0  0  0  0  0  0  0  0  0  0  0  0
   36.2990   28.0090   42.9270 O   0  0  0  0  0  0  0  0  0  0  0  0
   37.6460   29.5790   41.7370 C   0  0  0  0  0  0  0  0  0  0  0  0
   38.6350   29.5970   42.7540 C   0  0  0  0  0  0  0  0  0  0  0  0
   39.5870   30.6020   42.6890 C   0  0  0  0  0  0  0  0  0  0  0  0
   39.5170   31.5000   41.6670 N   0  0  0  0  0  0  0  0  0  0  0  0
   38.5440   31.4450   40.7080 C   0  0  0  0  0  0  0  0  0  0  0  0
   37.6730   30.5060   40.7900 N   0  0  0  0  0  0  0  0  0  0  0  0
   38.7640   28.9470   43.5780 H   0  0  0  0  0  0  0  0  0  0  0  0
   40.3930   30.7230   43.4040 H   0  0  0  0  0  0  0  0  0  0  0  0
   38.5550   32.4550   39.6300 C   0  0  1  0  0  0  0  0  0  0  0  0
   37.4350   33.4700   39.5660 C   0  0  0  0  0  0  0  0  0  0  0  0
   38.7930   33.8460   40.0930 C   0  0  1  0  0  0  0  0  0  0  0  0
   39.0630   32.1940   38.6850 H   0  0  0  0  0  0  0  0  0  0  0  0
   37.2440   33.8940   38.5500 H   0  0  0  0  0  0  0  0  0  0  0  0
   36.5630   33.4010   40.2320 H   0  0  0  0  0  0  0  0  0  0  0  0
   39.4440   34.5420   39.5210 H   0  0  0  0  0  0  0  0  0  0  0  0
   38.7650   34.1610   41.5050 N   0  0  0  0  0  0  0  0  0  0  0  0
   37.8740   34.6260   41.7700 H   0  0  0  0  0  0  0  0  0  0  0  0
   39.6080   34.6280   41.8660 H   0  0  0  0  0  0  0  0  0  0  0  0
  1  2  1  0  0  0  0
  1 11  1  0  0  0  0
  2 22  1  0  0  0  0
  3  7  1  0  0  0  0
  3  2  2  0  0  0  0
  4  3  1  0  0  0  0
  5  4  2  0  0  0  0
  5  6  1  0  0  0  0
  6  1  2  0  0  0  0
  8  4  1  0  0  0  0
  9  5  1  0  0  0  0
 10  6  1  0  0  0  0
 11 13  2  0  0  0  0
 11 14  1  0  0  0  0
 12 11  2  0  0  0  0
 14 15  2  0  0  0  0
 15 17  1  0  0  0  0
 15 16  1  0  0  0  0
 17 18  1  0  0  0  0
 19 17  2  0  0  0  0
 20 19  1  0  0  0  0
 21 14  1  0  0  0  0
 21 19  1  0  0  0  0
 22 23  2  0  0  0  0
 24 22  1  0  0  0  0
 24 25  1  0  0  0  0
 25 30  1  0  0  0  0
 26 25  2  0  0  0  0
 26 31  1  0  0  0  0
 27 26  1  0  0  0  0
 28 29  1  0  0  0  0
 28 27  2  0  0  0  0
 29 24  2  0  0  0  0
 32 35  1  6  0  0  0
 32 34  1  0  0  0  0
 32 28  1  0  0  0  0
 33 32  1  0  0  0  0
 33 34  1  0  0  0  0
 33 37  1  0  0  0  0
 34 38  1  6  0  0  0
 34 39  1  0  0  0  0
 36 33  1  0  0  0  0
 39 40  1  0  0  0  0
 39 41  1  0  0  0  0
M  END
>  <minimizedAffinity>
-6.12071562

$$$$

 OpenBabel03252508053D

 41 44  0  0  1  0  0  0  0  0999 V2000
   37.8750   27.3760   40.8730 C   0  0  0  0  0  0  0  0  0  0  0  0
   37.5040   28.5310   41.4950 C   0  0  0  0  0  0  0  0  0  0  0  0
   37.9160   28.7340   42.8230 C   0  0  0  0  0  0  0  0  0  0  0  0
   38.6740   27.8250   43.5220 C   0  0  0  0  0  0  0  0  0  0  0  0
   39.0430   26.6700   42.8930 C   0  0  0  0  0  0  0  0  0  0  0  0
   38.6470   26.4660   41.6060 C   0  0  0  0  0  0  0  0  0  0  0  0
   37.6570   29.6190   43.3870 H   0  0  0  0  0  0  0  0  0  0  0  0
   38.9810   27.9810   44.5220 H   0  0  0  0  0  0  0  0  0  0  0  0
   39.6360   25.9050   43.3680 H   0  0  0  0  0  0  0  0  0  0  0  0
   38.9510   25.5300   41.1070 H   0  0  0  0  0  0  0  0  0  0  0  0
   37.4960   27.0310   39.2660 S   0  0  0  0  0  0  0  0  0  0  0  0
   36.0260   26.5730   39.3850 O   0  0  0  0  0  0  0  0  0  0  0  0
   38.2700   25.8770   38.7260 O   0  0  0  0  0  0  0  0  0  0  0  0
   37.0180   28.1270   38.0530 C   0  0  0  0  0  0  0  0  0  0  0  0
   35.6510   28.1280   37.6680 C   0  0  0  0  0  0  0  0  0  0  0  0
   34.7790   27.5430   37.9910 H   0  0  0  0  0  0  0  0  0  0  0  0
   35.4990   29.0760   36.7020 C   0  0  0  0  0  0  0  0  0  0  0  0
   34.6050   29.3700   36.1630 H   0  0  0  0  0  0  0  0  0  0  0  0
   36.7050   29.6450   36.4880 C   0  0  0  0  0  0  0  0  0  0  0  0
   37.0900   30.4060   35.8560 H   0  0  0  0  0  0  0  0  0  0  0  0
   37.5400   29.0660   37.2890 O   0  0  0  0  0  0  0  0  0  0  0  0
   36.6920   29.5490   40.8280 C   0  0  0  0  0  0  0  0  0  0  0  0
   35.4200   29.4860   40.6840 O   0  0  0  0  0  0  0  0  0  0  0  0
   37.4730   30.6520   40.3420 C   0  0  0  0  0  0  0  0  0  0  0  0
   36.8540   31.9280   40.3840 C   0  0  0  0  0  0  0  0  0  0  0  0
   37.5980   33.0040   39.9260 C   0  0  0  0  0  0  0  0  0  0  0  0
   38.8610   32.7750   39.4680 N   0  0  0  0  0  0  0  0  0  0  0  0
   39.4180   31.5260   39.4450 C   0  0  0  0  0  0  0  0  0  0  0  0
   38.7080   30.5460   39.8740 N   0  0  0  0  0  0  0  0  0  0  0  0
   35.8880   32.1960   40.7180 H   0  0  0  0  0  0  0  0  0  0  0  0
   37.2390   34.0280   39.9070 H   0  0  0  0  0  0  0  0  0  0  0  0
   40.7990   31.3760   38.9430 C   0  0  1  0  0  0  0  0  0  0  0  0
   41.0580   30.4410   37.7830 C   0  0  0  0  0  0  0  0  0  0  0  0
   41.0220   31.9320   37.5840 C   0  0  1  0  0  0  0  0  0  0  0  0
   41.6260   31.5530   39.6520 H   0  0  0  0  0  0  0  0  0  0  0  0
   42.0960   30.0330   37.7320 H   0  0  0  0  0  0  0  0  0  0  0  0
   40.2650   29.7930   37.3830 H   0  0  0  0  0  0  0  0  0  0  0  0
   41.9520   32.4870   37.3330 H   0  0  0  0  0  0  0  0  0  0  0  0
   39.9010   32.3510   36.7720 N   0  0  0  0  0  0  0  0  0  0  0  0
   39.6830   31.6470   36.0380 H   0  0  0  0  0  0  0  0  0  0  0  0
   39.9470   33.3190   36.4270 H   0  0  0  0  0  0  0  0  0  0  0  0
  1  2  2  0  0  0  0
  1  6  1  0  0  0  0
  2  3  1  0  0  0  0
  3  7  1  0  0  0  0
  3  4  2  0  0  0  0
  4  8  1  0  0  0  0
  5  9  1  0  0  0  0
  5  4  1  0  0  0  0
  6  5  2  0  0  0  0
 10  6  1  0  0  0  0
 11 12  2  0  0  0  0
 11  1  1  0  0  0  0
 13 11  2  0  0  0  0
 14 11  1  0  0  0  0
 15 16  1  0  0  0  0
 15 14  2  0  0  0  0
 17 15  1  0  0  0  0
 18 17  1  0  0  0  0
 19 17  2  0  0  0  0
 19 21  1  0  0  0  0
 20 19  1  0  0  0  0
 21 14  1  0  0  0  0
 22  2  1  0  0  0  0
 23 22  2  0  0  0  0
 24 25  1  0  0  0  0
 24 22  1  0  0  0  0
 25 30  1  0  0  0  0
 26 25  2  0  0  0  0
 27 26  1  0  0  0  0
 28 27  2  0  0  0  0
 28 29  1  0  0  0  0
 29 24  2  0  0  0  0
 31 26  1  0  0  0  0
 32 28  1  0  0  0  0
 32 35  1  1  0  0  0
 33 32  1  0  0  0  0
 34 38  1  6  0  0  0
 34 33  1  0  0  0  0
 34 32  1  0  0  0  0
 36 33  1  0  0  0  0
 37 33  1  0  0  0  0
 39 34  1  0  0  0  0
 40 39  1  0  0  0  0
 41 39  1  0  0  0  0
M  END
>  <minimizedAffinity>
-5.61707735

$$$$

 OpenBabel03252508053D

 41 44  0  0  1  0  0  0  0  0999 V2000
   37.7230   29.6320   39.7480 C   0  0  0  0  0  0  0  0  0  0  0  0
   37.2170   29.2130   40.9430 C   0  0  0  0  0  0  0  0  0  0  0  0
   35.8370   28.9700   41.0310 C   0  0  0  0  0  0  0  0  0  0  0  0
   34.9750   29.1320   39.9730 C   0  0  0  0  0  0  0  0  0  0  0  0
   35.4890   29.5510   38.7790 C   0  0  0  0  0  0  0  0  0  0  0  0
   36.8260   29.7900   38.6840 C   0  0  0  0  0  0  0  0  0  0  0  0
   35.3570   28.6430   41.9440 H   0  0  0  0  0  0  0  0  0  0  0  0
   33.9350   28.9490   40.0440 H   0  0  0  0  0  0  0  0  0  0  0  0
   34.8840   29.7040   37.8990 H   0  0  0  0  0  0  0  0  0  0  0  0
   37.2310   30.1270   37.7150 H   0  0  0  0  0  0  0  0  0  0  0  0
   39.3680   29.9080   39.4890 S   0  0  0  0  0  0  0  0  0  0  0  0
   39.3590   30.5410   38.0810 O   0  0  0  0  0  0  0  0  0  0  0  0
   40.1570   28.6470   39.3960 O   0  0  0  0  0  0  0  0  0  0  0  0
   40.2970   31.2270   40.0360 C   0  0  0  0  0  0  0  0  0  0  0  0
   40.0520   32.4950   39.4460 C   0  0  0  0  0  0  0  0  0  0  0  0
   39.3580   32.8390   38.6660 H   0  0  0  0  0  0  0  0  0  0  0  0
   40.8930   33.3900   40.0330 C   0  0  0  0  0  0  0  0  0  0  0  0
   41.0020   34.4530   39.8490 H   0  0  0  0  0  0  0  0  0  0  0  0
   41.6330   32.7230   40.9460 C   0  0  0  0  0  0  0  0  0  0  0  0
   42.3990   32.9710   41.6370 H   0  0  0  0  0  0  0  0  0  0  0  0
   41.2500   31.4880   40.9080 O   0  0  0  0  0  0  0  0  0  0  0  0
   38.0610   29.0210   42.1220 C   0  0  0  0  0  0  0  0  0  0  0  0
   38.4750   29.9680   42.8830 O   0  0  0  0  0  0  0  0  0  0  0  0
   38.3860   27.6430   42.3540 C   0  0  0  0  0  0  0  0  0  0  0  0
   39.6180   27.3880   43.0100 C   0  0  0  0  0  0  0  0  0  0  0  0
   39.9430   26.0620   43.2480 C   0  0  0  0  0  0  0  0  0  0  0  0
   39.0730   25.0960   42.8450 N   0  0  0  0  0  0  0  0  0  0  0  0
   37.8940   25.3870   42.2140 C   0  0  0  0  0  0  0  0  0  0  0  0
   37.6170   26.6220   42.0040 N   0  0  0  0  0  0  0  0  0  0  0  0
   40.3500   28.0700   43.3540 H   0  0  0  0  0  0  0  0  0  0  0  0
   40.8540   25.7380   43.7410 H   0  0  0  0  0  0  0  0  0  0  0  0
   37.0060   24.2730   41.8230 C   0  0  1  0  0  0  0  0  0  0  0  0
   36.5270   24.1870   40.3920 C   0  0  0  0  0  0  0  0  0  0  0  0
   37.6240   23.2910   40.8960 C   0  0  1  0  0  0  0  0  0  0  0  0
   36.3660   23.8260   42.6040 H   0  0  0  0  0  0  0  0  0  0  0  0
   35.5640   23.6380   40.2510 H   0  0  0  0  0  0  0  0  0  0  0  0
   36.7330   24.9910   39.6710 H   0  0  0  0  0  0  0  0  0  0  0  0
   37.4490   22.1990   41.0110 H   0  0  0  0  0  0  0  0  0  0  0  0
   38.8970   23.5760   40.2710 N   0  0  0  0  0  0  0  0  0  0  0  0
   38.7740   23.8660   39.2810 H   0  0  0  0  0  0  0  0  0  0  0  0
   39.6250   22.8630   40.4150 H   0  0  0  0  0  0  0  0  0  0  0  0
  1  2  1  0  0  0  0
  2  3  2  0  0  0  0
  2 22  1  0  0  0  0
  3  7  1  0  0  0  0
  4  8  1  0  0  0  0
  4  3  1  0  0  0  0
  5  4  2  0  0  0  0
  6  5  1  0  0  0  0
  6  1  2  0  0  0  0
  9  5  1  0  0  0  0
 10  6  1  0  0  0  0
 11  1  1  0  0  0  0
 11 14  1  0  0  0  0
 12 11  2  0  0  0  0
 13 11  2  0  0  0  0
 14 21  1  0  0  0  0
 15 17  1  0  0  0  0
 15 14  2  0  0  0  0
 16 15  1  0  0  0  0
 17 19  2  0  0  0  0
 18 17  1  0  0  0  0
 19 20  1  0  0  0  0
 21 19  1  0  0  0  0
 22 24  1  0  0  0  0
 22 23  2  0  0  0  0
 24 25  1  0  0  0  0
 25 26  2  0  0  0  0
 25 30  1  0  0  0  0
 26 31  1  0  0  0  0
 27 26  1  0  0  0  0
 28 27  2  0  0  0  0
 29 28  1  0  0  0  0
 29 24  2  0  0  0  0
 32 28  1  0  0  0  0
 32 35  1  1  0  0  0
 33 34  1  0  0  0  0
 33 32  1  0  0  0  0
 34 38  1  1  0  0  0
 34 32  1  0  0  0  0
 36 33  1  0  0  0  0
 37 33  1  0  0  0  0
 39 41  1  0  0  0  0
 39 34  1  0  0  0  0
 40 39  1  0  0  0  0
M  END
>  <minimizedAffinity>
-5.60150146

$$$$

 OpenBabel03252508053D

 41 44  0  0  1  0  0  0  0  0999 V2000
   37.3970   28.3850   41.2760 C   0  0  0  0  0  0  0  0  0  0  0  0
   38.7380   28.1450   41.3150 C   0  0  0  0  0  0  0  0  0  0  0  0
   39.2980   27.6910   42.5200 C   0  0  0  0  0  0  0  0  0  0  0  0
   38.5590   27.4770   43.6600 C   0  0  0  0  0  0  0  0  0  0  0  0
   37.2160   27.7190   43.6140 C   0  0  0  0  0  0  0  0  0  0  0  0
   36.6650   28.1600   42.4490 C   0  0  0  0  0  0  0  0  0  0  0  0
   40.3540   27.4850   42.6350 H   0  0  0  0  0  0  0  0  0  0  0  0
   38.9840   27.1360   44.5660 H   0  0  0  0  0  0  0  0  0  0  0  0
   36.5630   27.5790   44.4610 H   0  0  0  0  0  0  0  0  0  0  0  0
   35.5790   28.3520   42.4230 H   0  0  0  0  0  0  0  0  0  0  0  0
   36.5880   28.8810   39.8810 S   0  0  0  0  0  0  0  0  0  0  0  0
   35.4730   29.7720   40.4670 O   0  0  0  0  0  0  0  0  0  0  0  0
   35.9190   27.7540   39.1710 O   0  0  0  0  0  0  0  0  0  0  0  0
   37.0100   30.1580   38.8350 C   0  0  0  0  0  0  0  0  0  0  0  0
   36.9660   31.4780   39.3580 C   0  0  0  0  0  0  0  0  0  0  0  0
   36.7030   31.8880   40.3430 H   0  0  0  0  0  0  0  0  0  0  0  0
   37.3430   32.3260   38.3620 C   0  0  0  0  0  0  0  0  0  0  0  0
   37.4330   33.4060   38.3760 H   0  0  0  0  0  0  0  0  0  0  0  0
   37.6110   31.5820   37.2660 C   0  0  0  0  0  0  0  0  0  0  0  0
   37.9300   31.7720   36.2720 H   0  0  0  0  0  0  0  0  0  0  0  0
   37.4050   30.3470   37.5930 O   0  0  0  0  0  0  0  0  0  0  0  0
   39.6010   28.3530   40.1520 C   0  0  0  0  0  0  0  0  0  0  0  0
   39.7710   27.4990   39.2100 O   0  0  0  0  0  0  0  0  0  0  0  0
   40.2520   29.6320   40.1640 C   0  0  0  0  0  0  0  0  0  0  0  0
   39.8930   30.5110   41.2180 C   0  0  0  0  0  0  0  0  0  0  0  0
   40.5190   31.7470   41.2480 C   0  0  0  0  0  0  0  0  0  0  0  0
   41.4280   32.0410   40.2770 N   0  0  0  0  0  0  0  0  0  0  0  0
   41.7430   31.1630   39.2770 C   0  0  0  0  0  0  0  0  0  0  0  0
   41.1490   30.0250   39.2710 N   0  0  0  0  0  0  0  0  0  0  0  0
   39.2040   30.3680   42.0070 H   0  0  0  0  0  0  0  0  0  0  0  0
   40.3320   32.5050   42.0010 H   0  0  0  0  0  0  0  0  0  0  0  0
   42.7500   31.5630   38.2730 C   0  0  1  0  0  0  0  0  0  0  0  0
   42.5360   31.1770   36.8270 C   0  0  0  0  0  0  0  0  0  0  0  0
   42.2770   32.5810   37.3010 C   0  0  1  0  0  0  0  0  0  0  0  0
   43.7900   31.7060   38.6160 H   0  0  0  0  0  0  0  0  0  0  0  0
   43.4690   31.1030   36.2180 H   0  0  0  0  0  0  0  0  0  0  0  0
   41.7110   30.5150   36.5290 H   0  0  0  0  0  0  0  0  0  0  0  0
   42.9350   33.4150   36.9720 H   0  0  0  0  0  0  0  0  0  0  0  0
   40.8750   32.9330   37.2350 N   0  0  0  0  0  0  0  0  0  0  0  0
   40.4120   32.4860   36.4190 H   0  0  0  0  0  0  0  0  0  0  0  0
   40.6700   33.9360   37.3380 H   0  0  0  0  0  0  0  0  0  0  0  0
  1  2  2  0  0  0  0
  1  6  1  0  0  0  0
  2  3  1  0  0  0  0
  3  7  1  0  0  0  0
  3  4  2  0  0  0  0
  4  8  1  0  0  0  0
  5  4  1  0  0  0  0
  5  9  1  0  0  0  0
  6  5  2  0  0  0  0
 10  6  1  0  0  0  0
 11 12  2  0  0  0  0
 11  1  1  0  0  0  0
 13 11  2  0  0  0  0
 14 15  2  0  0  0  0
 14 11  1  0  0  0  0
 15 16  1  0  0  0  0
 17 18  1  0  0  0  0
 17 15  1  0  0  0  0
 19 21  1  0  0  0  0
 19 17  2  0  0  0  0
 20 19  1  0  0  0  0
 21 14  1  0  0  0  0
 22 24  1  0  0  0  0
 22  2  1  0  0  0  0
 23 22  2  0  0  0  0
 24 25  1  0  0  0  0
 25 26  2  0  0  0  0
 25 30  1  0  0  0  0
 26 31  1  0  0  0  0
 27 26  1  0  0  0  0
 28 27  2  0  0  0  0
 29 28  1  0  0  0  0
 29 24  2  0  0  0  0
 32 35  1  1  0  0  0
 32 28  1  0  0  0  0
 33 34  1  0  0  0  0
 33 32  1  0  0  0  0
 34 38  1  6  0  0  0
 34 32  1  0  0  0  0
 36 33  1  0  0  0  0
 37 33  1  0  0  0  0
 39 34  1  0  0  0  0
 39 41  1  0  0  0  0
 40 39  1  0  0  0  0
M  END
>  <minimizedAffinity>
-5.58711386

$$$$

 OpenBabel03252508053D

 41 44  0  0  1  0  0  0  0  0999 V2000
   37.2330   26.6340   39.7920 C   0  0  0  0  0  0  0  0  0  0  0  0
   36.8590   27.2790   40.9330 C   0  0  0  0  0  0  0  0  0  0  0  0
   36.9730   26.5930   42.1530 C   0  0  0  0  0  0  0  0  0  0  0  0
   37.4430   25.3040   42.2500 C   0  0  0  0  0  0  0  0  0  0  0  0
   37.8160   24.6640   41.1030 C   0  0  0  0  0  0  0  0  0  0  0  0
   37.7090   25.3220   39.9160 C   0  0  0  0  0  0  0  0  0  0  0  0
   36.6910   27.0310   43.1000 H   0  0  0  0  0  0  0  0  0  0  0  0
   37.5260   24.7900   43.1710 H   0  0  0  0  0  0  0  0  0  0  0  0
   38.1940   23.6540   41.0900 H   0  0  0  0  0  0  0  0  0  0  0  0
   38.0140   24.7960   38.9960 H   0  0  0  0  0  0  0  0  0  0  0  0
   37.1990   27.3590   38.2680 S   0  0  0  0  0  0  0  0  0  0  0  0
   37.2220   26.1270   37.3380 O   0  0  0  0  0  0  0  0  0  0  0  0
   38.4300   28.1490   37.9780 O   0  0  0  0  0  0  0  0  0  0  0  0
   35.8360   27.9290   37.4210 C   0  0  0  0  0  0  0  0  0  0  0  0
   34.6020   27.2590   37.6330 C   0  0  0  0  0  0  0  0  0  0  0  0
   34.3090   26.4020   38.2540 H   0  0  0  0  0  0  0  0  0  0  0  0
   33.6620   27.8820   36.8690 C   0  0  0  0  0  0  0  0  0  0  0  0
   32.6060   27.6590   36.7620 H   0  0  0  0  0  0  0  0  0  0  0  0
   34.2700   28.8920   36.2080 C   0  0  0  0  0  0  0  0  0  0  0  0
   33.9740   29.6400   35.5160 H   0  0  0  0  0  0  0  0  0  0  0  0
   35.5140   28.8750   36.5620 O   0  0  0  0  0  0  0  0  0  0  0  0
   36.3420   28.6470   40.9210 C   0  0  0  0  0  0  0  0  0  0  0  0
   35.0990   28.9550   40.8520 O   0  0  0  0  0  0  0  0  0  0  0  0
   37.3810   29.6350   40.9970 C   0  0  0  0  0  0  0  0  0  0  0  0
   38.3870   29.4170   41.9730 C   0  0  0  0  0  0  0  0  0  0  0  0
   39.4020   30.3580   42.0530 C   0  0  0  0  0  0  0  0  0  0  0  0
   39.3730   31.4210   41.2020 N   0  0  0  0  0  0  0  0  0  0  0  0
   38.3810   31.5920   40.2760 C   0  0  0  0  0  0  0  0  0  0  0  0
   37.4520   30.7080   40.2220 N   0  0  0  0  0  0  0  0  0  0  0  0
   38.4880   28.6280   42.6690 H   0  0  0  0  0  0  0  0  0  0  0  0
   40.2270   30.3040   42.7550 H   0  0  0  0  0  0  0  0  0  0  0  0
   38.4390   32.7700   39.3860 C   0  0  1  0  0  0  0  0  0  0  0  0
   37.3510   33.8150   39.4840 C   0  0  0  0  0  0  0  0  0  0  0  0
   38.7090   34.0540   40.0830 C   0  0  1  0  0  0  0  0  0  0  0  0
   38.9550   32.6580   38.4160 H   0  0  0  0  0  0  0  0  0  0  0  0
   37.1890   34.4130   38.5540 H   0  0  0  0  0  0  0  0  0  0  0  0
   36.4660   33.6620   40.1190 H   0  0  0  0  0  0  0  0  0  0  0  0
   39.3900   34.8160   39.6460 H   0  0  0  0  0  0  0  0  0  0  0  0
   38.6680   34.1240   41.5280 N   0  0  0  0  0  0  0  0  0  0  0  0
   37.7860   34.5640   41.8580 H   0  0  0  0  0  0  0  0  0  0  0  0
   39.5180   34.4960   41.9720 H   0  0  0  0  0  0  0  0  0  0  0  0
  1  6  2  0  0  0  0
  1  2  1  0  0  0  0
  2  3  2  0  0  0  0
  3  4  1  0  0  0  0
  3  7  1  0  0  0  0
  4  8  1  0  0  0  0
  5  4  2  0  0  0  0
  6  5  1  0  0  0  0
  9  5  1  0  0  0  0
 10  6  1  0  0  0  0
 11  1  1  0  0  0  0
 12 11  2  0  0  0  0
 13 11  2  0  0  0  0
 14 15  2  0  0  0  0
 14 11  1  0  0  0  0
 15 16  1  0  0  0  0
 17 15  1  0  0  0  0
 18 17  1  0  0  0  0
 19 21  1  0  0  0  0
 19 17  2  0  0  0  0
 20 19  1  0  0  0  0
 21 14  1  0  0  0  0
 22  2  1  0  0  0  0
 22 24  1  0  0  0  0
 23 22  2  0  0  0  0
 24 25  1  0  0  0  0
 25 26  2  0  0  0  0
 25 30  1  0  0  0  0
 26 31  1  0  0  0  0
 27 26  1  0  0  0  0
 28 27  2  0  0  0  0
 29 28  1  0  0  0  0
 29 24  2  0  0  0  0
 32 35  1  6  0  0  0
 32 33  1  0  0  0  0
 32 34  1  0  0  0  0
 32 28  1  0  0  0  0
 33 34  1  0  0  0  0
 33 37  1  0  0  0  0
 34 38  1  6  0  0  0
 34 39  1  0  0  0  0
 36 33  1  0  0  0  0
 39 40  1  0  0  0  0
 39 41  1  0  0  0  0
M  END
>  <minimizedAffinity>
-5.53261566

$$$$

 OpenBabel03252508053D

 41 44  0  0  1  0  0  0  0  0999 V2000
   36.4880   29.6520   38.4850 C   0  0  0  0  0  0  0  0  0  0  0  0
   35.7230   29.5560   39.6090 C   0  0  0  0  0  0  0  0  0  0  0  0
   34.3880   29.1400   39.4720 C   0  0  0  0  0  0  0  0  0  0  0  0
   33.8190   28.8250   38.2610 C   0  0  0  0  0  0  0  0  0  0  0  0
   34.5910   28.9230   37.1390 C   0  0  0  0  0  0  0  0  0  0  0  0
   35.8860   29.3270   37.2630 C   0  0  0  0  0  0  0  0  0  0  0  0
   33.7150   29.0450   40.3130 H   0  0  0  0  0  0  0  0  0  0  0  0
   32.8130   28.5130   38.1620 H   0  0  0  0  0  0  0  0  0  0  0  0
   34.2240   28.6970   36.1500 H   0  0  0  0  0  0  0  0  0  0  0  0
   36.5010   29.4020   36.3500 H   0  0  0  0  0  0  0  0  0  0  0  0
   38.1180   30.0870   38.5120 S   0  0  0  0  0  0  0  0  0  0  0  0
   38.0290   31.6280   38.4980 O   0  0  0  0  0  0  0  0  0  0  0  0
   38.8450   29.6790   37.2760 O   0  0  0  0  0  0  0  0  0  0  0  0
   39.1410   30.1940   39.8700 C   0  0  0  0  0  0  0  0  0  0  0  0
   39.9330   29.0590   40.1890 C   0  0  0  0  0  0  0  0  0  0  0  0
   40.0400   28.0650   39.7320 H   0  0  0  0  0  0  0  0  0  0  0  0
   40.6680   29.3690   41.2930 C   0  0  0  0  0  0  0  0  0  0  0  0
   41.3860   28.7620   41.8330 H   0  0  0  0  0  0  0  0  0  0  0  0
   40.3560   30.6340   41.6540 C   0  0  0  0  0  0  0  0  0  0  0  0
   40.6520   31.3040   42.4210 H   0  0  0  0  0  0  0  0  0  0  0  0
   39.4780   31.0600   40.8050 O   0  0  0  0  0  0  0  0  0  0  0  0
   36.2460   29.8780   40.9370 C   0  0  0  0  0  0  0  0  0  0  0  0
   36.2600   31.0540   41.4480 O   0  0  0  0  0  0  0  0  0  0  0  0
   36.7490   28.7260   41.6300 C   0  0  0  0  0  0  0  0  0  0  0  0
   37.3090   28.9580   42.9130 C   0  0  0  0  0  0  0  0  0  0  0  0
   37.7920   27.8540   43.5990 C   0  0  0  0  0  0  0  0  0  0  0  0
   37.7030   26.6300   43.0080 N   0  0  0  0  0  0  0  0  0  0  0  0
   37.1560   26.4530   41.7670 C   0  0  0  0  0  0  0  0  0  0  0  0
   36.7160   27.4900   41.1520 N   0  0  0  0  0  0  0  0  0  0  0  0
   37.4200   29.8650   43.4440 H   0  0  0  0  0  0  0  0  0  0  0  0
   38.2420   27.9000   44.5850 H   0  0  0  0  0  0  0  0  0  0  0  0
   37.0900   25.0860   41.2110 C   0  0  1  0  0  0  0  0  0  0  0  0
   37.7520   24.8040   39.8810 C   0  0  0  0  0  0  0  0  0  0  0  0
   38.3940   24.3750   41.1720 C   0  0  1  0  0  0  0  0  0  0  0  0
   36.2320   24.4540   41.4990 H   0  0  0  0  0  0  0  0  0  0  0  0
   37.3220   23.9420   39.3160 H   0  0  0  0  0  0  0  0  0  0  0  0
   38.1800   25.6140   39.2730 H   0  0  0  0  0  0  0  0  0  0  0  0
   38.4710   23.2960   41.4290 H   0  0  0  0  0  0  0  0  0  0  0  0
   39.6240   25.0890   41.4380 N   0  0  0  0  0  0  0  0  0  0  0  0
   40.1370   25.2950   40.5570 H   0  0  0  0  0  0  0  0  0  0  0  0
   40.2090   24.6900   42.1840 H   0  0  0  0  0  0  0  0  0  0  0  0
  1 11  1  0  0  0  0
  1  2  1  0  0  0  0
  2 22  1  0  0  0  0
  3  2  2  0  0  0  0
  3  7  1  0  0  0  0
  4  3  1  0  0  0  0
  5  6  1  0  0  0  0
  5  4  2  0  0  0  0
  6  1  2  0  0  0  0
  8  4  1  0  0  0  0
  9  5  1  0  0  0  0
 10  6  1  0  0  0  0
 11 14  1  0  0  0  0
 12 11  2  0  0  0  0
 13 11  2  0  0  0  0
 14 15  2  0  0  0  0
 14 21  1  0  0  0  0
 15 17  1  0  0  0  0
 16 15  1  0  0  0  0
 17 19  2  0  0  0  0
 17 18  1  0  0  0  0
 19 20  1  0  0  0  0
 21 19  1  0  0  0  0
 22 23  2  0  0  0  0
 22 24  1  0  0  0  0
 24 25  1  0  0  0  0
 25 30  1  0  0  0  0
 25 26  2  0  0  0  0
 26 31  1  0  0  0  0
 27 26  1  0  0  0  0
 28 27  2  0  0  0  0
 29 24  2  0  0  0  0
 29 28  1  0  0  0  0
 32 35  1  1  0  0  0
 32 28  1  0  0  0  0
 33 34  1  0  0  0  0
 33 32  1  0  0  0  0
 34 32  1  0  0  0  0
 34 38  1  1  0  0  0
 34 39  1  0  0  0  0
 36 33  1  0  0  0  0
 37 33  1  0  0  0  0
 39 41  1  0  0  0  0
 40 39  1  0  0  0  0
M  END
>  <minimizedAffinity>
-5.50048161

$$$$

 OpenBabel03252508053D

 41 44  0  0  1  0  0  0  0  0999 V2000
   36.5200   30.0170   38.2810 C   0  0  0  0  0  0  0  0  0  0  0  0
   35.8740   29.5980   39.4060 C   0  0  0  0  0  0  0  0  0  0  0  0
   34.6850   28.8660   39.2570 C   0  0  0  0  0  0  0  0  0  0  0  0
   34.1440   28.5520   38.0330 C   0  0  0  0  0  0  0  0  0  0  0  0
   34.7970   28.9730   36.9100 C   0  0  0  0  0  0  0  0  0  0  0  0
   35.9500   29.6850   37.0460 C   0  0  0  0  0  0  0  0  0  0  0  0
   34.1100   28.5040   40.0990 H   0  0  0  0  0  0  0  0  0  0  0  0
   33.2480   28.0000   37.9240 H   0  0  0  0  0  0  0  0  0  0  0  0
   34.4410   28.7710   35.9110 H   0  0  0  0  0  0  0  0  0  0  0  0
   36.4690   30.0210   36.1320 H   0  0  0  0  0  0  0  0  0  0  0  0
   37.9840   30.8570   38.3150 S   0  0  0  0  0  0  0  0  0  0  0  0
   37.8640   31.7420   37.0560 O   0  0  0  0  0  0  0  0  0  0  0  0
   39.1640   29.9680   38.1140 O   0  0  0  0  0  0  0  0  0  0  0  0
   38.3580   32.2530   39.2170 C   0  0  0  0  0  0  0  0  0  0  0  0
   39.6450   32.3250   39.8130 C   0  0  0  0  0  0  0  0  0  0  0  0
   40.5060   31.6410   39.8290 H   0  0  0  0  0  0  0  0  0  0  0  0
   39.7260   33.5140   40.4700 C   0  0  0  0  0  0  0  0  0  0  0  0
   40.5480   33.9280   41.0440 H   0  0  0  0  0  0  0  0  0  0  0  0
   38.5520   34.1610   40.3000 C   0  0  0  0  0  0  0  0  0  0  0  0
   38.1390   35.0890   40.6060 H   0  0  0  0  0  0  0  0  0  0  0  0
   37.8050   33.3940   39.5730 O   0  0  0  0  0  0  0  0  0  0  0  0
   36.3760   29.8940   40.7480 C   0  0  0  0  0  0  0  0  0  0  0  0
   36.1860   31.0010   41.3680 O   0  0  0  0  0  0  0  0  0  0  0  0
   37.1140   28.8030   41.3190 C   0  0  0  0  0  0  0  0  0  0  0  0
   36.4390   28.0290   42.2970 C   0  0  0  0  0  0  0  0  0  0  0  0
   37.1360   26.9670   42.8510 C   0  0  0  0  0  0  0  0  0  0  0  0
   38.4100   26.7330   42.4300 N   0  0  0  0  0  0  0  0  0  0  0  0
   39.0230   27.5070   41.4840 C   0  0  0  0  0  0  0  0  0  0  0  0
   38.3570   28.4850   40.9860 N   0  0  0  0  0  0  0  0  0  0  0  0
   35.4600   28.1380   42.6820 H   0  0  0  0  0  0  0  0  0  0  0  0
   36.7300   26.3020   43.6060 H   0  0  0  0  0  0  0  0  0  0  0  0
   40.4040   27.1710   41.0800 C   0  0  1  0  0  0  0  0  0  0  0  0
   40.6750   25.8220   40.4530 C   0  0  0  0  0  0  0  0  0  0  0  0
   40.6060   27.0670   39.6120 C   0  0  1  0  0  0  0  0  0  0  0  0
   41.2320   27.6590   41.6230 H   0  0  0  0  0  0  0  0  0  0  0  0
   41.7220   25.4510   40.5730 H   0  0  0  0  0  0  0  0  0  0  0  0
   39.8940   25.0510   40.3960 H   0  0  0  0  0  0  0  0  0  0  0  0
   41.5220   27.4680   39.1250 H   0  0  0  0  0  0  0  0  0  0  0  0
   39.4700   27.0620   38.7160 N   0  0  0  0  0  0  0  0  0  0  0  0
   39.2630   26.1010   38.3760 H   0  0  0  0  0  0  0  0  0  0  0  0
   39.4940   27.7760   37.9750 H   0  0  0  0  0  0  0  0  0  0  0  0
  1 11  1  0  0  0  0
  1  2  1  0  0  0  0
  2 22  1  0  0  0  0
  3  2  2  0  0  0  0
  3  7  1  0  0  0  0
  4  3  1  0  0  0  0
  5  6  1  0  0  0  0
  5  4  2  0  0  0  0
  6  1  2  0  0  0  0
  8  4  1  0  0  0  0
  9  5  1  0  0  0  0
 10  6  1  0  0  0  0
 11 14  1  0  0  0  0
 12 11  2  0  0  0  0
 13 11  2  0  0  0  0
 14 21  1  0  0  0  0
 14 15  2  0  0  0  0
 15 16  1  0  0  0  0
 15 17  1  0  0  0  0
 17 18  1  0  0  0  0
 19 17  2  0  0  0  0
 19 20  1  0  0  0  0
 21 19  1  0  0  0  0
 22 24  1  0  0  0  0
 22 23  2  0  0  0  0
 24 25  1  0  0  0  0
 25 30  1  0  0  0  0
 25 26  2  0  0  0  0
 26 31  1  0  0  0  0
 27 26  1  0  0  0  0
 28 27  2  0  0  0  0
 29 24  2  0  0  0  0
 29 28  1  0  0  0  0
 32 28  1  0  0  0  0
 32 35  1  1  0  0  0
 33 36  1  0  0  0  0
 33 32  1  0  0  0  0
 34 38  1  6  0  0  0
 34 33  1  0  0  0  0
 34 32  1  0  0  0  0
 37 33  1  0  0  0  0
 39 34  1  0  0  0  0
 40 39  1  0  0  0  0
 41 39  1  0  0  0  0
M  END
>  <minimizedAffinity>
-5.4506073

$$$$

 OpenBabel03252508053D

 41 44  0  0  1  0  0  0  0  0999 V2000
   39.1850   25.3140   39.5820 C   0  0  0  0  0  0  0  0  0  0  0  0
   38.2170   25.5070   38.6420 C   0  0  0  0  0  0  0  0  0  0  0  0
   38.5740   25.3990   37.2880 C   0  0  0  0  0  0  0  0  0  0  0  0
   39.8500   25.1080   36.8680 C   0  0  0  0  0  0  0  0  0  0  0  0
   40.8150   24.9150   37.8150 C   0  0  0  0  0  0  0  0  0  0  0  0
   40.4770   25.0190   39.1300 C   0  0  0  0  0  0  0  0  0  0  0  0
   37.8670   25.5450   36.4820 H   0  0  0  0  0  0  0  0  0  0  0  0
   40.1150   25.0280   35.8460 H   0  0  0  0  0  0  0  0  0  0  0  0
   41.8400   24.6830   37.5720 H   0  0  0  0  0  0  0  0  0  0  0  0
   41.2640   24.8610   39.8870 H   0  0  0  0  0  0  0  0  0  0  0  0
   38.8820   25.3620   41.2420 S   0  0  0  0  0  0  0  0  0  0  0  0
   40.3050   25.5390   41.8130 O   0  0  0  0  0  0  0  0  0  0  0  0
   38.3560   24.0700   41.7690 O   0  0  0  0  0  0  0  0  0  0  0  0
   38.3830   26.7020   42.1680 C   0  0  0  0  0  0  0  0  0  0  0  0
   37.0530   26.6970   42.6680 C   0  0  0  0  0  0  0  0  0  0  0  0
   36.2220   25.9830   42.5860 H   0  0  0  0  0  0  0  0  0  0  0  0
   36.8780   27.8470   43.3760 C   0  0  0  0  0  0  0  0  0  0  0  0
   36.0000   28.2010   43.9050 H   0  0  0  0  0  0  0  0  0  0  0  0
   38.0350   28.5430   43.3250 C   0  0  0  0  0  0  0  0  0  0  0  0
   38.3880   29.4680   43.7070 H   0  0  0  0  0  0  0  0  0  0  0  0
   38.8640   27.8410   42.6220 O   0  0  0  0  0  0  0  0  0  0  0  0
   36.8350   25.8280   39.0000 C   0  0  0  0  0  0  0  0  0  0  0  0
   35.9950   24.9890   39.4850 O   0  0  0  0  0  0  0  0  0  0  0  0
   36.5020   27.2030   38.7550 C   0  0  0  0  0  0  0  0  0  0  0  0
   35.3880   27.4400   37.9100 C   0  0  0  0  0  0  0  0  0  0  0  0
   35.0490   28.7620   37.6700 C   0  0  0  0  0  0  0  0  0  0  0  0
   35.7960   29.7420   38.2510 N   0  0  0  0  0  0  0  0  0  0  0  0
   36.8640   29.4680   39.0600 C   0  0  0  0  0  0  0  0  0  0  0  0
   37.1580   28.2350   39.2660 N   0  0  0  0  0  0  0  0  0  0  0  0
   34.7580   26.7480   37.4190 H   0  0  0  0  0  0  0  0  0  0  0  0
   34.2200   29.0740   37.0430 H   0  0  0  0  0  0  0  0  0  0  0  0
   37.6090   30.5950   39.6570 C   0  0  1  0  0  0  0  0  0  0  0  0
   37.0050   31.9800   39.6050 C   0  0  0  0  0  0  0  0  0  0  0  0
   36.9790   31.1720   40.8730 C   0  0  1  0  0  0  0  0  0  0  0  0
   38.7090   30.5180   39.7040 H   0  0  0  0  0  0  0  0  0  0  0  0
   37.7450   32.8160   39.6530 H   0  0  0  0  0  0  0  0  0  0  0  0
   36.0860   32.1820   39.0380 H   0  0  0  0  0  0  0  0  0  0  0  0
   37.5900   31.4800   41.7490 H   0  0  0  0  0  0  0  0  0  0  0  0
   35.6370   30.7890   41.2520 N   0  0  0  0  0  0  0  0  0  0  0  0
   34.9500   31.5290   41.0040 H   0  0  0  0  0  0  0  0  0  0  0  0
   35.5390   30.4270   42.2100 H   0  0  0  0  0  0  0  0  0  0  0  0
  1 11  1  0  0  0  0
  2 22  1  0  0  0  0
  2  1  2  0  0  0  0
  3  2  1  0  0  0  0
  4  3  2  0  0  0  0
  4  5  1  0  0  0  0
  5  6  2  0  0  0  0
  6  1  1  0  0  0  0
  6 10  1  0  0  0  0
  7  3  1  0  0  0  0
  8  4  1  0  0  0  0
  9  5  1  0  0  0  0
 11 13  2  0  0  0  0
 11 12  2  0  0  0  0
 11 14  1  0  0  0  0
 14 21  1  0  0  0  0
 14 15  2  0  0  0  0
 15 17  1  0  0  0  0
 16 15  1  0  0  0  0
 17 18  1  0  0  0  0
 19 17  2  0  0  0  0
 19 20  1  0  0  0  0
 21 19  1  0  0  0  0
 22 23  2  0  0  0  0
 24 22  1  0  0  0  0
 24 29  1  0  0  0  0
 25 24  2  0  0  0  0
 26 25  1  0  0  0  0
 26 27  2  0  0  0  0
 27 28  1  0  0  0  0
 28 29  2  0  0  0  0
 28 32  1  0  0  0  0
 30 25  1  0  0  0  0
 31 26  1  0  0  0  0
 32 35  1  6  0  0  0
 32 34  1  0  0  0  0
 33 36  1  0  0  0  0
 33 32  1  0  0  0  0
 33 34  1  0  0  0  0
 34 39  1  0  0  0  0
 34 38  1  1  0  0  0
 37 33  1  0  0  0  0
 39 41  1  0  0  0  0
 40 39  1  0  0  0  0
M  END
>  <minimizedAffinity>
-5.39067841

$$$$
