
 OpenBabel03242514233D

 33 36  0  0  0  0  0  0  0  0999 V2000
   44.8130   33.1220   41.1110 Cl  0  0  0  0  0  0  0  0  0  0  0  0
   46.3410   33.9570   40.9030 C   0  0  0  0  0  0  0  0  0  0  0  0
   46.8460   34.7200   41.9150 C   0  0  0  0  0  0  0  0  0  0  0  0
   48.0590   35.3890   41.7630 C   0  0  0  0  0  0  0  0  0  0  0  0
   48.7010   35.2400   40.5660 C   0  0  0  0  0  0  0  0  0  0  0  0
   48.1880   34.4680   39.5460 C   0  0  0  0  0  0  0  0  0  0  0  0
   47.0000   33.8200   39.7100 C   0  0  0  0  0  0  0  0  0  0  0  0
   48.4810   35.9970   42.5430 H   0  0  0  0  0  0  0  0  0  0  0  0
   49.6580   35.7160   40.3340 H   0  0  0  0  0  0  0  0  0  0  0  0
   48.6930   34.3440   38.5890 H   0  0  0  0  0  0  0  0  0  0  0  0
   45.6100   34.0390   45.3180 C   0  0  0  0  0  0  0  0  0  0  0  0
   44.7190   35.1010   45.5260 C   0  0  0  0  0  0  0  0  0  0  0  0
   44.5490   36.0330   44.5120 C   0  0  0  0  0  0  0  0  0  0  0  0
   45.2520   35.8710   43.3700 N   0  0  0  0  0  0  0  0  0  0  0  0
   46.1110   34.8420   43.1770 C   0  0  0  0  0  0  0  0  0  0  0  0
   46.2940   33.9180   44.1550 N   0  0  0  0  0  0  0  0  0  0  0  0
   45.7300   33.3170   46.1280 H   0  0  0  0  0  0  0  0  0  0  0  0
   44.1500   35.2590   46.4130 H   0  0  0  0  0  0  0  0  0  0  0  0
   43.9170   36.8910   44.5070 H   0  0  0  0  0  0  0  0  0  0  0  0
   46.4280   32.9950   38.6520 C   0  0  0  0  0  0  0  0  0  0  0  0
   45.4840   33.3400   37.7680 N   0  0  0  0  0  0  0  0  0  0  0  0
   45.2330   32.2950   36.9600 C   0  0  0  0  0  0  0  0  0  0  0  0
   46.0310   31.2720   37.3390 N   0  0  0  0  0  0  0  0  0  0  0  0
   46.7600   31.7120   38.3780 N   0  0  0  0  0  0  0  0  0  0  0  0
   44.5590   32.1670   36.1390 H   0  0  0  0  0  0  0  0  0  0  0  0
   46.2160   29.9380   36.8730 C   0  0  0  0  0  0  0  0  0  0  0  0
   47.1690   29.1580   37.5370 C   0  0  0  0  0  0  0  0  0  0  0  0
   47.8370   29.3400   38.3710 H   0  0  0  0  0  0  0  0  0  0  0  0
   47.1620   27.9150   36.9070 C   0  0  0  0  0  0  0  0  0  0  0  0
   47.7060   26.9830   37.0410 H   0  0  0  0  0  0  0  0  0  0  0  0
   46.2020   28.0200   35.8940 C   0  0  0  0  0  0  0  0  0  0  0  0
   45.8240   27.3390   35.1330 H   0  0  0  0  0  0  0  0  0  0  0  0
   45.6710   29.2300   35.9140 O   0  0  0  0  0  0  0  0  0  0  0  0
  2  1  1  0  0  0  0
  2  3  1  0  0  0  0
  3 15  1  0  0  0  0
  4  3  2  0  0  0  0
  4  8  1  0  0  0  0
  5  4  1  0  0  0  0
  6  7  1  0  0  0  0
  6  5  2  0  0  0  0
  7  2  2  0  0  0  0
  9  5  1  0  0  0  0
 10  6  1  0  0  0  0
 11 12  1  0  0  0  0
 11 17  1  0  0  0  0
 12 18  1  0  0  0  0
 13 12  2  0  0  0  0
 14 13  1  0  0  0  0
 15 14  2  0  0  0  0
 15 16  1  0  0  0  0
 16 11  2  0  0  0  0
 19 13  1  0  0  0  0
 20  7  1  0  0  0  0
 21 20  1  0  0  0  0
 22 23  1  0  0  0  0
 22 21  2  0  0  0  0
 23 24  1  0  0  0  0
 24 20  2  0  0  0  0
 25 22  1  0  0  0  0
 26 23  1  0  0  0  0
 26 27  2  0  0  0  0
 27 28  1  0  0  0  0
 29 30  1  0  0  0  0
 29 27  1  0  0  0  0
 31 33  1  0  0  0  0
 31 29  2  0  0  0  0
 32 31  1  0  0  0  0
 33 26  1  0  0  0  0
M  END
>  <minimizedAffinity>
-5.28012228

>  <minimizedRMSD>
0.178705275

$$$$
