
 OpenBabel03252503343D

 21 22  0  0  0  0  0  0  0  0999 V2000
   46.2730   34.0210   40.8170 C   0  0  0  0  0  0  0  0  0  0  0  0
   45.1730   33.4500   41.0410 O   0  0  0  0  0  0  0  0  0  0  0  0
   46.7870   34.7980   41.8880 N   0  0  0  0  0  0  0  0  0  0  0  0
   47.7170   35.2870   41.7540 H   0  0  0  0  0  0  0  0  0  0  0  0
   44.5120   36.0220   44.5840 C   0  0  0  0  0  0  0  0  0  0  0  0
   45.1790   35.9680   43.3460 C   0  0  0  0  0  0  0  0  0  0  0  0
   46.0730   34.9230   43.1150 C   0  0  0  0  0  0  0  0  0  0  0  0
   46.2700   33.9940   44.0910 N   0  0  0  0  0  0  0  0  0  0  0  0
   45.6000   34.0830   45.2850 C   0  0  0  0  0  0  0  0  0  0  0  0
   44.7410   35.0820   45.5130 N   0  0  0  0  0  0  0  0  0  0  0  0
   43.8420   36.8760   44.6530 H   0  0  0  0  0  0  0  0  0  0  0  0
   45.0270   36.7040   42.5640 H   0  0  0  0  0  0  0  0  0  0  0  0
   45.7820   33.3220   46.0450 H   0  0  0  0  0  0  0  0  0  0  0  0
   46.9620   33.8850   39.5370 C   0  0  0  0  0  0  0  0  0  0  0  0
   46.4900   33.0980   38.5090 C   0  0  0  0  0  0  0  0  0  0  0  0
   45.6180   32.4720   38.4000 H   0  0  0  0  0  0  0  0  0  0  0  0
   47.4320   33.2520   37.4950 C   0  0  0  0  0  0  0  0  0  0  0  0
   47.4980   32.8300   36.4900 H   0  0  0  0  0  0  0  0  0  0  0  0
   48.4200   34.1230   37.9680 C   0  0  0  0  0  0  0  0  0  0  0  0
   49.3350   34.5120   37.5050 H   0  0  0  0  0  0  0  0  0  0  0  0
   48.0690   34.4590   39.1990 O   0  0  0  0  0  0  0  0  0  0  0  0
  1  2  2  0  0  0  0
  1  3  1  0  0  0  0
  3  7  1  0  0  0  0
  4  3  1  0  0  0  0
  5 11  1  0  0  0  0
  5 10  1  0  0  0  0
  6  5  2  0  0  0  0
  7  6  1  0  0  0  0
  7  8  2  0  0  0  0
  8  9  1  0  0  0  0
  9 10  2  0  0  0  0
  9 13  1  0  0  0  0
 12  6  1  0  0  0  0
 14  1  1  0  0  0  0
 15 14  2  0  0  0  0
 16 15  1  0  0  0  0
 17 19  2  0  0  0  0
 17 15  1  0  0  0  0
 18 17  1  0  0  0  0
 19 21  1  0  0  0  0
 20 19  1  0  0  0  0
 21 14  1  0  0  0  0
M  END
>  <minimizedAffinity>
-4.1672945

>  <minimizedRMSD>
0.217477754

$$$$
