
 OpenBabel03252508503D

 27 29  0  0  0  0  0  0  0  0999 V2000
   45.9610   34.1840   41.0240 C   0  0  0  0  0  0  0  0  0  0  0  0
   46.5400   34.8070   42.1210 C   0  0  0  0  0  0  0  0  0  0  0  0
   47.8900   35.1800   41.9940 C   0  0  0  0  0  0  0  0  0  0  0  0
   48.5270   34.9080   40.8250 N   0  0  0  0  0  0  0  0  0  0  0  0
   47.9300   34.3090   39.8020 C   0  0  0  0  0  0  0  0  0  0  0  0
   46.6400   33.9420   39.8930 N   0  0  0  0  0  0  0  0  0  0  0  0
   48.3620   35.6610   42.8220 H   0  0  0  0  0  0  0  0  0  0  0  0
   48.4030   34.0760   38.8510 H   0  0  0  0  0  0  0  0  0  0  0  0
   45.7600   35.0460   43.3200 C   0  0  0  0  0  0  0  0  0  0  0  0
   45.0590   36.2110   43.5460 C   0  0  0  0  0  0  0  0  0  0  0  0
   44.4780   36.0150   44.7770 C   0  0  0  0  0  0  0  0  0  0  0  0
   44.8030   34.8040   45.2740 N   0  0  0  0  0  0  0  0  0  0  0  0
   45.5770   34.2390   44.3730 N   0  0  0  0  0  0  0  0  0  0  0  0
   44.9360   37.1130   42.9610 H   0  0  0  0  0  0  0  0  0  0  0  0
   43.8290   36.6620   45.3750 H   0  0  0  0  0  0  0  0  0  0  0  0
   44.5860   34.2730   46.1440 H   0  0  0  0  0  0  0  0  0  0  0  0
   44.6350   33.8050   41.1120 O   0  0  0  0  0  0  0  0  0  0  0  0
   43.5590   34.3930   40.5120 C   0  0  0  0  0  0  0  0  0  0  0  0
   43.1400   35.5950   40.6870 O   0  0  0  0  0  0  0  0  0  0  0  0
   42.6820   33.6880   39.5280 C   0  0  0  0  0  0  0  0  0  0  0  0
   42.9800   32.5490   38.7680 C   0  0  0  0  0  0  0  0  0  0  0  0
   43.9600   32.0560   38.8530 H   0  0  0  0  0  0  0  0  0  0  0  0
   41.9220   32.1850   37.9670 C   0  0  0  0  0  0  0  0  0  0  0  0
   41.8890   31.3460   37.2860 H   0  0  0  0  0  0  0  0  0  0  0  0
   40.9880   33.1480   38.2790 C   0  0  0  0  0  0  0  0  0  0  0  0
   39.9830   33.2020   37.8360 H   0  0  0  0  0  0  0  0  0  0  0  0
   41.4590   33.9630   39.1540 O   0  0  0  0  0  0  0  0  0  0  0  0
  1 17  1  0  0  0  0
  1  2  1  0  0  0  0
  2  9  1  0  0  0  0
  3  2  2  0  0  0  0
  3  7  1  0  0  0  0
  4  3  1  0  0  0  0
  5  6  1  0  0  0  0
  5  4  2  0  0  0  0
  6  1  2  0  0  0  0
  8  5  1  0  0  0  0
  9 10  1  0  0  0  0
  9 13  2  0  0  0  0
 10 11  2  0  0  0  0
 11 12  1  0  0  0  0
 11 15  1  0  0  0  0
 12 16  1  0  0  0  0
 13 12  1  0  0  0  0
 14 10  1  0  0  0  0
 18 19  2  0  0  0  0
 18 17  1  0  0  0  0
 20 18  1  0  0  0  0
 21 22  1  0  0  0  0
 21 20  2  0  0  0  0
 23 25  2  0  0  0  0
 23 21  1  0  0  0  0
 24 23  1  0  0  0  0
 25 27  1  0  0  0  0
 26 25  1  0  0  0  0
 27 20  1  0  0  0  0
M  END
>  <minimizedAffinity>
-5.0299058

>  <minimizedRMSD>
0.302463651

$$$$
