
 OpenBabel03252502503D

 33 35  0  0  0  0  0  0  0  0999 V2000
   44.6120   36.2060   43.9730 C   0  0  0  0  0  0  0  0  0  0  0  0
   44.8180   35.3910   45.1040 C   0  0  0  0  0  0  0  0  0  0  0  0
   45.5340   34.2070   44.9270 C   0  0  0  0  0  0  0  0  0  0  0  0
   45.9950   33.8960   43.6950 N   0  0  0  0  0  0  0  0  0  0  0  0
   45.7780   34.7070   42.6260 C   0  0  0  0  0  0  0  0  0  0  0  0
   45.0890   35.8600   42.7630 N   0  0  0  0  0  0  0  0  0  0  0  0
   44.0620   37.1330   44.0630 H   0  0  0  0  0  0  0  0  0  0  0  0
   44.4270   35.6880   46.0680 H   0  0  0  0  0  0  0  0  0  0  0  0
   48.5260   35.6850   42.0140 Cl  0  0  0  0  0  0  0  0  0  0  0  0
   47.5530   34.7080   40.9400 C   0  0  0  0  0  0  0  0  0  0  0  0
   46.3060   34.3100   41.3160 C   0  0  0  0  0  0  0  0  0  0  0  0
   45.4950   33.5220   40.4750 C   0  0  0  0  0  0  0  0  0  0  0  0
   46.0580   33.1870   39.2550 C   0  0  0  0  0  0  0  0  0  0  0  0
   47.3090   33.5880   38.8840 C   0  0  0  0  0  0  0  0  0  0  0  0
   48.0880   34.3570   39.7140 C   0  0  0  0  0  0  0  0  0  0  0  0
   44.5180   33.2010   40.7470 H   0  0  0  0  0  0  0  0  0  0  0  0
   45.5240   32.5790   38.5210 H   0  0  0  0  0  0  0  0  0  0  0  0
   47.7560   33.3290   37.9290 H   0  0  0  0  0  0  0  0  0  0  0  0
   49.0670   34.6860   39.4560 H   0  0  0  0  0  0  0  0  0  0  0  0
   45.7460   33.3510   46.1100 C   0  0  0  0  0  0  0  0  0  0  0  0
   46.3350   33.8440   46.8950 H   0  0  0  0  0  0  0  0  0  0  0  0
   44.7230   33.1610   46.5440 H   0  0  0  0  0  0  0  0  0  0  0  0
   46.2990   31.9780   45.7600 C   0  0  0  0  0  0  0  0  0  0  0  0
   45.5100   31.2340   45.6410 H   0  0  0  0  0  0  0  0  0  0  0  0
   46.9880   32.0810   44.8960 H   0  0  0  0  0  0  0  0  0  0  0  0
   47.1740   31.5810   46.9210 C   0  0  0  0  0  0  0  0  0  0  0  0
   47.4730   32.3810   48.0260 C   0  0  0  0  0  0  0  0  0  0  0  0
   47.1210   33.3990   48.2110 H   0  0  0  0  0  0  0  0  0  0  0  0
   48.3080   31.5890   48.8190 C   0  0  0  0  0  0  0  0  0  0  0  0
   48.7280   31.9180   49.7700 H   0  0  0  0  0  0  0  0  0  0  0  0
   48.4650   30.3850   48.1690 C   0  0  0  0  0  0  0  0  0  0  0  0
   49.0590   29.5410   48.5210 H   0  0  0  0  0  0  0  0  0  0  0  0
   47.7810   30.4140   47.0510 O   0  0  0  0  0  0  0  0  0  0  0  0
  1  7  1  0  0  0  0
  1  2  1  0  0  0  0
  2  8  1  0  0  0  0
  3  2  2  0  0  0  0
  3 20  1  0  0  0  0
  4  3  1  0  0  0  0
  5  6  1  0  0  0  0
  5  4  2  0  0  0  0
  6  1  2  0  0  0  0
 10 11  1  0  0  0  0
 10  9  1  0  0  0  0
 11  5  1  0  0  0  0
 12 16  1  0  0  0  0
 12 11  2  0  0  0  0
 13 12  1  0  0  0  0
 14 13  2  0  0  0  0
 14 15  1  0  0  0  0
 15 10  2  0  0  0  0
 17 13  1  0  0  0  0
 18 14  1  0  0  0  0
 19 15  1  0  0  0  0
 20 22  1  0  0  0  0
 20 21  1  0  0  0  0
 23 20  1  0  0  0  0
 23 26  1  0  0  0  0
 24 23  1  0  0  0  0
 25 23  1  0  0  0  0
 26 33  1  0  0  0  0
 26 27  2  0  0  0  0
 27 28  1  0  0  0  0
 27 29  1  0  0  0  0
 29 30  1  0  0  0  0
 31 32  1  0  0  0  0
 31 29  2  0  0  0  0
 33 31  1  0  0  0  0
M  END
>  <minimizedAffinity>
-5.60064793

>  <minimizedRMSD>
0.563359797

$$$$
