
     RDKit          3D

 27 29  0  0  0  0  0  0  0  0999 V2000
   45.5238   34.1472   44.4207 C   0  0  0  0  0  0  0  0  0  0  0  0
   46.4820   33.5925   43.5336 C   0  0  0  0  0  0  0  0  0  0  0  0
   47.3703   32.6628   44.0478 C   0  0  0  0  0  0  0  0  0  0  0  0
   47.2679   32.3383   45.3752 N   0  0  0  0  0  0  0  0  0  0  0  0
   46.3434   32.8891   46.1781 C   0  0  0  0  0  0  0  0  0  0  0  0
   45.4754   33.7932   45.6905 N   0  0  0  0  0  0  0  0  0  0  0  0
   46.4054   32.3963   47.5897 C   0  0  0  0  0  0  0  0  0  0  0  0
   45.3831   32.9008   48.3529 F   0  0  0  0  0  0  0  0  0  0  0  0
   47.6217   32.7610   48.1698 F   0  0  0  0  0  0  0  0  0  0  0  0
   46.3926   31.0033   47.5788 F   0  0  0  0  0  0  0  0  0  0  0  0
   44.6065   35.1513   43.8473 C   0  0  1  0  0  0  0  0  0  0  0  0
   44.8246   36.5899   44.3342 C   0  0  0  0  0  0  0  0  0  0  0  0
   45.0213   36.1912   42.9094 C   0  0  1  0  0  0  0  0  0  0  0  0
   46.5952   33.8112   42.4798 H   0  0  0  0  0  0  0  0  0  0  0  0
   48.1173   32.2109   43.4204 H   0  0  0  0  0  0  0  0  0  0  0  0
   43.5504   34.8000   43.8423 H   0  0  0  0  0  0  0  0  0  0  0  0
   45.6758   36.7464   45.0128 H   0  0  0  0  0  0  0  0  0  0  0  0
   43.8921   37.1007   44.6443 H   0  0  0  0  0  0  0  0  0  0  0  0
   44.2173   36.5810   42.2155 H   0  0  0  0  0  0  0  0  0  0  0  0
   46.4250   36.4202   42.4686 C   0  0  0  0  0  0  0  0  0  0  0  0
   47.4615   35.8588   43.1861 C   0  0  0  0  0  0  0  0  0  0  0  0
   47.4753   35.2274   44.0882 H   0  0  0  0  0  0  0  0  0  0  0  0
   48.6564   36.2160   42.5769 C   0  0  0  0  0  0  0  0  0  0  0  0
   49.6877   35.9849   42.8224 H   0  0  0  0  0  0  0  0  0  0  0  0
   48.2747   36.9819   41.5129 C   0  0  0  0  0  0  0  0  0  0  0  0
   48.9556   37.4369   40.8059 H   0  0  0  0  0  0  0  0  0  0  0  0
   46.9873   37.0746   41.4862 O   0  0  0  0  0  0  0  0  0  0  0  0
  1  6  2  0
  2  3  2  0
  2  1  1  0
  3  4  1  0
  4  5  2  0
  5  7  1  0
  6  5  1  0
  7  9  1  0
  7  8  1  0
 10  7  1  0
 11 12  1  0
 11  1  1  0
 13 11  1  0
 13 12  1  0
  2 14  1  0
  3 15  1  0
 11 16  1  6
 12 17  1  0
 12 18  1  0
 13 19  1  6
 20 21  2  0
 21 22  1  0
 21 23  1  0
 23 24  1  0
 23 25  2  0
 25 26  1  0
 25 27  1  0
 27 20  1  0
 13 20  1  0
M  ISO  8  14  14  15  14  16  13  17  13  18  13  19  13  22  16  24  16
M  ISO  1  26  14
M  END
>  <DihAtoms>  (1) 
10,12,19,20

>  <DihDeg>  (1) 
148.94235748580547

$$$$
