
 OpenBabel03242510303D

 33 35  0  0  1  0  0  0  0  0999 V2000
   36.4850   28.8760   41.2780 C   0  0  1  0  0  0  0  0  0  0  0  0
   36.6470   27.7160   42.2220 C   0  0  0  0  0  0  0  0  0  0  0  0
   37.2070   28.3130   43.5090 C   0  0  0  0  0  0  0  0  0  0  0  0
   38.6280   28.7290   43.1970 C   0  0  0  0  0  0  0  0  0  0  0  0
   38.7190   29.6960   42.0730 C   0  0  0  0  0  0  0  0  0  0  0  0
   37.8400   29.4340   40.9100 C   0  0  2  0  0  0  0  0  0  0  0  0
   35.9440   29.6790   41.8060 H   0  0  0  0  0  0  0  0  0  0  0  0
   37.4400   27.0360   41.8310 H   0  0  0  0  0  0  0  0  0  0  0  0
   35.6990   27.1860   42.3850 H   0  0  0  0  0  0  0  0  0  0  0  0
   36.6230   29.2310   43.7570 H   0  0  0  0  0  0  0  0  0  0  0  0
   37.1900   27.6110   44.3390 H   0  0  0  0  0  0  0  0  0  0  0  0
   39.0370   29.1890   44.1060 H   0  0  0  0  0  0  0  0  0  0  0  0
   39.1800   27.7760   43.0140 H   0  0  0  0  0  0  0  0  0  0  0  0
   38.4910   30.7160   42.4680 H   0  0  0  0  0  0  0  0  0  0  0  0
   39.7780   29.7480   41.7380 H   0  0  0  0  0  0  0  0  0  0  0  0
   38.3220   28.6740   40.2590 H   0  0  0  0  0  0  0  0  0  0  0  0
   33.9720   28.7720   38.4210 C   0  0  0  0  0  0  0  0  0  0  0  0
   34.6130   29.1640   39.5940 C   0  0  0  0  0  0  0  0  0  0  0  0
   35.7640   28.5090   40.0480 C   0  0  0  0  0  0  0  0  0  0  0  0
   36.2080   27.4810   39.2820 N   0  0  0  0  0  0  0  0  0  0  0  0
   35.5810   27.1050   38.1460 C   0  0  0  0  0  0  0  0  0  0  0  0
   34.4790   27.7300   37.7070 N   0  0  0  0  0  0  0  0  0  0  0  0
   33.0970   29.3570   38.1810 H   0  0  0  0  0  0  0  0  0  0  0  0
   34.2600   29.9740   40.1920 H   0  0  0  0  0  0  0  0  0  0  0  0
   35.9730   26.2680   37.5570 H   0  0  0  0  0  0  0  0  0  0  0  0
   37.6770   30.6980   40.1350 C   0  0  0  0  0  0  0  0  0  0  0  0
   37.1470   31.9460   40.4790 C   0  0  0  0  0  0  0  0  0  0  0  0
   36.7660   32.0710   41.4970 H   0  0  0  0  0  0  0  0  0  0  0  0
   37.2400   32.7700   39.3750 C   0  0  0  0  0  0  0  0  0  0  0  0
   36.8790   33.7870   39.4420 H   0  0  0  0  0  0  0  0  0  0  0  0
   37.8250   31.9900   38.3990 C   0  0  0  0  0  0  0  0  0  0  0  0
   38.0170   32.4000   37.4130 H   0  0  0  0  0  0  0  0  0  0  0  0
   38.0590   30.8040   38.8860 O   0  0  0  0  0  0  0  0  0  0  0  0
  1  7  1  1  0  0  0
  1  2  1  0  0  0  0
  2  9  1  0  0  0  0
  2  3  1  0  0  0  0
  3 10  1  0  0  0  0
  3 11  1  0  0  0  0
  4  3  1  0  0  0  0
  4 12  1  0  0  0  0
  5 14  1  0  0  0  0
  5  4  1  0  0  0  0
  6 16  1  6  0  0  0
  6  1  1  0  0  0  0
  6  5  1  0  0  0  0
  8  2  1  0  0  0  0
 13  4  1  0  0  0  0
 15  5  1  0  0  0  0
 17 18  1  0  0  0  0
 18 19  2  0  0  0  0
 18 24  1  0  0  0  0
 19  1  1  0  0  0  0
 20 19  1  0  0  0  0
 21 20  2  0  0  0  0
 22 21  1  0  0  0  0
 22 17  2  0  0  0  0
 23 17  1  0  0  0  0
 25 21  1  0  0  0  0
 26 27  2  0  0  0  0
 26  6  1  0  0  0  0
 27 28  1  0  0  0  0
 29 30  1  0  0  0  0
 29 27  1  0  0  0  0
 31 33  1  0  0  0  0
 31 29  2  0  0  0  0
 32 31  1  0  0  0  0
 33 26  1  0  0  0  0
M  END
>  <minimizedAffinity>
-4.94946146

$$$$

 OpenBabel03242510303D

 33 35  0  0  1  0  0  0  0  0999 V2000
   38.2890   29.1100   41.3740 C   0  0  1  0  0  0  0  0  0  0  0  0
   39.0620   29.1480   42.6640 C   0  0  0  0  0  0  0  0  0  0  0  0
   38.9690   27.7370   43.2360 C   0  0  0  0  0  0  0  0  0  0  0  0
   37.5320   27.5560   43.6780 C   0  0  0  0  0  0  0  0  0  0  0  0
   36.5540   27.7540   42.5780 C   0  0  0  0  0  0  0  0  0  0  0  0
   36.8220   28.8840   41.6590 C   0  0  2  0  0  0  0  0  0  0  0  0
   38.6360   28.2430   40.7880 H   0  0  0  0  0  0  0  0  0  0  0  0
   38.5290   29.8060   43.3900 H   0  0  0  0  0  0  0  0  0  0  0  0
   40.1010   29.4680   42.5100 H   0  0  0  0  0  0  0  0  0  0  0  0
   39.1740   27.0070   42.4170 H   0  0  0  0  0  0  0  0  0  0  0  0
   39.6460   27.5770   44.0710 H   0  0  0  0  0  0  0  0  0  0  0  0
   37.4400   26.5320   44.0660 H   0  0  0  0  0  0  0  0  0  0  0  0
   37.3960   28.2620   44.5320 H   0  0  0  0  0  0  0  0  0  0  0  0
   36.5050   26.8130   41.9780 H   0  0  0  0  0  0  0  0  0  0  0  0
   35.5410   27.8650   43.0230 H   0  0  0  0  0  0  0  0  0  0  0  0
   36.4480   29.8220   42.1230 H   0  0  0  0  0  0  0  0  0  0  0  0
   39.2010   31.5980   38.6420 C   0  0  0  0  0  0  0  0  0  0  0  0
   39.0850   30.3990   39.3430 C   0  0  0  0  0  0  0  0  0  0  0  0
   38.4430   30.3440   40.5860 C   0  0  0  0  0  0  0  0  0  0  0  0
   37.9500   31.5160   41.0570 N   0  0  0  0  0  0  0  0  0  0  0  0
   38.0670   32.6750   40.3720 C   0  0  0  0  0  0  0  0  0  0  0  0
   38.6790   32.7330   39.1810 N   0  0  0  0  0  0  0  0  0  0  0  0
   39.7170   31.5060   37.6970 H   0  0  0  0  0  0  0  0  0  0  0  0
   39.4750   29.4800   38.9670 H   0  0  0  0  0  0  0  0  0  0  0  0
   37.6530   33.6010   40.7880 H   0  0  0  0  0  0  0  0  0  0  0  0
   36.0860   28.6530   40.3830 C   0  0  0  0  0  0  0  0  0  0  0  0
   34.9770   29.2860   39.8120 C   0  0  0  0  0  0  0  0  0  0  0  0
   34.5250   30.1130   40.3680 H   0  0  0  0  0  0  0  0  0  0  0  0
   34.7040   28.6700   38.6070 C   0  0  0  0  0  0  0  0  0  0  0  0
   33.8740   29.0200   38.0090 H   0  0  0  0  0  0  0  0  0  0  0  0
   35.6610   27.6830   38.4890 C   0  0  0  0  0  0  0  0  0  0  0  0
   35.6770   27.0370   37.6180 H   0  0  0  0  0  0  0  0  0  0  0  0
   36.4350   27.7130   39.5380 O   0  0  0  0  0  0  0  0  0  0  0  0
  1  7  1  6  0  0  0
  1  6  1  0  0  0  0
  1  2  1  0  0  0  0
  2  3  1  0  0  0  0
  2  8  1  0  0  0  0
  3  4  1  0  0  0  0
  3 11  1  0  0  0  0
  4 12  1  0  0  0  0
  4 13  1  0  0  0  0
  5 15  1  0  0  0  0
  5  4  1  0  0  0  0
  6 16  1  1  0  0  0
  6  5  1  0  0  0  0
  9  2  1  0  0  0  0
 10  3  1  0  0  0  0
 14  5  1  0  0  0  0
 17 22  2  0  0  0  0
 17 18  1  0  0  0  0
 18 19  2  0  0  0  0
 19 20  1  0  0  0  0
 19  1  1  0  0  0  0
 21 25  1  0  0  0  0
 21 20  2  0  0  0  0
 22 21  1  0  0  0  0
 23 17  1  0  0  0  0
 24 18  1  0  0  0  0
 26  6  1  0  0  0  0
 27 28  1  0  0  0  0
 27 26  2  0  0  0  0
 29 27  1  0  0  0  0
 30 29  1  0  0  0  0
 31 29  2  0  0  0  0
 31 33  1  0  0  0  0
 32 31  1  0  0  0  0
 33 26  1  0  0  0  0
M  END
>  <minimizedAffinity>
-4.78628969

$$$$

 OpenBabel03242510303D

 33 35  0  0  1  0  0  0  0  0999 V2000
   38.0050   29.2370   41.3610 C   0  0  1  0  0  0  0  0  0  0  0  0
   38.6400   29.4480   42.7080 C   0  0  0  0  0  0  0  0  0  0  0  0
   38.6990   28.0670   43.3520 C   0  0  0  0  0  0  0  0  0  0  0  0
   37.2690   27.6930   43.6790 C   0  0  0  0  0  0  0  0  0  0  0  0
   36.3800   27.6930   42.4890 C   0  0  0  0  0  0  0  0  0  0  0  0
   36.5660   28.8070   41.5310 C   0  0  2  0  0  0  0  0  0  0  0  0
   38.5270   28.4050   40.8590 H   0  0  0  0  0  0  0  0  0  0  0  0
   37.9520   30.0520   43.3450 H   0  0  0  0  0  0  0  0  0  0  0  0
   39.6320   29.9130   42.6250 H   0  0  0  0  0  0  0  0  0  0  0  0
   39.0840   27.3390   42.5980 H   0  0  0  0  0  0  0  0  0  0  0  0
   39.3110   28.0480   44.2500 H   0  0  0  0  0  0  0  0  0  0  0  0
   37.2900   26.6870   44.1170 H   0  0  0  0  0  0  0  0  0  0  0  0
   36.9530   28.4090   44.4750 H   0  0  0  0  0  0  0  0  0  0  0  0
   36.5240   26.7280   41.9440 H   0  0  0  0  0  0  0  0  0  0  0  0
   35.3240   27.6710   42.8380 H   0  0  0  0  0  0  0  0  0  0  0  0
   36.0190   29.6980   41.9050 H   0  0  0  0  0  0  0  0  0  0  0  0
   37.3730   32.7020   39.9200 C   0  0  0  0  0  0  0  0  0  0  0  0
   37.2860   31.5890   40.7540 C   0  0  0  0  0  0  0  0  0  0  0  0
   38.0520   30.4420   40.5170 C   0  0  0  0  0  0  0  0  0  0  0  0
   38.8730   30.4830   39.4380 N   0  0  0  0  0  0  0  0  0  0  0  0
   38.9520   31.5650   38.6340 C   0  0  0  0  0  0  0  0  0  0  0  0
   38.2210   32.6670   38.8560 N   0  0  0  0  0  0  0  0  0  0  0  0
   36.7310   33.5210   40.2100 H   0  0  0  0  0  0  0  0  0  0  0  0
   36.6390   31.5630   41.6010 H   0  0  0  0  0  0  0  0  0  0  0  0
   39.6290   31.5570   37.7710 H   0  0  0  0  0  0  0  0  0  0  0  0
   35.9940   28.4100   40.2130 C   0  0  0  0  0  0  0  0  0  0  0  0
   36.3320   27.3940   39.3130 C   0  0  0  0  0  0  0  0  0  0  0  0
   37.1670   26.7400   39.5780 H   0  0  0  0  0  0  0  0  0  0  0  0
   35.4710   27.4720   38.2360 C   0  0  0  0  0  0  0  0  0  0  0  0
   35.5720   26.7640   37.4240 H   0  0  0  0  0  0  0  0  0  0  0  0
   34.6390   28.5340   38.5230 C   0  0  0  0  0  0  0  0  0  0  0  0
   33.8550   28.8180   37.8290 H   0  0  0  0  0  0  0  0  0  0  0  0
   34.9800   29.0420   39.6740 O   0  0  0  0  0  0  0  0  0  0  0  0
  1  7  1  6  0  0  0
  1  6  1  0  0  0  0
  1  2  1  0  0  0  0
  2  8  1  0  0  0  0
  2  3  1  0  0  0  0
  3  4  1  0  0  0  0
  3 11  1  0  0  0  0
  4 12  1  0  0  0  0
  4 13  1  0  0  0  0
  5 15  1  0  0  0  0
  5  4  1  0  0  0  0
  6 16  1  1  0  0  0
  6  5  1  0  0  0  0
  9  2  1  0  0  0  0
 10  3  1  0  0  0  0
 14  5  1  0  0  0  0
 17 23  1  0  0  0  0
 17 18  1  0  0  0  0
 18 24  1  0  0  0  0
 19 18  2  0  0  0  0
 19  1  1  0  0  0  0
 20 19  1  0  0  0  0
 21 22  1  0  0  0  0
 21 20  2  0  0  0  0
 22 17  2  0  0  0  0
 25 21  1  0  0  0  0
 26  6  1  0  0  0  0
 27 28  1  0  0  0  0
 27 26  2  0  0  0  0
 29 31  2  0  0  0  0
 29 27  1  0  0  0  0
 30 29  1  0  0  0  0
 31 33  1  0  0  0  0
 32 31  1  0  0  0  0
 33 26  1  0  0  0  0
M  END
>  <minimizedAffinity>
-4.74452877

$$$$

 OpenBabel03242510303D

 33 35  0  0  1  0  0  0  0  0999 V2000
   36.5960   26.1170   40.0720 C   0  0  1  0  0  0  0  0  0  0  0  0
   36.5060   24.9060   39.1840 C   0  0  0  0  0  0  0  0  0  0  0  0
   36.1720   23.7430   40.1130 C   0  0  0  0  0  0  0  0  0  0  0  0
   37.4140   23.4940   40.9400 C   0  0  0  0  0  0  0  0  0  0  0  0
   37.8500   24.6880   41.7100 C   0  0  0  0  0  0  0  0  0  0  0  0
   37.7810   25.9870   41.0010 C   0  0  2  0  0  0  0  0  0  0  0  0
   35.6960   26.1470   40.7080 H   0  0  0  0  0  0  0  0  0  0  0  0
   37.5160   24.6820   38.7670 H   0  0  0  0  0  0  0  0  0  0  0  0
   35.7570   25.0350   38.3910 H   0  0  0  0  0  0  0  0  0  0  0  0
   35.3540   24.0630   40.8020 H   0  0  0  0  0  0  0  0  0  0  0  0
   35.8880   22.8430   39.5730 H   0  0  0  0  0  0  0  0  0  0  0  0
   37.1810   22.6780   41.6370 H   0  0  0  0  0  0  0  0  0  0  0  0
   38.1800   23.1230   40.2170 H   0  0  0  0  0  0  0  0  0  0  0  0
   37.2290   24.7550   42.6360 H   0  0  0  0  0  0  0  0  0  0  0  0
   38.8870   24.5140   42.0720 H   0  0  0  0  0  0  0  0  0  0  0  0
   38.6860   26.0990   40.3670 H   0  0  0  0  0  0  0  0  0  0  0  0
   35.9230   29.5550   38.5850 C   0  0  0  0  0  0  0  0  0  0  0  0
   35.7550   28.3880   39.3280 C   0  0  0  0  0  0  0  0  0  0  0  0
   36.7160   27.3700   39.3100 C   0  0  0  0  0  0  0  0  0  0  0  0
   37.8050   27.5900   38.5310 N   0  0  0  0  0  0  0  0  0  0  0  0
   37.9600   28.7230   37.8130 C   0  0  0  0  0  0  0  0  0  0  0  0
   37.0440   29.7010   37.8270 N   0  0  0  0  0  0  0  0  0  0  0  0
   35.1110   30.2610   38.6850 H   0  0  0  0  0  0  0  0  0  0  0  0
   34.8970   28.2210   39.9390 H   0  0  0  0  0  0  0  0  0  0  0  0
   38.8570   28.8610   37.1950 H   0  0  0  0  0  0  0  0  0  0  0  0
   37.7600   27.0850   42.0090 C   0  0  0  0  0  0  0  0  0  0  0  0
   36.8690   27.3910   43.0430 C   0  0  0  0  0  0  0  0  0  0  0  0
   36.0070   26.7320   43.1800 H   0  0  0  0  0  0  0  0  0  0  0  0
   37.3260   28.5280   43.6800 C   0  0  0  0  0  0  0  0  0  0  0  0
   36.7670   28.9280   44.5150 H   0  0  0  0  0  0  0  0  0  0  0  0
   38.4810   28.8710   43.0080 C   0  0  0  0  0  0  0  0  0  0  0  0
   39.0520   29.7430   43.3100 H   0  0  0  0  0  0  0  0  0  0  0  0
   38.6900   28.0080   42.0530 O   0  0  0  0  0  0  0  0  0  0  0  0
  1  7  1  1  0  0  0
  1  6  1  0  0  0  0
  2  1  1  0  0  0  0
  2  3  1  0  0  0  0
  3 10  1  0  0  0  0
  3  4  1  0  0  0  0
  4 12  1  0  0  0  0
  4  5  1  0  0  0  0
  5 15  1  0  0  0  0
  5 14  1  0  0  0  0
  6 16  1  6  0  0  0
  6  5  1  0  0  0  0
  6 26  1  0  0  0  0
  8  2  1  0  0  0  0
  9  2  1  0  0  0  0
 11  3  1  0  0  0  0
 13  4  1  0  0  0  0
 17 23  1  0  0  0  0
 17 18  1  0  0  0  0
 18 24  1  0  0  0  0
 19 18  2  0  0  0  0
 19  1  1  0  0  0  0
 20 19  1  0  0  0  0
 21 22  1  0  0  0  0
 21 20  2  0  0  0  0
 22 17  2  0  0  0  0
 25 21  1  0  0  0  0
 26 33  1  0  0  0  0
 26 27  2  0  0  0  0
 27 28  1  0  0  0  0
 27 29  1  0  0  0  0
 29 30  1  0  0  0  0
 31 32  1  0  0  0  0
 31 29  2  0  0  0  0
 33 31  1  0  0  0  0
M  END
>  <minimizedAffinity>
-4.57364368

$$$$

 OpenBabel03242510303D

 33 35  0  0  1  0  0  0  0  0999 V2000
   36.8470   27.8080   39.6930 C   0  0  1  0  0  0  0  0  0  0  0  0
   36.1990   26.4940   39.3500 C   0  0  0  0  0  0  0  0  0  0  0  0
   35.9120   26.5600   37.8540 C   0  0  0  0  0  0  0  0  0  0  0  0
   34.7970   27.5690   37.6830 C   0  0  0  0  0  0  0  0  0  0  0  0
   35.1380   28.9110   38.2230 C   0  0  0  0  0  0  0  0  0  0  0  0
   35.8520   28.9330   39.5200 C   0  0  2  0  0  0  0  0  0  0  0  0
   37.6610   27.9910   38.9720 H   0  0  0  0  0  0  0  0  0  0  0  0
   35.2040   26.4360   39.8500 H   0  0  0  0  0  0  0  0  0  0  0  0
   36.8390   25.6410   39.6160 H   0  0  0  0  0  0  0  0  0  0  0  0
   36.8180   26.9520   37.3350 H   0  0  0  0  0  0  0  0  0  0  0  0
   35.6190   25.5970   37.4400 H   0  0  0  0  0  0  0  0  0  0  0  0
   34.5970   27.6510   36.6070 H   0  0  0  0  0  0  0  0  0  0  0  0
   33.9040   27.1050   38.1660 H   0  0  0  0  0  0  0  0  0  0  0  0
   35.7590   29.4460   37.4650 H   0  0  0  0  0  0  0  0  0  0  0  0
   34.2020   29.5070   38.3000 H   0  0  0  0  0  0  0  0  0  0  0  0
   35.1120   28.8210   40.3410 H   0  0  0  0  0  0  0  0  0  0  0  0
   37.1320   27.7900   43.4880 C   0  0  0  0  0  0  0  0  0  0  0  0
   36.5740   27.7570   42.2120 C   0  0  0  0  0  0  0  0  0  0  0  0
   37.3750   27.8380   41.0660 C   0  0  0  0  0  0  0  0  0  0  0  0
   38.7110   27.9490   41.2770 N   0  0  0  0  0  0  0  0  0  0  0  0
   39.2440   27.9810   42.5180 C   0  0  0  0  0  0  0  0  0  0  0  0
   38.4820   27.9030   43.6180 N   0  0  0  0  0  0  0  0  0  0  0  0
   36.4080   27.7200   44.2860 H   0  0  0  0  0  0  0  0  0  0  0  0
   35.5230   27.6690   42.0520 H   0  0  0  0  0  0  0  0  0  0  0  0
   40.3300   28.0720   42.6440 H   0  0  0  0  0  0  0  0  0  0  0  0
   36.5400   30.2470   39.6680 C   0  0  0  0  0  0  0  0  0  0  0  0
   36.4900   31.2240   40.6690 C   0  0  0  0  0  0  0  0  0  0  0  0
   35.8370   31.0360   41.5260 H   0  0  0  0  0  0  0  0  0  0  0  0
   37.3340   32.2540   40.3050 C   0  0  0  0  0  0  0  0  0  0  0  0
   37.4340   33.1120   40.9560 H   0  0  0  0  0  0  0  0  0  0  0  0
   37.8670   31.8650   39.0940 C   0  0  0  0  0  0  0  0  0  0  0  0
   38.5740   32.5040   38.5760 H   0  0  0  0  0  0  0  0  0  0  0  0
   37.3790   30.7000   38.7690 O   0  0  0  0  0  0  0  0  0  0  0  0
  1  7  1  6  0  0  0
  1 19  1  0  0  0  0
  2  9  1  0  0  0  0
  2  1  1  0  0  0  0
  2  8  1  0  0  0  0
  3  2  1  0  0  0  0
  4  3  1  0  0  0  0
  4 13  1  0  0  0  0
  4  5  1  0  0  0  0
  5 15  1  0  0  0  0
  5  6  1  0  0  0  0
  6 26  1  0  0  0  0
  6  1  1  0  0  0  0
  6 16  1  1  0  0  0
 10  3  1  0  0  0  0
 11  3  1  0  0  0  0
 12  4  1  0  0  0  0
 14  5  1  0  0  0  0
 17 22  1  0  0  0  0
 17 23  1  0  0  0  0
 18 17  2  0  0  0  0
 19 20  2  0  0  0  0
 19 18  1  0  0  0  0
 20 21  1  0  0  0  0
 21 25  1  0  0  0  0
 21 22  2  0  0  0  0
 24 18  1  0  0  0  0
 26 27  2  0  0  0  0
 27 28  1  0  0  0  0
 29 27  1  0  0  0  0
 29 30  1  0  0  0  0
 31 29  2  0  0  0  0
 32 31  1  0  0  0  0
 33 31  1  0  0  0  0
 33 26  1  0  0  0  0
M  END
>  <minimizedAffinity>
-4.55696774

$$$$

 OpenBabel03242510303D

 33 35  0  0  1  0  0  0  0  0999 V2000
   36.3130   29.6510   39.1910 C   0  0  1  0  0  0  0  0  0  0  0  0
   35.7380   29.5140   37.8070 C   0  0  0  0  0  0  0  0  0  0  0  0
   34.6780   28.4220   37.9140 C   0  0  0  0  0  0  0  0  0  0  0  0
   35.4280   27.1250   38.1250 C   0  0  0  0  0  0  0  0  0  0  0  0
   36.2990   27.1460   39.3290 C   0  0  0  0  0  0  0  0  0  0  0  0
   37.0620   28.3930   39.5650 C   0  0  2  0  0  0  0  0  0  0  0  0
   35.4770   29.7470   39.9040 H   0  0  0  0  0  0  0  0  0  0  0  0
   36.5230   29.1110   37.1240 H   0  0  0  0  0  0  0  0  0  0  0  0
   35.3250   30.4630   37.4400 H   0  0  0  0  0  0  0  0  0  0  0  0
   34.0570   28.6170   38.8210 H   0  0  0  0  0  0  0  0  0  0  0  0
   34.0510   28.3580   37.0270 H   0  0  0  0  0  0  0  0  0  0  0  0
   34.6780   26.3310   38.2340 H   0  0  0  0  0  0  0  0  0  0  0  0
   35.9830   26.9480   37.1730 H   0  0  0  0  0  0  0  0  0  0  0  0
   35.6640   26.9430   40.2250 H   0  0  0  0  0  0  0  0  0  0  0  0
   36.9990   26.2840   39.2720 H   0  0  0  0  0  0  0  0  0  0  0  0
   37.9780   28.3800   38.9360 H   0  0  0  0  0  0  0  0  0  0  0  0
   37.8900   32.9430   40.2700 C   0  0  0  0  0  0  0  0  0  0  0  0
   36.9990   31.8740   40.1950 C   0  0  0  0  0  0  0  0  0  0  0  0
   37.2160   30.8070   39.3160 C   0  0  0  0  0  0  0  0  0  0  0  0
   38.3350   30.8790   38.5530 N   0  0  0  0  0  0  0  0  0  0  0  0
   39.1950   31.9180   38.6300 C   0  0  0  0  0  0  0  0  0  0  0  0
   38.9920   32.9430   39.4710 N   0  0  0  0  0  0  0  0  0  0  0  0
   37.6090   33.7010   40.9860 H   0  0  0  0  0  0  0  0  0  0  0  0
   36.1210   31.8230   40.7980 H   0  0  0  0  0  0  0  0  0  0  0  0
   40.0880   31.9380   37.9940 H   0  0  0  0  0  0  0  0  0  0  0  0
   37.4640   28.4480   41.0000 C   0  0  0  0  0  0  0  0  0  0  0  0
   36.7290   28.3310   42.1840 C   0  0  0  0  0  0  0  0  0  0  0  0
   35.6510   28.1690   42.0960 H   0  0  0  0  0  0  0  0  0  0  0  0
   37.6030   28.4590   43.2450 C   0  0  0  0  0  0  0  0  0  0  0  0
   37.2220   28.3970   44.2560 H   0  0  0  0  0  0  0  0  0  0  0  0
   38.8400   28.6480   42.6650 C   0  0  0  0  0  0  0  0  0  0  0  0
   39.7210   28.7790   43.2840 H   0  0  0  0  0  0  0  0  0  0  0  0
   38.7090   28.6330   41.3680 O   0  0  0  0  0  0  0  0  0  0  0  0
  1 19  1  0  0  0  0
  1  6  1  0  0  0  0
  1  7  1  1  0  0  0
  2  3  1  0  0  0  0
  2  1  1  0  0  0  0
  3  4  1  0  0  0  0
  3 10  1  0  0  0  0
  4 12  1  0  0  0  0
  4  5  1  0  0  0  0
  5  6  1  0  0  0  0
  5 14  1  0  0  0  0
  6 16  1  6  0  0  0
  6 26  1  0  0  0  0
  8  2  1  0  0  0  0
  9  2  1  0  0  0  0
 11  3  1  0  0  0  0
 13  4  1  0  0  0  0
 15  5  1  0  0  0  0
 17 23  1  0  0  0  0
 18 17  1  0  0  0  0
 18 24  1  0  0  0  0
 19 18  2  0  0  0  0
 20 21  2  0  0  0  0
 20 19  1  0  0  0  0
 21 22  1  0  0  0  0
 22 17  2  0  0  0  0
 25 21  1  0  0  0  0
 26 33  1  0  0  0  0
 26 27  2  0  0  0  0
 27 29  1  0  0  0  0
 28 27  1  0  0  0  0
 29 30  1  0  0  0  0
 31 29  2  0  0  0  0
 31 32  1  0  0  0  0
 33 31  1  0  0  0  0
M  END
>  <minimizedAffinity>
-4.55063152

$$$$

 OpenBabel03242510303D

 33 35  0  0  1  0  0  0  0  0999 V2000
   36.9240   27.2100   41.2050 C   0  0  1  0  0  0  0  0  0  0  0  0
   37.0660   26.4810   42.5130 C   0  0  0  0  0  0  0  0  0  0  0  0
   36.5150   27.4310   43.5720 C   0  0  0  0  0  0  0  0  0  0  0  0
   37.5110   28.5660   43.6790 C   0  0  0  0  0  0  0  0  0  0  0  0
   37.7320   29.2700   42.3890 C   0  0  0  0  0  0  0  0  0  0  0  0
   37.8370   28.4150   41.1850 C   0  0  2  0  0  0  0  0  0  0  0  0
   35.8920   27.5930   41.1340 H   0  0  0  0  0  0  0  0  0  0  0  0
   38.1500   26.3600   42.7470 H   0  0  0  0  0  0  0  0  0  0  0  0
   36.5410   25.5160   42.5030 H   0  0  0  0  0  0  0  0  0  0  0  0
   35.5490   27.8500   43.2040 H   0  0  0  0  0  0  0  0  0  0  0  0
   36.3820   26.9500   44.5380 H   0  0  0  0  0  0  0  0  0  0  0  0
   37.1140   29.2750   44.4160 H   0  0  0  0  0  0  0  0  0  0  0  0
   38.4350   28.1070   44.1030 H   0  0  0  0  0  0  0  0  0  0  0  0
   36.8970   29.9960   42.2380 H   0  0  0  0  0  0  0  0  0  0  0  0
   38.6450   29.8970   42.4830 H   0  0  0  0  0  0  0  0  0  0  0  0
   38.8720   28.0170   41.1140 H   0  0  0  0  0  0  0  0  0  0  0  0
   36.6500   25.2610   37.9480 C   0  0  0  0  0  0  0  0  0  0  0  0
   36.3080   26.0780   39.0230 C   0  0  0  0  0  0  0  0  0  0  0  0
   37.2240   26.3560   40.0450 C   0  0  0  0  0  0  0  0  0  0  0  0
   38.4490   25.7860   39.9210 N   0  0  0  0  0  0  0  0  0  0  0  0
   38.7730   24.9940   38.8760 C   0  0  0  0  0  0  0  0  0  0  0  0
   37.9000   24.7250   37.8950 N   0  0  0  0  0  0  0  0  0  0  0  0
   35.8560   25.1250   37.2290 H   0  0  0  0  0  0  0  0  0  0  0  0
   35.3440   26.5240   39.1150 H   0  0  0  0  0  0  0  0  0  0  0  0
   39.7750   24.5520   38.8150 H   0  0  0  0  0  0  0  0  0  0  0  0
   37.5570   29.2450   39.9780 C   0  0  0  0  0  0  0  0  0  0  0  0
   36.4270   29.9670   39.5800 C   0  0  0  0  0  0  0  0  0  0  0  0
   35.5570   29.9520   40.2420 H   0  0  0  0  0  0  0  0  0  0  0  0
   36.7060   30.5620   38.3650 C   0  0  0  0  0  0  0  0  0  0  0  0
   35.9490   31.1690   37.8870 H   0  0  0  0  0  0  0  0  0  0  0  0
   37.9970   30.1780   38.0700 C   0  0  0  0  0  0  0  0  0  0  0  0
   38.4720   30.5130   37.1540 H   0  0  0  0  0  0  0  0  0  0  0  0
   38.4460   29.4200   39.0310 O   0  0  0  0  0  0  0  0  0  0  0  0
  1  7  1  6  0  0  0
  1  2  1  0  0  0  0
  2  8  1  0  0  0  0
  2  3  1  0  0  0  0
  3  4  1  0  0  0  0
  3 11  1  0  0  0  0
  4 13  1  0  0  0  0
  4 12  1  0  0  0  0
  5 15  1  0  0  0  0
  5  4  1  0  0  0  0
  6 16  1  6  0  0  0
  6  1  1  0  0  0  0
  6  5  1  0  0  0  0
  9  2  1  0  0  0  0
 10  3  1  0  0  0  0
 14  5  1  0  0  0  0
 17 18  1  0  0  0  0
 18 24  1  0  0  0  0
 18 19  2  0  0  0  0
 19  1  1  0  0  0  0
 20 19  1  0  0  0  0
 21 20  2  0  0  0  0
 22 17  2  0  0  0  0
 22 21  1  0  0  0  0
 23 17  1  0  0  0  0
 25 21  1  0  0  0  0
 26  6  1  0  0  0  0
 27 26  2  0  0  0  0
 27 28  1  0  0  0  0
 29 27  1  0  0  0  0
 30 29  1  0  0  0  0
 31 29  2  0  0  0  0
 31 33  1  0  0  0  0
 32 31  1  0  0  0  0
 33 26  1  0  0  0  0
M  END
>  <minimizedAffinity>
-4.49327087

$$$$

 OpenBabel03242510303D

 33 35  0  0  1  0  0  0  0  0999 V2000
   37.5600   29.2820   39.4150 C   0  0  1  0  0  0  0  0  0  0  0  0
   37.4100   30.1860   38.2210 C   0  0  0  0  0  0  0  0  0  0  0  0
   37.9450   31.5430   38.6680 C   0  0  0  0  0  0  0  0  0  0  0  0
   36.9410   32.0850   39.6620 C   0  0  0  0  0  0  0  0  0  0  0  0
   36.7270   31.1840   40.8240 C   0  0  0  0  0  0  0  0  0  0  0  0
   36.6400   29.7370   40.5250 C   0  0  2  0  0  0  0  0  0  0  0  0
   38.5910   29.3830   39.7970 H   0  0  0  0  0  0  0  0  0  0  0  0
   36.3240   30.3390   38.0150 H   0  0  0  0  0  0  0  0  0  0  0  0
   37.9420   29.7960   37.3430 H   0  0  0  0  0  0  0  0  0  0  0  0
   38.9120   31.3850   39.2020 H   0  0  0  0  0  0  0  0  0  0  0  0
   38.0720   32.2360   37.8400 H   0  0  0  0  0  0  0  0  0  0  0  0
   37.3260   33.0500   40.0170 H   0  0  0  0  0  0  0  0  0  0  0  0
   36.0150   32.2790   39.0700 H   0  0  0  0  0  0  0  0  0  0  0  0
   37.5590   31.3470   41.5520 H   0  0  0  0  0  0  0  0  0  0  0  0
   35.8090   31.5120   41.3600 H   0  0  0  0  0  0  0  0  0  0  0  0
   35.6080   29.5000   40.1870 H   0  0  0  0  0  0  0  0  0  0  0  0
   35.8580   26.0780   38.2660 C   0  0  0  0  0  0  0  0  0  0  0  0
   36.0700   27.4270   38.5460 C   0  0  0  0  0  0  0  0  0  0  0  0
   37.2760   27.8740   39.0980 C   0  0  0  0  0  0  0  0  0  0  0  0
   38.2110   26.9210   39.3410 N   0  0  0  0  0  0  0  0  0  0  0  0
   37.9990   25.6160   39.0680 C   0  0  0  0  0  0  0  0  0  0  0  0
   36.8460   25.1830   38.5380 N   0  0  0  0  0  0  0  0  0  0  0  0
   34.8870   25.8650   37.8430 H   0  0  0  0  0  0  0  0  0  0  0  0
   35.3310   28.1710   38.3520 H   0  0  0  0  0  0  0  0  0  0  0  0
   38.7820   24.8780   39.2800 H   0  0  0  0  0  0  0  0  0  0  0  0
   36.9260   28.9680   41.7700 C   0  0  0  0  0  0  0  0  0  0  0  0
   37.9570   29.0590   42.7110 C   0  0  0  0  0  0  0  0  0  0  0  0
   38.7250   29.8210   42.5480 H   0  0  0  0  0  0  0  0  0  0  0  0
   37.7390   28.1000   43.6790 C   0  0  0  0  0  0  0  0  0  0  0  0
   38.4360   28.0100   44.5020 H   0  0  0  0  0  0  0  0  0  0  0  0
   36.5810   27.4600   43.2900 C   0  0  0  0  0  0  0  0  0  0  0  0
   36.1770   26.6480   43.8860 H   0  0  0  0  0  0  0  0  0  0  0  0
   36.1490   27.9970   42.1840 O   0  0  0  0  0  0  0  0  0  0  0  0
  1  7  1  1  0  0  0
  1  6  1  0  0  0  0
  2  3  1  0  0  0  0
  2  1  1  0  0  0  0
  3 10  1  0  0  0  0
  3  4  1  0  0  0  0
  4 12  1  0  0  0  0
  4  5  1  0  0  0  0
  5 15  1  0  0  0  0
  5 14  1  0  0  0  0
  6 16  1  6  0  0  0
  6  5  1  0  0  0  0
  6 26  1  0  0  0  0
  8  2  1  0  0  0  0
  9  2  1  0  0  0  0
 11  3  1  0  0  0  0
 13  4  1  0  0  0  0
 17 22  2  0  0  0  0
 17 18  1  0  0  0  0
 18 19  2  0  0  0  0
 19 20  1  0  0  0  0
 19  1  1  0  0  0  0
 21 25  1  0  0  0  0
 21 20  2  0  0  0  0
 22 21  1  0  0  0  0
 23 17  1  0  0  0  0
 24 18  1  0  0  0  0
 26 33  1  0  0  0  0
 26 27  2  0  0  0  0
 27 29  1  0  0  0  0
 28 27  1  0  0  0  0
 29 30  1  0  0  0  0
 31 29  2  0  0  0  0
 31 32  1  0  0  0  0
 33 31  1  0  0  0  0
M  END
>  <minimizedAffinity>
-4.47187853

$$$$

 OpenBabel03242510303D

 33 35  0  0  1  0  0  0  0  0999 V2000
   35.8000   28.1840   40.1810 C   0  0  1  0  0  0  0  0  0  0  0  0
   35.1050   29.3970   39.6220 C   0  0  0  0  0  0  0  0  0  0  0  0
   34.0900   28.8590   38.6190 C   0  0  0  0  0  0  0  0  0  0  0  0
   34.8940   28.3300   37.4500 C   0  0  0  0  0  0  0  0  0  0  0  0
   35.8690   27.2800   37.8410 C   0  0  0  0  0  0  0  0  0  0  0  0
   36.6150   27.5140   39.0990 C   0  0  2  0  0  0  0  0  0  0  0  0
   35.0300   27.4590   40.4940 H   0  0  0  0  0  0  0  0  0  0  0  0
   35.8360   29.9940   39.0270 H   0  0  0  0  0  0  0  0  0  0  0  0
   34.6340   29.9980   40.4110 H   0  0  0  0  0  0  0  0  0  0  0  0
   33.5500   28.0010   39.0850 H   0  0  0  0  0  0  0  0  0  0  0  0
   33.3880   29.6190   38.2840 H   0  0  0  0  0  0  0  0  0  0  0  0
   34.1790   27.9110   36.7300 H   0  0  0  0  0  0  0  0  0  0  0  0
   35.3650   29.2290   36.9860 H   0  0  0  0  0  0  0  0  0  0  0  0
   35.3240   26.3090   37.9260 H   0  0  0  0  0  0  0  0  0  0  0  0
   36.5850   27.1350   37.0030 H   0  0  0  0  0  0  0  0  0  0  0  0
   37.4700   28.1920   38.8900 H   0  0  0  0  0  0  0  0  0  0  0  0
   37.4540   28.2350   43.6080 C   0  0  0  0  0  0  0  0  0  0  0  0
   36.5940   27.8870   42.5680 C   0  0  0  0  0  0  0  0  0  0  0  0
   36.6780   28.5080   41.3170 C   0  0  0  0  0  0  0  0  0  0  0  0
   37.6360   29.4590   41.1840 N   0  0  0  0  0  0  0  0  0  0  0  0
   38.4660   29.7920   42.1970 C   0  0  0  0  0  0  0  0  0  0  0  0
   38.3910   29.1990   43.3970 N   0  0  0  0  0  0  0  0  0  0  0  0
   37.2860   27.6830   44.5210 H   0  0  0  0  0  0  0  0  0  0  0  0
   35.8420   27.1380   42.6780 H   0  0  0  0  0  0  0  0  0  0  0  0
   39.2280   30.5670   42.0470 H   0  0  0  0  0  0  0  0  0  0  0  0
   37.1440   26.2110   39.5950 C   0  0  0  0  0  0  0  0  0  0  0  0
   36.5090   25.0200   39.9620 C   0  0  0  0  0  0  0  0  0  0  0  0
   35.4170   24.9860   39.8910 H   0  0  0  0  0  0  0  0  0  0  0  0
   37.4790   24.1190   40.3510 C   0  0  0  0  0  0  0  0  0  0  0  0
   37.1840   23.1290   40.6740 H   0  0  0  0  0  0  0  0  0  0  0  0
   38.6720   24.7970   40.2050 C   0  0  0  0  0  0  0  0  0  0  0  0
   39.6110   24.3110   40.4470 H   0  0  0  0  0  0  0  0  0  0  0  0
   38.4260   25.9990   39.7660 O   0  0  0  0  0  0  0  0  0  0  0  0
  1  7  1  1  0  0  0
  1 19  1  0  0  0  0
  2  1  1  0  0  0  0
  2  9  1  0  0  0  0
  3 10  1  0  0  0  0
  3  2  1  0  0  0  0
  4  5  1  0  0  0  0
  4  3  1  0  0  0  0
  5 14  1  0  0  0  0
  5  6  1  0  0  0  0
  6 16  1  6  0  0  0
  6 26  1  0  0  0  0
  6  1  1  0  0  0  0
  8  2  1  0  0  0  0
 11  3  1  0  0  0  0
 12  4  1  0  0  0  0
 13  4  1  0  0  0  0
 15  5  1  0  0  0  0
 17 23  1  0  0  0  0
 18 24  1  0  0  0  0
 18 17  2  0  0  0  0
 19 18  1  0  0  0  0
 20 19  2  0  0  0  0
 20 21  1  0  0  0  0
 21 22  2  0  0  0  0
 22 17  1  0  0  0  0
 25 21  1  0  0  0  0
 26 33  1  0  0  0  0
 26 27  2  0  0  0  0
 27 29  1  0  0  0  0
 28 27  1  0  0  0  0
 29 30  1  0  0  0  0
 31 29  2  0  0  0  0
 31 32  1  0  0  0  0
 33 31  1  0  0  0  0
M  END
>  <minimizedAffinity>
-4.41171837

$$$$
