
 OpenBabel03252500413D

 27 29  0  0  1  0  0  0  0  0999 V2000
   47.4280   34.5600   41.4550 C   0  0  1  0  0  0  0  0  0  0  0  0
   48.6140   35.3720   40.9620 C   0  0  0  0  0  0  0  0  0  0  0  0
   48.3330   33.9970   40.4090 C   0  0  2  0  0  0  0  0  0  0  0  0
   46.4860   34.9140   41.0170 H   0  0  0  0  0  0  0  0  0  0  0  0
   49.5030   35.4460   41.6380 H   0  0  0  0  0  0  0  0  0  0  0  0
   48.4550   36.2530   40.3100 H   0  0  0  0  0  0  0  0  0  0  0  0
   48.9700   33.1500   40.7030 H   0  0  0  0  0  0  0  0  0  0  0  0
   47.9200   33.9350   38.9850 C   0  0  0  0  0  0  0  0  0  0  0  0
   48.5650   34.5720   37.9260 C   0  0  0  0  0  0  0  0  0  0  0  0
   49.4290   35.1900   37.9280 H   0  0  0  0  0  0  0  0  0  0  0  0
   47.8370   34.2340   36.8050 C   0  0  0  0  0  0  0  0  0  0  0  0
   47.9580   34.4920   35.7620 H   0  0  0  0  0  0  0  0  0  0  0  0
   46.7900   33.4190   37.2040 C   0  0  0  0  0  0  0  0  0  0  0  0
   45.9670   32.9130   36.6940 H   0  0  0  0  0  0  0  0  0  0  0  0
   46.8980   33.2830   38.4980 O   0  0  0  0  0  0  0  0  0  0  0  0
   47.5490   33.9760   42.8210 C   0  0  0  0  0  0  0  0  0  0  0  0
   47.6290   32.8690   42.7600 H   0  0  0  0  0  0  0  0  0  0  0  0
   48.5120   34.2990   43.3160 H   0  0  0  0  0  0  0  0  0  0  0  0
   46.4750   34.4170   43.7330 C   0  0  0  0  0  0  0  0  0  0  0  0
   45.7400   35.4900   43.2740 C   0  0  0  0  0  0  0  0  0  0  0  0
   44.6980   36.0270   44.0350 C   0  0  0  0  0  0  0  0  0  0  0  0
   44.4730   35.4170   45.2370 N   0  0  0  0  0  0  0  0  0  0  0  0
   45.2050   34.3600   45.6730 C   0  0  0  0  0  0  0  0  0  0  0  0
   46.1980   33.8620   44.9300 N   0  0  0  0  0  0  0  0  0  0  0  0
   45.7320   36.1090   42.3890 H   0  0  0  0  0  0  0  0  0  0  0  0
   44.0180   36.8240   43.8940 H   0  0  0  0  0  0  0  0  0  0  0  0
   44.9920   33.9040   46.6370 H   0  0  0  0  0  0  0  0  0  0  0  0
  1  4  1  6  0  0  0
  1 16  1  0  0  0  0
  2  1  1  0  0  0  0
  2  5  1  0  0  0  0
  3  7  1  1  0  0  0
  3  2  1  0  0  0  0
  3  1  1  0  0  0  0
  6  2  1  0  0  0  0
  8  3  1  0  0  0  0
  9 10  1  0  0  0  0
  9  8  2  0  0  0  0
 11 13  2  0  0  0  0
 11  9  1  0  0  0  0
 12 11  1  0  0  0  0
 13 15  1  0  0  0  0
 14 13  1  0  0  0  0
 15  8  1  0  0  0  0
 16 18  1  0  0  0  0
 16 19  1  0  0  0  0
 17 16  1  0  0  0  0
 19 24  1  0  0  0  0
 20 19  2  0  0  0  0
 20 21  1  0  0  0  0
 21 22  2  0  0  0  0
 22 23  1  0  0  0  0
 23 27  1  0  0  0  0
 24 23  2  0  0  0  0
 25 20  1  0  0  0  0
 26 21  1  0  0  0  0
M  END
>  <minimizedAffinity>
-4.74783707

>  <minimizedRMSD>
1.44433367

$$$$
