
 OpenBabel03252500423D

 27 29  0  0  1  0  0  0  0  0999 V2000
   36.6600   28.5780   41.1450 C   0  0  1  0  0  0  0  0  0  0  0  0
   35.3360   28.8860   40.4670 C   0  0  0  0  0  0  0  0  0  0  0  0
   36.1310   29.9740   41.1450 C   0  0  2  0  0  0  0  0  0  0  0  0
   37.4700   28.4590   40.4140 H   0  0  0  0  0  0  0  0  0  0  0  0
   34.4010   28.5730   40.9970 H   0  0  0  0  0  0  0  0  0  0  0  0
   35.2620   28.8880   39.3620 H   0  0  0  0  0  0  0  0  0  0  0  0
   35.7910   30.3800   42.1080 H   0  0  0  0  0  0  0  0  0  0  0  0
   36.7060   31.0160   40.2570 C   0  0  0  0  0  0  0  0  0  0  0  0
   36.8300   30.9210   38.8720 C   0  0  0  0  0  0  0  0  0  0  0  0
   36.5530   30.1330   38.2150 H   0  0  0  0  0  0  0  0  0  0  0  0
   37.4110   32.1080   38.4810 C   0  0  0  0  0  0  0  0  0  0  0  0
   37.6970   32.4850   37.5080 H   0  0  0  0  0  0  0  0  0  0  0  0
   37.6220   32.8770   39.6140 C   0  0  0  0  0  0  0  0  0  0  0  0
   38.0430   33.8650   39.8100 H   0  0  0  0  0  0  0  0  0  0  0  0
   37.1840   32.1750   40.6250 O   0  0  0  0  0  0  0  0  0  0  0  0
   36.5840   27.8400   42.4380 C   0  0  0  0  0  0  0  0  0  0  0  0
   36.4290   28.5520   43.2780 H   0  0  0  0  0  0  0  0  0  0  0  0
   35.6760   27.1700   42.4690 H   0  0  0  0  0  0  0  0  0  0  0  0
   37.7370   26.9450   42.6600 C   0  0  0  0  0  0  0  0  0  0  0  0
   38.7600   27.5030   43.3980 C   0  0  0  0  0  0  0  0  0  0  0  0
   39.9230   26.7810   43.6780 C   0  0  0  0  0  0  0  0  0  0  0  0
   39.9620   25.5110   43.1750 N   0  0  0  0  0  0  0  0  0  0  0  0
   38.9450   24.9760   42.4520 C   0  0  0  0  0  0  0  0  0  0  0  0
   37.8410   25.6850   42.1950 N   0  0  0  0  0  0  0  0  0  0  0  0
   38.9440   28.4500   43.8850 H   0  0  0  0  0  0  0  0  0  0  0  0
   40.8130   26.9940   44.2070 H   0  0  0  0  0  0  0  0  0  0  0  0
   39.0170   23.9600   42.0700 H   0  0  0  0  0  0  0  0  0  0  0  0
  1  4  1  6  0  0  0
  1 16  1  0  0  0  0
  2  5  1  0  0  0  0
  2  3  1  0  0  0  0
  2  1  1  0  0  0  0
  3  1  1  0  0  0  0
  3  7  1  1  0  0  0
  6  2  1  0  0  0  0
  8 15  1  0  0  0  0
  8  3  1  0  0  0  0
  9  8  2  0  0  0  0
 10  9  1  0  0  0  0
 11  9  1  0  0  0  0
 11 13  2  0  0  0  0
 12 11  1  0  0  0  0
 13 14  1  0  0  0  0
 13 15  1  0  0  0  0
 16 18  1  0  0  0  0
 16 19  1  0  0  0  0
 16 17  1  0  0  0  0
 19 20  1  0  0  0  0
 20 21  2  0  0  0  0
 20 25  1  0  0  0  0
 21 26  1  0  0  0  0
 22 21  1  0  0  0  0
 23 22  2  0  0  0  0
 24 23  1  0  0  0  0
 24 19  2  0  0  0  0
 27 23  1  0  0  0  0
M  END
>  <minimizedAffinity>
-4.6858387

$$$$

 OpenBabel03252500423D

 27 29  0  0  1  0  0  0  0  0999 V2000
   36.9480   28.1280   42.3600 C   0  0  1  0  0  0  0  0  0  0  0  0
   36.4940   27.4540   43.6430 C   0  0  0  0  0  0  0  0  0  0  0  0
   37.1760   26.6650   42.5540 C   0  0  2  0  0  0  0  0  0  0  0  0
   37.8740   28.6980   42.5090 H   0  0  0  0  0  0  0  0  0  0  0  0
   35.3980   27.2600   43.7630 H   0  0  0  0  0  0  0  0  0  0  0  0
   37.0370   27.6350   44.5920 H   0  0  0  0  0  0  0  0  0  0  0  0
   36.5880   25.9810   41.9250 H   0  0  0  0  0  0  0  0  0  0  0  0
   38.5230   26.1310   42.8760 C   0  0  0  0  0  0  0  0  0  0  0  0
   39.4830   26.7730   43.6550 C   0  0  0  0  0  0  0  0  0  0  0  0
   39.4440   27.7150   44.1460 H   0  0  0  0  0  0  0  0  0  0  0  0
   40.5600   25.9130   43.6800 C   0  0  0  0  0  0  0  0  0  0  0  0
   41.5290   25.9830   44.1560 H   0  0  0  0  0  0  0  0  0  0  0  0
   40.2340   24.7950   42.9290 C   0  0  0  0  0  0  0  0  0  0  0  0
   40.7450   23.8680   42.6600 H   0  0  0  0  0  0  0  0  0  0  0  0
   39.0210   24.9880   42.4850 O   0  0  0  0  0  0  0  0  0  0  0  0
   35.8740   28.5110   41.3990 C   0  0  0  0  0  0  0  0  0  0  0  0
   35.4850   27.6090   40.8780 H   0  0  0  0  0  0  0  0  0  0  0  0
   34.9760   28.9300   41.9410 H   0  0  0  0  0  0  0  0  0  0  0  0
   36.2920   29.5700   40.4600 C   0  0  0  0  0  0  0  0  0  0  0  0
   36.5570   30.7880   41.0520 C   0  0  0  0  0  0  0  0  0  0  0  0
   36.9500   31.8900   40.2880 C   0  0  0  0  0  0  0  0  0  0  0  0
   37.0500   31.6680   38.9440 N   0  0  0  0  0  0  0  0  0  0  0  0
   36.7870   30.4620   38.3770 C   0  0  0  0  0  0  0  0  0  0  0  0
   36.4120   29.4210   39.1260 N   0  0  0  0  0  0  0  0  0  0  0  0
   36.5510   31.1840   42.0570 H   0  0  0  0  0  0  0  0  0  0  0  0
   37.1970   32.8920   40.5140 H   0  0  0  0  0  0  0  0  0  0  0  0
   36.8800   30.3280   37.3010 H   0  0  0  0  0  0  0  0  0  0  0  0
  1  4  1  1  0  0  0
  1  3  1  0  0  0  0
  1  2  1  0  0  0  0
  2  5  1  0  0  0  0
  2  6  1  0  0  0  0
  3  7  1  6  0  0  0
  3  8  1  0  0  0  0
  3  2  1  0  0  0  0
  8  9  2  0  0  0  0
  9 11  1  0  0  0  0
  9 10  1  0  0  0  0
 11 12  1  0  0  0  0
 13 11  2  0  0  0  0
 14 13  1  0  0  0  0
 15  8  1  0  0  0  0
 15 13  1  0  0  0  0
 16 18  1  0  0  0  0
 16  1  1  0  0  0  0
 17 16  1  0  0  0  0
 19 20  1  0  0  0  0
 19 16  1  0  0  0  0
 20 25  1  0  0  0  0
 21 26  1  0  0  0  0
 21 20  2  0  0  0  0
 22 21  1  0  0  0  0
 23 22  2  0  0  0  0
 23 24  1  0  0  0  0
 24 19  2  0  0  0  0
 27 23  1  0  0  0  0
M  END
>  <minimizedAffinity>
-4.68205929

$$$$

 OpenBabel03252500423D

 27 29  0  0  1  0  0  0  0  0999 V2000
   37.3700   28.5050   42.8200 C   0  0  1  0  0  0  0  0  0  0  0  0
   36.5730   27.5380   43.6780 C   0  0  0  0  0  0  0  0  0  0  0  0
   37.3920   27.0430   42.5130 C   0  0  2  0  0  0  0  0  0  0  0  0
   38.2950   28.8200   43.3190 H   0  0  0  0  0  0  0  0  0  0  0  0
   35.4640   27.5130   43.5310 H   0  0  0  0  0  0  0  0  0  0  0  0
   36.9080   27.2970   44.7070 H   0  0  0  0  0  0  0  0  0  0  0  0
   36.8890   26.7190   41.5900 H   0  0  0  0  0  0  0  0  0  0  0  0
   38.5690   26.2030   42.8470 C   0  0  0  0  0  0  0  0  0  0  0  0
   39.6380   26.5910   43.6520 C   0  0  0  0  0  0  0  0  0  0  0  0
   39.8130   27.5090   44.1560 H   0  0  0  0  0  0  0  0  0  0  0  0
   40.4820   25.5010   43.6800 C   0  0  0  0  0  0  0  0  0  0  0  0
   41.4310   25.3350   44.1720 H   0  0  0  0  0  0  0  0  0  0  0  0
   39.9150   24.5000   42.9060 C   0  0  0  0  0  0  0  0  0  0  0  0
   40.1990   23.4810   42.6320 H   0  0  0  0  0  0  0  0  0  0  0  0
   38.7910   24.9790   42.4460 O   0  0  0  0  0  0  0  0  0  0  0  0
   36.5850   29.3660   41.8920 C   0  0  0  0  0  0  0  0  0  0  0  0
   36.1140   28.7460   41.0980 H   0  0  0  0  0  0  0  0  0  0  0  0
   35.7120   29.8460   42.4250 H   0  0  0  0  0  0  0  0  0  0  0  0
   37.3710   30.4880   41.3420 C   0  0  0  0  0  0  0  0  0  0  0  0
   36.6900   31.2720   40.4340 C   0  0  0  0  0  0  0  0  0  0  0  0
   37.3090   32.3630   39.8180 C   0  0  0  0  0  0  0  0  0  0  0  0
   38.6070   32.5850   40.1810 N   0  0  0  0  0  0  0  0  0  0  0  0
   39.2620   31.8040   41.0790 C   0  0  0  0  0  0  0  0  0  0  0  0
   38.6520   30.7650   41.6550 N   0  0  0  0  0  0  0  0  0  0  0  0
   35.6960   31.2920   40.0110 H   0  0  0  0  0  0  0  0  0  0  0  0
   36.9970   33.0850   39.1110 H   0  0  0  0  0  0  0  0  0  0  0  0
   40.2970   32.0160   41.3400 H   0  0  0  0  0  0  0  0  0  0  0  0
  1  4  1  1  0  0  0
  1  2  1  0  0  0  0
  2  6  1  0  0  0  0
  3  7  1  6  0  0  0
  3  1  1  0  0  0  0
  3  8  1  0  0  0  0
  3  2  1  0  0  0  0
  5  2  1  0  0  0  0
  8  9  2  0  0  0  0
  9 11  1  0  0  0  0
  9 10  1  0  0  0  0
 11 12  1  0  0  0  0
 13 11  2  0  0  0  0
 14 13  1  0  0  0  0
 15  8  1  0  0  0  0
 15 13  1  0  0  0  0
 16 18  1  0  0  0  0
 16  1  1  0  0  0  0
 17 16  1  0  0  0  0
 19 24  1  0  0  0  0
 19 16  1  0  0  0  0
 20 19  2  0  0  0  0
 21 22  2  0  0  0  0
 21 20  1  0  0  0  0
 22 23  1  0  0  0  0
 23 27  1  0  0  0  0
 23 24  2  0  0  0  0
 25 20  1  0  0  0  0
 26 21  1  0  0  0  0
M  END
>  <minimizedAffinity>
-4.55356884

$$$$

 OpenBabel03252500423D

 27 29  0  0  1  0  0  0  0  0999 V2000
   39.3870   28.3960   42.3740 C   0  0  1  0  0  0  0  0  0  0  0  0
   40.2450   27.5400   43.2900 C   0  0  0  0  0  0  0  0  0  0  0  0
   38.7500   27.3480   43.2260 C   0  0  2  0  0  0  0  0  0  0  0  0
   39.4610   28.0690   41.3290 H   0  0  0  0  0  0  0  0  0  0  0  0
   40.6270   28.0140   44.2280 H   0  0  0  0  0  0  0  0  0  0  0  0
   40.9030   26.7560   42.8670 H   0  0  0  0  0  0  0  0  0  0  0  0
   38.1180   27.6940   44.0560 H   0  0  0  0  0  0  0  0  0  0  0  0
   38.2780   26.0650   42.6450 C   0  0  0  0  0  0  0  0  0  0  0  0
   36.9670   25.7810   42.2670 C   0  0  0  0  0  0  0  0  0  0  0  0
   36.0970   26.3890   42.3150 H   0  0  0  0  0  0  0  0  0  0  0  0
   37.0030   24.4890   41.7880 C   0  0  0  0  0  0  0  0  0  0  0  0
   36.2310   23.8470   41.3860 H   0  0  0  0  0  0  0  0  0  0  0  0
   38.3070   24.0310   41.8860 C   0  0  0  0  0  0  0  0  0  0  0  0
   38.8190   23.0980   41.6410 H   0  0  0  0  0  0  0  0  0  0  0  0
   39.0060   25.0080   42.3980 O   0  0  0  0  0  0  0  0  0  0  0  0
   39.1780   29.8100   42.7960 C   0  0  0  0  0  0  0  0  0  0  0  0
   38.7320   29.8460   43.8140 H   0  0  0  0  0  0  0  0  0  0  0  0
   40.1640   30.3510   42.9050 H   0  0  0  0  0  0  0  0  0  0  0  0
   38.4090   30.5980   41.8130 C   0  0  0  0  0  0  0  0  0  0  0  0
   37.1280   30.1350   41.5870 C   0  0  0  0  0  0  0  0  0  0  0  0
   36.2850   30.7710   40.6720 C   0  0  0  0  0  0  0  0  0  0  0  0
   36.8170   31.8580   40.0390 N   0  0  0  0  0  0  0  0  0  0  0  0
   38.0780   32.3010   40.2740 C   0  0  0  0  0  0  0  0  0  0  0  0
   38.8690   31.6790   41.1530 N   0  0  0  0  0  0  0  0  0  0  0  0
   36.5130   29.3300   41.9590 H   0  0  0  0  0  0  0  0  0  0  0  0
   35.2950   30.6010   40.3420 H   0  0  0  0  0  0  0  0  0  0  0  0
   38.4630   33.1730   39.7480 H   0  0  0  0  0  0  0  0  0  0  0  0
  1  4  1  6  0  0  0
  1 16  1  0  0  0  0
  1  3  1  0  0  0  0
  1  2  1  0  0  0  0
  2  5  1  0  0  0  0
  3  2  1  0  0  0  0
  3  7  1  1  0  0  0
  6  2  1  0  0  0  0
  8  3  1  0  0  0  0
  9 10  1  0  0  0  0
  9  8  2  0  0  0  0
 11 13  2  0  0  0  0
 11  9  1  0  0  0  0
 12 11  1  0  0  0  0
 13 15  1  0  0  0  0
 14 13  1  0  0  0  0
 15  8  1  0  0  0  0
 16 18  1  0  0  0  0
 16 17  1  0  0  0  0
 19 16  1  0  0  0  0
 20 19  1  0  0  0  0
 20 25  1  0  0  0  0
 21 20  2  0  0  0  0
 22 23  2  0  0  0  0
 22 21  1  0  0  0  0
 23 24  1  0  0  0  0
 24 19  2  0  0  0  0
 26 21  1  0  0  0  0
 27 23  1  0  0  0  0
M  END
>  <minimizedAffinity>
-4.35387468

$$$$

 OpenBabel03252500423D

 27 29  0  0  1  0  0  0  0  0999 V2000
   37.4640   26.2520   41.7550 C   0  0  1  0  0  0  0  0  0  0  0  0
   38.4130   25.2940   42.4550 C   0  0  0  0  0  0  0  0  0  0  0  0
   37.0210   24.8600   42.0670 C   0  0  2  0  0  0  0  0  0  0  0  0
   37.7120   26.3620   40.6920 H   0  0  0  0  0  0  0  0  0  0  0  0
   38.5810   25.4440   43.5500 H   0  0  0  0  0  0  0  0  0  0  0  0
   39.2770   24.8660   41.9090 H   0  0  0  0  0  0  0  0  0  0  0  0
   36.2500   24.7430   42.8410 H   0  0  0  0  0  0  0  0  0  0  0  0
   36.9290   23.8260   41.0060 C   0  0  0  0  0  0  0  0  0  0  0  0
   35.9090   23.7240   40.0610 C   0  0  0  0  0  0  0  0  0  0  0  0
   35.0480   24.3300   39.9200 H   0  0  0  0  0  0  0  0  0  0  0  0
   36.2390   22.6270   39.2930 C   0  0  0  0  0  0  0  0  0  0  0  0
   35.7490   22.1660   38.4460 H   0  0  0  0  0  0  0  0  0  0  0  0
   37.4250   22.1020   39.7820 C   0  0  0  0  0  0  0  0  0  0  0  0
   38.0650   21.2580   39.5140 H   0  0  0  0  0  0  0  0  0  0  0  0
   37.7760   22.8550   40.7890 O   0  0  0  0  0  0  0  0  0  0  0  0
   36.8830   27.3370   42.5960 C   0  0  0  0  0  0  0  0  0  0  0  0
   35.9470   26.9850   43.0840 H   0  0  0  0  0  0  0  0  0  0  0  0
   37.5670   27.5940   43.4560 H   0  0  0  0  0  0  0  0  0  0  0  0
   36.6940   28.6000   41.8560 C   0  0  0  0  0  0  0  0  0  0  0  0
   35.6920   28.5640   40.9080 C   0  0  0  0  0  0  0  0  0  0  0  0
   35.4060   29.6810   40.1200 C   0  0  0  0  0  0  0  0  0  0  0  0
   36.1770   30.7830   40.3600 N   0  0  0  0  0  0  0  0  0  0  0  0
   37.1580   30.8030   41.2980 C   0  0  0  0  0  0  0  0  0  0  0  0
   37.4160   29.7230   42.0410 N   0  0  0  0  0  0  0  0  0  0  0  0
   34.9760   27.8350   40.5590 H   0  0  0  0  0  0  0  0  0  0  0  0
   34.7060   29.8820   39.3530 H   0  0  0  0  0  0  0  0  0  0  0  0
   37.7490   31.7030   41.4570 H   0  0  0  0  0  0  0  0  0  0  0  0
  1  4  1  6  0  0  0
  1  3  1  0  0  0  0
  1  2  1  0  0  0  0
  1 16  1  0  0  0  0
  2  5  1  0  0  0  0
  3  2  1  0  0  0  0
  3  7  1  1  0  0  0
  6  2  1  0  0  0  0
  8  3  1  0  0  0  0
  9  8  2  0  0  0  0
 10  9  1  0  0  0  0
 11 13  2  0  0  0  0
 11  9  1  0  0  0  0
 12 11  1  0  0  0  0
 13 15  1  0  0  0  0
 14 13  1  0  0  0  0
 15  8  1  0  0  0  0
 16 17  1  0  0  0  0
 16 18  1  0  0  0  0
 19 24  1  0  0  0  0
 19 16  1  0  0  0  0
 20 19  2  0  0  0  0
 21 22  2  0  0  0  0
 21 20  1  0  0  0  0
 22 23  1  0  0  0  0
 23 27  1  0  0  0  0
 23 24  2  0  0  0  0
 25 20  1  0  0  0  0
 26 21  1  0  0  0  0
M  END
>  <minimizedAffinity>
-4.33487415

$$$$

 OpenBabel03252500423D

 27 29  0  0  1  0  0  0  0  0999 V2000
   36.1570   29.9310   40.1820 C   0  0  1  0  0  0  0  0  0  0  0  0
   34.9910   29.0290   39.8120 C   0  0  0  0  0  0  0  0  0  0  0  0
   36.3990   28.4910   39.8700 C   0  0  2  0  0  0  0  0  0  0  0  0
   36.1970   30.1170   41.2620 H   0  0  0  0  0  0  0  0  0  0  0  0
   34.5610   29.1390   38.7860 H   0  0  0  0  0  0  0  0  0  0  0  0
   34.2650   28.7100   40.5860 H   0  0  0  0  0  0  0  0  0  0  0  0
   36.9360   28.2640   38.9380 H   0  0  0  0  0  0  0  0  0  0  0  0
   36.6810   27.5070   40.9460 C   0  0  0  0  0  0  0  0  0  0  0  0
   36.7060   27.7850   42.3110 C   0  0  0  0  0  0  0  0  0  0  0  0
   36.5360   28.7000   42.8230 H   0  0  0  0  0  0  0  0  0  0  0  0
   37.0060   26.5840   42.9170 C   0  0  0  0  0  0  0  0  0  0  0  0
   37.1300   26.3110   43.9570 H   0  0  0  0  0  0  0  0  0  0  0  0
   37.1550   25.6280   41.9250 C   0  0  0  0  0  0  0  0  0  0  0  0
   37.3880   24.5610   41.9090 H   0  0  0  0  0  0  0  0  0  0  0  0
   36.9500   26.2380   40.7890 O   0  0  0  0  0  0  0  0  0  0  0  0
   36.5840   30.9150   39.1460 C   0  0  0  0  0  0  0  0  0  0  0  0
   37.0400   30.3870   38.2800 H   0  0  0  0  0  0  0  0  0  0  0  0
   35.6940   31.4540   38.7080 H   0  0  0  0  0  0  0  0  0  0  0  0
   37.4570   31.9760   39.6850 C   0  0  0  0  0  0  0  0  0  0  0  0
   38.4660   31.5220   40.5100 C   0  0  0  0  0  0  0  0  0  0  0  0
   39.3630   32.4130   41.1060 C   0  0  0  0  0  0  0  0  0  0  0  0
   39.1670   33.7320   40.8100 N   0  0  0  0  0  0  0  0  0  0  0  0
   38.1700   34.1610   39.9950 C   0  0  0  0  0  0  0  0  0  0  0  0
   37.3210   33.2930   39.4360 N   0  0  0  0  0  0  0  0  0  0  0  0
   38.8070   30.5630   40.8700 H   0  0  0  0  0  0  0  0  0  0  0  0
   40.1900   32.3010   41.7550 H   0  0  0  0  0  0  0  0  0  0  0  0
   38.0490   35.2220   39.7850 H   0  0  0  0  0  0  0  0  0  0  0  0
  1  4  1  1  0  0  0
  2  3  1  0  0  0  0
  2  1  1  0  0  0  0
  2  6  1  0  0  0  0
  3  7  1  6  0  0  0
  3  1  1  0  0  0  0
  3  8  1  0  0  0  0
  5  2  1  0  0  0  0
  8  9  2  0  0  0  0
  9 10  1  0  0  0  0
  9 11  1  0  0  0  0
 11 12  1  0  0  0  0
 13 11  2  0  0  0  0
 14 13  1  0  0  0  0
 15  8  1  0  0  0  0
 15 13  1  0  0  0  0
 16 19  1  0  0  0  0
 16  1  1  0  0  0  0
 17 16  1  0  0  0  0
 18 16  1  0  0  0  0
 19 20  1  0  0  0  0
 20 25  1  0  0  0  0
 20 21  2  0  0  0  0
 21 26  1  0  0  0  0
 22 21  1  0  0  0  0
 23 22  2  0  0  0  0
 24 19  2  0  0  0  0
 24 23  1  0  0  0  0
 27 23  1  0  0  0  0
M  END
>  <minimizedAffinity>
-4.29891682

$$$$

 OpenBabel03252500423D

 27 29  0  0  1  0  0  0  0  0999 V2000
   37.3970   28.8760   41.8170 C   0  0  1  0  0  0  0  0  0  0  0  0
   37.6030   28.7650   43.3180 C   0  0  0  0  0  0  0  0  0  0  0  0
   36.8430   27.7050   42.5600 C   0  0  2  0  0  0  0  0  0  0  0  0
   38.3050   28.6030   41.2640 H   0  0  0  0  0  0  0  0  0  0  0  0
   36.9810   29.4260   43.9730 H   0  0  0  0  0  0  0  0  0  0  0  0
   38.6010   28.5170   43.7280 H   0  0  0  0  0  0  0  0  0  0  0  0
   35.7500   27.6440   42.6540 H   0  0  0  0  0  0  0  0  0  0  0  0
   37.4850   26.3690   42.4820 C   0  0  0  0  0  0  0  0  0  0  0  0
   38.8110   26.0870   42.8070 C   0  0  0  0  0  0  0  0  0  0  0  0
   39.5790   26.7330   43.1560 H   0  0  0  0  0  0  0  0  0  0  0  0
   38.9570   24.7350   42.5820 C   0  0  0  0  0  0  0  0  0  0  0  0
   39.8040   24.0710   42.6950 H   0  0  0  0  0  0  0  0  0  0  0  0
   37.7410   24.2410   42.1340 C   0  0  0  0  0  0  0  0  0  0  0  0
   37.3700   23.2590   41.8330 H   0  0  0  0  0  0  0  0  0  0  0  0
   36.9200   25.2550   42.0980 O   0  0  0  0  0  0  0  0  0  0  0  0
   36.4120   29.8970   41.3590 C   0  0  0  0  0  0  0  0  0  0  0  0
   35.5500   29.9400   42.0600 H   0  0  0  0  0  0  0  0  0  0  0  0
   36.8560   30.9350   41.3970 H   0  0  0  0  0  0  0  0  0  0  0  0
   35.9920   29.7040   39.9570 C   0  0  0  0  0  0  0  0  0  0  0  0
   34.7440   29.1360   39.8070 C   0  0  0  0  0  0  0  0  0  0  0  0
   34.2170   28.8800   38.5380 C   0  0  0  0  0  0  0  0  0  0  0  0
   35.0170   29.2310   37.4880 N   0  0  0  0  0  0  0  0  0  0  0  0
   36.2430   29.7910   37.6530 C   0  0  0  0  0  0  0  0  0  0  0  0
   36.7290   30.0270   38.8750 N   0  0  0  0  0  0  0  0  0  0  0  0
   33.9590   28.7940   40.4650 H   0  0  0  0  0  0  0  0  0  0  0  0
   33.3110   28.4640   38.1870 H   0  0  0  0  0  0  0  0  0  0  0  0
   36.8480   30.0550   36.7880 H   0  0  0  0  0  0  0  0  0  0  0  0
  1  4  1  6  0  0  0
  1  3  1  0  0  0  0
  1  2  1  0  0  0  0
  2  6  1  0  0  0  0
  2  5  1  0  0  0  0
  3  7  1  1  0  0  0
  3  2  1  0  0  0  0
  8  3  1  0  0  0  0
  8  9  2  0  0  0  0
  9 10  1  0  0  0  0
 11 12  1  0  0  0  0
 11  9  1  0  0  0  0
 13 11  2  0  0  0  0
 14 13  1  0  0  0  0
 15 13  1  0  0  0  0
 15  8  1  0  0  0  0
 16 18  1  0  0  0  0
 16  1  1  0  0  0  0
 16 17  1  0  0  0  0
 19 16  1  0  0  0  0
 20 19  1  0  0  0  0
 20 25  1  0  0  0  0
 21 20  2  0  0  0  0
 22 23  2  0  0  0  0
 22 21  1  0  0  0  0
 23 24  1  0  0  0  0
 24 19  2  0  0  0  0
 26 21  1  0  0  0  0
 27 23  1  0  0  0  0
M  END
>  <minimizedAffinity>
-4.26248169

$$$$

 OpenBabel03252500423D

 27 29  0  0  1  0  0  0  0  0999 V2000
   37.6220   26.9590   42.8970 C   0  0  1  0  0  0  0  0  0  0  0  0
   38.1050   28.1740   43.6720 C   0  0  0  0  0  0  0  0  0  0  0  0
   38.1020   28.1690   42.1640 C   0  0  2  0  0  0  0  0  0  0  0  0
   36.5270   26.8970   42.8870 H   0  0  0  0  0  0  0  0  0  0  0  0
   39.1150   28.1100   44.1510 H   0  0  0  0  0  0  0  0  0  0  0  0
   37.3810   28.8200   44.2060 H   0  0  0  0  0  0  0  0  0  0  0  0
   39.0500   28.0770   41.6160 H   0  0  0  0  0  0  0  0  0  0  0  0
   37.1500   29.1000   41.5070 C   0  0  0  0  0  0  0  0  0  0  0  0
   36.0330   28.7240   40.7630 C   0  0  0  0  0  0  0  0  0  0  0  0
   35.6620   27.7560   40.5330 H   0  0  0  0  0  0  0  0  0  0  0  0
   35.4580   29.9090   40.3550 C   0  0  0  0  0  0  0  0  0  0  0  0
   34.5790   30.1170   39.7600 H   0  0  0  0  0  0  0  0  0  0  0  0
   36.2260   30.9520   40.8500 C   0  0  0  0  0  0  0  0  0  0  0  0
   36.1760   32.0410   40.7960 H   0  0  0  0  0  0  0  0  0  0  0  0
   37.2050   30.4050   41.5190 O   0  0  0  0  0  0  0  0  0  0  0  0
   38.5280   25.7770   42.8910 C   0  0  0  0  0  0  0  0  0  0  0  0
   39.5900   26.1060   42.8400 H   0  0  0  0  0  0  0  0  0  0  0  0
   38.4590   25.2070   43.8640 H   0  0  0  0  0  0  0  0  0  0  0  0
   38.1890   24.7960   41.8410 C   0  0  0  0  0  0  0  0  0  0  0  0
   36.8370   24.6530   41.6070 C   0  0  0  0  0  0  0  0  0  0  0  0
   36.3630   23.7510   40.6510 C   0  0  0  0  0  0  0  0  0  0  0  0
   37.3220   23.0440   39.9840 N   0  0  0  0  0  0  0  0  0  0  0  0
   38.6490   23.1980   40.2250 C   0  0  0  0  0  0  0  0  0  0  0  0
   39.0820   24.0650   41.1440 N   0  0  0  0  0  0  0  0  0  0  0  0
   35.9290   25.0920   41.9930 H   0  0  0  0  0  0  0  0  0  0  0  0
   35.4000   23.4780   40.3100 H   0  0  0  0  0  0  0  0  0  0  0  0
   39.3800   22.6140   39.6700 H   0  0  0  0  0  0  0  0  0  0  0  0
  1  4  1  6  0  0  0
  1  2  1  0  0  0  0
  2  5  1  0  0  0  0
  2  6  1  0  0  0  0
  3  7  1  6  0  0  0
  3  1  1  0  0  0  0
  3  2  1  0  0  0  0
  8 15  1  0  0  0  0
  8  3  1  0  0  0  0
  9  8  2  0  0  0  0
 10  9  1  0  0  0  0
 11  9  1  0  0  0  0
 11 13  2  0  0  0  0
 12 11  1  0  0  0  0
 13 15  1  0  0  0  0
 14 13  1  0  0  0  0
 16  1  1  0  0  0  0
 16 18  1  0  0  0  0
 17 16  1  0  0  0  0
 19 16  1  0  0  0  0
 20 19  1  0  0  0  0
 20 25  1  0  0  0  0
 21 20  2  0  0  0  0
 22 23  2  0  0  0  0
 22 21  1  0  0  0  0
 23 24  1  0  0  0  0
 24 19  2  0  0  0  0
 26 21  1  0  0  0  0
 27 23  1  0  0  0  0
M  END
>  <minimizedAffinity>
-4.22727537

$$$$

 OpenBabel03252500423D

 27 29  0  0  1  0  0  0  0  0999 V2000
   37.1650   26.4930   42.2540 C   0  0  1  0  0  0  0  0  0  0  0  0
   36.5170   27.3630   43.3180 C   0  0  0  0  0  0  0  0  0  0  0  0
   38.0070   27.1360   43.3060 C   0  0  2  0  0  0  0  0  0  0  0  0
   37.2510   27.0220   41.2970 H   0  0  0  0  0  0  0  0  0  0  0  0
   35.9580   26.8440   44.1370 H   0  0  0  0  0  0  0  0  0  0  0  0
   36.1270   28.3670   43.0570 H   0  0  0  0  0  0  0  0  0  0  0  0
   38.4650   26.4720   44.0540 H   0  0  0  0  0  0  0  0  0  0  0  0
   38.8490   28.3200   43.0020 C   0  0  0  0  0  0  0  0  0  0  0  0
   40.2150   28.2940   42.7260 C   0  0  0  0  0  0  0  0  0  0  0  0
   40.8850   27.4710   42.6800 H   0  0  0  0  0  0  0  0  0  0  0  0
   40.5630   29.6100   42.5080 C   0  0  0  0  0  0  0  0  0  0  0  0
   41.5090   30.0750   42.2630 H   0  0  0  0  0  0  0  0  0  0  0  0
   39.4240   30.3850   42.6550 C   0  0  0  0  0  0  0  0  0  0  0  0
   39.2010   31.4520   42.5830 H   0  0  0  0  0  0  0  0  0  0  0  0
   38.4510   29.5640   42.9450 O   0  0  0  0  0  0  0  0  0  0  0  0
   36.9500   25.0240   42.3820 C   0  0  0  0  0  0  0  0  0  0  0  0
   37.5460   24.6210   43.2300 H   0  0  0  0  0  0  0  0  0  0  0  0
   35.8800   24.7930   42.6570 H   0  0  0  0  0  0  0  0  0  0  0  0
   37.1940   24.2940   41.1220 C   0  0  0  0  0  0  0  0  0  0  0  0
   36.5490   24.8200   40.0220 C   0  0  0  0  0  0  0  0  0  0  0  0
   36.6750   24.2280   38.7630 C   0  0  0  0  0  0  0  0  0  0  0  0
   37.4680   23.1180   38.7110 N   0  0  0  0  0  0  0  0  0  0  0  0
   38.0970   22.6130   39.8030 C   0  0  0  0  0  0  0  0  0  0  0  0
   37.9640   23.1940   40.9990 N   0  0  0  0  0  0  0  0  0  0  0  0
   35.9000   25.6610   39.8270 H   0  0  0  0  0  0  0  0  0  0  0  0
   36.2860   24.4470   37.8040 H   0  0  0  0  0  0  0  0  0  0  0  0
   38.7210   21.7260   39.7180 H   0  0  0  0  0  0  0  0  0  0  0  0
  1  4  1  6  0  0  0
  1 16  1  0  0  0  0
  1  3  1  0  0  0  0
  1  2  1  0  0  0  0
  2  5  1  0  0  0  0
  3  2  1  0  0  0  0
  3  7  1  1  0  0  0
  6  2  1  0  0  0  0
  8  3  1  0  0  0  0
  9  8  2  0  0  0  0
 10  9  1  0  0  0  0
 11 13  2  0  0  0  0
 11  9  1  0  0  0  0
 12 11  1  0  0  0  0
 13 15  1  0  0  0  0
 14 13  1  0  0  0  0
 15  8  1  0  0  0  0
 16 18  1  0  0  0  0
 16 17  1  0  0  0  0
 19 16  1  0  0  0  0
 20 19  2  0  0  0  0
 21 20  1  0  0  0  0
 22 21  2  0  0  0  0
 22 23  1  0  0  0  0
 23 24  2  0  0  0  0
 24 19  1  0  0  0  0
 25 20  1  0  0  0  0
 26 21  1  0  0  0  0
 27 23  1  0  0  0  0
M  END
>  <minimizedAffinity>
-4.17943811

$$$$
