
 OpenBabel03252507263D

 26 28  0  0  0  0  0  0  0  0999 V2000
   45.7210   34.0290   45.5150 C   0  0  0  0  0  0  0  0  0  0  0  0
   44.7260   35.0000   45.7150 C   0  0  0  0  0  0  0  0  0  0  0  0
   44.4330   35.8590   44.6560 C   0  0  0  0  0  0  0  0  0  0  0  0
   45.1240   35.7190   43.4760 N   0  0  0  0  0  0  0  0  0  0  0  0
   46.0740   34.7650   43.3360 C   0  0  0  0  0  0  0  0  0  0  0  0
   46.3770   33.9230   44.3380 N   0  0  0  0  0  0  0  0  0  0  0  0
   44.2230   35.0480   46.6790 H   0  0  0  0  0  0  0  0  0  0  0  0
   43.6710   36.6160   44.7850 H   0  0  0  0  0  0  0  0  0  0  0  0
   46.7740   34.6570   42.0700 C   0  0  0  0  0  0  0  0  0  0  0  0
   47.9720   35.3340   41.8750 C   0  0  0  0  0  0  0  0  0  0  0  0
   48.7230   35.3070   40.7170 C   0  0  0  0  0  0  0  0  0  0  0  0
   48.1780   34.5200   39.7080 C   0  0  0  0  0  0  0  0  0  0  0  0
   46.9830   33.8380   39.8840 C   0  0  0  0  0  0  0  0  0  0  0  0
   46.3000   33.9160   41.0610 N   0  0  0  0  0  0  0  0  0  0  0  0
   48.3280   35.9240   42.7100 H   0  0  0  0  0  0  0  0  0  0  0  0
   49.6480   35.8600   40.6390 H   0  0  0  0  0  0  0  0  0  0  0  0
   48.7160   34.4530   38.7720 H   0  0  0  0  0  0  0  0  0  0  0  0
   46.6330   33.2480   39.0450 H   0  0  0  0  0  0  0  0  0  0  0  0
   46.0610   33.1070   46.5950 C   0  0  0  0  0  0  0  0  0  0  0  0
   45.2330   32.7800   47.6590 C   0  0  0  0  0  0  0  0  0  0  0  0
   44.2290   33.1320   47.8710 H   0  0  0  0  0  0  0  0  0  0  0  0
   45.9000   31.8820   48.4710 C   0  0  0  0  0  0  0  0  0  0  0  0
   45.6120   31.3910   49.3840 H   0  0  0  0  0  0  0  0  0  0  0  0
   47.1100   31.6970   47.8720 C   0  0  0  0  0  0  0  0  0  0  0  0
   47.9710   31.1070   48.1020 H   0  0  0  0  0  0  0  0  0  0  0  0
   47.1750   32.4150   46.7910 O   0  0  0  0  0  0  0  0  0  0  0  0
  1  2  1  0  0  0  0
  1 19  1  0  0  0  0
  2  7  1  0  0  0  0
  3  8  1  0  0  0  0
  3  2  2  0  0  0  0
  4  3  1  0  0  0  0
  5  4  2  0  0  0  0
  5  6  1  0  0  0  0
  6  1  2  0  0  0  0
  9  5  1  0  0  0  0
 10  9  1  0  0  0  0
 10 15  1  0  0  0  0
 11 10  2  0  0  0  0
 12 13  2  0  0  0  0
 12 11  1  0  0  0  0
 13 14  1  0  0  0  0
 14  9  2  0  0  0  0
 16 11  1  0  0  0  0
 17 12  1  0  0  0  0
 18 13  1  0  0  0  0
 19 26  1  0  0  0  0
 19 20  2  0  0  0  0
 20 21  1  0  0  0  0
 20 22  1  0  0  0  0
 22 23  1  0  0  0  0
 24 25  1  0  0  0  0
 24 22  2  0  0  0  0
 26 24  1  0  0  0  0
M  END
>  <minimizedAffinity>
-5.90955257

>  <minimizedRMSD>
0.382226467

$$$$
