
 OpenBabel03252504143D

 34 36  0  0  0  0  0  0  0  0999 V2000
   47.6440   30.0220   44.9290 F   0  0  0  0  0  0  0  0  0  0  0  0
   47.5110   30.8000   46.0520 C   0  0  0  0  0  0  0  0  0  0  0  0
   46.9380   32.0450   45.9500 C   0  0  0  0  0  0  0  0  0  0  0  0
   46.8440   32.7660   47.1410 C   0  0  0  0  0  0  0  0  0  0  0  0
   47.2980   32.2550   48.3340 C   0  0  0  0  0  0  0  0  0  0  0  0
   47.8640   30.9920   48.3550 C   0  0  0  0  0  0  0  0  0  0  0  0
   47.9880   30.2250   47.2120 C   0  0  0  0  0  0  0  0  0  0  0  0
   46.3960   33.7620   47.1130 H   0  0  0  0  0  0  0  0  0  0  0  0
   47.2240   32.8140   49.2500 H   0  0  0  0  0  0  0  0  0  0  0  0
   48.2300   30.5680   49.2820 H   0  0  0  0  0  0  0  0  0  0  0  0
   48.5830   28.8930   47.2260 C   0  0  0  0  0  0  0  0  0  0  0  0
   49.9240   28.6570   47.0050 C   0  0  0  0  0  0  0  0  0  0  0  0
   50.6680   29.3920   46.8030 H   0  0  0  0  0  0  0  0  0  0  0  0
   50.0140   27.2680   47.1160 C   0  0  0  0  0  0  0  0  0  0  0  0
   50.9410   26.7030   47.0000 H   0  0  0  0  0  0  0  0  0  0  0  0
   48.7590   26.7520   47.3910 C   0  0  0  0  0  0  0  0  0  0  0  0
   48.4760   25.7170   47.5370 H   0  0  0  0  0  0  0  0  0  0  0  0
   47.9490   27.7900   47.4420 O   0  0  0  0  0  0  0  0  0  0  0  0
   46.7700   34.1120   42.9650 C   0  0  0  0  0  0  0  0  0  0  0  0
   45.6330   33.6590   42.2930 C   0  0  0  0  0  0  0  0  0  0  0  0
   44.9150   32.6120   42.8990 C   0  0  0  0  0  0  0  0  0  0  0  0
   45.3440   32.0970   44.0800 N   0  0  0  0  0  0  0  0  0  0  0  0
   46.4570   32.5810   44.6820 C   0  0  0  0  0  0  0  0  0  0  0  0
   47.1680   33.5880   44.1260 N   0  0  0  0  0  0  0  0  0  0  0  0
   44.0300   32.2390   42.4020 H   0  0  0  0  0  0  0  0  0  0  0  0
   45.2340   34.2730   41.0120 C   0  0  0  0  0  0  0  0  0  0  0  0
   44.9190   35.5980   41.2060 F   0  0  0  0  0  0  0  0  0  0  0  0
   46.3330   34.2340   40.1620 F   0  0  0  0  0  0  0  0  0  0  0  0
   44.1930   33.6690   40.3950 F   0  0  0  0  0  0  0  0  0  0  0  0
   47.4630   35.1270   42.3770 O   0  0  0  0  0  0  0  0  0  0  0  0
   48.7840   35.0630   41.8750 C   0  0  0  0  0  0  0  0  0  0  0  0
   49.6280   35.3590   42.9500 F   0  0  0  0  0  0  0  0  0  0  0  0
   49.0290   33.8340   41.3230 F   0  0  0  0  0  0  0  0  0  0  0  0
   48.9940   36.0930   40.9850 F   0  0  0  0  0  0  0  0  0  0  0  0
  1  2  1  0  0  0  0
  2  7  1  0  0  0  0
  3  2  2  0  0  0  0
  3  4  1  0  0  0  0
  4  5  2  0  0  0  0
  5  6  1  0  0  0  0
  5  9  1  0  0  0  0
  6 10  1  0  0  0  0
  7 11  1  0  0  0  0
  7  6  2  0  0  0  0
  8  4  1  0  0  0  0
 11 18  1  0  0  0  0
 12 14  1  0  0  0  0
 12 11  2  0  0  0  0
 13 12  1  0  0  0  0
 14 16  2  0  0  0  0
 15 14  1  0  0  0  0
 16 18  1  0  0  0  0
 16 17  1  0  0  0  0
 19 24  1  0  0  0  0
 20 21  1  0  0  0  0
 20 19  2  0  0  0  0
 21 22  2  0  0  0  0
 22 23  1  0  0  0  0
 23  3  1  0  0  0  0
 24 23  2  0  0  0  0
 25 21  1  0  0  0  0
 26 27  1  0  0  0  0
 26 20  1  0  0  0  0
 28 26  1  0  0  0  0
 29 26  1  0  0  0  0
 30 19  1  0  0  0  0
 31 30  1  0  0  0  0
 31 32  1  0  0  0  0
 33 31  1  0  0  0  0
 34 31  1  0  0  0  0
M  END
>  <minimizedAffinity>
-5.52762079

>  <minimizedRMSD>
0.299117088

$$$$
