
 OpenBabel03242519593D

 27 29  0  0  0  0  0  0  0  0999 V2000
   39.0230   30.0800   41.7610 Br  0  0  0  0  0  0  0  0  0  0  0  0
   37.7960   30.0250   40.2890 C   0  0  0  0  0  0  0  0  0  0  0  0
   37.7880   30.9800   39.2870 C   0  0  0  0  0  0  0  0  0  0  0  0
   36.8680   30.8420   38.2830 C   0  0  0  0  0  0  0  0  0  0  0  0
   35.9590   29.8110   38.2200 C   0  0  0  0  0  0  0  0  0  0  0  0
   35.9580   28.8510   39.2160 C   0  0  0  0  0  0  0  0  0  0  0  0
   36.8920   28.9860   40.2410 C   0  0  0  0  0  0  0  0  0  0  0  0
   36.8770   31.5960   37.5110 H   0  0  0  0  0  0  0  0  0  0  0  0
   35.2420   29.7290   37.4110 H   0  0  0  0  0  0  0  0  0  0  0  0
   35.2790   28.0170   39.2360 H   0  0  0  0  0  0  0  0  0  0  0  0
   40.8970   33.0890   38.8200 C   0  0  0  0  0  0  0  0  0  0  0  0
   39.9740   32.0450   38.7110 C   0  0  0  0  0  0  0  0  0  0  0  0
   38.7680   32.0600   39.3880 C   0  0  0  0  0  0  0  0  0  0  0  0
   38.5460   33.1580   40.1660 N   0  0  0  0  0  0  0  0  0  0  0  0
   39.4360   34.1610   40.2690 C   0  0  0  0  0  0  0  0  0  0  0  0
   40.5990   34.1280   39.6050 N   0  0  0  0  0  0  0  0  0  0  0  0
   41.8340   33.0480   38.2770 H   0  0  0  0  0  0  0  0  0  0  0  0
   40.2070   31.2020   38.0780 H   0  0  0  0  0  0  0  0  0  0  0  0
   39.0810   34.9420   40.9320 H   0  0  0  0  0  0  0  0  0  0  0  0
   36.8990   27.9750   41.2990 C   0  0  0  0  0  0  0  0  0  0  0  0
   37.3840   26.6980   41.2370 C   0  0  0  0  0  0  0  0  0  0  0  0
   37.8480   26.2080   40.4010 H   0  0  0  0  0  0  0  0  0  0  0  0
   37.1820   26.1040   42.4570 C   0  0  0  0  0  0  0  0  0  0  0  0
   37.4080   25.1240   42.8400 H   0  0  0  0  0  0  0  0  0  0  0  0
   36.5750   27.0430   43.2370 C   0  0  0  0  0  0  0  0  0  0  0  0
   36.2090   27.0970   44.2510 H   0  0  0  0  0  0  0  0  0  0  0  0
   36.4320   28.1200   42.5100 O   0  0  0  0  0  0  0  0  0  0  0  0
  2  1  1  0  0  0  0
  3 13  1  0  0  0  0
  3  2  2  0  0  0  0
  4  3  1  0  0  0  0
  5  4  2  0  0  0  0
  5  6  1  0  0  0  0
  6 10  1  0  0  0  0
  6  7  2  0  0  0  0
  7  2  1  0  0  0  0
  7 20  1  0  0  0  0
  8  4  1  0  0  0  0
  9  5  1  0  0  0  0
 11 16  1  0  0  0  0
 12 11  2  0  0  0  0
 12 13  1  0  0  0  0
 13 14  2  0  0  0  0
 14 15  1  0  0  0  0
 15 19  1  0  0  0  0
 16 15  2  0  0  0  0
 17 11  1  0  0  0  0
 18 12  1  0  0  0  0
 20 27  1  0  0  0  0
 21 20  2  0  0  0  0
 21 23  1  0  0  0  0
 22 21  1  0  0  0  0
 23 24  1  0  0  0  0
 23 25  2  0  0  0  0
 25 26  1  0  0  0  0
 27 25  1  0  0  0  0
M  END
>  <minimizedAffinity>
-4.82959747

$$$$

 OpenBabel03242519593D

 27 29  0  0  0  0  0  0  0  0999 V2000
   38.2500   28.2600   39.1710 Br  0  0  0  0  0  0  0  0  0  0  0  0
   37.7660   28.1250   41.0220 C   0  0  0  0  0  0  0  0  0  0  0  0
   37.6790   29.2280   41.8540 C   0  0  0  0  0  0  0  0  0  0  0  0
   37.3240   29.0150   43.1590 C   0  0  0  0  0  0  0  0  0  0  0  0
   37.0510   27.7710   43.6790 C   0  0  0  0  0  0  0  0  0  0  0  0
   37.1350   26.6620   42.8580 C   0  0  0  0  0  0  0  0  0  0  0  0
   37.4960   26.8720   41.5270 C   0  0  0  0  0  0  0  0  0  0  0  0
   37.2630   29.8860   43.7920 H   0  0  0  0  0  0  0  0  0  0  0  0
   36.7720   27.6350   44.7180 H   0  0  0  0  0  0  0  0  0  0  0  0
   36.9370   25.6580   43.1910 H   0  0  0  0  0  0  0  0  0  0  0  0
   37.3230   32.5540   40.0800 C   0  0  0  0  0  0  0  0  0  0  0  0
   37.0190   31.3070   40.6370 C   0  0  0  0  0  0  0  0  0  0  0  0
   37.9760   30.5320   41.2650 C   0  0  0  0  0  0  0  0  0  0  0  0
   39.2310   31.0650   41.3010 N   0  0  0  0  0  0  0  0  0  0  0  0
   39.5210   32.2640   40.7650 C   0  0  0  0  0  0  0  0  0  0  0  0
   38.5800   33.0010   40.1610 N   0  0  0  0  0  0  0  0  0  0  0  0
   36.5510   33.1380   39.5940 H   0  0  0  0  0  0  0  0  0  0  0  0
   36.0050   30.9390   40.5760 H   0  0  0  0  0  0  0  0  0  0  0  0
   40.5680   32.5150   40.8940 H   0  0  0  0  0  0  0  0  0  0  0  0
   37.5860   25.7040   40.6500 C   0  0  0  0  0  0  0  0  0  0  0  0
   36.5750   25.0910   39.9620 C   0  0  0  0  0  0  0  0  0  0  0  0
   35.5350   25.3570   39.9420 H   0  0  0  0  0  0  0  0  0  0  0  0
   37.1100   24.0360   39.2670 C   0  0  0  0  0  0  0  0  0  0  0  0
   36.6810   23.3000   38.6100 H   0  0  0  0  0  0  0  0  0  0  0  0
   38.4440   24.0350   39.5530 C   0  0  0  0  0  0  0  0  0  0  0  0
   39.3000   23.4370   39.2780 H   0  0  0  0  0  0  0  0  0  0  0  0
   38.6690   25.0320   40.3670 O   0  0  0  0  0  0  0  0  0  0  0  0
  1  2  1  0  0  0  0
  2  7  2  0  0  0  0
  2  3  1  0  0  0  0
  3  4  2  0  0  0  0
  4  5  1  0  0  0  0
  4  8  1  0  0  0  0
  5  9  1  0  0  0  0
  6 10  1  0  0  0  0
  6  5  2  0  0  0  0
  7  6  1  0  0  0  0
 11 16  2  0  0  0  0
 11 12  1  0  0  0  0
 12 13  2  0  0  0  0
 13 14  1  0  0  0  0
 13  3  1  0  0  0  0
 15 19  1  0  0  0  0
 15 14  2  0  0  0  0
 16 15  1  0  0  0  0
 17 11  1  0  0  0  0
 18 12  1  0  0  0  0
 20  7  1  0  0  0  0
 21 20  2  0  0  0  0
 22 21  1  0  0  0  0
 23 25  2  0  0  0  0
 23 21  1  0  0  0  0
 24 23  1  0  0  0  0
 25 27  1  0  0  0  0
 26 25  1  0  0  0  0
 27 20  1  0  0  0  0
M  END
>  <minimizedAffinity>
-4.75436783

$$$$

 OpenBabel03242519593D

 27 29  0  0  0  0  0  0  0  0999 V2000
   37.9960   27.3110   39.1190 Br  0  0  0  0  0  0  0  0  0  0  0  0
   37.7240   27.7280   40.9700 C   0  0  0  0  0  0  0  0  0  0  0  0
   37.6740   29.0280   41.4440 C   0  0  0  0  0  0  0  0  0  0  0  0
   37.4760   29.2090   42.7860 C   0  0  0  0  0  0  0  0  0  0  0  0
   37.3240   28.1740   43.6800 C   0  0  0  0  0  0  0  0  0  0  0  0
   37.3730   26.8710   43.2180 C   0  0  0  0  0  0  0  0  0  0  0  0
   37.5750   26.6790   41.8520 C   0  0  0  0  0  0  0  0  0  0  0  0
   37.4400   30.2290   43.1360 H   0  0  0  0  0  0  0  0  0  0  0  0
   37.1680   28.3500   44.7380 H   0  0  0  0  0  0  0  0  0  0  0  0
   37.2630   26.0100   43.8540 H   0  0  0  0  0  0  0  0  0  0  0  0
   36.9500   31.7300   38.8940 C   0  0  0  0  0  0  0  0  0  0  0  0
   36.7710   30.7040   39.8270 C   0  0  0  0  0  0  0  0  0  0  0  0
   37.8390   30.1010   40.4650 C   0  0  0  0  0  0  0  0  0  0  0  0
   39.0720   30.5730   40.1210 N   0  0  0  0  0  0  0  0  0  0  0  0
   39.2410   31.5600   39.2230 C   0  0  0  0  0  0  0  0  0  0  0  0
   38.1930   32.1330   38.6160 N   0  0  0  0  0  0  0  0  0  0  0  0
   36.0930   32.1830   38.4090 H   0  0  0  0  0  0  0  0  0  0  0  0
   35.7690   30.3740   40.0570 H   0  0  0  0  0  0  0  0  0  0  0  0
   40.2900   31.7960   39.0850 H   0  0  0  0  0  0  0  0  0  0  0  0
   37.6270   25.3040   41.3540 C   0  0  0  0  0  0  0  0  0  0  0  0
   36.5780   24.4890   41.0290 C   0  0  0  0  0  0  0  0  0  0  0  0
   35.5290   24.7110   41.0820 H   0  0  0  0  0  0  0  0  0  0  0  0
   37.0870   23.2860   40.6070 C   0  0  0  0  0  0  0  0  0  0  0  0
   36.6260   22.3770   40.2640 H   0  0  0  0  0  0  0  0  0  0  0  0
   38.4440   23.4040   40.6860 C   0  0  0  0  0  0  0  0  0  0  0  0
   39.2940   22.7710   40.4800 H   0  0  0  0  0  0  0  0  0  0  0  0
   38.7070   24.6040   41.1290 O   0  0  0  0  0  0  0  0  0  0  0  0
  1  2  1  0  0  0  0
  2  3  2  0  0  0  0
  2  7  1  0  0  0  0
  3  4  1  0  0  0  0
  4  8  1  0  0  0  0
  4  5  2  0  0  0  0
  5  9  1  0  0  0  0
  6  5  1  0  0  0  0
  6 10  1  0  0  0  0
  7  6  2  0  0  0  0
 11 12  1  0  0  0  0
 12 18  1  0  0  0  0
 12 13  2  0  0  0  0
 13  3  1  0  0  0  0
 14 13  1  0  0  0  0
 15 14  2  0  0  0  0
 16 11  2  0  0  0  0
 16 15  1  0  0  0  0
 17 11  1  0  0  0  0
 19 15  1  0  0  0  0
 20  7  1  0  0  0  0
 21 22  1  0  0  0  0
 21 20  2  0  0  0  0
 23 25  2  0  0  0  0
 23 21  1  0  0  0  0
 24 23  1  0  0  0  0
 25 27  1  0  0  0  0
 26 25  1  0  0  0  0
 27 20  1  0  0  0  0
M  END
>  <minimizedAffinity>
-4.74971962

$$$$

 OpenBabel03242519593D

 27 29  0  0  0  0  0  0  0  0999 V2000
   36.5460   27.2600   39.4070 Br  0  0  0  0  0  0  0  0  0  0  0  0
   36.7720   29.1570   39.5630 C   0  0  0  0  0  0  0  0  0  0  0  0
   36.6460   30.0160   38.4850 C   0  0  0  0  0  0  0  0  0  0  0  0
   36.8280   31.3540   38.7120 C   0  0  0  0  0  0  0  0  0  0  0  0
   37.1270   31.8820   39.9470 C   0  0  0  0  0  0  0  0  0  0  0  0
   37.2560   31.0330   41.0310 C   0  0  0  0  0  0  0  0  0  0  0  0
   37.0710   29.6700   40.8070 C   0  0  0  0  0  0  0  0  0  0  0  0
   36.7260   32.0070   37.8600 H   0  0  0  0  0  0  0  0  0  0  0  0
   37.2660   32.9470   40.0940 H   0  0  0  0  0  0  0  0  0  0  0  0
   37.4880   31.3700   42.0260 H   0  0  0  0  0  0  0  0  0  0  0  0
   34.7490   28.5850   35.5380 C   0  0  0  0  0  0  0  0  0  0  0  0
   35.0320   29.1570   36.7820 C   0  0  0  0  0  0  0  0  0  0  0  0
   36.3280   29.4180   37.1900 C   0  0  0  0  0  0  0  0  0  0  0  0
   37.3030   29.0790   36.2990 N   0  0  0  0  0  0  0  0  0  0  0  0
   37.0270   28.5280   35.1030 C   0  0  0  0  0  0  0  0  0  0  0  0
   35.7660   28.2840   34.7250 N   0  0  0  0  0  0  0  0  0  0  0  0
   33.7230   28.3920   35.2470 H   0  0  0  0  0  0  0  0  0  0  0  0
   34.2160   29.4040   37.4440 H   0  0  0  0  0  0  0  0  0  0  0  0
   37.9310   28.3310   34.5380 H   0  0  0  0  0  0  0  0  0  0  0  0
   37.2050   28.7640   41.9480 C   0  0  0  0  0  0  0  0  0  0  0  0
   38.3460   28.4220   42.6190 C   0  0  0  0  0  0  0  0  0  0  0  0
   39.3490   28.7570   42.4290 H   0  0  0  0  0  0  0  0  0  0  0  0
   38.0070   27.5450   43.6190 C   0  0  0  0  0  0  0  0  0  0  0  0
   38.5830   27.0360   44.3720 H   0  0  0  0  0  0  0  0  0  0  0  0
   36.6570   27.3760   43.5290 C   0  0  0  0  0  0  0  0  0  0  0  0
   35.9050   26.8090   44.0580 H   0  0  0  0  0  0  0  0  0  0  0  0
   36.2370   28.1120   42.5340 O   0  0  0  0  0  0  0  0  0  0  0  0
  1  2  1  0  0  0  0
  2  7  1  0  0  0  0
  3  4  1  0  0  0  0
  3  2  2  0  0  0  0
  4  5  2  0  0  0  0
  5  9  1  0  0  0  0
  5  6  1  0  0  0  0
  6 10  1  0  0  0  0
  7  6  2  0  0  0  0
  7 20  1  0  0  0  0
  8  4  1  0  0  0  0
 11 12  1  0  0  0  0
 12 13  2  0  0  0  0
 12 18  1  0  0  0  0
 13  3  1  0  0  0  0
 14 13  1  0  0  0  0
 15 14  2  0  0  0  0
 16 15  1  0  0  0  0
 16 11  2  0  0  0  0
 17 11  1  0  0  0  0
 19 15  1  0  0  0  0
 20 27  1  0  0  0  0
 20 21  2  0  0  0  0
 21 23  1  0  0  0  0
 22 21  1  0  0  0  0
 23 24  1  0  0  0  0
 25 23  2  0  0  0  0
 25 26  1  0  0  0  0
 27 25  1  0  0  0  0
M  END
>  <minimizedAffinity>
-4.73229599

$$$$

 OpenBabel03242519593D

 27 29  0  0  0  0  0  0  0  0999 V2000
   40.6870   29.5830   40.6430 Br  0  0  0  0  0  0  0  0  0  0  0  0
   38.8690   30.1920   40.6100 C   0  0  0  0  0  0  0  0  0  0  0  0
   38.4710   31.3210   39.9140 C   0  0  0  0  0  0  0  0  0  0  0  0
   37.1470   31.6630   39.9600 C   0  0  0  0  0  0  0  0  0  0  0  0
   36.2000   30.9480   40.6560 C   0  0  0  0  0  0  0  0  0  0  0  0
   36.5860   29.8190   41.3550 C   0  0  0  0  0  0  0  0  0  0  0  0
   37.9330   29.4640   41.3120 C   0  0  0  0  0  0  0  0  0  0  0  0
   36.8560   32.5460   39.4120 H   0  0  0  0  0  0  0  0  0  0  0  0
   35.1570   31.2450   40.6730 H   0  0  0  0  0  0  0  0  0  0  0  0
   35.9050   29.2080   41.9220 H   0  0  0  0  0  0  0  0  0  0  0  0
   41.1120   33.8690   38.9850 C   0  0  0  0  0  0  0  0  0  0  0  0
   40.1240   33.1820   39.6970 C   0  0  0  0  0  0  0  0  0  0  0  0
   39.5050   32.0540   39.1870 C   0  0  0  0  0  0  0  0  0  0  0  0
   39.9230   31.6650   37.9490 N   0  0  0  0  0  0  0  0  0  0  0  0
   40.8730   32.3290   37.2660 C   0  0  0  0  0  0  0  0  0  0  0  0
   41.4620   33.4180   37.7770 N   0  0  0  0  0  0  0  0  0  0  0  0
   41.5790   34.7490   39.4110 H   0  0  0  0  0  0  0  0  0  0  0  0
   39.8370   33.5390   40.6740 H   0  0  0  0  0  0  0  0  0  0  0  0
   41.0680   31.8670   36.3050 H   0  0  0  0  0  0  0  0  0  0  0  0
   38.3510   28.2700   42.0480 C   0  0  0  0  0  0  0  0  0  0  0  0
   38.7230   28.1810   43.3610 C   0  0  0  0  0  0  0  0  0  0  0  0
   38.7760   28.9710   44.0870 H   0  0  0  0  0  0  0  0  0  0  0  0
   39.0360   26.8720   43.6280 C   0  0  0  0  0  0  0  0  0  0  0  0
   39.3700   26.3660   44.5180 H   0  0  0  0  0  0  0  0  0  0  0  0
   38.8440   26.1940   42.4610 C   0  0  0  0  0  0  0  0  0  0  0  0
   38.9410   25.1710   42.1280 H   0  0  0  0  0  0  0  0  0  0  0  0
   38.4430   27.0590   41.5680 O   0  0  0  0  0  0  0  0  0  0  0  0
  2  1  1  0  0  0  0
  2  7  1  0  0  0  0
  3  4  1  0  0  0  0
  3  2  2  0  0  0  0
  4  5  2  0  0  0  0
  5  9  1  0  0  0  0
  5  6  1  0  0  0  0
  6 10  1  0  0  0  0
  7  6  2  0  0  0  0
  7 20  1  0  0  0  0
  8  4  1  0  0  0  0
 11 17  1  0  0  0  0
 11 12  1  0  0  0  0
 12 18  1  0  0  0  0
 13 12  2  0  0  0  0
 13  3  1  0  0  0  0
 14 13  1  0  0  0  0
 15 16  1  0  0  0  0
 15 14  2  0  0  0  0
 16 11  2  0  0  0  0
 19 15  1  0  0  0  0
 20 21  2  0  0  0  0
 21 23  1  0  0  0  0
 21 22  1  0  0  0  0
 23 24  1  0  0  0  0
 25 23  2  0  0  0  0
 26 25  1  0  0  0  0
 27 20  1  0  0  0  0
 27 25  1  0  0  0  0
M  END
>  <minimizedAffinity>
-4.70750427

$$$$

 OpenBabel03242519593D

 27 29  0  0  0  0  0  0  0  0999 V2000
   37.9320   28.1080   39.0540 Br  0  0  0  0  0  0  0  0  0  0  0  0
   37.6320   27.8500   40.9300 C   0  0  0  0  0  0  0  0  0  0  0  0
   37.5100   26.5960   41.5020 C   0  0  0  0  0  0  0  0  0  0  0  0
   37.2970   26.5300   42.8530 C   0  0  0  0  0  0  0  0  0  0  0  0
   37.2000   27.6380   43.6630 C   0  0  0  0  0  0  0  0  0  0  0  0
   37.3200   28.8960   43.1020 C   0  0  0  0  0  0  0  0  0  0  0  0
   37.5370   28.9700   41.7270 C   0  0  0  0  0  0  0  0  0  0  0  0
   37.2040   25.5430   43.2800 H   0  0  0  0  0  0  0  0  0  0  0  0
   37.0310   27.5520   44.7300 H   0  0  0  0  0  0  0  0  0  0  0  0
   37.2550   29.8080   43.6690 H   0  0  0  0  0  0  0  0  0  0  0  0
   36.6450   23.7360   39.1770 C   0  0  0  0  0  0  0  0  0  0  0  0
   36.5190   24.8380   40.0280 C   0  0  0  0  0  0  0  0  0  0  0  0
   37.6190   25.4430   40.6100 C   0  0  0  0  0  0  0  0  0  0  0  0
   38.8260   24.8900   40.2980 N   0  0  0  0  0  0  0  0  0  0  0  0
   38.9440   23.8300   39.4800 C   0  0  0  0  0  0  0  0  0  0  0  0
   37.8670   23.2580   38.9240 N   0  0  0  0  0  0  0  0  0  0  0  0
   35.7650   23.2830   38.7360 H   0  0  0  0  0  0  0  0  0  0  0  0
   35.5350   25.2300   40.2370 H   0  0  0  0  0  0  0  0  0  0  0  0
   39.9800   23.5380   39.3540 H   0  0  0  0  0  0  0  0  0  0  0  0
   37.6660   30.2980   41.1250 C   0  0  0  0  0  0  0  0  0  0  0  0
   36.6660   31.1230   40.6890 C   0  0  0  0  0  0  0  0  0  0  0  0
   35.6080   30.9450   40.7120 H   0  0  0  0  0  0  0  0  0  0  0  0
   37.2410   32.2670   40.1950 C   0  0  0  0  0  0  0  0  0  0  0  0
   36.8330   33.1620   39.7610 H   0  0  0  0  0  0  0  0  0  0  0  0
   38.5870   32.1060   40.3450 C   0  0  0  0  0  0  0  0  0  0  0  0
   39.4710   32.6870   40.1280 H   0  0  0  0  0  0  0  0  0  0  0  0
   38.7820   30.9360   40.8940 O   0  0  0  0  0  0  0  0  0  0  0  0
  1  2  1  0  0  0  0
  2  3  2  0  0  0  0
  2  7  1  0  0  0  0
  3  4  1  0  0  0  0
  4  8  1  0  0  0  0
  4  5  2  0  0  0  0
  5  9  1  0  0  0  0
  6  5  1  0  0  0  0
  6 10  1  0  0  0  0
  7  6  2  0  0  0  0
 11 12  1  0  0  0  0
 12 18  1  0  0  0  0
 12 13  2  0  0  0  0
 13  3  1  0  0  0  0
 14 13  1  0  0  0  0
 15 14  2  0  0  0  0
 16 11  2  0  0  0  0
 16 15  1  0  0  0  0
 17 11  1  0  0  0  0
 19 15  1  0  0  0  0
 20  7  1  0  0  0  0
 21 22  1  0  0  0  0
 21 20  2  0  0  0  0
 23 25  2  0  0  0  0
 23 21  1  0  0  0  0
 24 23  1  0  0  0  0
 25 27  1  0  0  0  0
 26 25  1  0  0  0  0
 27 20  1  0  0  0  0
M  END
>  <minimizedAffinity>
-4.68892813

$$$$

 OpenBabel03242519593D

 27 29  0  0  0  0  0  0  0  0999 V2000
   38.6120   29.6530   39.7370 Br  0  0  0  0  0  0  0  0  0  0  0  0
   37.8980   28.8290   41.3140 C   0  0  0  0  0  0  0  0  0  0  0  0
   36.6910   28.1500   41.3220 C   0  0  0  0  0  0  0  0  0  0  0  0
   36.2770   27.6000   42.5050 C   0  0  0  0  0  0  0  0  0  0  0  0
   36.9950   27.6860   43.6760 C   0  0  0  0  0  0  0  0  0  0  0  0
   38.2010   28.3620   43.6800 C   0  0  0  0  0  0  0  0  0  0  0  0
   38.6290   28.9240   42.4780 C   0  0  0  0  0  0  0  0  0  0  0  0
   35.3340   27.0760   42.4910 H   0  0  0  0  0  0  0  0  0  0  0  0
   36.6400   27.2390   44.5980 H   0  0  0  0  0  0  0  0  0  0  0  0
   38.8180   28.4720   44.5540 H   0  0  0  0  0  0  0  0  0  0  0  0
   34.2980   28.9150   38.4900 C   0  0  0  0  0  0  0  0  0  0  0  0
   34.9870   28.9990   39.7030 C   0  0  0  0  0  0  0  0  0  0  0  0
   35.9570   28.0800   40.0590 C   0  0  0  0  0  0  0  0  0  0  0  0
   36.1900   27.0900   39.1500 N   0  0  0  0  0  0  0  0  0  0  0  0
   35.5240   27.0110   37.9840 C   0  0  0  0  0  0  0  0  0  0  0  0
   34.5890   27.9120   37.6560 N   0  0  0  0  0  0  0  0  0  0  0  0
   33.5430   29.6500   38.2380 H   0  0  0  0  0  0  0  0  0  0  0  0
   34.7580   29.8070   40.3810 H   0  0  0  0  0  0  0  0  0  0  0  0
   35.8490   26.1590   37.3980 H   0  0  0  0  0  0  0  0  0  0  0  0
   39.9050   29.6400   42.4720 C   0  0  0  0  0  0  0  0  0  0  0  0
   40.1290   30.9590   42.7550 C   0  0  0  0  0  0  0  0  0  0  0  0
   39.4080   31.7060   43.0330 H   0  0  0  0  0  0  0  0  0  0  0  0
   41.4730   31.2020   42.6260 C   0  0  0  0  0  0  0  0  0  0  0  0
   42.0720   32.0860   42.7540 H   0  0  0  0  0  0  0  0  0  0  0  0
   42.0360   30.0130   42.2650 C   0  0  0  0  0  0  0  0  0  0  0  0
   43.0320   29.6580   42.0430 H   0  0  0  0  0  0  0  0  0  0  0  0
   41.0750   29.1320   42.1890 O   0  0  0  0  0  0  0  0  0  0  0  0
  1  2  1  0  0  0  0
  2  3  2  0  0  0  0
  2  7  1  0  0  0  0
  3  4  1  0  0  0  0
  4  5  2  0  0  0  0
  5  6  1  0  0  0  0
  5  9  1  0  0  0  0
  6 10  1  0  0  0  0
  7  6  2  0  0  0  0
  8  4  1  0  0  0  0
 11 12  1  0  0  0  0
 12 13  2  0  0  0  0
 12 18  1  0  0  0  0
 13  3  1  0  0  0  0
 14 13  1  0  0  0  0
 15 14  2  0  0  0  0
 16 15  1  0  0  0  0
 16 11  2  0  0  0  0
 17 11  1  0  0  0  0
 19 15  1  0  0  0  0
 20  7  1  0  0  0  0
 20 21  2  0  0  0  0
 21 22  1  0  0  0  0
 23 24  1  0  0  0  0
 23 21  1  0  0  0  0
 25 23  2  0  0  0  0
 26 25  1  0  0  0  0
 27 25  1  0  0  0  0
 27 20  1  0  0  0  0
M  END
>  <minimizedAffinity>
-4.65165424

$$$$

 OpenBabel03242519593D

 27 29  0  0  0  0  0  0  0  0999 V2000
   37.6910   31.1370   37.1370 Br  0  0  0  0  0  0  0  0  0  0  0  0
   36.6900   30.3620   38.5770 C   0  0  0  0  0  0  0  0  0  0  0  0
   36.8290   30.7760   39.8910 C   0  0  0  0  0  0  0  0  0  0  0  0
   36.0640   30.1520   40.8390 C   0  0  0  0  0  0  0  0  0  0  0  0
   35.1720   29.1440   40.5540 C   0  0  0  0  0  0  0  0  0  0  0  0
   35.0250   28.7220   39.2460 C   0  0  0  0  0  0  0  0  0  0  0  0
   35.8010   29.3530   38.2750 C   0  0  0  0  0  0  0  0  0  0  0  0
   36.1860   30.4880   41.8570 H   0  0  0  0  0  0  0  0  0  0  0  0
   34.5790   28.6700   41.3290 H   0  0  0  0  0  0  0  0  0  0  0  0
   34.3490   27.9410   38.9450 H   0  0  0  0  0  0  0  0  0  0  0  0
   39.9930   32.6510   40.7890 C   0  0  0  0  0  0  0  0  0  0  0  0
   39.0920   31.6100   40.5430 C   0  0  0  0  0  0  0  0  0  0  0  0
   37.7860   31.8480   40.1540 C   0  0  0  0  0  0  0  0  0  0  0  0
   37.4420   33.1620   40.0310 N   0  0  0  0  0  0  0  0  0  0  0  0
   38.3100   34.1610   40.2690 C   0  0  0  0  0  0  0  0  0  0  0  0
   39.5710   33.9100   40.6440 N   0  0  0  0  0  0  0  0  0  0  0  0
   41.0100   32.4320   41.0930 H   0  0  0  0  0  0  0  0  0  0  0  0
   39.4260   30.5900   40.6570 H   0  0  0  0  0  0  0  0  0  0  0  0
   37.8510   35.1310   40.1180 H   0  0  0  0  0  0  0  0  0  0  0  0
   35.6520   28.9140   36.8870 C   0  0  0  0  0  0  0  0  0  0  0  0
   34.6510   29.2290   36.0100 C   0  0  0  0  0  0  0  0  0  0  0  0
   33.7960   29.8550   36.1820 H   0  0  0  0  0  0  0  0  0  0  0  0
   34.9120   28.5980   34.8200 C   0  0  0  0  0  0  0  0  0  0  0  0
   34.3940   28.5710   33.8770 H   0  0  0  0  0  0  0  0  0  0  0  0
   36.0750   27.9100   35.0060 C   0  0  0  0  0  0  0  0  0  0  0  0
   36.7040   27.2670   34.4090 H   0  0  0  0  0  0  0  0  0  0  0  0
   36.4660   28.1290   36.2330 O   0  0  0  0  0  0  0  0  0  0  0  0
  1  2  1  0  0  0  0
  2  3  1  0  0  0  0
  3 13  1  0  0  0  0
  3  4  2  0  0  0  0
  4  8  1  0  0  0  0
  5  4  1  0  0  0  0
  5  9  1  0  0  0  0
  6  5  2  0  0  0  0
  7  2  2  0  0  0  0
  7  6  1  0  0  0  0
 10  6  1  0  0  0  0
 11 17  1  0  0  0  0
 12 18  1  0  0  0  0
 12 11  2  0  0  0  0
 13 12  1  0  0  0  0
 14 13  2  0  0  0  0
 14 15  1  0  0  0  0
 15 16  2  0  0  0  0
 16 11  1  0  0  0  0
 19 15  1  0  0  0  0
 20  7  1  0  0  0  0
 21 22  1  0  0  0  0
 21 20  2  0  0  0  0
 23 25  2  0  0  0  0
 23 21  1  0  0  0  0
 24 23  1  0  0  0  0
 25 27  1  0  0  0  0
 26 25  1  0  0  0  0
 27 20  1  0  0  0  0
M  END
>  <minimizedAffinity>
-4.6275506

$$$$

 OpenBabel03242519593D

 27 29  0  0  0  0  0  0  0  0999 V2000
   36.1880   26.0900   38.5380 Br  0  0  0  0  0  0  0  0  0  0  0  0
   36.2420   27.6420   39.6620 C   0  0  0  0  0  0  0  0  0  0  0  0
   35.6740   28.8500   39.2960 C   0  0  0  0  0  0  0  0  0  0  0  0
   35.7720   29.8930   40.1780 C   0  0  0  0  0  0  0  0  0  0  0  0
   36.4000   29.8000   41.3990 C   0  0  0  0  0  0  0  0  0  0  0  0
   36.9710   28.5990   41.7740 C   0  0  0  0  0  0  0  0  0  0  0  0
   36.8750   27.5320   40.8810 C   0  0  0  0  0  0  0  0  0  0  0  0
   35.3240   30.8260   39.8750 H   0  0  0  0  0  0  0  0  0  0  0  0
   36.4610   30.6450   42.0750 H   0  0  0  0  0  0  0  0  0  0  0  0
   37.4790   28.4480   42.7110 H   0  0  0  0  0  0  0  0  0  0  0  0
   33.0380   28.8340   36.5800 C   0  0  0  0  0  0  0  0  0  0  0  0
   33.6480   28.7730   37.8360 C   0  0  0  0  0  0  0  0  0  0  0  0
   35.0160   28.9090   37.9930 C   0  0  0  0  0  0  0  0  0  0  0  0
   35.7220   29.1040   36.8420 N   0  0  0  0  0  0  0  0  0  0  0  0
   35.1320   29.1620   35.6350 C   0  0  0  0  0  0  0  0  0  0  0  0
   33.8050   29.0280   35.5030 N   0  0  0  0  0  0  0  0  0  0  0  0
   31.9640   28.7230   36.4890 H   0  0  0  0  0  0  0  0  0  0  0  0
   33.0350   28.6170   38.7110 H   0  0  0  0  0  0  0  0  0  0  0  0
   35.8560   29.3220   34.8450 H   0  0  0  0  0  0  0  0  0  0  0  0
   37.4760   26.2560   41.2710 C   0  0  0  0  0  0  0  0  0  0  0  0
   36.9410   25.2870   42.0740 C   0  0  0  0  0  0  0  0  0  0  0  0
   35.9840   25.2880   42.5620 H   0  0  0  0  0  0  0  0  0  0  0  0
   37.8490   24.2630   42.1700 C   0  0  0  0  0  0  0  0  0  0  0  0
   37.8370   23.3210   42.6900 H   0  0  0  0  0  0  0  0  0  0  0  0
   38.9210   24.6390   41.4160 C   0  0  0  0  0  0  0  0  0  0  0  0
   39.8800   24.2150   41.1580 H   0  0  0  0  0  0  0  0  0  0  0  0
   38.6520   25.8140   40.9120 O   0  0  0  0  0  0  0  0  0  0  0  0
  1  2  1  0  0  0  0
  2  7  1  0  0  0  0
  3  2  2  0  0  0  0
  3  4  1  0  0  0  0
  4  5  2  0  0  0  0
  5  6  1  0  0  0  0
  5  9  1  0  0  0  0
  6 10  1  0  0  0  0
  7 20  1  0  0  0  0
  7  6  2  0  0  0  0
  8  4  1  0  0  0  0
 11 12  1  0  0  0  0
 12 13  2  0  0  0  0
 12 18  1  0  0  0  0
 13  3  1  0  0  0  0
 14 13  1  0  0  0  0
 15 14  2  0  0  0  0
 16 15  1  0  0  0  0
 16 11  2  0  0  0  0
 17 11  1  0  0  0  0
 19 15  1  0  0  0  0
 20 21  2  0  0  0  0
 21 23  1  0  0  0  0
 21 22  1  0  0  0  0
 23 24  1  0  0  0  0
 25 23  2  0  0  0  0
 26 25  1  0  0  0  0
 27 20  1  0  0  0  0
 27 25  1  0  0  0  0
M  END
>  <minimizedAffinity>
-4.61862135

$$$$
