
 OpenBabel03242512213D

 40 43  0  0  0  0  0  0  0  0999 V2000
   48.4970   33.1180   41.4350 C   0  0  0  0  0  0  0  0  0  0  0  0
   48.0620   34.3440   41.8660 C   0  0  0  0  0  0  0  0  0  0  0  0
   48.9420   35.1850   42.4830 C   0  0  0  0  0  0  0  0  0  0  0  0
   50.2660   34.7830   42.6620 C   0  0  0  0  0  0  0  0  0  0  0  0
   50.6700   33.5460   42.2170 C   0  0  0  0  0  0  0  0  0  0  0  0
   49.7770   32.6810   41.5870 C   0  0  0  0  0  0  0  0  0  0  0  0
   48.5200   36.1380   42.7950 H   0  0  0  0  0  0  0  0  0  0  0  0
   50.9190   35.4780   43.1500 H   0  0  0  0  0  0  0  0  0  0  0  0
   51.6960   33.2830   42.3780 H   0  0  0  0  0  0  0  0  0  0  0  0
   46.6480   34.6810   41.6340 C   0  0  0  0  0  0  0  0  0  0  0  0
   46.0890   33.8870   41.1580 H   0  0  0  0  0  0  0  0  0  0  0  0
   46.5270   35.5890   41.0230 H   0  0  0  0  0  0  0  0  0  0  0  0
   45.9410   34.9080   42.9580 C   0  0  0  0  0  0  0  0  0  0  0  0
   45.9960   33.8880   43.9100 C   0  0  0  0  0  0  0  0  0  0  0  0
   45.3460   34.1220   45.1010 C   0  0  0  0  0  0  0  0  0  0  0  0
   44.7070   35.2900   45.2850 N   0  0  0  0  0  0  0  0  0  0  0  0
   44.6730   36.2660   44.3340 C   0  0  0  0  0  0  0  0  0  0  0  0
   45.2920   36.0600   43.1800 N   0  0  0  0  0  0  0  0  0  0  0  0
   46.5040   32.9640   43.7580 H   0  0  0  0  0  0  0  0  0  0  0  0
   45.3570   33.3540   45.8860 H   0  0  0  0  0  0  0  0  0  0  0  0
   44.1230   37.1470   44.6240 H   0  0  0  0  0  0  0  0  0  0  0  0
   47.6620   32.1880   40.7910 O   0  0  0  0  0  0  0  0  0  0  0  0
   47.0830   32.4440   39.9990 H   0  0  0  0  0  0  0  0  0  0  0  0
   50.2910   31.4460   41.1730 O   0  0  0  0  0  0  0  0  0  0  0  0
   50.8280   31.4530   39.8850 C   0  0  0  0  0  0  0  0  0  0  0  0
   52.1980   31.3110   39.7630 C   0  0  0  0  0  0  0  0  0  0  0  0
   52.8320   31.3050   38.5230 C   0  0  0  0  0  0  0  0  0  0  0  0
   52.0850   31.4410   37.4140 N   0  0  0  0  0  0  0  0  0  0  0  0
   50.7430   31.5790   37.5390 C   0  0  0  0  0  0  0  0  0  0  0  0
   50.1460   31.5830   38.7420 N   0  0  0  0  0  0  0  0  0  0  0  0
   52.7960   31.2030   40.6390 H   0  0  0  0  0  0  0  0  0  0  0  0
   53.8900   31.1940   38.4790 H   0  0  0  0  0  0  0  0  0  0  0  0
   49.9570   31.7240   36.3190 C   0  0  0  0  0  0  0  0  0  0  0  0
   50.0080   31.0180   35.1230 C   0  0  0  0  0  0  0  0  0  0  0  0
   50.6970   30.2190   34.9640 H   0  0  0  0  0  0  0  0  0  0  0  0
   49.0380   31.5520   34.2670 C   0  0  0  0  0  0  0  0  0  0  0  0
   48.8430   31.1970   33.2480 H   0  0  0  0  0  0  0  0  0  0  0  0
   48.4500   32.5710   35.0190 C   0  0  0  0  0  0  0  0  0  0  0  0
   47.6540   33.1390   34.5530 H   0  0  0  0  0  0  0  0  0  0  0  0
   49.0210   32.6250   36.1940 O   0  0  0  0  0  0  0  0  0  0  0  0
  1  6  2  0  0  0  0
  1  2  1  0  0  0  0
  2  3  2  0  0  0  0
  3  4  1  0  0  0  0
  3  7  1  0  0  0  0
  4  8  1  0  0  0  0
  5  9  1  0  0  0  0
  5  4  2  0  0  0  0
  6  5  1  0  0  0  0
 10  2  1  0  0  0  0
 10 13  1  0  0  0  0
 11 10  1  0  0  0  0
 12 10  1  0  0  0  0
 13 18  2  0  0  0  0
 13 14  1  0  0  0  0
 14 15  2  0  0  0  0
 15 16  1  0  0  0  0
 15 20  1  0  0  0  0
 17 21  1  0  0  0  0
 17 16  2  0  0  0  0
 18 17  1  0  0  0  0
 19 14  1  0  0  0  0
 22  1  1  0  0  0  0
 23 22  1  0  0  0  0
 24  6  1  0  0  0  0
 25 24  1  0  0  0  0
 26 25  1  0  0  0  0
 26 31  1  0  0  0  0
 27 26  2  0  0  0  0
 28 29  2  0  0  0  0
 28 27  1  0  0  0  0
 29 30  1  0  0  0  0
 30 25  2  0  0  0  0
 32 27  1  0  0  0  0
 33 29  1  0  0  0  0
 34 33  2  0  0  0  0
 35 34  1  0  0  0  0
 36 38  2  0  0  0  0
 36 34  1  0  0  0  0
 37 36  1  0  0  0  0
 38 40  1  0  0  0  0
 39 38  1  0  0  0  0
 40 33  1  0  0  0  0
M  END
>  <minimizedAffinity>
-5.87618971

>  <minimizedRMSD>
0.641194284

$$$$
