
 OpenBabel03252501433D

 44 47  0  0  0  0  0  0  0  0999 V2000
   39.0810   32.2750   38.5760 O   0  0  0  0  0  0  0  0  0  0  0  0
   38.9490   31.3350   41.3940 Cl  0  0  0  0  0  0  0  0  0  0  0  0
   38.6590   30.3820   39.9470 C   0  0  0  0  0  0  0  0  0  0  0  0
   38.7440   30.9120   38.6630 C   0  0  0  0  0  0  0  0  0  0  0  0
   38.5100   30.1300   37.5800 C   0  0  0  0  0  0  0  0  0  0  0  0
   38.1790   28.7910   37.6660 C   0  0  0  0  0  0  0  0  0  0  0  0
   38.0850   28.2260   38.9540 C   0  0  0  0  0  0  0  0  0  0  0  0
   37.6710   26.5340   39.1670 Cl  0  0  0  0  0  0  0  0  0  0  0  0
   38.3300   29.0530   40.0330 C   0  0  0  0  0  0  0  0  0  0  0  0
   38.5920   30.6010   36.6000 H   0  0  0  0  0  0  0  0  0  0  0  0
   37.9950   28.1780   36.8050 H   0  0  0  0  0  0  0  0  0  0  0  0
   35.9130   28.9040   41.2820 F   0  0  0  0  0  0  0  0  0  0  0  0
   36.9930   28.4180   41.9810 C   0  0  0  0  0  0  0  0  0  0  0  0
   38.2350   28.4790   41.3760 C   0  0  0  0  0  0  0  0  0  0  0  0
   39.3100   27.9760   42.1150 C   0  0  0  0  0  0  0  0  0  0  0  0
   39.0810   27.4590   43.3790 C   0  0  0  0  0  0  0  0  0  0  0  0
   37.8000   27.4270   43.9320 C   0  0  0  0  0  0  0  0  0  0  0  0
   36.7100   27.9170   43.2260 C   0  0  0  0  0  0  0  0  0  0  0  0
   40.2680   28.0290   41.6360 H   0  0  0  0  0  0  0  0  0  0  0  0
   39.9170   27.0750   43.9370 H   0  0  0  0  0  0  0  0  0  0  0  0
   37.6340   27.0180   44.9230 H   0  0  0  0  0  0  0  0  0  0  0  0
   35.7040   27.9110   43.6180 H   0  0  0  0  0  0  0  0  0  0  0  0
   40.4320   32.6210   38.6710 C   0  0  0  0  0  0  0  0  0  0  0  0
   41.4420   31.8270   38.5700 O   0  0  0  0  0  0  0  0  0  0  0  0
   40.8240   33.9680   38.9000 N   0  0  0  0  0  0  0  0  0  0  0  0
   40.1700   34.7440   38.9710 H   0  0  0  0  0  0  0  0  0  0  0  0
   42.2680   34.0320   39.0090 C   0  0  0  0  0  0  0  0  0  0  0  0
   43.1510   34.1790   37.9800 C   0  0  0  0  0  0  0  0  0  0  0  0
   44.4860   34.2170   38.3000 C   0  0  0  0  0  0  0  0  0  0  0  0
   44.8230   34.1070   39.6080 N   0  0  0  0  0  0  0  0  0  0  0  0
   43.9250   33.9620   40.6020 C   0  0  0  0  0  0  0  0  0  0  0  0
   42.6100   33.9230   40.3020 N   0  0  0  0  0  0  0  0  0  0  0  0
   45.2030   34.3330   37.5060 H   0  0  0  0  0  0  0  0  0  0  0  0
   44.4440   33.8560   41.9650 C   0  0  0  0  0  0  0  0  0  0  0  0
   45.0220   34.9920   42.5360 C   0  0  0  0  0  0  0  0  0  0  0  0
   45.1640   36.0010   42.1250 H   0  0  0  0  0  0  0  0  0  0  0  0
   45.4190   34.5920   43.8190 C   0  0  0  0  0  0  0  0  0  0  0  0
   45.9080   35.2710   44.5120 H   0  0  0  0  0  0  0  0  0  0  0  0
   45.0570   33.2450   43.9390 C   0  0  0  0  0  0  0  0  0  0  0  0
   45.2430   32.6640   44.8340 H   0  0  0  0  0  0  0  0  0  0  0  0
   44.4970   32.8720   42.8350 O   0  0  0  0  0  0  0  0  0  0  0  0
   42.6250   34.2790   36.6840 N   0  0  0  0  0  0  0  0  0  0  0  0
   41.7390   33.8220   36.4000 H   0  0  0  0  0  0  0  0  0  0  0  0
   43.1140   34.8360   35.9220 H   0  0  0  0  0  0  0  0  0  0  0  0
  1  4  1  0  0  0  0
  1 23  1  0  0  0  0
  3  9  1  0  0  0  0
  3  2  1  0  0  0  0
  4  3  2  0  0  0  0
  5  6  2  0  0  0  0
  5  4  1  0  0  0  0
  6  7  1  0  0  0  0
  7  8  1  0  0  0  0
  7  9  2  0  0  0  0
  9 14  1  0  0  0  0
 10  5  1  0  0  0  0
 11  6  1  0  0  0  0
 12 13  1  0  0  0  0
 13 18  1  0  0  0  0
 14 13  2  0  0  0  0
 14 15  1  0  0  0  0
 15 16  2  0  0  0  0
 16 17  1  0  0  0  0
 16 20  1  0  0  0  0
 17 21  1  0  0  0  0
 18 22  1  0  0  0  0
 18 17  2  0  0  0  0
 19 15  1  0  0  0  0
 23 25  1  0  0  0  0
 24 23  2  0  0  0  0
 25 26  1  0  0  0  0
 25 27  1  0  0  0  0
 27 32  1  0  0  0  0
 28 29  1  0  0  0  0
 28 27  2  0  0  0  0
 29 30  2  0  0  0  0
 30 31  1  0  0  0  0
 31 34  1  0  0  0  0
 32 31  2  0  0  0  0
 33 29  1  0  0  0  0
 34 35  2  0  0  0  0
 34 41  1  0  0  0  0
 35 37  1  0  0  0  0
 36 35  1  0  0  0  0
 37 39  2  0  0  0  0
 37 38  1  0  0  0  0
 39 40  1  0  0  0  0
 41 39  1  0  0  0  0
 42 28  1  0  0  0  0
 43 42  1  0  0  0  0
 44 42  1  0  0  0  0
M  END
>  <minimizedAffinity>
-6.91117668

$$$$

 OpenBabel03252501433D

 44 47  0  0  0  0  0  0  0  0999 V2000
   36.6080   31.0490   40.9810 O   0  0  0  0  0  0  0  0  0  0  0  0
   38.0400   28.8410   42.3650 Cl  0  0  0  0  0  0  0  0  0  0  0  0
   37.0480   28.7160   40.9210 C   0  0  0  0  0  0  0  0  0  0  0  0
   36.4130   29.8110   40.3420 C   0  0  0  0  0  0  0  0  0  0  0  0
   35.6580   29.6570   39.2260 C   0  0  0  0  0  0  0  0  0  0  0  0
   35.4670   28.4400   38.5990 C   0  0  0  0  0  0  0  0  0  0  0  0
   36.0980   27.3120   39.1630 C   0  0  0  0  0  0  0  0  0  0  0  0
   35.9160   25.7230   38.4400 Cl  0  0  0  0  0  0  0  0  0  0  0  0
   36.8580   27.5080   40.3000 C   0  0  0  0  0  0  0  0  0  0  0  0
   35.1870   30.5500   38.8180 H   0  0  0  0  0  0  0  0  0  0  0  0
   34.8690   28.3250   37.7160 H   0  0  0  0  0  0  0  0  0  0  0  0
   39.3970   26.8560   39.5570 F   0  0  0  0  0  0  0  0  0  0  0  0
   38.8070   26.0420   40.4960 C   0  0  0  0  0  0  0  0  0  0  0  0
   37.5180   26.3450   40.8950 C   0  0  0  0  0  0  0  0  0  0  0  0
   36.9490   25.4970   41.8510 C   0  0  0  0  0  0  0  0  0  0  0  0
   37.6860   24.4280   42.3330 C   0  0  0  0  0  0  0  0  0  0  0  0
   38.9850   24.1780   41.8870 C   0  0  0  0  0  0  0  0  0  0  0  0
   39.5800   25.0000   40.9390 C   0  0  0  0  0  0  0  0  0  0  0  0
   35.9490   25.7420   42.1520 H   0  0  0  0  0  0  0  0  0  0  0  0
   37.2360   23.7840   43.0680 H   0  0  0  0  0  0  0  0  0  0  0  0
   39.5510   23.3380   42.2730 H   0  0  0  0  0  0  0  0  0  0  0  0
   40.5820   24.8400   40.5690 H   0  0  0  0  0  0  0  0  0  0  0  0
   37.6070   31.8900   40.4830 C   0  0  0  0  0  0  0  0  0  0  0  0
   37.5420   32.6290   39.4290 O   0  0  0  0  0  0  0  0  0  0  0  0
   38.8600   32.0050   41.1470 N   0  0  0  0  0  0  0  0  0  0  0  0
   39.0860   31.5260   42.0150 H   0  0  0  0  0  0  0  0  0  0  0  0
   39.7200   32.8930   40.3900 C   0  0  0  0  0  0  0  0  0  0  0  0
   39.7450   34.2540   40.4660 C   0  0  0  0  0  0  0  0  0  0  0  0
   40.6410   34.9110   39.6600 C   0  0  0  0  0  0  0  0  0  0  0  0
   41.4300   34.1600   38.8530 N   0  0  0  0  0  0  0  0  0  0  0  0
   41.3810   32.8150   38.8010 C   0  0  0  0  0  0  0  0  0  0  0  0
   40.5050   32.1560   39.5880 N   0  0  0  0  0  0  0  0  0  0  0  0
   40.6800   35.9850   39.7010 H   0  0  0  0  0  0  0  0  0  0  0  0
   42.2970   32.1460   37.8790 C   0  0  0  0  0  0  0  0  0  0  0  0
   41.7840   31.1350   37.0630 C   0  0  0  0  0  0  0  0  0  0  0  0
   40.7640   30.7330   36.9860 H   0  0  0  0  0  0  0  0  0  0  0  0
   42.8740   30.6900   36.3040 C   0  0  0  0  0  0  0  0  0  0  0  0
   42.7830   29.8970   35.5680 H   0  0  0  0  0  0  0  0  0  0  0  0
   43.9720   31.4590   36.7090 C   0  0  0  0  0  0  0  0  0  0  0  0
   44.9630   31.3350   36.2890 H   0  0  0  0  0  0  0  0  0  0  0  0
   43.5790   32.2840   37.6230 O   0  0  0  0  0  0  0  0  0  0  0  0
   38.8550   34.8690   41.3590 N   0  0  0  0  0  0  0  0  0  0  0  0
   37.9330   34.4630   41.6040 H   0  0  0  0  0  0  0  0  0  0  0  0
   39.0860   35.7920   41.8330 H   0  0  0  0  0  0  0  0  0  0  0  0
  3  2  1  0  0  0  0
  4  3  1  0  0  0  0
  4  1  1  0  0  0  0
  5  4  2  0  0  0  0
  6  7  2  0  0  0  0
  6  5  1  0  0  0  0
  7  9  1  0  0  0  0
  8  7  1  0  0  0  0
  9 14  1  0  0  0  0
  9  3  2  0  0  0  0
 10  5  1  0  0  0  0
 11  6  1  0  0  0  0
 12 13  1  0  0  0  0
 13 14  2  0  0  0  0
 13 18  1  0  0  0  0
 14 15  1  0  0  0  0
 15 19  1  0  0  0  0
 15 16  2  0  0  0  0
 16 20  1  0  0  0  0
 17 21  1  0  0  0  0
 17 16  1  0  0  0  0
 18 17  2  0  0  0  0
 22 18  1  0  0  0  0
 23  1  1  0  0  0  0
 23 25  1  0  0  0  0
 24 23  2  0  0  0  0
 25 26  1  0  0  0  0
 27 28  1  0  0  0  0
 27 25  1  0  0  0  0
 28 42  1  0  0  0  0
 29 33  1  0  0  0  0
 29 28  2  0  0  0  0
 30 29  1  0  0  0  0
 31 30  2  0  0  0  0
 31 32  1  0  0  0  0
 32 27  2  0  0  0  0
 34 31  1  0  0  0  0
 35 34  2  0  0  0  0
 36 35  1  0  0  0  0
 37 39  2  0  0  0  0
 37 35  1  0  0  0  0
 38 37  1  0  0  0  0
 39 41  1  0  0  0  0
 40 39  1  0  0  0  0
 41 34  1  0  0  0  0
 42 43  1  0  0  0  0
 42 44  1  0  0  0  0
M  END
>  <minimizedAffinity>
-6.90226793

$$$$

 OpenBabel03252501433D

 44 47  0  0  0  0  0  0  0  0999 V2000
   37.2350   29.6610   41.9660 O   0  0  0  0  0  0  0  0  0  0  0  0
   36.7460   27.5710   39.9080 Cl  0  0  0  0  0  0  0  0  0  0  0  0
   37.6680   27.3980   41.3930 C   0  0  0  0  0  0  0  0  0  0  0  0
   37.8440   28.4380   42.3000 C   0  0  0  0  0  0  0  0  0  0  0  0
   38.5650   28.2480   43.4330 C   0  0  0  0  0  0  0  0  0  0  0  0
   39.1630   27.0460   43.7610 C   0  0  0  0  0  0  0  0  0  0  0  0
   39.0030   25.9730   42.8600 C   0  0  0  0  0  0  0  0  0  0  0  0
   39.7240   24.4070   43.1880 Cl  0  0  0  0  0  0  0  0  0  0  0  0
   38.2620   26.2050   41.7180 C   0  0  0  0  0  0  0  0  0  0  0  0
   38.6680   29.0990   44.1060 H   0  0  0  0  0  0  0  0  0  0  0  0
   39.7330   26.9020   44.6590 H   0  0  0  0  0  0  0  0  0  0  0  0
   36.1970   24.4560   42.0370 F   0  0  0  0  0  0  0  0  0  0  0  0
   37.0290   24.2300   40.9650 C   0  0  0  0  0  0  0  0  0  0  0  0
   38.0880   25.0990   40.7750 C   0  0  0  0  0  0  0  0  0  0  0  0
   38.9140   24.8390   39.6760 C   0  0  0  0  0  0  0  0  0  0  0  0
   38.6360   23.7550   38.8600 C   0  0  0  0  0  0  0  0  0  0  0  0
   37.5490   22.9160   39.1090 C   0  0  0  0  0  0  0  0  0  0  0  0
   36.7090   23.1450   40.1910 C   0  0  0  0  0  0  0  0  0  0  0  0
   39.7310   25.5200   39.5390 H   0  0  0  0  0  0  0  0  0  0  0  0
   39.2790   23.5670   38.0190 H   0  0  0  0  0  0  0  0  0  0  0  0
   37.3420   22.0700   38.4620 H   0  0  0  0  0  0  0  0  0  0  0  0
   35.8580   22.5190   40.4170 H   0  0  0  0  0  0  0  0  0  0  0  0
   37.9500   30.5470   41.1550 C   0  0  0  0  0  0  0  0  0  0  0  0
   37.6290   30.9440   39.9720 O   0  0  0  0  0  0  0  0  0  0  0  0
   39.1730   31.1180   41.6030 N   0  0  0  0  0  0  0  0  0  0  0  0
   39.5720   30.9520   42.5250 H   0  0  0  0  0  0  0  0  0  0  0  0
   39.7250   31.9470   40.5500 C   0  0  0  0  0  0  0  0  0  0  0  0
   39.6160   33.3020   40.4450 C   0  0  0  0  0  0  0  0  0  0  0  0
   40.2170   33.8980   39.3640 C   0  0  0  0  0  0  0  0  0  0  0  0
   40.8720   33.0980   38.4880 N   0  0  0  0  0  0  0  0  0  0  0  0
   40.9620   31.7600   38.6200 C   0  0  0  0  0  0  0  0  0  0  0  0
   40.3760   31.1610   39.6770 N   0  0  0  0  0  0  0  0  0  0  0  0
   40.1440   34.9660   39.2590 H   0  0  0  0  0  0  0  0  0  0  0  0
   41.7040   31.0340   37.5910 C   0  0  0  0  0  0  0  0  0  0  0  0
   41.4290   29.6750   37.4210 C   0  0  0  0  0  0  0  0  0  0  0  0
   40.7200   29.0210   37.9490 H   0  0  0  0  0  0  0  0  0  0  0  0
   42.2750   29.2580   36.3850 C   0  0  0  0  0  0  0  0  0  0  0  0
   42.2880   28.2330   36.0250 H   0  0  0  0  0  0  0  0  0  0  0  0
   43.0040   30.3880   35.9970 C   0  0  0  0  0  0  0  0  0  0  0  0
   43.7450   30.3670   35.2070 H   0  0  0  0  0  0  0  0  0  0  0  0
   42.6320   31.3870   36.7290 O   0  0  0  0  0  0  0  0  0  0  0  0
   38.8990   33.9730   41.4470 N   0  0  0  0  0  0  0  0  0  0  0  0
   38.1130   33.5380   41.9640 H   0  0  0  0  0  0  0  0  0  0  0  0
   39.1320   34.9710   41.7280 H   0  0  0  0  0  0  0  0  0  0  0  0
  1  4  1  0  0  0  0
  2  3  1  0  0  0  0
  3  9  2  0  0  0  0
  3  4  1  0  0  0  0
  4  5  2  0  0  0  0
  5  6  1  0  0  0  0
  5 10  1  0  0  0  0
  6 11  1  0  0  0  0
  7  8  1  0  0  0  0
  7  6  2  0  0  0  0
  9  7  1  0  0  0  0
 13 12  1  0  0  0  0
 14 13  1  0  0  0  0
 14  9  1  0  0  0  0
 15 14  2  0  0  0  0
 16 17  2  0  0  0  0
 16 15  1  0  0  0  0
 17 18  1  0  0  0  0
 18 22  1  0  0  0  0
 18 13  2  0  0  0  0
 19 15  1  0  0  0  0
 20 16  1  0  0  0  0
 21 17  1  0  0  0  0
 23 25  1  0  0  0  0
 23  1  1  0  0  0  0
 24 23  2  0  0  0  0
 25 26  1  0  0  0  0
 27 25  1  0  0  0  0
 28 27  1  0  0  0  0
 28 42  1  0  0  0  0
 29 28  2  0  0  0  0
 30 31  2  0  0  0  0
 30 29  1  0  0  0  0
 31 32  1  0  0  0  0
 32 27  2  0  0  0  0
 33 29  1  0  0  0  0
 34 31  1  0  0  0  0
 35 34  2  0  0  0  0
 35 36  1  0  0  0  0
 37 35  1  0  0  0  0
 38 37  1  0  0  0  0
 39 37  2  0  0  0  0
 39 41  1  0  0  0  0
 40 39  1  0  0  0  0
 41 34  1  0  0  0  0
 42 44  1  0  0  0  0
 42 43  1  0  0  0  0
M  END
>  <minimizedAffinity>
-6.8951025

$$$$

 OpenBabel03252501433D

 44 47  0  0  0  0  0  0  0  0999 V2000
   38.3940   30.6190   40.2300 O   0  0  0  0  0  0  0  0  0  0  0  0
   37.5530   27.9110   39.3350 Cl  0  0  0  0  0  0  0  0  0  0  0  0
   38.4670   28.3100   40.7810 C   0  0  0  0  0  0  0  0  0  0  0  0
   38.8160   29.6140   41.1190 C   0  0  0  0  0  0  0  0  0  0  0  0
   39.5230   29.8650   42.2490 C   0  0  0  0  0  0  0  0  0  0  0  0
   39.9380   28.8770   43.1220 C   0  0  0  0  0  0  0  0  0  0  0  0
   39.5990   27.5460   42.8060 C   0  0  0  0  0  0  0  0  0  0  0  0
   40.0790   26.2210   43.8510 Cl  0  0  0  0  0  0  0  0  0  0  0  0
   38.8790   27.3290   41.6460 C   0  0  0  0  0  0  0  0  0  0  0  0
   39.7670   30.9060   42.4610 H   0  0  0  0  0  0  0  0  0  0  0  0
   40.4970   29.0820   44.0140 H   0  0  0  0  0  0  0  0  0  0  0  0
   36.6020   26.2270   42.6580 F   0  0  0  0  0  0  0  0  0  0  0  0
   37.3570   25.4230   41.8370 C   0  0  0  0  0  0  0  0  0  0  0  0
   38.5200   25.9510   41.3070 C   0  0  0  0  0  0  0  0  0  0  0  0
   39.2640   25.1060   40.4770 C   0  0  0  0  0  0  0  0  0  0  0  0
   38.8090   23.8200   40.2370 C   0  0  0  0  0  0  0  0  0  0  0  0
   37.6250   23.3480   40.8050 C   0  0  0  0  0  0  0  0  0  0  0  0
   36.8620   24.1600   41.6330 C   0  0  0  0  0  0  0  0  0  0  0  0
   40.1630   25.5270   40.0720 H   0  0  0  0  0  0  0  0  0  0  0  0
   39.3910   23.1810   39.5970 H   0  0  0  0  0  0  0  0  0  0  0  0
   37.2800   22.3390   40.6080 H   0  0  0  0  0  0  0  0  0  0  0  0
   35.9410   23.8330   42.0910 H   0  0  0  0  0  0  0  0  0  0  0  0
   39.3420   31.5520   39.8010 C   0  0  0  0  0  0  0  0  0  0  0  0
   39.2040   32.8320   39.7610 O   0  0  0  0  0  0  0  0  0  0  0  0
   40.6220   31.1320   39.3450 N   0  0  0  0  0  0  0  0  0  0  0  0
   40.9300   30.1620   39.3370 H   0  0  0  0  0  0  0  0  0  0  0  0
   41.3770   32.2910   38.9120 C   0  0  0  0  0  0  0  0  0  0  0  0
   41.3170   32.8840   37.6860 C   0  0  0  0  0  0  0  0  0  0  0  0
   42.1180   33.9800   37.4790 C   0  0  0  0  0  0  0  0  0  0  0  0
   42.9050   34.3870   38.5050 N   0  0  0  0  0  0  0  0  0  0  0  0
   42.9420   33.7780   39.7060 C   0  0  0  0  0  0  0  0  0  0  0  0
   42.1590   32.7010   39.9240 N   0  0  0  0  0  0  0  0  0  0  0  0
   42.0890   34.4650   36.5200 H   0  0  0  0  0  0  0  0  0  0  0  0
   43.8430   34.3360   40.7130 C   0  0  0  0  0  0  0  0  0  0  0  0
   43.2820   34.8260   41.8950 C   0  0  0  0  0  0  0  0  0  0  0  0
   42.2330   34.8700   42.2200 H   0  0  0  0  0  0  0  0  0  0  0  0
   44.3690   35.2860   42.6510 C   0  0  0  0  0  0  0  0  0  0  0  0
   44.2440   35.7290   43.6340 H   0  0  0  0  0  0  0  0  0  0  0  0
   45.5120   35.0450   41.8790 C   0  0  0  0  0  0  0  0  0  0  0  0
   46.5110   35.3010   42.2110 H   0  0  0  0  0  0  0  0  0  0  0  0
   45.1470   34.4940   40.7680 O   0  0  0  0  0  0  0  0  0  0  0  0
   40.4430   32.3280   36.7400 N   0  0  0  0  0  0  0  0  0  0  0  0
   40.2060   31.3190   36.7180 H   0  0  0  0  0  0  0  0  0  0  0  0
   39.9770   32.9210   35.9920 H   0  0  0  0  0  0  0  0  0  0  0  0
  1  4  1  0  0  0  0
  2  3  1  0  0  0  0
  3  4  2  0  0  0  0
  3  9  1  0  0  0  0
  4  5  1  0  0  0  0
  5 10  1  0  0  0  0
  5  6  2  0  0  0  0
  6 11  1  0  0  0  0
  7  6  1  0  0  0  0
  7  8  1  0  0  0  0
  9  7  2  0  0  0  0
 13 12  1  0  0  0  0
 14  9  1  0  0  0  0
 14 13  2  0  0  0  0
 15 14  1  0  0  0  0
 16 15  2  0  0  0  0
 16 17  1  0  0  0  0
 17 18  2  0  0  0  0
 18 13  1  0  0  0  0
 18 22  1  0  0  0  0
 19 15  1  0  0  0  0
 20 16  1  0  0  0  0
 21 17  1  0  0  0  0
 23  1  1  0  0  0  0
 24 23  2  0  0  0  0
 25 23  1  0  0  0  0
 26 25  1  0  0  0  0
 27 25  1  0  0  0  0
 27 32  1  0  0  0  0
 28 27  2  0  0  0  0
 29 28  1  0  0  0  0
 29 30  2  0  0  0  0
 30 31  1  0  0  0  0
 31 32  2  0  0  0  0
 31 34  1  0  0  0  0
 33 29  1  0  0  0  0
 34 41  1  0  0  0  0
 34 35  2  0  0  0  0
 35 36  1  0  0  0  0
 35 37  1  0  0  0  0
 37 38  1  0  0  0  0
 39 40  1  0  0  0  0
 39 37  2  0  0  0  0
 41 39  1  0  0  0  0
 42 28  1  0  0  0  0
 43 42  1  0  0  0  0
 44 42  1  0  0  0  0
M  END
>  <minimizedAffinity>
-6.89255047

$$$$

 OpenBabel03252501433D

 44 47  0  0  0  0  0  0  0  0999 V2000
   37.7210   31.6280   40.7770 O   0  0  0  0  0  0  0  0  0  0  0  0
   38.5310   29.1790   42.2580 Cl  0  0  0  0  0  0  0  0  0  0  0  0
   37.6040   29.2560   40.7670 C   0  0  0  0  0  0  0  0  0  0  0  0
   37.2710   30.4550   40.1450 C   0  0  0  0  0  0  0  0  0  0  0  0
   36.5530   30.4560   38.9940 C   0  0  0  0  0  0  0  0  0  0  0  0
   36.1100   29.3030   38.3740 C   0  0  0  0  0  0  0  0  0  0  0  0
   36.4320   28.0720   38.9810 C   0  0  0  0  0  0  0  0  0  0  0  0
   35.9160   26.5540   38.2690 Cl  0  0  0  0  0  0  0  0  0  0  0  0
   37.1640   28.1120   40.1520 C   0  0  0  0  0  0  0  0  0  0  0  0
   36.3230   31.4250   38.5530 H   0  0  0  0  0  0  0  0  0  0  0  0
   35.5420   29.3100   37.4630 H   0  0  0  0  0  0  0  0  0  0  0  0
   39.4620   26.8160   39.4690 F   0  0  0  0  0  0  0  0  0  0  0  0
   38.6790   26.2100   40.4240 C   0  0  0  0  0  0  0  0  0  0  0  0
   37.5050   26.8410   40.7930 C   0  0  0  0  0  0  0  0  0  0  0  0
   36.7340   26.1960   41.7660 C   0  0  0  0  0  0  0  0  0  0  0  0
   37.1740   24.9930   42.2920 C   0  0  0  0  0  0  0  0  0  0  0  0
   38.3710   24.4090   41.8750 C   0  0  0  0  0  0  0  0  0  0  0  0
   39.1610   25.0220   40.9110 C   0  0  0  0  0  0  0  0  0  0  0  0
   35.8260   26.6950   42.0440 H   0  0  0  0  0  0  0  0  0  0  0  0
   36.5710   24.5090   43.0400 H   0  0  0  0  0  0  0  0  0  0  0  0
   38.7040   23.4670   42.2950 H   0  0  0  0  0  0  0  0  0  0  0  0
   40.0920   24.6030   40.5620 H   0  0  0  0  0  0  0  0  0  0  0  0
   38.8200   32.2890   40.2210 C   0  0  0  0  0  0  0  0  0  0  0  0
   38.9290   33.5520   39.9930 O   0  0  0  0  0  0  0  0  0  0  0  0
   39.9850   31.5680   39.8380 N   0  0  0  0  0  0  0  0  0  0  0  0
   40.1020   30.5670   39.9730 H   0  0  0  0  0  0  0  0  0  0  0  0
   40.9380   32.4850   39.2440 C   0  0  0  0  0  0  0  0  0  0  0  0
   40.9710   32.8850   37.9400 C   0  0  0  0  0  0  0  0  0  0  0  0
   41.9610   33.7660   37.5790 C   0  0  0  0  0  0  0  0  0  0  0  0
   42.8250   34.1700   38.5420 N   0  0  0  0  0  0  0  0  0  0  0  0
   42.7650   33.7560   39.8230 C   0  0  0  0  0  0  0  0  0  0  0  0
   41.7980   32.8910   40.1920 N   0  0  0  0  0  0  0  0  0  0  0  0
   42.0080   34.0960   36.5570 H   0  0  0  0  0  0  0  0  0  0  0  0
   43.7700   34.2830   40.7450 C   0  0  0  0  0  0  0  0  0  0  0  0
   43.3250   34.8870   41.9230 C   0  0  0  0  0  0  0  0  0  0  0  0
   42.3050   35.0470   42.3000 H   0  0  0  0  0  0  0  0  0  0  0  0
   44.4910   35.2850   42.5920 C   0  0  0  0  0  0  0  0  0  0  0  0
   44.4640   35.7920   43.5520 H   0  0  0  0  0  0  0  0  0  0  0  0
   45.5610   34.8960   41.7770 C   0  0  0  0  0  0  0  0  0  0  0  0
   46.5960   35.0750   42.0400 H   0  0  0  0  0  0  0  0  0  0  0  0
   45.0830   34.3210   40.7220 O   0  0  0  0  0  0  0  0  0  0  0  0
   39.9950   32.3650   37.0780 N   0  0  0  0  0  0  0  0  0  0  0  0
   39.5720   31.4270   37.2070 H   0  0  0  0  0  0  0  0  0  0  0  0
   39.6370   32.9140   36.2420 H   0  0  0  0  0  0  0  0  0  0  0  0
  3  2  1  0  0  0  0
  4  3  2  0  0  0  0
  4  1  1  0  0  0  0
  5  4  1  0  0  0  0
  6  7  1  0  0  0  0
  6  5  2  0  0  0  0
  7  9  2  0  0  0  0
  8  7  1  0  0  0  0
  9  3  1  0  0  0  0
  9 14  1  0  0  0  0
 10  5  1  0  0  0  0
 11  6  1  0  0  0  0
 12 13  1  0  0  0  0
 13 14  2  0  0  0  0
 13 18  1  0  0  0  0
 14 15  1  0  0  0  0
 15 19  1  0  0  0  0
 15 16  2  0  0  0  0
 16 20  1  0  0  0  0
 17 16  1  0  0  0  0
 17 21  1  0  0  0  0
 18 17  2  0  0  0  0
 22 18  1  0  0  0  0
 23  1  1  0  0  0  0
 24 23  2  0  0  0  0
 25 26  1  0  0  0  0
 25 23  1  0  0  0  0
 27 25  1  0  0  0  0
 27 32  1  0  0  0  0
 28 27  2  0  0  0  0
 29 28  1  0  0  0  0
 29 30  2  0  0  0  0
 30 31  1  0  0  0  0
 31 32  2  0  0  0  0
 31 34  1  0  0  0  0
 33 29  1  0  0  0  0
 34 35  2  0  0  0  0
 35 36  1  0  0  0  0
 35 37  1  0  0  0  0
 37 38  1  0  0  0  0
 39 40  1  0  0  0  0
 39 37  2  0  0  0  0
 41 34  1  0  0  0  0
 41 39  1  0  0  0  0
 42 43  1  0  0  0  0
 42 28  1  0  0  0  0
 44 42  1  0  0  0  0
M  END
>  <minimizedAffinity>
-6.70236921

$$$$

 OpenBabel03252501433D

 44 47  0  0  0  0  0  0  0  0999 V2000
   39.1590   32.9680   39.3240 O   0  0  0  0  0  0  0  0  0  0  0  0
   39.5840   31.4210   41.8280 Cl  0  0  0  0  0  0  0  0  0  0  0  0
   38.5710   30.9710   40.4650 C   0  0  0  0  0  0  0  0  0  0  0  0
   38.4330   31.7630   39.3300 C   0  0  0  0  0  0  0  0  0  0  0  0
   37.6370   31.3650   38.3070 C   0  0  0  0  0  0  0  0  0  0  0  0
   36.9240   30.1820   38.3140 C   0  0  0  0  0  0  0  0  0  0  0  0
   37.0430   29.3570   39.4510 C   0  0  0  0  0  0  0  0  0  0  0  0
   36.1780   27.8340   39.5550 Cl  0  0  0  0  0  0  0  0  0  0  0  0
   37.8630   29.7960   40.4730 C   0  0  0  0  0  0  0  0  0  0  0  0
   37.5690   32.0280   37.4440 H   0  0  0  0  0  0  0  0  0  0  0  0
   36.2960   29.8730   37.5010 H   0  0  0  0  0  0  0  0  0  0  0  0
   39.8210   27.9050   40.5840 F   0  0  0  0  0  0  0  0  0  0  0  0
   39.0010   28.0000   41.6830 C   0  0  0  0  0  0  0  0  0  0  0  0
   37.9960   28.9490   41.6600 C   0  0  0  0  0  0  0  0  0  0  0  0
   37.1800   29.0180   42.7940 C   0  0  0  0  0  0  0  0  0  0  0  0
   37.4160   28.1540   43.8510 C   0  0  0  0  0  0  0  0  0  0  0  0
   38.4490   27.2170   43.8110 C   0  0  0  0  0  0  0  0  0  0  0  0
   39.2770   27.1220   42.7000 C   0  0  0  0  0  0  0  0  0  0  0  0
   36.4050   29.7580   42.7640 H   0  0  0  0  0  0  0  0  0  0  0  0
   36.7810   28.2180   44.7180 H   0  0  0  0  0  0  0  0  0  0  0  0
   38.6230   26.5470   44.6450 H   0  0  0  0  0  0  0  0  0  0  0  0
   40.0870   26.4110   42.6300 H   0  0  0  0  0  0  0  0  0  0  0  0
   40.5030   32.9180   38.9440 C   0  0  0  0  0  0  0  0  0  0  0  0
   41.5250   32.8270   39.7250 O   0  0  0  0  0  0  0  0  0  0  0  0
   40.8740   32.9670   37.5720 N   0  0  0  0  0  0  0  0  0  0  0  0
   40.2060   33.0030   36.8060 H   0  0  0  0  0  0  0  0  0  0  0  0
   42.3200   32.9550   37.4690 C   0  0  0  0  0  0  0  0  0  0  0  0
   43.1470   34.0340   37.5720 C   0  0  0  0  0  0  0  0  0  0  0  0
   44.4950   33.8060   37.4440 C   0  0  0  0  0  0  0  0  0  0  0  0
   44.9000   32.5310   37.2290 N   0  0  0  0  0  0  0  0  0  0  0  0
   44.0560   31.4840   37.1330 C   0  0  0  0  0  0  0  0  0  0  0  0
   42.7290   31.6940   37.2560 N   0  0  0  0  0  0  0  0  0  0  0  0
   45.1680   34.6410   37.5210 H   0  0  0  0  0  0  0  0  0  0  0  0
   44.6460   30.1670   36.8990 C   0  0  0  0  0  0  0  0  0  0  0  0
   44.8130   29.3200   37.9970 C   0  0  0  0  0  0  0  0  0  0  0  0
   44.5700   29.4730   39.0570 H   0  0  0  0  0  0  0  0  0  0  0  0
   45.3880   28.1540   37.4730 C   0  0  0  0  0  0  0  0  0  0  0  0
   45.6390   27.3010   38.0970 H   0  0  0  0  0  0  0  0  0  0  0  0
   45.5300   28.3720   36.0970 C   0  0  0  0  0  0  0  0  0  0  0  0
   45.9520   27.6340   35.4260 H   0  0  0  0  0  0  0  0  0  0  0  0
   45.0840   29.5540   35.8220 O   0  0  0  0  0  0  0  0  0  0  0  0
   42.5540   35.2860   37.7970 N   0  0  0  0  0  0  0  0  0  0  0  0
   41.6060   35.5280   37.4560 H   0  0  0  0  0  0  0  0  0  0  0  0
   43.0550   36.0540   38.3340 H   0  0  0  0  0  0  0  0  0  0  0  0
  1  4  1  0  0  0  0
  3  9  1  0  0  0  0
  3  2  1  0  0  0  0
  4  3  2  0  0  0  0
  5  6  2  0  0  0  0
  5  4  1  0  0  0  0
  6  7  1  0  0  0  0
  7  8  1  0  0  0  0
  7  9  2  0  0  0  0
  9 14  1  0  0  0  0
 10  5  1  0  0  0  0
 11  6  1  0  0  0  0
 12 13  1  0  0  0  0
 13 18  1  0  0  0  0
 14 13  2  0  0  0  0
 14 15  1  0  0  0  0
 15 16  2  0  0  0  0
 16 20  1  0  0  0  0
 17 16  1  0  0  0  0
 17 21  1  0  0  0  0
 18 17  2  0  0  0  0
 19 15  1  0  0  0  0
 22 18  1  0  0  0  0
 23  1  1  0  0  0  0
 23 24  2  0  0  0  0
 25 23  1  0  0  0  0
 26 25  1  0  0  0  0
 27 28  1  0  0  0  0
 27 25  1  0  0  0  0
 28 42  1  0  0  0  0
 29 33  1  0  0  0  0
 29 28  2  0  0  0  0
 30 29  1  0  0  0  0
 31 30  2  0  0  0  0
 31 32  1  0  0  0  0
 32 27  2  0  0  0  0
 34 31  1  0  0  0  0
 34 35  2  0  0  0  0
 35 36  1  0  0  0  0
 37 35  1  0  0  0  0
 37 38  1  0  0  0  0
 39 37  2  0  0  0  0
 40 39  1  0  0  0  0
 41 39  1  0  0  0  0
 41 34  1  0  0  0  0
 42 44  1  0  0  0  0
 43 42  1  0  0  0  0
M  END
>  <minimizedAffinity>
-6.65158272

$$$$

 OpenBabel03252501433D

 44 47  0  0  0  0  0  0  0  0999 V2000
   37.2810   29.3810   41.7820 O   0  0  0  0  0  0  0  0  0  0  0  0
   36.9760   27.2340   39.7470 Cl  0  0  0  0  0  0  0  0  0  0  0  0
   37.8010   27.1160   41.2940 C   0  0  0  0  0  0  0  0  0  0  0  0
   37.8930   28.1800   42.1850 C   0  0  0  0  0  0  0  0  0  0  0  0
   38.5430   28.0330   43.3670 C   0  0  0  0  0  0  0  0  0  0  0  0
   39.1440   26.8530   43.7620 C   0  0  0  0  0  0  0  0  0  0  0  0
   39.0670   25.7560   42.8790 C   0  0  0  0  0  0  0  0  0  0  0  0
   39.7990   24.2150   43.2910 Cl  0  0  0  0  0  0  0  0  0  0  0  0
   38.3980   25.9450   41.6850 C   0  0  0  0  0  0  0  0  0  0  0  0
   38.5820   28.9020   44.0240 H   0  0  0  0  0  0  0  0  0  0  0  0
   39.6560   26.7430   44.6980 H   0  0  0  0  0  0  0  0  0  0  0  0
   36.2720   24.2460   41.8080 F   0  0  0  0  0  0  0  0  0  0  0  0
   37.2180   23.9720   40.8490 C   0  0  0  0  0  0  0  0  0  0  0  0
   38.3110   24.8140   40.7600 C   0  0  0  0  0  0  0  0  0  0  0  0
   39.2540   24.5050   39.7740 C   0  0  0  0  0  0  0  0  0  0  0  0
   39.0490   23.4020   38.9620 C   0  0  0  0  0  0  0  0  0  0  0  0
   37.9220   22.5910   39.1050 C   0  0  0  0  0  0  0  0  0  0  0  0
   36.9660   22.8690   40.0730 C   0  0  0  0  0  0  0  0  0  0  0  0
   40.0970   25.1660   39.7150 H   0  0  0  0  0  0  0  0  0  0  0  0
   39.7820   23.1760   38.2080 H   0  0  0  0  0  0  0  0  0  0  0  0
   37.7730   21.7310   38.4620 H   0  0  0  0  0  0  0  0  0  0  0  0
   36.0810   22.2670   40.2150 H   0  0  0  0  0  0  0  0  0  0  0  0
   38.1030   30.4000   41.2910 C   0  0  0  0  0  0  0  0  0  0  0  0
   38.9690   31.0830   41.9560 O   0  0  0  0  0  0  0  0  0  0  0  0
   38.0430   30.7870   39.9240 N   0  0  0  0  0  0  0  0  0  0  0  0
   37.4460   30.3380   39.2330 H   0  0  0  0  0  0  0  0  0  0  0  0
   38.9530   31.8930   39.7030 C   0  0  0  0  0  0  0  0  0  0  0  0
   38.6930   33.2130   39.9270 C   0  0  0  0  0  0  0  0  0  0  0  0
   39.6980   34.1070   39.6510 C   0  0  0  0  0  0  0  0  0  0  0  0
   40.8690   33.6120   39.1810 N   0  0  0  0  0  0  0  0  0  0  0  0
   41.0950   32.3000   38.9700 C   0  0  0  0  0  0  0  0  0  0  0  0
   40.1170   31.4110   39.2370 N   0  0  0  0  0  0  0  0  0  0  0  0
   39.5170   35.1530   39.8190 H   0  0  0  0  0  0  0  0  0  0  0  0
   42.4110   31.9210   38.4590 C   0  0  0  0  0  0  0  0  0  0  0  0
   42.6120   31.9570   37.0770 C   0  0  0  0  0  0  0  0  0  0  0  0
   41.9250   32.2310   36.2650 H   0  0  0  0  0  0  0  0  0  0  0  0
   43.9410   31.5510   36.8910 C   0  0  0  0  0  0  0  0  0  0  0  0
   44.3920   31.4780   35.9060 H   0  0  0  0  0  0  0  0  0  0  0  0
   44.4550   31.2970   38.1690 C   0  0  0  0  0  0  0  0  0  0  0  0
   45.4710   30.9640   38.3380 H   0  0  0  0  0  0  0  0  0  0  0  0
   43.5240   31.5280   39.0370 O   0  0  0  0  0  0  0  0  0  0  0  0
   37.4220   33.5470   40.4180 N   0  0  0  0  0  0  0  0  0  0  0  0
   36.5720   32.9930   40.2040 H   0  0  0  0  0  0  0  0  0  0  0  0
   37.2680   34.3950   41.0400 H   0  0  0  0  0  0  0  0  0  0  0  0
  1  4  1  0  0  0  0
  2  3  1  0  0  0  0
  3  9  2  0  0  0  0
  3  4  1  0  0  0  0
  4  5  2  0  0  0  0
  5  6  1  0  0  0  0
  5 10  1  0  0  0  0
  6 11  1  0  0  0  0
  7  8  1  0  0  0  0
  7  6  2  0  0  0  0
  9  7  1  0  0  0  0
 13 12  1  0  0  0  0
 14 13  1  0  0  0  0
 14  9  1  0  0  0  0
 15 14  2  0  0  0  0
 16 17  2  0  0  0  0
 16 15  1  0  0  0  0
 17 18  1  0  0  0  0
 18 22  1  0  0  0  0
 18 13  2  0  0  0  0
 19 15  1  0  0  0  0
 20 16  1  0  0  0  0
 21 17  1  0  0  0  0
 23  1  1  0  0  0  0
 23 24  2  0  0  0  0
 25 23  1  0  0  0  0
 26 25  1  0  0  0  0
 27 25  1  0  0  0  0
 27 28  1  0  0  0  0
 28 42  1  0  0  0  0
 29 33  1  0  0  0  0
 29 28  2  0  0  0  0
 30 29  1  0  0  0  0
 31 30  2  0  0  0  0
 31 32  1  0  0  0  0
 32 27  2  0  0  0  0
 34 31  1  0  0  0  0
 34 41  1  0  0  0  0
 35 34  2  0  0  0  0
 36 35  1  0  0  0  0
 37 35  1  0  0  0  0
 37 39  2  0  0  0  0
 38 37  1  0  0  0  0
 39 40  1  0  0  0  0
 39 41  1  0  0  0  0
 42 44  1  0  0  0  0
 43 42  1  0  0  0  0
M  END
>  <minimizedAffinity>
-6.64677

$$$$

 OpenBabel03252501433D

 44 47  0  0  0  0  0  0  0  0999 V2000
   35.8020   28.6700   41.3030 O   0  0  0  0  0  0  0  0  0  0  0  0
   37.9160   30.6530   41.9670 Cl  0  0  0  0  0  0  0  0  0  0  0  0
   37.2140   30.3440   40.3860 C   0  0  0  0  0  0  0  0  0  0  0  0
   36.2240   29.3900   40.1710 C   0  0  0  0  0  0  0  0  0  0  0  0
   35.7170   29.1940   38.9290 C   0  0  0  0  0  0  0  0  0  0  0  0
   36.1330   29.9020   37.8180 C   0  0  0  0  0  0  0  0  0  0  0  0
   37.1350   30.8760   38.0040 C   0  0  0  0  0  0  0  0  0  0  0  0
   37.7290   31.8270   36.6550 Cl  0  0  0  0  0  0  0  0  0  0  0  0
   37.6280   31.0470   39.2840 C   0  0  0  0  0  0  0  0  0  0  0  0
   34.9440   28.4340   38.8220 H   0  0  0  0  0  0  0  0  0  0  0  0
   35.7280   29.7420   36.8370 H   0  0  0  0  0  0  0  0  0  0  0  0
   36.9370   33.6280   39.8170 F   0  0  0  0  0  0  0  0  0  0  0  0
   38.2830   33.3550   39.7610 C   0  0  0  0  0  0  0  0  0  0  0  0
   38.6690   32.0540   39.4910 C   0  0  0  0  0  0  0  0  0  0  0  0
   40.0450   31.8130   39.4410 C   0  0  0  0  0  0  0  0  0  0  0  0
   40.9260   32.8600   39.6560 C   0  0  0  0  0  0  0  0  0  0  0  0
   40.4700   34.1520   39.9230 C   0  0  0  0  0  0  0  0  0  0  0  0
   39.1100   34.4270   39.9810 C   0  0  0  0  0  0  0  0  0  0  0  0
   40.3320   30.8010   39.2310 H   0  0  0  0  0  0  0  0  0  0  0  0
   41.9820   32.6600   39.6150 H   0  0  0  0  0  0  0  0  0  0  0  0
   41.1700   34.9630   40.0910 H   0  0  0  0  0  0  0  0  0  0  0  0
   38.7180   35.4120   40.1850 H   0  0  0  0  0  0  0  0  0  0  0  0
   36.6460   27.6690   41.7930 C   0  0  0  0  0  0  0  0  0  0  0  0
   36.7530   27.2780   43.0160 O   0  0  0  0  0  0  0  0  0  0  0  0
   37.5110   26.9540   40.9190 N   0  0  0  0  0  0  0  0  0  0  0  0
   37.5420   27.0970   39.9120 H   0  0  0  0  0  0  0  0  0  0  0  0
   38.3070   26.0240   41.6940 C   0  0  0  0  0  0  0  0  0  0  0  0
   38.0460   24.6990   41.8840 C   0  0  0  0  0  0  0  0  0  0  0  0
   38.9320   23.9890   42.6560 C   0  0  0  0  0  0  0  0  0  0  0  0
   39.9960   24.6560   43.1680 N   0  0  0  0  0  0  0  0  0  0  0  0
   40.2260   25.9680   42.9600 C   0  0  0  0  0  0  0  0  0  0  0  0
   39.3630   26.6770   42.2040 N   0  0  0  0  0  0  0  0  0  0  0  0
   38.7480   22.9430   42.8210 H   0  0  0  0  0  0  0  0  0  0  0  0
   41.4180   26.5450   43.5800 C   0  0  0  0  0  0  0  0  0  0  0  0
   41.6000   27.9270   43.4880 C   0  0  0  0  0  0  0  0  0  0  0  0
   40.9780   28.6960   43.0090 H   0  0  0  0  0  0  0  0  0  0  0  0
   42.8020   28.1820   44.1610 C   0  0  0  0  0  0  0  0  0  0  0  0
   43.2110   29.1830   44.2570 H   0  0  0  0  0  0  0  0  0  0  0  0
   43.2670   26.9410   44.6150 C   0  0  0  0  0  0  0  0  0  0  0  0
   44.1870   26.8270   45.1740 H   0  0  0  0  0  0  0  0  0  0  0  0
   42.4250   26.0300   44.2490 O   0  0  0  0  0  0  0  0  0  0  0  0
   36.8960   24.1720   41.2780 N   0  0  0  0  0  0  0  0  0  0  0  0
   36.0440   24.7350   41.1030 H   0  0  0  0  0  0  0  0  0  0  0  0
   36.8430   23.1580   40.9650 H   0  0  0  0  0  0  0  0  0  0  0  0
  1 23  1  0  0  0  0
  3  2  1  0  0  0  0
  4  3  1  0  0  0  0
  4  1  1  0  0  0  0
  5  4  2  0  0  0  0
  6  7  2  0  0  0  0
  6  5  1  0  0  0  0
  7  9  1  0  0  0  0
  8  7  1  0  0  0  0
  9 14  1  0  0  0  0
  9  3  2  0  0  0  0
 10  5  1  0  0  0  0
 11  6  1  0  0  0  0
 13 12  1  0  0  0  0
 13 18  1  0  0  0  0
 14 13  2  0  0  0  0
 15 14  1  0  0  0  0
 15 16  2  0  0  0  0
 16 17  1  0  0  0  0
 17 18  2  0  0  0  0
 17 21  1  0  0  0  0
 18 22  1  0  0  0  0
 19 15  1  0  0  0  0
 20 16  1  0  0  0  0
 23 24  2  0  0  0  0
 25 27  1  0  0  0  0
 25 23  1  0  0  0  0
 26 25  1  0  0  0  0
 27 28  2  0  0  0  0
 27 32  1  0  0  0  0
 28 29  1  0  0  0  0
 29 33  1  0  0  0  0
 29 30  2  0  0  0  0
 31 30  1  0  0  0  0
 31 34  1  0  0  0  0
 32 31  2  0  0  0  0
 34 41  1  0  0  0  0
 35 34  2  0  0  0  0
 35 37  1  0  0  0  0
 36 35  1  0  0  0  0
 37 38  1  0  0  0  0
 37 39  2  0  0  0  0
 39 40  1  0  0  0  0
 41 39  1  0  0  0  0
 42 28  1  0  0  0  0
 43 42  1  0  0  0  0
 44 42  1  0  0  0  0
M  END
>  <minimizedAffinity>
-6.45663738

$$$$

 OpenBabel03252501433D

 44 47  0  0  0  0  0  0  0  0999 V2000
   38.8790   32.7600   38.7670 O   0  0  0  0  0  0  0  0  0  0  0  0
   37.2500   30.9650   37.0440 Cl  0  0  0  0  0  0  0  0  0  0  0  0
   37.5320   30.8040   38.7710 C   0  0  0  0  0  0  0  0  0  0  0  0
   38.3130   31.6980   39.4960 C   0  0  0  0  0  0  0  0  0  0  0  0
   38.4970   31.5260   40.8290 C   0  0  0  0  0  0  0  0  0  0  0  0
   37.9410   30.4830   41.5450 C   0  0  0  0  0  0  0  0  0  0  0  0
   37.1440   29.5600   40.8360 C   0  0  0  0  0  0  0  0  0  0  0  0
   36.3940   28.2010   41.6560 Cl  0  0  0  0  0  0  0  0  0  0  0  0
   36.9800   29.7680   39.4800 C   0  0  0  0  0  0  0  0  0  0  0  0
   39.1180   32.2590   41.3430 H   0  0  0  0  0  0  0  0  0  0  0  0
   38.0900   30.3520   42.5990 H   0  0  0  0  0  0  0  0  0  0  0  0
   38.1020   27.5060   38.4550 F   0  0  0  0  0  0  0  0  0  0  0  0
   36.7570   27.6790   38.2270 C   0  0  0  0  0  0  0  0  0  0  0  0
   36.1560   28.8170   38.7330 C   0  0  0  0  0  0  0  0  0  0  0  0
   34.7880   28.9610   38.4820 C   0  0  0  0  0  0  0  0  0  0  0  0
   34.1250   27.9830   37.7590 C   0  0  0  0  0  0  0  0  0  0  0  0
   34.7920   26.8560   37.2750 C   0  0  0  0  0  0  0  0  0  0  0  0
   36.1500   26.6820   37.5070 C   0  0  0  0  0  0  0  0  0  0  0  0
   34.3330   29.8470   38.8790 H   0  0  0  0  0  0  0  0  0  0  0  0
   33.0730   28.1060   37.5730 H   0  0  0  0  0  0  0  0  0  0  0  0
   34.2610   26.0970   36.7110 H   0  0  0  0  0  0  0  0  0  0  0  0
   36.7020   25.8250   37.1500 H   0  0  0  0  0  0  0  0  0  0  0  0
   40.2610   32.9470   38.8530 C   0  0  0  0  0  0  0  0  0  0  0  0
   41.1710   32.0370   38.7840 O   0  0  0  0  0  0  0  0  0  0  0  0
   40.8100   34.2460   39.0340 N   0  0  0  0  0  0  0  0  0  0  0  0
   40.2520   35.0960   39.0760 H   0  0  0  0  0  0  0  0  0  0  0  0
   42.2520   34.1430   39.1450 C   0  0  0  0  0  0  0  0  0  0  0  0
   43.1470   34.1860   38.1180 C   0  0  0  0  0  0  0  0  0  0  0  0
   44.4770   34.0700   38.4390 C   0  0  0  0  0  0  0  0  0  0  0  0
   44.7980   33.9240   39.7480 N   0  0  0  0  0  0  0  0  0  0  0  0
   43.8880   33.8860   40.7410 C   0  0  0  0  0  0  0  0  0  0  0  0
   42.5780   33.9990   40.4400 N   0  0  0  0  0  0  0  0  0  0  0  0
   45.2030   34.1000   37.6470 H   0  0  0  0  0  0  0  0  0  0  0  0
   44.3900   33.7240   42.1050 C   0  0  0  0  0  0  0  0  0  0  0  0
   44.3100   32.4560   42.6850 C   0  0  0  0  0  0  0  0  0  0  0  0
   43.9170   31.5130   42.2820 H   0  0  0  0  0  0  0  0  0  0  0  0
   44.8570   32.6070   43.9670 C   0  0  0  0  0  0  0  0  0  0  0  0
   44.9310   31.7800   44.6660 H   0  0  0  0  0  0  0  0  0  0  0  0
   45.2300   33.9520   44.0770 C   0  0  0  0  0  0  0  0  0  0  0  0
   45.6860   34.3650   44.9680 H   0  0  0  0  0  0  0  0  0  0  0  0
   44.9360   34.5500   42.9690 O   0  0  0  0  0  0  0  0  0  0  0  0
   42.6370   34.3430   36.8200 N   0  0  0  0  0  0  0  0  0  0  0  0
   41.7050   33.9900   36.5360 H   0  0  0  0  0  0  0  0  0  0  0  0
   43.1890   34.8370   36.0580 H   0  0  0  0  0  0  0  0  0  0  0  0
  1 23  1  0  0  0  0
  1  4  1  0  0  0  0
  2  3  1  0  0  0  0
  3  9  2  0  0  0  0
  3  4  1  0  0  0  0
  4  5  2  0  0  0  0
  5 10  1  0  0  0  0
  5  6  1  0  0  0  0
  6 11  1  0  0  0  0
  7  6  2  0  0  0  0
  7  8  1  0  0  0  0
  9  7  1  0  0  0  0
 13 12  1  0  0  0  0
 13 14  1  0  0  0  0
 14  9  1  0  0  0  0
 15 14  2  0  0  0  0
 15 19  1  0  0  0  0
 16 15  1  0  0  0  0
 17 18  1  0  0  0  0
 17 16  2  0  0  0  0
 18 13  2  0  0  0  0
 20 16  1  0  0  0  0
 21 17  1  0  0  0  0
 22 18  1  0  0  0  0
 23 25  1  0  0  0  0
 24 23  2  0  0  0  0
 25 26  1  0  0  0  0
 25 27  1  0  0  0  0
 27 32  1  0  0  0  0
 28 29  1  0  0  0  0
 28 27  2  0  0  0  0
 29 30  2  0  0  0  0
 30 31  1  0  0  0  0
 31 34  1  0  0  0  0
 32 31  2  0  0  0  0
 33 29  1  0  0  0  0
 34 35  2  0  0  0  0
 34 41  1  0  0  0  0
 35 37  1  0  0  0  0
 36 35  1  0  0  0  0
 37 39  2  0  0  0  0
 37 38  1  0  0  0  0
 39 40  1  0  0  0  0
 41 39  1  0  0  0  0
 42 28  1  0  0  0  0
 43 42  1  0  0  0  0
 44 42  1  0  0  0  0
M  END
>  <minimizedAffinity>
-6.42876625

$$$$
