
 OpenBabel03252508543D

 42 45  0  0  1  0  0  0  0  0999 V2000
   43.2620   34.3880   40.6750 C   0  0  0  0  0  0  0  0  0  0  0  0
   43.2270   35.5190   40.1130 O   0  0  0  0  0  0  0  0  0  0  0  0
   41.8930   33.9720   40.4750 N   0  0  0  0  0  0  0  0  0  0  0  0
   41.4650   33.8620   39.0980 C   0  0  0  0  0  0  0  0  0  0  0  0
   40.6880   35.1640   38.8200 C   0  0  0  0  0  0  0  0  0  0  0  0
   39.9410   35.4880   40.1040 C   0  0  0  0  0  0  0  0  0  0  0  0
   39.5790   34.2200   40.8840 C   0  0  0  0  0  0  0  0  0  0  0  0
   40.8600   33.6410   41.4570 C   0  0  1  0  0  0  0  0  0  0  0  0
   40.7880   32.9850   38.9830 H   0  0  0  0  0  0  0  0  0  0  0  0
   42.2940   33.8150   38.3870 H   0  0  0  0  0  0  0  0  0  0  0  0
   41.4200   35.9700   38.5970 H   0  0  0  0  0  0  0  0  0  0  0  0
   39.9530   35.0020   38.0130 H   0  0  0  0  0  0  0  0  0  0  0  0
   39.0590   36.1030   39.9200 H   0  0  0  0  0  0  0  0  0  0  0  0
   40.6070   36.0880   40.7840 H   0  0  0  0  0  0  0  0  0  0  0  0
   39.1370   33.4890   40.2120 H   0  0  0  0  0  0  0  0  0  0  0  0
   38.9190   34.5760   41.7020 H   0  0  0  0  0  0  0  0  0  0  0  0
   41.1030   34.2580   42.3530 H   0  0  0  0  0  0  0  0  0  0  0  0
   40.7930   32.2080   41.7330 C   0  0  0  0  0  0  0  0  0  0  0  0
   39.7090   31.3550   41.6090 C   0  0  0  0  0  0  0  0  0  0  0  0
   38.7190   31.6190   41.2820 H   0  0  0  0  0  0  0  0  0  0  0  0
   40.1870   30.1180   41.9930 C   0  0  0  0  0  0  0  0  0  0  0  0
   39.6380   29.1840   42.0340 H   0  0  0  0  0  0  0  0  0  0  0  0
   41.5320   30.3040   42.3260 C   0  0  0  0  0  0  0  0  0  0  0  0
   42.1990   29.5160   42.6710 H   0  0  0  0  0  0  0  0  0  0  0  0
   41.8780   31.5770   42.1610 O   0  0  0  0  0  0  0  0  0  0  0  0
   44.3230   33.7690   41.2880 O   0  0  0  0  0  0  0  0  0  0  0  0
   45.6540   34.0860   41.1190 C   0  0  0  0  0  0  0  0  0  0  0  0
   46.3140   34.7160   42.1850 C   0  0  0  0  0  0  0  0  0  0  0  0
   47.6740   35.0230   41.9730 C   0  0  0  0  0  0  0  0  0  0  0  0
   48.2500   34.6940   40.7730 N   0  0  0  0  0  0  0  0  0  0  0  0
   47.5670   34.0990   39.8090 C   0  0  0  0  0  0  0  0  0  0  0  0
   46.2670   33.7860   39.9600 N   0  0  0  0  0  0  0  0  0  0  0  0
   48.2130   35.5070   42.7690 H   0  0  0  0  0  0  0  0  0  0  0  0
   48.0060   33.8320   38.8520 H   0  0  0  0  0  0  0  0  0  0  0  0
   45.6060   35.0140   43.4060 C   0  0  0  0  0  0  0  0  0  0  0  0
   44.9840   36.2400   43.6250 C   0  0  0  0  0  0  0  0  0  0  0  0
   44.4410   36.1010   44.8860 C   0  0  0  0  0  0  0  0  0  0  0  0
   44.7160   34.8770   45.3900 N   0  0  0  0  0  0  0  0  0  0  0  0
   45.4210   34.2360   44.4780 N   0  0  0  0  0  0  0  0  0  0  0  0
   44.9260   37.1060   42.9830 H   0  0  0  0  0  0  0  0  0  0  0  0
   43.8590   36.8630   45.4290 H   0  0  0  0  0  0  0  0  0  0  0  0
   44.4620   34.4370   46.3080 H   0  0  0  0  0  0  0  0  0  0  0  0
  1 26  1  0  0  0  0
  2  1  2  0  0  0  0
  3  1  1  0  0  0  0
  3  8  1  0  0  0  0
  4  3  1  0  0  0  0
  5  4  1  0  0  0  0
  5  6  1  0  0  0  0
  6 14  1  0  0  0  0
  6  7  1  0  0  0  0
  7  8  1  0  0  0  0
  7 16  1  0  0  0  0
  8 18  1  0  0  0  0
  8 17  1  1  0  0  0
  9  4  1  0  0  0  0
 10  4  1  0  0  0  0
 11  5  1  0  0  0  0
 12  5  1  0  0  0  0
 13  6  1  0  0  0  0
 15  7  1  0  0  0  0
 18 25  1  0  0  0  0
 19 18  2  0  0  0  0
 19 21  1  0  0  0  0
 20 19  1  0  0  0  0
 21 22  1  0  0  0  0
 21 23  2  0  0  0  0
 23 24  1  0  0  0  0
 25 23  1  0  0  0  0
 27 26  1  0  0  0  0
 27 28  1  0  0  0  0
 28 35  1  0  0  0  0
 29 28  2  0  0  0  0
 29 33  1  0  0  0  0
 30 29  1  0  0  0  0
 31 32  1  0  0  0  0
 31 30  2  0  0  0  0
 32 27  2  0  0  0  0
 34 31  1  0  0  0  0
 35 36  1  0  0  0  0
 35 39  2  0  0  0  0
 36 37  2  0  0  0  0
 37 38  1  0  0  0  0
 37 41  1  0  0  0  0
 38 42  1  0  0  0  0
 39 38  1  0  0  0  0
 40 36  1  0  0  0  0
M  END
>  <minimizedAffinity>
-6.56056023

>  <minimizedRMSD>
0.623293698

$$$$
