
 OpenBabel03252506113D

 29 31  0  0  0  0  0  0  0  0999 V2000
   39.3190   29.8450   41.7920 F   0  0  0  0  0  0  0  0  0  0  0  0
   38.0530   29.6190   41.4240 C   0  0  0  0  0  0  0  0  0  0  0  0
   37.5050   28.3630   41.6070 C   0  0  0  0  0  0  0  0  0  0  0  0
   36.2080   28.0690   41.2480 C   0  0  0  0  0  0  0  0  0  0  0  0
   35.3950   29.0370   40.6830 C   0  0  0  0  0  0  0  0  0  0  0  0
   35.9890   30.2780   40.5210 C   0  0  0  0  0  0  0  0  0  0  0  0
   37.2740   30.6130   40.8620 C   0  0  0  0  0  0  0  0  0  0  0  0
   35.8000   27.0650   41.4050 H   0  0  0  0  0  0  0  0  0  0  0  0
   34.3810   28.8580   40.3880 H   0  0  0  0  0  0  0  0  0  0  0  0
   35.4080   31.0860   40.0810 H   0  0  0  0  0  0  0  0  0  0  0  0
   38.8160   25.0180   42.3820 C   0  0  0  0  0  0  0  0  0  0  0  0
   39.8260   25.3130   43.3180 C   0  0  0  0  0  0  0  0  0  0  0  0
   40.0560   26.6630   43.6800 C   0  0  0  0  0  0  0  0  0  0  0  0
   39.2570   27.6000   43.0780 N   0  0  0  0  0  0  0  0  0  0  0  0
   38.3120   27.2920   42.2000 C   0  0  0  0  0  0  0  0  0  0  0  0
   38.1050   26.0190   41.8660 N   0  0  0  0  0  0  0  0  0  0  0  0
   40.4010   24.5180   43.7370 H   0  0  0  0  0  0  0  0  0  0  0  0
   40.8210   26.9160   44.3910 H   0  0  0  0  0  0  0  0  0  0  0  0
   38.5910   23.6640   42.0240 N   0  0  0  0  0  0  0  0  0  0  0  0
   38.3100   23.5250   41.0170 H   0  0  0  0  0  0  0  0  0  0  0  0
   38.6800   22.8300   42.6550 H   0  0  0  0  0  0  0  0  0  0  0  0
   37.8100   31.9380   40.6560 C   0  0  0  0  0  0  0  0  0  0  0  0
   37.3240   32.8400   39.7330 C   0  0  0  0  0  0  0  0  0  0  0  0
   36.5220   32.7570   39.0420 H   0  0  0  0  0  0  0  0  0  0  0  0
   38.1010   33.9710   39.8490 C   0  0  0  0  0  0  0  0  0  0  0  0
   38.1140   34.9280   39.3560 H   0  0  0  0  0  0  0  0  0  0  0  0
   39.0310   33.7160   40.8340 C   0  0  0  0  0  0  0  0  0  0  0  0
   39.8520   34.2330   41.3150 H   0  0  0  0  0  0  0  0  0  0  0  0
   38.8020   32.5040   41.2650 O   0  0  0  0  0  0  0  0  0  0  0  0
  2  3  1  0  0  0  0
  2  1  1  0  0  0  0
  3 15  1  0  0  0  0
  4  8  1  0  0  0  0
  4  3  2  0  0  0  0
  5  4  1  0  0  0  0
  6  5  2  0  0  0  0
  6  7  1  0  0  0  0
  7  2  2  0  0  0  0
  9  5  1  0  0  0  0
 10  6  1  0  0  0  0
 11 12  1  0  0  0  0
 12 13  2  0  0  0  0
 12 17  1  0  0  0  0
 13 18  1  0  0  0  0
 14 13  1  0  0  0  0
 15 14  2  0  0  0  0
 16 15  1  0  0  0  0
 16 11  2  0  0  0  0
 19 11  1  0  0  0  0
 19 21  1  0  0  0  0
 20 19  1  0  0  0  0
 22  7  1  0  0  0  0
 22 29  1  0  0  0  0
 23 25  1  0  0  0  0
 23 22  2  0  0  0  0
 24 23  1  0  0  0  0
 25 27  2  0  0  0  0
 26 25  1  0  0  0  0
 27 29  1  0  0  0  0
 27 28  1  0  0  0  0
M  END
>  <minimizedAffinity>
-5.83455467

$$$$

 OpenBabel03252506113D

 29 31  0  0  0  0  0  0  0  0999 V2000
   40.2570   30.7080   41.2760 F   0  0  0  0  0  0  0  0  0  0  0  0
   39.1580   31.3120   40.8120 C   0  0  0  0  0  0  0  0  0  0  0  0
   39.2820   32.4450   40.0300 C   0  0  0  0  0  0  0  0  0  0  0  0
   38.1880   33.1110   39.5230 C   0  0  0  0  0  0  0  0  0  0  0  0
   36.9050   32.6610   39.7820 C   0  0  0  0  0  0  0  0  0  0  0  0
   36.8320   31.5230   40.5690 C   0  0  0  0  0  0  0  0  0  0  0  0
   37.8930   30.8310   41.0940 C   0  0  0  0  0  0  0  0  0  0  0  0
   38.3170   34.0070   38.9060 H   0  0  0  0  0  0  0  0  0  0  0  0
   36.0240   33.1430   39.4110 H   0  0  0  0  0  0  0  0  0  0  0  0
   35.8540   31.1140   40.8130 H   0  0  0  0  0  0  0  0  0  0  0  0
   42.1440   33.7700   38.1410 C   0  0  0  0  0  0  0  0  0  0  0  0
   43.0980   33.9620   39.1590 C   0  0  0  0  0  0  0  0  0  0  0  0
   42.7550   33.6360   40.4940 C   0  0  0  0  0  0  0  0  0  0  0  0
   41.4910   33.1470   40.6970 N   0  0  0  0  0  0  0  0  0  0  0  0
   40.6130   32.9760   39.7180 C   0  0  0  0  0  0  0  0  0  0  0  0
   40.9460   33.2860   38.4660 N   0  0  0  0  0  0  0  0  0  0  0  0
   44.0600   34.3490   38.9090 H   0  0  0  0  0  0  0  0  0  0  0  0
   43.4650   33.7740   41.2900 H   0  0  0  0  0  0  0  0  0  0  0  0
   42.4930   34.0980   36.8060 N   0  0  0  0  0  0  0  0  0  0  0  0
   41.6970   34.4860   36.2340 H   0  0  0  0  0  0  0  0  0  0  0  0
   43.4400   33.9890   36.3660 H   0  0  0  0  0  0  0  0  0  0  0  0
   37.7220   29.6490   41.9060 C   0  0  0  0  0  0  0  0  0  0  0  0
   37.0630   28.5090   41.4950 C   0  0  0  0  0  0  0  0  0  0  0  0
   36.5860   28.2820   40.5740 H   0  0  0  0  0  0  0  0  0  0  0  0
   37.1190   27.6260   42.5490 C   0  0  0  0  0  0  0  0  0  0  0  0
   36.7570   26.6250   42.7130 H   0  0  0  0  0  0  0  0  0  0  0  0
   37.8070   28.2590   43.5630 C   0  0  0  0  0  0  0  0  0  0  0  0
   38.1290   28.0380   44.5730 H   0  0  0  0  0  0  0  0  0  0  0  0
   38.1320   29.4430   43.1170 O   0  0  0  0  0  0  0  0  0  0  0  0
  2  7  1  0  0  0  0
  2  1  1  0  0  0  0
  3  2  2  0  0  0  0
  4  5  2  0  0  0  0
  4  3  1  0  0  0  0
  5  6  1  0  0  0  0
  6 10  1  0  0  0  0
  6  7  2  0  0  0  0
  7 22  1  0  0  0  0
  8  4  1  0  0  0  0
  9  5  1  0  0  0  0
 11 16  2  0  0  0  0
 11 12  1  0  0  0  0
 12 13  2  0  0  0  0
 13 14  1  0  0  0  0
 13 18  1  0  0  0  0
 15  3  1  0  0  0  0
 15 14  2  0  0  0  0
 16 15  1  0  0  0  0
 17 12  1  0  0  0  0
 19 11  1  0  0  0  0
 20 19  1  0  0  0  0
 21 19  1  0  0  0  0
 22 29  1  0  0  0  0
 23 22  2  0  0  0  0
 23 25  1  0  0  0  0
 24 23  1  0  0  0  0
 25 26  1  0  0  0  0
 25 27  2  0  0  0  0
 27 28  1  0  0  0  0
 29 27  1  0  0  0  0
M  END
>  <minimizedAffinity>
-5.71895456

$$$$

 OpenBabel03252506113D

 29 31  0  0  0  0  0  0  0  0999 V2000
   39.9240   29.3130   40.1710 F   0  0  0  0  0  0  0  0  0  0  0  0
   38.9490   30.2240   40.0710 C   0  0  0  0  0  0  0  0  0  0  0  0
   39.0860   31.2720   39.1810 C   0  0  0  0  0  0  0  0  0  0  0  0
   38.1170   32.2400   39.0330 C   0  0  0  0  0  0  0  0  0  0  0  0
   36.9540   32.1960   39.7820 C   0  0  0  0  0  0  0  0  0  0  0  0
   36.8630   31.1270   40.6580 C   0  0  0  0  0  0  0  0  0  0  0  0
   37.8020   30.1440   40.8380 C   0  0  0  0  0  0  0  0  0  0  0  0
   38.2530   33.0600   38.3190 H   0  0  0  0  0  0  0  0  0  0  0  0
   36.1730   32.9240   39.7020 H   0  0  0  0  0  0  0  0  0  0  0  0
   35.9750   31.0310   41.2790 H   0  0  0  0  0  0  0  0  0  0  0  0
   41.8550   32.7090   37.2370 C   0  0  0  0  0  0  0  0  0  0  0  0
   42.5460   31.5540   36.8220 C   0  0  0  0  0  0  0  0  0  0  0  0
   42.0580   30.2830   37.2110 C   0  0  0  0  0  0  0  0  0  0  0  0
   40.9250   30.2750   37.9800 N   0  0  0  0  0  0  0  0  0  0  0  0
   40.2940   31.3790   38.3570 C   0  0  0  0  0  0  0  0  0  0  0  0
   40.7620   32.5700   37.9860 N   0  0  0  0  0  0  0  0  0  0  0  0
   43.4230   31.6560   36.2220 H   0  0  0  0  0  0  0  0  0  0  0  0
   42.5670   29.3860   36.9080 H   0  0  0  0  0  0  0  0  0  0  0  0
   42.3490   33.9800   36.8440 N   0  0  0  0  0  0  0  0  0  0  0  0
   42.2150   34.7370   37.5650 H   0  0  0  0  0  0  0  0  0  0  0  0
   42.8150   34.2110   35.9330 H   0  0  0  0  0  0  0  0  0  0  0  0
   37.6210   29.0630   41.7790 C   0  0  0  0  0  0  0  0  0  0  0  0
   37.7740   29.1850   43.1440 C   0  0  0  0  0  0  0  0  0  0  0  0
   38.0330   30.0260   43.7380 H   0  0  0  0  0  0  0  0  0  0  0  0
   37.5170   27.9420   43.6760 C   0  0  0  0  0  0  0  0  0  0  0  0
   37.5080   27.5370   44.6740 H   0  0  0  0  0  0  0  0  0  0  0  0
   37.2190   27.1090   42.6180 C   0  0  0  0  0  0  0  0  0  0  0  0
   36.9510   26.0710   42.4650 H   0  0  0  0  0  0  0  0  0  0  0  0
   37.2990   27.8340   41.5340 O   0  0  0  0  0  0  0  0  0  0  0  0
  2  1  1  0  0  0  0
  2  7  1  0  0  0  0
  3  2  2  0  0  0  0
  4  3  1  0  0  0  0
  4  5  2  0  0  0  0
  5  6  1  0  0  0  0
  6  7  2  0  0  0  0
  6 10  1  0  0  0  0
  7 22  1  0  0  0  0
  8  4  1  0  0  0  0
  9  5  1  0  0  0  0
 11 16  1  0  0  0  0
 12 13  1  0  0  0  0
 12 11  2  0  0  0  0
 13 14  2  0  0  0  0
 14 15  1  0  0  0  0
 15  3  1  0  0  0  0
 16 15  2  0  0  0  0
 17 12  1  0  0  0  0
 18 13  1  0  0  0  0
 19 11  1  0  0  0  0
 19 20  1  0  0  0  0
 21 19  1  0  0  0  0
 22 23  2  0  0  0  0
 23 25  1  0  0  0  0
 23 24  1  0  0  0  0
 25 26  1  0  0  0  0
 27 25  2  0  0  0  0
 28 27  1  0  0  0  0
 29 22  1  0  0  0  0
 29 27  1  0  0  0  0
M  END
>  <minimizedAffinity>
-5.65692568

$$$$

 OpenBabel03252506113D

 29 31  0  0  0  0  0  0  0  0999 V2000
   37.8640   28.2840   39.6300 F   0  0  0  0  0  0  0  0  0  0  0  0
   37.6080   28.0730   40.9260 C   0  0  0  0  0  0  0  0  0  0  0  0
   37.8080   29.0950   41.8340 C   0  0  0  0  0  0  0  0  0  0  0  0
   37.5620   28.9390   43.1810 C   0  0  0  0  0  0  0  0  0  0  0  0
   37.1000   27.7330   43.6790 C   0  0  0  0  0  0  0  0  0  0  0  0
   36.9160   26.7400   42.7300 C   0  0  0  0  0  0  0  0  0  0  0  0
   37.1480   26.8530   41.3830 C   0  0  0  0  0  0  0  0  0  0  0  0
   37.7290   29.7670   43.8780 H   0  0  0  0  0  0  0  0  0  0  0  0
   36.8950   27.5620   44.7160 H   0  0  0  0  0  0  0  0  0  0  0  0
   36.5550   25.7660   43.0520 H   0  0  0  0  0  0  0  0  0  0  0  0
   37.8630   32.4920   40.4310 C   0  0  0  0  0  0  0  0  0  0  0  0
   39.2300   32.8190   40.5210 C   0  0  0  0  0  0  0  0  0  0  0  0
   40.1310   31.8700   41.0640 C   0  0  0  0  0  0  0  0  0  0  0  0
   39.5890   30.6790   41.4700 N   0  0  0  0  0  0  0  0  0  0  0  0
   38.2970   30.3980   41.3730 C   0  0  0  0  0  0  0  0  0  0  0  0
   37.4580   31.2990   40.8610 N   0  0  0  0  0  0  0  0  0  0  0  0
   39.5640   33.7730   40.1790 H   0  0  0  0  0  0  0  0  0  0  0  0
   41.1790   32.0950   41.1440 H   0  0  0  0  0  0  0  0  0  0  0  0
   36.9660   33.4470   39.8870 N   0  0  0  0  0  0  0  0  0  0  0  0
   36.0110   33.4450   40.3330 H   0  0  0  0  0  0  0  0  0  0  0  0
   37.1730   34.1230   39.1110 H   0  0  0  0  0  0  0  0  0  0  0  0
   36.9270   25.7600   40.4650 C   0  0  0  0  0  0  0  0  0  0  0  0
   37.4690   24.5000   40.6080 C   0  0  0  0  0  0  0  0  0  0  0  0
   38.1060   24.1040   41.3590 H   0  0  0  0  0  0  0  0  0  0  0  0
   37.0210   23.7600   39.5370 C   0  0  0  0  0  0  0  0  0  0  0  0
   37.1650   22.7440   39.2110 H   0  0  0  0  0  0  0  0  0  0  0  0
   36.2260   24.5950   38.7810 C   0  0  0  0  0  0  0  0  0  0  0  0
   35.6420   24.5390   37.8700 H   0  0  0  0  0  0  0  0  0  0  0  0
   36.2140   25.7540   39.3850 O   0  0  0  0  0  0  0  0  0  0  0  0
  1  2  1  0  0  0  0
  2  7  2  0  0  0  0
  2  3  1  0  0  0  0
  3  4  2  0  0  0  0
  4  5  1  0  0  0  0
  4  8  1  0  0  0  0
  5  9  1  0  0  0  0
  6 10  1  0  0  0  0
  6  5  2  0  0  0  0
  7  6  1  0  0  0  0
 11 12  2  0  0  0  0
 11 16  1  0  0  0  0
 12 13  1  0  0  0  0
 13 18  1  0  0  0  0
 13 14  2  0  0  0  0
 15 14  1  0  0  0  0
 15  3  1  0  0  0  0
 16 15  2  0  0  0  0
 17 12  1  0  0  0  0
 19 20  1  0  0  0  0
 19 11  1  0  0  0  0
 21 19  1  0  0  0  0
 22 23  2  0  0  0  0
 22  7  1  0  0  0  0
 23 24  1  0  0  0  0
 25 23  1  0  0  0  0
 26 25  1  0  0  0  0
 27 29  1  0  0  0  0
 27 25  2  0  0  0  0
 28 27  1  0  0  0  0
 29 22  1  0  0  0  0
M  END
>  <minimizedAffinity>
-5.59427595

$$$$

 OpenBabel03252506113D

 29 31  0  0  0  0  0  0  0  0999 V2000
   40.0510   28.9780   41.2610 F   0  0  0  0  0  0  0  0  0  0  0  0
   38.7150   28.9440   41.2130 C   0  0  0  0  0  0  0  0  0  0  0  0
   38.0270   30.0090   40.6630 C   0  0  0  0  0  0  0  0  0  0  0  0
   36.6520   30.0330   40.5850 C   0  0  0  0  0  0  0  0  0  0  0  0
   35.8990   28.9730   41.0620 C   0  0  0  0  0  0  0  0  0  0  0  0
   36.6340   27.9310   41.6030 C   0  0  0  0  0  0  0  0  0  0  0  0
   38.0000   27.8670   41.7010 C   0  0  0  0  0  0  0  0  0  0  0  0
   36.1330   30.8900   40.1440 H   0  0  0  0  0  0  0  0  0  0  0  0
   34.8290   28.9450   41.0240 H   0  0  0  0  0  0  0  0  0  0  0  0
   36.1060   27.0650   41.9980 H   0  0  0  0  0  0  0  0  0  0  0  0
   39.7590   32.2670   38.3360 C   0  0  0  0  0  0  0  0  0  0  0  0
   40.1360   33.3240   39.1870 C   0  0  0  0  0  0  0  0  0  0  0  0
   39.7940   33.2590   40.5600 C   0  0  0  0  0  0  0  0  0  0  0  0
   39.1060   32.1450   40.9640 N   0  0  0  0  0  0  0  0  0  0  0  0
   38.7640   31.1640   40.1400 C   0  0  0  0  0  0  0  0  0  0  0  0
   39.0900   31.2360   38.8500 N   0  0  0  0  0  0  0  0  0  0  0  0
   40.6710   34.1550   38.7850 H   0  0  0  0  0  0  0  0  0  0  0  0
   40.0690   34.0530   41.2300 H   0  0  0  0  0  0  0  0  0  0  0  0
   40.1050   32.3380   36.9620 N   0  0  0  0  0  0  0  0  0  0  0  0
   39.3870   31.9180   36.3140 H   0  0  0  0  0  0  0  0  0  0  0  0
   40.9780   32.7590   36.5620 H   0  0  0  0  0  0  0  0  0  0  0  0
   38.6820   26.7350   42.2820 C   0  0  0  0  0  0  0  0  0  0  0  0
   39.3580   26.7650   43.4850 C   0  0  0  0  0  0  0  0  0  0  0  0
   39.5040   27.5590   44.1750 H   0  0  0  0  0  0  0  0  0  0  0  0
   39.8620   25.4990   43.6790 C   0  0  0  0  0  0  0  0  0  0  0  0
   40.4480   25.0330   44.4530 H   0  0  0  0  0  0  0  0  0  0  0  0
   39.4780   24.7460   42.5910 C   0  0  0  0  0  0  0  0  0  0  0  0
   39.5940   23.7280   42.2390 H   0  0  0  0  0  0  0  0  0  0  0  0
   38.7880   25.5340   41.8100 O   0  0  0  0  0  0  0  0  0  0  0  0
  2  1  1  0  0  0  0
  2  7  1  0  0  0  0
  3  2  2  0  0  0  0
  4  3  1  0  0  0  0
  4  5  2  0  0  0  0
  5  6  1  0  0  0  0
  6  7  2  0  0  0  0
  6 10  1  0  0  0  0
  7 22  1  0  0  0  0
  8  4  1  0  0  0  0
  9  5  1  0  0  0  0
 11 16  2  0  0  0  0
 11 12  1  0  0  0  0
 12 13  2  0  0  0  0
 13 14  1  0  0  0  0
 13 18  1  0  0  0  0
 15  3  1  0  0  0  0
 15 14  2  0  0  0  0
 16 15  1  0  0  0  0
 17 12  1  0  0  0  0
 19 11  1  0  0  0  0
 20 19  1  0  0  0  0
 21 19  1  0  0  0  0
 22 23  2  0  0  0  0
 23 25  1  0  0  0  0
 23 24  1  0  0  0  0
 25 26  1  0  0  0  0
 27 25  2  0  0  0  0
 28 27  1  0  0  0  0
 29 22  1  0  0  0  0
 29 27  1  0  0  0  0
M  END
>  <minimizedAffinity>
-5.36041594

$$$$

 OpenBabel03252506113D

 29 31  0  0  0  0  0  0  0  0999 V2000
   39.4420   27.6480   41.3180 F   0  0  0  0  0  0  0  0  0  0  0  0
   38.8410   26.4750   41.5490 C   0  0  0  0  0  0  0  0  0  0  0  0
   37.5140   26.3100   41.2000 C   0  0  0  0  0  0  0  0  0  0  0  0
   36.8410   25.1270   41.4130 C   0  0  0  0  0  0  0  0  0  0  0  0
   37.4810   24.0440   41.9920 C   0  0  0  0  0  0  0  0  0  0  0  0
   38.8090   24.2590   42.3230 C   0  0  0  0  0  0  0  0  0  0  0  0
   39.5160   25.4180   42.1300 C   0  0  0  0  0  0  0  0  0  0  0  0
   35.7890   25.0250   41.1260 H   0  0  0  0  0  0  0  0  0  0  0  0
   37.0010   23.1060   42.1770 H   0  0  0  0  0  0  0  0  0  0  0  0
   39.3730   23.4510   42.7830 H   0  0  0  0  0  0  0  0  0  0  0  0
   35.9100   29.5830   40.7210 C   0  0  0  0  0  0  0  0  0  0  0  0
   35.4000   29.4650   39.4130 C   0  0  0  0  0  0  0  0  0  0  0  0
   35.6090   28.2610   38.6980 C   0  0  0  0  0  0  0  0  0  0  0  0
   36.3080   27.2790   39.3500 N   0  0  0  0  0  0  0  0  0  0  0  0
   36.7770   27.4170   40.5830 C   0  0  0  0  0  0  0  0  0  0  0  0
   36.5750   28.5550   41.2460 N   0  0  0  0  0  0  0  0  0  0  0  0
   34.8660   30.2830   38.9840 H   0  0  0  0  0  0  0  0  0  0  0  0
   35.2310   28.1460   37.6980 H   0  0  0  0  0  0  0  0  0  0  0  0
   35.6970   30.7910   41.4320 N   0  0  0  0  0  0  0  0  0  0  0  0
   36.4940   31.0660   42.0650 H   0  0  0  0  0  0  0  0  0  0  0  0
   34.8470   31.4040   41.3760 H   0  0  0  0  0  0  0  0  0  0  0  0
   40.9030   25.5510   42.5080 C   0  0  0  0  0  0  0  0  0  0  0  0
   41.9650   25.4090   41.6390 C   0  0  0  0  0  0  0  0  0  0  0  0
   41.9820   25.1910   40.6000 H   0  0  0  0  0  0  0  0  0  0  0  0
   43.1050   25.6090   42.3830 C   0  0  0  0  0  0  0  0  0  0  0  0
   44.1590   25.6030   42.1610 H   0  0  0  0  0  0  0  0  0  0  0  0
   42.6990   25.8640   43.6750 C   0  0  0  0  0  0  0  0  0  0  0  0
   43.1570   26.0830   44.6320 H   0  0  0  0  0  0  0  0  0  0  0  0
   41.3930   25.8150   43.6770 O   0  0  0  0  0  0  0  0  0  0  0  0
  1  2  1  0  0  0  0
  2  7  1  0  0  0  0
  3  4  1  0  0  0  0
  3  2  2  0  0  0  0
  4  5  2  0  0  0  0
  5  9  1  0  0  0  0
  5  6  1  0  0  0  0
  6 10  1  0  0  0  0
  7  6  2  0  0  0  0
  7 22  1  0  0  0  0
  8  4  1  0  0  0  0
 11 16  1  0  0  0  0
 11 19  1  0  0  0  0
 12 11  2  0  0  0  0
 13 14  2  0  0  0  0
 13 12  1  0  0  0  0
 14 15  1  0  0  0  0
 15  3  1  0  0  0  0
 15 16  2  0  0  0  0
 17 12  1  0  0  0  0
 18 13  1  0  0  0  0
 19 20  1  0  0  0  0
 21 19  1  0  0  0  0
 22 29  1  0  0  0  0
 23 25  1  0  0  0  0
 23 22  2  0  0  0  0
 24 23  1  0  0  0  0
 25 27  2  0  0  0  0
 26 25  1  0  0  0  0
 27 29  1  0  0  0  0
 27 28  1  0  0  0  0
M  END
>  <minimizedAffinity>
-5.25821447

$$$$

 OpenBabel03252506113D

 29 31  0  0  0  0  0  0  0  0999 V2000
   39.2890   30.1650   40.9070 F   0  0  0  0  0  0  0  0  0  0  0  0
   38.3310   30.1230   39.9730 C   0  0  0  0  0  0  0  0  0  0  0  0
   38.3050   31.0850   38.9820 C   0  0  0  0  0  0  0  0  0  0  0  0
   37.3450   31.0940   37.9940 C   0  0  0  0  0  0  0  0  0  0  0  0
   36.3570   30.1250   37.9580 C   0  0  0  0  0  0  0  0  0  0  0  0
   36.4270   29.1830   38.9720 C   0  0  0  0  0  0  0  0  0  0  0  0
   37.3620   29.1370   39.9740 C   0  0  0  0  0  0  0  0  0  0  0  0
   37.3490   31.8690   37.2200 H   0  0  0  0  0  0  0  0  0  0  0  0
   35.5910   30.0900   37.2120 H   0  0  0  0  0  0  0  0  0  0  0  0
   35.6810   28.3920   39.0070 H   0  0  0  0  0  0  0  0  0  0  0  0
   41.1650   33.1400   37.9290 C   0  0  0  0  0  0  0  0  0  0  0  0
   41.2060   34.1180   38.9410 C   0  0  0  0  0  0  0  0  0  0  0  0
   40.2490   34.0700   39.9840 C   0  0  0  0  0  0  0  0  0  0  0  0
   39.3360   33.0500   39.9270 N   0  0  0  0  0  0  0  0  0  0  0  0
   39.3210   32.1410   38.9600 C   0  0  0  0  0  0  0  0  0  0  0  0
   40.2260   32.1970   37.9840 N   0  0  0  0  0  0  0  0  0  0  0  0
   41.9540   34.8780   38.9060 H   0  0  0  0  0  0  0  0  0  0  0  0
   40.2580   34.8050   40.7680 H   0  0  0  0  0  0  0  0  0  0  0  0
   42.1270   33.1930   36.8870 N   0  0  0  0  0  0  0  0  0  0  0  0
   41.7620   32.8870   35.9470 H   0  0  0  0  0  0  0  0  0  0  0  0
   43.1260   33.5020   36.9780 H   0  0  0  0  0  0  0  0  0  0  0  0
   37.3570   28.1130   40.9930 C   0  0  0  0  0  0  0  0  0  0  0  0
   36.6150   28.1740   42.1540 C   0  0  0  0  0  0  0  0  0  0  0  0
   35.9500   28.9210   42.5100 H   0  0  0  0  0  0  0  0  0  0  0  0
   36.8860   27.0170   42.8490 C   0  0  0  0  0  0  0  0  0  0  0  0
   36.5590   26.6100   43.7910 H   0  0  0  0  0  0  0  0  0  0  0  0
   37.7820   26.2960   42.0890 C   0  0  0  0  0  0  0  0  0  0  0  0
   38.3110   25.3520   42.1510 H   0  0  0  0  0  0  0  0  0  0  0  0
   38.0150   26.9990   41.0120 O   0  0  0  0  0  0  0  0  0  0  0  0
  2  7  1  0  0  0  0
  2  1  1  0  0  0  0
  3  2  2  0  0  0  0
  4  3  1  0  0  0  0
  5  4  2  0  0  0  0
  5  6  1  0  0  0  0
  6 10  1  0  0  0  0
  6  7  2  0  0  0  0
  7 22  1  0  0  0  0
  8  4  1  0  0  0  0
  9  5  1  0  0  0  0
 11 16  2  0  0  0  0
 11 12  1  0  0  0  0
 12 13  2  0  0  0  0
 13 18  1  0  0  0  0
 14 13  1  0  0  0  0
 15  3  1  0  0  0  0
 15 14  2  0  0  0  0
 16 15  1  0  0  0  0
 17 12  1  0  0  0  0
 19 21  1  0  0  0  0
 19 11  1  0  0  0  0
 20 19  1  0  0  0  0
 22 29  1  0  0  0  0
 22 23  2  0  0  0  0
 23 24  1  0  0  0  0
 23 25  1  0  0  0  0
 25 26  1  0  0  0  0
 27 28  1  0  0  0  0
 27 25  2  0  0  0  0
 29 27  1  0  0  0  0
M  END
>  <minimizedAffinity>
-5.24881887

$$$$

 OpenBabel03252506113D

 29 31  0  0  0  0  0  0  0  0999 V2000
   39.8320   28.5670   40.6220 F   0  0  0  0  0  0  0  0  0  0  0  0
   38.8710   28.2560   41.5000 C   0  0  0  0  0  0  0  0  0  0  0  0
   39.2180   27.7250   42.7280 C   0  0  0  0  0  0  0  0  0  0  0  0
   38.2740   27.3850   43.6730 C   0  0  0  0  0  0  0  0  0  0  0  0
   36.9250   27.5670   43.4210 C   0  0  0  0  0  0  0  0  0  0  0  0
   36.6290   28.1020   42.1780 C   0  0  0  0  0  0  0  0  0  0  0  0
   37.5340   28.4520   41.2090 C   0  0  0  0  0  0  0  0  0  0  0  0
   38.5770   26.9670   44.6380 H   0  0  0  0  0  0  0  0  0  0  0  0
   36.1550   27.3190   44.1220 H   0  0  0  0  0  0  0  0  0  0  0  0
   35.5880   28.2700   41.9130 H   0  0  0  0  0  0  0  0  0  0  0  0
   42.4170   26.0360   43.3790 C   0  0  0  0  0  0  0  0  0  0  0  0
   43.2610   27.1230   43.6790 C   0  0  0  0  0  0  0  0  0  0  0  0
   42.7280   28.4350   43.6560 C   0  0  0  0  0  0  0  0  0  0  0  0
   41.4010   28.5480   43.3370 N   0  0  0  0  0  0  0  0  0  0  0  0
   40.6290   27.5060   43.0590 C   0  0  0  0  0  0  0  0  0  0  0  0
   41.1410   26.2760   43.0830 N   0  0  0  0  0  0  0  0  0  0  0  0
   44.2850   26.9400   43.9170 H   0  0  0  0  0  0  0  0  0  0  0  0
   43.3520   29.2810   43.8800 H   0  0  0  0  0  0  0  0  0  0  0  0
   42.9560   24.7240   43.4040 N   0  0  0  0  0  0  0  0  0  0  0  0
   42.5470   24.0750   42.6800 H   0  0  0  0  0  0  0  0  0  0  0  0
   43.6960   24.3680   44.0570 H   0  0  0  0  0  0  0  0  0  0  0  0
   37.1330   29.0050   39.9370 C   0  0  0  0  0  0  0  0  0  0  0  0
   36.7280   30.3110   39.7470 C   0  0  0  0  0  0  0  0  0  0  0  0
   36.6360   31.1120   40.4370 H   0  0  0  0  0  0  0  0  0  0  0  0
   36.4340   30.4350   38.4090 C   0  0  0  0  0  0  0  0  0  0  0  0
   36.0860   31.2420   37.7860 H   0  0  0  0  0  0  0  0  0  0  0  0
   36.6680   29.2040   37.8330 C   0  0  0  0  0  0  0  0  0  0  0  0
   36.6050   28.7530   36.8500 H   0  0  0  0  0  0  0  0  0  0  0  0
   37.0770   28.4120   38.7880 O   0  0  0  0  0  0  0  0  0  0  0  0
  1  2  1  0  0  0  0
  2  3  1  0  0  0  0
  3 15  1  0  0  0  0
  3  4  2  0  0  0  0
  4  8  1  0  0  0  0
  5  4  1  0  0  0  0
  5  9  1  0  0  0  0
  6  5  2  0  0  0  0
  7  2  2  0  0  0  0
  7  6  1  0  0  0  0
 10  6  1  0  0  0  0
 11 19  1  0  0  0  0
 11 12  1  0  0  0  0
 12 17  1  0  0  0  0
 13 12  2  0  0  0  0
 13 18  1  0  0  0  0
 14 13  1  0  0  0  0
 15 16  1  0  0  0  0
 15 14  2  0  0  0  0
 16 11  2  0  0  0  0
 19 21  1  0  0  0  0
 20 19  1  0  0  0  0
 22  7  1  0  0  0  0
 23 22  2  0  0  0  0
 23 24  1  0  0  0  0
 25 23  1  0  0  0  0
 26 25  1  0  0  0  0
 27 25  2  0  0  0  0
 27 29  1  0  0  0  0
 28 27  1  0  0  0  0
 29 22  1  0  0  0  0
M  END
>  <minimizedAffinity>
-5.09800005

$$$$

 OpenBabel03252506113D

 29 31  0  0  0  0  0  0  0  0999 V2000
   39.4100   28.2190   41.2690 F   0  0  0  0  0  0  0  0  0  0  0  0
   38.2590   28.8840   41.1140 C   0  0  0  0  0  0  0  0  0  0  0  0
   38.2810   30.2600   40.9860 C   0  0  0  0  0  0  0  0  0  0  0  0
   37.1300   31.0000   40.8230 C   0  0  0  0  0  0  0  0  0  0  0  0
   35.8920   30.3810   40.7830 C   0  0  0  0  0  0  0  0  0  0  0  0
   35.9230   29.0020   40.9160 C   0  0  0  0  0  0  0  0  0  0  0  0
   37.0430   28.2280   41.0800 C   0  0  0  0  0  0  0  0  0  0  0  0
   37.1770   32.0890   40.7240 H   0  0  0  0  0  0  0  0  0  0  0  0
   34.9700   30.9120   40.6590 H   0  0  0  0  0  0  0  0  0  0  0  0
   34.9860   28.4510   40.8940 H   0  0  0  0  0  0  0  0  0  0  0  0
   41.4520   31.6600   42.2070 C   0  0  0  0  0  0  0  0  0  0  0  0
   41.9350   32.3240   41.0620 C   0  0  0  0  0  0  0  0  0  0  0  0
   41.1680   32.2880   39.8710 C   0  0  0  0  0  0  0  0  0  0  0  0
   39.9880   31.5940   39.9270 N   0  0  0  0  0  0  0  0  0  0  0  0
   39.5580   30.9780   41.0200 C   0  0  0  0  0  0  0  0  0  0  0  0
   40.2880   31.0180   42.1350 N   0  0  0  0  0  0  0  0  0  0  0  0
   42.8670   32.8410   41.1100 H   0  0  0  0  0  0  0  0  0  0  0  0
   41.5140   32.7860   38.9840 H   0  0  0  0  0  0  0  0  0  0  0  0
   42.2240   31.7000   43.3960 N   0  0  0  0  0  0  0  0  0  0  0  0
   42.1770   30.8170   43.9710 H   0  0  0  0  0  0  0  0  0  0  0  0
   42.8120   32.5030   43.7300 H   0  0  0  0  0  0  0  0  0  0  0  0
   36.9800   26.7920   41.2100 C   0  0  0  0  0  0  0  0  0  0  0  0
   37.1170   26.1100   42.4020 C   0  0  0  0  0  0  0  0  0  0  0  0
   37.2820   26.4700   43.3870 H   0  0  0  0  0  0  0  0  0  0  0  0
   36.9950   24.7730   42.1010 C   0  0  0  0  0  0  0  0  0  0  0  0
   37.0290   23.8650   42.6790 H   0  0  0  0  0  0  0  0  0  0  0  0
   36.7910   24.6880   40.7400 C   0  0  0  0  0  0  0  0  0  0  0  0
   36.6370   23.9120   39.9990 H   0  0  0  0  0  0  0  0  0  0  0  0
   36.7930   25.9110   40.2810 O   0  0  0  0  0  0  0  0  0  0  0  0
  2  1  1  0  0  0  0
  3 15  1  0  0  0  0
  3  2  2  0  0  0  0
  4  3  1  0  0  0  0
  5  4  2  0  0  0  0
  5  6  1  0  0  0  0
  6  7  2  0  0  0  0
  7  2  1  0  0  0  0
  7 22  1  0  0  0  0
  8  4  1  0  0  0  0
  9  5  1  0  0  0  0
 10  6  1  0  0  0  0
 11 19  1  0  0  0  0
 12 17  1  0  0  0  0
 12 11  2  0  0  0  0
 13 14  2  0  0  0  0
 13 12  1  0  0  0  0
 14 15  1  0  0  0  0
 15 16  2  0  0  0  0
 16 11  1  0  0  0  0
 18 13  1  0  0  0  0
 19 21  1  0  0  0  0
 19 20  1  0  0  0  0
 22 23  2  0  0  0  0
 23 24  1  0  0  0  0
 25 23  1  0  0  0  0
 25 26  1  0  0  0  0
 27 25  2  0  0  0  0
 28 27  1  0  0  0  0
 29 27  1  0  0  0  0
 29 22  1  0  0  0  0
M  END
>  <minimizedAffinity>
-5.06001377

$$$$
