
 OpenBabel03252508543D

 42 45  0  0  1  0  0  0  0  0999 V2000
   43.2230   34.3270   40.5980 C   0  0  0  0  0  0  0  0  0  0  0  0
   43.1870   35.4530   40.0280 O   0  0  0  0  0  0  0  0  0  0  0  0
   41.8460   33.9250   40.4370 N   0  0  0  0  0  0  0  0  0  0  0  0
   41.3810   33.8070   39.0720 C   0  0  0  0  0  0  0  0  0  0  0  0
   40.6120   35.1160   38.8030 C   0  0  0  0  0  0  0  0  0  0  0  0
   39.9010   35.4600   40.1020 C   0  0  0  0  0  0  0  0  0  0  0  0
   39.5460   34.2030   40.9020 C   0  0  0  0  0  0  0  0  0  0  0  0
   40.8340   33.6140   41.4480 C   0  0  1  0  0  0  0  0  0  0  0  0
   40.6920   32.9370   38.9830 H   0  0  0  0  0  0  0  0  0  0  0  0
   42.1910   33.7450   38.3410 H   0  0  0  0  0  0  0  0  0  0  0  0
   41.3480   35.9110   38.5540 H   0  0  0  0  0  0  0  0  0  0  0  0
   39.8550   34.9560   38.0150 H   0  0  0  0  0  0  0  0  0  0  0  0
   39.0230   36.0840   39.9340 H   0  0  0  0  0  0  0  0  0  0  0  0
   40.5920   36.0580   40.7590 H   0  0  0  0  0  0  0  0  0  0  0  0
   39.0780   33.4710   40.2480 H   0  0  0  0  0  0  0  0  0  0  0  0
   38.9110   34.5750   41.7330 H   0  0  0  0  0  0  0  0  0  0  0  0
   41.1060   34.2360   42.3320 H   0  0  0  0  0  0  0  0  0  0  0  0
   40.7580   32.1850   41.7390 C   0  0  0  0  0  0  0  0  0  0  0  0
   39.6740   31.3320   41.5990 C   0  0  0  0  0  0  0  0  0  0  0  0
   38.6930   31.5960   41.2460 H   0  0  0  0  0  0  0  0  0  0  0  0
   40.1400   30.1000   42.0110 C   0  0  0  0  0  0  0  0  0  0  0  0
   39.5890   29.1670   42.0490 H   0  0  0  0  0  0  0  0  0  0  0  0
   41.4780   30.2870   42.3740 C   0  0  0  0  0  0  0  0  0  0  0  0
   42.1350   29.5030   42.7440 H   0  0  0  0  0  0  0  0  0  0  0  0
   41.8290   31.5580   42.2010 O   0  0  0  0  0  0  0  0  0  0  0  0
   44.2920   33.7000   41.1900 O   0  0  0  0  0  0  0  0  0  0  0  0
   45.6220   34.0060   40.9910 C   0  0  0  0  0  0  0  0  0  0  0  0
   46.3090   34.6390   42.0390 C   0  0  0  0  0  0  0  0  0  0  0  0
   47.6660   34.9340   41.7980 C   0  0  0  0  0  0  0  0  0  0  0  0
   48.2150   34.5930   40.5870 N   0  0  0  0  0  0  0  0  0  0  0  0
   47.5080   33.9970   39.6420 C   0  0  0  0  0  0  0  0  0  0  0  0
   46.2080   33.6940   39.8230 N   0  0  0  0  0  0  0  0  0  0  0  0
   48.2250   35.4200   42.5790 H   0  0  0  0  0  0  0  0  0  0  0  0
   47.9240   33.7200   38.6780 H   0  0  0  0  0  0  0  0  0  0  0  0
   45.6290   34.9500   43.2730 C   0  0  0  0  0  0  0  0  0  0  0  0
   45.0080   36.1770   43.4910 C   0  0  0  0  0  0  0  0  0  0  0  0
   44.4940   36.0520   44.7660 C   0  0  0  0  0  0  0  0  0  0  0  0
   44.7850   34.8360   45.2780 N   0  0  0  0  0  0  0  0  0  0  0  0
   45.4710   34.1850   44.3580 N   0  0  0  0  0  0  0  0  0  0  0  0
   44.9320   37.0340   42.8400 H   0  0  0  0  0  0  0  0  0  0  0  0
   43.9240   36.8200   45.3130 H   0  0  0  0  0  0  0  0  0  0  0  0
   44.5540   34.4060   46.2080 H   0  0  0  0  0  0  0  0  0  0  0  0
  1 26  1  0  0  0  0
  2  1  2  0  0  0  0
  3  1  1  0  0  0  0
  3  8  1  0  0  0  0
  4  3  1  0  0  0  0
  5  4  1  0  0  0  0
  5  6  1  0  0  0  0
  6 14  1  0  0  0  0
  6  7  1  0  0  0  0
  7  8  1  0  0  0  0
  7 16  1  0  0  0  0
  8 18  1  0  0  0  0
  8 17  1  1  0  0  0
  9  4  1  0  0  0  0
 10  4  1  0  0  0  0
 11  5  1  0  0  0  0
 12  5  1  0  0  0  0
 13  6  1  0  0  0  0
 15  7  1  0  0  0  0
 18 25  1  0  0  0  0
 19 18  2  0  0  0  0
 19 21  1  0  0  0  0
 20 19  1  0  0  0  0
 21 22  1  0  0  0  0
 21 23  2  0  0  0  0
 23 24  1  0  0  0  0
 25 23  1  0  0  0  0
 27 26  1  0  0  0  0
 27 28  1  0  0  0  0
 28 35  1  0  0  0  0
 29 28  2  0  0  0  0
 29 33  1  0  0  0  0
 30 29  1  0  0  0  0
 31 32  1  0  0  0  0
 31 30  2  0  0  0  0
 32 27  2  0  0  0  0
 34 31  1  0  0  0  0
 35 36  1  0  0  0  0
 35 39  2  0  0  0  0
 36 37  2  0  0  0  0
 37 38  1  0  0  0  0
 37 41  1  0  0  0  0
 38 42  1  0  0  0  0
 39 38  1  0  0  0  0
 40 36  1  0  0  0  0
M  END
>  <minimizedAffinity>
-6.56390333

>  <minimizedRMSD>
0.689920843

$$$$
