
 OpenBabel03242512123D

 40 43  0  0  1  0  0  0  0  0999 V2000
   48.9470   31.9810   43.0220 O   0  0  0  0  0  0  0  0  0  0  0  0
   50.1890   32.3080   42.2100 P   0  0  2  0  0  0  0  0  0  0  0  0
   51.5440   31.5970   42.8310 O   0  0  0  0  0  0  0  0  0  0  0  0
   52.3820   32.0880   42.6670 H   0  0  0  0  0  0  0  0  0  0  0  0
   50.2530   33.9920   42.0650 O   0  0  0  0  0  0  0  0  0  0  0  0
   48.0220   34.5000   41.1500 C   0  0  1  0  0  0  0  0  0  0  0  0
   48.7380   35.7870   41.7210 C   0  0  0  0  0  0  0  0  0  0  0  0
   48.9780   34.4800   42.2820 C   0  0  2  0  0  0  0  0  0  0  0  0
   48.3790   34.1930   40.1710 H   0  0  0  0  0  0  0  0  0  0  0  0
   48.0970   36.4900   42.2900 H   0  0  0  0  0  0  0  0  0  0  0  0
   49.4010   36.2780   40.9780 H   0  0  0  0  0  0  0  0  0  0  0  0
   48.5350   34.1010   43.2210 H   0  0  0  0  0  0  0  0  0  0  0  0
   46.5530   34.5250   41.4240 C   0  0  0  0  0  0  0  0  0  0  0  0
   45.8050   34.2870   40.4830 O   0  0  0  0  0  0  0  0  0  0  0  0
   45.3440   35.9540   43.0090 C   0  0  0  0  0  0  0  0  0  0  0  0
   45.9630   34.8000   42.6820 C   0  0  0  0  0  0  0  0  0  0  0  0
   46.0130   33.7900   43.7000 C   0  0  0  0  0  0  0  0  0  0  0  0
   45.4630   34.0010   44.9190 N   0  0  0  0  0  0  0  0  0  0  0  0
   44.8520   35.1840   45.1920 C   0  0  0  0  0  0  0  0  0  0  0  0
   44.8000   36.1180   44.2660 N   0  0  0  0  0  0  0  0  0  0  0  0
   45.2800   36.7430   42.2810 H   0  0  0  0  0  0  0  0  0  0  0  0
   46.4540   32.8360   43.5940 H   0  0  0  0  0  0  0  0  0  0  0  0
   44.3890   35.4370   46.1360 H   0  0  0  0  0  0  0  0  0  0  0  0
   49.8200   31.6800   40.6300 O   0  0  0  0  0  0  0  0  0  0  0  0
   50.7590   31.4770   39.6480 C   0  0  0  0  0  0  0  0  0  0  0  0
   50.6990   31.7850   38.2940 C   0  0  0  0  0  0  0  0  0  0  0  0
   51.7660   31.4930   37.4680 C   0  0  0  0  0  0  0  0  0  0  0  0
   52.8720   30.9030   37.9910 N   0  0  0  0  0  0  0  0  0  0  0  0
   52.9340   30.6020   39.3090 C   0  0  0  0  0  0  0  0  0  0  0  0
   51.8880   30.8820   40.1460 N   0  0  0  0  0  0  0  0  0  0  0  0
   49.7750   32.2420   38.0290 H   0  0  0  0  0  0  0  0  0  0  0  0
   51.6540   31.7560   36.4450 H   0  0  0  0  0  0  0  0  0  0  0  0
   54.1420   29.9680   39.8330 C   0  0  0  0  0  0  0  0  0  0  0  0
   55.2170   29.3390   39.2400 C   0  0  0  0  0  0  0  0  0  0  0  0
   55.2810   29.2380   38.1870 H   0  0  0  0  0  0  0  0  0  0  0  0
   56.0200   28.9610   40.3070 C   0  0  0  0  0  0  0  0  0  0  0  0
   56.9600   28.4330   40.1530 H   0  0  0  0  0  0  0  0  0  0  0  0
   55.4140   29.3680   41.4860 C   0  0  0  0  0  0  0  0  0  0  0  0
   55.8160   29.2080   42.4830 H   0  0  0  0  0  0  0  0  0  0  0  0
   54.2910   29.9660   41.1330 O   0  0  0  0  0  0  0  0  0  0  0  0
  2  3  1  0  0  0  0
  2  1  2  1  0  0  0
  4  3  1  0  0  0  0
  5  2  1  0  0  0  0
  5  8  1  0  0  0  0
  6  9  1  6  0  0  0
  6 13  1  0  0  0  0
  6  7  1  0  0  0  0
  6  8  1  0  0  0  0
  7  8  1  0  0  0  0
  7 10  1  0  0  0  0
  8 12  1  1  0  0  0
 11  7  1  0  0  0  0
 13 16  1  0  0  0  0
 14 13  2  0  0  0  0
 15 20  1  0  0  0  0
 16 15  2  0  0  0  0
 16 17  1  0  0  0  0
 17 18  2  0  0  0  0
 18 19  1  0  0  0  0
 19 23  1  0  0  0  0
 20 19  2  0  0  0  0
 21 15  1  0  0  0  0
 22 17  1  0  0  0  0
 24  2  1  0  0  0  0
 25 30  1  0  0  0  0
 25 24  1  0  0  0  0
 26 25  2  0  0  0  0
 27 28  2  0  0  0  0
 27 26  1  0  0  0  0
 28 29  1  0  0  0  0
 29 33  1  0  0  0  0
 29 30  2  0  0  0  0
 31 26  1  0  0  0  0
 32 27  1  0  0  0  0
 33 40  1  0  0  0  0
 34 33  2  0  0  0  0
 34 36  1  0  0  0  0
 35 34  1  0  0  0  0
 36 38  2  0  0  0  0
 37 36  1  0  0  0  0
 38 39  1  0  0  0  0
 40 38  1  0  0  0  0
M  END
>  <minimizedAffinity>
-5.186409

>  <minimizedRMSD>
0.779694557

$$$$
