
 OpenBabel03252506563D

 37 41  0  0  0  0  0  0  0  0999 V2000
   47.2560   31.2750   45.2000 C   0  0  0  0  0  0  0  0  0  0  0  0
   46.9110   32.6180   45.1340 C   0  0  0  0  0  0  0  0  0  0  0  0
   46.3130   33.2900   46.1740 C   0  0  0  0  0  0  0  0  0  0  0  0
   46.0260   32.6230   47.3640 C   0  0  0  0  0  0  0  0  0  0  0  0
   45.4610   32.9430   48.5660 N   0  0  0  0  0  0  0  0  0  0  0  0
   45.4580   31.8350   49.3490 C   0  0  0  0  0  0  0  0  0  0  0  0
   46.0210   30.8400   48.6230 N   0  0  0  0  0  0  0  0  0  0  0  0
   46.3780   31.2970   47.4020 C   0  0  0  0  0  0  0  0  0  0  0  0
   46.9710   30.5980   46.3930 C   0  0  0  0  0  0  0  0  0  0  0  0
   47.7250   30.7710   44.3700 H   0  0  0  0  0  0  0  0  0  0  0  0
   46.0390   34.3420   46.1280 H   0  0  0  0  0  0  0  0  0  0  0  0
   45.1130   33.9060   48.7720 H   0  0  0  0  0  0  0  0  0  0  0  0
   45.0600   31.8400   50.3490 H   0  0  0  0  0  0  0  0  0  0  0  0
   46.6500   35.0780   42.4010 C   0  0  0  0  0  0  0  0  0  0  0  0
   47.7390   34.7340   41.5930 C   0  0  0  0  0  0  0  0  0  0  0  0
   48.5510   33.6710   41.9840 C   0  0  0  0  0  0  0  0  0  0  0  0
   48.2460   33.0060   43.1470 N   0  0  0  0  0  0  0  0  0  0  0  0
   47.1940   33.3580   43.9040 C   0  0  0  0  0  0  0  0  0  0  0  0
   46.3920   34.3870   43.5430 N   0  0  0  0  0  0  0  0  0  0  0  0
   46.0350   35.9080   42.0740 H   0  0  0  0  0  0  0  0  0  0  0  0
   48.0010   35.2370   40.6780 H   0  0  0  0  0  0  0  0  0  0  0  0
   49.4120   33.3260   41.4360 H   0  0  0  0  0  0  0  0  0  0  0  0
   47.3060   29.1790   46.5410 C   0  0  0  0  0  0  0  0  0  0  0  0
   48.5570   28.6490   46.3400 C   0  0  0  0  0  0  0  0  0  0  0  0
   48.4100   27.2810   46.5890 C   0  0  0  0  0  0  0  0  0  0  0  0
   47.0920   27.0650   46.9220 C   0  0  0  0  0  0  0  0  0  0  0  0
   46.4700   28.2460   46.8770 O   0  0  0  0  0  0  0  0  0  0  0  0
   49.4930   29.1150   46.0540 H   0  0  0  0  0  0  0  0  0  0  0  0
   49.1380   26.4860   46.5490 H   0  0  0  0  0  0  0  0  0  0  0  0
   46.3770   25.8420   47.2770 C   0  0  0  0  0  0  0  0  0  0  0  0
   46.5190   25.2790   48.5480 C   0  0  0  0  0  0  0  0  0  0  0  0
   47.1310   25.6410   49.3860 H   0  0  0  0  0  0  0  0  0  0  0  0
   45.7490   24.1370   48.6350 C   0  0  0  0  0  0  0  0  0  0  0  0
   45.5760   23.4220   49.4170 H   0  0  0  0  0  0  0  0  0  0  0  0
   45.1650   24.0620   47.3880 C   0  0  0  0  0  0  0  0  0  0  0  0
   44.4810   23.3640   46.9410 H   0  0  0  0  0  0  0  0  0  0  0  0
   45.5480   25.0680   46.6150 O   0  0  0  0  0  0  0  0  0  0  0  0
  1  9  1  0  0  0  0
  2  1  2  0  0  0  0
  2  3  1  0  0  0  0
  3  4  2  0  0  0  0
  4  8  1  0  0  0  0
  4  5  1  0  0  0  0
  5 12  1  0  0  0  0
  5  6  1  0  0  0  0
  6 13  1  0  0  0  0
  7  6  2  0  0  0  0
  8  7  1  0  0  0  0
  9 23  1  0  0  0  0
  9  8  2  0  0  0  0
 10  1  1  0  0  0  0
 11  3  1  0  0  0  0
 14 19  1  0  0  0  0
 15 16  1  0  0  0  0
 15 14  2  0  0  0  0
 16 17  2  0  0  0  0
 17 18  1  0  0  0  0
 18  2  1  0  0  0  0
 19 18  2  0  0  0  0
 20 14  1  0  0  0  0
 21 15  1  0  0  0  0
 22 16  1  0  0  0  0
 23 27  1  0  0  0  0
 24 23  2  0  0  0  0
 24 25  1  0  0  0  0
 25 26  2  0  0  0  0
 26 30  1  0  0  0  0
 27 26  1  0  0  0  0
 28 24  1  0  0  0  0
 29 25  1  0  0  0  0
 30 31  2  0  0  0  0
 31 33  1  0  0  0  0
 31 32  1  0  0  0  0
 33 34  1  0  0  0  0
 35 33  2  0  0  0  0
 36 35  1  0  0  0  0
 37 30  1  0  0  0  0
 37 35  1  0  0  0  0
M  END
>  <minimizedAffinity>
-5.58263683

>  <minimizedRMSD>
0.660772026

$$$$
