REMARK  Name = 
REMARK  4 active torsions:
REMARK  status: ('A' for Active; 'I' for Inactive)
REMARK    1  A    between atoms: C_1  and  O_12
REMARK    2  A    between atoms: C_2  and  C_7
REMARK    3  A    between atoms: O_12  and  C_13
REMARK    4  A    between atoms: C_20  and  C_35
REMARK                            x       y       z     vdW  Elec       q    Type
REMARK                         _______ _______ _______ _____ _____    ______ ____
ROOT
ATOM      1  C   UNL     1      43.390  34.487  40.766  0.00  0.00    +0.000 C 
ATOM      2  O   UNL     1      43.302  35.728  40.548  0.00  0.00    +0.000 OA
ATOM      3  N   UNL     1      42.058  34.075  40.390  0.00  0.00    +0.000 N 
ATOM      4  C   UNL     1      41.682  34.342  39.019  0.00  0.00    +0.000 C 
ATOM      5  C   UNL     1      40.833  35.627  39.085  0.00  0.00    +0.000 C 
ATOM      6  C   UNL     1      40.026  35.531  40.370  0.00  0.00    +0.000 C 
ATOM      7  C   UNL     1      39.721  34.076  40.739  0.00  0.00    +0.000 C 
ATOM      8  C   UNL     1      41.017  33.424  41.186  0.00  0.00    +0.000 C 
ATOM      9  H   UNL     1      41.066  33.501  38.627  0.00  0.00    +0.000 HD
ATOM     10  H   UNL     1      42.534  34.544  38.365  0.00  0.00    +0.000 HD
ATOM     11  H   UNL     1      41.520  36.500  39.136  0.00  0.00    +0.000 HD
ATOM     12  H   UNL     1      40.136  35.666  38.230  0.00  0.00    +0.000 HD
ATOM     13  H   UNL     1      39.114  36.127  40.325  0.00  0.00    +0.000 HD
ATOM     14  H   UNL     1      40.631  35.945  41.224  0.00  0.00    +0.000 HD
ATOM     15  H   UNL     1      39.348  33.546  39.866  0.00  0.00    +0.000 HD
ATOM     16  H   UNL     1      39.014  34.149  41.591  0.00  0.00    +0.000 HD
ATOM     17  H   UNL     1      41.191  33.770  42.231  0.00  0.00    +0.000 HD
ENDROOT
BRANCH   8  18
ATOM     18  C   UNL     1      41.032  31.971  41.040  0.00  0.00    +0.000 A 
ATOM     19  C   UNL     1      41.727  31.034  41.788  0.00  0.00    +0.000 A 
ATOM     20  H   UNL     1      42.383  31.235  42.616  0.00  0.00    +0.000 HD
ATOM     21  C   UNL     1      41.387  29.817  41.233  0.00  0.00    +0.000 A 
ATOM     22  H   UNL     1      41.728  28.835  41.540  0.00  0.00    +0.000 HD
ATOM     23  C   UNL     1      40.506  30.096  40.182  0.00  0.00    +0.000 A 
ATOM     24  H   UNL     1      40.052  29.346  39.539  0.00  0.00    +0.000 HD
ATOM     25  O   UNL     1      40.306  31.407  40.084  0.00  0.00    +0.000 OA
ENDBRANCH   8  18
BRANCH   1  26
ATOM     26  O   UNL     1      44.468  33.773  41.229  0.00  0.00    +0.000 OA
BRANCH  26  27
ATOM     27  C   UNL     1      45.794  34.123  41.084  0.00  0.00    +0.000 A 
ATOM     28  C   UNL     1      46.422  34.759  42.166  0.00  0.00    +0.000 A 
ATOM     29  C   UNL     1      47.777  35.100  41.979  0.00  0.00    +0.000 A 
ATOM     30  N   UNL     1      48.380  34.796  40.785  0.00  0.00    +0.000 NA
ATOM     31  C   UNL     1      47.727  34.194  39.805  0.00  0.00    +0.000 A 
ATOM     32  N   UNL     1      46.432  33.848  39.933  0.00  0.00    +0.000 NA
ATOM     33  H   UNL     1      48.292  35.590  42.788  0.00  0.00    +0.000 HD
ATOM     34  H   UNL     1      48.187  33.946  38.853  0.00  0.00    +0.000 HD
BRANCH  28  35
ATOM     35  C   UNL     1      45.688  35.029  43.378  0.00  0.00    +0.000 A 
ATOM     36  C   UNL     1      45.044  36.243  43.603  0.00  0.00    +0.000 A 
ATOM     37  C   UNL     1      44.480  36.078  44.852  0.00  0.00    +0.000 A 
ATOM     38  N   UNL     1      44.764  34.851  45.343  0.00  0.00    +0.000 N 
ATOM     39  N   UNL     1      45.495  34.233  44.435  0.00  0.00    +0.000 NA
ATOM     40  H   UNL     1      44.985  37.117  42.973  0.00  0.00    +0.000 HD
ATOM     41  H   UNL     1      43.878  36.824  45.395  0.00  0.00    +0.000 HD
ATOM     42  H   UNL     1      44.500  34.394  46.250  0.00  0.00    +0.000 HD
ENDBRANCH  28  35
ENDBRANCH  26  27
ENDBRANCH   1  26
TORSDOF 4
