
 OpenBabel03242514053D

 42 45  0  0  1  0  0  0  0  0999 V2000
   46.6750   33.0630   38.7940 C   0  0  1  0  0  0  0  0  0  0  0  0
   45.1730   33.2710   38.5220 C   0  0  0  0  0  0  0  0  0  0  0  0
   44.7960   32.0570   37.6560 C   0  0  0  0  0  0  0  0  0  0  0  0
   45.4200   32.3500   36.2950 C   0  0  0  0  0  0  0  0  0  0  0  0
   46.8800   32.5580   36.3520 C   0  0  0  0  0  0  0  0  0  0  0  0
   47.4830   33.1200   37.5840 C   0  0  2  0  0  0  0  0  0  0  0  0
   46.6930   32.0090   39.2260 H   0  0  0  0  0  0  0  0  0  0  0  0
   45.1090   34.1590   37.8770 H   0  0  0  0  0  0  0  0  0  0  0  0
   44.5850   33.3080   39.4340 H   0  0  0  0  0  0  0  0  0  0  0  0
   43.7100   31.9880   37.5430 H   0  0  0  0  0  0  0  0  0  0  0  0
   45.2790   31.1930   38.1290 H   0  0  0  0  0  0  0  0  0  0  0  0
   45.1550   31.5140   35.6310 H   0  0  0  0  0  0  0  0  0  0  0  0
   44.9560   33.3150   35.9460 H   0  0  0  0  0  0  0  0  0  0  0  0
   47.3520   31.5550   36.1350 H   0  0  0  0  0  0  0  0  0  0  0  0
   47.1740   33.1730   35.4530 H   0  0  0  0  0  0  0  0  0  0  0  0
   47.7670   34.1830   37.3540 H   0  0  0  0  0  0  0  0  0  0  0  0
   46.9300   34.7060   42.0810 C   0  0  0  0  0  0  0  0  0  0  0  0
   48.0620   35.4610   41.9110 C   0  0  0  0  0  0  0  0  0  0  0  0
   48.8070   35.5050   40.7540 C   0  0  0  0  0  0  0  0  0  0  0  0
   48.3050   34.6950   39.7300 C   0  0  0  0  0  0  0  0  0  0  0  0
   47.1560   33.9170   39.8870 C   0  0  0  0  0  0  0  0  0  0  0  0
   46.4800   33.9320   41.0610 N   0  0  0  0  0  0  0  0  0  0  0  0
   48.3760   36.0570   42.7590 H   0  0  0  0  0  0  0  0  0  0  0  0
   49.6810   36.0970   40.6420 H   0  0  0  0  0  0  0  0  0  0  0  0
   48.8860   34.7430   38.8210 H   0  0  0  0  0  0  0  0  0  0  0  0
   45.6660   33.9180   45.4240 C   0  0  0  0  0  0  0  0  0  0  0  0
   44.7380   34.9130   45.6830 C   0  0  0  0  0  0  0  0  0  0  0  0
   44.5560   35.8620   44.6810 C   0  0  0  0  0  0  0  0  0  0  0  0
   45.2900   35.7530   43.5320 N   0  0  0  0  0  0  0  0  0  0  0  0
   46.1890   34.7510   43.3370 C   0  0  0  0  0  0  0  0  0  0  0  0
   46.3770   33.8470   44.2650 N   0  0  0  0  0  0  0  0  0  0  0  0
   45.8840   33.1250   46.1490 H   0  0  0  0  0  0  0  0  0  0  0  0
   44.2110   34.9060   46.6260 H   0  0  0  0  0  0  0  0  0  0  0  0
   43.8500   36.6450   44.8380 H   0  0  0  0  0  0  0  0  0  0  0  0
   48.7680   32.3440   37.7720 C   0  0  0  0  0  0  0  0  0  0  0  0
   49.3080   31.9940   36.5490 C   0  0  0  0  0  0  0  0  0  0  0  0
   49.0810   32.1110   35.4780 H   0  0  0  0  0  0  0  0  0  0  0  0
   50.4950   31.2790   36.7440 C   0  0  0  0  0  0  0  0  0  0  0  0
   51.2340   30.8190   36.1150 H   0  0  0  0  0  0  0  0  0  0  0  0
   50.5990   31.2410   38.1280 C   0  0  0  0  0  0  0  0  0  0  0  0
   51.3100   30.8230   38.8250 H   0  0  0  0  0  0  0  0  0  0  0  0
   49.5970   31.8570   38.6620 O   0  0  0  0  0  0  0  0  0  0  0  0
  1  7  1  1  0  0  0
  1 21  1  0  0  0  0
  2  1  1  0  0  0  0
  2  9  1  0  0  0  0
  3 11  1  0  0  0  0
  3  2  1  0  0  0  0
  4  5  1  0  0  0  0
  4  3  1  0  0  0  0
  5  6  1  0  0  0  0
  6 16  1  6  0  0  0
  6 35  1  0  0  0  0
  6  1  1  0  0  0  0
  8  2  1  0  0  0  0
 10  3  1  0  0  0  0
 12  4  1  0  0  0  0
 13  4  1  0  0  0  0
 14  5  1  0  0  0  0
 15  5  1  0  0  0  0
 17 30  1  0  0  0  0
 18 17  1  0  0  0  0
 18 23  1  0  0  0  0
 19 18  2  0  0  0  0
 20 21  2  0  0  0  0
 20 19  1  0  0  0  0
 21 22  1  0  0  0  0
 22 17  2  0  0  0  0
 24 19  1  0  0  0  0
 25 20  1  0  0  0  0
 26 27  1  0  0  0  0
 26 32  1  0  0  0  0
 27 33  1  0  0  0  0
 28 34  1  0  0  0  0
 28 27  2  0  0  0  0
 29 28  1  0  0  0  0
 30 29  2  0  0  0  0
 30 31  1  0  0  0  0
 31 26  2  0  0  0  0
 35 42  1  0  0  0  0
 36 38  1  0  0  0  0
 36 35  2  0  0  0  0
 37 36  1  0  0  0  0
 38 40  2  0  0  0  0
 39 38  1  0  0  0  0
 40 42  1  0  0  0  0
 40 41  1  0  0  0  0
M  END
>  <minimizedAffinity>
-5.77644682

>  <minimizedRMSD>
0.252254367

$$$$
