
 OpenBabel03252508383D

 40 43  0  0  0  0  0  0  0  0999 V2000
   45.1590   33.9570   40.7000 C   0  0  0  0  0  0  0  0  0  0  0  0
   44.1070   33.6350   39.8860 C   0  0  0  0  0  0  0  0  0  0  0  0
   44.4090   33.1360   38.6540 C   0  0  0  0  0  0  0  0  0  0  0  0
   45.6880   32.9430   38.1890 C   0  0  0  0  0  0  0  0  0  0  0  0
   46.7240   33.2760   39.0310 C   0  0  0  0  0  0  0  0  0  0  0  0
   46.4730   33.7820   40.2830 C   0  0  0  0  0  0  0  0  0  0  0  0
   43.5750   32.8760   37.9970 H   0  0  0  0  0  0  0  0  0  0  0  0
   45.8600   32.5410   37.1940 H   0  0  0  0  0  0  0  0  0  0  0  0
   47.7180   33.1120   38.6350 H   0  0  0  0  0  0  0  0  0  0  0  0
   40.8240   35.2640   40.7910 C   0  0  0  0  0  0  0  0  0  0  0  0
   42.1220   35.0860   40.2750 C   0  0  0  0  0  0  0  0  0  0  0  0
   42.7770   33.8500   40.4040 C   0  0  0  0  0  0  0  0  0  0  0  0
   42.0670   32.8970   41.0430 N   0  0  0  0  0  0  0  0  0  0  0  0
   40.8370   33.0790   41.5290 C   0  0  0  0  0  0  0  0  0  0  0  0
   40.2160   34.2490   41.4060 N   0  0  0  0  0  0  0  0  0  0  0  0
   40.2210   36.5240   40.6310 N   0  0  0  0  0  0  0  0  0  0  0  0
   42.6520   35.8910   39.7660 H   0  0  0  0  0  0  0  0  0  0  0  0
   40.3750   32.2320   42.0210 H   0  0  0  0  0  0  0  0  0  0  0  0
   40.7610   37.3440   41.0310 H   0  0  0  0  0  0  0  0  0  0  0  0
   39.2960   36.5370   40.1320 H   0  0  0  0  0  0  0  0  0  0  0  0
   47.6280   34.1080   41.1040 C   0  0  0  0  0  0  0  0  0  0  0  0
   48.1460   35.3730   40.9380 C   0  0  0  0  0  0  0  0  0  0  0  0
   49.2480   35.8530   41.6410 C   0  0  0  0  0  0  0  0  0  0  0  0
   49.8480   35.0010   42.5530 C   0  0  0  0  0  0  0  0  0  0  0  0
   49.3530   33.7350   42.7370 C   0  0  0  0  0  0  0  0  0  0  0  0
   48.2530   33.2870   42.0220 C   0  0  0  0  0  0  0  0  0  0  0  0
   47.7270   36.0890   40.2450 H   0  0  0  0  0  0  0  0  0  0  0  0
   49.6430   36.8520   41.5000 H   0  0  0  0  0  0  0  0  0  0  0  0
   50.7050   35.2990   43.1350 H   0  0  0  0  0  0  0  0  0  0  0  0
   49.7440   32.9880   43.4230 H   0  0  0  0  0  0  0  0  0  0  0  0
   47.6770   31.9530   42.1700 C   0  0  0  0  0  0  0  0  0  0  0  0
   46.9540   31.7370   43.3460 C   0  0  0  0  0  0  0  0  0  0  0  0
   46.7140   32.3630   44.2070 H   0  0  0  0  0  0  0  0  0  0  0  0
   46.4840   30.4260   43.3150 C   0  0  0  0  0  0  0  0  0  0  0  0
   45.8860   29.8370   44.0090 H   0  0  0  0  0  0  0  0  0  0  0  0
   46.9630   29.9300   42.1050 C   0  0  0  0  0  0  0  0  0  0  0  0
   46.8560   28.9530   41.6380 H   0  0  0  0  0  0  0  0  0  0  0  0
   47.6520   30.8480   41.4690 O   0  0  0  0  0  0  0  0  0  0  0  0
   44.7560   34.9160   43.1010 N   0  0  0  0  0  0  0  0  0  0  0  0
   44.9350   34.4890   42.0180 C   0  0  0  0  0  0  0  0  0  0  0  0
  1 40  1  0  0  0  0
  2 12  1  0  0  0  0
  2  1  2  0  0  0  0
  3  2  1  0  0  0  0
  4  3  2  0  0  0  0
  4  5  1  0  0  0  0
  5  6  2  0  0  0  0
  6  1  1  0  0  0  0
  6 21  1  0  0  0  0
  7  3  1  0  0  0  0
  8  4  1  0  0  0  0
  9  5  1  0  0  0  0
 10 15  1  0  0  0  0
 11 12  1  0  0  0  0
 11 10  2  0  0  0  0
 12 13  2  0  0  0  0
 13 14  1  0  0  0  0
 14 18  1  0  0  0  0
 15 14  2  0  0  0  0
 16 10  1  0  0  0  0
 16 19  1  0  0  0  0
 17 11  1  0  0  0  0
 20 16  1  0  0  0  0
 21 26  1  0  0  0  0
 22 21  2  0  0  0  0
 22 23  1  0  0  0  0
 23 24  2  0  0  0  0
 24 25  1  0  0  0  0
 24 29  1  0  0  0  0
 25 30  1  0  0  0  0
 26 31  1  0  0  0  0
 26 25  2  0  0  0  0
 27 22  1  0  0  0  0
 28 23  1  0  0  0  0
 31 32  2  0  0  0  0
 32 33  1  0  0  0  0
 34 32  1  0  0  0  0
 34 35  1  0  0  0  0
 36 34  2  0  0  0  0
 37 36  1  0  0  0  0
 38 36  1  0  0  0  0
 38 31  1  0  0  0  0
 40 39  3  0  0  0  0
M  END
>  <minimizedAffinity>
-5.95558596

>  <minimizedRMSD>
0.43311429

$$$$
