
 OpenBabel03252503303D

 36 38  0  0  1  0  0  0  0  0999 V2000
   40.0000   28.2740   41.9430 C   0  0  0  0  0  0  0  0  0  0  0  0
   38.6950   27.7430   41.7800 C   0  0  0  0  0  0  0  0  0  0  0  0
   38.3540   26.6840   42.6450 C   0  0  0  0  0  0  0  0  0  0  0  0
   39.2660   26.2670   43.5360 N   0  0  0  0  0  0  0  0  0  0  0  0
   40.4880   26.7990   43.6550 C   0  0  0  0  0  0  0  0  0  0  0  0
   40.8670   27.8160   42.8530 N   0  0  0  0  0  0  0  0  0  0  0  0
   39.8780   30.5660   41.5180 C   0  0  0  0  0  0  0  0  0  0  0  0
   39.0650   30.5800   42.4890 O   0  0  0  0  0  0  0  0  0  0  0  0
   40.4490   29.3500   41.1190 N   0  0  0  0  0  0  0  0  0  0  0  0
   40.1420   31.8220   40.9090 N   0  0  0  0  0  0  0  0  0  0  0  0
   39.2980   32.9870   41.1710 C   0  0  0  0  0  0  0  0  0  0  0  0
   39.3460   33.7150   39.8500 C   0  0  0  0  0  0  0  0  0  0  0  0
   40.3830   33.0360   38.9980 C   0  0  0  0  0  0  0  0  0  0  0  0
   41.1710   32.2440   39.9880 C   0  0  1  0  0  0  0  0  0  0  0  0
   38.0990   28.2020   41.0140 H   0  0  0  0  0  0  0  0  0  0  0  0
   41.1820   26.4350   44.3810 H   0  0  0  0  0  0  0  0  0  0  0  0
   41.0960   29.3800   40.3120 H   0  0  0  0  0  0  0  0  0  0  0  0
   39.6900   33.5670   42.0110 H   0  0  0  0  0  0  0  0  0  0  0  0
   38.2370   32.6540   41.3570 H   0  0  0  0  0  0  0  0  0  0  0  0
   38.3440   33.6980   39.3450 H   0  0  0  0  0  0  0  0  0  0  0  0
   39.6060   34.7760   40.0010 H   0  0  0  0  0  0  0  0  0  0  0  0
   39.8660   32.3410   38.3050 H   0  0  0  0  0  0  0  0  0  0  0  0
   40.9870   33.7940   38.4350 H   0  0  0  0  0  0  0  0  0  0  0  0
   41.5800   31.3010   39.5440 H   0  0  0  0  0  0  0  0  0  0  0  0
   42.2490   33.0020   40.6580 C   0  0  0  0  0  0  0  0  0  0  0  0
   43.0580   33.9960   40.1220 C   0  0  0  0  0  0  0  0  0  0  0  0
   43.0260   34.3800   39.1200 H   0  0  0  0  0  0  0  0  0  0  0  0
   43.8730   34.3430   41.1790 C   0  0  0  0  0  0  0  0  0  0  0  0
   44.6500   35.0930   41.1640 H   0  0  0  0  0  0  0  0  0  0  0  0
   43.5610   33.5860   42.2900 C   0  0  0  0  0  0  0  0  0  0  0  0
   43.9740   33.5650   43.2990 H   0  0  0  0  0  0  0  0  0  0  0  0
   42.5690   32.7980   41.8940 O   0  0  0  0  0  0  0  0  0  0  0  0
   37.0070   26.1570   42.4530 C   0  0  0  0  0  0  0  0  0  0  0  0
   37.0460   24.7800   42.5130 F   0  0  0  0  0  0  0  0  0  0  0  0
   36.6230   26.4540   41.1480 F   0  0  0  0  0  0  0  0  0  0  0  0
   36.1040   26.5970   43.3930 F   0  0  0  0  0  0  0  0  0  0  0  0
  1  6  1  0  0  0  0
  2  1  2  0  0  0  0
  2  3  1  0  0  0  0
  3  4  2  0  0  0  0
  4  5  1  0  0  0  0
  5 16  1  0  0  0  0
  6  5  2  0  0  0  0
  7  8  2  0  0  0  0
  9  7  1  0  0  0  0
  9  1  1  0  0  0  0
 10 11  1  0  0  0  0
 10  7  1  0  0  0  0
 11 19  1  0  0  0  0
 11 18  1  0  0  0  0
 12 21  1  0  0  0  0
 12 11  1  0  0  0  0
 13 12  1  0  0  0  0
 13 14  1  0  0  0  0
 14 24  1  6  0  0  0
 14 25  1  0  0  0  0
 14 10  1  0  0  0  0
 15  2  1  0  0  0  0
 17  9  1  0  0  0  0
 20 12  1  0  0  0  0
 22 13  1  0  0  0  0
 23 13  1  0  0  0  0
 25 32  1  0  0  0  0
 26 25  2  0  0  0  0
 26 28  1  0  0  0  0
 27 26  1  0  0  0  0
 28 30  2  0  0  0  0
 29 28  1  0  0  0  0
 30 31  1  0  0  0  0
 32 30  1  0  0  0  0
 33 34  1  0  0  0  0
 33  3  1  0  0  0  0
 33 36  1  0  0  0  0
 35 33  1  0  0  0  0
M  END
>  <minimizedAffinity>
-5.52113295

$$$$

 OpenBabel03252503303D

 36 38  0  0  1  0  0  0  0  0999 V2000
   36.6410   29.0320   36.6550 C   0  0  0  0  0  0  0  0  0  0  0  0
   36.9000   30.0110   35.6620 C   0  0  0  0  0  0  0  0  0  0  0  0
   35.9470   30.0990   34.6280 C   0  0  0  0  0  0  0  0  0  0  0  0
   34.8920   29.2710   34.6590 N   0  0  0  0  0  0  0  0  0  0  0  0
   34.6870   28.3610   35.6180 C   0  0  0  0  0  0  0  0  0  0  0  0
   35.5680   28.2340   36.6320 N   0  0  0  0  0  0  0  0  0  0  0  0
   37.4000   29.8860   38.6900 C   0  0  0  0  0  0  0  0  0  0  0  0
   36.5580   30.8080   38.4790 O   0  0  0  0  0  0  0  0  0  0  0  0
   37.5420   28.8590   37.7490 N   0  0  0  0  0  0  0  0  0  0  0  0
   38.1410   29.9850   39.8990 N   0  0  0  0  0  0  0  0  0  0  0  0
   38.1620   31.2210   40.6800 C   0  0  0  0  0  0  0  0  0  0  0  0
   39.5550   31.2020   41.2610 C   0  0  0  0  0  0  0  0  0  0  0  0
   40.1560   29.8590   40.9520 C   0  0  0  0  0  0  0  0  0  0  0  0
   38.9660   29.0280   40.5990 C   0  0  1  0  0  0  0  0  0  0  0  0
   37.7960   30.5860   35.7990 H   0  0  0  0  0  0  0  0  0  0  0  0
   33.8310   27.7230   35.6020 H   0  0  0  0  0  0  0  0  0  0  0  0
   38.2520   28.1330   37.9520 H   0  0  0  0  0  0  0  0  0  0  0  0
   37.3680   31.2160   41.4320 H   0  0  0  0  0  0  0  0  0  0  0  0
   38.0740   32.1080   39.9900 H   0  0  0  0  0  0  0  0  0  0  0  0
   40.1820   32.0270   40.8280 H   0  0  0  0  0  0  0  0  0  0  0  0
   39.5230   31.3690   42.3510 H   0  0  0  0  0  0  0  0  0  0  0  0
   40.8050   29.9630   40.0600 H   0  0  0  0  0  0  0  0  0  0  0  0
   40.7340   29.4750   41.8320 H   0  0  0  0  0  0  0  0  0  0  0  0
   39.2130   28.2390   39.8440 H   0  0  0  0  0  0  0  0  0  0  0  0
   38.2730   28.4280   41.7580 C   0  0  0  0  0  0  0  0  0  0  0  0
   38.8020   28.1140   43.0030 C   0  0  0  0  0  0  0  0  0  0  0  0
   39.8150   28.2610   43.3280 H   0  0  0  0  0  0  0  0  0  0  0  0
   37.7220   27.5870   43.6800 C   0  0  0  0  0  0  0  0  0  0  0  0
   37.7240   27.2200   44.6960 H   0  0  0  0  0  0  0  0  0  0  0  0
   36.6040   27.5890   42.8700 C   0  0  0  0  0  0  0  0  0  0  0  0
   35.5790   27.2590   43.0400 H   0  0  0  0  0  0  0  0  0  0  0  0
   37.0200   28.1130   41.7230 O   0  0  0  0  0  0  0  0  0  0  0  0
   36.2410   31.1130   33.6200 C   0  0  0  0  0  0  0  0  0  0  0  0
   37.0120   32.1050   34.1880 F   0  0  0  0  0  0  0  0  0  0  0  0
   35.0390   31.7320   33.2870 F   0  0  0  0  0  0  0  0  0  0  0  0
   36.9160   30.6240   32.5260 F   0  0  0  0  0  0  0  0  0  0  0  0
  1  9  1  0  0  0  0
  2 15  1  0  0  0  0
  2  1  2  0  0  0  0
  3  4  2  0  0  0  0
  3  2  1  0  0  0  0
  4  5  1  0  0  0  0
  5  6  2  0  0  0  0
  6  1  1  0  0  0  0
  7 10  1  0  0  0  0
  8  7  2  0  0  0  0
  9 17  1  0  0  0  0
  9  7  1  0  0  0  0
 10 14  1  0  0  0  0
 10 11  1  0  0  0  0
 11 12  1  0  0  0  0
 11 18  1  0  0  0  0
 12 21  1  0  0  0  0
 13 12  1  0  0  0  0
 13 23  1  0  0  0  0
 14 24  1  6  0  0  0
 14 13  1  0  0  0  0
 14 25  1  0  0  0  0
 16  5  1  0  0  0  0
 19 11  1  0  0  0  0
 20 12  1  0  0  0  0
 22 13  1  0  0  0  0
 25 26  2  0  0  0  0
 26 27  1  0  0  0  0
 26 28  1  0  0  0  0
 28 29  1  0  0  0  0
 30 31  1  0  0  0  0
 30 28  2  0  0  0  0
 32 25  1  0  0  0  0
 32 30  1  0  0  0  0
 33 34  1  0  0  0  0
 33  3  1  0  0  0  0
 35 33  1  0  0  0  0
 36 33  1  0  0  0  0
M  END
>  <minimizedAffinity>
-5.45908403

$$$$

 OpenBabel03252503303D

 36 38  0  0  1  0  0  0  0  0999 V2000
   38.7900   30.0340   39.5170 C   0  0  0  0  0  0  0  0  0  0  0  0
   39.4190   31.1640   40.1000 C   0  0  0  0  0  0  0  0  0  0  0  0
   38.9050   32.4170   39.7110 C   0  0  0  0  0  0  0  0  0  0  0  0
   37.8860   32.4480   38.8390 N   0  0  0  0  0  0  0  0  0  0  0  0
   37.3220   31.3540   38.3130 C   0  0  0  0  0  0  0  0  0  0  0  0
   37.7740   30.1280   38.6520 N   0  0  0  0  0  0  0  0  0  0  0  0
   38.7890   28.3340   41.1170 C   0  0  0  0  0  0  0  0  0  0  0  0
   38.1080   29.1490   41.8060 O   0  0  0  0  0  0  0  0  0  0  0  0
   39.2310   28.7160   39.8430 N   0  0  0  0  0  0  0  0  0  0  0  0
   39.0470   27.0730   41.7180 N   0  0  0  0  0  0  0  0  0  0  0  0
   38.8220   26.8500   43.1460 C   0  0  0  0  0  0  0  0  0  0  0  0
   39.9100   25.8630   43.4860 C   0  0  0  0  0  0  0  0  0  0  0  0
   40.5420   25.4230   42.1950 C   0  0  0  0  0  0  0  0  0  0  0  0
   39.5360   25.8300   41.1690 C   0  0  1  0  0  0  0  0  0  0  0  0
   40.2220   30.9500   40.7790 H   0  0  0  0  0  0  0  0  0  0  0  0
   36.5110   31.4260   37.6230 H   0  0  0  0  0  0  0  0  0  0  0  0
   39.7970   28.0260   39.3180 H   0  0  0  0  0  0  0  0  0  0  0  0
   37.8100   26.4750   43.3240 H   0  0  0  0  0  0  0  0  0  0  0  0
   39.0150   27.8050   43.7140 H   0  0  0  0  0  0  0  0  0  0  0  0
   40.6750   26.3250   44.1650 H   0  0  0  0  0  0  0  0  0  0  0  0
   39.4930   24.9960   44.0260 H   0  0  0  0  0  0  0  0  0  0  0  0
   41.4720   26.0070   42.0440 H   0  0  0  0  0  0  0  0  0  0  0  0
   40.7530   24.3220   42.2140 H   0  0  0  0  0  0  0  0  0  0  0  0
   40.0150   26.1030   40.1940 H   0  0  0  0  0  0  0  0  0  0  0  0
   38.4540   24.8470   40.9490 C   0  0  0  0  0  0  0  0  0  0  0  0
   37.1030   25.0940   40.7390 C   0  0  0  0  0  0  0  0  0  0  0  0
   36.6230   26.0530   40.7000 H   0  0  0  0  0  0  0  0  0  0  0  0
   36.5710   23.8300   40.5980 C   0  0  0  0  0  0  0  0  0  0  0  0
   35.5320   23.5920   40.4170 H   0  0  0  0  0  0  0  0  0  0  0  0
   37.5640   22.8780   40.7210 C   0  0  0  0  0  0  0  0  0  0  0  0
   37.5410   21.7890   40.6720 H   0  0  0  0  0  0  0  0  0  0  0  0
   38.6740   23.5740   40.9320 O   0  0  0  0  0  0  0  0  0  0  0  0
   39.5720   33.5600   40.3250 C   0  0  0  0  0  0  0  0  0  0  0  0
   40.1230   34.3480   39.3370 F   0  0  0  0  0  0  0  0  0  0  0  0
   40.6570   33.0740   41.0490 F   0  0  0  0  0  0  0  0  0  0  0  0
   38.7330   34.3480   41.0780 F   0  0  0  0  0  0  0  0  0  0  0  0
  1  9  1  0  0  0  0
  1  2  1  0  0  0  0
  2 15  1  0  0  0  0
  3  2  2  0  0  0  0
  3 33  1  0  0  0  0
  4  3  1  0  0  0  0
  5  6  1  0  0  0  0
  5  4  2  0  0  0  0
  6  1  2  0  0  0  0
  7 10  1  0  0  0  0
  7  8  2  0  0  0  0
  9  7  1  0  0  0  0
 10 11  1  0  0  0  0
 11 18  1  0  0  0  0
 11 12  1  0  0  0  0
 11 19  1  0  0  0  0
 12 21  1  0  0  0  0
 12 20  1  0  0  0  0
 13 23  1  0  0  0  0
 13 12  1  0  0  0  0
 14 24  1  6  0  0  0
 14 10  1  0  0  0  0
 14 13  1  0  0  0  0
 16  5  1  0  0  0  0
 17  9  1  0  0  0  0
 22 13  1  0  0  0  0
 25 14  1  0  0  0  0
 26 25  2  0  0  0  0
 27 26  1  0  0  0  0
 28 30  2  0  0  0  0
 28 26  1  0  0  0  0
 29 28  1  0  0  0  0
 30 32  1  0  0  0  0
 31 30  1  0  0  0  0
 32 25  1  0  0  0  0
 33 35  1  0  0  0  0
 33 36  1  0  0  0  0
 34 33  1  0  0  0  0
M  END
>  <minimizedAffinity>
-5.40900755

$$$$

 OpenBabel03252503303D

 36 38  0  0  1  0  0  0  0  0999 V2000
   39.3940   27.1600   40.6350 C   0  0  0  0  0  0  0  0  0  0  0  0
   38.2430   26.3310   40.6520 C   0  0  0  0  0  0  0  0  0  0  0  0
   38.3490   25.1550   41.4200 C   0  0  0  0  0  0  0  0  0  0  0  0
   39.5020   24.9120   42.0620 N   0  0  0  0  0  0  0  0  0  0  0  0
   40.5650   25.7240   42.0180 C   0  0  0  0  0  0  0  0  0  0  0  0
   40.5170   26.8650   41.2980 N   0  0  0  0  0  0  0  0  0  0  0  0
   38.6570   29.3730   40.5430 C   0  0  0  0  0  0  0  0  0  0  0  0
   38.0910   29.1030   41.6430 O   0  0  0  0  0  0  0  0  0  0  0  0
   39.3940   28.3780   39.8890 N   0  0  0  0  0  0  0  0  0  0  0  0
   38.4870   30.7000   40.0640 N   0  0  0  0  0  0  0  0  0  0  0  0
   37.4730   31.5890   40.6300 C   0  0  0  0  0  0  0  0  0  0  0  0
   37.0680   32.4090   39.4300 C   0  0  0  0  0  0  0  0  0  0  0  0
   38.0250   32.0850   38.3170 C   0  0  0  0  0  0  0  0  0  0  0  0
   39.1690   31.4410   39.0300 C   0  0  1  0  0  0  0  0  0  0  0  0
   37.4070   26.6850   40.0780 H   0  0  0  0  0  0  0  0  0  0  0  0
   41.4630   25.4900   42.5460 H   0  0  0  0  0  0  0  0  0  0  0  0
   39.8290   28.6350   38.9850 H   0  0  0  0  0  0  0  0  0  0  0  0
   37.8910   32.1800   41.4500 H   0  0  0  0  0  0  0  0  0  0  0  0
   36.5830   30.9840   40.9670 H   0  0  0  0  0  0  0  0  0  0  0  0
   36.0120   32.1800   39.1250 H   0  0  0  0  0  0  0  0  0  0  0  0
   37.1010   33.4860   39.6660 H   0  0  0  0  0  0  0  0  0  0  0  0
   37.5480   31.3400   37.6490 H   0  0  0  0  0  0  0  0  0  0  0  0
   38.3040   33.0140   37.7540 H   0  0  0  0  0  0  0  0  0  0  0  0
   39.6790   30.6710   38.3970 H   0  0  0  0  0  0  0  0  0  0  0  0
   40.1610   32.3910   39.5780 C   0  0  0  0  0  0  0  0  0  0  0  0
   41.0900   32.1710   40.5870 C   0  0  0  0  0  0  0  0  0  0  0  0
   41.2380   31.2610   41.1380 H   0  0  0  0  0  0  0  0  0  0  0  0
   41.7400   33.3830   40.6850 C   0  0  0  0  0  0  0  0  0  0  0  0
   42.5440   33.6210   41.3670 H   0  0  0  0  0  0  0  0  0  0  0  0
   41.2190   34.2790   39.7740 C   0  0  0  0  0  0  0  0  0  0  0  0
   41.4630   35.3180   39.5510 H   0  0  0  0  0  0  0  0  0  0  0  0
   40.2670   33.6030   39.1430 O   0  0  0  0  0  0  0  0  0  0  0  0
   37.1510   24.3220   41.4180 C   0  0  0  0  0  0  0  0  0  0  0  0
   36.3200   24.7260   40.3950 F   0  0  0  0  0  0  0  0  0  0  0  0
   36.4490   24.5960   42.5880 F   0  0  0  0  0  0  0  0  0  0  0  0
   37.4120   22.9820   41.2480 F   0  0  0  0  0  0  0  0  0  0  0  0
  1  2  2  0  0  0  0
  1  6  1  0  0  0  0
  2  3  1  0  0  0  0
  3  4  2  0  0  0  0
  5  4  1  0  0  0  0
  5 16  1  0  0  0  0
  6  5  2  0  0  0  0
  7  8  2  0  0  0  0
  9  7  1  0  0  0  0
  9  1  1  0  0  0  0
 10  7  1  0  0  0  0
 10 11  1  0  0  0  0
 11 19  1  0  0  0  0
 11 18  1  0  0  0  0
 12 21  1  0  0  0  0
 12 11  1  0  0  0  0
 13 14  1  0  0  0  0
 13 12  1  0  0  0  0
 14 24  1  6  0  0  0
 14 25  1  0  0  0  0
 14 10  1  0  0  0  0
 15  2  1  0  0  0  0
 17  9  1  0  0  0  0
 20 12  1  0  0  0  0
 22 13  1  0  0  0  0
 23 13  1  0  0  0  0
 25 26  2  0  0  0  0
 26 28  1  0  0  0  0
 26 27  1  0  0  0  0
 28 29  1  0  0  0  0
 30 28  2  0  0  0  0
 31 30  1  0  0  0  0
 32 25  1  0  0  0  0
 32 30  1  0  0  0  0
 33  3  1  0  0  0  0
 33 35  1  0  0  0  0
 34 33  1  0  0  0  0
 36 33  1  0  0  0  0
M  END
>  <minimizedAffinity>
-5.37987995

$$$$

 OpenBabel03252503303D

 36 38  0  0  1  0  0  0  0  0999 V2000
   40.6970   29.8880   37.9830 C   0  0  0  0  0  0  0  0  0  0  0  0
   41.8030   29.5410   37.1660 C   0  0  0  0  0  0  0  0  0  0  0  0
   42.5080   30.6210   36.6000 C   0  0  0  0  0  0  0  0  0  0  0  0
   42.0920   31.8680   36.8690 N   0  0  0  0  0  0  0  0  0  0  0  0
   41.0410   32.1500   37.6480 C   0  0  0  0  0  0  0  0  0  0  0  0
   40.3300   31.1540   38.2160 N   0  0  0  0  0  0  0  0  0  0  0  0
   40.5830   28.3180   39.7060 C   0  0  0  0  0  0  0  0  0  0  0  0
   41.7410   28.7370   40.0010 O   0  0  0  0  0  0  0  0  0  0  0  0
   39.9140   28.8710   38.6070 N   0  0  0  0  0  0  0  0  0  0  0  0
   40.0570   27.2990   40.5440 N   0  0  0  0  0  0  0  0  0  0  0  0
   40.9110   26.5630   41.4760 C   0  0  0  0  0  0  0  0  0  0  0  0
   40.2720   25.1970   41.4790 C   0  0  0  0  0  0  0  0  0  0  0  0
   38.9760   25.3030   40.7240 C   0  0  0  0  0  0  0  0  0  0  0  0
   38.7200   26.7740   40.6930 C   0  0  1  0  0  0  0  0  0  0  0  0
   41.9910   28.4890   37.0610 H   0  0  0  0  0  0  0  0  0  0  0  0
   40.7460   33.1590   37.8350 H   0  0  0  0  0  0  0  0  0  0  0  0
   38.9750   28.4910   38.3910 H   0  0  0  0  0  0  0  0  0  0  0  0
   40.9230   27.0490   42.4560 H   0  0  0  0  0  0  0  0  0  0  0  0
   41.9500   26.4710   41.0470 H   0  0  0  0  0  0  0  0  0  0  0  0
   40.9470   24.4360   41.0040 H   0  0  0  0  0  0  0  0  0  0  0  0
   40.0890   24.8550   42.5110 H   0  0  0  0  0  0  0  0  0  0  0  0
   39.1430   24.9420   39.6890 H   0  0  0  0  0  0  0  0  0  0  0  0
   38.1730   24.7110   41.2340 H   0  0  0  0  0  0  0  0  0  0  0  0
   38.1720   27.0870   39.7680 H   0  0  0  0  0  0  0  0  0  0  0  0
   38.0380   27.3010   41.8940 C   0  0  0  0  0  0  0  0  0  0  0  0
   37.0770   26.6740   42.6770 C   0  0  0  0  0  0  0  0  0  0  0  0
   36.6710   25.6910   42.5330 H   0  0  0  0  0  0  0  0  0  0  0  0
   36.8000   27.6150   43.6470 C   0  0  0  0  0  0  0  0  0  0  0  0
   36.0930   27.5050   44.4570 H   0  0  0  0  0  0  0  0  0  0  0  0
   37.5640   28.7470   43.4460 C   0  0  0  0  0  0  0  0  0  0  0  0
   37.6280   29.6900   43.9900 H   0  0  0  0  0  0  0  0  0  0  0  0
   38.2860   28.4780   42.3660 O   0  0  0  0  0  0  0  0  0  0  0  0
   43.6390   30.2330   35.7630 C   0  0  0  0  0  0  0  0  0  0  0  0
   44.2340   29.1100   36.2990 F   0  0  0  0  0  0  0  0  0  0  0  0
   44.5990   31.2360   35.8650 F   0  0  0  0  0  0  0  0  0  0  0  0
   43.2920   29.9500   34.4630 F   0  0  0  0  0  0  0  0  0  0  0  0
  1  6  1  0  0  0  0
  1  9  1  0  0  0  0
  2  1  2  0  0  0  0
  3  4  2  0  0  0  0
  3  2  1  0  0  0  0
  4  5  1  0  0  0  0
  5 16  1  0  0  0  0
  5  6  2  0  0  0  0
  7  8  2  0  0  0  0
  7 10  1  0  0  0  0
  9  7  1  0  0  0  0
 10 14  1  0  0  0  0
 10 11  1  0  0  0  0
 11 12  1  0  0  0  0
 11 18  1  0  0  0  0
 12 21  1  0  0  0  0
 13 23  1  0  0  0  0
 13 12  1  0  0  0  0
 14 24  1  6  0  0  0
 14 13  1  0  0  0  0
 14 25  1  0  0  0  0
 15  2  1  0  0  0  0
 17  9  1  0  0  0  0
 19 11  1  0  0  0  0
 20 12  1  0  0  0  0
 22 13  1  0  0  0  0
 25 32  1  0  0  0  0
 25 26  2  0  0  0  0
 26 28  1  0  0  0  0
 27 26  1  0  0  0  0
 28 29  1  0  0  0  0
 30 28  2  0  0  0  0
 30 31  1  0  0  0  0
 32 30  1  0  0  0  0
 33 35  1  0  0  0  0
 33 34  1  0  0  0  0
 33  3  1  0  0  0  0
 36 33  1  0  0  0  0
M  END
>  <minimizedAffinity>
-5.19073153

$$$$

 OpenBabel03252503303D

 36 38  0  0  1  0  0  0  0  0999 V2000
   40.9330   29.8870   39.3540 C   0  0  0  0  0  0  0  0  0  0  0  0
   41.2840   31.2020   39.7500 C   0  0  0  0  0  0  0  0  0  0  0  0
   41.6950   32.0640   38.7140 C   0  0  0  0  0  0  0  0  0  0  0  0
   41.7250   31.5870   37.4600 N   0  0  0  0  0  0  0  0  0  0  0  0
   41.3850   30.3350   37.1310 C   0  0  0  0  0  0  0  0  0  0  0  0
   40.9820   29.4690   38.0840 N   0  0  0  0  0  0  0  0  0  0  0  0
   39.1860   29.1850   40.7320 C   0  0  0  0  0  0  0  0  0  0  0  0
   38.5660   30.1760   40.2460 O   0  0  0  0  0  0  0  0  0  0  0  0
   40.5020   28.9320   40.3230 N   0  0  0  0  0  0  0  0  0  0  0  0
   38.4660   28.4000   41.6730 N   0  0  0  0  0  0  0  0  0  0  0  0
   37.2240   28.8820   42.2750 C   0  0  0  0  0  0  0  0  0  0  0  0
   37.2840   28.2730   43.6540 C   0  0  0  0  0  0  0  0  0  0  0  0
   38.4400   27.3120   43.6730 C   0  0  0  0  0  0  0  0  0  0  0  0
   38.7210   27.0890   42.2230 C   0  0  1  0  0  0  0  0  0  0  0  0
   41.1990   31.4090   40.8000 H   0  0  0  0  0  0  0  0  0  0  0  0
   41.4230   29.9990   36.1180 H   0  0  0  0  0  0  0  0  0  0  0  0
   40.9780   28.1210   40.7560 H   0  0  0  0  0  0  0  0  0  0  0  0
   36.3590   28.5630   41.6860 H   0  0  0  0  0  0  0  0  0  0  0  0
   37.2630   30.0050   42.3780 H   0  0  0  0  0  0  0  0  0  0  0  0
   37.4140   29.0660   44.4380 H   0  0  0  0  0  0  0  0  0  0  0  0
   36.3430   27.7480   43.8880 H   0  0  0  0  0  0  0  0  0  0  0  0
   39.3100   27.8190   44.1380 H   0  0  0  0  0  0  0  0  0  0  0  0
   38.1680   26.3800   44.2330 H   0  0  0  0  0  0  0  0  0  0  0  0
   39.8050   26.8900   42.0300 H   0  0  0  0  0  0  0  0  0  0  0  0
   37.8890   26.0420   41.5930 C   0  0  0  0  0  0  0  0  0  0  0  0
   37.3390   24.9130   42.1870 C   0  0  0  0  0  0  0  0  0  0  0  0
   37.4310   24.6170   43.2140 H   0  0  0  0  0  0  0  0  0  0  0  0
   36.6710   24.3040   41.1450 C   0  0  0  0  0  0  0  0  0  0  0  0
   36.1070   23.3840   41.2010 H   0  0  0  0  0  0  0  0  0  0  0  0
   36.8200   25.0410   39.9870 C   0  0  0  0  0  0  0  0  0  0  0  0
   36.4500   24.8890   38.9730 H   0  0  0  0  0  0  0  0  0  0  0  0
   37.5700   26.0770   40.3410 O   0  0  0  0  0  0  0  0  0  0  0  0
   42.0500   33.4100   39.1510 C   0  0  0  0  0  0  0  0  0  0  0  0
   41.3830   33.6950   40.3240 F   0  0  0  0  0  0  0  0  0  0  0  0
   41.5380   34.3030   38.2150 F   0  0  0  0  0  0  0  0  0  0  0  0
   43.3960   33.5790   39.3770 F   0  0  0  0  0  0  0  0  0  0  0  0
  1  2  1  0  0  0  0
  1  9  1  0  0  0  0
  2 15  1  0  0  0  0
  3 33  1  0  0  0  0
  3  2  2  0  0  0  0
  4  3  1  0  0  0  0
  5  4  2  0  0  0  0
  5  6  1  0  0  0  0
  6  1  2  0  0  0  0
  7 10  1  0  0  0  0
  8  7  2  0  0  0  0
  9  7  1  0  0  0  0
  9 17  1  0  0  0  0
 10 14  1  0  0  0  0
 10 11  1  0  0  0  0
 11 19  1  0  0  0  0
 11 12  1  0  0  0  0
 12 13  1  0  0  0  0
 12 21  1  0  0  0  0
 12 20  1  0  0  0  0
 13 22  1  0  0  0  0
 13 23  1  0  0  0  0
 14 24  1  6  0  0  0
 14 13  1  0  0  0  0
 16  5  1  0  0  0  0
 18 11  1  0  0  0  0
 25 26  2  0  0  0  0
 25 14  1  0  0  0  0
 26 27  1  0  0  0  0
 28 29  1  0  0  0  0
 28 26  1  0  0  0  0
 30 32  1  0  0  0  0
 30 28  2  0  0  0  0
 31 30  1  0  0  0  0
 32 25  1  0  0  0  0
 33 36  1  0  0  0  0
 33 34  1  0  0  0  0
 35 33  1  0  0  0  0
M  END
>  <minimizedAffinity>
-5.12476492

$$$$

 OpenBabel03252503303D

 36 38  0  0  1  0  0  0  0  0999 V2000
   36.9180   28.2830   35.9840 C   0  0  0  0  0  0  0  0  0  0  0  0
   36.8680   29.6070   35.4770 C   0  0  0  0  0  0  0  0  0  0  0  0
   36.2630   29.7550   34.2130 C   0  0  0  0  0  0  0  0  0  0  0  0
   35.7910   28.6590   33.5980 N   0  0  0  0  0  0  0  0  0  0  0  0
   35.8600   27.4270   34.1150 C   0  0  0  0  0  0  0  0  0  0  0  0
   36.4280   27.2290   35.3230 N   0  0  0  0  0  0  0  0  0  0  0  0
   36.6600   28.4130   38.3000 C   0  0  0  0  0  0  0  0  0  0  0  0
   35.5430   28.9410   38.0250 O   0  0  0  0  0  0  0  0  0  0  0  0
   37.5080   28.0200   37.2570 N   0  0  0  0  0  0  0  0  0  0  0  0
   36.9550   28.2650   39.6820 N   0  0  0  0  0  0  0  0  0  0  0  0
   36.1750   28.9590   40.7060 C   0  0  0  0  0  0  0  0  0  0  0  0
   37.2140   29.2280   41.7660 C   0  0  0  0  0  0  0  0  0  0  0  0
   38.4600   28.4820   41.3770 C   0  0  0  0  0  0  0  0  0  0  0  0
   37.9650   27.4960   40.3700 C   0  0  1  0  0  0  0  0  0  0  0  0
   37.2960   30.3630   36.1080 H   0  0  0  0  0  0  0  0  0  0  0  0
   35.4700   26.5840   33.5890 H   0  0  0  0  0  0  0  0  0  0  0  0
   38.4190   27.6070   37.5250 H   0  0  0  0  0  0  0  0  0  0  0  0
   35.3430   28.3360   41.0470 H   0  0  0  0  0  0  0  0  0  0  0  0
   35.8120   29.9470   40.3020 H   0  0  0  0  0  0  0  0  0  0  0  0
   37.4210   30.3270   41.8570 H   0  0  0  0  0  0  0  0  0  0  0  0
   36.8560   28.8920   42.7540 H   0  0  0  0  0  0  0  0  0  0  0  0
   39.1520   29.1910   40.8810 H   0  0  0  0  0  0  0  0  0  0  0  0
   38.9360   28.0140   42.2780 H   0  0  0  0  0  0  0  0  0  0  0  0
   38.7390   27.2600   39.5970 H   0  0  0  0  0  0  0  0  0  0  0  0
   37.4250   26.2480   40.9500 C   0  0  0  0  0  0  0  0  0  0  0  0
   37.4900   25.8190   42.2700 C   0  0  0  0  0  0  0  0  0  0  0  0
   37.9490   26.3350   43.0920 H   0  0  0  0  0  0  0  0  0  0  0  0
   36.8330   24.6070   42.2390 C   0  0  0  0  0  0  0  0  0  0  0  0
   36.6690   23.9500   43.0820 H   0  0  0  0  0  0  0  0  0  0  0  0
   36.4000   24.3310   40.9580 C   0  0  0  0  0  0  0  0  0  0  0  0
   35.8540   23.4860   40.5380 H   0  0  0  0  0  0  0  0  0  0  0  0
   36.7970   25.3720   40.2370 O   0  0  0  0  0  0  0  0  0  0  0  0
   36.2270   31.1270   33.7170 C   0  0  0  0  0  0  0  0  0  0  0  0
   34.9140   31.5120   33.5460 F   0  0  0  0  0  0  0  0  0  0  0  0
   36.7750   31.1240   32.4380 F   0  0  0  0  0  0  0  0  0  0  0  0
   36.8290   32.0330   34.5580 F   0  0  0  0  0  0  0  0  0  0  0  0
  1  9  1  0  0  0  0
  2  1  1  0  0  0  0
  2 15  1  0  0  0  0
  3  2  2  0  0  0  0
  4  5  2  0  0  0  0
  4  3  1  0  0  0  0
  5  6  1  0  0  0  0
  6  1  2  0  0  0  0
  7 10  1  0  0  0  0
  8  7  2  0  0  0  0
  9 17  1  0  0  0  0
  9  7  1  0  0  0  0
 10 14  1  0  0  0  0
 10 11  1  0  0  0  0
 11 18  1  0  0  0  0
 11 12  1  0  0  0  0
 12 20  1  0  0  0  0
 12 21  1  0  0  0  0
 13 12  1  0  0  0  0
 13 23  1  0  0  0  0
 14 24  1  6  0  0  0
 14 25  1  0  0  0  0
 14 13  1  0  0  0  0
 16  5  1  0  0  0  0
 19 11  1  0  0  0  0
 22 13  1  0  0  0  0
 25 26  2  0  0  0  0
 26 27  1  0  0  0  0
 28 26  1  0  0  0  0
 28 29  1  0  0  0  0
 30 28  2  0  0  0  0
 31 30  1  0  0  0  0
 32 25  1  0  0  0  0
 32 30  1  0  0  0  0
 33  3  1  0  0  0  0
 33 36  1  0  0  0  0
 34 33  1  0  0  0  0
 35 33  1  0  0  0  0
M  END
>  <minimizedAffinity>
-5.10036373

$$$$

 OpenBabel03252503303D

 36 38  0  0  1  0  0  0  0  0999 V2000
   36.2660   29.1460   38.0960 C   0  0  0  0  0  0  0  0  0  0  0  0
   34.8500   29.1960   38.0490 C   0  0  0  0  0  0  0  0  0  0  0  0
   34.2740   29.0030   36.7770 C   0  0  0  0  0  0  0  0  0  0  0  0
   35.0880   28.7920   35.7320 N   0  0  0  0  0  0  0  0  0  0  0  0
   36.4220   28.7520   35.8230 C   0  0  0  0  0  0  0  0  0  0  0  0
   37.0260   28.9300   37.0170 N   0  0  0  0  0  0  0  0  0  0  0  0
   36.8620   28.1830   40.1370 C   0  0  0  0  0  0  0  0  0  0  0  0
   36.2100   27.1820   39.7180 O   0  0  0  0  0  0  0  0  0  0  0  0
   36.9530   29.3280   39.3340 N   0  0  0  0  0  0  0  0  0  0  0  0
   37.4580   28.0450   41.4190 N   0  0  0  0  0  0  0  0  0  0  0  0
   37.0800   26.9580   42.3220 C   0  0  0  0  0  0  0  0  0  0  0  0
   37.2220   27.6080   43.6760 C   0  0  0  0  0  0  0  0  0  0  0  0
   37.8780   28.9450   43.4690 C   0  0  0  0  0  0  0  0  0  0  0  0
   38.4630   28.8280   42.0990 C   0  0  1  0  0  0  0  0  0  0  0  0
   34.3590   29.3750   38.9870 H   0  0  0  0  0  0  0  0  0  0  0  0
   37.0310   28.5810   34.9630 H   0  0  0  0  0  0  0  0  0  0  0  0
   37.4830   30.1290   39.7210 H   0  0  0  0  0  0  0  0  0  0  0  0
   37.7290   26.0900   42.1750 H   0  0  0  0  0  0  0  0  0  0  0  0
   35.9950   26.6940   42.1640 H   0  0  0  0  0  0  0  0  0  0  0  0
   36.2220   27.7290   44.1710 H   0  0  0  0  0  0  0  0  0  0  0  0
   37.8320   26.9790   44.3460 H   0  0  0  0  0  0  0  0  0  0  0  0
   37.0900   29.7240   43.4610 H   0  0  0  0  0  0  0  0  0  0  0  0
   38.6340   29.1420   44.2720 H   0  0  0  0  0  0  0  0  0  0  0  0
   38.4870   29.8120   41.5660 H   0  0  0  0  0  0  0  0  0  0  0  0
   39.7970   28.1910   42.0570 C   0  0  0  0  0  0  0  0  0  0  0  0
   40.7390   28.1100   43.0740 C   0  0  0  0  0  0  0  0  0  0  0  0
   40.6470   28.5020   44.0690 H   0  0  0  0  0  0  0  0  0  0  0  0
   41.7780   27.4190   42.4850 C   0  0  0  0  0  0  0  0  0  0  0  0
   42.7120   27.1500   42.9570 H   0  0  0  0  0  0  0  0  0  0  0  0
   41.4630   27.1070   41.1780 C   0  0  0  0  0  0  0  0  0  0  0  0
   42.0150   26.5780   40.4010 H   0  0  0  0  0  0  0  0  0  0  0  0
   40.2480   27.6090   40.9950 O   0  0  0  0  0  0  0  0  0  0  0  0
   32.8160   29.0600   36.7590 C   0  0  0  0  0  0  0  0  0  0  0  0
   32.3580   29.3470   38.0280 F   0  0  0  0  0  0  0  0  0  0  0  0
   32.3490   27.7780   36.4850 F   0  0  0  0  0  0  0  0  0  0  0  0
   32.3120   30.0100   35.9010 F   0  0  0  0  0  0  0  0  0  0  0  0
  1  9  1  0  0  0  0
  2  1  1  0  0  0  0
  2 15  1  0  0  0  0
  3  2  2  0  0  0  0
  4  5  2  0  0  0  0
  4  3  1  0  0  0  0
  5  6  1  0  0  0  0
  6  1  2  0  0  0  0
  7 10  1  0  0  0  0
  8  7  2  0  0  0  0
  9 17  1  0  0  0  0
  9  7  1  0  0  0  0
 10 14  1  0  0  0  0
 10 11  1  0  0  0  0
 11 12  1  0  0  0  0
 12 20  1  0  0  0  0
 12 21  1  0  0  0  0
 13 12  1  0  0  0  0
 13 23  1  0  0  0  0
 14 24  1  6  0  0  0
 14 13  1  0  0  0  0
 16  5  1  0  0  0  0
 18 11  1  0  0  0  0
 19 11  1  0  0  0  0
 22 13  1  0  0  0  0
 25 14  1  0  0  0  0
 25 26  2  0  0  0  0
 26 27  1  0  0  0  0
 28 29  1  0  0  0  0
 28 26  1  0  0  0  0
 30 28  2  0  0  0  0
 31 30  1  0  0  0  0
 32 30  1  0  0  0  0
 32 25  1  0  0  0  0
 33  3  1  0  0  0  0
 33 34  1  0  0  0  0
 35 33  1  0  0  0  0
 36 33  1  0  0  0  0
M  END
>  <minimizedAffinity>
-5.08351326

$$$$

 OpenBabel03252503303D

 36 38  0  0  1  0  0  0  0  0999 V2000
   36.7500   30.3960   39.9930 C   0  0  0  0  0  0  0  0  0  0  0  0
   37.0370   31.7650   39.7610 C   0  0  0  0  0  0  0  0  0  0  0  0
   38.1560   32.2800   40.4470 C   0  0  0  0  0  0  0  0  0  0  0  0
   38.8480   31.4570   41.2490 N   0  0  0  0  0  0  0  0  0  0  0  0
   38.5400   30.1680   41.4390 C   0  0  0  0  0  0  0  0  0  0  0  0
   37.4800   29.6240   40.8060 N   0  0  0  0  0  0  0  0  0  0  0  0
   35.9180   29.5100   38.0010 C   0  0  0  0  0  0  0  0  0  0  0  0
   37.0420   29.8460   37.5240 O   0  0  0  0  0  0  0  0  0  0  0  0
   35.6400   29.7720   39.3480 N   0  0  0  0  0  0  0  0  0  0  0  0
   35.0220   28.8790   37.0970 N   0  0  0  0  0  0  0  0  0  0  0  0
   35.2510   28.9060   35.6530 C   0  0  0  0  0  0  0  0  0  0  0  0
   33.8440   28.9380   35.1110 C   0  0  0  0  0  0  0  0  0  0  0  0
   32.9090   28.7080   36.2660 C   0  0  0  0  0  0  0  0  0  0  0  0
   33.8020   28.1370   37.3170 C   0  0  1  0  0  0  0  0  0  0  0  0
   36.3740   32.2710   39.0850 H   0  0  0  0  0  0  0  0  0  0  0  0
   39.1220   29.5500   42.0870 H   0  0  0  0  0  0  0  0  0  0  0  0
   34.7040   29.4950   39.6950 H   0  0  0  0  0  0  0  0  0  0  0  0
   35.8280   28.0320   35.3370 H   0  0  0  0  0  0  0  0  0  0  0  0
   35.7660   29.8680   35.3690 H   0  0  0  0  0  0  0  0  0  0  0  0
   33.6270   29.9210   34.6140 H   0  0  0  0  0  0  0  0  0  0  0  0
   33.7060   28.1590   34.3420 H   0  0  0  0  0  0  0  0  0  0  0  0
   32.5260   29.6910   36.6080 H   0  0  0  0  0  0  0  0  0  0  0  0
   32.0690   28.0300   35.9630 H   0  0  0  0  0  0  0  0  0  0  0  0
   33.4670   28.4120   38.3500 H   0  0  0  0  0  0  0  0  0  0  0  0
   34.0060   26.6760   37.2190 C   0  0  0  0  0  0  0  0  0  0  0  0
   33.1800   25.7350   36.6180 C   0  0  0  0  0  0  0  0  0  0  0  0
   32.2470   25.9220   36.1210 H   0  0  0  0  0  0  0  0  0  0  0  0
   33.8530   24.5490   36.8240 C   0  0  0  0  0  0  0  0  0  0  0  0
   33.5310   23.5690   36.5010 H   0  0  0  0  0  0  0  0  0  0  0  0
   35.0250   24.7790   37.5160 C   0  0  0  0  0  0  0  0  0  0  0  0
   35.8120   24.1090   37.8620 H   0  0  0  0  0  0  0  0  0  0  0  0
   35.0450   26.0910   37.7180 O   0  0  0  0  0  0  0  0  0  0  0  0
   38.4260   33.6900   40.1890 C   0  0  0  0  0  0  0  0  0  0  0  0
   39.5350   33.7970   39.3760 F   0  0  0  0  0  0  0  0  0  0  0  0
   38.8030   34.2720   41.3960 F   0  0  0  0  0  0  0  0  0  0  0  0
   37.3850   34.3480   39.5760 F   0  0  0  0  0  0  0  0  0  0  0  0
  1  6  1  0  0  0  0
  2  1  2  0  0  0  0
  2  3  1  0  0  0  0
  3  4  2  0  0  0  0
  4  5  1  0  0  0  0
  5 16  1  0  0  0  0
  6  5  2  0  0  0  0
  7  9  1  0  0  0  0
  8  7  2  0  0  0  0
  9 17  1  0  0  0  0
  9  1  1  0  0  0  0
 10 14  1  0  0  0  0
 10  7  1  0  0  0  0
 11 10  1  0  0  0  0
 12 11  1  0  0  0  0
 12 13  1  0  0  0  0
 13 22  1  0  0  0  0
 13 14  1  0  0  0  0
 14 24  1  1  0  0  0
 15  2  1  0  0  0  0
 18 11  1  0  0  0  0
 19 11  1  0  0  0  0
 20 12  1  0  0  0  0
 21 12  1  0  0  0  0
 23 13  1  0  0  0  0
 25 14  1  0  0  0  0
 25 32  1  0  0  0  0
 26 28  1  0  0  0  0
 26 25  2  0  0  0  0
 27 26  1  0  0  0  0
 28 30  2  0  0  0  0
 29 28  1  0  0  0  0
 30 32  1  0  0  0  0
 30 31  1  0  0  0  0
 33  3  1  0  0  0  0
 33 35  1  0  0  0  0
 34 33  1  0  0  0  0
 36 33  1  0  0  0  0
M  END
>  <minimizedAffinity>
-5.02218771

$$$$
