
 OpenBabel03252504143D

 34 36  0  0  0  0  0  0  0  0999 V2000
   47.6510   30.0260   44.9290 F   0  0  0  0  0  0  0  0  0  0  0  0
   47.5150   30.8040   46.0510 C   0  0  0  0  0  0  0  0  0  0  0  0
   46.9390   32.0470   45.9500 C   0  0  0  0  0  0  0  0  0  0  0  0
   46.8420   32.7680   47.1400 C   0  0  0  0  0  0  0  0  0  0  0  0
   47.2960   32.2580   48.3340 C   0  0  0  0  0  0  0  0  0  0  0  0
   47.8650   30.9960   48.3550 C   0  0  0  0  0  0  0  0  0  0  0  0
   47.9930   30.2300   47.2120 C   0  0  0  0  0  0  0  0  0  0  0  0
   46.3910   33.7620   47.1130 H   0  0  0  0  0  0  0  0  0  0  0  0
   47.2190   32.8160   49.2500 H   0  0  0  0  0  0  0  0  0  0  0  0
   48.2310   30.5730   49.2830 H   0  0  0  0  0  0  0  0  0  0  0  0
   48.5910   28.8990   47.2260 C   0  0  0  0  0  0  0  0  0  0  0  0
   49.9330   28.6660   47.0040 C   0  0  0  0  0  0  0  0  0  0  0  0
   50.6740   29.4040   46.8010 H   0  0  0  0  0  0  0  0  0  0  0  0
   50.0270   27.2790   47.1160 C   0  0  0  0  0  0  0  0  0  0  0  0
   50.9540   26.7140   47.0000 H   0  0  0  0  0  0  0  0  0  0  0  0
   48.7730   26.7580   47.3930 C   0  0  0  0  0  0  0  0  0  0  0  0
   48.4920   25.7230   47.5400 H   0  0  0  0  0  0  0  0  0  0  0  0
   47.9600   27.7950   47.4450 O   0  0  0  0  0  0  0  0  0  0  0  0
   46.7700   34.1120   42.9620 C   0  0  0  0  0  0  0  0  0  0  0  0
   45.6330   33.6580   42.2910 C   0  0  0  0  0  0  0  0  0  0  0  0
   44.9160   32.6120   42.8980 C   0  0  0  0  0  0  0  0  0  0  0  0
   45.3440   32.0980   44.0790 N   0  0  0  0  0  0  0  0  0  0  0  0
   46.4580   32.5830   44.6810 C   0  0  0  0  0  0  0  0  0  0  0  0
   47.1680   33.5880   44.1240 N   0  0  0  0  0  0  0  0  0  0  0  0
   44.0300   32.2380   42.4010 H   0  0  0  0  0  0  0  0  0  0  0  0
   45.2340   34.2720   41.0090 C   0  0  0  0  0  0  0  0  0  0  0  0
   44.9160   35.5960   41.2030 F   0  0  0  0  0  0  0  0  0  0  0  0
   46.3340   34.2350   40.1600 F   0  0  0  0  0  0  0  0  0  0  0  0
   44.1950   33.6650   40.3920 F   0  0  0  0  0  0  0  0  0  0  0  0
   47.4630   35.1270   42.3730 O   0  0  0  0  0  0  0  0  0  0  0  0
   48.7820   35.0610   41.8680 C   0  0  0  0  0  0  0  0  0  0  0  0
   49.6300   35.3700   42.9370 F   0  0  0  0  0  0  0  0  0  0  0  0
   49.0290   33.8270   41.3280 F   0  0  0  0  0  0  0  0  0  0  0  0
   48.9870   36.0810   40.9670 F   0  0  0  0  0  0  0  0  0  0  0  0
  1  2  1  0  0  0  0
  2  7  1  0  0  0  0
  3  2  2  0  0  0  0
  3  4  1  0  0  0  0
  4  5  2  0  0  0  0
  5  6  1  0  0  0  0
  5  9  1  0  0  0  0
  6 10  1  0  0  0  0
  7 11  1  0  0  0  0
  7  6  2  0  0  0  0
  8  4  1  0  0  0  0
 11 18  1  0  0  0  0
 12 14  1  0  0  0  0
 12 11  2  0  0  0  0
 13 12  1  0  0  0  0
 14 16  2  0  0  0  0
 15 14  1  0  0  0  0
 16 18  1  0  0  0  0
 16 17  1  0  0  0  0
 19 24  1  0  0  0  0
 20 21  1  0  0  0  0
 20 19  2  0  0  0  0
 21 22  2  0  0  0  0
 22 23  1  0  0  0  0
 23  3  1  0  0  0  0
 24 23  2  0  0  0  0
 25 21  1  0  0  0  0
 26 27  1  0  0  0  0
 26 20  1  0  0  0  0
 28 26  1  0  0  0  0
 29 26  1  0  0  0  0
 30 19  1  0  0  0  0
 31 30  1  0  0  0  0
 31 32  1  0  0  0  0
 33 31  1  0  0  0  0
 34 31  1  0  0  0  0
M  END
>  <minimizedAffinity>
-5.5287118

>  <minimizedRMSD>
0.360713154

$$$$
