
 OpenBabel03252504433D

 44 47  0  0  0  0  0  0  0  0999 V2000
   37.5600   31.5460   40.4880 C   0  0  0  0  0  0  0  0  0  0  0  0
   37.1960   32.5080   39.5980 C   0  0  0  0  0  0  0  0  0  0  0  0
   38.3200   33.0690   39.1480 N   0  0  0  0  0  0  0  0  0  0  0  0
   39.3920   32.5000   39.7180 C   0  0  0  0  0  0  0  0  0  0  0  0
   38.8970   31.5520   40.5500 N   0  0  0  0  0  0  0  0  0  0  0  0
   40.7790   32.7480   39.5650 N   0  0  0  0  0  0  0  0  0  0  0  0
   41.5060   32.0280   38.5250 C   0  0  0  0  0  0  0  0  0  0  0  0
   41.7180   33.0570   37.4160 C   0  0  0  0  0  0  0  0  0  0  0  0
   42.2650   34.3400   37.9940 C   0  0  0  0  0  0  0  0  0  0  0  0
   42.8030   34.0820   39.3800 C   0  0  0  0  0  0  0  0  0  0  0  0
   41.6720   33.6330   40.2850 C   0  0  0  0  0  0  0  0  0  0  0  0
   36.1720   32.7400   39.3360 H   0  0  0  0  0  0  0  0  0  0  0  0
   38.3800   33.8420   38.4510 H   0  0  0  0  0  0  0  0  0  0  0  0
   40.8630   31.2210   38.0850 H   0  0  0  0  0  0  0  0  0  0  0  0
   42.4540   31.6070   38.8760 H   0  0  0  0  0  0  0  0  0  0  0  0
   40.6780   33.2460   37.0210 H   0  0  0  0  0  0  0  0  0  0  0  0
   42.3120   32.6770   36.5800 H   0  0  0  0  0  0  0  0  0  0  0  0
   41.4870   35.1330   38.0390 H   0  0  0  0  0  0  0  0  0  0  0  0
   43.1080   34.6670   37.3380 H   0  0  0  0  0  0  0  0  0  0  0  0
   43.2620   34.9920   39.7980 H   0  0  0  0  0  0  0  0  0  0  0  0
   43.5690   33.2700   39.2880 H   0  0  0  0  0  0  0  0  0  0  0  0
   42.1010   33.0060   41.1150 H   0  0  0  0  0  0  0  0  0  0  0  0
   41.1160   34.4970   40.6780 H   0  0  0  0  0  0  0  0  0  0  0  0
   36.6570   30.6440   41.2580 C   0  0  0  0  0  0  0  0  0  0  0  0
   35.6890   30.5020   40.7190 H   0  0  0  0  0  0  0  0  0  0  0  0
   36.4450   31.0860   42.2580 H   0  0  0  0  0  0  0  0  0  0  0  0
   37.5290   28.8350   42.6870 C   0  0  0  0  0  3  0  0  0  0  0  0
   37.2860   29.3280   41.4820 C   0  0  0  0  0  3  0  0  0  0  0  0
   38.1590   27.5160   42.7670 C   0  0  0  0  0  0  0  0  0  0  0  0
   39.2300   27.2700   43.6690 C   0  0  0  0  0  0  0  0  0  0  0  0
   39.7650   25.9910   43.6780 C   0  0  0  0  0  0  0  0  0  0  0  0
   39.2640   25.0490   42.8490 N   0  0  0  0  0  0  0  0  0  0  0  0
   38.2440   25.3140   42.0000 C   0  0  0  0  0  0  0  0  0  0  0  0
   37.7070   26.5160   41.9620 N   0  0  0  0  0  0  0  0  0  0  0  0
   39.5760   28.0650   44.2980 H   0  0  0  0  0  0  0  0  0  0  0  0
   40.5750   25.7790   44.3500 H   0  0  0  0  0  0  0  0  0  0  0  0
   37.8110   24.1980   41.1680 C   0  0  0  0  0  0  0  0  0  0  0  0
   36.5720   24.2740   40.5260 C   0  0  0  0  0  0  0  0  0  0  0  0
   35.8290   25.0790   40.5450 H   0  0  0  0  0  0  0  0  0  0  0  0
   36.4110   23.0980   39.8120 C   0  0  0  0  0  0  0  0  0  0  0  0
   35.5620   22.8530   39.2160 H   0  0  0  0  0  0  0  0  0  0  0  0
   37.5710   22.3690   40.0640 C   0  0  0  0  0  0  0  0  0  0  0  0
   37.7210   21.3930   39.6280 H   0  0  0  0  0  0  0  0  0  0  0  0
   38.3750   23.0560   40.8720 O   0  0  0  0  0  0  0  0  0  0  0  0
  1  5  1  0  0  0  0
  1 24  1  0  0  0  0
  2  1  2  0  0  0  0
  3  2  1  0  0  0  0
  3  4  1  0  0  0  0
  4  5  2  0  0  0  0
  6  4  1  0  0  0  0
  6 11  1  0  0  0  0
  7 15  1  0  0  0  0
  7  6  1  0  0  0  0
  8  9  1  0  0  0  0
  8  7  1  0  0  0  0
  9 18  1  0  0  0  0
  9 10  1  0  0  0  0
 10 20  1  0  0  0  0
 10 11  1  0  0  0  0
 11 23  1  0  0  0  0
 11 22  1  0  0  0  0
 12  2  1  0  0  0  0
 13  3  1  0  0  0  0
 14  7  1  0  0  0  0
 16  8  1  0  0  0  0
 17  8  1  0  0  0  0
 19  9  1  0  0  0  0
 21 10  1  0  0  0  0
 24 28  1  0  0  0  0
 24 26  1  0  0  0  0
 25 24  1  0  0  0  0
 27 29  1  0  0  0  0
 28 27  2  0  0  0  0
 29 30  1  0  0  0  0
 30 31  2  0  0  0  0
 30 35  1  0  0  0  0
 31 36  1  0  0  0  0
 32 31  1  0  0  0  0
 33 32  2  0  0  0  0
 34 33  1  0  0  0  0
 34 29  2  0  0  0  0
 37 33  1  0  0  0  0
 38 39  1  0  0  0  0
 38 37  2  0  0  0  0
 40 42  2  0  0  0  0
 40 38  1  0  0  0  0
 41 40  1  0  0  0  0
 42 44  1  0  0  0  0
 43 42  1  0  0  0  0
 44 37  1  0  0  0  0
M  END
>  <minimizedAffinity>
-6.01373625

$$$$

 OpenBabel03252504433D

 44 47  0  0  0  0  0  0  0  0999 V2000
   38.4490   28.1080   42.8990 C   0  0  0  0  0  0  0  0  0  0  0  0
   37.2890   28.7220   43.2550 C   0  0  0  0  0  0  0  0  0  0  0  0
   37.2130   29.8510   42.5460 N   0  0  0  0  0  0  0  0  0  0  0  0
   38.2820   29.9810   41.7490 C   0  0  0  0  0  0  0  0  0  0  0  0
   39.0410   28.8840   41.9830 N   0  0  0  0  0  0  0  0  0  0  0  0
   38.6480   30.9930   40.8260 N   0  0  0  0  0  0  0  0  0  0  0  0
   38.1910   30.8760   39.4450 C   0  0  0  0  0  0  0  0  0  0  0  0
   37.0530   31.8890   39.3270 C   0  0  0  0  0  0  0  0  0  0  0  0
   37.4830   33.2240   39.8880 C   0  0  0  0  0  0  0  0  0  0  0  0
   38.9860   33.2590   40.0130 C   0  0  0  0  0  0  0  0  0  0  0  0
   39.4360   32.1960   40.9970 C   0  0  0  0  0  0  0  0  0  0  0  0
   36.5900   28.3310   43.9820 H   0  0  0  0  0  0  0  0  0  0  0  0
   36.4380   30.5480   42.5910 H   0  0  0  0  0  0  0  0  0  0  0  0
   37.7310   29.8680   39.2690 H   0  0  0  0  0  0  0  0  0  0  0  0
   38.9820   31.0660   38.7130 H   0  0  0  0  0  0  0  0  0  0  0  0
   36.2400   31.4600   39.9810 H   0  0  0  0  0  0  0  0  0  0  0  0
   36.6420   31.9630   38.3150 H   0  0  0  0  0  0  0  0  0  0  0  0
   37.0230   33.4160   40.8820 H   0  0  0  0  0  0  0  0  0  0  0  0
   37.1660   34.0080   39.1600 H   0  0  0  0  0  0  0  0  0  0  0  0
   39.3270   34.2460   40.3660 H   0  0  0  0  0  0  0  0  0  0  0  0
   39.4040   33.0460   38.9970 H   0  0  0  0  0  0  0  0  0  0  0  0
   40.4910   31.8950   40.7450 H   0  0  0  0  0  0  0  0  0  0  0  0
   39.3560   32.5590   42.0320 H   0  0  0  0  0  0  0  0  0  0  0  0
   38.9780   26.8140   43.4170 C   0  0  0  0  0  0  0  0  0  0  0  0
   38.5320   26.5760   44.4130 H   0  0  0  0  0  0  0  0  0  0  0  0
   40.0850   26.8770   43.5300 H   0  0  0  0  0  0  0  0  0  0  0  0
   37.4690   25.2940   42.1990 C   0  0  0  0  0  3  0  0  0  0  0  0
   38.6940   25.7100   42.4810 C   0  0  0  0  0  3  0  0  0  0  0  0
   37.3300   24.1870   41.2510 C   0  0  0  0  0  0  0  0  0  0  0  0
   38.3960   23.2720   41.0320 C   0  0  0  0  0  0  0  0  0  0  0  0
   38.1750   22.2540   40.1170 C   0  0  0  0  0  0  0  0  0  0  0  0
   36.9860   22.1700   39.4810 N   0  0  0  0  0  0  0  0  0  0  0  0
   35.9900   23.0570   39.7110 C   0  0  0  0  0  0  0  0  0  0  0  0
   36.1590   24.0380   40.5730 N   0  0  0  0  0  0  0  0  0  0  0  0
   39.3120   23.3990   41.5720 H   0  0  0  0  0  0  0  0  0  0  0  0
   38.9640   21.5500   39.9330 H   0  0  0  0  0  0  0  0  0  0  0  0
   34.7640   22.8390   38.9510 C   0  0  0  0  0  0  0  0  0  0  0  0
   33.5630   22.6660   39.6410 C   0  0  0  0  0  0  0  0  0  0  0  0
   33.3760   22.6670   40.7210 H   0  0  0  0  0  0  0  0  0  0  0  0
   32.5700   22.4790   38.6910 C   0  0  0  0  0  0  0  0  0  0  0  0
   31.5390   22.3190   38.9050 H   0  0  0  0  0  0  0  0  0  0  0  0
   33.2350   22.5500   37.4690 C   0  0  0  0  0  0  0  0  0  0  0  0
   32.6990   22.4370   36.5380 H   0  0  0  0  0  0  0  0  0  0  0  0
   34.5330   22.7640   37.6660 O   0  0  0  0  0  0  0  0  0  0  0  0
  1  2  2  0  0  0  0
  1 24  1  0  0  0  0
  2 12  1  0  0  0  0
  3 13  1  0  0  0  0
  3  2  1  0  0  0  0
  4  5  2  0  0  0  0
  4  3  1  0  0  0  0
  5  1  1  0  0  0  0
  6 11  1  0  0  0  0
  6  4  1  0  0  0  0
  7  6  1  0  0  0  0
  8  7  1  0  0  0  0
  8  9  1  0  0  0  0
  8 16  1  0  0  0  0
  9 10  1  0  0  0  0
  9 18  1  0  0  0  0
 10 20  1  0  0  0  0
 10 11  1  0  0  0  0
 11 23  1  0  0  0  0
 14  7  1  0  0  0  0
 15  7  1  0  0  0  0
 17  8  1  0  0  0  0
 19  9  1  0  0  0  0
 21 10  1  0  0  0  0
 22 11  1  0  0  0  0
 24 26  1  0  0  0  0
 24 25  1  0  0  0  0
 27 28  2  0  0  0  0
 28 24  1  0  0  0  0
 29 27  1  0  0  0  0
 30 29  1  0  0  0  0
 30 35  1  0  0  0  0
 31 30  2  0  0  0  0
 32 33  2  0  0  0  0
 32 31  1  0  0  0  0
 33 34  1  0  0  0  0
 34 29  2  0  0  0  0
 36 31  1  0  0  0  0
 37 38  2  0  0  0  0
 37 33  1  0  0  0  0
 38 39  1  0  0  0  0
 40 41  1  0  0  0  0
 40 38  1  0  0  0  0
 42 44  1  0  0  0  0
 42 40  2  0  0  0  0
 43 42  1  0  0  0  0
 44 37  1  0  0  0  0
M  END
>  <minimizedAffinity>
-5.84887075

$$$$

 OpenBabel03252504433D

 44 47  0  0  0  0  0  0  0  0999 V2000
   37.4640   31.6520   40.3890 C   0  0  0  0  0  0  0  0  0  0  0  0
   36.2120   31.3510   40.8260 C   0  0  0  0  0  0  0  0  0  0  0  0
   36.2510   30.1010   41.2930 N   0  0  0  0  0  0  0  0  0  0  0  0
   37.4840   29.5900   41.1710 C   0  0  0  0  0  0  0  0  0  0  0  0
   38.2260   30.5730   40.6060 N   0  0  0  0  0  0  0  0  0  0  0  0
   38.0130   28.3220   41.5180 N   0  0  0  0  0  0  0  0  0  0  0  0
   38.5530   28.1350   42.8610 C   0  0  0  0  0  0  0  0  0  0  0  0
   37.4870   27.3250   43.5970 C   0  0  0  0  0  0  0  0  0  0  0  0
   37.0640   26.1400   42.7620 C   0  0  0  0  0  0  0  0  0  0  0  0
   38.0830   25.8970   41.6760 C   0  0  0  0  0  0  0  0  0  0  0  0
   38.1310   27.0990   40.7520 C   0  0  0  0  0  0  0  0  0  0  0  0
   35.3710   32.0310   40.7830 H   0  0  0  0  0  0  0  0  0  0  0  0
   35.4470   29.5770   41.7000 H   0  0  0  0  0  0  0  0  0  0  0  0
   38.6220   29.1190   43.3960 H   0  0  0  0  0  0  0  0  0  0  0  0
   39.5240   27.6300   42.8680 H   0  0  0  0  0  0  0  0  0  0  0  0
   36.6190   28.0400   43.6870 H   0  0  0  0  0  0  0  0  0  0  0  0
   37.7780   27.0490   44.6150 H   0  0  0  0  0  0  0  0  0  0  0  0
   36.0640   26.2980   42.3050 H   0  0  0  0  0  0  0  0  0  0  0  0
   37.0410   25.2500   43.4360 H   0  0  0  0  0  0  0  0  0  0  0  0
   37.8260   25.0000   41.0900 H   0  0  0  0  0  0  0  0  0  0  0  0
   39.0730   25.7590   42.1810 H   0  0  0  0  0  0  0  0  0  0  0  0
   39.1500   27.1460   40.2750 H   0  0  0  0  0  0  0  0  0  0  0  0
   37.3340   27.0450   39.9950 H   0  0  0  0  0  0  0  0  0  0  0  0
   37.9220   32.9340   39.7830 C   0  0  0  0  0  0  0  0  0  0  0  0
   37.7520   33.7850   40.4860 H   0  0  0  0  0  0  0  0  0  0  0  0
   37.3570   33.1300   38.8430 H   0  0  0  0  0  0  0  0  0  0  0  0
   40.2830   33.5910   40.0430 C   0  0  0  0  0  3  0  0  0  0  0  0
   39.3540   32.8740   39.4310 C   0  0  0  0  0  3  0  0  0  0  0  0
   41.6680   33.4350   39.5930 C   0  0  0  0  0  0  0  0  0  0  0  0
   42.7240   34.1570   40.2120 C   0  0  0  0  0  0  0  0  0  0  0  0
   44.0040   33.9460   39.7220 C   0  0  0  0  0  0  0  0  0  0  0  0
   44.1960   33.0840   38.6990 N   0  0  0  0  0  0  0  0  0  0  0  0
   43.1690   32.4110   38.1300 C   0  0  0  0  0  0  0  0  0  0  0  0
   41.9390   32.5820   38.5680 N   0  0  0  0  0  0  0  0  0  0  0  0
   42.4980   34.8250   41.0190 H   0  0  0  0  0  0  0  0  0  0  0  0
   44.8200   34.4800   40.1700 H   0  0  0  0  0  0  0  0  0  0  0  0
   43.5310   31.5160   37.0370 C   0  0  0  0  0  0  0  0  0  0  0  0
   42.5590   30.6610   36.5130 C   0  0  0  0  0  0  0  0  0  0  0  0
   41.5090   30.5440   36.8020 H   0  0  0  0  0  0  0  0  0  0  0  0
   43.1610   29.9310   35.5000 C   0  0  0  0  0  0  0  0  0  0  0  0
   42.6770   29.1910   34.9060 H   0  0  0  0  0  0  0  0  0  0  0  0
   44.4770   30.3890   35.4700 C   0  0  0  0  0  0  0  0  0  0  0  0
   45.1890   29.9880   34.7640 H   0  0  0  0  0  0  0  0  0  0  0  0
   44.6550   31.3280   36.3960 O   0  0  0  0  0  0  0  0  0  0  0  0
  1  5  1  0  0  0  0
  1  2  2  0  0  0  0
  2  3  1  0  0  0  0
  3 13  1  0  0  0  0
  4  3  1  0  0  0  0
  4  6  1  0  0  0  0
  5  4  2  0  0  0  0
  6  7  1  0  0  0  0
  7 15  1  0  0  0  0
  7 14  1  0  0  0  0
  7  8  1  0  0  0  0
  8 16  1  0  0  0  0
  8 17  1  0  0  0  0
  9 19  1  0  0  0  0
  9  8  1  0  0  0  0
 10 21  1  0  0  0  0
 10  9  1  0  0  0  0
 11  6  1  0  0  0  0
 11 10  1  0  0  0  0
 12  2  1  0  0  0  0
 18  9  1  0  0  0  0
 20 10  1  0  0  0  0
 22 11  1  0  0  0  0
 23 11  1  0  0  0  0
 24  1  1  0  0  0  0
 24 25  1  0  0  0  0
 26 24  1  0  0  0  0
 28 24  1  0  0  0  0
 28 27  2  0  0  0  0
 29 27  1  0  0  0  0
 29 30  1  0  0  0  0
 30 35  1  0  0  0  0
 31 36  1  0  0  0  0
 31 30  2  0  0  0  0
 32 31  1  0  0  0  0
 33 34  1  0  0  0  0
 33 32  2  0  0  0  0
 34 29  2  0  0  0  0
 37 33  1  0  0  0  0
 38 39  1  0  0  0  0
 38 37  2  0  0  0  0
 40 38  1  0  0  0  0
 41 40  1  0  0  0  0
 42 40  2  0  0  0  0
 42 44  1  0  0  0  0
 43 42  1  0  0  0  0
 44 37  1  0  0  0  0
M  END
>  <minimizedAffinity>
-5.7589426

$$$$

 OpenBabel03252504433D

 44 47  0  0  0  0  0  0  0  0999 V2000
   36.1160   28.4220   38.5380 C   0  0  0  0  0  0  0  0  0  0  0  0
   35.5690   27.2480   38.1230 C   0  0  0  0  0  0  0  0  0  0  0  0
   36.1140   26.2810   38.8640 N   0  0  0  0  0  0  0  0  0  0  0  0
   36.9910   26.7930   39.7390 C   0  0  0  0  0  0  0  0  0  0  0  0
   36.9770   28.1300   39.5200 N   0  0  0  0  0  0  0  0  0  0  0  0
   37.8070   26.1770   40.7190 N   0  0  0  0  0  0  0  0  0  0  0  0
   37.2640   25.9850   42.0590 C   0  0  0  0  0  0  0  0  0  0  0  0
   36.9320   24.4950   42.1320 C   0  0  0  0  0  0  0  0  0  0  0  0
   38.1050   23.6760   41.6500 C   0  0  0  0  0  0  0  0  0  0  0  0
   39.3470   24.5320   41.6330 C   0  0  0  0  0  0  0  0  0  0  0  0
   39.1620   25.6690   40.6470 C   0  0  0  0  0  0  0  0  0  0  0  0
   34.8320   27.1630   37.3350 H   0  0  0  0  0  0  0  0  0  0  0  0
   35.9020   25.2620   38.7890 H   0  0  0  0  0  0  0  0  0  0  0  0
   36.2880   26.5280   42.1680 H   0  0  0  0  0  0  0  0  0  0  0  0
   37.9560   26.2860   42.8520 H   0  0  0  0  0  0  0  0  0  0  0  0
   36.0760   24.3730   41.4090 H   0  0  0  0  0  0  0  0  0  0  0  0
   36.5650   24.1800   43.1140 H   0  0  0  0  0  0  0  0  0  0  0  0
   37.9240   23.2620   40.6340 H   0  0  0  0  0  0  0  0  0  0  0  0
   38.2530   22.8450   42.3810 H   0  0  0  0  0  0  0  0  0  0  0  0
   40.2280   23.9390   41.3400 H   0  0  0  0  0  0  0  0  0  0  0  0
   39.4800   24.9360   42.6680 H   0  0  0  0  0  0  0  0  0  0  0  0
   39.8170   26.5290   40.9610 H   0  0  0  0  0  0  0  0  0  0  0  0
   39.3910   25.3420   39.6210 H   0  0  0  0  0  0  0  0  0  0  0  0
   35.8230   29.7860   38.0140 C   0  0  0  0  0  0  0  0  0  0  0  0
   34.7530   30.0530   38.1850 H   0  0  0  0  0  0  0  0  0  0  0  0
   36.0270   29.8210   36.9190 H   0  0  0  0  0  0  0  0  0  0  0  0
   37.6760   31.4120   38.0240 C   0  0  0  0  0  3  0  0  0  0  0  0
   36.6860   30.7980   38.6540 C   0  0  0  0  0  3  0  0  0  0  0  0
   38.4540   32.3950   38.7790 C   0  0  0  0  0  0  0  0  0  0  0  0
   37.8430   33.2010   39.7790 C   0  0  0  0  0  0  0  0  0  0  0  0
   38.6570   34.1050   40.4440 C   0  0  0  0  0  0  0  0  0  0  0  0
   39.9670   34.1880   40.1260 N   0  0  0  0  0  0  0  0  0  0  0  0
   40.5200   33.4070   39.1690 C   0  0  0  0  0  0  0  0  0  0  0  0
   39.7820   32.5350   38.5150 N   0  0  0  0  0  0  0  0  0  0  0  0
   36.7970   33.0810   39.9780 H   0  0  0  0  0  0  0  0  0  0  0  0
   38.2200   34.7260   41.2030 H   0  0  0  0  0  0  0  0  0  0  0  0
   41.9460   33.6090   38.9370 C   0  0  0  0  0  0  0  0  0  0  0  0
   42.4300   33.5670   37.6270 C   0  0  0  0  0  0  0  0  0  0  0  0
   41.8860   33.3980   36.6910 H   0  0  0  0  0  0  0  0  0  0  0  0
   43.7970   33.7870   37.6910 C   0  0  0  0  0  0  0  0  0  0  0  0
   44.4540   33.8130   36.8530 H   0  0  0  0  0  0  0  0  0  0  0  0
   44.0650   33.9500   39.0490 C   0  0  0  0  0  0  0  0  0  0  0  0
   45.0690   34.1380   39.3990 H   0  0  0  0  0  0  0  0  0  0  0  0
   42.9410   33.8380   39.7530 O   0  0  0  0  0  0  0  0  0  0  0  0
  1  5  1  0  0  0  0
  2  1  2  0  0  0  0
  2  3  1  0  0  0  0
  3  4  1  0  0  0  0
  4  6  1  0  0  0  0
  5  4  2  0  0  0  0
  6  7  1  0  0  0  0
  7  8  1  0  0  0  0
  7 14  1  0  0  0  0
  7 15  1  0  0  0  0
  8 17  1  0  0  0  0
  9  8  1  0  0  0  0
  9 19  1  0  0  0  0
 10  9  1  0  0  0  0
 10 21  1  0  0  0  0
 11  6  1  0  0  0  0
 11 22  1  0  0  0  0
 11 10  1  0  0  0  0
 12  2  1  0  0  0  0
 13  3  1  0  0  0  0
 16  8  1  0  0  0  0
 18  9  1  0  0  0  0
 20 10  1  0  0  0  0
 23 11  1  0  0  0  0
 24 25  1  0  0  0  0
 24  1  1  0  0  0  0
 24 28  1  0  0  0  0
 26 24  1  0  0  0  0
 27 28  2  0  0  0  0
 27 29  1  0  0  0  0
 29 30  1  0  0  0  0
 30 35  1  0  0  0  0
 30 31  2  0  0  0  0
 31 36  1  0  0  0  0
 32 31  1  0  0  0  0
 33 32  2  0  0  0  0
 34 29  2  0  0  0  0
 34 33  1  0  0  0  0
 37 33  1  0  0  0  0
 37 44  1  0  0  0  0
 38 40  1  0  0  0  0
 38 37  2  0  0  0  0
 39 38  1  0  0  0  0
 40 42  2  0  0  0  0
 41 40  1  0  0  0  0
 42 43  1  0  0  0  0
 42 44  1  0  0  0  0
M  END
>  <minimizedAffinity>
-5.63485479

$$$$

 OpenBabel03252504433D

 44 47  0  0  0  0  0  0  0  0999 V2000
   38.2470   31.6800   38.2160 C   0  0  0  0  0  0  0  0  0  0  0  0
   38.5660   31.9340   36.9190 C   0  0  0  0  0  0  0  0  0  0  0  0
   39.8350   32.3490   36.9040 N   0  0  0  0  0  0  0  0  0  0  0  0
   40.3400   32.3690   38.1450 C   0  0  0  0  0  0  0  0  0  0  0  0
   39.3340   31.9480   38.9490 N   0  0  0  0  0  0  0  0  0  0  0  0
   41.6210   32.7300   38.6320 N   0  0  0  0  0  0  0  0  0  0  0  0
   42.6530   31.7020   38.7100 C   0  0  0  0  0  0  0  0  0  0  0  0
   43.5800   31.9930   37.5300 C   0  0  0  0  0  0  0  0  0  0  0  0
   43.9480   33.4580   37.5060 C   0  0  0  0  0  0  0  0  0  0  0  0
   43.6320   34.0810   38.8430 C   0  0  0  0  0  0  0  0  0  0  0  0
   42.1380   34.0010   39.0960 C   0  0  0  0  0  0  0  0  0  0  0  0
   37.8850   31.8090   36.0880 H   0  0  0  0  0  0  0  0  0  0  0  0
   40.3770   32.6230   36.0560 H   0  0  0  0  0  0  0  0  0  0  0  0
   42.2120   30.6890   38.5180 H   0  0  0  0  0  0  0  0  0  0  0  0
   43.1930   31.7060   39.6620 H   0  0  0  0  0  0  0  0  0  0  0  0
   42.9480   31.7580   36.6260 H   0  0  0  0  0  0  0  0  0  0  0  0
   44.4510   31.3320   37.4900 H   0  0  0  0  0  0  0  0  0  0  0  0
   43.4050   34.0020   36.7040 H   0  0  0  0  0  0  0  0  0  0  0  0
   45.0500   33.5200   37.3340 H   0  0  0  0  0  0  0  0  0  0  0  0
   43.9470   35.1360   38.8680 H   0  0  0  0  0  0  0  0  0  0  0  0
   44.1860   33.4930   39.6180 H   0  0  0  0  0  0  0  0  0  0  0  0
   41.9600   34.0030   40.2080 H   0  0  0  0  0  0  0  0  0  0  0  0
   41.6110   34.8300   38.6010 H   0  0  0  0  0  0  0  0  0  0  0  0
   36.9410   31.1930   38.7430 C   0  0  0  0  0  0  0  0  0  0  0  0
   36.2540   30.9220   37.9050 H   0  0  0  0  0  0  0  0  0  0  0  0
   36.4580   31.9900   39.3530 H   0  0  0  0  0  0  0  0  0  0  0  0
   36.8280   30.0230   40.9090 C   0  0  0  0  0  3  0  0  0  0  0  0
   37.1250   30.0200   39.6190 C   0  0  0  0  0  3  0  0  0  0  0  0
   37.0600   28.7890   41.6620 C   0  0  0  0  0  0  0  0  0  0  0  0
   37.3840   28.8270   43.0460 C   0  0  0  0  0  0  0  0  0  0  0  0
   37.5870   27.6100   43.6790 C   0  0  0  0  0  0  0  0  0  0  0  0
   37.4720   26.4620   42.9770 N   0  0  0  0  0  0  0  0  0  0  0  0
   37.1620   26.4580   41.6600 C   0  0  0  0  0  0  0  0  0  0  0  0
   36.9610   27.5920   41.0220 N   0  0  0  0  0  0  0  0  0  0  0  0
   37.4590   29.7750   43.5390 H   0  0  0  0  0  0  0  0  0  0  0  0
   37.8340   27.6100   44.7240 H   0  0  0  0  0  0  0  0  0  0  0  0
   37.0730   25.1430   41.0360 C   0  0  0  0  0  0  0  0  0  0  0  0
   37.9320   24.1300   41.4710 C   0  0  0  0  0  0  0  0  0  0  0  0
   38.7050   24.1600   42.2460 H   0  0  0  0  0  0  0  0  0  0  0  0
   37.6390   23.0000   40.7230 C   0  0  0  0  0  0  0  0  0  0  0  0
   38.1270   22.0580   40.8180 H   0  0  0  0  0  0  0  0  0  0  0  0
   36.6120   23.3980   39.8700 C   0  0  0  0  0  0  0  0  0  0  0  0
   36.1790   22.7070   39.1610 H   0  0  0  0  0  0  0  0  0  0  0  0
   36.3060   24.6740   40.0880 O   0  0  0  0  0  0  0  0  0  0  0  0
  1 24  1  0  0  0  0
  1  5  1  0  0  0  0
  2  1  2  0  0  0  0
  3  2  1  0  0  0  0
  3  4  1  0  0  0  0
  4  6  1  0  0  0  0
  4  5  2  0  0  0  0
  6  7  1  0  0  0  0
  6 11  1  0  0  0  0
  7 15  1  0  0  0  0
  8  7  1  0  0  0  0
  9  8  1  0  0  0  0
  9 10  1  0  0  0  0
 10 20  1  0  0  0  0
 10 11  1  0  0  0  0
 10 21  1  0  0  0  0
 11 22  1  0  0  0  0
 12  2  1  0  0  0  0
 13  3  1  0  0  0  0
 14  7  1  0  0  0  0
 16  8  1  0  0  0  0
 17  8  1  0  0  0  0
 18  9  1  0  0  0  0
 19  9  1  0  0  0  0
 23 11  1  0  0  0  0
 24 26  1  0  0  0  0
 24 28  1  0  0  0  0
 25 24  1  0  0  0  0
 27 29  1  0  0  0  0
 28 27  2  0  0  0  0
 29 30  1  0  0  0  0
 30 35  1  0  0  0  0
 30 31  2  0  0  0  0
 31 36  1  0  0  0  0
 32 31  1  0  0  0  0
 33 32  2  0  0  0  0
 34 33  1  0  0  0  0
 34 29  2  0  0  0  0
 37 38  2  0  0  0  0
 37 33  1  0  0  0  0
 38 39  1  0  0  0  0
 40 41  1  0  0  0  0
 40 38  1  0  0  0  0
 42 44  1  0  0  0  0
 42 40  2  0  0  0  0
 43 42  1  0  0  0  0
 44 37  1  0  0  0  0
M  END
>  <minimizedAffinity>
-5.63272285

$$$$

 OpenBabel03252504433D

 44 47  0  0  0  0  0  0  0  0999 V2000
   33.6870   28.0490   36.3760 C   0  0  0  0  0  0  0  0  0  0  0  0
   34.3110   28.7160   35.3680 C   0  0  0  0  0  0  0  0  0  0  0  0
   33.4160   29.5570   34.8440 N   0  0  0  0  0  0  0  0  0  0  0  0
   32.2410   29.4530   35.4800 C   0  0  0  0  0  0  0  0  0  0  0  0
   32.4300   28.5080   36.4320 N   0  0  0  0  0  0  0  0  0  0  0  0
   31.0080   30.1250   35.2900 N   0  0  0  0  0  0  0  0  0  0  0  0
   30.7780   31.3750   36.0060 C   0  0  0  0  0  0  0  0  0  0  0  0
   30.9520   32.4650   34.9500 C   0  0  0  0  0  0  0  0  0  0  0  0
   30.1540   32.1250   33.7140 C   0  0  0  0  0  0  0  0  0  0  0  0
   29.1410   31.0580   34.0440 C   0  0  0  0  0  0  0  0  0  0  0  0
   29.8600   29.7930   34.4720 C   0  0  0  0  0  0  0  0  0  0  0  0
   35.3420   28.5600   35.0810 H   0  0  0  0  0  0  0  0  0  0  0  0
   33.5870   30.2120   34.0500 H   0  0  0  0  0  0  0  0  0  0  0  0
   31.5850   31.5450   36.7670 H   0  0  0  0  0  0  0  0  0  0  0  0
   29.7930   31.4230   36.4810 H   0  0  0  0  0  0  0  0  0  0  0  0
   32.0510   32.4260   34.7010 H   0  0  0  0  0  0  0  0  0  0  0  0
   30.7470   33.4720   35.3280 H   0  0  0  0  0  0  0  0  0  0  0  0
   30.8110   31.7720   32.8890 H   0  0  0  0  0  0  0  0  0  0  0  0
   29.6120   33.0500   33.4030 H   0  0  0  0  0  0  0  0  0  0  0  0
   28.5070   30.8350   33.1700 H   0  0  0  0  0  0  0  0  0  0  0  0
   28.5150   31.4500   34.8860 H   0  0  0  0  0  0  0  0  0  0  0  0
   29.1790   29.2010   35.1460 H   0  0  0  0  0  0  0  0  0  0  0  0
   30.1740   29.2030   33.5980 H   0  0  0  0  0  0  0  0  0  0  0  0
   34.2720   27.0040   37.2620 C   0  0  0  0  0  0  0  0  0  0  0  0
   34.8760   26.2770   36.6680 H   0  0  0  0  0  0  0  0  0  0  0  0
   33.4570   26.4490   37.7810 H   0  0  0  0  0  0  0  0  0  0  0  0
   34.8430   28.7560   38.8990 C   0  0  0  0  0  3  0  0  0  0  0  0
   35.1250   27.6080   38.3040 C   0  0  0  0  0  3  0  0  0  0  0  0
   35.7760   29.2420   39.9170 C   0  0  0  0  0  0  0  0  0  0  0  0
   36.1060   28.4450   41.0480 C   0  0  0  0  0  0  0  0  0  0  0  0
   37.0000   28.9850   41.9600 C   0  0  0  0  0  0  0  0  0  0  0  0
   37.5120   30.2170   41.7480 N   0  0  0  0  0  0  0  0  0  0  0  0
   37.1790   30.9510   40.6610 C   0  0  0  0  0  0  0  0  0  0  0  0
   36.3350   30.4740   39.7700 N   0  0  0  0  0  0  0  0  0  0  0  0
   35.6600   27.4760   41.1510 H   0  0  0  0  0  0  0  0  0  0  0  0
   37.2640   28.4040   42.8230 H   0  0  0  0  0  0  0  0  0  0  0  0
   37.8130   32.2620   40.5680 C   0  0  0  0  0  0  0  0  0  0  0  0
   37.2790   33.2090   39.6920 C   0  0  0  0  0  0  0  0  0  0  0  0
   36.4150   33.1290   39.0240 H   0  0  0  0  0  0  0  0  0  0  0  0
   38.0610   34.3490   39.7990 C   0  0  0  0  0  0  0  0  0  0  0  0
   37.9090   35.2510   39.2540 H   0  0  0  0  0  0  0  0  0  0  0  0
   39.0330   34.0220   40.7430 C   0  0  0  0  0  0  0  0  0  0  0  0
   39.7920   34.7350   41.0300 H   0  0  0  0  0  0  0  0  0  0  0  0
   38.8500   32.7760   41.1740 O   0  0  0  0  0  0  0  0  0  0  0  0
  1  5  1  0  0  0  0
  1 24  1  0  0  0  0
  2  1  2  0  0  0  0
  3  2  1  0  0  0  0
  3  4  1  0  0  0  0
  4  5  2  0  0  0  0
  6  4  1  0  0  0  0
  6  7  1  0  0  0  0
  7 15  1  0  0  0  0
  7 14  1  0  0  0  0
  8 17  1  0  0  0  0
  8  7  1  0  0  0  0
  9 10  1  0  0  0  0
  9  8  1  0  0  0  0
 10 11  1  0  0  0  0
 10 21  1  0  0  0  0
 11 22  1  0  0  0  0
 11  6  1  0  0  0  0
 12  2  1  0  0  0  0
 13  3  1  0  0  0  0
 16  8  1  0  0  0  0
 18  9  1  0  0  0  0
 19  9  1  0  0  0  0
 20 10  1  0  0  0  0
 23 11  1  0  0  0  0
 24 26  1  0  0  0  0
 24 28  1  0  0  0  0
 25 24  1  0  0  0  0
 27 29  1  0  0  0  0
 28 27  2  0  0  0  0
 29 30  1  0  0  0  0
 30 35  1  0  0  0  0
 30 31  2  0  0  0  0
 31 36  1  0  0  0  0
 32 31  1  0  0  0  0
 33 32  2  0  0  0  0
 34 29  2  0  0  0  0
 34 33  1  0  0  0  0
 37 33  1  0  0  0  0
 37 44  1  0  0  0  0
 38 40  1  0  0  0  0
 38 37  2  0  0  0  0
 39 38  1  0  0  0  0
 40 42  2  0  0  0  0
 41 40  1  0  0  0  0
 42 43  1  0  0  0  0
 42 44  1  0  0  0  0
M  END
>  <minimizedAffinity>
-5.56285524

$$$$

 OpenBabel03252504433D

 44 47  0  0  0  0  0  0  0  0999 V2000
   38.5000   33.1650   39.9210 C   0  0  0  0  0  0  0  0  0  0  0  0
   38.9580   34.3300   40.4520 C   0  0  0  0  0  0  0  0  0  0  0  0
   40.0960   34.0470   41.0900 N   0  0  0  0  0  0  0  0  0  0  0  0
   40.3840   32.7420   40.9850 C   0  0  0  0  0  0  0  0  0  0  0  0
   39.3760   32.2100   40.2520 N   0  0  0  0  0  0  0  0  0  0  0  0
   41.4660   31.9760   41.4850 N   0  0  0  0  0  0  0  0  0  0  0  0
   42.6670   31.8490   40.6670 C   0  0  0  0  0  0  0  0  0  0  0  0
   43.6850   32.7790   41.3260 C   0  0  0  0  0  0  0  0  0  0  0  0
   43.7340   32.5280   42.8140 C   0  0  0  0  0  0  0  0  0  0  0  0
   43.0860   31.2010   43.1240 C   0  0  0  0  0  0  0  0  0  0  0  0
   41.6220   31.2490   42.7280 C   0  0  0  0  0  0  0  0  0  0  0  0
   38.4580   35.2850   40.3510 H   0  0  0  0  0  0  0  0  0  0  0  0
   40.6940   34.7300   41.6030 H   0  0  0  0  0  0  0  0  0  0  0  0
   42.4860   32.2610   39.6390 H   0  0  0  0  0  0  0  0  0  0  0  0
   43.0380   30.8210   40.6040 H   0  0  0  0  0  0  0  0  0  0  0  0
   43.2680   33.8100   41.1400 H   0  0  0  0  0  0  0  0  0  0  0  0
   44.6720   32.7460   40.8540 H   0  0  0  0  0  0  0  0  0  0  0  0
   43.2200   33.3340   43.3810 H   0  0  0  0  0  0  0  0  0  0  0  0
   44.8100   32.4780   43.1070 H   0  0  0  0  0  0  0  0  0  0  0  0
   43.1620   30.9690   44.1990 H   0  0  0  0  0  0  0  0  0  0  0  0
   43.6230   30.4250   42.5220 H   0  0  0  0  0  0  0  0  0  0  0  0
   41.2750   30.2020   42.5030 H   0  0  0  0  0  0  0  0  0  0  0  0
   41.0160   31.7140   43.5200 H   0  0  0  0  0  0  0  0  0  0  0  0
   37.2600   32.9690   39.1170 C   0  0  0  0  0  0  0  0  0  0  0  0
   37.3950   33.3640   38.0810 H   0  0  0  0  0  0  0  0  0  0  0  0
   36.4110   33.5090   39.5950 H   0  0  0  0  0  0  0  0  0  0  0  0
   36.8660   30.8510   37.9190 C   0  0  0  0  0  3  0  0  0  0  0  0
   36.8910   31.5420   39.0490 C   0  0  0  0  0  3  0  0  0  0  0  0
   36.4810   29.4410   37.9950 C   0  0  0  0  0  0  0  0  0  0  0  0
   35.8040   28.8080   36.9160 C   0  0  0  0  0  0  0  0  0  0  0  0
   35.4790   27.4700   37.0740 C   0  0  0  0  0  0  0  0  0  0  0  0
   35.8080   26.8300   38.2180 N   0  0  0  0  0  0  0  0  0  0  0  0
   36.4530   27.4600   39.2280 C   0  0  0  0  0  0  0  0  0  0  0  0
   36.7810   28.7310   39.1170 N   0  0  0  0  0  0  0  0  0  0  0  0
   35.5750   29.3780   36.0380 H   0  0  0  0  0  0  0  0  0  0  0  0
   34.9670   26.9690   36.2750 H   0  0  0  0  0  0  0  0  0  0  0  0
   36.7410   26.6410   40.3990 C   0  0  0  0  0  0  0  0  0  0  0  0
   36.9390   27.2690   41.6310 C   0  0  0  0  0  0  0  0  0  0  0  0
   36.9110   28.3350   41.8790 H   0  0  0  0  0  0  0  0  0  0  0  0
   37.1920   26.2720   42.5600 C   0  0  0  0  0  0  0  0  0  0  0  0
   37.3850   26.4320   43.5960 H   0  0  0  0  0  0  0  0  0  0  0  0
   37.1330   25.0860   41.8300 C   0  0  0  0  0  0  0  0  0  0  0  0
   37.2950   24.1310   42.3070 H   0  0  0  0  0  0  0  0  0  0  0  0
   36.8640   25.3480   40.5540 O   0  0  0  0  0  0  0  0  0  0  0  0
  1  5  1  0  0  0  0
  1  2  2  0  0  0  0
  2  3  1  0  0  0  0
  3 13  1  0  0  0  0
  4  3  1  0  0  0  0
  4  6  1  0  0  0  0
  5  4  2  0  0  0  0
  6 11  1  0  0  0  0
  7  8  1  0  0  0  0
  7  6  1  0  0  0  0
  8  9  1  0  0  0  0
  9 19  1  0  0  0  0
  9 10  1  0  0  0  0
  9 18  1  0  0  0  0
 10 20  1  0  0  0  0
 11 10  1  0  0  0  0
 11 23  1  0  0  0  0
 12  2  1  0  0  0  0
 14  7  1  0  0  0  0
 15  7  1  0  0  0  0
 16  8  1  0  0  0  0
 17  8  1  0  0  0  0
 21 10  1  0  0  0  0
 22 11  1  0  0  0  0
 24 26  1  0  0  0  0
 24  1  1  0  0  0  0
 25 24  1  0  0  0  0
 27 29  1  0  0  0  0
 27 28  2  0  0  0  0
 28 24  1  0  0  0  0
 29 34  1  0  0  0  0
 30 31  1  0  0  0  0
 30 29  2  0  0  0  0
 31 32  2  0  0  0  0
 32 33  1  0  0  0  0
 33 37  1  0  0  0  0
 34 33  2  0  0  0  0
 35 30  1  0  0  0  0
 36 31  1  0  0  0  0
 37 44  1  0  0  0  0
 37 38  2  0  0  0  0
 38 39  1  0  0  0  0
 38 40  1  0  0  0  0
 40 41  1  0  0  0  0
 42 43  1  0  0  0  0
 42 40  2  0  0  0  0
 44 42  1  0  0  0  0
M  END
>  <minimizedAffinity>
-5.45349121

$$$$

 OpenBabel03252504433D

 44 47  0  0  0  0  0  0  0  0999 V2000
   34.5580   26.5370   37.3000 C   0  0  0  0  0  0  0  0  0  0  0  0
   33.5520   25.7620   36.8130 C   0  0  0  0  0  0  0  0  0  0  0  0
   32.5890   26.5890   36.4000 N   0  0  0  0  0  0  0  0  0  0  0  0
   32.9420   27.8650   36.6040 C   0  0  0  0  0  0  0  0  0  0  0  0
   34.1740   27.8120   37.1650 N   0  0  0  0  0  0  0  0  0  0  0  0
   32.2660   29.0810   36.3350 N   0  0  0  0  0  0  0  0  0  0  0  0
   32.4480   29.7070   35.0300 C   0  0  0  0  0  0  0  0  0  0  0  0
   31.1540   29.4110   34.2740 C   0  0  0  0  0  0  0  0  0  0  0  0
   29.9590   29.7500   35.1340 C   0  0  0  0  0  0  0  0  0  0  0  0
   30.3940   30.6320   36.2780 C   0  0  0  0  0  0  0  0  0  0  0  0
   31.3730   29.8740   37.1550 C   0  0  0  0  0  0  0  0  0  0  0  0
   33.5730   24.6810   36.7870 H   0  0  0  0  0  0  0  0  0  0  0  0
   31.6810   26.3030   35.9740 H   0  0  0  0  0  0  0  0  0  0  0  0
   33.2670   29.1940   34.4600 H   0  0  0  0  0  0  0  0  0  0  0  0
   32.6460   30.7820   35.0920 H   0  0  0  0  0  0  0  0  0  0  0  0
   31.1850   28.2950   34.1120 H   0  0  0  0  0  0  0  0  0  0  0  0
   31.1140   29.8750   33.2840 H   0  0  0  0  0  0  0  0  0  0  0  0
   29.4710   28.8350   35.5340 H   0  0  0  0  0  0  0  0  0  0  0  0
   29.2420   30.3200   34.4960 H   0  0  0  0  0  0  0  0  0  0  0  0
   29.5290   30.9410   36.8860 H   0  0  0  0  0  0  0  0  0  0  0  0
   30.8920   31.5290   35.8300 H   0  0  0  0  0  0  0  0  0  0  0  0
   32.0370   30.6170   37.6800 H   0  0  0  0  0  0  0  0  0  0  0  0
   30.8430   29.2300   37.8720 H   0  0  0  0  0  0  0  0  0  0  0  0
   35.8530   26.0730   37.8760 C   0  0  0  0  0  0  0  0  0  0  0  0
   36.6280   25.9790   37.0780 H   0  0  0  0  0  0  0  0  0  0  0  0
   35.7170   25.0780   38.3580 H   0  0  0  0  0  0  0  0  0  0  0  0
   36.5920   26.6310   40.1600 C   0  0  0  0  0  3  0  0  0  0  0  0
   36.3350   27.0030   38.9150 C   0  0  0  0  0  3  0  0  0  0  0  0
   37.0660   27.6560   41.0910 C   0  0  0  0  0  0  0  0  0  0  0  0
   37.2800   27.3560   42.4640 C   0  0  0  0  0  0  0  0  0  0  0  0
   37.7300   28.3880   43.2720 C   0  0  0  0  0  0  0  0  0  0  0  0
   37.9420   29.6120   42.7410 N   0  0  0  0  0  0  0  0  0  0  0  0
   37.7290   29.8680   41.4290 C   0  0  0  0  0  0  0  0  0  0  0  0
   37.3030   28.9140   40.6270 N   0  0  0  0  0  0  0  0  0  0  0  0
   37.0900   26.3620   42.8160 H   0  0  0  0  0  0  0  0  0  0  0  0
   37.8990   28.1880   44.3130 H   0  0  0  0  0  0  0  0  0  0  0  0
   38.0020   31.2350   41.0010 C   0  0  0  0  0  0  0  0  0  0  0  0
   37.0870   31.8760   40.1630 C   0  0  0  0  0  0  0  0  0  0  0  0
   36.1440   31.5030   39.7500 H   0  0  0  0  0  0  0  0  0  0  0  0
   37.5840   33.1460   39.9140 C   0  0  0  0  0  0  0  0  0  0  0  0
   37.1120   33.8810   39.3050 H   0  0  0  0  0  0  0  0  0  0  0  0
   38.7830   33.2010   40.6210 C   0  0  0  0  0  0  0  0  0  0  0  0
   39.3970   34.0900   40.6090 H   0  0  0  0  0  0  0  0  0  0  0  0
   38.9950   32.0480   41.2520 O   0  0  0  0  0  0  0  0  0  0  0  0
  1 24  1  0  0  0  0
  2  1  2  0  0  0  0
  3  4  1  0  0  0  0
  3  2  1  0  0  0  0
  4  5  2  0  0  0  0
  5  1  1  0  0  0  0
  6  4  1  0  0  0  0
  6 11  1  0  0  0  0
  7 15  1  0  0  0  0
  7  6  1  0  0  0  0
  8  7  1  0  0  0  0
  8  9  1  0  0  0  0
  9 18  1  0  0  0  0
  9 10  1  0  0  0  0
 10 20  1  0  0  0  0
 10 11  1  0  0  0  0
 11 22  1  0  0  0  0
 11 23  1  0  0  0  0
 12  2  1  0  0  0  0
 13  3  1  0  0  0  0
 14  7  1  0  0  0  0
 16  8  1  0  0  0  0
 17  8  1  0  0  0  0
 19  9  1  0  0  0  0
 21 10  1  0  0  0  0
 24 26  1  0  0  0  0
 24 28  1  0  0  0  0
 25 24  1  0  0  0  0
 27 29  1  0  0  0  0
 28 27  2  0  0  0  0
 29 30  1  0  0  0  0
 30 35  1  0  0  0  0
 30 31  2  0  0  0  0
 31 36  1  0  0  0  0
 32 31  1  0  0  0  0
 33 32  2  0  0  0  0
 34 29  2  0  0  0  0
 34 33  1  0  0  0  0
 37 44  1  0  0  0  0
 37 33  1  0  0  0  0
 38 37  2  0  0  0  0
 39 38  1  0  0  0  0
 40 38  1  0  0  0  0
 40 42  2  0  0  0  0
 41 40  1  0  0  0  0
 42 44  1  0  0  0  0
 43 42  1  0  0  0  0
M  END
>  <minimizedAffinity>
-5.41312265

$$$$

 OpenBabel03252504433D

 44 47  0  0  0  0  0  0  0  0999 V2000
   36.8330   30.4610   37.9260 C   0  0  0  0  0  0  0  0  0  0  0  0
   37.3430   30.9980   36.7860 C   0  0  0  0  0  0  0  0  0  0  0  0
   38.3520   31.7950   37.1470 N   0  0  0  0  0  0  0  0  0  0  0  0
   38.5060   31.7870   38.4790 C   0  0  0  0  0  0  0  0  0  0  0  0
   37.5500   30.9490   38.9460 N   0  0  0  0  0  0  0  0  0  0  0  0
   39.4240   32.4610   39.3210 N   0  0  0  0  0  0  0  0  0  0  0  0
   40.7000   31.8190   39.6180 C   0  0  0  0  0  0  0  0  0  0  0  0
   41.7190   32.5680   38.7610 C   0  0  0  0  0  0  0  0  0  0  0  0
   41.5470   34.0580   38.9300 C   0  0  0  0  0  0  0  0  0  0  0  0
   40.7240   34.3360   40.1630 C   0  0  0  0  0  0  0  0  0  0  0  0
   39.3380   33.7440   39.9880 C   0  0  0  0  0  0  0  0  0  0  0  0
   36.9690   30.7900   35.7920 H   0  0  0  0  0  0  0  0  0  0  0  0
   38.9490   32.3550   36.5010 H   0  0  0  0  0  0  0  0  0  0  0  0
   40.7000   30.7590   39.2500 H   0  0  0  0  0  0  0  0  0  0  0  0
   40.9610   31.8510   40.6810 H   0  0  0  0  0  0  0  0  0  0  0  0
   41.4450   32.2830   37.7050 H   0  0  0  0  0  0  0  0  0  0  0  0
   42.7490   32.2350   38.9230 H   0  0  0  0  0  0  0  0  0  0  0  0
   41.0560   34.5160   38.0440 H   0  0  0  0  0  0  0  0  0  0  0  0
   42.5650   34.4960   39.0730 H   0  0  0  0  0  0  0  0  0  0  0  0
   40.6350   35.4200   40.3390 H   0  0  0  0  0  0  0  0  0  0  0  0
   41.2460   33.8460   41.0230 H   0  0  0  0  0  0  0  0  0  0  0  0
   38.9100   33.5200   41.0050 H   0  0  0  0  0  0  0  0  0  0  0  0
   38.6880   34.4260   39.4190 H   0  0  0  0  0  0  0  0  0  0  0  0
   35.6940   29.5070   38.0400 C   0  0  0  0  0  0  0  0  0  0  0  0
   35.3400   29.1930   37.0290 H   0  0  0  0  0  0  0  0  0  0  0  0
   34.8480   29.9920   38.5780 H   0  0  0  0  0  0  0  0  0  0  0  0
   35.8340   27.0740   38.4080 C   0  0  0  0  0  3  0  0  0  0  0  0
   36.0780   28.3110   38.8130 C   0  0  0  0  0  3  0  0  0  0  0  0
   36.2700   25.9770   39.2750 C   0  0  0  0  0  0  0  0  0  0  0  0
   35.7190   24.6730   39.1380 C   0  0  0  0  0  0  0  0  0  0  0  0
   36.1910   23.6960   40.0000 C   0  0  0  0  0  0  0  0  0  0  0  0
   37.1330   24.0080   40.9170 N   0  0  0  0  0  0  0  0  0  0  0  0
   37.6380   25.2600   41.0230 C   0  0  0  0  0  0  0  0  0  0  0  0
   37.2170   26.2160   40.2220 N   0  0  0  0  0  0  0  0  0  0  0  0
   34.9740   24.4970   38.3880 H   0  0  0  0  0  0  0  0  0  0  0  0
   35.7910   22.7030   39.9190 H   0  0  0  0  0  0  0  0  0  0  0  0
   38.6480   25.4460   42.0590 C   0  0  0  0  0  0  0  0  0  0  0  0
   38.6770   26.6500   42.7650 C   0  0  0  0  0  0  0  0  0  0  0  0
   38.0310   27.5290   42.6670 H   0  0  0  0  0  0  0  0  0  0  0  0
   39.7190   26.5620   43.6760 C   0  0  0  0  0  0  0  0  0  0  0  0
   39.9990   27.3260   44.3640 H   0  0  0  0  0  0  0  0  0  0  0  0
   40.2660   25.2990   43.4650 C   0  0  0  0  0  0  0  0  0  0  0  0
   41.1090   24.9540   44.0460 H   0  0  0  0  0  0  0  0  0  0  0  0
   39.6030   24.6690   42.4980 O   0  0  0  0  0  0  0  0  0  0  0  0
  1 24  1  0  0  0  0
  1  5  1  0  0  0  0
  2  3  1  0  0  0  0
  2  1  2  0  0  0  0
  3  4  1  0  0  0  0
  4  5  2  0  0  0  0
  4  6  1  0  0  0  0
  6  7  1  0  0  0  0
  6 11  1  0  0  0  0
  7 15  1  0  0  0  0
  8 17  1  0  0  0  0
  8  9  1  0  0  0  0
  8  7  1  0  0  0  0
  9 19  1  0  0  0  0
  9 10  1  0  0  0  0
 10 20  1  0  0  0  0
 10 21  1  0  0  0  0
 11 10  1  0  0  0  0
 11 22  1  0  0  0  0
 12  2  1  0  0  0  0
 13  3  1  0  0  0  0
 14  7  1  0  0  0  0
 16  8  1  0  0  0  0
 18  9  1  0  0  0  0
 23 11  1  0  0  0  0
 24 26  1  0  0  0  0
 24 28  1  0  0  0  0
 25 24  1  0  0  0  0
 27 28  2  0  0  0  0
 27 29  1  0  0  0  0
 29 34  1  0  0  0  0
 30 29  2  0  0  0  0
 30 31  1  0  0  0  0
 31 32  2  0  0  0  0
 32 33  1  0  0  0  0
 33 37  1  0  0  0  0
 34 33  2  0  0  0  0
 35 30  1  0  0  0  0
 36 31  1  0  0  0  0
 37 44  1  0  0  0  0
 37 38  2  0  0  0  0
 38 40  1  0  0  0  0
 39 38  1  0  0  0  0
 40 41  1  0  0  0  0
 42 40  2  0  0  0  0
 42 43  1  0  0  0  0
 44 42  1  0  0  0  0
M  END
>  <minimizedAffinity>
-5.39656258

$$$$
