
 OpenBabel03242513343D

 20 21  0  0  0  0  0  0  0  0999 V2000
   45.1480   34.7850   44.9430 C   0  0  0  0  0  0  0  0  0  0  0  0
   46.0190   34.5630   43.8820 C   0  0  0  0  0  0  0  0  0  0  0  0
   46.9640   33.5430   44.0350 C   0  0  0  0  0  0  0  0  0  0  0  0
   46.9840   32.8320   45.1950 N   0  0  0  0  0  0  0  0  0  0  0  0
   46.1140   33.0910   46.1930 C   0  0  0  0  0  0  0  0  0  0  0  0
   45.1920   34.0640   46.0810 N   0  0  0  0  0  0  0  0  0  0  0  0
   44.3590   35.5520   44.9570 H   0  0  0  0  0  0  0  0  0  0  0  0
   47.6410   33.3720   43.2080 H   0  0  0  0  0  0  0  0  0  0  0  0
   46.1500   32.3140   47.4380 C   0  0  0  0  0  0  0  0  0  0  0  0
   45.0250   32.1450   48.2520 C   0  0  0  0  0  0  0  0  0  0  0  0
   44.0200   32.4860   48.1800 H   0  0  0  0  0  0  0  0  0  0  0  0
   45.4980   31.3720   49.2800 C   0  0  0  0  0  0  0  0  0  0  0  0
   45.0460   30.9570   50.1690 H   0  0  0  0  0  0  0  0  0  0  0  0
   46.8360   31.0990   49.0810 C   0  0  0  0  0  0  0  0  0  0  0  0
   47.6550   30.5740   49.5410 H   0  0  0  0  0  0  0  0  0  0  0  0
   47.1870   31.6950   47.9460 O   0  0  0  0  0  0  0  0  0  0  0  0
   45.8810   35.4120   42.6840 C   0  0  0  0  0  0  0  0  0  0  0  0
   45.2620   36.5770   43.1020 F   0  0  0  0  0  0  0  0  0  0  0  0
   45.0840   34.7610   41.7700 F   0  0  0  0  0  0  0  0  0  0  0  0
   47.1510   35.6440   42.1640 F   0  0  0  0  0  0  0  0  0  0  0  0
  1  7  1  0  0  0  0
  1  6  1  0  0  0  0
  2  3  1  0  0  0  0
  2  1  2  0  0  0  0
  3  4  2  0  0  0  0
  4  5  1  0  0  0  0
  5  9  1  0  0  0  0
  6  5  2  0  0  0  0
  8  3  1  0  0  0  0
  9 16  1  0  0  0  0
  9 10  2  0  0  0  0
 10 12  1  0  0  0  0
 11 10  1  0  0  0  0
 12 13  1  0  0  0  0
 14 12  2  0  0  0  0
 14 15  1  0  0  0  0
 16 14  1  0  0  0  0
 17 18  1  0  0  0  0
 17  2  1  0  0  0  0
 19 17  1  0  0  0  0
 20 17  1  0  0  0  0
M  END
>  <minimizedAffinity>
-5.13749027

>  <minimizedRMSD>
0.529004693

$$$$
