REMARK  Name = 
REMARK  6 active torsions:
REMARK  status: ('A' for Active; 'I' for Inactive)
REMARK    1  A    between atoms: C_1  and  C_2
REMARK    2  A    between atoms: C_1  and  S_11
REMARK    3  A    between atoms: C_2  and  C_5
REMARK    4  A    between atoms: S_11  and  C_12
REMARK    5  A    between atoms: C_14  and  C_31
REMARK    6  A    between atoms: C_16  and  C_18
REMARK                            x       y       z     vdW  Elec       q    Type
REMARK                         _______ _______ _______ _____ _____    ______ ____
ROOT
ATOM      1  C   UNL     1      44.767  34.730  41.997  0.00  0.00    +0.000 A 
ATOM      2  C   UNL     1      46.050  34.508  41.498  0.00  0.00    +0.000 A 
ATOM      3  C   UNL     1      47.094  34.247  42.402  0.00  0.00    +0.000 A 
ATOM      4  N   UNL     1      46.779  34.230  43.712  0.00  0.00    +0.000 NA
ATOM      5  C   UNL     1      45.534  34.446  44.176  0.00  0.00    +0.000 A 
ATOM      6  N   UNL     1      44.556  34.691  43.312  0.00  0.00    +0.000 NA
ATOM      7  H   UNL     1      46.312  34.519  40.464  0.00  0.00    +0.000 HD
ENDROOT
BRANCH   3   8
ATOM      8  C   UNL     1      48.457  34.007  41.940  0.00  0.00    +0.000 A 
ATOM      9  C   UNL     1      49.563  34.043  42.763  0.00  0.00    +0.000 A 
ATOM     10  H   UNL     1      49.614  34.241  43.823  0.00  0.00    +0.000 HD
ATOM     11  C   UNL     1      50.607  33.756  41.875  0.00  0.00    +0.000 A 
ATOM     12  H   UNL     1      51.656  33.689  42.132  0.00  0.00    +0.000 HD
ATOM     13  C   UNL     1      50.083  33.569  40.596  0.00  0.00    +0.000 A 
ATOM     14  H   UNL     1      50.588  33.334  39.667  0.00  0.00    +0.000 HD
ATOM     15  O   UNL     1      48.781  33.735  40.709  0.00  0.00    +0.000 OA
ENDBRANCH   3   8
BRANCH   5  16
ATOM     16  C   UNL     1      45.330  34.398  45.612  0.00  0.00    +0.000 C 
ATOM     17  O   UNL     1      44.467  35.153  46.110  0.00  0.00    +0.000 OA
ATOM     18  N   UNL     1      46.144  33.476  46.360  0.00  0.00    +0.000 N 
ATOM     19  H   UNL     1      45.887  32.574  46.821  0.00  0.00    +0.000 HD
ATOM     20  H   UNL     1      47.143  33.751  46.455  0.00  0.00    +0.000 HD
ENDBRANCH   5  16
BRANCH   1  21
ATOM     21  S   UNL     1      43.500  35.057  40.782  0.00  0.00    +0.000 S 
BRANCH  21  22
ATOM     22  C   UNL     1      41.869  35.247  41.513  0.00  0.00    +0.000 C 
ATOM     23  H   UNL     1      42.005  35.703  42.520  0.00  0.00    +0.000 HD
ATOM     24  H   UNL     1      41.431  34.214  41.608  0.00  0.00    +0.000 HD
BRANCH  22  25
ATOM     25  C   UNL     1      40.940  36.102  40.721  0.00  0.00    +0.000 C 
ATOM     26  H   UNL     1      41.459  36.919  40.177  0.00  0.00    +0.000 HD
ATOM     27  H   UNL     1      40.241  36.609  41.438  0.00  0.00    +0.000 HD
BRANCH  25  30
ATOM     28 CL   UNL     1      41.754  36.290  37.803  0.00  0.00    +0.000 Cl
ATOM     29  C   UNL     1      40.453  35.308  38.391  0.00  0.00    +0.000 A 
ATOM     30  C   UNL     1      40.163  35.297  39.759  0.00  0.00    +0.000 A 
ATOM     31  C   UNL     1      39.114  34.490  40.149  0.00  0.00    +0.000 A 
ATOM     32  C   UNL     1      38.323  33.696  39.326  0.00  0.00    +0.000 A 
ATOM     33  C   UNL     1      38.643  33.736  37.981  0.00  0.00    +0.000 A 
ATOM     34 CL   UNL     1      37.698  32.763  36.854  0.00  0.00    +0.000 Cl
ATOM     35  C   UNL     1      39.680  34.522  37.533  0.00  0.00    +0.000 A 
ATOM     36  H   UNL     1      38.891  34.483  41.210  0.00  0.00    +0.000 HD
ATOM     37  H   UNL     1      37.529  33.105  39.738  0.00  0.00    +0.000 HD
ATOM     38  H   UNL     1      39.909  34.535  36.474  0.00  0.00    +0.000 HD
ENDBRANCH  25  30
ENDBRANCH  22  25
ENDBRANCH  21  22
ENDBRANCH   1  21
TORSDOF 6
