
 OpenBabel03252504143D

 34 36  0  0  0  0  0  0  0  0999 V2000
   47.7110   30.0600   44.9110 F   0  0  0  0  0  0  0  0  0  0  0  0
   47.5500   30.8190   46.0430 C   0  0  0  0  0  0  0  0  0  0  0  0
   46.9460   32.0500   45.9540 C   0  0  0  0  0  0  0  0  0  0  0  0
   46.8250   32.7530   47.1530 C   0  0  0  0  0  0  0  0  0  0  0  0
   47.2830   32.2380   48.3420 C   0  0  0  0  0  0  0  0  0  0  0  0
   47.8820   30.9890   48.3510 C   0  0  0  0  0  0  0  0  0  0  0  0
   48.0330   30.2410   47.1990 C   0  0  0  0  0  0  0  0  0  0  0  0
   46.3510   33.7370   47.1350 H   0  0  0  0  0  0  0  0  0  0  0  0
   47.1880   32.7820   49.2660 H   0  0  0  0  0  0  0  0  0  0  0  0
   48.2510   30.5620   49.2750 H   0  0  0  0  0  0  0  0  0  0  0  0
   48.6620   28.9250   47.2000 C   0  0  0  0  0  0  0  0  0  0  0  0
   47.9750   27.7530   47.4370 C   0  0  0  0  0  0  0  0  0  0  0  0
   46.9320   27.6660   47.6420 H   0  0  0  0  0  0  0  0  0  0  0  0
   48.9710   26.7830   47.3370 C   0  0  0  0  0  0  0  0  0  0  0  0
   48.8030   25.7130   47.4660 H   0  0  0  0  0  0  0  0  0  0  0  0
   50.1790   27.4010   47.0530 C   0  0  0  0  0  0  0  0  0  0  0  0
   51.1500   26.9450   46.9100 H   0  0  0  0  0  0  0  0  0  0  0  0
   49.9130   28.6900   46.9840 O   0  0  0  0  0  0  0  0  0  0  0  0
   46.7710   34.1230   42.9720 C   0  0  0  0  0  0  0  0  0  0  0  0
   45.6270   33.6770   42.3060 C   0  0  0  0  0  0  0  0  0  0  0  0
   44.9080   32.6330   42.9150 C   0  0  0  0  0  0  0  0  0  0  0  0
   45.3410   32.1140   44.0920 N   0  0  0  0  0  0  0  0  0  0  0  0
   46.4600   32.5910   44.6890 C   0  0  0  0  0  0  0  0  0  0  0  0
   47.1730   33.5950   44.1300 N   0  0  0  0  0  0  0  0  0  0  0  0
   44.0180   32.2650   42.4220 H   0  0  0  0  0  0  0  0  0  0  0  0
   45.2250   34.2960   41.0290 C   0  0  0  0  0  0  0  0  0  0  0  0
   44.9150   35.6210   41.2270 F   0  0  0  0  0  0  0  0  0  0  0  0
   46.3190   34.2550   40.1730 F   0  0  0  0  0  0  0  0  0  0  0  0
   44.1780   33.6960   40.4160 F   0  0  0  0  0  0  0  0  0  0  0  0
   47.4660   35.1360   42.3820 O   0  0  0  0  0  0  0  0  0  0  0  0
   48.7880   35.0700   41.8840 C   0  0  0  0  0  0  0  0  0  0  0  0
   49.6310   35.3370   42.9680 F   0  0  0  0  0  0  0  0  0  0  0  0
   49.0240   33.8500   41.3090 F   0  0  0  0  0  0  0  0  0  0  0  0
   49.0110   36.1140   41.0160 F   0  0  0  0  0  0  0  0  0  0  0  0
  1  2  1  0  0  0  0
  2  7  1  0  0  0  0
  3  2  2  0  0  0  0
  3  4  1  0  0  0  0
  4  5  2  0  0  0  0
  5  6  1  0  0  0  0
  5  9  1  0  0  0  0
  6 10  1  0  0  0  0
  7 11  1  0  0  0  0
  7  6  2  0  0  0  0
  8  4  1  0  0  0  0
 11 12  2  0  0  0  0
 12 13  1  0  0  0  0
 14 12  1  0  0  0  0
 14 15  1  0  0  0  0
 16 14  2  0  0  0  0
 17 16  1  0  0  0  0
 18 16  1  0  0  0  0
 18 11  1  0  0  0  0
 19 24  1  0  0  0  0
 20 21  1  0  0  0  0
 20 19  2  0  0  0  0
 21 22  2  0  0  0  0
 22 23  1  0  0  0  0
 23  3  1  0  0  0  0
 24 23  2  0  0  0  0
 25 21  1  0  0  0  0
 26 27  1  0  0  0  0
 26 20  1  0  0  0  0
 28 26  1  0  0  0  0
 29 26  1  0  0  0  0
 30 19  1  0  0  0  0
 31 30  1  0  0  0  0
 31 32  1  0  0  0  0
 33 31  1  0  0  0  0
 34 31  1  0  0  0  0
M  END
>  <minimizedAffinity>
-5.49725533

>  <minimizedRMSD>
0.419204831

$$$$
