
 OpenBabel03252509113D

 30 33  0  0  0  0  0  0  0  0999 V2000
   43.7730   29.5260   40.7210 C   0  0  0  0  0  0  0  0  0  0  0  0
   43.5030   30.8760   40.5740 C   0  0  0  0  0  0  0  0  0  0  0  0
   42.5390   31.5210   41.3230 C   0  0  0  0  0  0  0  0  0  0  0  0
   41.8020   30.8090   42.2640 C   0  0  0  0  0  0  0  0  0  0  0  0
   40.8110   31.0950   43.1480 N   0  0  0  0  0  0  0  0  0  0  0  0
   40.4790   29.9670   43.8190 C   0  0  0  0  0  0  0  0  0  0  0  0
   41.2730   28.9910   43.3390 N   0  0  0  0  0  0  0  0  0  0  0  0
   42.0940   29.4720   42.3850 C   0  0  0  0  0  0  0  0  0  0  0  0
   43.0470   28.7910   41.6590 C   0  0  0  0  0  0  0  0  0  0  0  0
   44.5390   29.0520   40.1150 H   0  0  0  0  0  0  0  0  0  0  0  0
   40.4430   32.0610   43.2150 H   0  0  0  0  0  0  0  0  0  0  0  0
   39.7080   29.9450   44.5810 H   0  0  0  0  0  0  0  0  0  0  0  0
   43.2200   27.7360   41.8120 H   0  0  0  0  0  0  0  0  0  0  0  0
   44.5370   32.4380   37.4160 C   0  0  0  0  0  0  0  0  0  0  0  0
   45.6920   33.1310   37.7800 C   0  0  0  0  0  0  0  0  0  0  0  0
   46.1170   33.0600   39.1190 C   0  0  0  0  0  0  0  0  0  0  0  0
   45.3540   32.3080   39.9670 N   0  0  0  0  0  0  0  0  0  0  0  0
   44.2510   31.6520   39.5990 C   0  0  0  0  0  0  0  0  0  0  0  0
   43.8300   31.7120   38.3180 N   0  0  0  0  0  0  0  0  0  0  0  0
   44.2180   32.5020   36.3780 H   0  0  0  0  0  0  0  0  0  0  0  0
   46.2540   33.7090   37.0670 H   0  0  0  0  0  0  0  0  0  0  0  0
   47.0040   33.5760   39.4580 H   0  0  0  0  0  0  0  0  0  0  0  0
   42.2330   32.9420   41.1900 C   0  0  0  0  0  0  0  0  0  0  0  0
   41.1150   33.2070   40.3920 C   0  0  0  0  0  0  0  0  0  0  0  0
   40.3960   32.6300   39.8310 H   0  0  0  0  0  0  0  0  0  0  0  0
   40.9590   34.5970   40.3670 C   0  0  0  0  0  0  0  0  0  0  0  0
   40.2070   35.2170   39.8580 H   0  0  0  0  0  0  0  0  0  0  0  0
   42.0020   35.0850   41.1580 C   0  0  0  0  0  0  0  0  0  0  0  0
   42.2450   36.1150   41.4000 H   0  0  0  0  0  0  0  0  0  0  0  0
   42.7140   34.0770   41.6130 O   0  0  0  0  0  0  0  0  0  0  0  0
  1  9  1  0  0  0  0
  2  1  2  0  0  0  0
  2  3  1  0  0  0  0
  3  4  2  0  0  0  0
  4  8  1  0  0  0  0
  4  5  1  0  0  0  0
  5 11  1  0  0  0  0
  5  6  1  0  0  0  0
  6 12  1  0  0  0  0
  7  6  2  0  0  0  0
  8  7  1  0  0  0  0
  9 13  1  0  0  0  0
  9  8  2  0  0  0  0
 10  1  1  0  0  0  0
 14 15  2  0  0  0  0
 14 19  1  0  0  0  0
 15 16  1  0  0  0  0
 16 22  1  0  0  0  0
 16 17  2  0  0  0  0
 18 17  1  0  0  0  0
 18  2  1  0  0  0  0
 19 18  2  0  0  0  0
 20 14  1  0  0  0  0
 21 15  1  0  0  0  0
 23  3  1  0  0  0  0
 23 30  1  0  0  0  0
 24 23  2  0  0  0  0
 25 24  1  0  0  0  0
 26 24  1  0  0  0  0
 26 28  2  0  0  0  0
 27 26  1  0  0  0  0
 28 29  1  0  0  0  0
 28 30  1  0  0  0  0
M  END
>  <minimizedAffinity>
-3.36678958

>  <minimizedRMSD>
6.28740835

$$$$
