
 OpenBabel03252508393D

 40 43  0  0  0  0  0  0  0  0999 V2000
   45.1400   33.9590   40.7020 C   0  0  0  0  0  0  0  0  0  0  0  0
   44.0900   33.6400   39.8840 C   0  0  0  0  0  0  0  0  0  0  0  0
   44.3950   33.1480   38.6510 C   0  0  0  0  0  0  0  0  0  0  0  0
   45.6740   32.9570   38.1870 C   0  0  0  0  0  0  0  0  0  0  0  0
   46.7090   33.2860   39.0330 C   0  0  0  0  0  0  0  0  0  0  0  0
   46.4550   33.7860   40.2870 C   0  0  0  0  0  0  0  0  0  0  0  0
   43.5620   32.8900   37.9910 H   0  0  0  0  0  0  0  0  0  0  0  0
   45.8480   32.5590   37.1910 H   0  0  0  0  0  0  0  0  0  0  0  0
   47.7040   33.1240   38.6380 H   0  0  0  0  0  0  0  0  0  0  0  0
   40.8050   35.2650   40.7920 C   0  0  0  0  0  0  0  0  0  0  0  0
   42.1050   35.0900   40.2770 C   0  0  0  0  0  0  0  0  0  0  0  0
   42.7590   33.8530   40.4000 C   0  0  0  0  0  0  0  0  0  0  0  0
   42.0470   32.8960   41.0320 N   0  0  0  0  0  0  0  0  0  0  0  0
   40.8150   33.0760   41.5150 C   0  0  0  0  0  0  0  0  0  0  0  0
   40.1960   34.2470   41.3990 N   0  0  0  0  0  0  0  0  0  0  0  0
   40.2040   36.5270   40.6380 N   0  0  0  0  0  0  0  0  0  0  0  0
   42.6360   35.8980   39.7740 H   0  0  0  0  0  0  0  0  0  0  0  0
   40.3520   32.2260   42.0020 H   0  0  0  0  0  0  0  0  0  0  0  0
   40.7430   37.3440   41.0440 H   0  0  0  0  0  0  0  0  0  0  0  0
   39.2800   36.5430   40.1370 H   0  0  0  0  0  0  0  0  0  0  0  0
   47.6080   34.1080   41.1110 C   0  0  0  0  0  0  0  0  0  0  0  0
   48.1450   35.3630   40.9300 C   0  0  0  0  0  0  0  0  0  0  0  0
   49.2480   35.8390   41.6340 C   0  0  0  0  0  0  0  0  0  0  0  0
   49.8290   34.9920   42.5640 C   0  0  0  0  0  0  0  0  0  0  0  0
   49.3150   33.7370   42.7640 C   0  0  0  0  0  0  0  0  0  0  0  0
   48.2140   33.2940   42.0470 C   0  0  0  0  0  0  0  0  0  0  0  0
   47.7420   36.0740   40.2220 H   0  0  0  0  0  0  0  0  0  0  0  0
   49.6590   36.8300   41.4810 H   0  0  0  0  0  0  0  0  0  0  0  0
   50.6860   35.2880   43.1480 H   0  0  0  0  0  0  0  0  0  0  0  0
   49.6900   32.9960   43.4650 H   0  0  0  0  0  0  0  0  0  0  0  0
   47.6180   31.9700   42.2120 C   0  0  0  0  0  0  0  0  0  0  0  0
   48.2460   30.9360   41.5130 C   0  0  0  0  0  0  0  0  0  0  0  0
   49.1120   30.8950   40.8500 H   0  0  0  0  0  0  0  0  0  0  0  0
   47.5490   29.7610   41.7860 C   0  0  0  0  0  0  0  0  0  0  0  0
   47.6810   28.7290   41.4640 H   0  0  0  0  0  0  0  0  0  0  0  0
   46.5300   30.1710   42.6440 C   0  0  0  0  0  0  0  0  0  0  0  0
   45.7310   29.6110   43.1260 H   0  0  0  0  0  0  0  0  0  0  0  0
   46.6050   31.4620   42.8660 O   0  0  0  0  0  0  0  0  0  0  0  0
   44.7310   34.9070   43.1060 N   0  0  0  0  0  0  0  0  0  0  0  0
   44.9130   34.4850   42.0220 C   0  0  0  0  0  0  0  0  0  0  0  0
  1 40  1  0  0  0  0
  2 12  1  0  0  0  0
  2  1  2  0  0  0  0
  3  2  1  0  0  0  0
  4  3  2  0  0  0  0
  4  5  1  0  0  0  0
  5  6  2  0  0  0  0
  6  1  1  0  0  0  0
  6 21  1  0  0  0  0
  7  3  1  0  0  0  0
  8  4  1  0  0  0  0
  9  5  1  0  0  0  0
 10 15  1  0  0  0  0
 11 12  1  0  0  0  0
 11 10  2  0  0  0  0
 12 13  2  0  0  0  0
 13 14  1  0  0  0  0
 14 18  1  0  0  0  0
 15 14  2  0  0  0  0
 16 10  1  0  0  0  0
 16 19  1  0  0  0  0
 17 11  1  0  0  0  0
 20 16  1  0  0  0  0
 21 26  1  0  0  0  0
 22 21  2  0  0  0  0
 22 23  1  0  0  0  0
 23 24  2  0  0  0  0
 24 25  1  0  0  0  0
 24 29  1  0  0  0  0
 25 30  1  0  0  0  0
 26 31  1  0  0  0  0
 26 25  2  0  0  0  0
 27 22  1  0  0  0  0
 28 23  1  0  0  0  0
 31 38  1  0  0  0  0
 32 34  1  0  0  0  0
 32 31  2  0  0  0  0
 33 32  1  0  0  0  0
 34 36  2  0  0  0  0
 35 34  1  0  0  0  0
 36 38  1  0  0  0  0
 36 37  1  0  0  0  0
 40 39  3  0  0  0  0
M  END
>  <minimizedAffinity>
-5.92207956

>  <minimizedRMSD>
0.333546668

$$$$
