
 OpenBabel03242510103D

 27 29  0  0  0  0  0  0  0  0999 V2000
   39.0840   30.1230   41.8130 Br  0  0  0  0  0  0  0  0  0  0  0  0
   37.8500   30.0280   40.3570 C   0  0  0  0  0  0  0  0  0  0  0  0
   37.8570   30.9950   39.3780 C   0  0  0  0  0  0  0  0  0  0  0  0
   36.9650   30.9440   38.3090 C   0  0  0  0  0  0  0  0  0  0  0  0
   36.0800   29.9050   38.2550 C   0  0  0  0  0  0  0  0  0  0  0  0
   36.0980   28.9610   39.2440 C   0  0  0  0  0  0  0  0  0  0  0  0
   36.9490   28.9840   40.2900 C   0  0  0  0  0  0  0  0  0  0  0  0
   37.0010   31.7300   37.5510 H   0  0  0  0  0  0  0  0  0  0  0  0
   35.4130   29.9210   37.3990 H   0  0  0  0  0  0  0  0  0  0  0  0
   35.3640   28.1670   39.1290 H   0  0  0  0  0  0  0  0  0  0  0  0
   39.4010   34.1610   40.3620 C   0  0  0  0  0  0  0  0  0  0  0  0
   40.6280   34.1610   39.6910 C   0  0  0  0  0  0  0  0  0  0  0  0
   40.9150   33.0540   38.8930 C   0  0  0  0  0  0  0  0  0  0  0  0
   40.0020   32.0540   38.8160 N   0  0  0  0  0  0  0  0  0  0  0  0
   38.8190   32.0810   39.4790 C   0  0  0  0  0  0  0  0  0  0  0  0
   38.5250   33.1530   40.2590 N   0  0  0  0  0  0  0  0  0  0  0  0
   39.2010   35.0350   40.9750 H   0  0  0  0  0  0  0  0  0  0  0  0
   41.3640   34.9320   39.7330 H   0  0  0  0  0  0  0  0  0  0  0  0
   41.8150   32.9000   38.3130 H   0  0  0  0  0  0  0  0  0  0  0  0
   36.9540   27.9660   41.3370 C   0  0  0  0  0  0  0  0  0  0  0  0
   37.5270   26.7160   41.2650 C   0  0  0  0  0  0  0  0  0  0  0  0
   38.0410   26.3770   40.3840 H   0  0  0  0  0  0  0  0  0  0  0  0
   37.2800   26.1160   42.4780 C   0  0  0  0  0  0  0  0  0  0  0  0
   37.6650   25.0980   42.6120 H   0  0  0  0  0  0  0  0  0  0  0  0
   36.5590   27.0390   43.2450 C   0  0  0  0  0  0  0  0  0  0  0  0
   36.2920   26.7000   44.2370 H   0  0  0  0  0  0  0  0  0  0  0  0
   36.3950   28.1180   42.5180 O   0  0  0  0  0  0  0  0  0  0  0  0
  2  1  1  0  0  0  0
  3 15  1  0  0  0  0
  3  2  2  0  0  0  0
  4  3  1  0  0  0  0
  5  4  2  0  0  0  0
  5  6  1  0  0  0  0
  6  7  2  0  0  0  0
  7  2  1  0  0  0  0
  7 20  1  0  0  0  0
  8  4  1  0  0  0  0
  9  5  1  0  0  0  0
 10  6  1  0  0  0  0
 11 17  1  0  0  0  0
 12 18  1  0  0  0  0
 12 11  2  0  0  0  0
 13 12  1  0  0  0  0
 14 13  2  0  0  0  0
 14 15  1  0  0  0  0
 15 16  2  0  0  0  0
 16 11  1  0  0  0  0
 19 13  1  0  0  0  0
 20 27  1  0  0  0  0
 21 20  2  0  0  0  0
 21 23  1  0  0  0  0
 22 21  1  0  0  0  0
 23 24  1  0  0  0  0
 23 25  2  0  0  0  0
 25 26  1  0  0  0  0
 27 25  1  0  0  0  0
M  END
>  <minimizedAffinity>
-4.81667948

$$$$

 OpenBabel03242510103D

 27 29  0  0  0  0  0  0  0  0999 V2000
   38.3060   28.2750   39.2380 Br  0  0  0  0  0  0  0  0  0  0  0  0
   37.7750   27.9860   41.0500 C   0  0  0  0  0  0  0  0  0  0  0  0
   37.7230   29.0400   41.9340 C   0  0  0  0  0  0  0  0  0  0  0  0
   37.3380   28.8490   43.2600 C   0  0  0  0  0  0  0  0  0  0  0  0
   37.0120   27.5870   43.6630 C   0  0  0  0  0  0  0  0  0  0  0  0
   37.0760   26.5600   42.7600 C   0  0  0  0  0  0  0  0  0  0  0  0
   37.4440   26.7140   41.4720 C   0  0  0  0  0  0  0  0  0  0  0  0
   37.3090   29.7110   43.9310 H   0  0  0  0  0  0  0  0  0  0  0  0
   36.7210   27.5030   44.7060 H   0  0  0  0  0  0  0  0  0  0  0  0
   36.8010   25.5860   43.1580 H   0  0  0  0  0  0  0  0  0  0  0  0
   37.4430   32.3490   40.4030 C   0  0  0  0  0  0  0  0  0  0  0  0
   38.7260   32.8920   40.5360 C   0  0  0  0  0  0  0  0  0  0  0  0
   39.6880   32.1000   41.1620 C   0  0  0  0  0  0  0  0  0  0  0  0
   39.3310   30.8670   41.6000 N   0  0  0  0  0  0  0  0  0  0  0  0
   38.0780   30.3660   41.4570 C   0  0  0  0  0  0  0  0  0  0  0  0
   37.1300   31.1260   40.8490 N   0  0  0  0  0  0  0  0  0  0  0  0
   36.7130   32.9860   39.9110 H   0  0  0  0  0  0  0  0  0  0  0  0
   39.0340   33.8570   40.2030 H   0  0  0  0  0  0  0  0  0  0  0  0
   40.7200   32.3700   41.3430 H   0  0  0  0  0  0  0  0  0  0  0  0
   37.5050   25.6060   40.5220 C   0  0  0  0  0  0  0  0  0  0  0  0
   36.4630   25.1080   39.7730 C   0  0  0  0  0  0  0  0  0  0  0  0
   35.4710   25.5200   39.8350 H   0  0  0  0  0  0  0  0  0  0  0  0
   36.9890   24.0760   39.0310 C   0  0  0  0  0  0  0  0  0  0  0  0
   36.2990   23.5480   38.3620 H   0  0  0  0  0  0  0  0  0  0  0  0
   38.3460   23.9910   39.3660 C   0  0  0  0  0  0  0  0  0  0  0  0
   38.8960   23.2140   38.8520 H   0  0  0  0  0  0  0  0  0  0  0  0
   38.5960   24.9220   40.2540 O   0  0  0  0  0  0  0  0  0  0  0  0
  1  2  1  0  0  0  0
  2  7  2  0  0  0  0
  2  3  1  0  0  0  0
  3  4  2  0  0  0  0
  4  5  1  0  0  0  0
  4  8  1  0  0  0  0
  5  9  1  0  0  0  0
  6 10  1  0  0  0  0
  6  5  2  0  0  0  0
  7  6  1  0  0  0  0
 11 12  2  0  0  0  0
 11 16  1  0  0  0  0
 12 13  1  0  0  0  0
 13 19  1  0  0  0  0
 13 14  2  0  0  0  0
 15 14  1  0  0  0  0
 15  3  1  0  0  0  0
 16 15  2  0  0  0  0
 17 11  1  0  0  0  0
 18 12  1  0  0  0  0
 20  7  1  0  0  0  0
 21 22  1  0  0  0  0
 21 20  2  0  0  0  0
 23 25  2  0  0  0  0
 23 21  1  0  0  0  0
 24 23  1  0  0  0  0
 25 27  1  0  0  0  0
 26 25  1  0  0  0  0
 27 20  1  0  0  0  0
M  END
>  <minimizedAffinity>
-4.7673521

$$$$

 OpenBabel03242510103D

 27 29  0  0  0  0  0  0  0  0999 V2000
   37.9440   27.2810   39.0780 Br  0  0  0  0  0  0  0  0  0  0  0  0
   37.6190   27.6130   40.9320 C   0  0  0  0  0  0  0  0  0  0  0  0
   37.6140   28.9020   41.4150 C   0  0  0  0  0  0  0  0  0  0  0  0
   37.3800   29.1640   42.7630 C   0  0  0  0  0  0  0  0  0  0  0  0
   37.1540   28.1070   43.5970 C   0  0  0  0  0  0  0  0  0  0  0  0
   37.1660   26.8380   43.0860 C   0  0  0  0  0  0  0  0  0  0  0  0
   37.3900   26.5540   41.7870 C   0  0  0  0  0  0  0  0  0  0  0  0
   37.3840   30.2000   43.1090 H   0  0  0  0  0  0  0  0  0  0  0  0
   36.9770   28.3760   44.6340 H   0  0  0  0  0  0  0  0  0  0  0  0
   36.9780   26.0520   43.8130 H   0  0  0  0  0  0  0  0  0  0  0  0
   39.3780   31.4110   39.4240 C   0  0  0  0  0  0  0  0  0  0  0  0
   38.3570   32.0690   38.7280 C   0  0  0  0  0  0  0  0  0  0  0  0
   37.0520   31.6340   38.9560 C   0  0  0  0  0  0  0  0  0  0  0  0
   36.8490   30.6130   39.8260 N   0  0  0  0  0  0  0  0  0  0  0  0
   37.8600   29.9940   40.4870 C   0  0  0  0  0  0  0  0  0  0  0  0
   39.1360   30.4060   40.2760 N   0  0  0  0  0  0  0  0  0  0  0  0
   40.3850   31.7700   39.2290 H   0  0  0  0  0  0  0  0  0  0  0  0
   38.4880   32.8730   38.0400 H   0  0  0  0  0  0  0  0  0  0  0  0
   36.1560   32.0330   38.5010 H   0  0  0  0  0  0  0  0  0  0  0  0
   37.3990   25.1920   41.2590 C   0  0  0  0  0  0  0  0  0  0  0  0
   38.4050   24.2630   41.3990 C   0  0  0  0  0  0  0  0  0  0  0  0
   39.3100   24.4830   41.9370 H   0  0  0  0  0  0  0  0  0  0  0  0
   37.9740   23.1350   40.7410 C   0  0  0  0  0  0  0  0  0  0  0  0
   38.6520   22.2730   40.7430 H   0  0  0  0  0  0  0  0  0  0  0  0
   36.7070   23.4310   40.2230 C   0  0  0  0  0  0  0  0  0  0  0  0
   36.2380   22.6250   39.6740 H   0  0  0  0  0  0  0  0  0  0  0  0
   36.4170   24.6640   40.5610 O   0  0  0  0  0  0  0  0  0  0  0  0
  1  2  1  0  0  0  0
  2  3  2  0  0  0  0
  2  7  1  0  0  0  0
  3  4  1  0  0  0  0
  4  8  1  0  0  0  0
  4  5  2  0  0  0  0
  5  9  1  0  0  0  0
  6  5  1  0  0  0  0
  6 10  1  0  0  0  0
  7  6  2  0  0  0  0
 11 16  1  0  0  0  0
 12 13  1  0  0  0  0
 12 11  2  0  0  0  0
 13 14  2  0  0  0  0
 14 15  1  0  0  0  0
 15  3  1  0  0  0  0
 16 15  2  0  0  0  0
 17 11  1  0  0  0  0
 18 12  1  0  0  0  0
 19 13  1  0  0  0  0
 20 21  2  0  0  0  0
 20  7  1  0  0  0  0
 21 22  1  0  0  0  0
 23 24  1  0  0  0  0
 23 21  1  0  0  0  0
 25 27  1  0  0  0  0
 25 23  2  0  0  0  0
 26 25  1  0  0  0  0
 27 20  1  0  0  0  0
M  END
>  <minimizedAffinity>
-4.73571825

$$$$

 OpenBabel03242510103D

 27 29  0  0  0  0  0  0  0  0999 V2000
   37.8620   27.8160   39.0450 Br  0  0  0  0  0  0  0  0  0  0  0  0
   37.7010   27.9540   40.9440 C   0  0  0  0  0  0  0  0  0  0  0  0
   37.6490   26.8180   41.7200 C   0  0  0  0  0  0  0  0  0  0  0  0
   37.5310   26.8990   43.1060 C   0  0  0  0  0  0  0  0  0  0  0  0
   37.4700   28.1360   43.6780 C   0  0  0  0  0  0  0  0  0  0  0  0
   37.5230   29.2450   42.8790 C   0  0  0  0  0  0  0  0  0  0  0  0
   37.6360   29.1990   41.5360 C   0  0  0  0  0  0  0  0  0  0  0  0
   37.4930   25.9750   43.6880 H   0  0  0  0  0  0  0  0  0  0  0  0
   37.3790   28.1330   44.7610 H   0  0  0  0  0  0  0  0  0  0  0  0
   37.4680   30.1930   43.4100 H   0  0  0  0  0  0  0  0  0  0  0  0
   39.0180   23.7820   40.2100 C   0  0  0  0  0  0  0  0  0  0  0  0
   37.8850   23.0620   39.8130 C   0  0  0  0  0  0  0  0  0  0  0  0
   36.6430   23.6400   40.0740 C   0  0  0  0  0  0  0  0  0  0  0  0
   36.6040   24.8490   40.6890 N   0  0  0  0  0  0  0  0  0  0  0  0
   37.7200   25.5240   41.0630 C   0  0  0  0  0  0  0  0  0  0  0  0
   38.9370   24.9740   40.8160 N   0  0  0  0  0  0  0  0  0  0  0  0
   39.9720   23.3100   39.9950 H   0  0  0  0  0  0  0  0  0  0  0  0
   37.8860   22.1120   39.3290 H   0  0  0  0  0  0  0  0  0  0  0  0
   35.6780   23.2170   39.8320 H   0  0  0  0  0  0  0  0  0  0  0  0
   37.6920   30.3950   40.6990 C   0  0  0  0  0  0  0  0  0  0  0  0
   36.6230   31.1500   40.2720 C   0  0  0  0  0  0  0  0  0  0  0  0
   35.6110   30.9020   40.5380 H   0  0  0  0  0  0  0  0  0  0  0  0
   37.1560   32.1670   39.5140 C   0  0  0  0  0  0  0  0  0  0  0  0
   36.4470   32.8820   39.0810 H   0  0  0  0  0  0  0  0  0  0  0  0
   38.5440   31.9830   39.5140 C   0  0  0  0  0  0  0  0  0  0  0  0
   39.1020   32.7190   38.9500 H   0  0  0  0  0  0  0  0  0  0  0  0
   38.8050   30.9180   40.2320 O   0  0  0  0  0  0  0  0  0  0  0  0
  1  2  1  0  0  0  0
  2  7  2  0  0  0  0
  2  3  1  0  0  0  0
  3  4  2  0  0  0  0
  4  5  1  0  0  0  0
  4  8  1  0  0  0  0
  5  9  1  0  0  0  0
  6 10  1  0  0  0  0
  6  5  2  0  0  0  0
  7  6  1  0  0  0  0
 11 16  1  0  0  0  0
 12 13  1  0  0  0  0
 12 11  2  0  0  0  0
 13 14  2  0  0  0  0
 14 15  1  0  0  0  0
 15  3  1  0  0  0  0
 16 15  2  0  0  0  0
 17 11  1  0  0  0  0
 18 12  1  0  0  0  0
 19 13  1  0  0  0  0
 20  7  1  0  0  0  0
 21 22  1  0  0  0  0
 21 20  2  0  0  0  0
 23 21  1  0  0  0  0
 24 23  1  0  0  0  0
 25 23  2  0  0  0  0
 25 27  1  0  0  0  0
 26 25  1  0  0  0  0
 27 20  1  0  0  0  0
M  END
>  <minimizedAffinity>
-4.70443058

$$$$

 OpenBabel03242510103D

 27 29  0  0  0  0  0  0  0  0999 V2000
   40.6550   29.8030   40.9010 Br  0  0  0  0  0  0  0  0  0  0  0  0
   38.8260   30.3510   40.8130 C   0  0  0  0  0  0  0  0  0  0  0  0
   38.4790   31.5040   40.1460 C   0  0  0  0  0  0  0  0  0  0  0  0
   37.1520   31.9210   40.0720 C   0  0  0  0  0  0  0  0  0  0  0  0
   36.1990   31.1540   40.6770 C   0  0  0  0  0  0  0  0  0  0  0  0
   36.5770   30.0140   41.3320 C   0  0  0  0  0  0  0  0  0  0  0  0
   37.8520   29.5850   41.4220 C   0  0  0  0  0  0  0  0  0  0  0  0
   36.9160   32.8420   39.5340 H   0  0  0  0  0  0  0  0  0  0  0  0
   35.1850   31.5300   40.5840 H   0  0  0  0  0  0  0  0  0  0  0  0
   35.7600   29.4580   41.7880 H   0  0  0  0  0  0  0  0  0  0  0  0
   40.9290   32.6490   37.6840 C   0  0  0  0  0  0  0  0  0  0  0  0
   41.5300   33.7550   38.2950 C   0  0  0  0  0  0  0  0  0  0  0  0
   41.0780   34.1000   39.5680 C   0  0  0  0  0  0  0  0  0  0  0  0
   40.0960   33.3550   40.1340 N   0  0  0  0  0  0  0  0  0  0  0  0
   39.5310   32.2870   39.5170 C   0  0  0  0  0  0  0  0  0  0  0  0
   39.9610   31.9380   38.2760 N   0  0  0  0  0  0  0  0  0  0  0  0
   41.3000   32.4010   36.6930 H   0  0  0  0  0  0  0  0  0  0  0  0
   42.3030   34.3580   37.8740 H   0  0  0  0  0  0  0  0  0  0  0  0
   41.4360   34.9220   40.1720 H   0  0  0  0  0  0  0  0  0  0  0  0
   38.2370   28.3650   42.1250 C   0  0  0  0  0  0  0  0  0  0  0  0
   38.4510   28.2290   43.4780 C   0  0  0  0  0  0  0  0  0  0  0  0
   38.3450   29.0570   44.1560 H   0  0  0  0  0  0  0  0  0  0  0  0
   38.7910   26.9110   43.6780 C   0  0  0  0  0  0  0  0  0  0  0  0
   39.0020   26.6070   44.7090 H   0  0  0  0  0  0  0  0  0  0  0  0
   38.7680   26.2950   42.4210 C   0  0  0  0  0  0  0  0  0  0  0  0
   39.0180   25.2420   42.4230 H   0  0  0  0  0  0  0  0  0  0  0  0
   38.4330   27.2040   41.5380 O   0  0  0  0  0  0  0  0  0  0  0  0
  2  1  1  0  0  0  0
  2  7  1  0  0  0  0
  3  2  2  0  0  0  0
  4  3  1  0  0  0  0
  4  5  2  0  0  0  0
  5  6  1  0  0  0  0
  6  7  2  0  0  0  0
  6 10  1  0  0  0  0
  7 20  1  0  0  0  0
  8  4  1  0  0  0  0
  9  5  1  0  0  0  0
 11 16  2  0  0  0  0
 11 12  1  0  0  0  0
 12 13  2  0  0  0  0
 13 14  1  0  0  0  0
 13 19  1  0  0  0  0
 15 14  2  0  0  0  0
 15  3  1  0  0  0  0
 16 15  1  0  0  0  0
 17 11  1  0  0  0  0
 18 12  1  0  0  0  0
 20 21  2  0  0  0  0
 21 23  1  0  0  0  0
 21 22  1  0  0  0  0
 23 24  1  0  0  0  0
 25 26  1  0  0  0  0
 25 23  2  0  0  0  0
 27 20  1  0  0  0  0
 27 25  1  0  0  0  0
M  END
>  <minimizedAffinity>
-4.70144653

$$$$

 OpenBabel03242510103D

 27 29  0  0  0  0  0  0  0  0999 V2000
   40.7210   30.6530   40.7490 Br  0  0  0  0  0  0  0  0  0  0  0  0
   39.1380   30.7330   39.6810 C   0  0  0  0  0  0  0  0  0  0  0  0
   38.0400   29.9700   40.0100 C   0  0  0  0  0  0  0  0  0  0  0  0
   36.8780   30.0150   39.2430 C   0  0  0  0  0  0  0  0  0  0  0  0
   36.8530   30.8370   38.1540 C   0  0  0  0  0  0  0  0  0  0  0  0
   37.9610   31.5810   37.8540 C   0  0  0  0  0  0  0  0  0  0  0  0
   39.1000   31.5590   38.5760 C   0  0  0  0  0  0  0  0  0  0  0  0
   36.0270   29.3950   39.5360 H   0  0  0  0  0  0  0  0  0  0  0  0
   35.9200   30.8280   37.5980 H   0  0  0  0  0  0  0  0  0  0  0  0
   37.8620   32.2100   36.9720 H   0  0  0  0  0  0  0  0  0  0  0  0
   37.7790   28.8180   43.4710 C   0  0  0  0  0  0  0  0  0  0  0  0
   38.2490   27.5000   43.4240 C   0  0  0  0  0  0  0  0  0  0  0  0
   38.6580   27.0160   42.1810 C   0  0  0  0  0  0  0  0  0  0  0  0
   38.5770   27.8380   41.1050 N   0  0  0  0  0  0  0  0  0  0  0  0
   38.1160   29.1110   41.1800 C   0  0  0  0  0  0  0  0  0  0  0  0
   37.7150   29.5970   42.3830 N   0  0  0  0  0  0  0  0  0  0  0  0
   37.4690   29.1700   44.4500 H   0  0  0  0  0  0  0  0  0  0  0  0
   38.3240   26.8340   44.2530 H   0  0  0  0  0  0  0  0  0  0  0  0
   39.0430   26.0270   41.9760 H   0  0  0  0  0  0  0  0  0  0  0  0
   40.2730   32.3620   38.2400 C   0  0  0  0  0  0  0  0  0  0  0  0
   41.2000   32.0920   37.2580 C   0  0  0  0  0  0  0  0  0  0  0  0
   41.1250   31.2220   36.6310 H   0  0  0  0  0  0  0  0  0  0  0  0
   42.1170   33.1160   37.3110 C   0  0  0  0  0  0  0  0  0  0  0  0
   42.9440   33.0740   36.5930 H   0  0  0  0  0  0  0  0  0  0  0  0
   41.7020   33.9750   38.3360 C   0  0  0  0  0  0  0  0  0  0  0  0
   42.3360   34.8370   38.4940 H   0  0  0  0  0  0  0  0  0  0  0  0
   40.6040   33.4790   38.8520 O   0  0  0  0  0  0  0  0  0  0  0  0
  2  3  1  0  0  0  0
  2  1  1  0  0  0  0
  3 15  1  0  0  0  0
  4  8  1  0  0  0  0
  4  3  2  0  0  0  0
  5  4  1  0  0  0  0
  6  5  2  0  0  0  0
  6  7  1  0  0  0  0
  7  2  2  0  0  0  0
  9  5  1  0  0  0  0
 10  6  1  0  0  0  0
 11 17  1  0  0  0  0
 12 11  1  0  0  0  0
 12 18  1  0  0  0  0
 13 12  2  0  0  0  0
 14 15  2  0  0  0  0
 14 13  1  0  0  0  0
 15 16  1  0  0  0  0
 16 11  2  0  0  0  0
 19 13  1  0  0  0  0
 20  7  1  0  0  0  0
 20 27  1  0  0  0  0
 21 23  1  0  0  0  0
 21 20  2  0  0  0  0
 22 21  1  0  0  0  0
 23 25  2  0  0  0  0
 24 23  1  0  0  0  0
 25 26  1  0  0  0  0
 25 27  1  0  0  0  0
M  END
>  <minimizedAffinity>
-4.63757896

$$$$

 OpenBabel03242510103D

 27 29  0  0  0  0  0  0  0  0999 V2000
   38.6770   29.6190   39.7940 Br  0  0  0  0  0  0  0  0  0  0  0  0
   37.9940   28.7890   41.3740 C   0  0  0  0  0  0  0  0  0  0  0  0
   38.7600   28.7370   42.5170 C   0  0  0  0  0  0  0  0  0  0  0  0
   38.2790   28.1350   43.6780 C   0  0  0  0  0  0  0  0  0  0  0  0
   37.0250   27.5970   43.6560 C   0  0  0  0  0  0  0  0  0  0  0  0
   36.2900   27.6640   42.5040 C   0  0  0  0  0  0  0  0  0  0  0  0
   36.7280   28.2390   41.3650 C   0  0  0  0  0  0  0  0  0  0  0  0
   38.9170   28.1140   44.5650 H   0  0  0  0  0  0  0  0  0  0  0  0
   36.7080   27.1440   44.5900 H   0  0  0  0  0  0  0  0  0  0  0  0
   35.3020   27.2130   42.5670 H   0  0  0  0  0  0  0  0  0  0  0  0
   42.3890   29.0570   42.1970 C   0  0  0  0  0  0  0  0  0  0  0  0
   42.6300   30.4150   42.4350 C   0  0  0  0  0  0  0  0  0  0  0  0
   41.5230   31.2180   42.7080 C   0  0  0  0  0  0  0  0  0  0  0  0
   40.2930   30.6450   42.7260 N   0  0  0  0  0  0  0  0  0  0  0  0
   40.0890   29.3250   42.4900 C   0  0  0  0  0  0  0  0  0  0  0  0
   41.1580   28.5300   42.2240 N   0  0  0  0  0  0  0  0  0  0  0  0
   43.2680   28.4550   41.9880 H   0  0  0  0  0  0  0  0  0  0  0  0
   43.5840   30.8910   42.4270 H   0  0  0  0  0  0  0  0  0  0  0  0
   41.5380   32.2800   42.9120 H   0  0  0  0  0  0  0  0  0  0  0  0
   35.9280   28.3020   40.1450 C   0  0  0  0  0  0  0  0  0  0  0  0
   34.9370   29.2130   39.8580 C   0  0  0  0  0  0  0  0  0  0  0  0
   34.6620   29.9900   40.5490 H   0  0  0  0  0  0  0  0  0  0  0  0
   34.4690   28.8830   38.6070 C   0  0  0  0  0  0  0  0  0  0  0  0
   33.6640   29.5070   38.2020 H   0  0  0  0  0  0  0  0  0  0  0  0
   35.2060   27.7710   38.1830 C   0  0  0  0  0  0  0  0  0  0  0  0
   34.9440   27.3970   37.2020 H   0  0  0  0  0  0  0  0  0  0  0  0
   36.0560   27.4700   39.1340 O   0  0  0  0  0  0  0  0  0  0  0  0
  1  2  1  0  0  0  0
  2  3  1  0  0  0  0
  3  4  2  0  0  0  0
  4  8  1  0  0  0  0
  5  4  1  0  0  0  0
  5  9  1  0  0  0  0
  6 10  1  0  0  0  0
  6  5  2  0  0  0  0
  7  2  2  0  0  0  0
  7  6  1  0  0  0  0
 11 16  2  0  0  0  0
 11 12  1  0  0  0  0
 12 13  2  0  0  0  0
 13 14  1  0  0  0  0
 13 19  1  0  0  0  0
 15  3  1  0  0  0  0
 15 14  2  0  0  0  0
 16 15  1  0  0  0  0
 17 11  1  0  0  0  0
 18 12  1  0  0  0  0
 20  7  1  0  0  0  0
 21 20  2  0  0  0  0
 21 22  1  0  0  0  0
 23 21  1  0  0  0  0
 24 23  1  0  0  0  0
 25 23  2  0  0  0  0
 25 27  1  0  0  0  0
 26 25  1  0  0  0  0
 27 20  1  0  0  0  0
M  END
>  <minimizedAffinity>
-4.62683201

$$$$

 OpenBabel03242510103D

 27 29  0  0  0  0  0  0  0  0999 V2000
   40.9840   30.2530   40.6210 Br  0  0  0  0  0  0  0  0  0  0  0  0
   39.3110   31.1350   40.3530 C   0  0  0  0  0  0  0  0  0  0  0  0
   39.2470   32.2880   39.6030 C   0  0  0  0  0  0  0  0  0  0  0  0
   38.0360   32.9460   39.3970 C   0  0  0  0  0  0  0  0  0  0  0  0
   36.9090   32.4160   39.9570 C   0  0  0  0  0  0  0  0  0  0  0  0
   37.0070   31.2700   40.6970 C   0  0  0  0  0  0  0  0  0  0  0  0
   38.1630   30.6110   40.9150 C   0  0  0  0  0  0  0  0  0  0  0  0
   38.0250   33.8580   38.7970 H   0  0  0  0  0  0  0  0  0  0  0  0
   35.9980   32.9740   39.7610 H   0  0  0  0  0  0  0  0  0  0  0  0
   36.0660   30.9120   41.1090 H   0  0  0  0  0  0  0  0  0  0  0  0
   42.3670   34.1600   39.2390 C   0  0  0  0  0  0  0  0  0  0  0  0
   42.8130   33.8260   37.9560 C   0  0  0  0  0  0  0  0  0  0  0  0
   42.0220   32.9460   37.2190 C   0  0  0  0  0  0  0  0  0  0  0  0
   40.8820   32.4700   37.7790 N   0  0  0  0  0  0  0  0  0  0  0  0
   40.4740   32.8120   39.0270 C   0  0  0  0  0  0  0  0  0  0  0  0
   41.2330   33.6690   39.7570 N   0  0  0  0  0  0  0  0  0  0  0  0
   43.0000   34.8480   39.7920 H   0  0  0  0  0  0  0  0  0  0  0  0
   43.7040   34.1840   37.4910 H   0  0  0  0  0  0  0  0  0  0  0  0
   42.2250   32.5890   36.2180 H   0  0  0  0  0  0  0  0  0  0  0  0
   38.2480   29.3870   41.7070 C   0  0  0  0  0  0  0  0  0  0  0  0
   38.3750   29.3020   43.0750 C   0  0  0  0  0  0  0  0  0  0  0  0
   38.4240   30.1780   43.6970 H   0  0  0  0  0  0  0  0  0  0  0  0
   38.4150   27.9580   43.3680 C   0  0  0  0  0  0  0  0  0  0  0  0
   38.5150   27.6870   44.4260 H   0  0  0  0  0  0  0  0  0  0  0  0
   38.3090   27.2770   42.1500 C   0  0  0  0  0  0  0  0  0  0  0  0
   38.3260   26.1980   42.2260 H   0  0  0  0  0  0  0  0  0  0  0  0
   38.2130   28.1750   41.1990 O   0  0  0  0  0  0  0  0  0  0  0  0
  2  1  1  0  0  0  0
  2  7  1  0  0  0  0
  3  2  2  0  0  0  0
  4  3  1  0  0  0  0
  4  5  2  0  0  0  0
  5  6  1  0  0  0  0
  6  7  2  0  0  0  0
  6 10  1  0  0  0  0
  7 20  1  0  0  0  0
  8  4  1  0  0  0  0
  9  5  1  0  0  0  0
 11 16  1  0  0  0  0
 11 17  1  0  0  0  0
 12 11  2  0  0  0  0
 13 14  2  0  0  0  0
 13 12  1  0  0  0  0
 14 15  1  0  0  0  0
 15  3  1  0  0  0  0
 15 16  2  0  0  0  0
 18 12  1  0  0  0  0
 19 13  1  0  0  0  0
 20 21  2  0  0  0  0
 21 23  1  0  0  0  0
 21 22  1  0  0  0  0
 23 24  1  0  0  0  0
 25 26  1  0  0  0  0
 25 23  2  0  0  0  0
 27 20  1  0  0  0  0
 27 25  1  0  0  0  0
M  END
>  <minimizedAffinity>
-4.59509897

$$$$

 OpenBabel03242510103D

 27 29  0  0  0  0  0  0  0  0999 V2000
   36.8120   27.4530   39.4490 Br  0  0  0  0  0  0  0  0  0  0  0  0
   37.0710   29.3360   39.6460 C   0  0  0  0  0  0  0  0  0  0  0  0
   36.8020   30.1870   38.5980 C   0  0  0  0  0  0  0  0  0  0  0  0
   36.9860   31.5620   38.7220 C   0  0  0  0  0  0  0  0  0  0  0  0
   37.4390   32.0490   39.9140 C   0  0  0  0  0  0  0  0  0  0  0  0
   37.6970   31.1770   40.9360 C   0  0  0  0  0  0  0  0  0  0  0  0
   37.5300   29.8420   40.8460 C   0  0  0  0  0  0  0  0  0  0  0  0
   36.7620   32.2050   37.8670 H   0  0  0  0  0  0  0  0  0  0  0  0
   37.5610   33.1270   39.9490 H   0  0  0  0  0  0  0  0  0  0  0  0
   38.0540   31.6420   41.8520 H   0  0  0  0  0  0  0  0  0  0  0  0
   34.5420   28.8080   36.0750 C   0  0  0  0  0  0  0  0  0  0  0  0
   35.3760   28.5400   34.9840 C   0  0  0  0  0  0  0  0  0  0  0  0
   36.7300   28.8410   35.1320 C   0  0  0  0  0  0  0  0  0  0  0  0
   37.1540   29.3700   36.3070 N   0  0  0  0  0  0  0  0  0  0  0  0
   36.3210   29.6200   37.3480 C   0  0  0  0  0  0  0  0  0  0  0  0
   35.0000   29.3310   37.2200 N   0  0  0  0  0  0  0  0  0  0  0  0
   33.4930   28.5630   35.9350 H   0  0  0  0  0  0  0  0  0  0  0  0
   35.0700   28.1260   34.0510 H   0  0  0  0  0  0  0  0  0  0  0  0
   37.5020   28.6960   34.3890 H   0  0  0  0  0  0  0  0  0  0  0  0
   37.8100   28.9260   41.9490 C   0  0  0  0  0  0  0  0  0  0  0  0
   39.0310   28.3770   42.2710 C   0  0  0  0  0  0  0  0  0  0  0  0
   39.9180   28.5930   41.7020 H   0  0  0  0  0  0  0  0  0  0  0  0
   38.8110   27.5840   43.3740 C   0  0  0  0  0  0  0  0  0  0  0  0
   39.6800   27.0560   43.7820 H   0  0  0  0  0  0  0  0  0  0  0  0
   37.4480   27.6890   43.6780 C   0  0  0  0  0  0  0  0  0  0  0  0
   37.1260   27.1120   44.5350 H   0  0  0  0  0  0  0  0  0  0  0  0
   36.9040   28.4970   42.8010 O   0  0  0  0  0  0  0  0  0  0  0  0
  1  2  1  0  0  0  0
  2  7  1  0  0  0  0
  3  4  1  0  0  0  0
  3  2  2  0  0  0  0
  4  5  2  0  0  0  0
  5  9  1  0  0  0  0
  5  6  1  0  0  0  0
  6 10  1  0  0  0  0
  7  6  2  0  0  0  0
  7 20  1  0  0  0  0
  8  4  1  0  0  0  0
 11 16  1  0  0  0  0
 12 13  1  0  0  0  0
 12 11  2  0  0  0  0
 13 14  2  0  0  0  0
 14 15  1  0  0  0  0
 15  3  1  0  0  0  0
 16 15  2  0  0  0  0
 17 11  1  0  0  0  0
 18 12  1  0  0  0  0
 19 13  1  0  0  0  0
 20 21  2  0  0  0  0
 20 27  1  0  0  0  0
 21 23  1  0  0  0  0
 22 21  1  0  0  0  0
 23 25  2  0  0  0  0
 23 24  1  0  0  0  0
 25 26  1  0  0  0  0
 27 25  1  0  0  0  0
M  END
>  <minimizedAffinity>
-4.58239651

$$$$
