
 OpenBabel03242519583D

 27 29  0  0  0  0  0  0  0  0999 V2000
   44.6240   33.0180   41.2270 Br  0  0  0  0  0  0  0  0  0  0  0  0
   46.2860   33.9500   41.0090 C   0  0  0  0  0  0  0  0  0  0  0  0
   46.8350   34.7410   42.0030 C   0  0  0  0  0  0  0  0  0  0  0  0
   48.0270   35.3600   41.7380 C   0  0  0  0  0  0  0  0  0  0  0  0
   48.7000   35.2360   40.5450 C   0  0  0  0  0  0  0  0  0  0  0  0
   48.1610   34.4480   39.5440 C   0  0  0  0  0  0  0  0  0  0  0  0
   46.9470   33.8150   39.8070 C   0  0  0  0  0  0  0  0  0  0  0  0
   48.4390   35.9730   42.5250 H   0  0  0  0  0  0  0  0  0  0  0  0
   49.6440   35.7390   40.3660 H   0  0  0  0  0  0  0  0  0  0  0  0
   48.6270   34.3020   38.5860 H   0  0  0  0  0  0  0  0  0  0  0  0
   44.4820   35.9480   44.7110 C   0  0  0  0  0  0  0  0  0  0  0  0
   45.1840   35.8630   43.5050 C   0  0  0  0  0  0  0  0  0  0  0  0
   46.0910   34.8490   43.2560 C   0  0  0  0  0  0  0  0  0  0  0  0
   46.2520   33.9450   44.2650 N   0  0  0  0  0  0  0  0  0  0  0  0
   45.5760   34.0300   45.4240 C   0  0  0  0  0  0  0  0  0  0  0  0
   44.7000   35.0190   45.6460 N   0  0  0  0  0  0  0  0  0  0  0  0
   43.7770   36.7550   44.8770 H   0  0  0  0  0  0  0  0  0  0  0  0
   45.0120   36.6100   42.7450 H   0  0  0  0  0  0  0  0  0  0  0  0
   45.8380   33.2220   46.0980 H   0  0  0  0  0  0  0  0  0  0  0  0
   46.3690   32.9780   38.7550 C   0  0  0  0  0  0  0  0  0  0  0  0
   46.6680   31.6780   38.4570 C   0  0  0  0  0  0  0  0  0  0  0  0
   47.3800   31.0370   38.9420 H   0  0  0  0  0  0  0  0  0  0  0  0
   45.8880   31.2920   37.3960 C   0  0  0  0  0  0  0  0  0  0  0  0
   45.8000   30.3690   36.8500 H   0  0  0  0  0  0  0  0  0  0  0  0
   45.1280   32.3780   37.0740 C   0  0  0  0  0  0  0  0  0  0  0  0
   44.3700   32.6100   36.3400 H   0  0  0  0  0  0  0  0  0  0  0  0
   45.4490   33.3380   37.9000 O   0  0  0  0  0  0  0  0  0  0  0  0
  2  1  1  0  0  0  0
  2  3  1  0  0  0  0
  3 13  1  0  0  0  0
  4  3  2  0  0  0  0
  4  8  1  0  0  0  0
  5  4  1  0  0  0  0
  6  7  1  0  0  0  0
  6  5  2  0  0  0  0
  7  2  2  0  0  0  0
  9  5  1  0  0  0  0
 10  6  1  0  0  0  0
 11 17  1  0  0  0  0
 11 16  1  0  0  0  0
 12 11  2  0  0  0  0
 13 12  1  0  0  0  0
 13 14  2  0  0  0  0
 14 15  1  0  0  0  0
 15 16  2  0  0  0  0
 15 19  1  0  0  0  0
 18 12  1  0  0  0  0
 20  7  1  0  0  0  0
 21 20  2  0  0  0  0
 21 22  1  0  0  0  0
 23 21  1  0  0  0  0
 24 23  1  0  0  0  0
 25 23  2  0  0  0  0
 25 27  1  0  0  0  0
 26 25  1  0  0  0  0
 27 20  1  0  0  0  0
M  END
>  <minimizedAffinity>
-5.42287827

>  <minimizedRMSD>
0.143513575

$$$$
