
 OpenBabel03252507263D

 26 28  0  0  0  0  0  0  0  0999 V2000
   45.8580   33.6240   45.5550 C   0  0  0  0  0  0  0  0  0  0  0  0
   44.8990   34.5980   45.8790 C   0  0  0  0  0  0  0  0  0  0  0  0
   44.6220   35.5800   44.9280 C   0  0  0  0  0  0  0  0  0  0  0  0
   45.2910   35.5510   43.7280 N   0  0  0  0  0  0  0  0  0  0  0  0
   46.2060   34.5880   43.4660 C   0  0  0  0  0  0  0  0  0  0  0  0
   46.4940   33.6300   44.3630 N   0  0  0  0  0  0  0  0  0  0  0  0
   44.4110   34.5540   46.8510 H   0  0  0  0  0  0  0  0  0  0  0  0
   43.8870   36.3420   45.1530 H   0  0  0  0  0  0  0  0  0  0  0  0
   46.8860   34.6010   42.1840 C   0  0  0  0  0  0  0  0  0  0  0  0
   48.0430   35.3510   42.0150 C   0  0  0  0  0  0  0  0  0  0  0  0
   48.7710   35.4400   40.8460 C   0  0  0  0  0  0  0  0  0  0  0  0
   48.2470   34.6940   39.7950 C   0  0  0  0  0  0  0  0  0  0  0  0
   47.0930   33.9390   39.9460 C   0  0  0  0  0  0  0  0  0  0  0  0
   46.4300   33.9030   41.1360 N   0  0  0  0  0  0  0  0  0  0  0  0
   48.3840   35.9040   42.8810 H   0  0  0  0  0  0  0  0  0  0  0  0
   49.6640   36.0450   40.7890 H   0  0  0  0  0  0  0  0  0  0  0  0
   48.7690   34.7160   38.8490 H   0  0  0  0  0  0  0  0  0  0  0  0
   46.7570   33.3870   39.0760 H   0  0  0  0  0  0  0  0  0  0  0  0
   46.1800   32.5770   46.5190 C   0  0  0  0  0  0  0  0  0  0  0  0
   47.1370   32.6750   47.5200 C   0  0  0  0  0  0  0  0  0  0  0  0
   47.7890   33.5120   47.7550 H   0  0  0  0  0  0  0  0  0  0  0  0
   47.1550   31.4890   48.2270 C   0  0  0  0  0  0  0  0  0  0  0  0
   47.7430   31.1630   49.0670 H   0  0  0  0  0  0  0  0  0  0  0  0
   46.2060   30.7110   47.6310 C   0  0  0  0  0  0  0  0  0  0  0  0
   45.8420   29.7200   47.8040 H   0  0  0  0  0  0  0  0  0  0  0  0
   45.6620   31.3640   46.6490 O   0  0  0  0  0  0  0  0  0  0  0  0
  1  2  1  0  0  0  0
  1 19  1  0  0  0  0
  2  7  1  0  0  0  0
  3  8  1  0  0  0  0
  3  2  2  0  0  0  0
  4  3  1  0  0  0  0
  5  4  2  0  0  0  0
  5  6  1  0  0  0  0
  6  1  2  0  0  0  0
  9  5  1  0  0  0  0
 10  9  1  0  0  0  0
 10 15  1  0  0  0  0
 11 10  2  0  0  0  0
 12 13  2  0  0  0  0
 12 11  1  0  0  0  0
 13 14  1  0  0  0  0
 14  9  2  0  0  0  0
 16 11  1  0  0  0  0
 17 12  1  0  0  0  0
 18 13  1  0  0  0  0
 19 26  1  0  0  0  0
 19 20  2  0  0  0  0
 20 21  1  0  0  0  0
 20 22  1  0  0  0  0
 22 23  1  0  0  0  0
 24 25  1  0  0  0  0
 24 22  2  0  0  0  0
 26 24  1  0  0  0  0
M  END
>  <minimizedAffinity>
-5.64846087

>  <minimizedRMSD>
0.410722762

$$$$
