
 OpenBabel03242513023D

 30 33  0  0  0  0  0  0  0  0999 V2000
   37.0540   27.7820   43.6790 C   0  0  0  0  0  0  0  0  0  0  0  0
   36.9020   26.6800   42.8380 C   0  0  0  0  0  0  0  0  0  0  0  0
   37.0770   26.8810   41.4640 C   0  0  0  0  0  0  0  0  0  0  0  0
   37.3870   28.1410   41.0070 N   0  0  0  0  0  0  0  0  0  0  0  0
   37.5240   29.1800   41.8650 C   0  0  0  0  0  0  0  0  0  0  0  0
   37.3590   28.9990   43.1870 N   0  0  0  0  0  0  0  0  0  0  0  0
   36.9200   27.6290   44.7400 H   0  0  0  0  0  0  0  0  0  0  0  0
   36.6570   25.6790   43.1800 H   0  0  0  0  0  0  0  0  0  0  0  0
   36.9370   31.1740   40.5460 C   0  0  0  0  0  0  0  0  0  0  0  0
   37.8550   30.4920   41.3120 C   0  0  0  0  0  0  0  0  0  0  0  0
   39.1300   30.9850   41.6110 C   0  0  0  0  0  0  0  0  0  0  0  0
   39.4940   32.2350   41.1070 C   0  0  0  0  0  0  0  0  0  0  0  0
   40.6070   33.0150   41.1810 N   0  0  0  0  0  0  0  0  0  0  0  0
   40.3670   34.1610   40.4670 C   0  0  0  0  0  0  0  0  0  0  0  0
   39.1030   34.0600   39.9640 N   0  0  0  0  0  0  0  0  0  0  0  0
   38.5570   32.8920   40.3450 C   0  0  0  0  0  0  0  0  0  0  0  0
   37.3030   32.4240   40.0430 C   0  0  0  0  0  0  0  0  0  0  0  0
   35.9680   30.7120   40.3650 H   0  0  0  0  0  0  0  0  0  0  0  0
   39.8330   30.4460   42.2070 H   0  0  0  0  0  0  0  0  0  0  0  0
   41.4200   32.6800   41.7170 H   0  0  0  0  0  0  0  0  0  0  0  0
   41.1600   34.8780   40.4340 H   0  0  0  0  0  0  0  0  0  0  0  0
   36.5870   32.9650   39.4400 H   0  0  0  0  0  0  0  0  0  0  0  0
   36.9470   25.8190   40.4710 C   0  0  0  0  0  0  0  0  0  0  0  0
   36.6430   24.5070   40.8460 C   0  0  0  0  0  0  0  0  0  0  0  0
   36.4680   24.1050   41.8480 H   0  0  0  0  0  0  0  0  0  0  0  0
   36.5850   23.7290   39.7050 C   0  0  0  0  0  0  0  0  0  0  0  0
   36.3750   22.6810   39.6270 H   0  0  0  0  0  0  0  0  0  0  0  0
   36.8600   24.6150   38.6850 C   0  0  0  0  0  0  0  0  0  0  0  0
   36.8990   24.3460   37.6380 H   0  0  0  0  0  0  0  0  0  0  0  0
   37.0650   25.8180   39.1650 O   0  0  0  0  0  0  0  0  0  0  0  0
  1  7  1  0  0  0  0
  2  8  1  0  0  0  0
  2  1  2  0  0  0  0
  3  2  1  0  0  0  0
  4  3  2  0  0  0  0
  4  5  1  0  0  0  0
  5  6  2  0  0  0  0
  6  1  1  0  0  0  0
  9 10  1  0  0  0  0
 10 11  2  0  0  0  0
 10  5  1  0  0  0  0
 11 19  1  0  0  0  0
 12 13  1  0  0  0  0
 12 11  1  0  0  0  0
 13 20  1  0  0  0  0
 14 13  1  0  0  0  0
 15 16  1  0  0  0  0
 15 14  2  0  0  0  0
 16 12  2  0  0  0  0
 17 16  1  0  0  0  0
 17  9  2  0  0  0  0
 18  9  1  0  0  0  0
 21 14  1  0  0  0  0
 22 17  1  0  0  0  0
 23 24  2  0  0  0  0
 23  3  1  0  0  0  0
 24 25  1  0  0  0  0
 26 24  1  0  0  0  0
 27 26  1  0  0  0  0
 28 30  1  0  0  0  0
 28 26  2  0  0  0  0
 29 28  1  0  0  0  0
 30 23  1  0  0  0  0
M  END
>  <minimizedAffinity>
-5.67498016

$$$$

 OpenBabel03242513023D

 30 33  0  0  0  0  0  0  0  0999 V2000
   39.3060   26.9560   43.6290 C   0  0  0  0  0  0  0  0  0  0  0  0
   38.5820   26.0240   42.8870 C   0  0  0  0  0  0  0  0  0  0  0  0
   37.9760   26.4620   41.7040 C   0  0  0  0  0  0  0  0  0  0  0  0
   38.1170   27.7780   41.3290 N   0  0  0  0  0  0  0  0  0  0  0  0
   38.8310   28.6460   42.0850 C   0  0  0  0  0  0  0  0  0  0  0  0
   39.4180   28.2360   43.2230 N   0  0  0  0  0  0  0  0  0  0  0  0
   39.7750   26.6200   44.5430 H   0  0  0  0  0  0  0  0  0  0  0  0
   38.4600   24.9820   43.1670 H   0  0  0  0  0  0  0  0  0  0  0  0
   40.1390   30.7010   41.7290 C   0  0  0  0  0  0  0  0  0  0  0  0
   38.9410   30.0300   41.6280 C   0  0  0  0  0  0  0  0  0  0  0  0
   37.7790   30.6010   41.0980 C   0  0  0  0  0  0  0  0  0  0  0  0
   37.8330   31.9210   40.6460 C   0  0  0  0  0  0  0  0  0  0  0  0
   36.9390   32.7840   40.0890 N   0  0  0  0  0  0  0  0  0  0  0  0
   37.5890   33.9680   39.8540 C   0  0  0  0  0  0  0  0  0  0  0  0
   38.8770   33.8070   40.2740 N   0  0  0  0  0  0  0  0  0  0  0  0
   39.0420   32.5650   40.7600 C   0  0  0  0  0  0  0  0  0  0  0  0
   40.1900   32.0210   41.2770 C   0  0  0  0  0  0  0  0  0  0  0  0
   40.9920   30.1760   42.1550 H   0  0  0  0  0  0  0  0  0  0  0  0
   36.8550   30.0690   41.0250 H   0  0  0  0  0  0  0  0  0  0  0  0
   35.9720   32.4700   39.9270 H   0  0  0  0  0  0  0  0  0  0  0  0
   37.0090   34.7520   39.4130 H   0  0  0  0  0  0  0  0  0  0  0  0
   41.1280   32.5540   41.3530 H   0  0  0  0  0  0  0  0  0  0  0  0
   37.1910   25.5950   40.8320 C   0  0  0  0  0  0  0  0  0  0  0  0
   36.7610   24.3340   41.2550 C   0  0  0  0  0  0  0  0  0  0  0  0
   36.9290   23.8430   42.2170 H   0  0  0  0  0  0  0  0  0  0  0  0
   36.0460   23.7480   40.2280 C   0  0  0  0  0  0  0  0  0  0  0  0
   35.5750   22.7860   40.2130 H   0  0  0  0  0  0  0  0  0  0  0  0
   36.0760   24.6900   39.2220 C   0  0  0  0  0  0  0  0  0  0  0  0
   35.6090   24.5660   38.2550 H   0  0  0  0  0  0  0  0  0  0  0  0
   36.7490   25.7490   39.6070 O   0  0  0  0  0  0  0  0  0  0  0  0
  1  7  1  0  0  0  0
  2  8  1  0  0  0  0
  2  1  2  0  0  0  0
  3  2  1  0  0  0  0
  4  3  2  0  0  0  0
  4  5  1  0  0  0  0
  5  6  2  0  0  0  0
  6  1  1  0  0  0  0
  9 18  1  0  0  0  0
 10  9  1  0  0  0  0
 10  5  1  0  0  0  0
 11 10  2  0  0  0  0
 12 16  2  0  0  0  0
 12 11  1  0  0  0  0
 13 12  1  0  0  0  0
 14 13  1  0  0  0  0
 14 15  2  0  0  0  0
 15 16  1  0  0  0  0
 16 17  1  0  0  0  0
 17 22  1  0  0  0  0
 17  9  2  0  0  0  0
 19 11  1  0  0  0  0
 20 13  1  0  0  0  0
 21 14  1  0  0  0  0
 23 24  2  0  0  0  0
 23  3  1  0  0  0  0
 24 25  1  0  0  0  0
 26 24  1  0  0  0  0
 27 26  1  0  0  0  0
 28 30  1  0  0  0  0
 28 26  2  0  0  0  0
 29 28  1  0  0  0  0
 30 23  1  0  0  0  0
M  END
>  <minimizedAffinity>
-5.45337248

$$$$

 OpenBabel03242513023D

 30 33  0  0  0  0  0  0  0  0999 V2000
   35.2420   28.2950   35.9080 C   0  0  0  0  0  0  0  0  0  0  0  0
   33.9630   28.8500   35.9160 C   0  0  0  0  0  0  0  0  0  0  0  0
   33.3650   29.0890   37.1590 C   0  0  0  0  0  0  0  0  0  0  0  0
   34.0540   28.7680   38.3050 N   0  0  0  0  0  0  0  0  0  0  0  0
   35.2960   28.2290   38.2450 C   0  0  0  0  0  0  0  0  0  0  0  0
   35.8810   27.9960   37.0570 N   0  0  0  0  0  0  0  0  0  0  0  0
   35.7060   28.1100   34.9500 H   0  0  0  0  0  0  0  0  0  0  0  0
   33.4040   29.1100   35.0230 H   0  0  0  0  0  0  0  0  0  0  0  0
   36.5260   26.6680   39.6970 C   0  0  0  0  0  0  0  0  0  0  0  0
   35.9720   27.9130   39.5010 C   0  0  0  0  0  0  0  0  0  0  0  0
   36.0130   28.9340   40.4560 C   0  0  0  0  0  0  0  0  0  0  0  0
   36.6490   28.6820   41.6730 C   0  0  0  0  0  0  0  0  0  0  0  0
   36.8800   29.4020   42.8050 N   0  0  0  0  0  0  0  0  0  0  0  0
   37.5700   28.6020   43.6790 C   0  0  0  0  0  0  0  0  0  0  0  0
   37.7480   27.3980   43.0630 N   0  0  0  0  0  0  0  0  0  0  0  0
   37.1930   27.4300   41.8400 C   0  0  0  0  0  0  0  0  0  0  0  0
   37.1620   26.4170   40.9150 C   0  0  0  0  0  0  0  0  0  0  0  0
   36.4460   25.9340   38.8960 H   0  0  0  0  0  0  0  0  0  0  0  0
   35.5790   29.8960   40.2920 H   0  0  0  0  0  0  0  0  0  0  0  0
   36.5410   30.3720   42.8600 H   0  0  0  0  0  0  0  0  0  0  0  0
   37.8260   29.0360   44.6230 H   0  0  0  0  0  0  0  0  0  0  0  0
   37.5990   25.4420   41.0750 H   0  0  0  0  0  0  0  0  0  0  0  0
   32.0330   29.6650   37.3140 C   0  0  0  0  0  0  0  0  0  0  0  0
   31.3270   30.1700   36.2190 C   0  0  0  0  0  0  0  0  0  0  0  0
   31.6300   30.2090   35.1690 H   0  0  0  0  0  0  0  0  0  0  0  0
   30.1080   30.6450   36.6660 C   0  0  0  0  0  0  0  0  0  0  0  0
   29.3220   31.0970   36.0940 H   0  0  0  0  0  0  0  0  0  0  0  0
   30.1350   30.4040   38.0230 C   0  0  0  0  0  0  0  0  0  0  0  0
   29.3320   30.6530   38.7030 H   0  0  0  0  0  0  0  0  0  0  0  0
   31.2670   29.8350   38.3650 O   0  0  0  0  0  0  0  0  0  0  0  0
  1  2  2  0  0  0  0
  1  6  1  0  0  0  0
  2  3  1  0  0  0  0
  3 23  1  0  0  0  0
  3  4  2  0  0  0  0
  5  4  1  0  0  0  0
  5 10  1  0  0  0  0
  6  5  2  0  0  0  0
  7  1  1  0  0  0  0
  8  2  1  0  0  0  0
  9 17  1  0  0  0  0
 10  9  2  0  0  0  0
 10 11  1  0  0  0  0
 11 12  2  0  0  0  0
 12 16  1  0  0  0  0
 12 13  1  0  0  0  0
 13 20  1  0  0  0  0
 13 14  1  0  0  0  0
 14 21  1  0  0  0  0
 15 14  2  0  0  0  0
 16 15  1  0  0  0  0
 17 22  1  0  0  0  0
 17 16  2  0  0  0  0
 18  9  1  0  0  0  0
 19 11  1  0  0  0  0
 23 30  1  0  0  0  0
 24 26  1  0  0  0  0
 24 23  2  0  0  0  0
 25 24  1  0  0  0  0
 26 28  2  0  0  0  0
 27 26  1  0  0  0  0
 28 30  1  0  0  0  0
 28 29  1  0  0  0  0
M  END
>  <minimizedAffinity>
-5.2734704

$$$$

 OpenBabel03242513023D

 30 33  0  0  0  0  0  0  0  0999 V2000
   37.1450   31.1260   38.4520 C   0  0  0  0  0  0  0  0  0  0  0  0
   36.7510   30.2000   39.4160 C   0  0  0  0  0  0  0  0  0  0  0  0
   37.6150   29.9760   40.4950 C   0  0  0  0  0  0  0  0  0  0  0  0
   38.8020   30.6680   40.5550 N   0  0  0  0  0  0  0  0  0  0  0  0
   39.1410   31.5580   39.5920 C   0  0  0  0  0  0  0  0  0  0  0  0
   38.3180   31.7830   38.5520 N   0  0  0  0  0  0  0  0  0  0  0  0
   36.4800   31.3020   37.6180 H   0  0  0  0  0  0  0  0  0  0  0  0
   35.8190   29.6440   39.3860 H   0  0  0  0  0  0  0  0  0  0  0  0
   41.0980   32.6690   38.5950 C   0  0  0  0  0  0  0  0  0  0  0  0
   40.4160   32.2600   39.7190 C   0  0  0  0  0  0  0  0  0  0  0  0
   40.8750   32.4780   41.0220 C   0  0  0  0  0  0  0  0  0  0  0  0
   42.0890   33.1460   41.1960 C   0  0  0  0  0  0  0  0  0  0  0  0
   42.8310   33.5270   42.2730 N   0  0  0  0  0  0  0  0  0  0  0  0
   43.9530   34.1610   41.8060 C   0  0  0  0  0  0  0  0  0  0  0  0
   43.8770   34.1560   40.4440 N   0  0  0  0  0  0  0  0  0  0  0  0
   42.7470   33.5420   40.0560 C   0  0  0  0  0  0  0  0  0  0  0  0
   42.3120   33.3360   38.7720 C   0  0  0  0  0  0  0  0  0  0  0  0
   40.6640   32.4550   37.6190 H   0  0  0  0  0  0  0  0  0  0  0  0
   40.3360   32.1560   41.8860 H   0  0  0  0  0  0  0  0  0  0  0  0
   42.4890   33.3110   43.2190 H   0  0  0  0  0  0  0  0  0  0  0  0
   44.6400   34.5200   42.5430 H   0  0  0  0  0  0  0  0  0  0  0  0
   42.8520   33.6600   37.8930 H   0  0  0  0  0  0  0  0  0  0  0  0
   37.3290   29.0360   41.5740 C   0  0  0  0  0  0  0  0  0  0  0  0
   37.7830   29.2640   42.8760 C   0  0  0  0  0  0  0  0  0  0  0  0
   38.3700   30.1040   43.2580 H   0  0  0  0  0  0  0  0  0  0  0  0
   37.3640   28.2170   43.6750 C   0  0  0  0  0  0  0  0  0  0  0  0
   37.5370   28.0720   44.7230 H   0  0  0  0  0  0  0  0  0  0  0  0
   36.6700   27.3970   42.8110 C   0  0  0  0  0  0  0  0  0  0  0  0
   36.1960   26.4690   43.0990 H   0  0  0  0  0  0  0  0  0  0  0  0
   36.6700   27.9030   41.6010 O   0  0  0  0  0  0  0  0  0  0  0  0
  1  6  2  0  0  0  0
  1  2  1  0  0  0  0
  2  3  2  0  0  0  0
  3  4  1  0  0  0  0
  3 23  1  0  0  0  0
  5 10  1  0  0  0  0
  5  4  2  0  0  0  0
  6  5  1  0  0  0  0
  7  1  1  0  0  0  0
  8  2  1  0  0  0  0
  9 17  2  0  0  0  0
  9 10  1  0  0  0  0
 10 11  2  0  0  0  0
 11 12  1  0  0  0  0
 11 19  1  0  0  0  0
 12 13  1  0  0  0  0
 13 20  1  0  0  0  0
 14 13  1  0  0  0  0
 14 21  1  0  0  0  0
 15 14  2  0  0  0  0
 16 15  1  0  0  0  0
 16 12  2  0  0  0  0
 17 16  1  0  0  0  0
 18  9  1  0  0  0  0
 22 17  1  0  0  0  0
 23 30  1  0  0  0  0
 23 24  2  0  0  0  0
 24 25  1  0  0  0  0
 24 26  1  0  0  0  0
 26 27  1  0  0  0  0
 28 29  1  0  0  0  0
 28 26  2  0  0  0  0
 30 28  1  0  0  0  0
M  END
>  <minimizedAffinity>
-5.14311409

$$$$

 OpenBabel03242513023D

 30 33  0  0  0  0  0  0  0  0999 V2000
   36.9520   32.3470   40.1900 C   0  0  0  0  0  0  0  0  0  0  0  0
   38.2200   32.9210   40.2860 C   0  0  0  0  0  0  0  0  0  0  0  0
   39.2510   32.1370   40.8150 C   0  0  0  0  0  0  0  0  0  0  0  0
   38.9740   30.8500   41.2160 N   0  0  0  0  0  0  0  0  0  0  0  0
   37.7250   30.3380   41.1030 C   0  0  0  0  0  0  0  0  0  0  0  0
   36.7270   31.0810   40.5950 N   0  0  0  0  0  0  0  0  0  0  0  0
   36.1550   32.9500   39.7810 H   0  0  0  0  0  0  0  0  0  0  0  0
   38.4570   33.9330   39.9750 H   0  0  0  0  0  0  0  0  0  0  0  0
   37.3880   28.6770   42.8890 C   0  0  0  0  0  0  0  0  0  0  0  0
   37.5010   28.9640   41.5470 C   0  0  0  0  0  0  0  0  0  0  0  0
   37.4110   27.9950   40.5410 C   0  0  0  0  0  0  0  0  0  0  0  0
   37.1960   26.6670   40.9140 C   0  0  0  0  0  0  0  0  0  0  0  0
   37.0590   25.4900   40.2440 N   0  0  0  0  0  0  0  0  0  0  0  0
   36.8650   24.4990   41.1700 C   0  0  0  0  0  0  0  0  0  0  0  0
   36.8870   25.0910   42.3990 N   0  0  0  0  0  0  0  0  0  0  0  0
   37.0880   26.4120   42.2610 C   0  0  0  0  0  0  0  0  0  0  0  0
   37.1730   27.3480   43.2600 C   0  0  0  0  0  0  0  0  0  0  0  0
   37.4710   29.4960   43.6020 H   0  0  0  0  0  0  0  0  0  0  0  0
   37.5000   28.2310   39.5030 H   0  0  0  0  0  0  0  0  0  0  0  0
   37.1130   25.4900   39.2160 H   0  0  0  0  0  0  0  0  0  0  0  0
   36.7390   23.5070   40.7890 H   0  0  0  0  0  0  0  0  0  0  0  0
   37.0840   27.1170   44.3120 H   0  0  0  0  0  0  0  0  0  0  0  0
   40.6230   32.6090   40.9720 C   0  0  0  0  0  0  0  0  0  0  0  0
   41.0590   33.7900   40.3650 C   0  0  0  0  0  0  0  0  0  0  0  0
   40.4950   34.4830   39.7350 H   0  0  0  0  0  0  0  0  0  0  0  0
   42.3900   33.9820   40.6870 C   0  0  0  0  0  0  0  0  0  0  0  0
   43.0350   34.7840   40.3910 H   0  0  0  0  0  0  0  0  0  0  0  0
   42.6990   32.8980   41.4810 C   0  0  0  0  0  0  0  0  0  0  0  0
   43.6710   32.7200   41.9190 H   0  0  0  0  0  0  0  0  0  0  0  0
   41.6500   32.1220   41.6250 O   0  0  0  0  0  0  0  0  0  0  0  0
  1  2  2  0  0  0  0
  1  6  1  0  0  0  0
  2  3  1  0  0  0  0
  3 23  1  0  0  0  0
  3  4  2  0  0  0  0
  5  4  1  0  0  0  0
  5 10  1  0  0  0  0
  6  5  2  0  0  0  0
  7  1  1  0  0  0  0
  8  2  1  0  0  0  0
  9 17  1  0  0  0  0
  9 18  1  0  0  0  0
 10  9  2  0  0  0  0
 11 12  2  0  0  0  0
 11 10  1  0  0  0  0
 12 16  1  0  0  0  0
 13 12  1  0  0  0  0
 13 14  1  0  0  0  0
 14 15  2  0  0  0  0
 16 15  1  0  0  0  0
 16 17  2  0  0  0  0
 17 22  1  0  0  0  0
 19 11  1  0  0  0  0
 20 13  1  0  0  0  0
 21 14  1  0  0  0  0
 23 30  1  0  0  0  0
 24 26  1  0  0  0  0
 24 23  2  0  0  0  0
 25 24  1  0  0  0  0
 26 28  2  0  0  0  0
 27 26  1  0  0  0  0
 28 30  1  0  0  0  0
 28 29  1  0  0  0  0
M  END
>  <minimizedAffinity>
-5.13575268

$$$$

 OpenBabel03242513023D

 30 33  0  0  0  0  0  0  0  0999 V2000
   38.0530   28.0570   43.6590 C   0  0  0  0  0  0  0  0  0  0  0  0
   38.1300   29.3450   43.1310 C   0  0  0  0  0  0  0  0  0  0  0  0
   37.7800   29.5200   41.7860 C   0  0  0  0  0  0  0  0  0  0  0  0
   37.3820   28.4270   41.0520 N   0  0  0  0  0  0  0  0  0  0  0  0
   37.3240   27.1940   41.6110 C   0  0  0  0  0  0  0  0  0  0  0  0
   37.6560   27.0150   42.9020 N   0  0  0  0  0  0  0  0  0  0  0  0
   38.3210   27.9200   44.6960 H   0  0  0  0  0  0  0  0  0  0  0  0
   38.4410   30.2200   43.6940 H   0  0  0  0  0  0  0  0  0  0  0  0
   36.8770   24.7960   41.2800 C   0  0  0  0  0  0  0  0  0  0  0  0
   36.8930   26.0770   40.7750 C   0  0  0  0  0  0  0  0  0  0  0  0
   36.5090   26.3950   39.4670 C   0  0  0  0  0  0  0  0  0  0  0  0
   36.0870   25.3620   38.6280 C   0  0  0  0  0  0  0  0  0  0  0  0
   35.6550   25.2860   37.3390 N   0  0  0  0  0  0  0  0  0  0  0  0
   35.3790   23.9710   37.0650 C   0  0  0  0  0  0  0  0  0  0  0  0
   35.6490   23.2620   38.1990 N   0  0  0  0  0  0  0  0  0  0  0  0
   36.0820   24.0940   39.1610 C   0  0  0  0  0  0  0  0  0  0  0  0
   36.4550   23.7650   40.4390 C   0  0  0  0  0  0  0  0  0  0  0  0
   37.1930   24.6430   42.3110 H   0  0  0  0  0  0  0  0  0  0  0  0
   36.5260   27.3930   39.0870 H   0  0  0  0  0  0  0  0  0  0  0  0
   35.5930   26.1470   36.7790 H   0  0  0  0  0  0  0  0  0  0  0  0
   35.0250   23.7530   36.0790 H   0  0  0  0  0  0  0  0  0  0  0  0
   36.4400   22.7570   40.8300 H   0  0  0  0  0  0  0  0  0  0  0  0
   37.8150   30.8100   41.1060 C   0  0  0  0  0  0  0  0  0  0  0  0
   36.8170   31.1820   40.2000 C   0  0  0  0  0  0  0  0  0  0  0  0
   35.9340   30.6180   39.8870 H   0  0  0  0  0  0  0  0  0  0  0  0
   37.1110   32.4440   39.7190 C   0  0  0  0  0  0  0  0  0  0  0  0
   36.5590   33.0290   39.0110 H   0  0  0  0  0  0  0  0  0  0  0  0
   38.2840   32.7790   40.3610 C   0  0  0  0  0  0  0  0  0  0  0  0
   38.8100   33.7130   40.2220 H   0  0  0  0  0  0  0  0  0  0  0  0
   38.6630   31.8090   41.1580 O   0  0  0  0  0  0  0  0  0  0  0  0
  1  7  1  0  0  0  0
  2  1  1  0  0  0  0
  2  8  1  0  0  0  0
  3  2  2  0  0  0  0
  4  5  2  0  0  0  0
  4  3  1  0  0  0  0
  5  6  1  0  0  0  0
  6  1  2  0  0  0  0
  9 18  1  0  0  0  0
 10  9  1  0  0  0  0
 10  5  1  0  0  0  0
 11 10  2  0  0  0  0
 12 16  2  0  0  0  0
 12 11  1  0  0  0  0
 13 12  1  0  0  0  0
 14 13  1  0  0  0  0
 14 15  2  0  0  0  0
 15 16  1  0  0  0  0
 16 17  1  0  0  0  0
 17 22  1  0  0  0  0
 17  9  2  0  0  0  0
 19 11  1  0  0  0  0
 20 13  1  0  0  0  0
 21 14  1  0  0  0  0
 23 30  1  0  0  0  0
 23  3  1  0  0  0  0
 24 23  2  0  0  0  0
 25 24  1  0  0  0  0
 26 24  1  0  0  0  0
 26 28  2  0  0  0  0
 27 26  1  0  0  0  0
 28 30  1  0  0  0  0
 29 28  1  0  0  0  0
M  END
>  <minimizedAffinity>
-5.09705257

$$$$

 OpenBabel03242513023D

 30 33  0  0  0  0  0  0  0  0999 V2000
   35.7200   30.0630   40.5920 C   0  0  0  0  0  0  0  0  0  0  0  0
   35.9240   28.7570   41.0320 C   0  0  0  0  0  0  0  0  0  0  0  0
   37.2450   28.3120   41.1610 C   0  0  0  0  0  0  0  0  0  0  0  0
   38.2730   29.1720   40.8490 N   0  0  0  0  0  0  0  0  0  0  0  0
   38.0230   30.4340   40.4250 C   0  0  0  0  0  0  0  0  0  0  0  0
   36.7580   30.8720   40.2980 N   0  0  0  0  0  0  0  0  0  0  0  0
   34.7010   30.4090   40.4920 H   0  0  0  0  0  0  0  0  0  0  0  0
   35.1270   28.0640   41.2820 H   0  0  0  0  0  0  0  0  0  0  0  0
   39.9740   31.7640   41.1180 C   0  0  0  0  0  0  0  0  0  0  0  0
   39.1610   31.2950   40.1120 C   0  0  0  0  0  0  0  0  0  0  0  0
   39.3550   31.5960   38.7590 C   0  0  0  0  0  0  0  0  0  0  0  0
   40.4300   32.4150   38.4090 C   0  0  0  0  0  0  0  0  0  0  0  0
   40.9210   32.9100   37.2390 N   0  0  0  0  0  0  0  0  0  0  0  0
   42.0230   33.6710   37.5330 C   0  0  0  0  0  0  0  0  0  0  0  0
   42.1870   33.6290   38.8870 N   0  0  0  0  0  0  0  0  0  0  0  0
   41.2250   32.8680   39.4350 C   0  0  0  0  0  0  0  0  0  0  0  0
   41.0490   32.5820   40.7650 C   0  0  0  0  0  0  0  0  0  0  0  0
   39.7460   31.4770   42.1440 H   0  0  0  0  0  0  0  0  0  0  0  0
   38.7170   31.2260   37.9870 H   0  0  0  0  0  0  0  0  0  0  0  0
   40.4480   32.6720   36.3560 H   0  0  0  0  0  0  0  0  0  0  0  0
   42.5210   34.1300   36.7050 H   0  0  0  0  0  0  0  0  0  0  0  0
   41.6910   32.9540   41.5510 H   0  0  0  0  0  0  0  0  0  0  0  0
   37.6040   26.9710   41.6100 C   0  0  0  0  0  0  0  0  0  0  0  0
   38.8500   26.7060   42.1860 C   0  0  0  0  0  0  0  0  0  0  0  0
   39.6760   27.3960   42.3750 H   0  0  0  0  0  0  0  0  0  0  0  0
   38.9040   25.3630   42.5110 C   0  0  0  0  0  0  0  0  0  0  0  0
   39.7100   24.8240   42.9660 H   0  0  0  0  0  0  0  0  0  0  0  0
   37.6790   24.8750   42.1110 C   0  0  0  0  0  0  0  0  0  0  0  0
   37.3700   23.8430   42.2140 H   0  0  0  0  0  0  0  0  0  0  0  0
   36.9500   25.8350   41.5930 O   0  0  0  0  0  0  0  0  0  0  0  0
  1  2  1  0  0  0  0
  2  3  2  0  0  0  0
  2  8  1  0  0  0  0
  3 23  1  0  0  0  0
  4  3  1  0  0  0  0
  5  4  2  0  0  0  0
  6  5  1  0  0  0  0
  6  1  2  0  0  0  0
  7  1  1  0  0  0  0
  9 18  1  0  0  0  0
 10  5  1  0  0  0  0
 10  9  2  0  0  0  0
 11 10  1  0  0  0  0
 12 11  2  0  0  0  0
 12 16  1  0  0  0  0
 13 14  1  0  0  0  0
 13 12  1  0  0  0  0
 14 15  2  0  0  0  0
 15 16  1  0  0  0  0
 16 17  2  0  0  0  0
 17  9  1  0  0  0  0
 17 22  1  0  0  0  0
 19 11  1  0  0  0  0
 20 13  1  0  0  0  0
 21 14  1  0  0  0  0
 23 24  2  0  0  0  0
 24 25  1  0  0  0  0
 24 26  1  0  0  0  0
 26 27  1  0  0  0  0
 28 29  1  0  0  0  0
 28 26  2  0  0  0  0
 30 23  1  0  0  0  0
 30 28  1  0  0  0  0
M  END
>  <minimizedAffinity>
-5.05505323

$$$$

 OpenBabel03242513023D

 30 33  0  0  0  0  0  0  0  0999 V2000
   37.1440   30.0160   41.9370 C   0  0  0  0  0  0  0  0  0  0  0  0
   37.6170   28.8080   42.4460 C   0  0  0  0  0  0  0  0  0  0  0  0
   37.5330   27.6780   41.6240 C   0  0  0  0  0  0  0  0  0  0  0  0
   36.9920   27.8050   40.3660 N   0  0  0  0  0  0  0  0  0  0  0  0
   36.5450   29.0020   39.9170 C   0  0  0  0  0  0  0  0  0  0  0  0
   36.6220   30.0950   40.6970 N   0  0  0  0  0  0  0  0  0  0  0  0
   37.2080   30.8900   42.5690 H   0  0  0  0  0  0  0  0  0  0  0  0
   38.0470   28.6870   43.4350 H   0  0  0  0  0  0  0  0  0  0  0  0
   34.6500   28.7920   38.3600 C   0  0  0  0  0  0  0  0  0  0  0  0
   35.9820   29.0670   38.5700 C   0  0  0  0  0  0  0  0  0  0  0  0
   36.8680   29.4190   37.5460 C   0  0  0  0  0  0  0  0  0  0  0  0
   36.3790   29.4960   36.2410 C   0  0  0  0  0  0  0  0  0  0  0  0
   36.9190   29.7950   35.0270 N   0  0  0  0  0  0  0  0  0  0  0  0
   35.9230   29.7020   34.0890 C   0  0  0  0  0  0  0  0  0  0  0  0
   34.7840   29.3450   34.7500 N   0  0  0  0  0  0  0  0  0  0  0  0
   35.0450   29.2150   36.0620 C   0  0  0  0  0  0  0  0  0  0  0  0
   34.1630   28.8690   37.0540 C   0  0  0  0  0  0  0  0  0  0  0  0
   34.0350   28.5260   39.2180 H   0  0  0  0  0  0  0  0  0  0  0  0
   37.9000   29.6300   37.7220 H   0  0  0  0  0  0  0  0  0  0  0  0
   37.9190   30.0330   34.9680 H   0  0  0  0  0  0  0  0  0  0  0  0
   36.2000   29.9110   33.0770 H   0  0  0  0  0  0  0  0  0  0  0  0
   33.1170   28.6540   36.8820 H   0  0  0  0  0  0  0  0  0  0  0  0
   37.9900   26.3520   42.0280 C   0  0  0  0  0  0  0  0  0  0  0  0
   37.2650   25.2020   41.7020 C   0  0  0  0  0  0  0  0  0  0  0  0
   36.3290   25.1200   41.1450 H   0  0  0  0  0  0  0  0  0  0  0  0
   37.9340   24.1050   42.2110 C   0  0  0  0  0  0  0  0  0  0  0  0
   37.6590   23.0710   42.1450 H   0  0  0  0  0  0  0  0  0  0  0  0
   39.0420   24.6470   42.8270 C   0  0  0  0  0  0  0  0  0  0  0  0
   39.7990   24.0690   43.3400 H   0  0  0  0  0  0  0  0  0  0  0  0
   39.0430   25.9530   42.7010 O   0  0  0  0  0  0  0  0  0  0  0  0
  1  2  1  0  0  0  0
  1  7  1  0  0  0  0
  2  8  1  0  0  0  0
  3 23  1  0  0  0  0
  3  2  2  0  0  0  0
  4  3  1  0  0  0  0
  5  4  2  0  0  0  0
  5  6  1  0  0  0  0
  6  1  2  0  0  0  0
  9 10  1  0  0  0  0
  9 18  1  0  0  0  0
 10  5  1  0  0  0  0
 11 19  1  0  0  0  0
 11 10  2  0  0  0  0
 12 11  1  0  0  0  0
 13 12  1  0  0  0  0
 14 15  2  0  0  0  0
 14 13  1  0  0  0  0
 15 16  1  0  0  0  0
 16 12  2  0  0  0  0
 16 17  1  0  0  0  0
 17  9  2  0  0  0  0
 20 13  1  0  0  0  0
 21 14  1  0  0  0  0
 22 17  1  0  0  0  0
 23 30  1  0  0  0  0
 24 23  2  0  0  0  0
 24 26  1  0  0  0  0
 25 24  1  0  0  0  0
 26 28  2  0  0  0  0
 27 26  1  0  0  0  0
 28 29  1  0  0  0  0
 30 28  1  0  0  0  0
M  END
>  <minimizedAffinity>
-5.04284239

$$$$

 OpenBabel03242513023D

 30 33  0  0  0  0  0  0  0  0999 V2000
   37.8280   28.0410   43.2890 C   0  0  0  0  0  0  0  0  0  0  0  0
   38.0310   29.3710   42.9230 C   0  0  0  0  0  0  0  0  0  0  0  0
   37.7750   29.7270   41.5940 C   0  0  0  0  0  0  0  0  0  0  0  0
   37.3400   28.7620   40.7150 N   0  0  0  0  0  0  0  0  0  0  0  0
   37.1590   27.4820   41.1190 C   0  0  0  0  0  0  0  0  0  0  0  0
   37.4010   27.1280   42.3930 N   0  0  0  0  0  0  0  0  0  0  0  0
   38.0250   27.7640   44.3140 H   0  0  0  0  0  0  0  0  0  0  0  0
   38.3730   30.1460   43.6010 H   0  0  0  0  0  0  0  0  0  0  0  0
   36.1910   26.9280   38.9240 C   0  0  0  0  0  0  0  0  0  0  0  0
   36.6950   26.5070   40.1340 C   0  0  0  0  0  0  0  0  0  0  0  0
   36.7980   25.1610   40.5010 C   0  0  0  0  0  0  0  0  0  0  0  0
   36.3690   24.1900   39.5940 C   0  0  0  0  0  0  0  0  0  0  0  0
   36.3140   22.8300   39.5950 N   0  0  0  0  0  0  0  0  0  0  0  0
   35.7820   22.4290   38.3960 C   0  0  0  0  0  0  0  0  0  0  0  0
   35.5190   23.5590   37.6790 N   0  0  0  0  0  0  0  0  0  0  0  0
   35.8710   24.6410   38.3940 C   0  0  0  0  0  0  0  0  0  0  0  0
   35.7620   25.9560   38.0190 C   0  0  0  0  0  0  0  0  0  0  0  0
   36.1490   27.9980   38.7250 H   0  0  0  0  0  0  0  0  0  0  0  0
   37.1910   24.8470   41.4430 H   0  0  0  0  0  0  0  0  0  0  0  0
   36.6490   22.3150   40.4210 H   0  0  0  0  0  0  0  0  0  0  0  0
   35.6760   21.3750   38.2500 H   0  0  0  0  0  0  0  0  0  0  0  0
   35.3660   26.2800   37.0670 H   0  0  0  0  0  0  0  0  0  0  0  0
   37.9440   31.0810   41.0760 C   0  0  0  0  0  0  0  0  0  0  0  0
   37.0110   31.6470   40.2020 C   0  0  0  0  0  0  0  0  0  0  0  0
   36.0920   31.2080   39.8060 H   0  0  0  0  0  0  0  0  0  0  0  0
   37.4310   32.9250   39.8830 C   0  0  0  0  0  0  0  0  0  0  0  0
   36.9540   33.6380   39.2400 H   0  0  0  0  0  0  0  0  0  0  0  0
   38.6080   33.0730   40.5840 C   0  0  0  0  0  0  0  0  0  0  0  0
   39.2190   33.9650   40.5690 H   0  0  0  0  0  0  0  0  0  0  0  0
   38.8760   31.9840   41.2650 O   0  0  0  0  0  0  0  0  0  0  0  0
  1  7  1  0  0  0  0
  2  1  1  0  0  0  0
  2  8  1  0  0  0  0
  3  2  2  0  0  0  0
  4  5  2  0  0  0  0
  4  3  1  0  0  0  0
  5  6  1  0  0  0  0
  6  1  2  0  0  0  0
  9 10  1  0  0  0  0
 10 11  2  0  0  0  0
 10  5  1  0  0  0  0
 11 19  1  0  0  0  0
 12 13  1  0  0  0  0
 12 11  1  0  0  0  0
 13 20  1  0  0  0  0
 14 13  1  0  0  0  0
 15 16  1  0  0  0  0
 15 14  2  0  0  0  0
 16 12  2  0  0  0  0
 17 16  1  0  0  0  0
 17  9  2  0  0  0  0
 18  9  1  0  0  0  0
 21 14  1  0  0  0  0
 22 17  1  0  0  0  0
 23 30  1  0  0  0  0
 23  3  1  0  0  0  0
 24 23  2  0  0  0  0
 25 24  1  0  0  0  0
 26 24  1  0  0  0  0
 26 28  2  0  0  0  0
 27 26  1  0  0  0  0
 28 30  1  0  0  0  0
 29 28  1  0  0  0  0
M  END
>  <minimizedAffinity>
-4.98982859

$$$$
