
 OpenBabel03252502323D

 23 24  0  0  0  0  0  0  0  0999 V2000
   47.8000   34.7630   42.4270 C   0  0  0  0  0  0  0  0  0  0  0  0
   48.0700   33.5890   43.1440 C   0  0  0  0  0  0  0  0  0  0  0  0
   47.1150   33.1870   44.1170 C   0  0  0  0  0  0  0  0  0  0  0  0
   46.0150   33.9600   44.2860 N   0  0  0  0  0  0  0  0  0  0  0  0
   45.8040   35.0820   43.5690 C   0  0  0  0  0  0  0  0  0  0  0  0
   46.6850   35.4910   42.6400 N   0  0  0  0  0  0  0  0  0  0  0  0
   48.9610   32.9980   42.9800 H   0  0  0  0  0  0  0  0  0  0  0  0
   47.3160   31.9860   44.9030 C   0  0  0  0  0  0  0  0  0  0  0  0
   46.9760   31.8570   46.2300 C   0  0  0  0  0  0  0  0  0  0  0  0
   46.5200   32.6360   46.8400 H   0  0  0  0  0  0  0  0  0  0  0  0
   47.3440   30.5590   46.5590 C   0  0  0  0  0  0  0  0  0  0  0  0
   47.1670   30.2190   47.5900 H   0  0  0  0  0  0  0  0  0  0  0  0
   47.8880   29.9760   45.4080 C   0  0  0  0  0  0  0  0  0  0  0  0
   48.2030   28.9560   45.5790 H   0  0  0  0  0  0  0  0  0  0  0  0
   47.8460   30.8720   44.4500 O   0  0  0  0  0  0  0  0  0  0  0  0
   48.8180   35.1580   41.4150 C   0  0  0  0  0  0  0  0  0  0  0  0
   48.3440   35.0700   40.1340 F   0  0  0  0  0  0  0  0  0  0  0  0
   49.2510   36.4560   41.6950 F   0  0  0  0  0  0  0  0  0  0  0  0
   49.9580   34.3650   41.5670 F   0  0  0  0  0  0  0  0  0  0  0  0
   44.5810   35.9050   43.7840 C   0  0  0  0  0  0  0  0  0  0  0  0
   43.6070   35.6140   42.8790 F   0  0  0  0  0  0  0  0  0  0  0  0
   44.8940   37.2680   43.7580 F   0  0  0  0  0  0  0  0  0  0  0  0
   44.0490   35.6890   45.0480 F   0  0  0  0  0  0  0  0  0  0  0  0
  1  6  2  0  0  0  0
  1  2  1  0  0  0  0
  2  3  2  0  0  0  0
  3  4  1  0  0  0  0
  3  8  1  0  0  0  0
  5 20  1  0  0  0  0
  5  4  2  0  0  0  0
  6  5  1  0  0  0  0
  7  2  1  0  0  0  0
  8  9  2  0  0  0  0
  9 11  1  0  0  0  0
  9 10  1  0  0  0  0
 11 12  1  0  0  0  0
 13 14  1  0  0  0  0
 13 11  2  0  0  0  0
 15  8  1  0  0  0  0
 15 13  1  0  0  0  0
 16 19  1  0  0  0  0
 16 18  1  0  0  0  0
 16  1  1  0  0  0  0
 17 16  1  0  0  0  0
 20 23  1  0  0  0  0
 21 20  1  0  0  0  0
 22 20  1  0  0  0  0
M  END
>  <minimizedAffinity>
-5.5550828

>  <minimizedRMSD>
0.334585935

$$$$
