
     RDKit          3D

 37 41  0  0  0  0  0  0  0  0999 V2000
   47.2653   31.3879   45.1475 C   0  0  0  0  0  0  0  0  0  0  0  0
   46.8737   32.7198   45.1361 C   0  0  0  0  0  0  0  0  0  0  0  0
   46.2437   33.3250   46.1976 C   0  0  0  0  0  0  0  0  0  0  0  0
   45.9696   32.5982   47.3550 C   0  0  0  0  0  0  0  0  0  0  0  0
   45.3837   32.8454   48.5637 N   0  0  0  0  0  0  0  0  0  0  0  0
   45.4118   31.7050   49.2985 C   0  0  0  0  0  0  0  0  0  0  0  0
   46.0158   30.7618   48.5356 N   0  0  0  0  0  0  0  0  0  0  0  0
   46.3674   31.2838   47.3394 C   0  0  0  0  0  0  0  0  0  0  0  0
   46.9932   30.6508   46.3074 C   0  0  0  0  0  0  0  0  0  0  0  0
   46.4760   35.1881   42.4272 C   0  0  0  0  0  0  0  0  0  0  0  0
   47.6592   35.0170   41.7002 C   0  0  0  0  0  0  0  0  0  0  0  0
   48.5800   34.0664   42.1359 C   0  0  0  0  0  0  0  0  0  0  0  0
   48.2852   33.3365   43.2633 N   0  0  0  0  0  0  0  0  0  0  0  0
   47.1411   33.5216   43.9421 C   0  0  0  0  0  0  0  0  0  0  0  0
   46.2330   34.4403   43.5356 N   0  0  0  0  0  0  0  0  0  0  0  0
   47.3755   29.2395   46.3967 C   0  0  0  0  0  0  0  0  0  0  0  0
   48.6582   28.7912   46.6058 C   0  0  0  0  0  0  0  0  0  0  0  0
   48.5524   27.3969   46.6187 C   0  0  0  0  0  0  0  0  0  0  0  0
   47.2256   27.0861   46.4189 C   0  0  0  0  0  0  0  0  0  0  0  0
   46.5604   28.2359   46.2911 O   0  0  0  0  0  0  0  0  0  0  0  0
   47.7584   30.9371   44.3007 H   0  0  0  0  0  0  0  0  0  0  0  0
   45.9341   34.3682   46.1954 H   0  0  0  0  0  0  0  0  0  0  0  0
   44.9999   33.7864   48.8084 H   0  0  0  0  0  0  0  0  0  0  0  0
   45.0057   31.6526   50.2936 H   0  0  0  0  0  0  0  0  0  0  0  0
   45.7783   35.9339   42.0658 H   0  0  0  0  0  0  0  0  0  0  0  0
   47.9160   35.5740   40.8145 H   0  0  0  0  0  0  0  0  0  0  0  0
   49.5179   33.8564   41.6507 H   0  0  0  0  0  0  0  0  0  0  0  0
   49.5885   29.3286   46.7392 H   0  0  0  0  0  0  0  0  0  0  0  0
   49.3135   26.6444   46.7531 H   0  0  0  0  0  0  0  0  0  0  0  0
   46.5415   25.7980   46.3396 C   0  0  0  0  0  0  0  0  0  0  0  0
   45.2448   25.7124   45.8244 C   0  0  0  0  0  0  0  0  0  0  0  0
   44.6121   26.5251   45.4407 H   0  0  0  0  0  0  0  0  0  0  0  0
   44.8225   24.3983   45.8558 C   0  0  0  0  0  0  0  0  0  0  0  0
   43.9130   23.9100   45.5607 H   0  0  0  0  0  0  0  0  0  0  0  0
   45.9047   23.7391   46.3989 C   0  0  0  0  0  0  0  0  0  0  0  0
   46.0890   22.7065   46.6338 H   0  0  0  0  0  0  0  0  0  0  0  0
   46.8927   24.5776   46.6717 O   0  0  0  0  0  0  0  0  0  0  0  0
  1  9  2  0
  2  1  1  0
  2  3  2  0
  3  4  1  0
  4  5  1  0
  5  6  1  0
  7  6  2  0
  8  4  2  0
  8  7  1  0
  9 16  1  0
  9  8  1  0
 10 15  2  0
 11 12  2  0
 11 10  1  0
 12 13  1  0
 13 14  2  0
 14  2  1  0
 15 14  1  0
 16 17  2  0
 17 18  1  0
 19 18  2  0
 20 16  1  0
 20 19  1  0
  1 21  1  0
  3 22  1  0
  5 23  1  0
  6 24  1  0
 10 25  1  0
 11 26  1  0
 12 27  1  0
 17 28  1  0
 18 29  1  0
 30 31  2  0
 31 32  1  0
 31 33  1  0
 33 34  1  0
 33 35  2  0
 35 36  1  0
 35 37  1  0
 37 30  1  0
 19 30  1  0
M  ISO  8  21  14  22  14  23   9  24  14  25  14  26  14  27  14  28  14
M  ISO  4  29  14  32  16  34  16  36  14
M  END
>  <DihAtoms>  (1) 
17,18,29,30

>  <DihDeg>  (1) 
0.0003250678436306422

$$$$
