
 OpenBabel03252506573D

 37 41  0  0  0  0  0  0  0  0999 V2000
   47.1210   31.3070   45.1040 C   0  0  0  0  0  0  0  0  0  0  0  0
   46.8680   32.6720   45.1100 C   0  0  0  0  0  0  0  0  0  0  0  0
   46.3370   33.3310   46.1940 C   0  0  0  0  0  0  0  0  0  0  0  0
   46.0270   32.6270   47.3570 C   0  0  0  0  0  0  0  0  0  0  0  0
   45.5070   32.9240   48.5850 N   0  0  0  0  0  0  0  0  0  0  0  0
   45.4410   31.7820   49.3130 C   0  0  0  0  0  0  0  0  0  0  0  0
   45.9210   30.7880   48.5280 N   0  0  0  0  0  0  0  0  0  0  0  0
   46.2860   31.2800   47.3230 C   0  0  0  0  0  0  0  0  0  0  0  0
   46.8110   30.5930   46.2690 C   0  0  0  0  0  0  0  0  0  0  0  0
   47.5380   30.8140   44.2400 H   0  0  0  0  0  0  0  0  0  0  0  0
   46.1360   34.4000   46.2050 H   0  0  0  0  0  0  0  0  0  0  0  0
   45.2300   33.8980   48.8450 H   0  0  0  0  0  0  0  0  0  0  0  0
   45.0640   31.7640   50.3210 H   0  0  0  0  0  0  0  0  0  0  0  0
   46.6080   35.1460   42.3900 C   0  0  0  0  0  0  0  0  0  0  0  0
   47.7760   34.9020   41.6610 C   0  0  0  0  0  0  0  0  0  0  0  0
   48.6410   33.9000   42.0990 C   0  0  0  0  0  0  0  0  0  0  0  0
   48.3070   33.1960   43.2300 N   0  0  0  0  0  0  0  0  0  0  0  0
   47.1780   33.4510   43.9120 C   0  0  0  0  0  0  0  0  0  0  0  0
   46.3250   34.4190   43.5040 N   0  0  0  0  0  0  0  0  0  0  0  0
   45.9540   35.9300   42.0280 H   0  0  0  0  0  0  0  0  0  0  0  0
   48.0630   35.4390   40.7720 H   0  0  0  0  0  0  0  0  0  0  0  0
   49.5630   33.6330   41.6120 H   0  0  0  0  0  0  0  0  0  0  0  0
   47.0500   29.1490   46.3410 C   0  0  0  0  0  0  0  0  0  0  0  0
   48.2800   28.5540   46.1950 C   0  0  0  0  0  0  0  0  0  0  0  0
   48.0340   27.1850   46.3360 C   0  0  0  0  0  0  0  0  0  0  0  0
   46.6840   27.0330   46.5560 C   0  0  0  0  0  0  0  0  0  0  0  0
   46.1370   28.2510   46.5490 O   0  0  0  0  0  0  0  0  0  0  0  0
   49.2600   28.9780   46.0110 H   0  0  0  0  0  0  0  0  0  0  0  0
   48.7150   26.3490   46.2930 H   0  0  0  0  0  0  0  0  0  0  0  0
   45.8730   25.8370   46.7720 C   0  0  0  0  0  0  0  0  0  0  0  0
   44.4780   25.9140   46.7720 C   0  0  0  0  0  0  0  0  0  0  0  0
   43.8470   26.8020   46.6250 H   0  0  0  0  0  0  0  0  0  0  0  0
   43.9470   24.6590   46.9960 C   0  0  0  0  0  0  0  0  0  0  0  0
   42.9430   24.2880   47.0700 H   0  0  0  0  0  0  0  0  0  0  0  0
   45.0690   23.8670   47.1210 C   0  0  0  0  0  0  0  0  0  0  0  0
   45.2050   22.8170   47.3020 H   0  0  0  0  0  0  0  0  0  0  0  0
   46.1780   24.5780   46.9870 O   0  0  0  0  0  0  0  0  0  0  0  0
  1  2  2  0  0  0  0
  1  9  1  0  0  0  0
  2  3  1  0  0  0  0
  3 11  1  0  0  0  0
  3  4  2  0  0  0  0
  4  5  1  0  0  0  0
  5 12  1  0  0  0  0
  5  6  1  0  0  0  0
  6 13  1  0  0  0  0
  7  6  2  0  0  0  0
  8  4  1  0  0  0  0
  8  7  1  0  0  0  0
  9 23  1  0  0  0  0
  9  8  2  0  0  0  0
 10  1  1  0  0  0  0
 14 19  1  0  0  0  0
 15 16  1  0  0  0  0
 15 14  2  0  0  0  0
 16 17  2  0  0  0  0
 17 18  1  0  0  0  0
 18  2  1  0  0  0  0
 19 18  2  0  0  0  0
 20 14  1  0  0  0  0
 21 15  1  0  0  0  0
 22 16  1  0  0  0  0
 23 27  1  0  0  0  0
 24 25  1  0  0  0  0
 24 23  2  0  0  0  0
 25 26  2  0  0  0  0
 26 30  1  0  0  0  0
 27 26  1  0  0  0  0
 28 24  1  0  0  0  0
 29 25  1  0  0  0  0
 30 37  1  0  0  0  0
 31 30  2  0  0  0  0
 31 33  1  0  0  0  0
 32 31  1  0  0  0  0
 33 34  1  0  0  0  0
 33 35  2  0  0  0  0
 35 36  1  0  0  0  0
 37 35  1  0  0  0  0
M  END
>  <minimizedAffinity>
-5.51665258

>  <minimizedRMSD>
0.529461384

$$$$
