
 OpenBabel03252509113D

 30 33  0  0  0  0  0  0  0  0999 V2000
   45.4660   30.5530   44.2250 C   0  0  0  0  0  0  0  0  0  0  0  0
   46.7840   30.4440   43.8160 C   0  0  0  0  0  0  0  0  0  0  0  0
   47.5530   29.3330   44.0970 C   0  0  0  0  0  0  0  0  0  0  0  0
   47.0060   28.2750   44.8170 C   0  0  0  0  0  0  0  0  0  0  0  0
   47.4420   27.0690   45.2640 N   0  0  0  0  0  0  0  0  0  0  0  0
   46.4340   26.4530   45.9260 C   0  0  0  0  0  0  0  0  0  0  0  0
   45.3800   27.2910   45.8790 N   0  0  0  0  0  0  0  0  0  0  0  0
   45.6960   28.4160   45.2080 C   0  0  0  0  0  0  0  0  0  0  0  0
   44.8940   29.5050   44.9470 C   0  0  0  0  0  0  0  0  0  0  0  0
   44.8900   31.4420   43.9850 H   0  0  0  0  0  0  0  0  0  0  0  0
   48.4150   26.7690   45.0710 H   0  0  0  0  0  0  0  0  0  0  0  0
   46.5430   25.4730   46.3760 H   0  0  0  0  0  0  0  0  0  0  0  0
   43.8700   29.5420   45.2890 H   0  0  0  0  0  0  0  0  0  0  0  0
   48.4540   33.6110   43.0020 C   0  0  0  0  0  0  0  0  0  0  0  0
   48.5340   33.5670   41.6090 C   0  0  0  0  0  0  0  0  0  0  0  0
   48.0100   32.4430   40.9480 C   0  0  0  0  0  0  0  0  0  0  0  0
   47.4570   31.4690   41.7320 N   0  0  0  0  0  0  0  0  0  0  0  0
   47.3910   31.5290   43.0640 C   0  0  0  0  0  0  0  0  0  0  0  0
   47.8910   32.6020   43.7130 N   0  0  0  0  0  0  0  0  0  0  0  0
   48.8640   34.4850   43.5020 H   0  0  0  0  0  0  0  0  0  0  0  0
   48.9810   34.3660   41.0430 H   0  0  0  0  0  0  0  0  0  0  0  0
   48.0430   32.3550   39.8710 H   0  0  0  0  0  0  0  0  0  0  0  0
   48.9450   29.1900   43.6790 C   0  0  0  0  0  0  0  0  0  0  0  0
   49.8700   29.4440   44.6960 C   0  0  0  0  0  0  0  0  0  0  0  0
   49.8360   29.7260   45.7380 H   0  0  0  0  0  0  0  0  0  0  0  0
   51.1410   29.2660   44.1380 C   0  0  0  0  0  0  0  0  0  0  0  0
   52.1360   29.3670   44.5950 H   0  0  0  0  0  0  0  0  0  0  0  0
   50.8970   28.9120   42.8080 C   0  0  0  0  0  0  0  0  0  0  0  0
   51.6130   28.6850   42.0260 H   0  0  0  0  0  0  0  0  0  0  0  0
   49.6000   28.8830   42.5940 O   0  0  0  0  0  0  0  0  0  0  0  0
  1  9  1  0  0  0  0
  2  3  1  0  0  0  0
  2  1  2  0  0  0  0
  3  4  2  0  0  0  0
  4  8  1  0  0  0  0
  4  5  1  0  0  0  0
  5  6  1  0  0  0  0
  6 12  1  0  0  0  0
  7  6  2  0  0  0  0
  8  7  1  0  0  0  0
  9  8  2  0  0  0  0
  9 13  1  0  0  0  0
 10  1  1  0  0  0  0
 11  5  1  0  0  0  0
 14 20  1  0  0  0  0
 14 19  1  0  0  0  0
 15 14  2  0  0  0  0
 16 15  1  0  0  0  0
 16 17  2  0  0  0  0
 17 18  1  0  0  0  0
 18 19  2  0  0  0  0
 18  2  1  0  0  0  0
 21 15  1  0  0  0  0
 22 16  1  0  0  0  0
 23  3  1  0  0  0  0
 23 24  2  0  0  0  0
 24 25  1  0  0  0  0
 26 27  1  0  0  0  0
 26 24  1  0  0  0  0
 28 26  2  0  0  0  0
 29 28  1  0  0  0  0
 30 28  1  0  0  0  0
 30 23  1  0  0  0  0
M  END
>  <minimizedAffinity>
-2.13887

>  <minimizedRMSD>
5.44505978

$$$$
