
 OpenBabel03252508543D

 42 45  0  0  1  0  0  0  0  0999 V2000
   43.2230   34.3270   40.5970 C   0  0  0  0  0  0  0  0  0  0  0  0
   43.1870   35.4530   40.0260 O   0  0  0  0  0  0  0  0  0  0  0  0
   41.8450   33.9240   40.4370 N   0  0  0  0  0  0  0  0  0  0  0  0
   41.3810   33.8060   39.0720 C   0  0  0  0  0  0  0  0  0  0  0  0
   40.6110   35.1150   38.8020 C   0  0  0  0  0  0  0  0  0  0  0  0
   39.9010   35.4600   40.1010 C   0  0  0  0  0  0  0  0  0  0  0  0
   39.5450   34.2030   40.9020 C   0  0  0  0  0  0  0  0  0  0  0  0
   40.8340   33.6150   41.4480 C   0  0  1  0  0  0  0  0  0  0  0  0
   40.6910   32.9360   38.9830 H   0  0  0  0  0  0  0  0  0  0  0  0
   42.1900   33.7430   38.3400 H   0  0  0  0  0  0  0  0  0  0  0  0
   41.3470   35.9100   38.5520 H   0  0  0  0  0  0  0  0  0  0  0  0
   39.8540   34.9540   38.0150 H   0  0  0  0  0  0  0  0  0  0  0  0
   39.0230   36.0830   39.9330 H   0  0  0  0  0  0  0  0  0  0  0  0
   40.5920   36.0580   40.7580 H   0  0  0  0  0  0  0  0  0  0  0  0
   39.0780   33.4710   40.2480 H   0  0  0  0  0  0  0  0  0  0  0  0
   38.9110   34.5750   41.7330 H   0  0  0  0  0  0  0  0  0  0  0  0
   41.1060   34.2370   42.3320 H   0  0  0  0  0  0  0  0  0  0  0  0
   40.7570   32.1860   41.7390 C   0  0  0  0  0  0  0  0  0  0  0  0
   39.6750   31.3320   41.5990 C   0  0  0  0  0  0  0  0  0  0  0  0
   38.6930   31.5950   41.2450 H   0  0  0  0  0  0  0  0  0  0  0  0
   40.1420   30.1000   42.0100 C   0  0  0  0  0  0  0  0  0  0  0  0
   39.5910   29.1670   42.0490 H   0  0  0  0  0  0  0  0  0  0  0  0
   41.4790   30.2870   42.3730 C   0  0  0  0  0  0  0  0  0  0  0  0
   42.1350   29.5040   42.7430 H   0  0  0  0  0  0  0  0  0  0  0  0
   41.8300   31.5580   42.2000 O   0  0  0  0  0  0  0  0  0  0  0  0
   44.2920   33.7000   41.1890 O   0  0  0  0  0  0  0  0  0  0  0  0
   45.6220   34.0060   40.9900 C   0  0  0  0  0  0  0  0  0  0  0  0
   46.3090   34.6380   42.0380 C   0  0  0  0  0  0  0  0  0  0  0  0
   47.6660   34.9340   41.7960 C   0  0  0  0  0  0  0  0  0  0  0  0
   48.2150   34.5930   40.5860 N   0  0  0  0  0  0  0  0  0  0  0  0
   47.5070   33.9970   39.6400 C   0  0  0  0  0  0  0  0  0  0  0  0
   46.2080   33.6940   39.8210 N   0  0  0  0  0  0  0  0  0  0  0  0
   48.2250   35.4200   42.5780 H   0  0  0  0  0  0  0  0  0  0  0  0
   47.9240   33.7200   38.6760 H   0  0  0  0  0  0  0  0  0  0  0  0
   45.6290   34.9490   43.2710 C   0  0  0  0  0  0  0  0  0  0  0  0
   45.0080   36.1770   43.4900 C   0  0  0  0  0  0  0  0  0  0  0  0
   44.4950   36.0520   44.7650 C   0  0  0  0  0  0  0  0  0  0  0  0
   44.7860   34.8350   45.2770 N   0  0  0  0  0  0  0  0  0  0  0  0
   45.4710   34.1850   44.3570 N   0  0  0  0  0  0  0  0  0  0  0  0
   44.9320   37.0340   42.8390 H   0  0  0  0  0  0  0  0  0  0  0  0
   43.9240   36.8190   45.3120 H   0  0  0  0  0  0  0  0  0  0  0  0
   44.5550   34.4060   46.2060 H   0  0  0  0  0  0  0  0  0  0  0  0
  1 26  1  0  0  0  0
  2  1  2  0  0  0  0
  3  1  1  0  0  0  0
  3  8  1  0  0  0  0
  4  3  1  0  0  0  0
  5  4  1  0  0  0  0
  5  6  1  0  0  0  0
  6 14  1  0  0  0  0
  6  7  1  0  0  0  0
  7  8  1  0  0  0  0
  7 16  1  0  0  0  0
  8 18  1  0  0  0  0
  8 17  1  1  0  0  0
  9  4  1  0  0  0  0
 10  4  1  0  0  0  0
 11  5  1  0  0  0  0
 12  5  1  0  0  0  0
 13  6  1  0  0  0  0
 15  7  1  0  0  0  0
 18 25  1  0  0  0  0
 19 18  2  0  0  0  0
 19 21  1  0  0  0  0
 20 19  1  0  0  0  0
 21 22  1  0  0  0  0
 21 23  2  0  0  0  0
 23 24  1  0  0  0  0
 25 23  1  0  0  0  0
 27 26  1  0  0  0  0
 27 28  1  0  0  0  0
 28 35  1  0  0  0  0
 29 28  2  0  0  0  0
 29 33  1  0  0  0  0
 30 29  1  0  0  0  0
 31 32  1  0  0  0  0
 31 30  2  0  0  0  0
 32 27  2  0  0  0  0
 34 31  1  0  0  0  0
 35 36  1  0  0  0  0
 35 39  2  0  0  0  0
 36 37  2  0  0  0  0
 37 38  1  0  0  0  0
 37 41  1  0  0  0  0
 38 42  1  0  0  0  0
 39 38  1  0  0  0  0
 40 36  1  0  0  0  0
M  END
>  <minimizedAffinity>
-6.56335974

>  <minimizedRMSD>
0.705310166

$$$$
