
 OpenBabel03252504153D

 34 36  0  0  0  0  0  0  0  0999 V2000
   47.6270   30.0390   44.8800 F   0  0  0  0  0  0  0  0  0  0  0  0
   47.5110   30.7970   46.0180 C   0  0  0  0  0  0  0  0  0  0  0  0
   46.9390   32.0440   45.9480 C   0  0  0  0  0  0  0  0  0  0  0  0
   46.8620   32.7430   47.1530 C   0  0  0  0  0  0  0  0  0  0  0  0
   47.3300   32.2100   48.3300 C   0  0  0  0  0  0  0  0  0  0  0  0
   47.8940   30.9450   48.3200 C   0  0  0  0  0  0  0  0  0  0  0  0
   48.0010   30.1990   47.1620 C   0  0  0  0  0  0  0  0  0  0  0  0
   46.4150   33.7400   47.1490 H   0  0  0  0  0  0  0  0  0  0  0  0
   47.2690   32.7510   49.2570 H   0  0  0  0  0  0  0  0  0  0  0  0
   48.2700   30.5030   49.2340 H   0  0  0  0  0  0  0  0  0  0  0  0
   48.5930   28.8660   47.1430 C   0  0  0  0  0  0  0  0  0  0  0  0
   47.8860   27.7150   47.4180 C   0  0  0  0  0  0  0  0  0  0  0  0
   46.8520   27.6580   47.6700 H   0  0  0  0  0  0  0  0  0  0  0  0
   48.8510   26.7170   47.2780 C   0  0  0  0  0  0  0  0  0  0  0  0
   48.6600   25.6530   47.4220 H   0  0  0  0  0  0  0  0  0  0  0  0
   50.0610   27.3000   46.9360 C   0  0  0  0  0  0  0  0  0  0  0  0
   51.0110   26.8170   46.7540 H   0  0  0  0  0  0  0  0  0  0  0  0
   49.8270   28.5970   46.8730 O   0  0  0  0  0  0  0  0  0  0  0  0
   46.7530   34.1460   42.9870 C   0  0  0  0  0  0  0  0  0  0  0  0
   45.5910   33.7270   42.3360 C   0  0  0  0  0  0  0  0  0  0  0  0
   44.8630   32.6900   42.9480 C   0  0  0  0  0  0  0  0  0  0  0  0
   45.3050   32.1530   44.1140 N   0  0  0  0  0  0  0  0  0  0  0  0
   46.4430   32.6050   44.6960 C   0  0  0  0  0  0  0  0  0  0  0  0
   47.1640   33.6000   44.1340 N   0  0  0  0  0  0  0  0  0  0  0  0
   43.9580   32.3430   42.4670 H   0  0  0  0  0  0  0  0  0  0  0  0
   45.1790   34.3640   41.0710 C   0  0  0  0  0  0  0  0  0  0  0  0
   44.8910   35.6920   41.2870 F   0  0  0  0  0  0  0  0  0  0  0  0
   46.2600   34.3160   40.1990 F   0  0  0  0  0  0  0  0  0  0  0  0
   44.1150   33.7860   40.4680 F   0  0  0  0  0  0  0  0  0  0  0  0
   47.4570   35.1520   42.3940 O   0  0  0  0  0  0  0  0  0  0  0  0
   48.7700   35.0670   41.8780 C   0  0  0  0  0  0  0  0  0  0  0  0
   49.6320   35.3420   42.9450 F   0  0  0  0  0  0  0  0  0  0  0  0
   48.9880   33.8370   41.3170 F   0  0  0  0  0  0  0  0  0  0  0  0
   48.9890   36.0970   40.9910 F   0  0  0  0  0  0  0  0  0  0  0  0
  1  2  1  0  0  0  0
  2  7  1  0  0  0  0
  3  2  2  0  0  0  0
  3  4  1  0  0  0  0
  4  5  2  0  0  0  0
  5  9  1  0  0  0  0
  6  5  1  0  0  0  0
  6 10  1  0  0  0  0
  7  6  2  0  0  0  0
  8  4  1  0  0  0  0
 11  7  1  0  0  0  0
 11 12  2  0  0  0  0
 12 13  1  0  0  0  0
 14 12  1  0  0  0  0
 14 15  1  0  0  0  0
 16 14  2  0  0  0  0
 17 16  1  0  0  0  0
 18 16  1  0  0  0  0
 18 11  1  0  0  0  0
 19 24  1  0  0  0  0
 20 21  1  0  0  0  0
 20 19  2  0  0  0  0
 21 22  2  0  0  0  0
 22 23  1  0  0  0  0
 23  3  1  0  0  0  0
 24 23  2  0  0  0  0
 25 21  1  0  0  0  0
 26 27  1  0  0  0  0
 26 20  1  0  0  0  0
 28 26  1  0  0  0  0
 29 26  1  0  0  0  0
 30 19  1  0  0  0  0
 31 30  1  0  0  0  0
 31 32  1  0  0  0  0
 33 31  1  0  0  0  0
 34 31  1  0  0  0  0
M  END
>  <minimizedAffinity>
-5.51012421

>  <minimizedRMSD>
0.344985068

$$$$
