
 OpenBabel03252509113D

 30 33  0  0  0  0  0  0  0  0999 V2000
   46.4430   31.4830   44.1990 C   0  0  0  0  0  0  0  0  0  0  0  0
   46.7460   32.5750   43.4050 C   0  0  0  0  0  0  0  0  0  0  0  0
   47.9580   32.7020   42.7560 C   0  0  0  0  0  0  0  0  0  0  0  0
   48.9230   31.7090   42.8920 C   0  0  0  0  0  0  0  0  0  0  0  0
   50.1810   31.4990   42.4230 N   0  0  0  0  0  0  0  0  0  0  0  0
   50.6410   30.3210   42.9070 C   0  0  0  0  0  0  0  0  0  0  0  0
   49.6570   29.8140   43.6740 N   0  0  0  0  0  0  0  0  0  0  0  0
   48.5910   30.6390   43.6870 C   0  0  0  0  0  0  0  0  0  0  0  0
   47.3950   30.4740   44.3500 C   0  0  0  0  0  0  0  0  0  0  0  0
   45.4790   31.4160   44.6950 H   0  0  0  0  0  0  0  0  0  0  0  0
   50.6210   32.1980   41.7980 H   0  0  0  0  0  0  0  0  0  0  0  0
   51.6270   29.9370   42.6710 H   0  0  0  0  0  0  0  0  0  0  0  0
   47.2070   29.6010   44.9580 H   0  0  0  0  0  0  0  0  0  0  0  0
   44.7160   35.5720   44.0260 C   0  0  0  0  0  0  0  0  0  0  0  0
   43.8930   35.6240   42.8990 C   0  0  0  0  0  0  0  0  0  0  0  0
   44.0380   34.6230   41.9230 C   0  0  0  0  0  0  0  0  0  0  0  0
   44.9860   33.6670   42.1580 N   0  0  0  0  0  0  0  0  0  0  0  0
   45.7640   33.6340   43.2420 C   0  0  0  0  0  0  0  0  0  0  0  0
   45.6370   34.5890   44.1880 N   0  0  0  0  0  0  0  0  0  0  0  0
   44.5960   36.3520   44.7740 H   0  0  0  0  0  0  0  0  0  0  0  0
   43.1630   36.4030   42.7690 H   0  0  0  0  0  0  0  0  0  0  0  0
   43.4280   34.6130   41.0310 H   0  0  0  0  0  0  0  0  0  0  0  0
   48.3050   33.8430   41.9130 C   0  0  0  0  0  0  0  0  0  0  0  0
   48.9900   34.8570   42.5880 C   0  0  0  0  0  0  0  0  0  0  0  0
   49.3440   35.0320   43.5930 H   0  0  0  0  0  0  0  0  0  0  0  0
   49.2460   35.8630   41.6510 C   0  0  0  0  0  0  0  0  0  0  0  0
   49.7600   36.8280   41.7690 H   0  0  0  0  0  0  0  0  0  0  0  0
   48.6940   35.3860   40.4600 C   0  0  0  0  0  0  0  0  0  0  0  0
   48.6740   35.8600   39.4840 H   0  0  0  0  0  0  0  0  0  0  0  0
   48.1580   34.2040   40.6690 O   0  0  0  0  0  0  0  0  0  0  0  0
  1  9  1  0  0  0  0
  1 10  1  0  0  0  0
  2  1  2  0  0  0  0
  3  4  2  0  0  0  0
  3  2  1  0  0  0  0
  4  8  1  0  0  0  0
  5  4  1  0  0  0  0
  5  6  1  0  0  0  0
  6  7  2  0  0  0  0
  7  8  1  0  0  0  0
  8  9  2  0  0  0  0
  9 13  1  0  0  0  0
 11  5  1  0  0  0  0
 12  6  1  0  0  0  0
 14 19  1  0  0  0  0
 14 20  1  0  0  0  0
 15 14  2  0  0  0  0
 16 17  2  0  0  0  0
 16 15  1  0  0  0  0
 17 18  1  0  0  0  0
 18  2  1  0  0  0  0
 18 19  2  0  0  0  0
 21 15  1  0  0  0  0
 22 16  1  0  0  0  0
 23 24  2  0  0  0  0
 23  3  1  0  0  0  0
 24 25  1  0  0  0  0
 26 27  1  0  0  0  0
 26 24  1  0  0  0  0
 28 30  1  0  0  0  0
 28 26  2  0  0  0  0
 29 28  1  0  0  0  0
 30 23  1  0  0  0  0
M  END
>  <minimizedAffinity>
-4.46523619

>  <minimizedRMSD>
4.92419195

$$$$
