
 OpenBabel03252508243D

 47 50  0  0  0  0  0  0  0  0999 V2000
   36.5180   30.3340   39.0090 C   0  0  0  0  0  0  0  0  0  0  0  0
   35.8700   29.3940   38.2380 C   0  0  0  0  0  0  0  0  0  0  0  0
   36.0400   29.2550   36.8810 C   0  0  0  0  0  0  0  0  0  0  0  0
   36.9400   30.1500   36.2860 C   0  0  0  0  0  0  0  0  0  0  0  0
   37.6100   31.1030   37.0100 C   0  0  0  0  0  0  0  0  0  0  0  0
   37.4080   31.2020   38.3540 C   0  0  0  0  0  0  0  0  0  0  0  0
   35.1750   28.6650   38.6220 H   0  0  0  0  0  0  0  0  0  0  0  0
   35.5470   28.5300   36.2560 H   0  0  0  0  0  0  0  0  0  0  0  0
   37.1130   30.0840   35.2030 H   0  0  0  0  0  0  0  0  0  0  0  0
   38.2880   31.7540   36.4670 H   0  0  0  0  0  0  0  0  0  0  0  0
   38.1460   32.2090   39.0080 N   0  0  0  0  0  0  0  0  0  0  0  0
   37.6250   33.5030   39.3440 C   0  0  0  0  0  0  0  0  0  0  0  0
   38.4490   34.1610   40.4220 C   0  0  0  0  0  0  0  0  0  0  0  0
   38.9270   33.2760   41.4300 N   0  0  0  0  0  0  0  0  0  0  0  0
   39.6360   32.1500   40.9410 C   0  0  0  0  0  0  0  0  0  0  0  0
   39.5480   32.0900   39.4370 C   0  0  0  0  0  0  0  0  0  0  0  0
   36.5420   33.5840   39.4690 H   0  0  0  0  0  0  0  0  0  0  0  0
   37.8370   34.1280   38.4240 H   0  0  0  0  0  0  0  0  0  0  0  0
   37.7850   34.9210   40.9200 H   0  0  0  0  0  0  0  0  0  0  0  0
   39.3080   34.7510   40.0180 H   0  0  0  0  0  0  0  0  0  0  0  0
   39.5260   33.8210   42.0620 H   0  0  0  0  0  0  0  0  0  0  0  0
   39.1110   31.2330   41.3260 H   0  0  0  0  0  0  0  0  0  0  0  0
   40.6740   32.1460   41.2610 H   0  0  0  0  0  0  0  0  0  0  0  0
   40.1260   32.9580   39.0450 H   0  0  0  0  0  0  0  0  0  0  0  0
   40.0220   31.1670   39.0500 H   0  0  0  0  0  0  0  0  0  0  0  0
   36.3290   30.4880   40.4530 C   0  0  0  0  0  0  0  0  0  0  0  0
   35.8270   31.4110   40.7530 H   0  0  0  0  0  0  0  0  0  0  0  0
   37.3670   30.5310   40.8960 H   0  0  0  0  0  0  0  0  0  0  0  0
   35.6220   29.2890   41.0540 C   0  0  0  0  0  0  0  0  0  0  0  0
   35.1320   28.6730   40.2440 H   0  0  0  0  0  0  0  0  0  0  0  0
   34.8470   29.5150   41.7700 H   0  0  0  0  0  0  0  0  0  0  0  0
   38.3150   28.0540   43.3900 C   0  0  0  0  0  0  0  0  0  0  0  0
   37.3800   28.9190   42.7740 C   0  0  0  0  0  0  0  0  0  0  0  0
   36.6150   28.4150   41.7190 C   0  0  0  0  0  0  0  0  0  0  0  0
   36.8160   27.1150   41.3450 N   0  0  0  0  0  0  0  0  0  0  0  0
   37.7060   26.3220   41.9440 C   0  0  0  0  0  0  0  0  0  0  0  0
   38.4550   26.7900   42.9650 N   0  0  0  0  0  0  0  0  0  0  0  0
   38.9040   28.4530   44.2070 H   0  0  0  0  0  0  0  0  0  0  0  0
   37.2720   29.9300   43.1160 H   0  0  0  0  0  0  0  0  0  0  0  0
   37.7850   24.9620   41.4120 C   0  0  0  0  0  0  0  0  0  0  0  0
   38.6790   23.9230   41.3930 C   0  0  0  0  0  0  0  0  0  0  0  0
   39.6070   24.1090   41.9030 H   0  0  0  0  0  0  0  0  0  0  0  0
   38.0740   22.8880   40.6800 C   0  0  0  0  0  0  0  0  0  0  0  0
   38.6480   21.9720   40.5640 H   0  0  0  0  0  0  0  0  0  0  0  0
   36.8290   23.3740   40.3040 C   0  0  0  0  0  0  0  0  0  0  0  0
   36.1860   22.7180   39.7300 H   0  0  0  0  0  0  0  0  0  0  0  0
   36.6890   24.5930   40.7490 O   0  0  0  0  0  0  0  0  0  0  0  0
  1 26  1  0  0  0  0
  2  7  1  0  0  0  0
  2  1  2  0  0  0  0
  3  2  1  0  0  0  0
  4  3  2  0  0  0  0
  4  5  1  0  0  0  0
  5  6  2  0  0  0  0
  6 11  1  0  0  0  0
  6  1  1  0  0  0  0
  8  3  1  0  0  0  0
  9  4  1  0  0  0  0
 10  5  1  0  0  0  0
 11 12  1  0  0  0  0
 11 16  1  0  0  0  0
 12 17  1  0  0  0  0
 12 13  1  0  0  0  0
 13 19  1  0  0  0  0
 13 14  1  0  0  0  0
 14 21  1  0  0  0  0
 15 23  1  0  0  0  0
 15 22  1  0  0  0  0
 15 14  1  0  0  0  0
 16 15  1  0  0  0  0
 18 12  1  0  0  0  0
 20 13  1  0  0  0  0
 24 16  1  0  0  0  0
 25 16  1  0  0  0  0
 26 27  1  0  0  0  0
 26 28  1  0  0  0  0
 26 29  1  0  0  0  0
 29 34  1  0  0  0  0
 29 31  1  0  0  0  0
 30 29  1  0  0  0  0
 32 38  1  0  0  0  0
 33 39  1  0  0  0  0
 33 32  2  0  0  0  0
 34 33  1  0  0  0  0
 35 34  2  0  0  0  0
 35 36  1  0  0  0  0
 36 37  2  0  0  0  0
 37 32  1  0  0  0  0
 40 36  1  0  0  0  0
 41 40  2  0  0  0  0
 41 42  1  0  0  0  0
 43 41  1  0  0  0  0
 44 43  1  0  0  0  0
 45 43  2  0  0  0  0
 45 47  1  0  0  0  0
 46 45  1  0  0  0  0
 47 40  1  0  0  0  0
M  END
>  <minimizedAffinity>
-6.06638479

$$$$

 OpenBabel03252508243D

 47 50  0  0  0  0  0  0  0  0999 V2000
   36.8280   26.6430   41.8380 C   0  0  0  0  0  0  0  0  0  0  0  0
   37.0460   25.3750   42.3310 C   0  0  0  0  0  0  0  0  0  0  0  0
   37.2220   24.2600   41.5480 C   0  0  0  0  0  0  0  0  0  0  0  0
   37.1680   24.4730   40.1630 C   0  0  0  0  0  0  0  0  0  0  0  0
   36.9550   25.7160   39.6240 C   0  0  0  0  0  0  0  0  0  0  0  0
   36.7850   26.7920   40.4410 C   0  0  0  0  0  0  0  0  0  0  0  0
   37.1120   25.1330   43.3790 H   0  0  0  0  0  0  0  0  0  0  0  0
   37.3940   23.2590   41.9070 H   0  0  0  0  0  0  0  0  0  0  0  0
   37.3030   23.6160   39.4910 H   0  0  0  0  0  0  0  0  0  0  0  0
   36.9280   25.7880   38.5410 H   0  0  0  0  0  0  0  0  0  0  0  0
   36.5770   28.0250   39.7900 N   0  0  0  0  0  0  0  0  0  0  0  0
   37.5490   28.6730   38.9570 C   0  0  0  0  0  0  0  0  0  0  0  0
   36.9000   29.6860   38.0470 C   0  0  0  0  0  0  0  0  0  0  0  0
   35.6320   29.2960   37.5310 N   0  0  0  0  0  0  0  0  0  0  0  0
   34.6890   28.9010   38.5140 C   0  0  0  0  0  0  0  0  0  0  0  0
   35.3460   28.8280   39.8680 C   0  0  0  0  0  0  0  0  0  0  0  0
   38.3010   28.0360   38.4860 H   0  0  0  0  0  0  0  0  0  0  0  0
   38.1470   29.3060   39.6800 H   0  0  0  0  0  0  0  0  0  0  0  0
   37.5950   29.8300   37.1740 H   0  0  0  0  0  0  0  0  0  0  0  0
   36.8100   30.6980   38.5120 H   0  0  0  0  0  0  0  0  0  0  0  0
   35.2620   30.0870   36.9890 H   0  0  0  0  0  0  0  0  0  0  0  0
   34.3650   27.8540   38.2620 H   0  0  0  0  0  0  0  0  0  0  0  0
   33.8260   29.5600   38.5450 H   0  0  0  0  0  0  0  0  0  0  0  0
   35.6090   29.8720   40.1570 H   0  0  0  0  0  0  0  0  0  0  0  0
   34.6430   28.4340   40.6280 H   0  0  0  0  0  0  0  0  0  0  0  0
   36.6300   27.8310   42.6720 C   0  0  0  0  0  0  0  0  0  0  0  0
   35.7250   27.8130   43.2840 H   0  0  0  0  0  0  0  0  0  0  0  0
   36.5150   28.6950   41.9560 H   0  0  0  0  0  0  0  0  0  0  0  0
   37.8420   28.1100   43.5390 C   0  0  0  0  0  0  0  0  0  0  0  0
   38.3920   27.1510   43.7710 H   0  0  0  0  0  0  0  0  0  0  0  0
   37.6380   28.5770   44.4910 H   0  0  0  0  0  0  0  0  0  0  0  0
   41.0120   29.4900   42.0270 C   0  0  0  0  0  0  0  0  0  0  0  0
   40.1400   28.6400   42.7480 C   0  0  0  0  0  0  0  0  0  0  0  0
   38.7850   28.9790   42.8000 C   0  0  0  0  0  0  0  0  0  0  0  0
   38.3840   30.1130   42.1500 N   0  0  0  0  0  0  0  0  0  0  0  0
   39.2290   30.8970   41.4780 C   0  0  0  0  0  0  0  0  0  0  0  0
   40.5410   30.5870   41.4160 N   0  0  0  0  0  0  0  0  0  0  0  0
   42.0600   29.2200   41.9920 H   0  0  0  0  0  0  0  0  0  0  0  0
   40.5210   27.7640   43.2360 H   0  0  0  0  0  0  0  0  0  0  0  0
   38.6220   32.0670   40.8450 C   0  0  0  0  0  0  0  0  0  0  0  0
   37.4640   32.3860   40.1850 C   0  0  0  0  0  0  0  0  0  0  0  0
   36.7640   31.5770   40.0710 H   0  0  0  0  0  0  0  0  0  0  0  0
   37.5550   33.7360   39.8450 C   0  0  0  0  0  0  0  0  0  0  0  0
   36.7120   34.1640   39.3090 H   0  0  0  0  0  0  0  0  0  0  0  0
   38.7850   34.1590   40.3300 C   0  0  0  0  0  0  0  0  0  0  0  0
   39.0600   35.1930   40.1700 H   0  0  0  0  0  0  0  0  0  0  0  0
   39.3870   33.1570   40.9120 O   0  0  0  0  0  0  0  0  0  0  0  0
  1  2  1  0  0  0  0
  1 26  1  0  0  0  0
  2  7  1  0  0  0  0
  3  8  1  0  0  0  0
  3  2  2  0  0  0  0
  4  3  1  0  0  0  0
  5  4  2  0  0  0  0
  5  6  1  0  0  0  0
  6  1  2  0  0  0  0
  9  4  1  0  0  0  0
 10  5  1  0  0  0  0
 11 16  1  0  0  0  0
 11  6  1  0  0  0  0
 12 18  1  0  0  0  0
 12 11  1  0  0  0  0
 13 20  1  0  0  0  0
 13 12  1  0  0  0  0
 14 13  1  0  0  0  0
 14 15  1  0  0  0  0
 15 23  1  0  0  0  0
 15 16  1  0  0  0  0
 16 24  1  0  0  0  0
 16 25  1  0  0  0  0
 17 12  1  0  0  0  0
 19 13  1  0  0  0  0
 21 14  1  0  0  0  0
 22 15  1  0  0  0  0
 26 27  1  0  0  0  0
 26 29  1  0  0  0  0
 28 26  1  0  0  0  0
 29 30  1  0  0  0  0
 29 31  1  0  0  0  0
 32 33  1  0  0  0  0
 33 34  2  0  0  0  0
 33 39  1  0  0  0  0
 34 29  1  0  0  0  0
 35 34  1  0  0  0  0
 36 35  2  0  0  0  0
 37 36  1  0  0  0  0
 37 32  2  0  0  0  0
 38 32  1  0  0  0  0
 40 47  1  0  0  0  0
 40 36  1  0  0  0  0
 41 40  2  0  0  0  0
 42 41  1  0  0  0  0
 43 41  1  0  0  0  0
 43 45  2  0  0  0  0
 44 43  1  0  0  0  0
 45 47  1  0  0  0  0
 46 45  1  0  0  0  0
M  END
>  <minimizedAffinity>
-6.04163504

$$$$

 OpenBabel03252508243D

 47 50  0  0  0  0  0  0  0  0999 V2000
   38.2870   26.2930   42.4510 C   0  0  0  0  0  0  0  0  0  0  0  0
   37.0230   25.7790   42.2560 C   0  0  0  0  0  0  0  0  0  0  0  0
   36.7660   24.5040   41.8130 C   0  0  0  0  0  0  0  0  0  0  0  0
   37.8920   23.7100   41.5560 C   0  0  0  0  0  0  0  0  0  0  0  0
   39.1700   24.1750   41.7340 C   0  0  0  0  0  0  0  0  0  0  0  0
   39.3750   25.4480   42.1760 C   0  0  0  0  0  0  0  0  0  0  0  0
   36.1100   26.3210   42.4430 H   0  0  0  0  0  0  0  0  0  0  0  0
   35.7890   24.0780   41.6530 H   0  0  0  0  0  0  0  0  0  0  0  0
   37.7440   22.6820   41.1990 H   0  0  0  0  0  0  0  0  0  0  0  0
   39.9820   23.4910   41.5100 H   0  0  0  0  0  0  0  0  0  0  0  0
   40.7230   25.8280   42.3320 N   0  0  0  0  0  0  0  0  0  0  0  0
   41.4740   25.6630   43.5430 C   0  0  0  0  0  0  0  0  0  0  0  0
   42.9580   25.7090   43.2770 C   0  0  0  0  0  0  0  0  0  0  0  0
   43.3650   25.0790   42.0660 N   0  0  0  0  0  0  0  0  0  0  0  0
   42.6820   25.5270   40.9080 C   0  0  0  0  0  0  0  0  0  0  0  0
   41.5550   26.4510   41.2900 C   0  0  0  0  0  0  0  0  0  0  0  0
   41.1460   24.8750   44.2260 H   0  0  0  0  0  0  0  0  0  0  0  0
   41.2740   26.6170   44.1190 H   0  0  0  0  0  0  0  0  0  0  0  0
   43.4570   25.1700   44.1280 H   0  0  0  0  0  0  0  0  0  0  0  0
   43.3760   26.7450   43.3080 H   0  0  0  0  0  0  0  0  0  0  0  0
   44.3750   25.2350   41.9610 H   0  0  0  0  0  0  0  0  0  0  0  0
   42.2060   24.6260   40.4320 H   0  0  0  0  0  0  0  0  0  0  0  0
   43.3480   26.0130   40.2000 H   0  0  0  0  0  0  0  0  0  0  0  0
   42.0200   27.3780   41.6980 H   0  0  0  0  0  0  0  0  0  0  0  0
   40.9590   26.7360   40.4010 H   0  0  0  0  0  0  0  0  0  0  0  0
   38.5610   27.6550   42.9130 C   0  0  0  0  0  0  0  0  0  0  0  0
   39.2340   28.2290   42.2710 H   0  0  0  0  0  0  0  0  0  0  0  0
   39.0860   27.5430   43.9060 H   0  0  0  0  0  0  0  0  0  0  0  0
   37.2810   28.4300   43.1540 C   0  0  0  0  0  0  0  0  0  0  0  0
   37.3880   29.1020   44.0560 H   0  0  0  0  0  0  0  0  0  0  0  0
   36.3980   27.8330   43.3260 H   0  0  0  0  0  0  0  0  0  0  0  0
   35.7140   29.8870   40.0450 C   0  0  0  0  0  0  0  0  0  0  0  0
   35.9440   29.0210   41.1410 C   0  0  0  0  0  0  0  0  0  0  0  0
   37.0130   29.3100   41.9930 C   0  0  0  0  0  0  0  0  0  0  0  0
   37.7750   30.4110   41.7150 N   0  0  0  0  0  0  0  0  0  0  0  0
   37.5350   31.2090   40.6730 C   0  0  0  0  0  0  0  0  0  0  0  0
   36.5070   30.9480   39.8390 N   0  0  0  0  0  0  0  0  0  0  0  0
   34.8830   29.6560   39.3910 H   0  0  0  0  0  0  0  0  0  0  0  0
   35.3080   28.1730   41.3020 H   0  0  0  0  0  0  0  0  0  0  0  0
   38.4520   32.3400   40.5310 C   0  0  0  0  0  0  0  0  0  0  0  0
   38.3850   33.6800   40.2530 C   0  0  0  0  0  0  0  0  0  0  0  0
   37.3950   34.0630   40.0810 H   0  0  0  0  0  0  0  0  0  0  0  0
   39.6940   34.1610   40.2820 C   0  0  0  0  0  0  0  0  0  0  0  0
   39.8320   35.2200   40.0810 H   0  0  0  0  0  0  0  0  0  0  0  0
   40.4870   33.0620   40.5820 C   0  0  0  0  0  0  0  0  0  0  0  0
   41.5560   33.2170   40.6530 H   0  0  0  0  0  0  0  0  0  0  0  0
   39.7290   32.0080   40.7220 O   0  0  0  0  0  0  0  0  0  0  0  0
  1 26  1  0  0  0  0
  2  7  1  0  0  0  0
  2  1  1  0  0  0  0
  3  2  2  0  0  0  0
  4  5  2  0  0  0  0
  4  3  1  0  0  0  0
  5  6  1  0  0  0  0
  6 11  1  0  0  0  0
  6  1  2  0  0  0  0
  8  3  1  0  0  0  0
  9  4  1  0  0  0  0
 10  5  1  0  0  0  0
 11 12  1  0  0  0  0
 12 18  1  0  0  0  0
 12 17  1  0  0  0  0
 13 20  1  0  0  0  0
 13 12  1  0  0  0  0
 13 19  1  0  0  0  0
 14 13  1  0  0  0  0
 15 16  1  0  0  0  0
 15 14  1  0  0  0  0
 16 24  1  0  0  0  0
 16 11  1  0  0  0  0
 21 14  1  0  0  0  0
 22 15  1  0  0  0  0
 23 15  1  0  0  0  0
 25 16  1  0  0  0  0
 26 29  1  0  0  0  0
 26 28  1  0  0  0  0
 27 26  1  0  0  0  0
 29 31  1  0  0  0  0
 29 30  1  0  0  0  0
 32 33  1  0  0  0  0
 33 39  1  0  0  0  0
 33 34  2  0  0  0  0
 34 29  1  0  0  0  0
 35 34  1  0  0  0  0
 36 35  2  0  0  0  0
 37 32  2  0  0  0  0
 37 36  1  0  0  0  0
 38 32  1  0  0  0  0
 40 36  1  0  0  0  0
 40 47  1  0  0  0  0
 41 43  1  0  0  0  0
 41 40  2  0  0  0  0
 42 41  1  0  0  0  0
 43 45  2  0  0  0  0
 44 43  1  0  0  0  0
 45 46  1  0  0  0  0
 45 47  1  0  0  0  0
M  END
>  <minimizedAffinity>
-6.00696611

$$$$

 OpenBabel03252508243D

 47 50  0  0  0  0  0  0  0  0999 V2000
   36.4100   27.8680   41.3000 C   0  0  0  0  0  0  0  0  0  0  0  0
   35.5710   28.9350   41.0630 C   0  0  0  0  0  0  0  0  0  0  0  0
   35.0780   29.2730   39.8250 C   0  0  0  0  0  0  0  0  0  0  0  0
   35.4800   28.4500   38.7650 C   0  0  0  0  0  0  0  0  0  0  0  0
   36.3120   27.3750   38.9490 C   0  0  0  0  0  0  0  0  0  0  0  0
   36.7760   27.0800   40.1950 C   0  0  0  0  0  0  0  0  0  0  0  0
   35.2090   29.6060   41.8250 H   0  0  0  0  0  0  0  0  0  0  0  0
   34.4220   30.1000   39.6140 H   0  0  0  0  0  0  0  0  0  0  0  0
   35.1150   28.6740   37.7530 H   0  0  0  0  0  0  0  0  0  0  0  0
   36.5720   26.7930   38.0700 H   0  0  0  0  0  0  0  0  0  0  0  0
   37.6210   25.9550   40.2800 N   0  0  0  0  0  0  0  0  0  0  0  0
   39.0520   26.0110   40.1950 C   0  0  0  0  0  0  0  0  0  0  0  0
   39.6830   24.7720   40.7810 C   0  0  0  0  0  0  0  0  0  0  0  0
   39.0330   24.2670   41.9430 N   0  0  0  0  0  0  0  0  0  0  0  0
   37.6430   24.0380   41.7910 C   0  0  0  0  0  0  0  0  0  0  0  0
   37.1680   24.5660   40.4620 C   0  0  0  0  0  0  0  0  0  0  0  0
   39.5280   26.9540   40.4740 H   0  0  0  0  0  0  0  0  0  0  0  0
   39.2620   25.9210   39.0860 H   0  0  0  0  0  0  0  0  0  0  0  0
   40.7340   25.0490   41.0700 H   0  0  0  0  0  0  0  0  0  0  0  0
   39.7970   23.9460   40.0370 H   0  0  0  0  0  0  0  0  0  0  0  0
   39.5070   23.3930   42.2050 H   0  0  0  0  0  0  0  0  0  0  0  0
   37.1180   24.6450   42.5800 H   0  0  0  0  0  0  0  0  0  0  0  0
   37.3840   22.9880   41.8970 H   0  0  0  0  0  0  0  0  0  0  0  0
   37.6290   23.9260   39.6760 H   0  0  0  0  0  0  0  0  0  0  0  0
   36.0680   24.4750   40.3700 H   0  0  0  0  0  0  0  0  0  0  0  0
   36.9440   27.5140   42.6170 C   0  0  0  0  0  0  0  0  0  0  0  0
   37.7300   26.7560   42.6020 H   0  0  0  0  0  0  0  0  0  0  0  0
   36.0800   27.0680   43.1890 H   0  0  0  0  0  0  0  0  0  0  0  0
   37.4140   28.7410   43.3740 C   0  0  0  0  0  0  0  0  0  0  0  0
   37.6000   28.4880   44.4590 H   0  0  0  0  0  0  0  0  0  0  0  0
   36.7360   29.5800   43.3720 H   0  0  0  0  0  0  0  0  0  0  0  0
   41.0440   28.8400   42.3450 C   0  0  0  0  0  0  0  0  0  0  0  0
   39.8270   28.3710   42.8980 C   0  0  0  0  0  0  0  0  0  0  0  0
   38.7050   29.2000   42.8130 C   0  0  0  0  0  0  0  0  0  0  0  0
   38.8500   30.4140   42.2000 N   0  0  0  0  0  0  0  0  0  0  0  0
   40.0100   30.8300   41.6880 C   0  0  0  0  0  0  0  0  0  0  0  0
   41.1050   30.0450   41.7600 N   0  0  0  0  0  0  0  0  0  0  0  0
   41.9080   28.1920   42.4150 H   0  0  0  0  0  0  0  0  0  0  0  0
   39.7830   27.4080   43.3650 H   0  0  0  0  0  0  0  0  0  0  0  0
   39.9770   32.1550   41.0710 C   0  0  0  0  0  0  0  0  0  0  0  0
   40.8490   33.0190   40.4610 C   0  0  0  0  0  0  0  0  0  0  0  0
   41.8640   32.6710   40.3890 H   0  0  0  0  0  0  0  0  0  0  0  0
   40.1100   34.1460   40.1010 C   0  0  0  0  0  0  0  0  0  0  0  0
   40.6480   34.9450   39.5980 H   0  0  0  0  0  0  0  0  0  0  0  0
   38.8120   33.8900   40.5230 C   0  0  0  0  0  0  0  0  0  0  0  0
   38.0640   34.6500   40.3390 H   0  0  0  0  0  0  0  0  0  0  0  0
   38.7670   32.7140   41.0890 O   0  0  0  0  0  0  0  0  0  0  0  0
  1 26  1  0  0  0  0
  2  1  1  0  0  0  0
  2  7  1  0  0  0  0
  3  2  2  0  0  0  0
  4  5  2  0  0  0  0
  4  3  1  0  0  0  0
  5  6  1  0  0  0  0
  6 11  1  0  0  0  0
  6  1  2  0  0  0  0
  8  3  1  0  0  0  0
  9  4  1  0  0  0  0
 10  5  1  0  0  0  0
 11 16  1  0  0  0  0
 12 11  1  0  0  0  0
 12 17  1  0  0  0  0
 12 13  1  0  0  0  0
 13 19  1  0  0  0  0
 13 14  1  0  0  0  0
 14 21  1  0  0  0  0
 15 23  1  0  0  0  0
 15 14  1  0  0  0  0
 15 22  1  0  0  0  0
 16 15  1  0  0  0  0
 18 12  1  0  0  0  0
 20 13  1  0  0  0  0
 24 16  1  0  0  0  0
 25 16  1  0  0  0  0
 26 28  1  0  0  0  0
 26 29  1  0  0  0  0
 27 26  1  0  0  0  0
 29 30  1  0  0  0  0
 31 29  1  0  0  0  0
 32 38  1  0  0  0  0
 32 33  1  0  0  0  0
 33 39  1  0  0  0  0
 34 33  2  0  0  0  0
 34 29  1  0  0  0  0
 35 34  1  0  0  0  0
 36 37  1  0  0  0  0
 36 35  2  0  0  0  0
 37 32  2  0  0  0  0
 40 47  1  0  0  0  0
 40 36  1  0  0  0  0
 41 40  2  0  0  0  0
 42 41  1  0  0  0  0
 43 41  1  0  0  0  0
 43 45  2  0  0  0  0
 44 43  1  0  0  0  0
 45 47  1  0  0  0  0
 46 45  1  0  0  0  0
M  END
>  <minimizedAffinity>
-5.735919

$$$$

 OpenBabel03252508243D

 47 50  0  0  0  0  0  0  0  0999 V2000
   36.5100   30.0110   39.8360 C   0  0  0  0  0  0  0  0  0  0  0  0
   36.6810   31.0810   40.6880 C   0  0  0  0  0  0  0  0  0  0  0  0
   37.1700   32.3060   40.3030 C   0  0  0  0  0  0  0  0  0  0  0  0
   37.5040   32.4300   38.9470 C   0  0  0  0  0  0  0  0  0  0  0  0
   37.3510   31.3960   38.0590 C   0  0  0  0  0  0  0  0  0  0  0  0
   36.8620   30.1990   38.4890 C   0  0  0  0  0  0  0  0  0  0  0  0
   36.4380   31.0680   41.7370 H   0  0  0  0  0  0  0  0  0  0  0  0
   37.3140   33.1570   40.9480 H   0  0  0  0  0  0  0  0  0  0  0  0
   37.9000   33.3890   38.5860 H   0  0  0  0  0  0  0  0  0  0  0  0
   37.6350   31.5810   37.0280 H   0  0  0  0  0  0  0  0  0  0  0  0
   36.7380   29.2020   37.4990 N   0  0  0  0  0  0  0  0  0  0  0  0
   35.7140   29.1840   36.4950 C   0  0  0  0  0  0  0  0  0  0  0  0
   36.1050   28.3060   35.3320 C   0  0  0  0  0  0  0  0  0  0  0  0
   37.4830   28.3650   34.9790 N   0  0  0  0  0  0  0  0  0  0  0  0
   38.3800   28.1250   36.0500 C   0  0  0  0  0  0  0  0  0  0  0  0
   37.6270   28.0380   37.3520 C   0  0  0  0  0  0  0  0  0  0  0  0
   35.2680   30.1440   36.2250 H   0  0  0  0  0  0  0  0  0  0  0  0
   34.8630   28.6190   36.9840 H   0  0  0  0  0  0  0  0  0  0  0  0
   35.5080   28.6560   34.4450 H   0  0  0  0  0  0  0  0  0  0  0  0
   35.8100   27.2370   35.4720 H   0  0  0  0  0  0  0  0  0  0  0  0
   37.6400   27.6800   34.2290 H   0  0  0  0  0  0  0  0  0  0  0  0
   39.0510   29.0240   36.1300 H   0  0  0  0  0  0  0  0  0  0  0  0
   38.9750   27.2290   35.8950 H   0  0  0  0  0  0  0  0  0  0  0  0
   37.0110   27.1110   37.3090 H   0  0  0  0  0  0  0  0  0  0  0  0
   38.3250   27.9410   38.2070 H   0  0  0  0  0  0  0  0  0  0  0  0
   35.9980   28.7020   40.2480 C   0  0  0  0  0  0  0  0  0  0  0  0
   36.4700   27.8510   39.7510 H   0  0  0  0  0  0  0  0  0  0  0  0
   34.9120   28.6880   39.9440 H   0  0  0  0  0  0  0  0  0  0  0  0
   36.0580   28.5290   41.7530 C   0  0  0  0  0  0  0  0  0  0  0  0
   35.1050   28.0600   42.1350 H   0  0  0  0  0  0  0  0  0  0  0  0
   36.1960   29.4360   42.3220 H   0  0  0  0  0  0  0  0  0  0  0  0
   39.0410   26.9920   43.4790 C   0  0  0  0  0  0  0  0  0  0  0  0
   38.0000   27.9030   43.1740 C   0  0  0  0  0  0  0  0  0  0  0  0
   37.1620   27.6040   42.0970 C   0  0  0  0  0  0  0  0  0  0  0  0
   37.3970   26.4500   41.4020 N   0  0  0  0  0  0  0  0  0  0  0  0
   38.3870   25.6110   41.7110 C   0  0  0  0  0  0  0  0  0  0  0  0
   39.2080   25.8810   42.7480 N   0  0  0  0  0  0  0  0  0  0  0  0
   39.6860   27.2310   44.3150 H   0  0  0  0  0  0  0  0  0  0  0  0
   37.8710   28.7910   43.7610 H   0  0  0  0  0  0  0  0  0  0  0  0
   38.4880   24.4270   40.8590 C   0  0  0  0  0  0  0  0  0  0  0  0
   39.2770   23.9700   39.8350 C   0  0  0  0  0  0  0  0  0  0  0  0
   40.0660   24.6360   39.5330 H   0  0  0  0  0  0  0  0  0  0  0  0
   38.7880   22.7130   39.4830 C   0  0  0  0  0  0  0  0  0  0  0  0
   39.3010   22.1950   38.6770 H   0  0  0  0  0  0  0  0  0  0  0  0
   37.7130   22.4820   40.3310 C   0  0  0  0  0  0  0  0  0  0  0  0
   37.1800   21.5460   40.2230 H   0  0  0  0  0  0  0  0  0  0  0  0
   37.5630   23.5060   41.1260 O   0  0  0  0  0  0  0  0  0  0  0  0
  1 26  1  0  0  0  0
  1  2  1  0  0  0  0
  2  7  1  0  0  0  0
  3  2  2  0  0  0  0
  3  8  1  0  0  0  0
  4  3  1  0  0  0  0
  5  6  1  0  0  0  0
  5  4  2  0  0  0  0
  6  1  2  0  0  0  0
  9  4  1  0  0  0  0
 10  5  1  0  0  0  0
 11  6  1  0  0  0  0
 12 18  1  0  0  0  0
 12 11  1  0  0  0  0
 13 20  1  0  0  0  0
 13 12  1  0  0  0  0
 14 13  1  0  0  0  0
 14 15  1  0  0  0  0
 15 22  1  0  0  0  0
 15 16  1  0  0  0  0
 16 11  1  0  0  0  0
 16 25  1  0  0  0  0
 17 12  1  0  0  0  0
 19 13  1  0  0  0  0
 21 14  1  0  0  0  0
 23 15  1  0  0  0  0
 24 16  1  0  0  0  0
 26 29  1  0  0  0  0
 27 26  1  0  0  0  0
 28 26  1  0  0  0  0
 29 34  1  0  0  0  0
 29 30  1  0  0  0  0
 29 31  1  0  0  0  0
 32 38  1  0  0  0  0
 33 32  1  0  0  0  0
 33 39  1  0  0  0  0
 34 33  2  0  0  0  0
 35 36  2  0  0  0  0
 35 34  1  0  0  0  0
 36 37  1  0  0  0  0
 37 32  2  0  0  0  0
 40 47  1  0  0  0  0
 40 36  1  0  0  0  0
 41 40  2  0  0  0  0
 42 41  1  0  0  0  0
 43 41  1  0  0  0  0
 43 45  2  0  0  0  0
 44 43  1  0  0  0  0
 45 47  1  0  0  0  0
 46 45  1  0  0  0  0
M  END
>  <minimizedAffinity>
-5.73173857

$$$$

 OpenBabel03252508243D

 47 50  0  0  0  0  0  0  0  0999 V2000
   37.0550   26.1510   40.6670 C   0  0  0  0  0  0  0  0  0  0  0  0
   36.5770   25.0190   40.0440 C   0  0  0  0  0  0  0  0  0  0  0  0
   37.0390   23.7480   40.2860 C   0  0  0  0  0  0  0  0  0  0  0  0
   38.0650   23.6440   41.2360 C   0  0  0  0  0  0  0  0  0  0  0  0
   38.5740   24.7400   41.8840 C   0  0  0  0  0  0  0  0  0  0  0  0
   38.0830   25.9810   41.6100 C   0  0  0  0  0  0  0  0  0  0  0  0
   35.7850   25.0150   39.3130 H   0  0  0  0  0  0  0  0  0  0  0  0
   36.6830   22.8480   39.8130 H   0  0  0  0  0  0  0  0  0  0  0  0
   38.4720   22.6500   41.4680 H   0  0  0  0  0  0  0  0  0  0  0  0
   39.3670   24.5660   42.6050 H   0  0  0  0  0  0  0  0  0  0  0  0
   38.6680   27.0410   42.3310 N   0  0  0  0  0  0  0  0  0  0  0  0
   39.7720   27.8260   41.8590 C   0  0  0  0  0  0  0  0  0  0  0  0
   39.8640   29.1390   42.5960 C   0  0  0  0  0  0  0  0  0  0  0  0
   38.6090   29.7400   42.8980 N   0  0  0  0  0  0  0  0  0  0  0  0
   37.6990   28.8970   43.5850 C   0  0  0  0  0  0  0  0  0  0  0  0
   38.2450   27.4950   43.6660 C   0  0  0  0  0  0  0  0  0  0  0  0
   39.9100   27.8870   40.7770 H   0  0  0  0  0  0  0  0  0  0  0  0
   40.6840   27.2550   42.2140 H   0  0  0  0  0  0  0  0  0  0  0  0
   40.4310   29.8460   41.9290 H   0  0  0  0  0  0  0  0  0  0  0  0
   40.4730   29.0750   43.5300 H   0  0  0  0  0  0  0  0  0  0  0  0
   38.7960   30.5830   43.4550 H   0  0  0  0  0  0  0  0  0  0  0  0
   36.7640   28.8390   42.9620 H   0  0  0  0  0  0  0  0  0  0  0  0
   37.4620   29.2700   44.5780 H   0  0  0  0  0  0  0  0  0  0  0  0
   39.1330   27.5310   44.3380 H   0  0  0  0  0  0  0  0  0  0  0  0
   37.5050   26.8080   44.1200 H   0  0  0  0  0  0  0  0  0  0  0  0
   36.5690   27.5070   40.4010 C   0  0  0  0  0  0  0  0  0  0  0  0
   37.3120   28.2950   40.5460 H   0  0  0  0  0  0  0  0  0  0  0  0
   35.7530   27.6940   41.1580 H   0  0  0  0  0  0  0  0  0  0  0  0
   35.9520   27.6170   39.0210 C   0  0  0  0  0  0  0  0  0  0  0  0
   34.8300   27.7290   39.0970 H   0  0  0  0  0  0  0  0  0  0  0  0
   36.1260   26.7790   38.3630 H   0  0  0  0  0  0  0  0  0  0  0  0
   36.9500   30.0860   36.3480 C   0  0  0  0  0  0  0  0  0  0  0  0
   36.4620   28.9040   36.9550 C   0  0  0  0  0  0  0  0  0  0  0  0
   36.4620   28.8350   38.3510 C   0  0  0  0  0  0  0  0  0  0  0  0
   36.9350   29.9130   39.0460 N   0  0  0  0  0  0  0  0  0  0  0  0
   37.3910   31.0140   38.4470 C   0  0  0  0  0  0  0  0  0  0  0  0
   37.3990   31.1020   37.1000 N   0  0  0  0  0  0  0  0  0  0  0  0
   36.9460   30.1320   35.2670 H   0  0  0  0  0  0  0  0  0  0  0  0
   36.1050   28.0950   36.3500 H   0  0  0  0  0  0  0  0  0  0  0  0
   37.8560   32.0660   39.3500 C   0  0  0  0  0  0  0  0  0  0  0  0
   37.6450   33.4050   39.5540 C   0  0  0  0  0  0  0  0  0  0  0  0
   36.9420   33.8650   38.8830 H   0  0  0  0  0  0  0  0  0  0  0  0
   38.4510   33.7790   40.6290 C   0  0  0  0  0  0  0  0  0  0  0  0
   38.4100   34.8210   40.9340 H   0  0  0  0  0  0  0  0  0  0  0  0
   39.1130   32.6220   41.0170 C   0  0  0  0  0  0  0  0  0  0  0  0
   39.8010   32.6910   41.8490 H   0  0  0  0  0  0  0  0  0  0  0  0
   38.7430   31.6340   40.2470 O   0  0  0  0  0  0  0  0  0  0  0  0
  1  6  1  0  0  0  0
  2  3  1  0  0  0  0
  2  1  2  0  0  0  0
  3  4  2  0  0  0  0
  4  9  1  0  0  0  0
  4  5  1  0  0  0  0
  5 10  1  0  0  0  0
  6  5  2  0  0  0  0
  6 11  1  0  0  0  0
  7  2  1  0  0  0  0
  8  3  1  0  0  0  0
 11 16  1  0  0  0  0
 12 18  1  0  0  0  0
 12 11  1  0  0  0  0
 12 13  1  0  0  0  0
 13 14  1  0  0  0  0
 13 20  1  0  0  0  0
 14 21  1  0  0  0  0
 14 15  1  0  0  0  0
 15 16  1  0  0  0  0
 15 23  1  0  0  0  0
 16 25  1  0  0  0  0
 16 24  1  0  0  0  0
 17 12  1  0  0  0  0
 19 13  1  0  0  0  0
 22 15  1  0  0  0  0
 26 27  1  0  0  0  0
 26  1  1  0  0  0  0
 26 28  1  0  0  0  0
 29 30  1  0  0  0  0
 29 26  1  0  0  0  0
 31 29  1  0  0  0  0
 32 33  2  0  0  0  0
 32 37  1  0  0  0  0
 33 34  1  0  0  0  0
 34 29  1  0  0  0  0
 34 35  2  0  0  0  0
 36 35  1  0  0  0  0
 36 40  1  0  0  0  0
 37 36  2  0  0  0  0
 38 32  1  0  0  0  0
 39 33  1  0  0  0  0
 40 41  2  0  0  0  0
 40 47  1  0  0  0  0
 41 43  1  0  0  0  0
 42 41  1  0  0  0  0
 43 44  1  0  0  0  0
 43 45  2  0  0  0  0
 45 46  1  0  0  0  0
 47 45  1  0  0  0  0
M  END
>  <minimizedAffinity>
-5.57343292

$$$$

 OpenBabel03252508243D

 47 50  0  0  0  0  0  0  0  0999 V2000
   36.3740   29.9620   39.8500 C   0  0  0  0  0  0  0  0  0  0  0  0
   36.5280   31.0130   40.7290 C   0  0  0  0  0  0  0  0  0  0  0  0
   37.0440   32.2390   40.3860 C   0  0  0  0  0  0  0  0  0  0  0  0
   37.4260   32.3860   39.0460 C   0  0  0  0  0  0  0  0  0  0  0  0
   37.2920   31.3720   38.1320 C   0  0  0  0  0  0  0  0  0  0  0  0
   36.7740   30.1720   38.5200 C   0  0  0  0  0  0  0  0  0  0  0  0
   36.2490   30.9820   41.7690 H   0  0  0  0  0  0  0  0  0  0  0  0
   37.1750   33.0750   41.0530 H   0  0  0  0  0  0  0  0  0  0  0  0
   37.8450   33.3470   38.7180 H   0  0  0  0  0  0  0  0  0  0  0  0
   37.6130   31.5740   37.1160 H   0  0  0  0  0  0  0  0  0  0  0  0
   36.6740   29.1970   37.5070 N   0  0  0  0  0  0  0  0  0  0  0  0
   35.6880   29.2140   36.4650 C   0  0  0  0  0  0  0  0  0  0  0  0
   36.1090   28.3530   35.3000 C   0  0  0  0  0  0  0  0  0  0  0  0
   37.5000   28.3980   35.0000 N   0  0  0  0  0  0  0  0  0  0  0  0
   38.3530   28.1240   36.0980 C   0  0  0  0  0  0  0  0  0  0  0  0
   37.5500   28.0230   37.3700 C   0  0  0  0  0  0  0  0  0  0  0  0
   35.2660   30.1860   36.1980 H   0  0  0  0  0  0  0  0  0  0  0  0
   34.8110   28.6530   36.9100 H   0  0  0  0  0  0  0  0  0  0  0  0
   35.5520   28.7300   34.3990 H   0  0  0  0  0  0  0  0  0  0  0  0
   35.7940   27.2860   35.4080 H   0  0  0  0  0  0  0  0  0  0  0  0
   37.6750   27.7260   34.2420 H   0  0  0  0  0  0  0  0  0  0  0  0
   39.0330   29.0110   36.2210 H   0  0  0  0  0  0  0  0  0  0  0  0
   38.9410   27.2220   35.9480 H   0  0  0  0  0  0  0  0  0  0  0  0
   36.9230   27.1060   37.2850 H   0  0  0  0  0  0  0  0  0  0  0  0
   38.2140   27.8980   38.2470 H   0  0  0  0  0  0  0  0  0  0  0  0
   35.8330   28.6520   40.2170 C   0  0  0  0  0  0  0  0  0  0  0  0
   36.2240   27.8160   39.6320 H   0  0  0  0  0  0  0  0  0  0  0  0
   34.7270   28.7040   40.0010 H   0  0  0  0  0  0  0  0  0  0  0  0
   36.0010   28.3750   41.6990 C   0  0  0  0  0  0  0  0  0  0  0  0
   35.1550   27.7310   42.0790 H   0  0  0  0  0  0  0  0  0  0  0  0
   36.0260   29.2460   42.3370 H   0  0  0  0  0  0  0  0  0  0  0  0
   38.4610   25.5310   42.0090 C   0  0  0  0  0  0  0  0  0  0  0  0
   37.2440   26.2240   41.7980 C   0  0  0  0  0  0  0  0  0  0  0  0
   37.2530   27.6160   41.9180 C   0  0  0  0  0  0  0  0  0  0  0  0
   38.4360   28.2250   42.2330 N   0  0  0  0  0  0  0  0  0  0  0  0
   39.5680   27.5450   42.4270 C   0  0  0  0  0  0  0  0  0  0  0  0
   39.5810   26.2010   42.3150 N   0  0  0  0  0  0  0  0  0  0  0  0
   38.4450   24.4520   41.9130 H   0  0  0  0  0  0  0  0  0  0  0  0
   36.3510   25.6840   41.5540 H   0  0  0  0  0  0  0  0  0  0  0  0
   40.7350   28.3630   42.7550 C   0  0  0  0  0  0  0  0  0  0  0  0
   41.0990   29.6840   42.7230 C   0  0  0  0  0  0  0  0  0  0  0  0
   40.3440   30.3580   42.3590 H   0  0  0  0  0  0  0  0  0  0  0  0
   42.4080   29.7510   43.1990 C   0  0  0  0  0  0  0  0  0  0  0  0
   42.8640   30.7360   43.2440 H   0  0  0  0  0  0  0  0  0  0  0  0
   42.7630   28.4420   43.4960 C   0  0  0  0  0  0  0  0  0  0  0  0
   43.7570   28.2660   43.8850 H   0  0  0  0  0  0  0  0  0  0  0  0
   41.7600   27.6510   43.2240 O   0  0  0  0  0  0  0  0  0  0  0  0
  1 26  1  0  0  0  0
  1  2  1  0  0  0  0
  2  7  1  0  0  0  0
  3  2  2  0  0  0  0
  3  8  1  0  0  0  0
  4  3  1  0  0  0  0
  5  6  1  0  0  0  0
  5  4  2  0  0  0  0
  6  1  2  0  0  0  0
  9  4  1  0  0  0  0
 10  5  1  0  0  0  0
 11  6  1  0  0  0  0
 12 18  1  0  0  0  0
 12 11  1  0  0  0  0
 13 20  1  0  0  0  0
 13 12  1  0  0  0  0
 14 13  1  0  0  0  0
 14 15  1  0  0  0  0
 15 22  1  0  0  0  0
 15 16  1  0  0  0  0
 16 11  1  0  0  0  0
 16 25  1  0  0  0  0
 17 12  1  0  0  0  0
 19 13  1  0  0  0  0
 21 14  1  0  0  0  0
 23 15  1  0  0  0  0
 24 16  1  0  0  0  0
 26 29  1  0  0  0  0
 27 26  1  0  0  0  0
 28 26  1  0  0  0  0
 29 34  1  0  0  0  0
 29 30  1  0  0  0  0
 29 31  1  0  0  0  0
 32 37  1  0  0  0  0
 33 34  1  0  0  0  0
 33 32  2  0  0  0  0
 34 35  2  0  0  0  0
 35 36  1  0  0  0  0
 36 40  1  0  0  0  0
 37 36  2  0  0  0  0
 38 32  1  0  0  0  0
 39 33  1  0  0  0  0
 40 47  1  0  0  0  0
 41 40  2  0  0  0  0
 41 43  1  0  0  0  0
 42 41  1  0  0  0  0
 43 44  1  0  0  0  0
 43 45  2  0  0  0  0
 45 46  1  0  0  0  0
 47 45  1  0  0  0  0
M  END
>  <minimizedAffinity>
-5.52077723

$$$$

 OpenBabel03252508243D

 47 50  0  0  0  0  0  0  0  0999 V2000
   38.7380   26.5130   42.9820 C   0  0  0  0  0  0  0  0  0  0  0  0
   39.9160   26.6760   43.6790 C   0  0  0  0  0  0  0  0  0  0  0  0
   41.0970   26.0510   43.3600 C   0  0  0  0  0  0  0  0  0  0  0  0
   41.0550   25.2020   42.2450 C   0  0  0  0  0  0  0  0  0  0  0  0
   39.9080   25.0080   41.5180 C   0  0  0  0  0  0  0  0  0  0  0  0
   38.7610   25.6500   41.8740 C   0  0  0  0  0  0  0  0  0  0  0  0
   40.0310   27.3180   44.5370 H   0  0  0  0  0  0  0  0  0  0  0  0
   42.0300   26.1610   43.8880 H   0  0  0  0  0  0  0  0  0  0  0  0
   41.9720   24.6770   41.9460 H   0  0  0  0  0  0  0  0  0  0  0  0
   39.9680   24.3330   40.6700 H   0  0  0  0  0  0  0  0  0  0  0  0
   37.6390   25.3880   41.0610 N   0  0  0  0  0  0  0  0  0  0  0  0
   37.2920   26.1470   39.8940 C   0  0  0  0  0  0  0  0  0  0  0  0
   36.3640   25.3710   38.9940 C   0  0  0  0  0  0  0  0  0  0  0  0
   36.6440   23.9770   38.9100 N   0  0  0  0  0  0  0  0  0  0  0  0
   36.7230   23.3130   40.1590 C   0  0  0  0  0  0  0  0  0  0  0  0
   36.6610   24.3120   41.2860 C   0  0  0  0  0  0  0  0  0  0  0  0
   38.1040   26.6730   39.3850 H   0  0  0  0  0  0  0  0  0  0  0  0
   36.6410   26.9810   40.2960 H   0  0  0  0  0  0  0  0  0  0  0  0
   36.4740   25.8050   37.9620 H   0  0  0  0  0  0  0  0  0  0  0  0
   35.2860   25.5120   39.2510 H   0  0  0  0  0  0  0  0  0  0  0  0
   35.9110   23.5490   38.3300 H   0  0  0  0  0  0  0  0  0  0  0  0
   37.7380   22.8320   40.2160 H   0  0  0  0  0  0  0  0  0  0  0  0
   35.9480   22.5610   40.2750 H   0  0  0  0  0  0  0  0  0  0  0  0
   35.6340   24.7430   41.2800 H   0  0  0  0  0  0  0  0  0  0  0  0
   36.8130   23.8140   42.2640 H   0  0  0  0  0  0  0  0  0  0  0  0
   37.4760   27.1720   43.3280 C   0  0  0  0  0  0  0  0  0  0  0  0
   36.9260   26.7020   44.1470 H   0  0  0  0  0  0  0  0  0  0  0  0
   36.8230   27.0850   42.4120 H   0  0  0  0  0  0  0  0  0  0  0  0
   37.6780   28.6470   43.6120 C   0  0  0  0  0  0  0  0  0  0  0  0
   38.6850   28.8240   44.0930 H   0  0  0  0  0  0  0  0  0  0  0  0
   36.9490   29.1010   44.2660 H   0  0  0  0  0  0  0  0  0  0  0  0
   38.6120   31.0730   40.8760 C   0  0  0  0  0  0  0  0  0  0  0  0
   38.6430   30.3790   42.1100 C   0  0  0  0  0  0  0  0  0  0  0  0
   37.6740   29.3980   42.3360 C   0  0  0  0  0  0  0  0  0  0  0  0
   36.7530   29.1680   41.3520 N   0  0  0  0  0  0  0  0  0  0  0  0
   36.7480   29.8380   40.1980 C   0  0  0  0  0  0  0  0  0  0  0  0
   37.6750   30.7890   39.9600 N   0  0  0  0  0  0  0  0  0  0  0  0
   39.3660   31.8310   40.7090 H   0  0  0  0  0  0  0  0  0  0  0  0
   39.3930   30.6100   42.8400 H   0  0  0  0  0  0  0  0  0  0  0  0
   35.6900   29.4580   39.2630 C   0  0  0  0  0  0  0  0  0  0  0  0
   34.3780   29.0610   39.3100 C   0  0  0  0  0  0  0  0  0  0  0  0
   33.9570   28.9920   40.2970 H   0  0  0  0  0  0  0  0  0  0  0  0
   33.9740   28.8570   37.9910 C   0  0  0  0  0  0  0  0  0  0  0  0
   32.9470   28.5350   37.8370 H   0  0  0  0  0  0  0  0  0  0  0  0
   35.0850   29.1490   37.2120 C   0  0  0  0  0  0  0  0  0  0  0  0
   34.9860   29.0530   36.1380 H   0  0  0  0  0  0  0  0  0  0  0  0
   36.0760   29.4990   37.9880 O   0  0  0  0  0  0  0  0  0  0  0  0
  1 26  1  0  0  0  0
  1  2  1  0  0  0  0
  2  7  1  0  0  0  0
  3  2  2  0  0  0  0
  3  8  1  0  0  0  0
  4  3  1  0  0  0  0
  5  6  1  0  0  0  0
  5  4  2  0  0  0  0
  6  1  2  0  0  0  0
  9  4  1  0  0  0  0
 10  5  1  0  0  0  0
 11 16  1  0  0  0  0
 11  6  1  0  0  0  0
 12 18  1  0  0  0  0
 12 11  1  0  0  0  0
 13 20  1  0  0  0  0
 13 12  1  0  0  0  0
 14 13  1  0  0  0  0
 14 15  1  0  0  0  0
 15 22  1  0  0  0  0
 15 23  1  0  0  0  0
 15 16  1  0  0  0  0
 16 25  1  0  0  0  0
 17 12  1  0  0  0  0
 19 13  1  0  0  0  0
 21 14  1  0  0  0  0
 24 16  1  0  0  0  0
 26 29  1  0  0  0  0
 26 27  1  0  0  0  0
 28 26  1  0  0  0  0
 29 30  1  0  0  0  0
 29 31  1  0  0  0  0
 32 33  1  0  0  0  0
 33 34  2  0  0  0  0
 33 39  1  0  0  0  0
 34 29  1  0  0  0  0
 35 34  1  0  0  0  0
 36 35  2  0  0  0  0
 37 36  1  0  0  0  0
 37 32  2  0  0  0  0
 38 32  1  0  0  0  0
 40 41  2  0  0  0  0
 40 36  1  0  0  0  0
 41 42  1  0  0  0  0
 43 41  1  0  0  0  0
 44 43  1  0  0  0  0
 45 47  1  0  0  0  0
 45 43  2  0  0  0  0
 46 45  1  0  0  0  0
 47 40  1  0  0  0  0
M  END
>  <minimizedAffinity>
-5.50077963

$$$$

 OpenBabel03252508243D

 47 50  0  0  0  0  0  0  0  0999 V2000
   35.3250   29.4660   38.2790 C   0  0  0  0  0  0  0  0  0  0  0  0
   34.0960   28.9020   38.0150 C   0  0  0  0  0  0  0  0  0  0  0  0
   33.7230   28.3990   36.7910 C   0  0  0  0  0  0  0  0  0  0  0  0
   34.6860   28.4850   35.7770 C   0  0  0  0  0  0  0  0  0  0  0  0
   35.9240   29.0360   35.9910 C   0  0  0  0  0  0  0  0  0  0  0  0
   36.2480   29.5230   37.2210 C   0  0  0  0  0  0  0  0  0  0  0  0
   33.3090   28.7900   38.7420 H   0  0  0  0  0  0  0  0  0  0  0  0
   32.7700   27.9540   36.5590 H   0  0  0  0  0  0  0  0  0  0  0  0
   34.4400   28.0980   34.7800 H   0  0  0  0  0  0  0  0  0  0  0  0
   36.6080   29.0610   35.1480 H   0  0  0  0  0  0  0  0  0  0  0  0
   37.5450   30.0640   37.3400 N   0  0  0  0  0  0  0  0  0  0  0  0
   37.8470   31.4630   37.2520 C   0  0  0  0  0  0  0  0  0  0  0  0
   39.1850   31.7740   37.8750 C   0  0  0  0  0  0  0  0  0  0  0  0
   39.4810   31.0290   39.0520 N   0  0  0  0  0  0  0  0  0  0  0  0
   39.3620   29.6240   38.9090 C   0  0  0  0  0  0  0  0  0  0  0  0
   38.7720   29.2840   37.5640 C   0  0  0  0  0  0  0  0  0  0  0  0
   37.0430   32.1610   37.5020 H   0  0  0  0  0  0  0  0  0  0  0  0
   38.0190   31.6360   36.1460 H   0  0  0  0  0  0  0  0  0  0  0  0
   39.1690   32.8630   38.1540 H   0  0  0  0  0  0  0  0  0  0  0  0
   40.0350   31.6740   37.1570 H   0  0  0  0  0  0  0  0  0  0  0  0
   40.4360   31.2740   39.3410 H   0  0  0  0  0  0  0  0  0  0  0  0
   38.6220   29.2720   39.6790 H   0  0  0  0  0  0  0  0  0  0  0  0
   40.3130   29.1150   39.0460 H   0  0  0  0  0  0  0  0  0  0  0  0
   39.5300   29.5660   36.7980 H   0  0  0  0  0  0  0  0  0  0  0  0
   38.5920   28.1950   37.4760 H   0  0  0  0  0  0  0  0  0  0  0  0
   35.7200   30.0120   39.5800 C   0  0  0  0  0  0  0  0  0  0  0  0
   35.2440   30.9610   39.8400 H   0  0  0  0  0  0  0  0  0  0  0  0
   36.8270   30.2200   39.5030 H   0  0  0  0  0  0  0  0  0  0  0  0
   35.5170   29.0020   40.6920 C   0  0  0  0  0  0  0  0  0  0  0  0
   35.2990   27.9800   40.2640 H   0  0  0  0  0  0  0  0  0  0  0  0
   34.7120   29.2180   41.3780 H   0  0  0  0  0  0  0  0  0  0  0  0
   38.5770   29.8800   42.7180 C   0  0  0  0  0  0  0  0  0  0  0  0
   37.3890   30.0340   41.9630 C   0  0  0  0  0  0  0  0  0  0  0  0
   36.7650   28.8810   41.4800 C   0  0  0  0  0  0  0  0  0  0  0  0
   37.3400   27.6730   41.7640 N   0  0  0  0  0  0  0  0  0  0  0  0
   38.4620   27.5590   42.4770 C   0  0  0  0  0  0  0  0  0  0  0  0
   39.0800   28.6600   42.9540 N   0  0  0  0  0  0  0  0  0  0  0  0
   39.0540   30.7790   43.0890 H   0  0  0  0  0  0  0  0  0  0  0  0
   36.9910   31.0120   41.7760 H   0  0  0  0  0  0  0  0  0  0  0  0
   38.9310   26.1890   42.6820 C   0  0  0  0  0  0  0  0  0  0  0  0
   39.8930   25.5370   43.4090 C   0  0  0  0  0  0  0  0  0  0  0  0
   40.5090   26.1690   44.0230 H   0  0  0  0  0  0  0  0  0  0  0  0
   39.7690   24.1800   43.1110 C   0  0  0  0  0  0  0  0  0  0  0  0
   40.4620   23.5040   43.6060 H   0  0  0  0  0  0  0  0  0  0  0  0
   38.7200   24.0930   42.2060 C   0  0  0  0  0  0  0  0  0  0  0  0
   38.4530   23.1100   41.8390 H   0  0  0  0  0  0  0  0  0  0  0  0
   38.2490   25.2880   41.9750 O   0  0  0  0  0  0  0  0  0  0  0  0
  1 26  1  0  0  0  0
  2  1  1  0  0  0  0
  2  7  1  0  0  0  0
  3  2  2  0  0  0  0
  4  5  2  0  0  0  0
  4  3  1  0  0  0  0
  5  6  1  0  0  0  0
  6 11  1  0  0  0  0
  6  1  2  0  0  0  0
  8  3  1  0  0  0  0
  9  4  1  0  0  0  0
 10  5  1  0  0  0  0
 11 16  1  0  0  0  0
 12 11  1  0  0  0  0
 12 17  1  0  0  0  0
 12 13  1  0  0  0  0
 13 19  1  0  0  0  0
 13 14  1  0  0  0  0
 14 21  1  0  0  0  0
 15 23  1  0  0  0  0
 15 14  1  0  0  0  0
 15 22  1  0  0  0  0
 16 15  1  0  0  0  0
 18 12  1  0  0  0  0
 20 13  1  0  0  0  0
 24 16  1  0  0  0  0
 25 16  1  0  0  0  0
 26 27  1  0  0  0  0
 26 29  1  0  0  0  0
 28 26  1  0  0  0  0
 29 31  1  0  0  0  0
 29 34  1  0  0  0  0
 30 29  1  0  0  0  0
 32 37  1  0  0  0  0
 32 38  1  0  0  0  0
 33 32  2  0  0  0  0
 34 35  2  0  0  0  0
 34 33  1  0  0  0  0
 35 36  1  0  0  0  0
 36 40  1  0  0  0  0
 36 37  2  0  0  0  0
 39 33  1  0  0  0  0
 40 41  2  0  0  0  0
 41 42  1  0  0  0  0
 43 41  1  0  0  0  0
 43 44  1  0  0  0  0
 45 43  2  0  0  0  0
 46 45  1  0  0  0  0
 47 45  1  0  0  0  0
 47 40  1  0  0  0  0
M  END
>  <minimizedAffinity>
-5.4760251

$$$$
