
 OpenBabel03252504143D

 34 36  0  0  0  0  0  0  0  0999 V2000
   47.3330   29.9290   44.9940 F   0  0  0  0  0  0  0  0  0  0  0  0
   47.3270   30.7470   46.0960 C   0  0  0  0  0  0  0  0  0  0  0  0
   46.8820   32.0410   45.9770 C   0  0  0  0  0  0  0  0  0  0  0  0
   46.9110   32.8000   47.1480 C   0  0  0  0  0  0  0  0  0  0  0  0
   47.3580   32.2780   48.3380 C   0  0  0  0  0  0  0  0  0  0  0  0
   47.7920   30.9630   48.3770 C   0  0  0  0  0  0  0  0  0  0  0  0
   47.7890   30.1570   47.2550 C   0  0  0  0  0  0  0  0  0  0  0  0
   46.5670   33.8360   47.1060 H   0  0  0  0  0  0  0  0  0  0  0  0
   47.3800   32.8660   49.2390 H   0  0  0  0  0  0  0  0  0  0  0  0
   48.1490   30.5290   49.3030 H   0  0  0  0  0  0  0  0  0  0  0  0
   48.2440   28.7710   47.2880 C   0  0  0  0  0  0  0  0  0  0  0  0
   49.5510   28.3930   47.0550 C   0  0  0  0  0  0  0  0  0  0  0  0
   50.3630   29.0440   46.8310 H   0  0  0  0  0  0  0  0  0  0  0  0
   49.4990   27.0060   47.1910 C   0  0  0  0  0  0  0  0  0  0  0  0
   50.3600   26.3450   47.0750 H   0  0  0  0  0  0  0  0  0  0  0  0
   48.2000   26.6260   47.4890 C   0  0  0  0  0  0  0  0  0  0  0  0
   47.8140   25.6290   47.6580 H   0  0  0  0  0  0  0  0  0  0  0  0
   47.5020   27.7440   47.5310 O   0  0  0  0  0  0  0  0  0  0  0  0
   46.7430   34.1220   42.9990 C   0  0  0  0  0  0  0  0  0  0  0  0
   45.5960   33.6910   42.3280 C   0  0  0  0  0  0  0  0  0  0  0  0
   44.8620   32.6540   42.9320 C   0  0  0  0  0  0  0  0  0  0  0  0
   45.2850   32.1280   44.1110 N   0  0  0  0  0  0  0  0  0  0  0  0
   46.4070   32.5910   44.7120 C   0  0  0  0  0  0  0  0  0  0  0  0
   47.1340   33.5860   44.1570 N   0  0  0  0  0  0  0  0  0  0  0  0
   43.9690   32.2980   42.4360 H   0  0  0  0  0  0  0  0  0  0  0  0
   45.2060   34.3160   41.0500 C   0  0  0  0  0  0  0  0  0  0  0  0
   44.9300   35.6500   41.2470 F   0  0  0  0  0  0  0  0  0  0  0  0
   46.2960   34.2460   40.1920 F   0  0  0  0  0  0  0  0  0  0  0  0
   44.1430   33.7420   40.4420 F   0  0  0  0  0  0  0  0  0  0  0  0
   47.4520   35.1270   42.4130 O   0  0  0  0  0  0  0  0  0  0  0  0
   48.7730   35.0440   41.9150 C   0  0  0  0  0  0  0  0  0  0  0  0
   49.6200   35.2900   43.0000 F   0  0  0  0  0  0  0  0  0  0  0  0
   48.9900   33.8250   41.3310 F   0  0  0  0  0  0  0  0  0  0  0  0
   49.0120   36.0910   41.0540 F   0  0  0  0  0  0  0  0  0  0  0  0
  1  2  1  0  0  0  0
  2  7  1  0  0  0  0
  3  2  2  0  0  0  0
  3  4  1  0  0  0  0
  4  5  2  0  0  0  0
  5  6  1  0  0  0  0
  5  9  1  0  0  0  0
  6 10  1  0  0  0  0
  7 11  1  0  0  0  0
  7  6  2  0  0  0  0
  8  4  1  0  0  0  0
 11 18  1  0  0  0  0
 12 14  1  0  0  0  0
 12 11  2  0  0  0  0
 13 12  1  0  0  0  0
 14 16  2  0  0  0  0
 15 14  1  0  0  0  0
 16 18  1  0  0  0  0
 16 17  1  0  0  0  0
 19 24  1  0  0  0  0
 20 21  1  0  0  0  0
 20 19  2  0  0  0  0
 21 22  2  0  0  0  0
 22 23  1  0  0  0  0
 23  3  1  0  0  0  0
 24 23  2  0  0  0  0
 25 21  1  0  0  0  0
 26 27  1  0  0  0  0
 26 20  1  0  0  0  0
 28 26  1  0  0  0  0
 29 26  1  0  0  0  0
 30 19  1  0  0  0  0
 31 30  1  0  0  0  0
 31 32  1  0  0  0  0
 33 31  1  0  0  0  0
 34 31  1  0  0  0  0
M  END
>  <minimizedAffinity>
-5.53211975

>  <minimizedRMSD>
0.547713518

$$$$
