
     RDKit          3D

 40 43  0  0  0  0  0  0  0  0999 V2000
   45.1294   33.9416   40.6972 C   0  0  0  0  0  0  0  0  0  0  0  0
   44.0781   33.6355   39.8761 C   0  0  0  0  0  0  0  0  0  0  0  0
   44.3819   33.1561   38.6366 C   0  0  0  0  0  0  0  0  0  0  0  0
   45.6612   32.9657   38.1722 C   0  0  0  0  0  0  0  0  0  0  0  0
   46.6964   33.2825   39.0208 C   0  0  0  0  0  0  0  0  0  0  0  0
   46.4440   33.7694   40.2808 C   0  0  0  0  0  0  0  0  0  0  0  0
   40.7961   35.2597   40.7944 C   0  0  0  0  0  0  0  0  0  0  0  0
   42.0954   35.0855   40.2781 C   0  0  0  0  0  0  0  0  0  0  0  0
   42.7478   33.8468   40.3940 C   0  0  0  0  0  0  0  0  0  0  0  0
   42.0351   32.8880   41.0209 N   0  0  0  0  0  0  0  0  0  0  0  0
   40.8038   33.0672   41.5056 C   0  0  0  0  0  0  0  0  0  0  0  0
   40.1863   34.2390   41.3961 N   0  0  0  0  0  0  0  0  0  0  0  0
   40.1960   36.5231   40.6474 N   0  0  0  0  0  0  0  0  0  0  0  0
   47.5980   34.0775   41.1095 C   0  0  0  0  0  0  0  0  0  0  0  0
   48.1408   35.3323   40.9402 C   0  0  0  0  0  0  0  0  0  0  0  0
   49.2460   35.7956   41.6491 C   0  0  0  0  0  0  0  0  0  0  0  0
   49.8224   34.9384   42.5723 C   0  0  0  0  0  0  0  0  0  0  0  0
   49.3012   33.6831   42.7602 C   0  0  0  0  0  0  0  0  0  0  0  0
   48.1991   33.2522   42.0376 C   0  0  0  0  0  0  0  0  0  0  0  0
   44.7227   34.8639   43.1125 N   0  0  0  0  0  0  0  0  0  0  0  0
   44.9035   34.4537   42.0234 C   0  0  0  0  0  0  0  0  0  0  0  0
   43.5476   32.9091   37.9745 H   0  0  0  0  0  0  0  0  0  0  0  0
   45.8341   32.5791   37.1710 H   0  0  0  0  0  0  0  0  0  0  0  0
   47.6912   33.1211   38.6246 H   0  0  0  0  0  0  0  0  0  0  0  0
   42.6271   35.8962   39.7793 H   0  0  0  0  0  0  0  0  0  0  0  0
   40.3397   32.2148   41.9881 H   0  0  0  0  0  0  0  0  0  0  0  0
   40.7358   37.3369   41.0574 H   0  0  0  0  0  0  0  0  0  0  0  0
   39.2720   36.5427   40.1467 H   0  0  0  0  0  0  0  0  0  0  0  0
   47.7416   36.0508   40.2381 H   0  0  0  0  0  0  0  0  0  0  0  0
   49.6616   36.7861   41.5045 H   0  0  0  0  0  0  0  0  0  0  0  0
   50.6799   35.2243   43.1593 H   0  0  0  0  0  0  0  0  0  0  0  0
   49.6723   32.9335   43.4541 H   0  0  0  0  0  0  0  0  0  0  0  0
   47.5965   31.9305   42.1896 C   0  0  0  0  0  0  0  0  0  0  0  0
   48.1889   31.1054   43.1488 C   0  0  0  0  0  0  0  0  0  0  0  0
   49.0295   31.2313   43.8333 H   0  0  0  0  0  0  0  0  0  0  0  0
   47.4905   29.8997   43.1547 C   0  0  0  0  0  0  0  0  0  0  0  0
   47.6008   28.9824   43.7318 H   0  0  0  0  0  0  0  0  0  0  0  0
   46.5075   30.0797   42.1835 C   0  0  0  0  0  0  0  0  0  0  0  0
   45.7218   29.4170   41.8283 H   0  0  0  0  0  0  0  0  0  0  0  0
   46.6032   31.2732   41.6460 O   0  0  0  0  0  0  0  0  0  0  0  0
  1 21  1  0
  2  9  1  0
  2  1  2  0
  3  2  1  0
  4  3  2  0
  4  5  1  0
  5  6  2  0
  6  1  1  0
  6 14  1  0
  7 12  2  0
  8  9  2  0
  8  7  1  0
  9 10  1  0
 10 11  2  0
 12 11  1  0
 13  7  1  0
 14 19  1  0
 15 14  2  0
 15 16  1  0
 16 17  2  0
 17 18  1  0
 19 18  2  0
 21 20  3  0
  3 22  1  0
  4 23  1  0
  5 24  1  0
  8 25  1  0
 11 26  1  0
 13 27  1  0
 13 28  1  0
 15 29  1  0
 16 30  1  0
 17 31  1  0
 18 32  1  0
 33 34  2  0
 34 35  1  0
 34 36  1  0
 36 37  1  0
 36 38  2  0
 38 39  1  0
 38 40  1  0
 40 33  1  0
 19 33  1  0
M  ISO  8  22  14  23  14  24  14  25  14  26  14  29  14  30  14  31  14
M  ISO  4  32  14  35  16  37  16  39  14
M  END
>  <DihAtoms>  (1) 
13,18,32,33

>  <DihDeg>  (1) 
-118.7523685014417

$$$$
