
 OpenBabel03252504143D

 34 36  0  0  0  0  0  0  0  0999 V2000
   47.6230   30.0310   44.9240 F   0  0  0  0  0  0  0  0  0  0  0  0
   47.5020   30.8000   46.0540 C   0  0  0  0  0  0  0  0  0  0  0  0
   46.9340   32.0480   45.9680 C   0  0  0  0  0  0  0  0  0  0  0  0
   46.8520   32.7590   47.1660 C   0  0  0  0  0  0  0  0  0  0  0  0
   47.3140   32.2360   48.3510 C   0  0  0  0  0  0  0  0  0  0  0  0
   47.8750   30.9690   48.3560 C   0  0  0  0  0  0  0  0  0  0  0  0
   47.9860   30.2130   47.2060 C   0  0  0  0  0  0  0  0  0  0  0  0
   46.4080   33.7560   47.1510 H   0  0  0  0  0  0  0  0  0  0  0  0
   47.2490   32.7860   49.2720 H   0  0  0  0  0  0  0  0  0  0  0  0
   48.2460   30.5360   49.2770 H   0  0  0  0  0  0  0  0  0  0  0  0
   48.5750   28.8780   47.2030 C   0  0  0  0  0  0  0  0  0  0  0  0
   49.9180   28.6390   46.9930 C   0  0  0  0  0  0  0  0  0  0  0  0
   50.6670   29.3750   46.8130 H   0  0  0  0  0  0  0  0  0  0  0  0
   50.0020   27.2490   47.0790 C   0  0  0  0  0  0  0  0  0  0  0  0
   50.9270   26.6820   46.9630 H   0  0  0  0  0  0  0  0  0  0  0  0
   48.7410   26.7330   47.3300 C   0  0  0  0  0  0  0  0  0  0  0  0
   48.4520   25.6980   47.4540 H   0  0  0  0  0  0  0  0  0  0  0  0
   47.9340   27.7730   47.3910 O   0  0  0  0  0  0  0  0  0  0  0  0
   46.7590   34.1320   42.9950 C   0  0  0  0  0  0  0  0  0  0  0  0
   45.6070   33.6990   42.3350 C   0  0  0  0  0  0  0  0  0  0  0  0
   44.8820   32.6590   42.9450 C   0  0  0  0  0  0  0  0  0  0  0  0
   45.3180   32.1320   44.1180 N   0  0  0  0  0  0  0  0  0  0  0  0
   46.4450   32.5970   44.7090 C   0  0  0  0  0  0  0  0  0  0  0  0
   47.1630   33.5960   44.1480 N   0  0  0  0  0  0  0  0  0  0  0  0
   43.9840   32.3010   42.4570 H   0  0  0  0  0  0  0  0  0  0  0  0
   45.2010   34.3250   41.0620 C   0  0  0  0  0  0  0  0  0  0  0  0
   44.9290   35.6580   41.2620 F   0  0  0  0  0  0  0  0  0  0  0  0
   46.2820   34.2550   40.1910 F   0  0  0  0  0  0  0  0  0  0  0  0
   44.1310   33.7520   40.4650 F   0  0  0  0  0  0  0  0  0  0  0  0
   47.4600   35.1400   42.4030 O   0  0  0  0  0  0  0  0  0  0  0  0
   48.7760   35.0610   41.8920 C   0  0  0  0  0  0  0  0  0  0  0  0
   49.6320   35.3280   42.9650 F   0  0  0  0  0  0  0  0  0  0  0  0
   48.9970   33.8360   41.3210 F   0  0  0  0  0  0  0  0  0  0  0  0
   48.9970   36.0980   41.0140 F   0  0  0  0  0  0  0  0  0  0  0  0
  1  2  1  0  0  0  0
  2  7  1  0  0  0  0
  3  2  2  0  0  0  0
  3  4  1  0  0  0  0
  4  5  2  0  0  0  0
  5  6  1  0  0  0  0
  5  9  1  0  0  0  0
  6 10  1  0  0  0  0
  7  6  2  0  0  0  0
  8  4  1  0  0  0  0
 11  7  1  0  0  0  0
 11 18  1  0  0  0  0
 12 14  1  0  0  0  0
 12 11  2  0  0  0  0
 13 12  1  0  0  0  0
 14 16  2  0  0  0  0
 15 14  1  0  0  0  0
 16 18  1  0  0  0  0
 16 17  1  0  0  0  0
 19 24  1  0  0  0  0
 20 21  1  0  0  0  0
 20 19  2  0  0  0  0
 21 22  2  0  0  0  0
 22 23  1  0  0  0  0
 23  3  1  0  0  0  0
 24 23  2  0  0  0  0
 25 21  1  0  0  0  0
 26 27  1  0  0  0  0
 26 20  1  0  0  0  0
 28 26  1  0  0  0  0
 29 26  1  0  0  0  0
 30 19  1  0  0  0  0
 31 30  1  0  0  0  0
 31 32  1  0  0  0  0
 33 31  1  0  0  0  0
 34 31  1  0  0  0  0
M  END
>  <minimizedAffinity>
-5.51818323

>  <minimizedRMSD>
0.409862846

$$$$
