
 OpenBabel03242513103D

 40 44  0  0  0  0  0  0  0  0999 V2000
   38.8020   27.7180   40.4220 C   0  0  0  0  0  0  0  0  0  0  0  0
   38.3550   27.2620   41.6710 C   0  0  0  0  0  0  0  0  0  0  0  0
   37.8670   28.2120   42.5510 C   0  0  0  0  0  0  0  0  0  0  0  0
   37.8580   29.5140   42.1390 N   0  0  0  0  0  0  0  0  0  0  0  0
   38.2890   29.9310   40.9430 C   0  0  0  0  0  0  0  0  0  0  0  0
   38.7630   29.0300   40.0800 N   0  0  0  0  0  0  0  0  0  0  0  0
   39.1990   27.0420   39.6740 H   0  0  0  0  0  0  0  0  0  0  0  0
   37.1890   31.8550   39.9080 C   0  0  0  0  0  0  0  0  0  0  0  0
   38.2340   31.3400   40.6110 C   0  0  0  0  0  0  0  0  0  0  0  0
   39.3130   32.1310   41.0570 C   0  0  0  0  0  0  0  0  0  0  0  0
   39.3420   33.4920   40.7840 C   0  0  0  0  0  0  0  0  0  0  0  0
   40.1670   34.5350   41.0320 N   0  0  0  0  0  0  0  0  0  0  0  0
   39.6040   35.6540   40.4730 C   0  0  0  0  0  0  0  0  0  0  0  0
   38.4540   35.2880   39.8970 N   0  0  0  0  0  0  0  0  0  0  0  0
   38.2570   33.9720   40.0650 C   0  0  0  0  0  0  0  0  0  0  0  0
   37.1920   33.2190   39.6200 C   0  0  0  0  0  0  0  0  0  0  0  0
   36.3720   31.2380   39.5750 H   0  0  0  0  0  0  0  0  0  0  0  0
   40.1560   31.7300   41.6220 H   0  0  0  0  0  0  0  0  0  0  0  0
   41.0620   34.3970   41.5700 H   0  0  0  0  0  0  0  0  0  0  0  0
   40.1660   36.5720   40.5970 H   0  0  0  0  0  0  0  0  0  0  0  0
   36.3810   33.6580   39.0660 H   0  0  0  0  0  0  0  0  0  0  0  0
   37.3810   27.7870   43.8870 C   0  0  0  0  0  0  0  0  0  0  0  0
   37.0350   28.9140   44.6650 F   0  0  0  0  0  0  0  0  0  0  0  0
   36.2290   27.0480   43.7640 F   0  0  0  0  0  0  0  0  0  0  0  0
   38.3680   27.0880   44.5000 F   0  0  0  0  0  0  0  0  0  0  0  0
   38.4150   25.9480   41.9620 O   0  0  0  0  0  0  0  0  0  0  0  0
   37.7620   25.0010   41.2360 C   0  0  0  0  0  0  0  0  0  0  0  0
   38.6390   23.9180   41.2040 C   0  0  0  0  0  0  0  0  0  0  0  0
   37.7520   22.6470   40.2160 S   0  0  0  0  0  0  0  0  0  0  0  0
   36.2950   23.8040   39.9940 C   0  0  0  0  0  0  0  0  0  0  0  0
   36.6900   24.6800   40.5670 N   0  0  0  0  0  0  0  0  0  0  0  0
   39.6800   23.3770   41.4870 H   0  0  0  0  0  0  0  0  0  0  0  0
   35.0290   23.5270   39.2490 C   0  0  0  0  0  0  0  0  0  0  0  0
   33.9830   22.6780   39.5120 C   0  0  0  0  0  0  0  0  0  0  0  0
   34.0820   22.1100   40.4030 H   0  0  0  0  0  0  0  0  0  0  0  0
   33.1170   22.8750   38.4570 C   0  0  0  0  0  0  0  0  0  0  0  0
   32.1880   22.2800   38.4640 H   0  0  0  0  0  0  0  0  0  0  0  0
   33.6730   23.8320   37.6030 C   0  0  0  0  0  0  0  0  0  0  0  0
   33.1320   24.1200   36.7120 H   0  0  0  0  0  0  0  0  0  0  0  0
   34.8180   24.1830   38.1350 O   0  0  0  0  0  0  0  0  0  0  0  0
  1  2  1  0  0  0  0
  2 26  1  0  0  0  0
  2  3  2  0  0  0  0
  3 22  1  0  0  0  0
  4  3  1  0  0  0  0
  5  4  2  0  0  0  0
  6  1  2  0  0  0  0
  6  5  1  0  0  0  0
  7  1  1  0  0  0  0
  8  9  1  0  0  0  0
  9  5  1  0  0  0  0
  9 10  2  0  0  0  0
 10 18  1  0  0  0  0
 11 12  1  0  0  0  0
 11 10  1  0  0  0  0
 12 19  1  0  0  0  0
 13 20  1  0  0  0  0
 13 12  1  0  0  0  0
 14 15  1  0  0  0  0
 14 13  2  0  0  0  0
 15 11  2  0  0  0  0
 16  8  2  0  0  0  0
 16 15  1  0  0  0  0
 17  8  1  0  0  0  0
 21 16  1  0  0  0  0
 22 25  1  0  0  0  0
 22 23  1  0  0  0  0
 24 22  1  0  0  0  0
 27 26  1  0  0  0  0
 28 27  2  0  0  0  0
 28 32  1  0  0  0  0
 29 28  1  0  0  0  0
 30 29  1  0  0  0  0
 30 31  2  0  0  0  0
 31 27  1  0  0  0  0
 33 34  2  0  0  0  0
 33 30  1  0  0  0  0
 34 35  1  0  0  0  0
 36 37  1  0  0  0  0
 36 34  1  0  0  0  0
 38 40  1  0  0  0  0
 38 36  2  0  0  0  0
 39 38  1  0  0  0  0
 40 33  1  0  0  0  0
M  END
>  <minimizedAffinity>
-7.15036869

$$$$

 OpenBabel03242513103D

 40 44  0  0  0  0  0  0  0  0999 V2000
   37.1400   28.0440   39.8720 C   0  0  0  0  0  0  0  0  0  0  0  0
   37.0660   27.5270   41.1740 C   0  0  0  0  0  0  0  0  0  0  0  0
   37.2630   28.4150   42.2170 C   0  0  0  0  0  0  0  0  0  0  0  0
   37.5130   29.7200   41.9020 N   0  0  0  0  0  0  0  0  0  0  0  0
   37.5800   30.1960   40.6530 C   0  0  0  0  0  0  0  0  0  0  0  0
   37.3930   29.3550   39.6330 N   0  0  0  0  0  0  0  0  0  0  0  0
   36.9980   27.4190   38.9990 H   0  0  0  0  0  0  0  0  0  0  0  0
   36.9770   32.3890   39.7530 C   0  0  0  0  0  0  0  0  0  0  0  0
   37.8530   31.6010   40.4340 C   0  0  0  0  0  0  0  0  0  0  0  0
   39.0640   32.0940   40.9630 C   0  0  0  0  0  0  0  0  0  0  0  0
   39.4070   33.4300   40.8010 C   0  0  0  0  0  0  0  0  0  0  0  0
   40.4330   34.2390   41.1480 N   0  0  0  0  0  0  0  0  0  0  0  0
   40.1560   35.4940   40.6690 C   0  0  0  0  0  0  0  0  0  0  0  0
   38.9750   35.4400   40.0430 N   0  0  0  0  0  0  0  0  0  0  0  0
   38.4830   34.1930   40.1010 C   0  0  0  0  0  0  0  0  0  0  0  0
   37.2950   33.7350   39.5760 C   0  0  0  0  0  0  0  0  0  0  0  0
   36.0560   31.9980   39.3560 H   0  0  0  0  0  0  0  0  0  0  0  0
   39.7750   31.4730   41.5110 H   0  0  0  0  0  0  0  0  0  0  0  0
   41.2540   33.8630   41.6910 H   0  0  0  0  0  0  0  0  0  0  0  0
   40.9030   36.2500   40.8780 H   0  0  0  0  0  0  0  0  0  0  0  0
   36.6230   34.3840   39.0420 H   0  0  0  0  0  0  0  0  0  0  0  0
   37.1970   27.9240   43.6150 C   0  0  0  0  0  0  0  0  0  0  0  0
   37.2240   29.0080   44.5190 F   0  0  0  0  0  0  0  0  0  0  0  0
   36.0050   27.2780   43.8410 F   0  0  0  0  0  0  0  0  0  0  0  0
   38.2610   27.1120   43.8350 F   0  0  0  0  0  0  0  0  0  0  0  0
   36.8120   26.2170   41.3580 O   0  0  0  0  0  0  0  0  0  0  0  0
   37.5740   25.2340   40.8070 C   0  0  0  0  0  0  0  0  0  0  0  0
   36.9780   24.0480   41.2340 C   0  0  0  0  0  0  0  0  0  0  0  0
   38.0170   22.7270   40.4920 S   0  0  0  0  0  0  0  0  0  0  0  0
   39.1240   24.0120   39.6980 C   0  0  0  0  0  0  0  0  0  0  0  0
   38.6050   24.9310   40.0690 N   0  0  0  0  0  0  0  0  0  0  0  0
   36.1330   23.4350   41.8390 H   0  0  0  0  0  0  0  0  0  0  0  0
   40.3230   23.7640   38.8400 C   0  0  0  0  0  0  0  0  0  0  0  0
   40.6340   22.7370   37.9840 C   0  0  0  0  0  0  0  0  0  0  0  0
   39.8980   21.9760   37.9120 H   0  0  0  0  0  0  0  0  0  0  0  0
   41.8750   23.0780   37.4870 C   0  0  0  0  0  0  0  0  0  0  0  0
   42.3270   22.3770   36.7650 H   0  0  0  0  0  0  0  0  0  0  0  0
   42.2610   24.2930   38.0610 C   0  0  0  0  0  0  0  0  0  0  0  0
   43.2140   24.7230   37.7890 H   0  0  0  0  0  0  0  0  0  0  0  0
   41.2860   24.6500   38.8610 O   0  0  0  0  0  0  0  0  0  0  0  0
  1  2  1  0  0  0  0
  2 26  1  0  0  0  0
  2  3  2  0  0  0  0
  3 22  1  0  0  0  0
  4  3  1  0  0  0  0
  5  4  2  0  0  0  0
  6  1  2  0  0  0  0
  6  5  1  0  0  0  0
  7  1  1  0  0  0  0
  8  9  1  0  0  0  0
  9  5  1  0  0  0  0
  9 10  2  0  0  0  0
 10 18  1  0  0  0  0
 11 10  1  0  0  0  0
 11 12  1  0  0  0  0
 12 19  1  0  0  0  0
 13 20  1  0  0  0  0
 13 12  1  0  0  0  0
 14 15  1  0  0  0  0
 14 13  2  0  0  0  0
 15 11  2  0  0  0  0
 16  8  2  0  0  0  0
 16 15  1  0  0  0  0
 17  8  1  0  0  0  0
 21 16  1  0  0  0  0
 22 25  1  0  0  0  0
 22 24  1  0  0  0  0
 22 23  1  0  0  0  0
 27 28  2  0  0  0  0
 27 26  1  0  0  0  0
 28 32  1  0  0  0  0
 29 28  1  0  0  0  0
 30 31  2  0  0  0  0
 30 29  1  0  0  0  0
 31 27  1  0  0  0  0
 33 40  1  0  0  0  0
 33 30  1  0  0  0  0
 34 33  2  0  0  0  0
 35 34  1  0  0  0  0
 36 34  1  0  0  0  0
 36 38  2  0  0  0  0
 37 36  1  0  0  0  0
 38 40  1  0  0  0  0
 39 38  1  0  0  0  0
M  END
>  <minimizedAffinity>
-6.89734268

$$$$

 OpenBabel03242513103D

 40 44  0  0  0  0  0  0  0  0999 V2000
   36.3560   28.3900   40.2760 C   0  0  0  0  0  0  0  0  0  0  0  0
   36.9780   28.7230   41.4900 C   0  0  0  0  0  0  0  0  0  0  0  0
   37.5350   27.6860   42.2170 C   0  0  0  0  0  0  0  0  0  0  0  0
   37.4400   26.4250   41.7020 N   0  0  0  0  0  0  0  0  0  0  0  0
   36.8430   26.1260   40.5410 C   0  0  0  0  0  0  0  0  0  0  0  0
   36.2990   27.1120   39.8260 N   0  0  0  0  0  0  0  0  0  0  0  0
   35.8950   29.1400   39.6450 H   0  0  0  0  0  0  0  0  0  0  0  0
   35.9660   24.3670   39.0870 C   0  0  0  0  0  0  0  0  0  0  0  0
   36.7990   24.7500   40.0910 C   0  0  0  0  0  0  0  0  0  0  0  0
   37.6620   23.8480   40.7480 C   0  0  0  0  0  0  0  0  0  0  0  0
   37.6860   22.5090   40.3800 C   0  0  0  0  0  0  0  0  0  0  0  0
   38.3450   21.3900   40.7560 N   0  0  0  0  0  0  0  0  0  0  0  0
   37.8960   20.3580   39.9730 C   0  0  0  0  0  0  0  0  0  0  0  0
   36.9770   20.8520   39.1350 N   0  0  0  0  0  0  0  0  0  0  0  0
   36.8190   22.1660   39.3520 C   0  0  0  0  0  0  0  0  0  0  0  0
   35.9690   23.0290   38.6960 C   0  0  0  0  0  0  0  0  0  0  0  0
   35.3130   25.0680   38.5940 H   0  0  0  0  0  0  0  0  0  0  0  0
   38.3350   24.1430   41.5540 H   0  0  0  0  0  0  0  0  0  0  0  0
   39.0600   21.4210   41.5300 H   0  0  0  0  0  0  0  0  0  0  0  0
   38.3440   19.3920   40.1690 H   0  0  0  0  0  0  0  0  0  0  0  0
   35.3210   22.6930   37.9050 H   0  0  0  0  0  0  0  0  0  0  0  0
   38.2050   27.9790   43.5080 C   0  0  0  0  0  0  0  0  0  0  0  0
   38.8600   26.8260   43.9950 F   0  0  0  0  0  0  0  0  0  0  0  0
   39.1880   28.9230   43.3350 F   0  0  0  0  0  0  0  0  0  0  0  0
   37.2630   28.3850   44.3960 F   0  0  0  0  0  0  0  0  0  0  0  0
   37.0070   30.0070   41.8930 O   0  0  0  0  0  0  0  0  0  0  0  0
   37.6150   30.9910   41.1780 C   0  0  0  0  0  0  0  0  0  0  0  0
   36.5960   31.5380   40.3980 C   0  0  0  0  0  0  0  0  0  0  0  0
   37.4270   32.8610   39.4300 S   0  0  0  0  0  0  0  0  0  0  0  0
   39.0650   32.4620   40.2480 C   0  0  0  0  0  0  0  0  0  0  0  0
   38.7210   31.6270   40.9090 N   0  0  0  0  0  0  0  0  0  0  0  0
   35.4490   31.5970   40.0280 H   0  0  0  0  0  0  0  0  0  0  0  0
   40.3800   33.1310   40.0080 C   0  0  0  0  0  0  0  0  0  0  0  0
   41.6690   32.6850   40.1540 C   0  0  0  0  0  0  0  0  0  0  0  0
   41.7610   31.6860   40.5000 H   0  0  0  0  0  0  0  0  0  0  0  0
   42.4430   33.7630   39.7750 C   0  0  0  0  0  0  0  0  0  0  0  0
   43.5360   33.6240   39.8160 H   0  0  0  0  0  0  0  0  0  0  0  0
   41.5910   34.8120   39.4160 C   0  0  0  0  0  0  0  0  0  0  0  0
   42.0190   35.7480   39.0880 H   0  0  0  0  0  0  0  0  0  0  0  0
   40.3680   34.3670   39.5770 O   0  0  0  0  0  0  0  0  0  0  0  0
  1  2  1  0  0  0  0
  2 26  1  0  0  0  0
  2  3  2  0  0  0  0
  3 22  1  0  0  0  0
  4  3  1  0  0  0  0
  5  4  2  0  0  0  0
  6  1  2  0  0  0  0
  6  5  1  0  0  0  0
  7  1  1  0  0  0  0
  8  9  1  0  0  0  0
  9  5  1  0  0  0  0
  9 10  2  0  0  0  0
 10 18  1  0  0  0  0
 11 10  1  0  0  0  0
 11 12  1  0  0  0  0
 12 19  1  0  0  0  0
 13 20  1  0  0  0  0
 13 12  1  0  0  0  0
 14 15  1  0  0  0  0
 14 13  2  0  0  0  0
 15 11  2  0  0  0  0
 16  8  2  0  0  0  0
 16 15  1  0  0  0  0
 17  8  1  0  0  0  0
 21 16  1  0  0  0  0
 22 23  1  0  0  0  0
 22 25  1  0  0  0  0
 24 22  1  0  0  0  0
 27 26  1  0  0  0  0
 28 27  2  0  0  0  0
 29 30  1  0  0  0  0
 29 28  1  0  0  0  0
 30 31  2  0  0  0  0
 31 27  1  0  0  0  0
 32 28  1  0  0  0  0
 33 34  2  0  0  0  0
 33 30  1  0  0  0  0
 34 35  1  0  0  0  0
 36 37  1  0  0  0  0
 36 34  1  0  0  0  0
 38 40  1  0  0  0  0
 38 36  2  0  0  0  0
 39 38  1  0  0  0  0
 40 33  1  0  0  0  0
M  END
>  <minimizedAffinity>
-6.73483276

$$$$

 OpenBabel03242513103D

 40 44  0  0  0  0  0  0  0  0999 V2000
   39.1030   27.8090   40.5720 C   0  0  0  0  0  0  0  0  0  0  0  0
   38.5650   27.3420   41.7810 C   0  0  0  0  0  0  0  0  0  0  0  0
   37.9550   28.2740   42.6020 C   0  0  0  0  0  0  0  0  0  0  0  0
   37.9210   29.5710   42.1750 N   0  0  0  0  0  0  0  0  0  0  0  0
   38.4390   29.9990   41.0180 C   0  0  0  0  0  0  0  0  0  0  0  0
   39.0330   29.1160   40.2130 N   0  0  0  0  0  0  0  0  0  0  0  0
   39.5980   27.1480   39.8720 H   0  0  0  0  0  0  0  0  0  0  0  0
   37.2800   31.8820   39.9740 C   0  0  0  0  0  0  0  0  0  0  0  0
   38.3480   31.4010   40.6660 C   0  0  0  0  0  0  0  0  0  0  0  0
   39.4180   32.2220   41.0790 C   0  0  0  0  0  0  0  0  0  0  0  0
   39.4130   33.5790   40.7850 C   0  0  0  0  0  0  0  0  0  0  0  0
   40.2190   34.6430   41.0010 N   0  0  0  0  0  0  0  0  0  0  0  0
   39.6220   35.7410   40.4360 C   0  0  0  0  0  0  0  0  0  0  0  0
   38.4700   35.3410   39.8870 N   0  0  0  0  0  0  0  0  0  0  0  0
   38.3040   34.0240   40.0790 C   0  0  0  0  0  0  0  0  0  0  0  0
   37.2480   33.2420   39.6650 C   0  0  0  0  0  0  0  0  0  0  0  0
   36.4700   31.2430   39.6660 H   0  0  0  0  0  0  0  0  0  0  0  0
   40.2790   31.8480   41.6340 H   0  0  0  0  0  0  0  0  0  0  0  0
   41.1270   34.5320   41.5250 H   0  0  0  0  0  0  0  0  0  0  0  0
   40.1660   36.6720   40.5350 H   0  0  0  0  0  0  0  0  0  0  0  0
   36.4170   33.6540   39.1190 H   0  0  0  0  0  0  0  0  0  0  0  0
   37.3680   27.8360   43.8920 C   0  0  0  0  0  0  0  0  0  0  0  0
   38.3170   27.1060   44.6410 F   0  0  0  0  0  0  0  0  0  0  0  0
   37.0410   28.9250   44.6630 F   0  0  0  0  0  0  0  0  0  0  0  0
   36.2890   27.0580   43.6300 F   0  0  0  0  0  0  0  0  0  0  0  0
   38.6610   26.0350   42.0920 O   0  0  0  0  0  0  0  0  0  0  0  0
   38.4270   25.0440   41.1910 C   0  0  0  0  0  0  0  0  0  0  0  0
   37.0560   24.8050   41.2800 C   0  0  0  0  0  0  0  0  0  0  0  0
   36.7510   23.4600   40.0650 S   0  0  0  0  0  0  0  0  0  0  0  0
   38.5680   23.4260   39.6120 C   0  0  0  0  0  0  0  0  0  0  0  0
   38.9260   24.2320   40.3000 N   0  0  0  0  0  0  0  0  0  0  0  0
   35.9620   25.0220   41.7400 H   0  0  0  0  0  0  0  0  0  0  0  0
   39.2320   22.5380   38.6080 C   0  0  0  0  0  0  0  0  0  0  0  0
   40.4620   22.6050   38.0050 C   0  0  0  0  0  0  0  0  0  0  0  0
   41.0580   23.4340   38.2940 H   0  0  0  0  0  0  0  0  0  0  0  0
   40.4920   21.5000   37.1790 C   0  0  0  0  0  0  0  0  0  0  0  0
   41.4100   21.3530   36.5840 H   0  0  0  0  0  0  0  0  0  0  0  0
   39.2830   20.8130   37.3190 C   0  0  0  0  0  0  0  0  0  0  0  0
   39.1210   19.9120   36.7450 H   0  0  0  0  0  0  0  0  0  0  0  0
   38.5730   21.4870   38.1910 O   0  0  0  0  0  0  0  0  0  0  0  0
  1  2  1  0  0  0  0
  2 26  1  0  0  0  0
  2  3  2  0  0  0  0
  3 22  1  0  0  0  0
  4  3  1  0  0  0  0
  5  4  2  0  0  0  0
  6  1  2  0  0  0  0
  6  5  1  0  0  0  0
  7  1  1  0  0  0  0
  8  9  1  0  0  0  0
  9  5  1  0  0  0  0
  9 10  2  0  0  0  0
 10 18  1  0  0  0  0
 11 12  1  0  0  0  0
 11 10  1  0  0  0  0
 12 19  1  0  0  0  0
 13 20  1  0  0  0  0
 13 12  1  0  0  0  0
 14 15  1  0  0  0  0
 14 13  2  0  0  0  0
 15 11  2  0  0  0  0
 16  8  2  0  0  0  0
 16 15  1  0  0  0  0
 17  8  1  0  0  0  0
 21 16  1  0  0  0  0
 22 23  1  0  0  0  0
 22 24  1  0  0  0  0
 25 22  1  0  0  0  0
 27 28  2  0  0  0  0
 27 26  1  0  0  0  0
 28 32  1  0  0  0  0
 29 28  1  0  0  0  0
 30 29  1  0  0  0  0
 30 31  2  0  0  0  0
 31 27  1  0  0  0  0
 33 30  1  0  0  0  0
 34 35  1  0  0  0  0
 34 33  2  0  0  0  0
 36 38  2  0  0  0  0
 36 34  1  0  0  0  0
 37 36  1  0  0  0  0
 38 40  1  0  0  0  0
 39 38  1  0  0  0  0
 40 33  1  0  0  0  0
M  END
>  <minimizedAffinity>
-6.64147663

$$$$

 OpenBabel03242513103D

 40 44  0  0  0  0  0  0  0  0999 V2000
   40.0020   26.5090   41.6850 C   0  0  0  0  0  0  0  0  0  0  0  0
   39.2470   27.2980   42.5660 C   0  0  0  0  0  0  0  0  0  0  0  0
   37.9270   26.9350   42.7650 C   0  0  0  0  0  0  0  0  0  0  0  0
   37.4610   25.8400   42.0930 N   0  0  0  0  0  0  0  0  0  0  0  0
   38.1960   25.0980   41.2560 C   0  0  0  0  0  0  0  0  0  0  0  0
   39.4710   25.4330   41.0510 N   0  0  0  0  0  0  0  0  0  0  0  0
   41.0420   26.7230   41.4720 H   0  0  0  0  0  0  0  0  0  0  0  0
   38.3320   22.8490   40.3050 C   0  0  0  0  0  0  0  0  0  0  0  0
   37.5980   23.9570   40.5950 C   0  0  0  0  0  0  0  0  0  0  0  0
   36.2280   24.0650   40.2770 C   0  0  0  0  0  0  0  0  0  0  0  0
   35.5720   23.0180   39.6420 C   0  0  0  0  0  0  0  0  0  0  0  0
   34.3230   22.7570   39.1940 N   0  0  0  0  0  0  0  0  0  0  0  0
   34.3310   21.5010   38.6450 C   0  0  0  0  0  0  0  0  0  0  0  0
   35.5700   21.0120   38.7620 N   0  0  0  0  0  0  0  0  0  0  0  0
   36.3610   21.9100   39.3670 C   0  0  0  0  0  0  0  0  0  0  0  0
   37.6990   21.7820   39.6690 C   0  0  0  0  0  0  0  0  0  0  0  0
   39.3770   22.7810   40.5550 H   0  0  0  0  0  0  0  0  0  0  0  0
   35.6280   24.9470   40.5040 H   0  0  0  0  0  0  0  0  0  0  0  0
   33.5540   23.4690   39.3010 H   0  0  0  0  0  0  0  0  0  0  0  0
   33.3850   21.1600   38.2420 H   0  0  0  0  0  0  0  0  0  0  0  0
   38.2520   20.8910   39.4260 H   0  0  0  0  0  0  0  0  0  0  0  0
   37.0810   27.7340   43.6850 C   0  0  0  0  0  0  0  0  0  0  0  0
   35.8240   27.1140   43.8600 F   0  0  0  0  0  0  0  0  0  0  0  0
   37.6500   27.7860   44.9350 F   0  0  0  0  0  0  0  0  0  0  0  0
   36.9170   28.9690   43.1510 F   0  0  0  0  0  0  0  0  0  0  0  0
   39.8210   28.3560   43.1700 O   0  0  0  0  0  0  0  0  0  0  0  0
   39.9640   29.5640   42.5620 C   0  0  0  0  0  0  0  0  0  0  0  0
   41.3290   29.8400   42.6480 C   0  0  0  0  0  0  0  0  0  0  0  0
   41.5130   31.4760   41.8320 S   0  0  0  0  0  0  0  0  0  0  0  0
   39.6710   31.5370   41.4910 C   0  0  0  0  0  0  0  0  0  0  0  0
   39.3850   30.5590   41.9500 N   0  0  0  0  0  0  0  0  0  0  0  0
   42.4550   29.5630   42.9800 H   0  0  0  0  0  0  0  0  0  0  0  0
   38.9180   32.6280   40.7990 C   0  0  0  0  0  0  0  0  0  0  0  0
   37.7000   32.6350   40.1670 C   0  0  0  0  0  0  0  0  0  0  0  0
   37.1930   31.7020   40.1620 H   0  0  0  0  0  0  0  0  0  0  0  0
   37.5540   33.9360   39.7320 C   0  0  0  0  0  0  0  0  0  0  0  0
   36.6250   34.1730   39.1850 H   0  0  0  0  0  0  0  0  0  0  0  0
   38.6870   34.6590   40.1180 C   0  0  0  0  0  0  0  0  0  0  0  0
   38.7540   35.7070   39.8630 H   0  0  0  0  0  0  0  0  0  0  0  0
   39.4640   33.8170   40.7540 O   0  0  0  0  0  0  0  0  0  0  0  0
  1  2  1  0  0  0  0
  2  3  2  0  0  0  0
  2 26  1  0  0  0  0
  3 22  1  0  0  0  0
  4  3  1  0  0  0  0
  5  4  2  0  0  0  0
  6  5  1  0  0  0  0
  6  1  2  0  0  0  0
  7  1  1  0  0  0  0
  8 17  1  0  0  0  0
  8  9  1  0  0  0  0
  9  5  1  0  0  0  0
 10 18  1  0  0  0  0
 10  9  2  0  0  0  0
 11 10  1  0  0  0  0
 12 19  1  0  0  0  0
 12 11  1  0  0  0  0
 13 14  2  0  0  0  0
 13 12  1  0  0  0  0
 14 15  1  0  0  0  0
 15 11  2  0  0  0  0
 15 16  1  0  0  0  0
 16  8  2  0  0  0  0
 20 13  1  0  0  0  0
 21 16  1  0  0  0  0
 22 23  1  0  0  0  0
 22 24  1  0  0  0  0
 25 22  1  0  0  0  0
 27 28  2  0  0  0  0
 27 26  1  0  0  0  0
 28 32  1  0  0  0  0
 29 28  1  0  0  0  0
 30 29  1  0  0  0  0
 30 31  2  0  0  0  0
 31 27  1  0  0  0  0
 33 30  1  0  0  0  0
 34 33  2  0  0  0  0
 35 34  1  0  0  0  0
 36 38  2  0  0  0  0
 36 34  1  0  0  0  0
 37 36  1  0  0  0  0
 38 40  1  0  0  0  0
 39 38  1  0  0  0  0
 40 33  1  0  0  0  0
M  END
>  <minimizedAffinity>
-6.52204609

$$$$

 OpenBabel03242513103D

 40 44  0  0  0  0  0  0  0  0999 V2000
   39.0520   27.3380   40.0570 C   0  0  0  0  0  0  0  0  0  0  0  0
   38.5340   27.0110   41.3190 C   0  0  0  0  0  0  0  0  0  0  0  0
   38.3440   28.0510   42.2120 C   0  0  0  0  0  0  0  0  0  0  0  0
   38.6730   29.3110   41.7980 N   0  0  0  0  0  0  0  0  0  0  0  0
   39.1660   29.6050   40.5890 C   0  0  0  0  0  0  0  0  0  0  0  0
   39.3570   28.6150   39.7150 N   0  0  0  0  0  0  0  0  0  0  0  0
   39.2320   26.5850   39.2990 H   0  0  0  0  0  0  0  0  0  0  0  0
   40.3170   31.2770   39.2260 C   0  0  0  0  0  0  0  0  0  0  0  0
   39.4820   30.9780   40.2570 C   0  0  0  0  0  0  0  0  0  0  0  0
   38.8790   31.9710   41.0580 C   0  0  0  0  0  0  0  0  0  0  0  0
   39.1260   33.3150   40.8110 C   0  0  0  0  0  0  0  0  0  0  0  0
   38.7510   34.5040   41.3350 N   0  0  0  0  0  0  0  0  0  0  0  0
   39.3670   35.4920   40.6100 C   0  0  0  0  0  0  0  0  0  0  0  0
   40.1020   34.9030   39.6610 N   0  0  0  0  0  0  0  0  0  0  0  0
   39.9820   33.5700   39.7500 C   0  0  0  0  0  0  0  0  0  0  0  0
   40.5820   32.6190   38.9540 C   0  0  0  0  0  0  0  0  0  0  0  0
   40.7690   30.5080   38.6230 H   0  0  0  0  0  0  0  0  0  0  0  0
   38.2080   31.7450   41.8880 H   0  0  0  0  0  0  0  0  0  0  0  0
   38.0950   34.5460   42.1590 H   0  0  0  0  0  0  0  0  0  0  0  0
   39.1530   36.5060   40.9260 H   0  0  0  0  0  0  0  0  0  0  0  0
   41.2380   32.8890   38.1450 H   0  0  0  0  0  0  0  0  0  0  0  0
   37.7980   27.7650   43.5610 C   0  0  0  0  0  0  0  0  0  0  0  0
   36.6060   27.0150   43.4600 F   0  0  0  0  0  0  0  0  0  0  0  0
   38.6730   26.9820   44.2750 F   0  0  0  0  0  0  0  0  0  0  0  0
   37.5510   28.9450   44.1820 F   0  0  0  0  0  0  0  0  0  0  0  0
   38.2470   25.7280   41.6100 O   0  0  0  0  0  0  0  0  0  0  0  0
   37.5300   24.9250   40.7790 C   0  0  0  0  0  0  0  0  0  0  0  0
   38.1860   23.6950   40.8280 C   0  0  0  0  0  0  0  0  0  0  0  0
   37.2150   22.6200   39.6970 S   0  0  0  0  0  0  0  0  0  0  0  0
   36.0430   24.0330   39.3220 C   0  0  0  0  0  0  0  0  0  0  0  0
   36.5160   24.8150   39.9670 N   0  0  0  0  0  0  0  0  0  0  0  0
   39.0600   22.9660   41.2270 H   0  0  0  0  0  0  0  0  0  0  0  0
   34.8580   24.0050   38.4120 C   0  0  0  0  0  0  0  0  0  0  0  0
   33.9150   23.0370   38.1740 C   0  0  0  0  0  0  0  0  0  0  0  0
   34.0410   22.1420   38.7300 H   0  0  0  0  0  0  0  0  0  0  0  0
   33.0810   23.6040   37.2320 C   0  0  0  0  0  0  0  0  0  0  0  0
   32.2340   22.9870   36.8870 H   0  0  0  0  0  0  0  0  0  0  0  0
   33.5530   24.8880   36.9420 C   0  0  0  0  0  0  0  0  0  0  0  0
   33.0230   25.4920   36.2200 H   0  0  0  0  0  0  0  0  0  0  0  0
   34.6190   25.0660   37.6840 O   0  0  0  0  0  0  0  0  0  0  0  0
  1  2  1  0  0  0  0
  2 26  1  0  0  0  0
  2  3  2  0  0  0  0
  3 22  1  0  0  0  0
  4  3  1  0  0  0  0
  5  4  2  0  0  0  0
  6  1  2  0  0  0  0
  6  5  1  0  0  0  0
  7  1  1  0  0  0  0
  8  9  1  0  0  0  0
  9  5  1  0  0  0  0
  9 10  2  0  0  0  0
 10 18  1  0  0  0  0
 11 10  1  0  0  0  0
 11 12  1  0  0  0  0
 12 19  1  0  0  0  0
 13 20  1  0  0  0  0
 13 12  1  0  0  0  0
 14 15  1  0  0  0  0
 14 13  2  0  0  0  0
 15 11  2  0  0  0  0
 16  8  2  0  0  0  0
 16 15  1  0  0  0  0
 17  8  1  0  0  0  0
 21 16  1  0  0  0  0
 22 25  1  0  0  0  0
 22 24  1  0  0  0  0
 23 22  1  0  0  0  0
 27 28  2  0  0  0  0
 27 26  1  0  0  0  0
 28 32  1  0  0  0  0
 29 28  1  0  0  0  0
 30 29  1  0  0  0  0
 30 31  2  0  0  0  0
 31 27  1  0  0  0  0
 33 30  1  0  0  0  0
 34 33  2  0  0  0  0
 34 35  1  0  0  0  0
 36 34  1  0  0  0  0
 37 36  1  0  0  0  0
 38 36  2  0  0  0  0
 38 40  1  0  0  0  0
 39 38  1  0  0  0  0
 40 33  1  0  0  0  0
M  END
>  <minimizedAffinity>
-6.43938589

$$$$

 OpenBabel03242513103D

 40 44  0  0  0  0  0  0  0  0999 V2000
   37.5220   27.6460   39.9720 C   0  0  0  0  0  0  0  0  0  0  0  0
   37.2720   27.2970   41.3080 C   0  0  0  0  0  0  0  0  0  0  0  0
   37.5840   28.2380   42.2740 C   0  0  0  0  0  0  0  0  0  0  0  0
   38.1080   29.4280   41.8560 N   0  0  0  0  0  0  0  0  0  0  0  0
   38.3410   29.7430   40.5760 C   0  0  0  0  0  0  0  0  0  0  0  0
   38.0470   28.8490   39.6300 N   0  0  0  0  0  0  0  0  0  0  0  0
   37.3080   26.9690   39.1540 H   0  0  0  0  0  0  0  0  0  0  0  0
   39.8050   31.1730   39.2380 C   0  0  0  0  0  0  0  0  0  0  0  0
   38.9020   31.0370   40.2460 C   0  0  0  0  0  0  0  0  0  0  0  0
   38.4620   32.1280   41.0250 C   0  0  0  0  0  0  0  0  0  0  0  0
   38.9480   33.4050   40.7780 C   0  0  0  0  0  0  0  0  0  0  0  0
   38.7740   34.6470   41.2850 N   0  0  0  0  0  0  0  0  0  0  0  0
   39.5740   35.5040   40.5730 C   0  0  0  0  0  0  0  0  0  0  0  0
   40.2200   34.7850   39.6480 N   0  0  0  0  0  0  0  0  0  0  0  0
   39.8650   33.4950   39.7400 C   0  0  0  0  0  0  0  0  0  0  0  0
   40.3090   32.4450   38.9670 C   0  0  0  0  0  0  0  0  0  0  0  0
   40.1310   30.3310   38.6520 H   0  0  0  0  0  0  0  0  0  0  0  0
   37.7390   32.0310   41.8360 H   0  0  0  0  0  0  0  0  0  0  0  0
   38.1140   34.8110   42.0890 H   0  0  0  0  0  0  0  0  0  0  0  0
   39.5330   36.5420   40.8770 H   0  0  0  0  0  0  0  0  0  0  0  0
   41.0250   32.5870   38.1750 H   0  0  0  0  0  0  0  0  0  0  0  0
   37.3410   27.9240   43.7030 C   0  0  0  0  0  0  0  0  0  0  0  0
   38.3170   27.0220   44.1810 F   0  0  0  0  0  0  0  0  0  0  0  0
   37.4690   29.0560   44.4710 F   0  0  0  0  0  0  0  0  0  0  0  0
   36.1070   27.3720   43.8160 F   0  0  0  0  0  0  0  0  0  0  0  0
   36.7500   26.0890   41.5950 O   0  0  0  0  0  0  0  0  0  0  0  0
   36.9760   24.9880   40.8300 C   0  0  0  0  0  0  0  0  0  0  0  0
   38.1090   24.3980   41.3900 C   0  0  0  0  0  0  0  0  0  0  0  0
   38.4110   22.9160   40.3460 S   0  0  0  0  0  0  0  0  0  0  0  0
   36.9220   23.3310   39.2870 C   0  0  0  0  0  0  0  0  0  0  0  0
   36.5980   24.2630   39.8140 N   0  0  0  0  0  0  0  0  0  0  0  0
   38.9970   24.3530   42.2050 H   0  0  0  0  0  0  0  0  0  0  0  0
   36.4110   22.5650   38.1090 C   0  0  0  0  0  0  0  0  0  0  0  0
   35.4200   21.6230   37.9940 C   0  0  0  0  0  0  0  0  0  0  0  0
   34.9200   21.3870   38.9000 H   0  0  0  0  0  0  0  0  0  0  0  0
   35.4240   21.2920   36.6550 C   0  0  0  0  0  0  0  0  0  0  0  0
   34.6900   20.5350   36.3310 H   0  0  0  0  0  0  0  0  0  0  0  0
   36.4140   22.0470   36.0180 C   0  0  0  0  0  0  0  0  0  0  0  0
   36.5670   21.9230   34.9550 H   0  0  0  0  0  0  0  0  0  0  0  0
   36.9670   22.7900   36.9450 O   0  0  0  0  0  0  0  0  0  0  0  0
  1  2  1  0  0  0  0
  2 26  1  0  0  0  0
  2  3  2  0  0  0  0
  3 22  1  0  0  0  0
  4  3  1  0  0  0  0
  5  4  2  0  0  0  0
  6  1  2  0  0  0  0
  6  5  1  0  0  0  0
  7  1  1  0  0  0  0
  8  9  1  0  0  0  0
  9  5  1  0  0  0  0
  9 10  2  0  0  0  0
 10 18  1  0  0  0  0
 11 10  1  0  0  0  0
 11 12  1  0  0  0  0
 12 19  1  0  0  0  0
 13 20  1  0  0  0  0
 13 12  1  0  0  0  0
 14 15  1  0  0  0  0
 14 13  2  0  0  0  0
 15 11  2  0  0  0  0
 16  8  2  0  0  0  0
 16 15  1  0  0  0  0
 17  8  1  0  0  0  0
 21 16  1  0  0  0  0
 22 25  1  0  0  0  0
 22 23  1  0  0  0  0
 22 24  1  0  0  0  0
 27 28  2  0  0  0  0
 27 26  1  0  0  0  0
 28 32  1  0  0  0  0
 29 28  1  0  0  0  0
 30 31  2  0  0  0  0
 30 29  1  0  0  0  0
 31 27  1  0  0  0  0
 33 30  1  0  0  0  0
 34 33  2  0  0  0  0
 34 35  1  0  0  0  0
 36 34  1  0  0  0  0
 37 36  1  0  0  0  0
 38 36  2  0  0  0  0
 38 40  1  0  0  0  0
 39 38  1  0  0  0  0
 40 33  1  0  0  0  0
M  END
>  <minimizedAffinity>
-6.36368561

$$$$

 OpenBabel03242513103D

 40 44  0  0  0  0  0  0  0  0999 V2000
   36.6160   27.9640   40.1130 C   0  0  0  0  0  0  0  0  0  0  0  0
   37.1820   28.4090   41.3170 C   0  0  0  0  0  0  0  0  0  0  0  0
   37.7220   27.4470   42.1530 C   0  0  0  0  0  0  0  0  0  0  0  0
   37.6640   26.1450   41.7440 N   0  0  0  0  0  0  0  0  0  0  0  0
   37.1190   25.7390   40.5910 C   0  0  0  0  0  0  0  0  0  0  0  0
   36.5930   26.6510   39.7720 N   0  0  0  0  0  0  0  0  0  0  0  0
   36.1720   28.6500   39.4010 H   0  0  0  0  0  0  0  0  0  0  0  0
   38.1550   23.5240   40.5910 C   0  0  0  0  0  0  0  0  0  0  0  0
   37.1110   24.3290   40.2590 C   0  0  0  0  0  0  0  0  0  0  0  0
   35.9700   23.8520   39.5800 C   0  0  0  0  0  0  0  0  0  0  0  0
   35.8770   22.5130   39.2230 C   0  0  0  0  0  0  0  0  0  0  0  0
   34.9850   21.7150   38.5930 N   0  0  0  0  0  0  0  0  0  0  0  0
   35.5100   20.4490   38.5590 C   0  0  0  0  0  0  0  0  0  0  0  0
   36.7030   20.4850   39.1630 N   0  0  0  0  0  0  0  0  0  0  0  0
   36.9650   21.7320   39.5830 C   0  0  0  0  0  0  0  0  0  0  0  0
   38.0890   22.1740   40.2460 C   0  0  0  0  0  0  0  0  0  0  0  0
   39.0190   23.9020   41.1100 H   0  0  0  0  0  0  0  0  0  0  0  0
   35.1260   24.4870   39.3080 H   0  0  0  0  0  0  0  0  0  0  0  0
   34.0760   22.1060   38.2310 H   0  0  0  0  0  0  0  0  0  0  0  0
   34.8930   19.7000   38.0780 H   0  0  0  0  0  0  0  0  0  0  0  0
   38.8990   21.5110   40.4950 H   0  0  0  0  0  0  0  0  0  0  0  0
   38.3340   27.8590   43.4400 C   0  0  0  0  0  0  0  0  0  0  0  0
   39.3140   28.8520   43.2220 F   0  0  0  0  0  0  0  0  0  0  0  0
   37.3910   28.4360   44.2560 F   0  0  0  0  0  0  0  0  0  0  0  0
   38.9010   26.7680   44.0130 F   0  0  0  0  0  0  0  0  0  0  0  0
   37.1800   29.7230   41.6090 O   0  0  0  0  0  0  0  0  0  0  0  0
   37.6790   30.6670   40.7670 C   0  0  0  0  0  0  0  0  0  0  0  0
   36.6510   31.6020   40.6390 C   0  0  0  0  0  0  0  0  0  0  0  0
   37.3300   32.8680   39.4950 S   0  0  0  0  0  0  0  0  0  0  0  0
   38.9390   31.9180   39.3620 C   0  0  0  0  0  0  0  0  0  0  0  0
   38.6840   31.0640   40.0380 N   0  0  0  0  0  0  0  0  0  0  0  0
   35.5450   32.0130   40.8900 H   0  0  0  0  0  0  0  0  0  0  0  0
   40.1430   32.2890   38.5560 C   0  0  0  0  0  0  0  0  0  0  0  0
   40.8240   31.6170   37.5720 C   0  0  0  0  0  0  0  0  0  0  0  0
   40.4350   30.6590   37.3330 H   0  0  0  0  0  0  0  0  0  0  0  0
   41.8410   32.4800   37.2190 C   0  0  0  0  0  0  0  0  0  0  0  0
   42.5270   32.1350   36.4270 H   0  0  0  0  0  0  0  0  0  0  0  0
   41.7320   33.6340   38.0000 C   0  0  0  0  0  0  0  0  0  0  0  0
   42.4480   34.4310   37.8640 H   0  0  0  0  0  0  0  0  0  0  0  0
   40.6930   33.4560   38.7800 O   0  0  0  0  0  0  0  0  0  0  0  0
  1  2  1  0  0  0  0
  2 26  1  0  0  0  0
  2  3  2  0  0  0  0
  3 22  1  0  0  0  0
  4  3  1  0  0  0  0
  5  4  2  0  0  0  0
  6  1  2  0  0  0  0
  6  5  1  0  0  0  0
  7  1  1  0  0  0  0
  8 17  1  0  0  0  0
  9  8  1  0  0  0  0
  9  5  1  0  0  0  0
 10  9  2  0  0  0  0
 11 10  1  0  0  0  0
 11 15  2  0  0  0  0
 12 11  1  0  0  0  0
 13 12  1  0  0  0  0
 13 14  2  0  0  0  0
 14 15  1  0  0  0  0
 15 16  1  0  0  0  0
 16 21  1  0  0  0  0
 16  8  2  0  0  0  0
 18 10  1  0  0  0  0
 19 12  1  0  0  0  0
 20 13  1  0  0  0  0
 22 25  1  0  0  0  0
 22 24  1  0  0  0  0
 23 22  1  0  0  0  0
 27 26  1  0  0  0  0
 28 27  2  0  0  0  0
 28 32  1  0  0  0  0
 29 28  1  0  0  0  0
 30 29  1  0  0  0  0
 30 31  2  0  0  0  0
 31 27  1  0  0  0  0
 33 40  1  0  0  0  0
 33 30  1  0  0  0  0
 34 33  2  0  0  0  0
 35 34  1  0  0  0  0
 36 34  1  0  0  0  0
 36 38  2  0  0  0  0
 37 36  1  0  0  0  0
 38 40  1  0  0  0  0
 39 38  1  0  0  0  0
M  END
>  <minimizedAffinity>
-6.2657361

$$$$

 OpenBabel03242513103D

 40 44  0  0  0  0  0  0  0  0999 V2000
   38.0040   30.1300   40.7760 C   0  0  0  0  0  0  0  0  0  0  0  0
   38.0360   29.5050   42.0310 C   0  0  0  0  0  0  0  0  0  0  0  0
   37.2000   28.4180   42.2160 C   0  0  0  0  0  0  0  0  0  0  0  0
   36.4120   28.0380   41.1670 N   0  0  0  0  0  0  0  0  0  0  0  0
   36.3940   28.6470   39.9750 C   0  0  0  0  0  0  0  0  0  0  0  0
   37.1930   29.6970   39.7780 N   0  0  0  0  0  0  0  0  0  0  0  0
   38.6260   30.9870   40.5470 H   0  0  0  0  0  0  0  0  0  0  0  0
   35.7840   26.9980   38.2760 C   0  0  0  0  0  0  0  0  0  0  0  0
   35.5150   28.1590   38.9330 C   0  0  0  0  0  0  0  0  0  0  0  0
   34.3830   28.9490   38.6480 C   0  0  0  0  0  0  0  0  0  0  0  0
   33.4850   28.5560   37.6630 C   0  0  0  0  0  0  0  0  0  0  0  0
   32.3360   29.0250   37.1250 N   0  0  0  0  0  0  0  0  0  0  0  0
   31.9370   28.1390   36.1570 C   0  0  0  0  0  0  0  0  0  0  0  0
   32.8360   27.1500   36.1140 N   0  0  0  0  0  0  0  0  0  0  0  0
   33.8000   27.3670   37.0210 C   0  0  0  0  0  0  0  0  0  0  0  0
   34.8990   26.5790   37.2820 C   0  0  0  0  0  0  0  0  0  0  0  0
   36.6520   26.4050   38.5050 H   0  0  0  0  0  0  0  0  0  0  0  0
   34.1560   29.8810   39.1670 H   0  0  0  0  0  0  0  0  0  0  0  0
   31.9110   29.9260   37.4680 H   0  0  0  0  0  0  0  0  0  0  0  0
   31.0210   28.3950   35.6390 H   0  0  0  0  0  0  0  0  0  0  0  0
   35.0830   25.6660   36.7430 H   0  0  0  0  0  0  0  0  0  0  0  0
   37.1920   27.7170   43.5230 C   0  0  0  0  0  0  0  0  0  0  0  0
   38.4460   27.1170   43.7680 F   0  0  0  0  0  0  0  0  0  0  0  0
   37.0000   28.6150   44.5460 F   0  0  0  0  0  0  0  0  0  0  0  0
   36.2230   26.7680   43.4940 F   0  0  0  0  0  0  0  0  0  0  0  0
   38.8590   29.9740   42.9890 O   0  0  0  0  0  0  0  0  0  0  0  0
   40.1320   30.3780   42.7340 C   0  0  0  0  0  0  0  0  0  0  0  0
   40.8710   29.1970   42.6760 C   0  0  0  0  0  0  0  0  0  0  0  0
   42.5890   29.7530   42.3390 S   0  0  0  0  0  0  0  0  0  0  0  0
   42.0320   31.5420   42.3270 C   0  0  0  0  0  0  0  0  0  0  0  0
   40.9440   31.3770   42.5300 N   0  0  0  0  0  0  0  0  0  0  0  0
   40.9690   27.9950   42.7310 H   0  0  0  0  0  0  0  0  0  0  0  0
   42.8830   32.7500   42.1030 C   0  0  0  0  0  0  0  0  0  0  0  0
   42.7970   33.7670   41.1860 C   0  0  0  0  0  0  0  0  0  0  0  0
   41.9840   33.6910   40.5080 H   0  0  0  0  0  0  0  0  0  0  0  0
   43.8690   34.5830   41.4870 C   0  0  0  0  0  0  0  0  0  0  0  0
   43.9960   35.4820   40.8600 H   0  0  0  0  0  0  0  0  0  0  0  0
   44.5550   34.0260   42.5700 C   0  0  0  0  0  0  0  0  0  0  0  0
   45.4310   34.5300   42.9520 H   0  0  0  0  0  0  0  0  0  0  0  0
   43.9120   32.9300   42.8920 O   0  0  0  0  0  0  0  0  0  0  0  0
  1  2  1  0  0  0  0
  2  3  2  0  0  0  0
  2 26  1  0  0  0  0
  3 22  1  0  0  0  0
  4  3  1  0  0  0  0
  5  4  2  0  0  0  0
  6  5  1  0  0  0  0
  6  1  2  0  0  0  0
  7  1  1  0  0  0  0
  8 17  1  0  0  0  0
  8  9  1  0  0  0  0
  9  5  1  0  0  0  0
 10  9  2  0  0  0  0
 10 18  1  0  0  0  0
 11 10  1  0  0  0  0
 12 19  1  0  0  0  0
 12 11  1  0  0  0  0
 13 12  1  0  0  0  0
 14 13  2  0  0  0  0
 14 15  1  0  0  0  0
 15 16  1  0  0  0  0
 15 11  2  0  0  0  0
 16  8  2  0  0  0  0
 20 13  1  0  0  0  0
 21 16  1  0  0  0  0
 22 23  1  0  0  0  0
 22 24  1  0  0  0  0
 25 22  1  0  0  0  0
 27 26  1  0  0  0  0
 28 32  1  0  0  0  0
 28 27  2  0  0  0  0
 29 28  1  0  0  0  0
 30 29  1  0  0  0  0
 30 31  2  0  0  0  0
 31 27  1  0  0  0  0
 33 30  1  0  0  0  0
 33 40  1  0  0  0  0
 34 36  1  0  0  0  0
 34 33  2  0  0  0  0
 35 34  1  0  0  0  0
 36 38  2  0  0  0  0
 37 36  1  0  0  0  0
 38 40  1  0  0  0  0
 38 39  1  0  0  0  0
M  END
>  <minimizedAffinity>
-6.22614861

$$$$
