
 OpenBabel03242515263D

 30 32  0  0  0  0  0  0  0  0999 V2000
   44.4610   35.6440   44.1250 C   0  0  0  0  0  0  0  0  0  0  0  0
   44.4950   34.9580   42.9020 C   0  0  0  0  0  0  0  0  0  0  0  0
   44.9390   33.6580   42.9190 C   0  0  0  0  0  0  0  0  0  0  0  0
   45.3110   33.1240   44.1000 N   0  0  0  0  0  0  0  0  0  0  0  0
   45.2670   33.8070   45.2620 C   0  0  0  0  0  0  0  0  0  0  0  0
   44.8430   35.0800   45.3020 N   0  0  0  0  0  0  0  0  0  0  0  0
   44.1180   36.6830   44.1830 H   0  0  0  0  0  0  0  0  0  0  0  0
   44.9620   33.1450   41.9820 H   0  0  0  0  0  0  0  0  0  0  0  0
   45.6710   33.2220   46.5360 C   0  0  0  0  0  0  0  0  0  0  0  0
   46.9490   32.7130   46.6360 C   0  0  0  0  0  0  0  0  0  0  0  0
   47.7840   32.6460   45.9270 H   0  0  0  0  0  0  0  0  0  0  0  0
   47.0930   32.2160   47.9320 C   0  0  0  0  0  0  0  0  0  0  0  0
   47.9470   31.7420   48.3940 H   0  0  0  0  0  0  0  0  0  0  0  0
   45.8670   32.4610   48.5440 C   0  0  0  0  0  0  0  0  0  0  0  0
   45.6600   32.1880   49.5700 H   0  0  0  0  0  0  0  0  0  0  0  0
   45.0520   33.0600   47.6790 O   0  0  0  0  0  0  0  0  0  0  0  0
   44.0480   35.7200   41.7320 C   0  0  0  0  0  0  0  0  0  0  0  0
   44.0130   36.7880   41.9270 H   0  0  0  0  0  0  0  0  0  0  0  0
   44.8320   35.5880   40.9320 H   0  0  0  0  0  0  0  0  0  0  0  0
   42.7890   35.1690   41.2630 N   0  0  0  0  0  0  0  0  0  0  0  0
   41.6490   35.4910   41.8800 C   0  0  0  0  0  0  0  0  0  0  0  0
   40.4670   34.9390   41.3960 C   0  0  0  0  0  0  0  0  0  0  0  0
   40.4780   34.0910   40.3180 C   0  0  0  0  0  0  0  0  0  0  0  0
   39.3850   33.6130   39.9120 O   0  0  0  0  0  0  0  0  0  0  0  0
   41.6510   33.7890   39.7210 N   0  0  0  0  0  0  0  0  0  0  0  0
   42.8060   34.3270   40.1900 C   0  0  0  0  0  0  0  0  0  0  0  0
   43.8710   34.0040   39.5870 O   0  0  0  0  0  0  0  0  0  0  0  0
   41.6140   36.1630   42.7390 H   0  0  0  0  0  0  0  0  0  0  0  0
   39.5160   35.1700   41.8620 H   0  0  0  0  0  0  0  0  0  0  0  0
   41.6210   33.1360   38.8970 H   0  0  0  0  0  0  0  0  0  0  0  0
  1  7  1  0  0  0  0
  1  6  1  0  0  0  0
  2  3  1  0  0  0  0
  2  1  2  0  0  0  0
  3  4  2  0  0  0  0
  4  5  1  0  0  0  0
  5  6  2  0  0  0  0
  5  9  1  0  0  0  0
  8  3  1  0  0  0  0
  9 10  2  0  0  0  0
  9 16  1  0  0  0  0
 10 12  1  0  0  0  0
 11 10  1  0  0  0  0
 12 13  1  0  0  0  0
 12 14  2  0  0  0  0
 14 15  1  0  0  0  0
 16 14  1  0  0  0  0
 17 18  1  0  0  0  0
 17  2  1  0  0  0  0
 19 17  1  0  0  0  0
 20 17  1  0  0  0  0
 20 21  1  0  0  0  0
 21 28  1  0  0  0  0
 22 29  1  0  0  0  0
 22 21  2  0  0  0  0
 23 22  1  0  0  0  0
 24 23  2  0  0  0  0
 25 26  1  0  0  0  0
 25 23  1  0  0  0  0
 26 20  1  0  0  0  0
 27 26  2  0  0  0  0
 30 25  1  0  0  0  0
M  END
>  <minimizedAffinity>
-5.49202442

>  <minimizedRMSD>
0.932534695

$$$$
