REMARK  Name = 
REMARK  4 active torsions:
REMARK  status: ('A' for Active; 'I' for Inactive)
REMARK    1  A    between atoms: C_1  and  C_21
REMARK    2  A    between atoms: C_2  and  C_9
REMARK    3  A    between atoms: C_6  and  C_14
REMARK    4  A    between atoms: C_19  and  C_33
REMARK                            x       y       z     vdW  Elec       q    Type
REMARK                         _______ _______ _______ _____ _____    ______ ____
ROOT
ATOM      1  C   UNL     1      45.129  33.942  40.697  0.00  0.00    +0.000 A 
ATOM      2  C   UNL     1      44.078  33.636  39.876  0.00  0.00    +0.000 A 
ATOM      3  C   UNL     1      44.382  33.156  38.637  0.00  0.00    +0.000 A 
ATOM      4  C   UNL     1      45.661  32.966  38.172  0.00  0.00    +0.000 A 
ATOM      5  C   UNL     1      46.696  33.282  39.021  0.00  0.00    +0.000 A 
ATOM      6  C   UNL     1      46.444  33.769  40.281  0.00  0.00    +0.000 A 
ATOM      7  H   UNL     1      43.548  32.909  37.974  0.00  0.00    +0.000 HD
ATOM      8  H   UNL     1      45.834  32.579  37.171  0.00  0.00    +0.000 HD
ATOM      9  H   UNL     1      47.691  33.121  38.625  0.00  0.00    +0.000 HD
ENDROOT
BRANCH   2  12
ATOM     10  C   UNL     1      40.796  35.260  40.794  0.00  0.00    +0.000 A 
ATOM     11  C   UNL     1      42.095  35.086  40.278  0.00  0.00    +0.000 A 
ATOM     12  C   UNL     1      42.748  33.847  40.394  0.00  0.00    +0.000 A 
ATOM     13  N   UNL     1      42.035  32.888  41.021  0.00  0.00    +0.000 NA
ATOM     14  C   UNL     1      40.804  33.067  41.506  0.00  0.00    +0.000 A 
ATOM     15  N   UNL     1      40.186  34.239  41.396  0.00  0.00    +0.000 NA
ATOM     16  N   UNL     1      40.196  36.523  40.647  0.00  0.00    +0.000 N 
ATOM     17  H   UNL     1      42.627  35.896  39.779  0.00  0.00    +0.000 HD
ATOM     18  H   UNL     1      40.340  32.215  41.988  0.00  0.00    +0.000 HD
ATOM     19  H   UNL     1      40.736  37.337  41.057  0.00  0.00    +0.000 HD
ATOM     20  H   UNL     1      39.272  36.543  40.147  0.00  0.00    +0.000 HD
ENDBRANCH   2  12
BRANCH   6  21
ATOM     21  C   UNL     1      47.598  34.078  41.109  0.00  0.00    +0.000 A 
ATOM     22  C   UNL     1      48.141  35.332  40.940  0.00  0.00    +0.000 A 
ATOM     23  C   UNL     1      49.246  35.796  41.649  0.00  0.00    +0.000 A 
ATOM     24  C   UNL     1      49.822  34.938  42.572  0.00  0.00    +0.000 A 
ATOM     25  C   UNL     1      49.301  33.683  42.760  0.00  0.00    +0.000 A 
ATOM     26  C   UNL     1      48.199  33.252  42.038  0.00  0.00    +0.000 A 
ATOM     27  H   UNL     1      47.742  36.051  40.238  0.00  0.00    +0.000 HD
ATOM     28  H   UNL     1      49.662  36.786  41.505  0.00  0.00    +0.000 HD
ATOM     29  H   UNL     1      50.680  35.224  43.159  0.00  0.00    +0.000 HD
ATOM     30  H   UNL     1      49.672  32.934  43.454  0.00  0.00    +0.000 HD
BRANCH  26  31
ATOM     31  C   UNL     1      47.596  31.930  42.190  0.00  0.00    +0.000 A 
ATOM     32  C   UNL     1      46.810  31.755  43.331  0.00  0.00    +0.000 A 
ATOM     33  H   UNL     1      46.536  32.406  44.163  0.00  0.00    +0.000 HD
ATOM     34  C   UNL     1      46.324  30.450  43.309  0.00  0.00    +0.000 A 
ATOM     35  H   UNL     1      45.681  29.887  43.986  0.00  0.00    +0.000 HD
ATOM     36  C   UNL     1      46.857  29.915  42.138  0.00  0.00    +0.000 A 
ATOM     37  H   UNL     1      46.759  28.928  41.691  0.00  0.00    +0.000 HD
ATOM     38  O   UNL     1      47.591  30.808  41.516  0.00  0.00    +0.000 OA
ENDBRANCH  26  31
ENDBRANCH   6  21
BRANCH   1  40
ATOM     39  N   UNL     1      44.723  34.864  43.112  0.00  0.00    +0.000 NA
ATOM     40  C   UNL     1      44.904  34.454  42.023  0.00  0.00    +0.000 C 
ENDBRANCH   1  40
TORSDOF 4
