
 OpenBabel03252508543D

 42 45  0  0  1  0  0  0  0  0999 V2000
   43.2260   34.3480   40.6450 C   0  0  0  0  0  0  0  0  0  0  0  0
   43.1860   35.5030   40.1340 O   0  0  0  0  0  0  0  0  0  0  0  0
   41.8510   33.9470   40.4560 N   0  0  0  0  0  0  0  0  0  0  0  0
   41.3940   33.9000   39.0850 C   0  0  0  0  0  0  0  0  0  0  0  0
   40.6180   35.2160   38.8810 C   0  0  0  0  0  0  0  0  0  0  0  0
   39.9000   35.4870   40.1940 C   0  0  0  0  0  0  0  0  0  0  0  0
   39.5480   34.1880   40.9250 C   0  0  0  0  0  0  0  0  0  0  0  0
   40.8370   33.5780   41.4440 C   0  0  1  0  0  0  0  0  0  0  0  0
   40.7090   33.0320   38.9460 H   0  0  0  0  0  0  0  0  0  0  0  0
   42.2060   33.8810   38.3550 H   0  0  0  0  0  0  0  0  0  0  0  0
   41.3500   36.0280   38.6780 H   0  0  0  0  0  0  0  0  0  0  0  0
   39.8650   35.0940   38.0830 H   0  0  0  0  0  0  0  0  0  0  0  0
   39.0180   36.1140   40.0550 H   0  0  0  0  0  0  0  0  0  0  0  0
   40.5840   36.0540   40.8850 H   0  0  0  0  0  0  0  0  0  0  0  0
   39.0880   33.4890   40.2300 H   0  0  0  0  0  0  0  0  0  0  0  0
   38.9070   34.5110   41.7710 H   0  0  0  0  0  0  0  0  0  0  0  0
   41.1020   34.1540   42.3610 H   0  0  0  0  0  0  0  0  0  0  0  0
   40.7680   32.1350   41.6580 C   0  0  0  0  0  0  0  0  0  0  0  0
   39.7270   31.2680   41.3670 C   0  0  0  0  0  0  0  0  0  0  0  0
   38.7810   31.5270   40.9240 H   0  0  0  0  0  0  0  0  0  0  0  0
   40.1790   30.0260   41.7660 C   0  0  0  0  0  0  0  0  0  0  0  0
   39.6510   29.0820   41.7030 H   0  0  0  0  0  0  0  0  0  0  0  0
   41.4670   30.2230   42.2750 C   0  0  0  0  0  0  0  0  0  0  0  0
   42.1020   29.4350   42.6740 H   0  0  0  0  0  0  0  0  0  0  0  0
   41.8020   31.5070   42.1990 O   0  0  0  0  0  0  0  0  0  0  0  0
   44.2960   33.6970   41.2070 O   0  0  0  0  0  0  0  0  0  0  0  0
   45.6260   34.0030   41.0090 C   0  0  0  0  0  0  0  0  0  0  0  0
   46.3110   34.6400   42.0550 C   0  0  0  0  0  0  0  0  0  0  0  0
   47.6680   34.9350   41.8140 C   0  0  0  0  0  0  0  0  0  0  0  0
   48.2190   34.5890   40.6060 N   0  0  0  0  0  0  0  0  0  0  0  0
   47.5130   33.9890   39.6620 C   0  0  0  0  0  0  0  0  0  0  0  0
   46.2140   33.6860   39.8420 N   0  0  0  0  0  0  0  0  0  0  0  0
   48.2260   35.4240   42.5940 H   0  0  0  0  0  0  0  0  0  0  0  0
   47.9310   33.7090   38.6990 H   0  0  0  0  0  0  0  0  0  0  0  0
   45.6290   34.9550   43.2860 C   0  0  0  0  0  0  0  0  0  0  0  0
   45.0160   36.1870   43.5020 C   0  0  0  0  0  0  0  0  0  0  0  0
   44.4970   36.0650   44.7760 C   0  0  0  0  0  0  0  0  0  0  0  0
   44.7790   34.8470   45.2890 N   0  0  0  0  0  0  0  0  0  0  0  0
   45.4630   34.1910   44.3710 N   0  0  0  0  0  0  0  0  0  0  0  0
   44.9470   37.0440   42.8510 H   0  0  0  0  0  0  0  0  0  0  0  0
   43.9300   36.8370   45.3210 H   0  0  0  0  0  0  0  0  0  0  0  0
   44.5420   34.4190   46.2180 H   0  0  0  0  0  0  0  0  0  0  0  0
  1 26  1  0  0  0  0
  2  1  2  0  0  0  0
  3  1  1  0  0  0  0
  3  8  1  0  0  0  0
  4  3  1  0  0  0  0
  5  4  1  0  0  0  0
  5  6  1  0  0  0  0
  6 14  1  0  0  0  0
  6  7  1  0  0  0  0
  7  8  1  0  0  0  0
  7 16  1  0  0  0  0
  8 18  1  0  0  0  0
  8 17  1  1  0  0  0
  9  4  1  0  0  0  0
 10  4  1  0  0  0  0
 11  5  1  0  0  0  0
 12  5  1  0  0  0  0
 13  6  1  0  0  0  0
 15  7  1  0  0  0  0
 18 25  1  0  0  0  0
 19 18  2  0  0  0  0
 19 21  1  0  0  0  0
 20 19  1  0  0  0  0
 21 23  2  0  0  0  0
 22 21  1  0  0  0  0
 23 24  1  0  0  0  0
 25 23  1  0  0  0  0
 27 26  1  0  0  0  0
 27 28  1  0  0  0  0
 28 35  1  0  0  0  0
 29 28  2  0  0  0  0
 29 33  1  0  0  0  0
 30 29  1  0  0  0  0
 31 32  1  0  0  0  0
 31 30  2  0  0  0  0
 32 27  2  0  0  0  0
 34 31  1  0  0  0  0
 35 36  1  0  0  0  0
 35 39  2  0  0  0  0
 36 37  2  0  0  0  0
 37 38  1  0  0  0  0
 37 41  1  0  0  0  0
 38 42  1  0  0  0  0
 39 38  1  0  0  0  0
 40 36  1  0  0  0  0
M  END
>  <minimizedAffinity>
-6.53425217

>  <minimizedRMSD>
0.514114261

$$$$
