
 OpenBabel03252501073D

 39 42  0  0  1  0  0  0  0  0999 V2000
   48.9300   32.5060   38.4240 O   0  0  0  0  0  0  0  0  0  0  0  0
   48.1060   33.7910   38.5150 P   0  0  2  0  0  0  0  0  0  0  0  0
   48.9850   34.9440   37.6330 O   0  0  0  0  0  0  0  0  0  0  0  0
   49.4760   34.5480   36.8880 H   0  0  0  0  0  0  0  0  0  0  0  0
   47.7740   34.2160   40.0570 O   0  0  0  0  0  0  0  0  0  0  0  0
   48.2190   35.5550   42.0210 C   0  0  1  0  0  0  0  0  0  0  0  0
   49.4380   34.7530   41.8470 C   0  0  0  0  0  0  0  0  0  0  0  0
   48.5440   35.1450   40.6570 C   0  0  1  0  0  0  0  0  0  0  0  0
   48.3490   36.6070   42.3570 H   0  0  0  0  0  0  0  0  0  0  0  0
   49.4390   33.6460   41.9980 H   0  0  0  0  0  0  0  0  0  0  0  0
   50.4430   35.1780   41.9370 H   0  0  0  0  0  0  0  0  0  0  0  0
   49.1050   35.8160   39.9790 H   0  0  0  0  0  0  0  0  0  0  0  0
   46.2620   33.0390   44.0700 C   0  0  0  0  0  0  0  0  0  0  0  0
   47.3360   33.6990   43.4810 C   0  0  0  0  0  0  0  0  0  0  0  0
   47.0800   34.8300   42.6810 C   0  0  0  0  0  0  0  0  0  0  0  0
   45.7960   35.2440   42.5100 N   0  0  0  0  0  0  0  0  0  0  0  0
   44.7660   34.5830   43.0950 C   0  0  0  0  0  0  0  0  0  0  0  0
   45.0000   33.4820   43.8740 N   0  0  0  0  0  0  0  0  0  0  0  0
   46.4620   32.1750   44.6800 H   0  0  0  0  0  0  0  0  0  0  0  0
   48.3320   33.3430   43.6390 H   0  0  0  0  0  0  0  0  0  0  0  0
   43.7640   34.9690   42.9140 H   0  0  0  0  0  0  0  0  0  0  0  0
   46.7000   33.4670   37.6570 O   0  0  0  0  0  0  0  0  0  0  0  0
   45.6050   32.7990   38.1870 C   0  0  0  0  0  0  0  0  0  0  0  0
   45.5300   31.5090   38.6640 C   0  0  0  0  0  0  0  0  0  0  0  0
   44.3780   30.9890   39.1560 C   0  0  0  0  0  0  0  0  0  0  0  0
   43.2420   31.7530   39.1890 C   0  0  0  0  0  0  0  0  0  0  0  0
   43.3330   33.0540   38.7030 C   0  0  0  0  0  0  0  0  0  0  0  0
   44.4990   33.5580   38.2130 N   0  0  0  0  0  0  0  0  0  0  0  0
   46.4710   30.9680   38.6040 H   0  0  0  0  0  0  0  0  0  0  0  0
   44.3830   29.9630   39.5180 H   0  0  0  0  0  0  0  0  0  0  0  0
   42.3010   31.3810   39.5720 H   0  0  0  0  0  0  0  0  0  0  0  0
   42.1350   33.9230   38.7150 C   0  0  0  0  0  0  0  0  0  0  0  0
   40.9120   33.5890   38.2040 C   0  0  0  0  0  0  0  0  0  0  0  0
   40.6280   32.6700   37.7250 H   0  0  0  0  0  0  0  0  0  0  0  0
   40.0780   34.6660   38.4150 C   0  0  0  0  0  0  0  0  0  0  0  0
   39.0360   34.7030   38.1170 H   0  0  0  0  0  0  0  0  0  0  0  0
   40.8490   35.6180   39.0550 C   0  0  0  0  0  0  0  0  0  0  0  0
   40.3920   36.5610   39.3220 H   0  0  0  0  0  0  0  0  0  0  0  0
   42.0400   35.1460   39.2110 O   0  0  0  0  0  0  0  0  0  0  0  0
  2  1  2  1  0  0  0
  2  5  1  0  0  0  0
  3  2  1  0  0  0  0
  4  3  1  0  0  0  0
  5  8  1  0  0  0  0
  6  9  1  1  0  0  0
  6 15  1  0  0  0  0
  7 11  1  0  0  0  0
  7 10  1  0  0  0  0
  7  6  1  0  0  0  0
  8 12  1  6  0  0  0
  8  7  1  0  0  0  0
  8  6  1  0  0  0  0
 13 19  1  0  0  0  0
 14 20  1  0  0  0  0
 14 13  2  0  0  0  0
 15 14  1  0  0  0  0
 16 15  2  0  0  0  0
 16 17  1  0  0  0  0
 17 18  2  0  0  0  0
 18 13  1  0  0  0  0
 21 17  1  0  0  0  0
 22 23  1  0  0  0  0
 22  2  1  0  0  0  0
 23 28  2  0  0  0  0
 23 24  1  0  0  0  0
 24 25  2  0  0  0  0
 25 26  1  0  0  0  0
 25 30  1  0  0  0  0
 26 31  1  0  0  0  0
 27 32  1  0  0  0  0
 27 26  2  0  0  0  0
 28 27  1  0  0  0  0
 29 24  1  0  0  0  0
 32 39  1  0  0  0  0
 33 35  1  0  0  0  0
 33 32  2  0  0  0  0
 34 33  1  0  0  0  0
 35 37  2  0  0  0  0
 36 35  1  0  0  0  0
 37 39  1  0  0  0  0
 37 38  1  0  0  0  0
M  END
>  <minimizedAffinity>
-5.3241024

>  <minimizedRMSD>
1.88275492

$$$$
