
 OpenBabel03252504163D

 34 36  0  0  0  0  0  0  0  0999 V2000
   32.8470   29.2780   39.0680 F   0  0  0  0  0  0  0  0  0  0  0  0
   33.5820   29.0280   37.9370 C   0  0  0  0  0  0  0  0  0  0  0  0
   34.9050   28.6760   38.0520 C   0  0  0  0  0  0  0  0  0  0  0  0
   35.5750   28.4400   36.8510 C   0  0  0  0  0  0  0  0  0  0  0  0
   34.9430   28.5550   35.6360 C   0  0  0  0  0  0  0  0  0  0  0  0
   33.6060   28.9130   35.6020 C   0  0  0  0  0  0  0  0  0  0  0  0
   32.8850   29.1610   36.7540 C   0  0  0  0  0  0  0  0  0  0  0  0
   36.6290   28.1580   36.8890 H   0  0  0  0  0  0  0  0  0  0  0  0
   35.4620   28.3720   34.7120 H   0  0  0  0  0  0  0  0  0  0  0  0
   33.0860   29.0100   34.6570 H   0  0  0  0  0  0  0  0  0  0  0  0
   31.4750   29.5400   36.7270 C   0  0  0  0  0  0  0  0  0  0  0  0
   31.0400   30.8480   36.6800 C   0  0  0  0  0  0  0  0  0  0  0  0
   31.6570   31.7160   36.6580 H   0  0  0  0  0  0  0  0  0  0  0  0
   29.6520   30.7110   36.6700 C   0  0  0  0  0  0  0  0  0  0  0  0
   28.9520   31.5470   36.6360 H   0  0  0  0  0  0  0  0  0  0  0  0
   29.3270   29.3640   36.7110 C   0  0  0  0  0  0  0  0  0  0  0  0
   28.3460   28.9090   36.7150 H   0  0  0  0  0  0  0  0  0  0  0  0
   30.4780   28.7200   36.7430 O   0  0  0  0  0  0  0  0  0  0  0  0
   36.8260   27.2300   40.7800 C   0  0  0  0  0  0  0  0  0  0  0  0
   36.8550   28.2320   41.7520 C   0  0  0  0  0  0  0  0  0  0  0  0
   36.1890   29.4320   41.4440 C   0  0  0  0  0  0  0  0  0  0  0  0
   35.5630   29.5670   40.2470 N   0  0  0  0  0  0  0  0  0  0  0  0
   35.5710   28.5560   39.3450 C   0  0  0  0  0  0  0  0  0  0  0  0
   36.2010   27.3900   39.6110 N   0  0  0  0  0  0  0  0  0  0  0  0
   36.1950   30.2280   42.1780 H   0  0  0  0  0  0  0  0  0  0  0  0
   37.5590   28.0060   43.0290 C   0  0  0  0  0  0  0  0  0  0  0  0
   37.8200   29.2100   43.6400 F   0  0  0  0  0  0  0  0  0  0  0  0
   36.7040   27.2990   43.8660 F   0  0  0  0  0  0  0  0  0  0  0  0
   38.7190   27.3180   42.9200 F   0  0  0  0  0  0  0  0  0  0  0  0
   37.4700   26.0680   41.0800 O   0  0  0  0  0  0  0  0  0  0  0  0
   36.8720   24.8020   41.2770 C   0  0  0  0  0  0  0  0  0  0  0  0
   36.2040   24.8680   42.5040 F   0  0  0  0  0  0  0  0  0  0  0  0
   36.0430   24.4940   40.2320 F   0  0  0  0  0  0  0  0  0  0  0  0
   37.8480   23.8510   41.4740 F   0  0  0  0  0  0  0  0  0  0  0  0
  2  3  1  0  0  0  0
  2  1  1  0  0  0  0
  3 23  1  0  0  0  0
  4  8  1  0  0  0  0
  4  3  2  0  0  0  0
  5  4  1  0  0  0  0
  6  5  2  0  0  0  0
  6  7  1  0  0  0  0
  7  2  2  0  0  0  0
  9  5  1  0  0  0  0
 10  6  1  0  0  0  0
 11 18  1  0  0  0  0
 11  7  1  0  0  0  0
 12 11  2  0  0  0  0
 13 12  1  0  0  0  0
 14 12  1  0  0  0  0
 14 16  2  0  0  0  0
 15 14  1  0  0  0  0
 16 17  1  0  0  0  0
 16 18  1  0  0  0  0
 19 30  1  0  0  0  0
 19 20  1  0  0  0  0
 20 26  1  0  0  0  0
 21 20  2  0  0  0  0
 21 25  1  0  0  0  0
 22 21  1  0  0  0  0
 23 24  1  0  0  0  0
 23 22  2  0  0  0  0
 24 19  2  0  0  0  0
 26 27  1  0  0  0  0
 26 28  1  0  0  0  0
 29 26  1  0  0  0  0
 30 31  1  0  0  0  0
 31 34  1  0  0  0  0
 31 32  1  0  0  0  0
 33 31  1  0  0  0  0
M  END
>  <minimizedAffinity>
-6.13140631

$$$$

 OpenBabel03252504163D

 34 36  0  0  0  0  0  0  0  0999 V2000
   37.2380   29.8900   36.7540 F   0  0  0  0  0  0  0  0  0  0  0  0
   35.9270   29.5060   36.8840 C   0  0  0  0  0  0  0  0  0  0  0  0
   35.4290   29.2030   38.1280 C   0  0  0  0  0  0  0  0  0  0  0  0
   34.0870   28.8220   38.1670 C   0  0  0  0  0  0  0  0  0  0  0  0
   33.3200   28.7580   37.0270 C   0  0  0  0  0  0  0  0  0  0  0  0
   33.8940   29.0790   35.8090 C   0  0  0  0  0  0  0  0  0  0  0  0
   35.2170   29.4630   35.7010 C   0  0  0  0  0  0  0  0  0  0  0  0
   33.6440   28.5710   39.1330 H   0  0  0  0  0  0  0  0  0  0  0  0
   32.2860   28.4650   37.0610 H   0  0  0  0  0  0  0  0  0  0  0  0
   33.3110   29.0360   34.8970 H   0  0  0  0  0  0  0  0  0  0  0  0
   35.8300   29.8040   34.4210 C   0  0  0  0  0  0  0  0  0  0  0  0
   35.9850   31.0990   33.9730 C   0  0  0  0  0  0  0  0  0  0  0  0
   35.6880   31.9830   34.4880 H   0  0  0  0  0  0  0  0  0  0  0  0
   36.6020   30.9260   32.7340 C   0  0  0  0  0  0  0  0  0  0  0  0
   36.8880   31.7420   32.0690 H   0  0  0  0  0  0  0  0  0  0  0  0
   36.7830   29.5710   32.5020 C   0  0  0  0  0  0  0  0  0  0  0  0
   37.2300   29.0900   31.6410 H   0  0  0  0  0  0  0  0  0  0  0  0
   36.2930   28.9580   33.5620 O   0  0  0  0  0  0  0  0  0  0  0  0
   37.5160   28.1260   40.9030 C   0  0  0  0  0  0  0  0  0  0  0  0
   37.8010   29.3020   41.6000 C   0  0  0  0  0  0  0  0  0  0  0  0
   37.2520   30.4900   41.0850 C   0  0  0  0  0  0  0  0  0  0  0  0
   36.4870   30.4490   39.9640 N   0  0  0  0  0  0  0  0  0  0  0  0
   36.2470   29.2730   39.3340 C   0  0  0  0  0  0  0  0  0  0  0  0
   36.7600   28.1140   39.8040 N   0  0  0  0  0  0  0  0  0  0  0  0
   37.4550   31.4180   41.6030 H   0  0  0  0  0  0  0  0  0  0  0  0
   38.6420   29.2610   42.8120 C   0  0  0  0  0  0  0  0  0  0  0  0
   39.0790   30.5270   43.1210 F   0  0  0  0  0  0  0  0  0  0  0  0
   37.8450   28.8330   43.8670 F   0  0  0  0  0  0  0  0  0  0  0  0
   39.7160   28.4430   42.7260 F   0  0  0  0  0  0  0  0  0  0  0  0
   38.0480   26.9750   41.4030 O   0  0  0  0  0  0  0  0  0  0  0  0
   37.3580   25.9730   42.1230 C   0  0  0  0  0  0  0  0  0  0  0  0
   38.3340   25.2070   42.7680 F   0  0  0  0  0  0  0  0  0  0  0  0
   36.4590   26.5360   42.9890 F   0  0  0  0  0  0  0  0  0  0  0  0
   36.7640   25.0950   41.2440 F   0  0  0  0  0  0  0  0  0  0  0  0
  1  2  1  0  0  0  0
  2  3  1  0  0  0  0
  3  4  2  0  0  0  0
  3 23  1  0  0  0  0
  4  8  1  0  0  0  0
  5  9  1  0  0  0  0
  5  4  1  0  0  0  0
  6  5  2  0  0  0  0
  7  6  1  0  0  0  0
  7  2  2  0  0  0  0
 10  6  1  0  0  0  0
 11  7  1  0  0  0  0
 12 11  2  0  0  0  0
 12 13  1  0  0  0  0
 14 12  1  0  0  0  0
 15 14  1  0  0  0  0
 16 14  2  0  0  0  0
 16 18  1  0  0  0  0
 17 16  1  0  0  0  0
 18 11  1  0  0  0  0
 19 30  1  0  0  0  0
 19 20  1  0  0  0  0
 20 26  1  0  0  0  0
 21 20  2  0  0  0  0
 21 25  1  0  0  0  0
 22 21  1  0  0  0  0
 23 24  1  0  0  0  0
 23 22  2  0  0  0  0
 24 19  2  0  0  0  0
 26 27  1  0  0  0  0
 26 28  1  0  0  0  0
 29 26  1  0  0  0  0
 30 31  1  0  0  0  0
 31 32  1  0  0  0  0
 31 33  1  0  0  0  0
 34 31  1  0  0  0  0
M  END
>  <minimizedAffinity>
-6.12498999

$$$$

 OpenBabel03252504163D

 34 36  0  0  0  0  0  0  0  0999 V2000
   38.3060   30.2170   40.4570 F   0  0  0  0  0  0  0  0  0  0  0  0
   37.9280   30.2560   39.1380 C   0  0  0  0  0  0  0  0  0  0  0  0
   37.5060   29.1040   38.5190 C   0  0  0  0  0  0  0  0  0  0  0  0
   37.1420   29.2360   37.1790 C   0  0  0  0  0  0  0  0  0  0  0  0
   37.2050   30.4450   36.5280 C   0  0  0  0  0  0  0  0  0  0  0  0
   37.6420   31.5620   37.2200 C   0  0  0  0  0  0  0  0  0  0  0  0
   38.0170   31.5000   38.5480 C   0  0  0  0  0  0  0  0  0  0  0  0
   36.7990   28.3490   36.6420 H   0  0  0  0  0  0  0  0  0  0  0  0
   36.9240   30.5430   35.4940 H   0  0  0  0  0  0  0  0  0  0  0  0
   37.7010   32.5260   36.7290 H   0  0  0  0  0  0  0  0  0  0  0  0
   38.4780   32.6730   39.2850 C   0  0  0  0  0  0  0  0  0  0  0  0
   37.6290   33.6390   39.7850 C   0  0  0  0  0  0  0  0  0  0  0  0
   36.5680   33.6490   39.6980 H   0  0  0  0  0  0  0  0  0  0  0  0
   38.5070   34.5360   40.3930 C   0  0  0  0  0  0  0  0  0  0  0  0
   38.1970   35.4470   40.9070 H   0  0  0  0  0  0  0  0  0  0  0  0
   39.8060   34.0790   40.2350 C   0  0  0  0  0  0  0  0  0  0  0  0
   40.7250   34.5320   40.5850 H   0  0  0  0  0  0  0  0  0  0  0  0
   39.7080   32.9520   39.5580 O   0  0  0  0  0  0  0  0  0  0  0  0
   38.3840   26.4080   40.7960 C   0  0  0  0  0  0  0  0  0  0  0  0
   37.4020   25.4390   40.5800 C   0  0  0  0  0  0  0  0  0  0  0  0
   36.4180   25.7380   39.6210 C   0  0  0  0  0  0  0  0  0  0  0  0
   36.4590   26.9240   38.9600 N   0  0  0  0  0  0  0  0  0  0  0  0
   37.4400   27.8240   39.2150 C   0  0  0  0  0  0  0  0  0  0  0  0
   38.4000   27.5650   40.1310 N   0  0  0  0  0  0  0  0  0  0  0  0
   35.6430   25.0070   39.4320 H   0  0  0  0  0  0  0  0  0  0  0  0
   37.4280   24.1750   41.3410 C   0  0  0  0  0  0  0  0  0  0  0  0
   36.9660   24.3870   42.6180 F   0  0  0  0  0  0  0  0  0  0  0  0
   36.5470   23.2920   40.7280 F   0  0  0  0  0  0  0  0  0  0  0  0
   38.6440   23.5860   41.4150 F   0  0  0  0  0  0  0  0  0  0  0  0
   39.3370   26.1170   41.7250 O   0  0  0  0  0  0  0  0  0  0  0  0
   39.3980   26.6080   43.0490 C   0  0  0  0  0  0  0  0  0  0  0  0
   39.6680   25.5050   43.8660 F   0  0  0  0  0  0  0  0  0  0  0  0
   40.3400   27.5960   43.1520 F   0  0  0  0  0  0  0  0  0  0  0  0
   38.1480   27.0270   43.4470 F   0  0  0  0  0  0  0  0  0  0  0  0
  2  1  1  0  0  0  0
  3  2  2  0  0  0  0
  3 23  1  0  0  0  0
  4  3  1  0  0  0  0
  5  4  2  0  0  0  0
  5  6  1  0  0  0  0
  6  7  2  0  0  0  0
  7  2  1  0  0  0  0
  7 11  1  0  0  0  0
  8  4  1  0  0  0  0
  9  5  1  0  0  0  0
 10  6  1  0  0  0  0
 11 18  1  0  0  0  0
 11 12  2  0  0  0  0
 12 14  1  0  0  0  0
 13 12  1  0  0  0  0
 14 15  1  0  0  0  0
 16 14  2  0  0  0  0
 16 17  1  0  0  0  0
 18 16  1  0  0  0  0
 19 30  1  0  0  0  0
 20 19  1  0  0  0  0
 20 26  1  0  0  0  0
 21 20  2  0  0  0  0
 22 23  2  0  0  0  0
 22 21  1  0  0  0  0
 23 24  1  0  0  0  0
 24 19  2  0  0  0  0
 25 21  1  0  0  0  0
 26 29  1  0  0  0  0
 26 27  1  0  0  0  0
 28 26  1  0  0  0  0
 30 31  1  0  0  0  0
 31 33  1  0  0  0  0
 31 34  1  0  0  0  0
 31 32  1  0  0  0  0
M  END
>  <minimizedAffinity>
-5.92451906

$$$$

 OpenBabel03252504163D

 34 36  0  0  0  0  0  0  0  0999 V2000
   38.5700   27.4350   40.2380 F   0  0  0  0  0  0  0  0  0  0  0  0
   37.9610   27.5940   41.4570 C   0  0  0  0  0  0  0  0  0  0  0  0
   37.9710   28.8270   42.0640 C   0  0  0  0  0  0  0  0  0  0  0  0
   37.3290   28.8970   43.3010 C   0  0  0  0  0  0  0  0  0  0  0  0
   36.7270   27.7980   43.8670 C   0  0  0  0  0  0  0  0  0  0  0  0
   36.7590   26.5890   43.1920 C   0  0  0  0  0  0  0  0  0  0  0  0
   37.3790   26.4510   41.9650 C   0  0  0  0  0  0  0  0  0  0  0  0
   37.3090   29.8550   43.8250 H   0  0  0  0  0  0  0  0  0  0  0  0
   36.2330   27.8550   44.8200 H   0  0  0  0  0  0  0  0  0  0  0  0
   36.2930   25.7090   43.6180 H   0  0  0  0  0  0  0  0  0  0  0  0
   37.4170   25.1810   41.2480 C   0  0  0  0  0  0  0  0  0  0  0  0
   38.2330   24.1280   41.6080 C   0  0  0  0  0  0  0  0  0  0  0  0
   38.9140   24.1110   42.4270 H   0  0  0  0  0  0  0  0  0  0  0  0
   37.9270   23.1590   40.6520 C   0  0  0  0  0  0  0  0  0  0  0  0
   38.3840   22.1690   40.6120 H   0  0  0  0  0  0  0  0  0  0  0  0
   36.9680   23.6620   39.7860 C   0  0  0  0  0  0  0  0  0  0  0  0
   36.5100   23.1750   38.9350 H   0  0  0  0  0  0  0  0  0  0  0  0
   36.7110   24.8840   40.2090 O   0  0  0  0  0  0  0  0  0  0  0  0
   38.5950   31.5570   39.7460 C   0  0  0  0  0  0  0  0  0  0  0  0
   39.7410   32.1800   40.2440 C   0  0  0  0  0  0  0  0  0  0  0  0
   40.3010   31.6320   41.4120 C   0  0  0  0  0  0  0  0  0  0  0  0
   39.7230   30.5490   41.9930 N   0  0  0  0  0  0  0  0  0  0  0  0
   38.6100   29.9900   41.4590 C   0  0  0  0  0  0  0  0  0  0  0  0
   38.0480   30.4930   40.3380 N   0  0  0  0  0  0  0  0  0  0  0  0
   41.1900   32.0930   41.8230 H   0  0  0  0  0  0  0  0  0  0  0  0
   40.3070   33.3540   39.5530 C   0  0  0  0  0  0  0  0  0  0  0  0
   39.4550   34.4270   39.6770 F   0  0  0  0  0  0  0  0  0  0  0  0
   41.4910   33.6950   40.1940 F   0  0  0  0  0  0  0  0  0  0  0  0
   40.5700   33.1630   38.2390 F   0  0  0  0  0  0  0  0  0  0  0  0
   38.0530   32.0880   38.6140 O   0  0  0  0  0  0  0  0  0  0  0  0
   37.7580   31.3950   37.4180 C   0  0  0  0  0  0  0  0  0  0  0  0
   36.5490   30.7270   37.6370 F   0  0  0  0  0  0  0  0  0  0  0  0
   37.7080   32.2620   36.3590 F   0  0  0  0  0  0  0  0  0  0  0  0
   38.6740   30.3840   37.2280 F   0  0  0  0  0  0  0  0  0  0  0  0
  1  2  1  0  0  0  0
  2  7  2  0  0  0  0
  2  3  1  0  0  0  0
  3  4  2  0  0  0  0
  4  8  1  0  0  0  0
  4  5  1  0  0  0  0
  5  9  1  0  0  0  0
  6 10  1  0  0  0  0
  6  5  2  0  0  0  0
  7  6  1  0  0  0  0
 11 12  2  0  0  0  0
 11  7  1  0  0  0  0
 12 13  1  0  0  0  0
 14 12  1  0  0  0  0
 15 14  1  0  0  0  0
 16 18  1  0  0  0  0
 16 14  2  0  0  0  0
 17 16  1  0  0  0  0
 18 11  1  0  0  0  0
 19 20  2  0  0  0  0
 19 24  1  0  0  0  0
 20 21  1  0  0  0  0
 21 25  1  0  0  0  0
 21 22  2  0  0  0  0
 23 22  1  0  0  0  0
 23  3  1  0  0  0  0
 24 23  2  0  0  0  0
 26 27  1  0  0  0  0
 26 28  1  0  0  0  0
 26 20  1  0  0  0  0
 29 26  1  0  0  0  0
 30 19  1  0  0  0  0
 31 32  1  0  0  0  0
 31 30  1  0  0  0  0
 33 31  1  0  0  0  0
 34 31  1  0  0  0  0
M  END
>  <minimizedAffinity>
-5.90438032

$$$$

 OpenBabel03252504163D

 34 36  0  0  0  0  0  0  0  0999 V2000
   38.0400   27.0170   40.4310 F   0  0  0  0  0  0  0  0  0  0  0  0
   38.7460   26.7870   41.5850 C   0  0  0  0  0  0  0  0  0  0  0  0
   39.2730   27.8480   42.2810 C   0  0  0  0  0  0  0  0  0  0  0  0
   39.9750   27.5200   43.4420 C   0  0  0  0  0  0  0  0  0  0  0  0
   40.1230   26.2180   43.8550 C   0  0  0  0  0  0  0  0  0  0  0  0
   39.5620   25.2020   43.1000 C   0  0  0  0  0  0  0  0  0  0  0  0
   38.8550   25.4570   41.9390 C   0  0  0  0  0  0  0  0  0  0  0  0
   40.4140   28.3290   44.0310 H   0  0  0  0  0  0  0  0  0  0  0  0
   40.6650   25.9690   44.7510 H   0  0  0  0  0  0  0  0  0  0  0  0
   39.6650   24.1680   43.4040 H   0  0  0  0  0  0  0  0  0  0  0  0
   38.2600   24.3930   41.1380 C   0  0  0  0  0  0  0  0  0  0  0  0
   36.9100   24.1090   41.1330 C   0  0  0  0  0  0  0  0  0  0  0  0
   36.1590   24.6140   41.6940 H   0  0  0  0  0  0  0  0  0  0  0  0
   36.8220   23.0410   40.2400 C   0  0  0  0  0  0  0  0  0  0  0  0
   35.8920   22.5370   39.9740 H   0  0  0  0  0  0  0  0  0  0  0  0
   38.0890   22.7420   39.7630 C   0  0  0  0  0  0  0  0  0  0  0  0
   38.3770   21.9730   39.0580 H   0  0  0  0  0  0  0  0  0  0  0  0
   38.9030   23.5990   40.3490 O   0  0  0  0  0  0  0  0  0  0  0  0
   38.0210   30.7120   40.4260 C   0  0  0  0  0  0  0  0  0  0  0  0
   38.7360   31.7970   40.9380 C   0  0  0  0  0  0  0  0  0  0  0  0
   39.6730   31.5160   41.9490 C   0  0  0  0  0  0  0  0  0  0  0  0
   39.8390   30.2380   42.3770 N   0  0  0  0  0  0  0  0  0  0  0  0
   39.1130   29.2280   41.8390 C   0  0  0  0  0  0  0  0  0  0  0  0
   38.2060   29.4650   40.8650 N   0  0  0  0  0  0  0  0  0  0  0  0
   40.2430   32.3360   42.3660 H   0  0  0  0  0  0  0  0  0  0  0  0
   38.4950   33.1560   40.4180 C   0  0  0  0  0  0  0  0  0  0  0  0
   38.9560   34.0900   41.3160 F   0  0  0  0  0  0  0  0  0  0  0  0
   39.2410   33.3050   39.2540 F   0  0  0  0  0  0  0  0  0  0  0  0
   37.2010   33.4320   40.1360 F   0  0  0  0  0  0  0  0  0  0  0  0
   37.1150   30.9860   39.4460 O   0  0  0  0  0  0  0  0  0  0  0  0
   37.2900   30.7790   38.0580 C   0  0  0  0  0  0  0  0  0  0  0  0
   36.2250   29.9730   37.6420 F   0  0  0  0  0  0  0  0  0  0  0  0
   37.3470   31.9770   37.3970 F   0  0  0  0  0  0  0  0  0  0  0  0
   38.4070   30.0030   37.8410 F   0  0  0  0  0  0  0  0  0  0  0  0
  1  2  1  0  0  0  0
  2  7  2  0  0  0  0
  2  3  1  0  0  0  0
  3  4  2  0  0  0  0
  4  5  1  0  0  0  0
  4  8  1  0  0  0  0
  5  9  1  0  0  0  0
  6 10  1  0  0  0  0
  6  5  2  0  0  0  0
  7  6  1  0  0  0  0
 11  7  1  0  0  0  0
 12 11  2  0  0  0  0
 12 13  1  0  0  0  0
 14 12  1  0  0  0  0
 15 14  1  0  0  0  0
 16 14  2  0  0  0  0
 16 18  1  0  0  0  0
 17 16  1  0  0  0  0
 18 11  1  0  0  0  0
 19 24  2  0  0  0  0
 19 20  1  0  0  0  0
 20 21  2  0  0  0  0
 21 25  1  0  0  0  0
 21 22  1  0  0  0  0
 23  3  1  0  0  0  0
 23 22  2  0  0  0  0
 24 23  1  0  0  0  0
 26 20  1  0  0  0  0
 26 27  1  0  0  0  0
 28 26  1  0  0  0  0
 29 26  1  0  0  0  0
 30 19  1  0  0  0  0
 31 30  1  0  0  0  0
 32 31  1  0  0  0  0
 33 31  1  0  0  0  0
 34 31  1  0  0  0  0
M  END
>  <minimizedAffinity>
-5.88770485

$$$$

 OpenBabel03252504163D

 34 36  0  0  0  0  0  0  0  0999 V2000
   41.5340   31.0900   40.0770 F   0  0  0  0  0  0  0  0  0  0  0  0
   40.7720   32.2280   40.1700 C   0  0  0  0  0  0  0  0  0  0  0  0
   39.5350   32.1680   40.7660 C   0  0  0  0  0  0  0  0  0  0  0  0
   38.8300   33.3710   40.8170 C   0  0  0  0  0  0  0  0  0  0  0  0
   39.3480   34.5360   40.3020 C   0  0  0  0  0  0  0  0  0  0  0  0
   40.6030   34.5160   39.7170 C   0  0  0  0  0  0  0  0  0  0  0  0
   41.3530   33.3580   39.6330 C   0  0  0  0  0  0  0  0  0  0  0  0
   37.8410   33.3770   41.2810 H   0  0  0  0  0  0  0  0  0  0  0  0
   38.8020   35.4620   40.3430 H   0  0  0  0  0  0  0  0  0  0  0  0
   41.0320   35.4200   39.3040 H   0  0  0  0  0  0  0  0  0  0  0  0
   42.6760   33.3280   39.0190 C   0  0  0  0  0  0  0  0  0  0  0  0
   43.8110   33.8180   39.6320 C   0  0  0  0  0  0  0  0  0  0  0  0
   43.8610   34.2640   40.5980 H   0  0  0  0  0  0  0  0  0  0  0  0
   44.8040   33.5760   38.6830 C   0  0  0  0  0  0  0  0  0  0  0  0
   45.8560   33.8330   38.8150 H   0  0  0  0  0  0  0  0  0  0  0  0
   44.2350   32.9680   37.5750 C   0  0  0  0  0  0  0  0  0  0  0  0
   44.7190   32.6460   36.6620 H   0  0  0  0  0  0  0  0  0  0  0  0
   42.9500   32.8520   37.8510 O   0  0  0  0  0  0  0  0  0  0  0  0
   37.6480   29.0670   40.9650 C   0  0  0  0  0  0  0  0  0  0  0  0
   37.9140   28.5810   42.2470 C   0  0  0  0  0  0  0  0  0  0  0  0
   38.7680   29.3560   43.0520 C   0  0  0  0  0  0  0  0  0  0  0  0
   39.2870   30.5120   42.5660 N   0  0  0  0  0  0  0  0  0  0  0  0
   38.9900   30.9300   41.3110 C   0  0  0  0  0  0  0  0  0  0  0  0
   38.1710   30.2090   40.5130 N   0  0  0  0  0  0  0  0  0  0  0  0
   38.9940   29.0050   44.0510 H   0  0  0  0  0  0  0  0  0  0  0  0
   37.3090   27.3130   42.7000 C   0  0  0  0  0  0  0  0  0  0  0  0
   37.4410   26.3560   41.7210 F   0  0  0  0  0  0  0  0  0  0  0  0
   38.0270   26.8710   43.8050 F   0  0  0  0  0  0  0  0  0  0  0  0
   36.0040   27.4010   43.0430 F   0  0  0  0  0  0  0  0  0  0  0  0
   36.8190   28.3160   40.1860 O   0  0  0  0  0  0  0  0  0  0  0  0
   35.5500   28.7010   39.6960 C   0  0  0  0  0  0  0  0  0  0  0  0
   35.1390   27.6850   38.8270 F   0  0  0  0  0  0  0  0  0  0  0  0
   34.6770   28.9070   40.7310 F   0  0  0  0  0  0  0  0  0  0  0  0
   35.6800   29.8070   38.8870 F   0  0  0  0  0  0  0  0  0  0  0  0
  1  2  1  0  0  0  0
  2  3  1  0  0  0  0
  3  4  2  0  0  0  0
  3 23  1  0  0  0  0
  4  8  1  0  0  0  0
  5  9  1  0  0  0  0
  5  4  1  0  0  0  0
  6  5  2  0  0  0  0
  7  6  1  0  0  0  0
  7  2  2  0  0  0  0
 10  6  1  0  0  0  0
 11 12  2  0  0  0  0
 11  7  1  0  0  0  0
 12 13  1  0  0  0  0
 14 15  1  0  0  0  0
 14 12  1  0  0  0  0
 16 18  1  0  0  0  0
 16 14  2  0  0  0  0
 17 16  1  0  0  0  0
 18 11  1  0  0  0  0
 19 20  1  0  0  0  0
 20 26  1  0  0  0  0
 20 21  2  0  0  0  0
 21 25  1  0  0  0  0
 22 21  1  0  0  0  0
 23 22  2  0  0  0  0
 24 19  2  0  0  0  0
 24 23  1  0  0  0  0
 26 29  1  0  0  0  0
 26 28  1  0  0  0  0
 27 26  1  0  0  0  0
 30 19  1  0  0  0  0
 31 30  1  0  0  0  0
 31 33  1  0  0  0  0
 32 31  1  0  0  0  0
 34 31  1  0  0  0  0
M  END
>  <minimizedAffinity>
-5.85952187

$$$$

 OpenBabel03252504163D

 34 36  0  0  0  0  0  0  0  0999 V2000
   39.9270   29.8860   39.2370 F   0  0  0  0  0  0  0  0  0  0  0  0
   38.9080   30.7680   39.4940 C   0  0  0  0  0  0  0  0  0  0  0  0
   37.7330   30.3080   40.0400 C   0  0  0  0  0  0  0  0  0  0  0  0
   36.7530   31.2750   40.2670 C   0  0  0  0  0  0  0  0  0  0  0  0
   36.9580   32.5990   39.9610 C   0  0  0  0  0  0  0  0  0  0  0  0
   38.1690   32.9860   39.4130 C   0  0  0  0  0  0  0  0  0  0  0  0
   39.1820   32.0790   39.1620 C   0  0  0  0  0  0  0  0  0  0  0  0
   35.8010   30.9590   40.7000 H   0  0  0  0  0  0  0  0  0  0  0  0
   36.1990   33.3420   40.1370 H   0  0  0  0  0  0  0  0  0  0  0  0
   38.3540   34.0230   39.1630 H   0  0  0  0  0  0  0  0  0  0  0  0
   40.4620   32.4780   38.5850 C   0  0  0  0  0  0  0  0  0  0  0  0
   41.4050   33.2200   39.2660 C   0  0  0  0  0  0  0  0  0  0  0  0
   41.3200   33.5810   40.2650 H   0  0  0  0  0  0  0  0  0  0  0  0
   42.4310   33.3490   38.3300 C   0  0  0  0  0  0  0  0  0  0  0  0
   43.3640   33.8840   38.5110 H   0  0  0  0  0  0  0  0  0  0  0  0
   42.0660   32.6970   37.1620 C   0  0  0  0  0  0  0  0  0  0  0  0
   42.6270   32.6020   36.2420 H   0  0  0  0  0  0  0  0  0  0  0  0
   40.8670   32.1970   37.3930 O   0  0  0  0  0  0  0  0  0  0  0  0
   37.9200   27.1550   41.8400 C   0  0  0  0  0  0  0  0  0  0  0  0
   37.1790   26.2660   41.0590 C   0  0  0  0  0  0  0  0  0  0  0  0
   36.6060   26.7830   39.8830 C   0  0  0  0  0  0  0  0  0  0  0  0
   36.7900   28.0890   39.5620 N   0  0  0  0  0  0  0  0  0  0  0  0
   37.5220   28.9020   40.3630 C   0  0  0  0  0  0  0  0  0  0  0  0
   38.0860   28.4350   41.4990 N   0  0  0  0  0  0  0  0  0  0  0  0
   36.0260   26.1180   39.2570 H   0  0  0  0  0  0  0  0  0  0  0  0
   37.0270   24.8600   41.4790 C   0  0  0  0  0  0  0  0  0  0  0  0
   36.4370   24.8030   42.7210 F   0  0  0  0  0  0  0  0  0  0  0  0
   36.1610   24.2400   40.5860 F   0  0  0  0  0  0  0  0  0  0  0  0
   38.1800   24.1540   41.5180 F   0  0  0  0  0  0  0  0  0  0  0  0
   38.4760   26.6530   42.9780 O   0  0  0  0  0  0  0  0  0  0  0  0
   39.8480   26.3970   43.2020 C   0  0  0  0  0  0  0  0  0  0  0  0
   40.4160   26.1640   41.9440 F   0  0  0  0  0  0  0  0  0  0  0  0
   40.4300   27.4420   43.8670 F   0  0  0  0  0  0  0  0  0  0  0  0
   39.9960   25.2010   43.8670 F   0  0  0  0  0  0  0  0  0  0  0  0
  1  2  1  0  0  0  0
  2  3  1  0  0  0  0
  3  4  2  0  0  0  0
  3 23  1  0  0  0  0
  4  8  1  0  0  0  0
  5  9  1  0  0  0  0
  5  4  1  0  0  0  0
  6  5  2  0  0  0  0
  7  6  1  0  0  0  0
  7  2  2  0  0  0  0
 10  6  1  0  0  0  0
 11  7  1  0  0  0  0
 11 12  2  0  0  0  0
 12 13  1  0  0  0  0
 14 15  1  0  0  0  0
 14 12  1  0  0  0  0
 16 18  1  0  0  0  0
 16 14  2  0  0  0  0
 17 16  1  0  0  0  0
 18 11  1  0  0  0  0
 19 30  1  0  0  0  0
 20 26  1  0  0  0  0
 20 19  2  0  0  0  0
 21 20  1  0  0  0  0
 22 21  2  0  0  0  0
 22 23  1  0  0  0  0
 23 24  2  0  0  0  0
 24 19  1  0  0  0  0
 25 21  1  0  0  0  0
 26 29  1  0  0  0  0
 26 27  1  0  0  0  0
 28 26  1  0  0  0  0
 30 31  1  0  0  0  0
 31 33  1  0  0  0  0
 31 34  1  0  0  0  0
 32 31  1  0  0  0  0
M  END
>  <minimizedAffinity>
-5.83806372

$$$$

 OpenBabel03252504163D

 34 36  0  0  0  0  0  0  0  0999 V2000
   38.5070   27.3840   40.2660 F   0  0  0  0  0  0  0  0  0  0  0  0
   37.8650   27.4310   41.4780 C   0  0  0  0  0  0  0  0  0  0  0  0
   37.7500   28.6310   42.1390 C   0  0  0  0  0  0  0  0  0  0  0  0
   37.0830   28.5860   43.3630 C   0  0  0  0  0  0  0  0  0  0  0  0
   36.5750   27.4120   43.8670 C   0  0  0  0  0  0  0  0  0  0  0  0
   36.7290   26.2430   43.1410 C   0  0  0  0  0  0  0  0  0  0  0  0
   37.3810   26.2180   41.9230 C   0  0  0  0  0  0  0  0  0  0  0  0
   36.9660   29.5130   43.9270 H   0  0  0  0  0  0  0  0  0  0  0  0
   36.0600   27.3810   44.8110 H   0  0  0  0  0  0  0  0  0  0  0  0
   36.3380   25.3060   43.5170 H   0  0  0  0  0  0  0  0  0  0  0  0
   37.5480   24.9900   41.1520 C   0  0  0  0  0  0  0  0  0  0  0  0
   36.5600   24.4540   40.3510 C   0  0  0  0  0  0  0  0  0  0  0  0
   35.5850   24.8560   40.2020 H   0  0  0  0  0  0  0  0  0  0  0  0
   37.1690   23.3120   39.8330 C   0  0  0  0  0  0  0  0  0  0  0  0
   36.6860   22.6170   39.1440 H   0  0  0  0  0  0  0  0  0  0  0  0
   38.4590   23.2170   40.3310 C   0  0  0  0  0  0  0  0  0  0  0  0
   39.2020   22.4570   40.1330 H   0  0  0  0  0  0  0  0  0  0  0  0
   38.6140   24.2640   41.1190 O   0  0  0  0  0  0  0  0  0  0  0  0
   38.2050   31.4740   39.9200 C   0  0  0  0  0  0  0  0  0  0  0  0
   39.2400   32.2080   40.5030 C   0  0  0  0  0  0  0  0  0  0  0  0
   39.7860   31.6940   41.6940 C   0  0  0  0  0  0  0  0  0  0  0  0
   39.2980   30.5390   42.2150 N   0  0  0  0  0  0  0  0  0  0  0  0
   38.2910   29.8730   41.5990 C   0  0  0  0  0  0  0  0  0  0  0  0
   37.7460   30.3400   40.4540 N   0  0  0  0  0  0  0  0  0  0  0  0
   40.5890   32.2410   42.1700 H   0  0  0  0  0  0  0  0  0  0  0  0
   39.7120   33.4550   39.8730 C   0  0  0  0  0  0  0  0  0  0  0  0
   38.6850   34.3680   39.8140 F   0  0  0  0  0  0  0  0  0  0  0  0
   40.6960   33.9990   40.6900 F   0  0  0  0  0  0  0  0  0  0  0  0
   40.2240   33.3020   38.6300 F   0  0  0  0  0  0  0  0  0  0  0  0
   37.6780   31.9720   38.7660 O   0  0  0  0  0  0  0  0  0  0  0  0
   37.6700   31.3360   37.5030 C   0  0  0  0  0  0  0  0  0  0  0  0
   38.8960   30.6750   37.3860 F   0  0  0  0  0  0  0  0  0  0  0  0
   36.5940   30.4950   37.3950 F   0  0  0  0  0  0  0  0  0  0  0  0
   37.6990   32.2840   36.5050 F   0  0  0  0  0  0  0  0  0  0  0  0
  1  2  1  0  0  0  0
  2  7  2  0  0  0  0
  2  3  1  0  0  0  0
  3  4  2  0  0  0  0
  4  5  1  0  0  0  0
  4  8  1  0  0  0  0
  5  9  1  0  0  0  0
  6 10  1  0  0  0  0
  6  5  2  0  0  0  0
  7  6  1  0  0  0  0
 11  7  1  0  0  0  0
 12 11  2  0  0  0  0
 13 12  1  0  0  0  0
 14 16  2  0  0  0  0
 14 12  1  0  0  0  0
 15 14  1  0  0  0  0
 16 18  1  0  0  0  0
 17 16  1  0  0  0  0
 18 11  1  0  0  0  0
 19 24  2  0  0  0  0
 19 20  1  0  0  0  0
 20 21  2  0  0  0  0
 21 25  1  0  0  0  0
 21 22  1  0  0  0  0
 23  3  1  0  0  0  0
 23 22  2  0  0  0  0
 24 23  1  0  0  0  0
 26 20  1  0  0  0  0
 26 28  1  0  0  0  0
 27 26  1  0  0  0  0
 29 26  1  0  0  0  0
 30 19  1  0  0  0  0
 31 30  1  0  0  0  0
 32 31  1  0  0  0  0
 33 31  1  0  0  0  0
 34 31  1  0  0  0  0
M  END
>  <minimizedAffinity>
-5.8115139

$$$$

 OpenBabel03252504163D

 34 36  0  0  0  0  0  0  0  0999 V2000
   40.8840   31.2420   39.9530 F   0  0  0  0  0  0  0  0  0  0  0  0
   41.6830   31.5090   41.0360 C   0  0  0  0  0  0  0  0  0  0  0  0
   41.4750   30.8330   42.2150 C   0  0  0  0  0  0  0  0  0  0  0  0
   42.3330   31.1680   43.2630 C   0  0  0  0  0  0  0  0  0  0  0  0
   43.3200   32.1140   43.1170 C   0  0  0  0  0  0  0  0  0  0  0  0
   43.4670   32.7510   41.8960 C   0  0  0  0  0  0  0  0  0  0  0  0
   42.6510   32.4680   40.8180 C   0  0  0  0  0  0  0  0  0  0  0  0
   42.2080   30.6590   44.2210 H   0  0  0  0  0  0  0  0  0  0  0  0
   43.9800   32.3690   43.9270 H   0  0  0  0  0  0  0  0  0  0  0  0
   44.2370   33.5000   41.7560 H   0  0  0  0  0  0  0  0  0  0  0  0
   42.8000   33.1350   39.5290 C   0  0  0  0  0  0  0  0  0  0  0  0
   42.1120   34.2790   39.1810 C   0  0  0  0  0  0  0  0  0  0  0  0
   41.4110   34.8010   39.7900 H   0  0  0  0  0  0  0  0  0  0  0  0
   42.5720   34.5350   37.8890 C   0  0  0  0  0  0  0  0  0  0  0  0
   42.2460   35.3770   37.2760 H   0  0  0  0  0  0  0  0  0  0  0  0
   43.4890   33.5590   37.5310 C   0  0  0  0  0  0  0  0  0  0  0  0
   44.0350   33.4580   36.6020 H   0  0  0  0  0  0  0  0  0  0  0  0
   43.5740   32.7500   38.5700 O   0  0  0  0  0  0  0  0  0  0  0  0
   38.1550   29.3530   42.2950 C   0  0  0  0  0  0  0  0  0  0  0  0
   38.3800   28.0150   42.6240 C   0  0  0  0  0  0  0  0  0  0  0  0
   39.7180   27.6280   42.8200 C   0  0  0  0  0  0  0  0  0  0  0  0
   40.7110   28.5450   42.6860 N   0  0  0  0  0  0  0  0  0  0  0  0
   40.4260   29.8300   42.3650 C   0  0  0  0  0  0  0  0  0  0  0  0
   39.1510   30.2330   42.1710 N   0  0  0  0  0  0  0  0  0  0  0  0
   39.9250   26.5970   43.0760 H   0  0  0  0  0  0  0  0  0  0  0  0
   37.2440   27.0810   42.7510 C   0  0  0  0  0  0  0  0  0  0  0  0
   36.5780   26.9890   41.5510 F   0  0  0  0  0  0  0  0  0  0  0  0
   37.7590   25.8210   43.0310 F   0  0  0  0  0  0  0  0  0  0  0  0
   36.3520   27.4050   43.7150 F   0  0  0  0  0  0  0  0  0  0  0  0
   36.8580   29.7270   42.1060 O   0  0  0  0  0  0  0  0  0  0  0  0
   36.2820   30.1800   40.8970 C   0  0  0  0  0  0  0  0  0  0  0  0
   35.0590   29.5130   40.7690 F   0  0  0  0  0  0  0  0  0  0  0  0
   36.1500   31.5430   40.9090 F   0  0  0  0  0  0  0  0  0  0  0  0
   37.0270   29.7310   39.8300 F   0  0  0  0  0  0  0  0  0  0  0  0
  1  2  1  0  0  0  0
  2  3  1  0  0  0  0
  3 23  1  0  0  0  0
  3  4  2  0  0  0  0
  4  8  1  0  0  0  0
  5  4  1  0  0  0  0
  5  9  1  0  0  0  0
  6  5  2  0  0  0  0
  7  2  2  0  0  0  0
  7  6  1  0  0  0  0
 10  6  1  0  0  0  0
 11  7  1  0  0  0  0
 12 11  2  0  0  0  0
 12 13  1  0  0  0  0
 14 12  1  0  0  0  0
 15 14  1  0  0  0  0
 16 14  2  0  0  0  0
 16 18  1  0  0  0  0
 17 16  1  0  0  0  0
 18 11  1  0  0  0  0
 19 20  1  0  0  0  0
 20 26  1  0  0  0  0
 20 21  2  0  0  0  0
 21 25  1  0  0  0  0
 22 21  1  0  0  0  0
 23 22  2  0  0  0  0
 24 19  2  0  0  0  0
 24 23  1  0  0  0  0
 26 28  1  0  0  0  0
 26 29  1  0  0  0  0
 27 26  1  0  0  0  0
 30 19  1  0  0  0  0
 31 33  1  0  0  0  0
 31 30  1  0  0  0  0
 32 31  1  0  0  0  0
 34 31  1  0  0  0  0
M  END
>  <minimizedAffinity>
-5.80878782

$$$$
