
 OpenBabel03252507263D

 26 28  0  0  0  0  0  0  0  0999 V2000
   45.8790   33.5900   45.5410 C   0  0  0  0  0  0  0  0  0  0  0  0
   44.9240   34.5630   45.8780 C   0  0  0  0  0  0  0  0  0  0  0  0
   44.6440   35.5540   44.9360 C   0  0  0  0  0  0  0  0  0  0  0  0
   45.3080   35.5330   43.7330 N   0  0  0  0  0  0  0  0  0  0  0  0
   46.2200   34.5710   43.4590 C   0  0  0  0  0  0  0  0  0  0  0  0
   46.5110   33.6050   44.3460 N   0  0  0  0  0  0  0  0  0  0  0  0
   44.4400   34.5130   46.8520 H   0  0  0  0  0  0  0  0  0  0  0  0
   43.9110   36.3150   45.1710 H   0  0  0  0  0  0  0  0  0  0  0  0
   46.8940   34.5930   42.1740 C   0  0  0  0  0  0  0  0  0  0  0  0
   48.0470   35.3490   42.0040 C   0  0  0  0  0  0  0  0  0  0  0  0
   48.7700   35.4460   40.8310 C   0  0  0  0  0  0  0  0  0  0  0  0
   48.2440   34.7030   39.7800 C   0  0  0  0  0  0  0  0  0  0  0  0
   47.0940   33.9430   39.9320 C   0  0  0  0  0  0  0  0  0  0  0  0
   46.4360   33.8990   41.1250 N   0  0  0  0  0  0  0  0  0  0  0  0
   48.3900   35.8980   42.8710 H   0  0  0  0  0  0  0  0  0  0  0  0
   49.6600   36.0550   40.7740 H   0  0  0  0  0  0  0  0  0  0  0  0
   48.7610   34.7330   38.8310 H   0  0  0  0  0  0  0  0  0  0  0  0
   46.7560   33.3940   39.0600 H   0  0  0  0  0  0  0  0  0  0  0  0
   46.2050   32.5350   46.4950 C   0  0  0  0  0  0  0  0  0  0  0  0
   47.1240   32.6450   47.5290 C   0  0  0  0  0  0  0  0  0  0  0  0
   47.7390   33.4980   47.8040 H   0  0  0  0  0  0  0  0  0  0  0  0
   47.1570   31.4450   48.2140 C   0  0  0  0  0  0  0  0  0  0  0  0
   47.7290   31.1230   49.0680 H   0  0  0  0  0  0  0  0  0  0  0  0
   46.2570   30.6480   47.5710 C   0  0  0  0  0  0  0  0  0  0  0  0
   45.9210   29.6430   47.7120 H   0  0  0  0  0  0  0  0  0  0  0  0
   45.7230   31.3030   46.5850 O   0  0  0  0  0  0  0  0  0  0  0  0
  1  2  1  0  0  0  0
  1 19  1  0  0  0  0
  2  7  1  0  0  0  0
  3  8  1  0  0  0  0
  3  2  2  0  0  0  0
  4  3  1  0  0  0  0
  5  4  2  0  0  0  0
  5  6  1  0  0  0  0
  6  1  2  0  0  0  0
  9  5  1  0  0  0  0
 10  9  1  0  0  0  0
 10 15  1  0  0  0  0
 11 10  2  0  0  0  0
 12 13  2  0  0  0  0
 12 11  1  0  0  0  0
 13 14  1  0  0  0  0
 14  9  2  0  0  0  0
 16 11  1  0  0  0  0
 17 12  1  0  0  0  0
 18 13  1  0  0  0  0
 19 26  1  0  0  0  0
 19 20  2  0  0  0  0
 20 21  1  0  0  0  0
 20 22  1  0  0  0  0
 22 23  1  0  0  0  0
 24 25  1  0  0  0  0
 24 22  2  0  0  0  0
 26 24  1  0  0  0  0
M  END
>  <minimizedAffinity>
-5.63195467

>  <minimizedRMSD>
0.427882463

$$$$
