
 OpenBabel03242515433D

 37 40  0  0  0  0  0  0  0  0999 V2000
   43.8830   34.6580   41.0510 C   0  0  0  0  0  0  0  0  0  0  0  0
   43.8600   33.6980   40.1050 C   0  0  0  0  0  0  0  0  0  0  0  0
   45.1150   33.1440   39.7800 C   0  0  0  0  0  0  0  0  0  0  0  0
   46.2410   33.5790   40.3920 N   0  0  0  0  0  0  0  0  0  0  0  0
   46.2080   34.5520   41.3320 C   0  0  0  0  0  0  0  0  0  0  0  0
   45.0270   35.0440   41.6170 N   0  0  0  0  0  0  0  0  0  0  0  0
   42.8570   33.2170   39.1630 C   0  0  0  0  0  0  0  0  0  0  0  0
   42.4600   31.9200   38.9410 C   0  0  0  0  0  0  0  0  0  0  0  0
   42.7200   30.9690   39.3460 H   0  0  0  0  0  0  0  0  0  0  0  0
   41.4830   31.8790   37.9780 C   0  0  0  0  0  0  0  0  0  0  0  0
   40.9090   31.0970   37.5110 H   0  0  0  0  0  0  0  0  0  0  0  0
   41.2970   33.1920   37.6210 C   0  0  0  0  0  0  0  0  0  0  0  0
   40.6280   33.6760   36.8950 H   0  0  0  0  0  0  0  0  0  0  0  0
   42.1190   33.8890   38.3460 O   0  0  0  0  0  0  0  0  0  0  0  0
   45.2250   32.1220   38.7910 N   0  0  0  0  0  0  0  0  0  0  0  0
   44.9920   32.3960   37.7980 H   0  0  0  0  0  0  0  0  0  0  0  0
   45.5410   31.2740   39.3500 H   0  0  0  0  0  0  0  0  0  0  0  0
   42.2660   35.3310   41.5310 S   0  0  0  0  0  0  0  0  0  0  0  0
   39.8940   34.4850   40.7290 C   0  0  0  0  0  0  0  0  0  0  0  0
   41.0150   34.0760   41.4200 C   0  0  0  0  0  0  0  0  0  0  0  0
   41.0810   32.8000   41.9060 C   0  0  0  0  0  0  0  0  0  0  0  0
   40.0690   31.8900   41.7340 C   0  0  0  0  0  0  0  0  0  0  0  0
   38.9440   32.3020   41.0370 C   0  0  0  0  0  0  0  0  0  0  0  0
   38.8400   33.5750   40.5340 C   0  0  0  0  0  0  0  0  0  0  0  0
   38.0540   31.2000   40.9900 O   0  0  0  0  0  0  0  0  0  0  0  0
   38.5240   30.2590   41.8890 C   0  0  0  0  0  0  0  0  0  0  0  0
   39.8790   30.5570   42.1170 O   0  0  0  0  0  0  0  0  0  0  0  0
   39.7330   35.4740   40.3020 H   0  0  0  0  0  0  0  0  0  0  0  0
   41.9860   32.5460   42.4390 H   0  0  0  0  0  0  0  0  0  0  0  0
   37.9460   33.9030   39.9810 H   0  0  0  0  0  0  0  0  0  0  0  0
   37.9250   30.1440   42.8020 H   0  0  0  0  0  0  0  0  0  0  0  0
   38.5010   29.2660   41.3850 H   0  0  0  0  0  0  0  0  0  0  0  0
   47.3040   35.0350   41.9730 O   0  0  0  0  0  0  0  0  0  0  0  0
   48.5080   35.1730   41.2550 C   0  0  0  0  0  0  0  0  0  0  0  0
   49.3590   34.1260   41.5000 F   0  0  0  0  0  0  0  0  0  0  0  0
   48.1640   35.2520   39.9010 F   0  0  0  0  0  0  0  0  0  0  0  0
   49.1350   36.3280   41.6930 F   0  0  0  0  0  0  0  0  0  0  0  0
  1 18  1  0  0  0  0
  1  6  1  0  0  0  0
  2  1  2  0  0  0  0
  3  2  1  0  0  0  0
  3  4  2  0  0  0  0
  4  5  1  0  0  0  0
  5  6  2  0  0  0  0
  5 33  1  0  0  0  0
  7  2  1  0  0  0  0
  8  7  2  0  0  0  0
  8  9  1  0  0  0  0
 10  8  1  0  0  0  0
 11 10  1  0  0  0  0
 12 10  2  0  0  0  0
 12 14  1  0  0  0  0
 13 12  1  0  0  0  0
 14  7  1  0  0  0  0
 15 17  1  0  0  0  0
 15  3  1  0  0  0  0
 16 15  1  0  0  0  0
 19 20  1  0  0  0  0
 20 18  1  0  0  0  0
 20 21  2  0  0  0  0
 21 29  1  0  0  0  0
 22 21  1  0  0  0  0
 22 27  1  0  0  0  0
 23 22  2  0  0  0  0
 24 19  2  0  0  0  0
 24 23  1  0  0  0  0
 25 23  1  0  0  0  0
 25 26  1  0  0  0  0
 26 27  1  0  0  0  0
 26 31  1  0  0  0  0
 28 19  1  0  0  0  0
 30 24  1  0  0  0  0
 32 26  1  0  0  0  0
 34 35  1  0  0  0  0
 34 37  1  0  0  0  0
 34 33  1  0  0  0  0
 36 34  1  0  0  0  0
M  END
>  <minimizedAffinity>
-5.50145674

>  <minimizedRMSD>
0.449842393

$$$$
