
 OpenBabel03252504143D

 34 36  0  0  0  0  0  0  0  0999 V2000
   47.6880   29.9380   44.8280 F   0  0  0  0  0  0  0  0  0  0  0  0
   47.5990   30.6660   45.9880 C   0  0  0  0  0  0  0  0  0  0  0  0
   47.0350   31.9190   45.9610 C   0  0  0  0  0  0  0  0  0  0  0  0
   46.9860   32.5860   47.1850 C   0  0  0  0  0  0  0  0  0  0  0  0
   47.4730   32.0190   48.3380 C   0  0  0  0  0  0  0  0  0  0  0  0
   48.0270   30.7510   48.2850 C   0  0  0  0  0  0  0  0  0  0  0  0
   48.1070   30.0360   47.1060 C   0  0  0  0  0  0  0  0  0  0  0  0
   46.5460   33.5860   47.2160 H   0  0  0  0  0  0  0  0  0  0  0  0
   47.4330   32.5370   49.2800 H   0  0  0  0  0  0  0  0  0  0  0  0
   48.4180   30.2830   49.1800 H   0  0  0  0  0  0  0  0  0  0  0  0
   48.6900   28.6990   47.0410 C   0  0  0  0  0  0  0  0  0  0  0  0
   48.0360   27.5630   47.4700 C   0  0  0  0  0  0  0  0  0  0  0  0
   47.0580   27.5200   47.8870 H   0  0  0  0  0  0  0  0  0  0  0  0
   48.9680   26.5570   47.2140 C   0  0  0  0  0  0  0  0  0  0  0  0
   48.8030   25.4980   47.4260 H   0  0  0  0  0  0  0  0  0  0  0  0
   50.1060   27.1200   46.6590 C   0  0  0  0  0  0  0  0  0  0  0  0
   51.0140   26.6260   46.3420 H   0  0  0  0  0  0  0  0  0  0  0  0
   49.8640   28.4150   46.5860 O   0  0  0  0  0  0  0  0  0  0  0  0
   46.8040   34.1020   43.0630 C   0  0  0  0  0  0  0  0  0  0  0  0
   45.6300   33.7040   42.4210 C   0  0  0  0  0  0  0  0  0  0  0  0
   44.9090   32.6530   43.0170 C   0  0  0  0  0  0  0  0  0  0  0  0
   45.3700   32.0830   44.1590 N   0  0  0  0  0  0  0  0  0  0  0  0
   46.5190   32.5150   44.7340 C   0  0  0  0  0  0  0  0  0  0  0  0
   47.2340   33.5240   44.1870 N   0  0  0  0  0  0  0  0  0  0  0  0
   43.9950   32.3220   42.5420 H   0  0  0  0  0  0  0  0  0  0  0  0
   45.1980   34.3770   41.1810 C   0  0  0  0  0  0  0  0  0  0  0  0
   44.9080   35.6970   41.4410 F   0  0  0  0  0  0  0  0  0  0  0  0
   46.2670   34.3600   40.2940 F   0  0  0  0  0  0  0  0  0  0  0  0
   44.1280   33.8130   40.5750 F   0  0  0  0  0  0  0  0  0  0  0  0
   47.5010   35.1220   42.4860 O   0  0  0  0  0  0  0  0  0  0  0  0
   48.8040   35.0460   41.9410 C   0  0  0  0  0  0  0  0  0  0  0  0
   49.6870   35.2900   42.9980 F   0  0  0  0  0  0  0  0  0  0  0  0
   49.0050   33.8310   41.3430 F   0  0  0  0  0  0  0  0  0  0  0  0
   49.0090   36.0990   41.0780 F   0  0  0  0  0  0  0  0  0  0  0  0
  1  2  1  0  0  0  0
  2  7  1  0  0  0  0
  3  2  2  0  0  0  0
  3  4  1  0  0  0  0
  4  8  1  0  0  0  0
  4  5  2  0  0  0  0
  5  9  1  0  0  0  0
  6  5  1  0  0  0  0
  6 10  1  0  0  0  0
  7  6  2  0  0  0  0
 11  7  1  0  0  0  0
 11 12  2  0  0  0  0
 12 13  1  0  0  0  0
 14 15  1  0  0  0  0
 14 12  1  0  0  0  0
 16 14  2  0  0  0  0
 17 16  1  0  0  0  0
 18 16  1  0  0  0  0
 18 11  1  0  0  0  0
 19 24  1  0  0  0  0
 20 21  1  0  0  0  0
 20 19  2  0  0  0  0
 21 22  2  0  0  0  0
 22 23  1  0  0  0  0
 23  3  1  0  0  0  0
 24 23  2  0  0  0  0
 25 21  1  0  0  0  0
 26 27  1  0  0  0  0
 26 20  1  0  0  0  0
 28 26  1  0  0  0  0
 29 26  1  0  0  0  0
 30 19  1  0  0  0  0
 31 30  1  0  0  0  0
 31 32  1  0  0  0  0
 33 31  1  0  0  0  0
 34 31  1  0  0  0  0
M  END
>  <minimizedAffinity>
-5.47704601

>  <minimizedRMSD>
0.0383174047

$$$$
