
 OpenBabel03252504143D

 34 36  0  0  0  0  0  0  0  0999 V2000
   47.6270   30.0390   44.8800 F   0  0  0  0  0  0  0  0  0  0  0  0
   47.5100   30.7960   46.0190 C   0  0  0  0  0  0  0  0  0  0  0  0
   46.9380   32.0440   45.9490 C   0  0  0  0  0  0  0  0  0  0  0  0
   46.8610   32.7420   47.1540 C   0  0  0  0  0  0  0  0  0  0  0  0
   47.3290   32.2080   48.3310 C   0  0  0  0  0  0  0  0  0  0  0  0
   47.8930   30.9430   48.3210 C   0  0  0  0  0  0  0  0  0  0  0  0
   48.0010   30.1980   47.1620 C   0  0  0  0  0  0  0  0  0  0  0  0
   46.4150   33.7390   47.1510 H   0  0  0  0  0  0  0  0  0  0  0  0
   47.2680   32.7490   49.2590 H   0  0  0  0  0  0  0  0  0  0  0  0
   48.2690   30.5010   49.2350 H   0  0  0  0  0  0  0  0  0  0  0  0
   48.5930   28.8650   47.1430 C   0  0  0  0  0  0  0  0  0  0  0  0
   47.8850   27.7130   47.4190 C   0  0  0  0  0  0  0  0  0  0  0  0
   46.8510   27.6560   47.6710 H   0  0  0  0  0  0  0  0  0  0  0  0
   48.8510   26.7160   47.2780 C   0  0  0  0  0  0  0  0  0  0  0  0
   48.6590   25.6520   47.4220 H   0  0  0  0  0  0  0  0  0  0  0  0
   50.0600   27.3000   46.9350 C   0  0  0  0  0  0  0  0  0  0  0  0
   51.0100   26.8160   46.7520 H   0  0  0  0  0  0  0  0  0  0  0  0
   49.8260   28.5950   46.8720 O   0  0  0  0  0  0  0  0  0  0  0  0
   46.7540   34.1480   42.9900 C   0  0  0  0  0  0  0  0  0  0  0  0
   45.5920   33.7280   42.3380 C   0  0  0  0  0  0  0  0  0  0  0  0
   44.8640   32.6910   42.9490 C   0  0  0  0  0  0  0  0  0  0  0  0
   45.3060   32.1540   44.1140 N   0  0  0  0  0  0  0  0  0  0  0  0
   46.4430   32.6050   44.6970 C   0  0  0  0  0  0  0  0  0  0  0  0
   47.1640   33.6010   44.1360 N   0  0  0  0  0  0  0  0  0  0  0  0
   43.9590   32.3440   42.4680 H   0  0  0  0  0  0  0  0  0  0  0  0
   45.1800   34.3660   41.0730 C   0  0  0  0  0  0  0  0  0  0  0  0
   44.8920   35.6930   41.2900 F   0  0  0  0  0  0  0  0  0  0  0  0
   46.2620   34.3200   40.2020 F   0  0  0  0  0  0  0  0  0  0  0  0
   44.1170   33.7880   40.4680 F   0  0  0  0  0  0  0  0  0  0  0  0
   47.4580   35.1530   42.3980 O   0  0  0  0  0  0  0  0  0  0  0  0
   48.7740   35.0700   41.8880 C   0  0  0  0  0  0  0  0  0  0  0  0
   49.6300   35.3240   42.9650 F   0  0  0  0  0  0  0  0  0  0  0  0
   48.9890   33.8490   41.3080 F   0  0  0  0  0  0  0  0  0  0  0  0
   49.0030   36.1140   41.0200 F   0  0  0  0  0  0  0  0  0  0  0  0
  1  2  1  0  0  0  0
  2  7  1  0  0  0  0
  3  2  2  0  0  0  0
  3  4  1  0  0  0  0
  4  5  2  0  0  0  0
  5  9  1  0  0  0  0
  6  5  1  0  0  0  0
  6 10  1  0  0  0  0
  7  6  2  0  0  0  0
  8  4  1  0  0  0  0
 11  7  1  0  0  0  0
 11 12  2  0  0  0  0
 12 13  1  0  0  0  0
 14 12  1  0  0  0  0
 14 15  1  0  0  0  0
 16 14  2  0  0  0  0
 17 16  1  0  0  0  0
 18 16  1  0  0  0  0
 18 11  1  0  0  0  0
 19 24  1  0  0  0  0
 20 21  1  0  0  0  0
 20 19  2  0  0  0  0
 21 22  2  0  0  0  0
 22 23  1  0  0  0  0
 23  3  1  0  0  0  0
 24 23  2  0  0  0  0
 25 21  1  0  0  0  0
 26 27  1  0  0  0  0
 26 20  1  0  0  0  0
 28 26  1  0  0  0  0
 29 26  1  0  0  0  0
 30 19  1  0  0  0  0
 31 30  1  0  0  0  0
 31 32  1  0  0  0  0
 33 31  1  0  0  0  0
 34 31  1  0  0  0  0
M  END
>  <minimizedAffinity>
-5.50723839

>  <minimizedRMSD>
0.27475208

$$$$
