
 OpenBabel03252508543D

 42 45  0  0  1  0  0  0  0  0999 V2000
   43.3100   34.4460   40.7760 C   0  0  0  0  0  0  0  0  0  0  0  0
   43.2380   35.6570   40.4250 O   0  0  0  0  0  0  0  0  0  0  0  0
   41.9650   34.0190   40.4680 N   0  0  0  0  0  0  0  0  0  0  0  0
   41.5700   34.1420   39.0820 C   0  0  0  0  0  0  0  0  0  0  0  0
   40.7420   35.4420   39.0210 C   0  0  0  0  0  0  0  0  0  0  0  0
   39.9560   35.5000   40.3210 C   0  0  0  0  0  0  0  0  0  0  0  0
   39.6350   34.1000   40.8510 C   0  0  0  0  0  0  0  0  0  0  0  0
   40.9280   33.4770   41.3460 C   0  0  1  0  0  0  0  0  0  0  0  0
   40.9330   33.2750   38.7930 H   0  0  0  0  0  0  0  0  0  0  0  0
   42.4130   34.2570   38.3970 H   0  0  0  0  0  0  0  0  0  0  0  0
   41.4440   36.3030   38.9650 H   0  0  0  0  0  0  0  0  0  0  0  0
   40.0310   35.4000   38.1770 H   0  0  0  0  0  0  0  0  0  0  0  0
   39.0530   36.1040   40.2250 H   0  0  0  0  0  0  0  0  0  0  0  0
   40.5830   35.9940   41.1150 H   0  0  0  0  0  0  0  0  0  0  0  0
   39.2380   33.4850   40.0470 H   0  0  0  0  0  0  0  0  0  0  0  0
   38.9440   34.2770   41.7010 H   0  0  0  0  0  0  0  0  0  0  0  0
   41.1250   33.9310   42.3440 H   0  0  0  0  0  0  0  0  0  0  0  0
   40.9170   32.0170   41.3590 C   0  0  0  0  0  0  0  0  0  0  0  0
   41.0930   31.1420   40.2990 C   0  0  0  0  0  0  0  0  0  0  0  0
   41.2720   31.4080   39.2720 H   0  0  0  0  0  0  0  0  0  0  0  0
   40.9900   29.8840   40.8570 C   0  0  0  0  0  0  0  0  0  0  0  0
   41.0710   28.9300   40.3510 H   0  0  0  0  0  0  0  0  0  0  0  0
   40.7550   30.0790   42.2230 C   0  0  0  0  0  0  0  0  0  0  0  0
   40.6250   29.2800   42.9480 H   0  0  0  0  0  0  0  0  0  0  0  0
   40.7150   31.3780   42.5030 O   0  0  0  0  0  0  0  0  0  0  0  0
   44.3840   33.7670   41.2970 O   0  0  0  0  0  0  0  0  0  0  0  0
   45.7110   34.1050   41.1360 C   0  0  0  0  0  0  0  0  0  0  0  0
   46.3570   34.7410   42.2070 C   0  0  0  0  0  0  0  0  0  0  0  0
   47.7120   35.0690   42.0040 C   0  0  0  0  0  0  0  0  0  0  0  0
   48.2990   34.7540   40.8050 N   0  0  0  0  0  0  0  0  0  0  0  0
   47.6300   34.1530   39.8350 C   0  0  0  0  0  0  0  0  0  0  0  0
   46.3340   33.8190   39.9790 N   0  0  0  0  0  0  0  0  0  0  0  0
   48.2400   35.5590   42.8040 H   0  0  0  0  0  0  0  0  0  0  0  0
   48.0780   33.8960   38.8790 H   0  0  0  0  0  0  0  0  0  0  0  0
   45.6390   35.0230   43.4260 C   0  0  0  0  0  0  0  0  0  0  0  0
   45.0010   36.2410   43.6490 C   0  0  0  0  0  0  0  0  0  0  0  0
   44.4520   36.0880   44.9060 C   0  0  0  0  0  0  0  0  0  0  0  0
   44.7390   34.8650   45.4040 N   0  0  0  0  0  0  0  0  0  0  0  0
   45.4570   34.2370   44.4920 N   0  0  0  0  0  0  0  0  0  0  0  0
   44.9360   37.1100   43.0120 H   0  0  0  0  0  0  0  0  0  0  0  0
   43.8590   36.8410   45.4500 H   0  0  0  0  0  0  0  0  0  0  0  0
   44.4850   34.4170   46.3180 H   0  0  0  0  0  0  0  0  0  0  0  0
  1 26  1  0  0  0  0
  2  1  2  0  0  0  0
  3  1  1  0  0  0  0
  3  8  1  0  0  0  0
  4  3  1  0  0  0  0
  5  4  1  0  0  0  0
  5  6  1  0  0  0  0
  6  7  1  0  0  0  0
  6 14  1  0  0  0  0
  7  8  1  0  0  0  0
  7 16  1  0  0  0  0
  8 18  1  0  0  0  0
  8 17  1  1  0  0  0
  9  4  1  0  0  0  0
 10  4  1  0  0  0  0
 11  5  1  0  0  0  0
 12  5  1  0  0  0  0
 13  6  1  0  0  0  0
 15  7  1  0  0  0  0
 18 25  1  0  0  0  0
 19 21  1  0  0  0  0
 19 18  2  0  0  0  0
 20 19  1  0  0  0  0
 21 23  2  0  0  0  0
 22 21  1  0  0  0  0
 23 25  1  0  0  0  0
 23 24  1  0  0  0  0
 27 26  1  0  0  0  0
 27 28  1  0  0  0  0
 28 35  1  0  0  0  0
 29 28  2  0  0  0  0
 29 33  1  0  0  0  0
 30 29  1  0  0  0  0
 31 32  1  0  0  0  0
 31 30  2  0  0  0  0
 32 27  2  0  0  0  0
 34 31  1  0  0  0  0
 35 36  1  0  0  0  0
 35 39  2  0  0  0  0
 36 37  2  0  0  0  0
 37 38  1  0  0  0  0
 37 41  1  0  0  0  0
 38 42  1  0  0  0  0
 39 38  1  0  0  0  0
 40 36  1  0  0  0  0
M  END
>  <minimizedAffinity>
-6.56846809

>  <minimizedRMSD>
0.243907005

$$$$
