
 OpenBabel03252506583D

 37 41  0  0  0  0  0  0  0  0999 V2000
   37.8730   29.1940   40.0390 C   0  0  0  0  0  0  0  0  0  0  0  0
   38.5390   29.5910   41.1910 C   0  0  0  0  0  0  0  0  0  0  0  0
   38.7020   30.9090   41.5450 C   0  0  0  0  0  0  0  0  0  0  0  0
   38.1890   31.9200   40.7340 C   0  0  0  0  0  0  0  0  0  0  0  0
   38.1550   33.2850   40.7550 N   0  0  0  0  0  0  0  0  0  0  0  0
   37.4910   33.7180   39.6540 C   0  0  0  0  0  0  0  0  0  0  0  0
   37.1200   32.6150   38.9610 N   0  0  0  0  0  0  0  0  0  0  0  0
   37.5370   31.4990   39.6020 C   0  0  0  0  0  0  0  0  0  0  0  0
   37.3550   30.2030   39.2190 C   0  0  0  0  0  0  0  0  0  0  0  0
   37.7590   28.1520   39.7840 H   0  0  0  0  0  0  0  0  0  0  0  0
   39.2230   31.2270   42.4460 H   0  0  0  0  0  0  0  0  0  0  0  0
   38.5930   33.8350   41.5290 H   0  0  0  0  0  0  0  0  0  0  0  0
   37.3350   34.7630   39.4520 H   0  0  0  0  0  0  0  0  0  0  0  0
   38.8480   26.5390   43.2350 C   0  0  0  0  0  0  0  0  0  0  0  0
   40.1530   26.6480   43.7280 C   0  0  0  0  0  0  0  0  0  0  0  0
   40.9150   27.7570   43.3620 C   0  0  0  0  0  0  0  0  0  0  0  0
   40.3500   28.6950   42.5320 N   0  0  0  0  0  0  0  0  0  0  0  0
   39.0940   28.5640   42.0730 C   0  0  0  0  0  0  0  0  0  0  0  0
   38.3370   27.4960   42.4160 N   0  0  0  0  0  0  0  0  0  0  0  0
   38.2790   25.6670   43.5350 H   0  0  0  0  0  0  0  0  0  0  0  0
   40.6210   25.9290   44.3790 H   0  0  0  0  0  0  0  0  0  0  0  0
   41.9260   27.9370   43.6850 H   0  0  0  0  0  0  0  0  0  0  0  0
   36.6390   29.8650   37.9860 C   0  0  0  0  0  0  0  0  0  0  0  0
   35.4640   29.1530   37.9370 C   0  0  0  0  0  0  0  0  0  0  0  0
   35.1520   29.0700   36.5770 C   0  0  0  0  0  0  0  0  0  0  0  0
   36.1460   29.7300   35.8890 C   0  0  0  0  0  0  0  0  0  0  0  0
   37.0180   30.1900   36.7890 O   0  0  0  0  0  0  0  0  0  0  0  0
   34.8590   28.7210   38.7250 H   0  0  0  0  0  0  0  0  0  0  0  0
   34.3160   28.6000   36.0840 H   0  0  0  0  0  0  0  0  0  0  0  0
   36.3370   29.9590   34.4590 C   0  0  0  0  0  0  0  0  0  0  0  0
   36.3370   31.2570   33.9400 C   0  0  0  0  0  0  0  0  0  0  0  0
   36.2050   32.2040   34.4820 H   0  0  0  0  0  0  0  0  0  0  0  0
   36.5340   31.2070   32.5750 C   0  0  0  0  0  0  0  0  0  0  0  0
   36.5990   31.9600   31.8120 H   0  0  0  0  0  0  0  0  0  0  0  0
   36.6470   29.8550   32.3280 C   0  0  0  0  0  0  0  0  0  0  0  0
   36.8070   29.2870   31.4290 H   0  0  0  0  0  0  0  0  0  0  0  0
   36.5280   29.1500   33.4430 O   0  0  0  0  0  0  0  0  0  0  0  0
  1  2  1  0  0  0  0
  2  3  2  0  0  0  0
  2 18  1  0  0  0  0
  3 11  1  0  0  0  0
  4  5  1  0  0  0  0
  4  3  1  0  0  0  0
  5 12  1  0  0  0  0
  6  5  1  0  0  0  0
  7  8  1  0  0  0  0
  7  6  2  0  0  0  0
  8  4  2  0  0  0  0
  9  8  1  0  0  0  0
  9  1  2  0  0  0  0
 10  1  1  0  0  0  0
 13  6  1  0  0  0  0
 14 20  1  0  0  0  0
 14 15  1  0  0  0  0
 15 21  1  0  0  0  0
 16 22  1  0  0  0  0
 16 15  2  0  0  0  0
 17 16  1  0  0  0  0
 18 19  1  0  0  0  0
 18 17  2  0  0  0  0
 19 14  2  0  0  0  0
 23  9  1  0  0  0  0
 24 23  2  0  0  0  0
 24 28  1  0  0  0  0
 25 24  1  0  0  0  0
 26 25  2  0  0  0  0
 26 27  1  0  0  0  0
 27 23  1  0  0  0  0
 29 25  1  0  0  0  0
 30 26  1  0  0  0  0
 31 30  2  0  0  0  0
 31 32  1  0  0  0  0
 33 31  1  0  0  0  0
 34 33  1  0  0  0  0
 35 33  2  0  0  0  0
 35 37  1  0  0  0  0
 36 35  1  0  0  0  0
 37 30  1  0  0  0  0
M  END
>  <minimizedAffinity>
-6.25983667

$$$$

 OpenBabel03252506583D

 37 41  0  0  0  0  0  0  0  0999 V2000
   36.8720   25.9750   40.5540 C   0  0  0  0  0  0  0  0  0  0  0  0
   37.3100   24.6860   40.8280 C   0  0  0  0  0  0  0  0  0  0  0  0
   38.2540   24.4050   41.7880 C   0  0  0  0  0  0  0  0  0  0  0  0
   38.8170   25.4360   42.5380 C   0  0  0  0  0  0  0  0  0  0  0  0
   39.7440   25.5420   43.5360 N   0  0  0  0  0  0  0  0  0  0  0  0
   39.8730   26.8510   43.8670 C   0  0  0  0  0  0  0  0  0  0  0  0
   39.0250   27.5430   43.0700 N   0  0  0  0  0  0  0  0  0  0  0  0
   38.3660   26.6990   42.2450 C   0  0  0  0  0  0  0  0  0  0  0  0
   37.4330   27.0160   41.3030 C   0  0  0  0  0  0  0  0  0  0  0  0
   36.1300   26.1680   39.7950 H   0  0  0  0  0  0  0  0  0  0  0  0
   38.6030   23.3980   42.0070 H   0  0  0  0  0  0  0  0  0  0  0  0
   40.2300   24.7040   43.9270 H   0  0  0  0  0  0  0  0  0  0  0  0
   40.5500   27.1840   44.6350 H   0  0  0  0  0  0  0  0  0  0  0  0
   37.0150   21.4840   39.0270 C   0  0  0  0  0  0  0  0  0  0  0  0
   35.6720   21.4930   38.6330 C   0  0  0  0  0  0  0  0  0  0  0  0
   34.8800   22.5850   38.9830 C   0  0  0  0  0  0  0  0  0  0  0  0
   35.4540   23.6070   39.7010 N   0  0  0  0  0  0  0  0  0  0  0  0
   36.7470   23.5730   40.0650 C   0  0  0  0  0  0  0  0  0  0  0  0
   37.5330   22.5220   39.7360 N   0  0  0  0  0  0  0  0  0  0  0  0
   37.6070   20.6230   38.7410 H   0  0  0  0  0  0  0  0  0  0  0  0
   35.1960   20.7070   38.0720 H   0  0  0  0  0  0  0  0  0  0  0  0
   33.8390   22.6910   38.7320 H   0  0  0  0  0  0  0  0  0  0  0  0
   37.0210   28.4030   41.0730 C   0  0  0  0  0  0  0  0  0  0  0  0
   35.7200   28.8140   40.9140 C   0  0  0  0  0  0  0  0  0  0  0  0
   35.8010   30.1960   40.7220 C   0  0  0  0  0  0  0  0  0  0  0  0
   37.1340   30.5380   40.7760 C   0  0  0  0  0  0  0  0  0  0  0  0
   37.8260   29.4170   40.9900 O   0  0  0  0  0  0  0  0  0  0  0  0
   34.7900   28.2570   40.9210 H   0  0  0  0  0  0  0  0  0  0  0  0
   35.0200   30.9220   40.5570 H   0  0  0  0  0  0  0  0  0  0  0  0
   37.8010   31.8310   40.6430 C   0  0  0  0  0  0  0  0  0  0  0  0
   37.2600   32.8310   39.8310 C   0  0  0  0  0  0  0  0  0  0  0  0
   36.3400   32.7940   39.2310 H   0  0  0  0  0  0  0  0  0  0  0  0
   38.0710   33.9470   39.8730 C   0  0  0  0  0  0  0  0  0  0  0  0
   38.0200   34.9120   39.4050 H   0  0  0  0  0  0  0  0  0  0  0  0
   39.0840   33.5620   40.7250 C   0  0  0  0  0  0  0  0  0  0  0  0
   39.9630   34.0620   41.0890 H   0  0  0  0  0  0  0  0  0  0  0  0
   38.9030   32.3240   41.1590 O   0  0  0  0  0  0  0  0  0  0  0  0
  1  2  2  0  0  0  0
  1  9  1  0  0  0  0
  2  3  1  0  0  0  0
  3 11  1  0  0  0  0
  3  4  2  0  0  0  0
  4  5  1  0  0  0  0
  5  6  1  0  0  0  0
  5 12  1  0  0  0  0
  6 13  1  0  0  0  0
  7  6  2  0  0  0  0
  8  4  1  0  0  0  0
  8  7  1  0  0  0  0
  9  8  2  0  0  0  0
 10  1  1  0  0  0  0
 14 19  1  0  0  0  0
 15 16  1  0  0  0  0
 15 14  2  0  0  0  0
 16 17  2  0  0  0  0
 17 18  1  0  0  0  0
 18  2  1  0  0  0  0
 19 18  2  0  0  0  0
 20 14  1  0  0  0  0
 21 15  1  0  0  0  0
 22 16  1  0  0  0  0
 23  9  1  0  0  0  0
 24 28  1  0  0  0  0
 24 23  2  0  0  0  0
 25 26  2  0  0  0  0
 25 24  1  0  0  0  0
 26 27  1  0  0  0  0
 27 23  1  0  0  0  0
 29 25  1  0  0  0  0
 30 26  1  0  0  0  0
 30 37  1  0  0  0  0
 31 33  1  0  0  0  0
 31 30  2  0  0  0  0
 32 31  1  0  0  0  0
 33 35  2  0  0  0  0
 34 33  1  0  0  0  0
 35 36  1  0  0  0  0
 35 37  1  0  0  0  0
M  END
>  <minimizedAffinity>
-6.22579145

$$$$

 OpenBabel03252506583D

 37 41  0  0  0  0  0  0  0  0999 V2000
   36.5250   30.5440   38.9690 C   0  0  0  0  0  0  0  0  0  0  0  0
   35.6850   29.4400   38.9430 C   0  0  0  0  0  0  0  0  0  0  0  0
   35.5600   28.5690   40.0000 C   0  0  0  0  0  0  0  0  0  0  0  0
   36.2960   28.7740   41.1660 C   0  0  0  0  0  0  0  0  0  0  0  0
   36.4310   28.1510   42.3730 N   0  0  0  0  0  0  0  0  0  0  0  0
   37.3240   28.8460   43.1200 C   0  0  0  0  0  0  0  0  0  0  0  0
   37.7330   29.8950   42.3670 N   0  0  0  0  0  0  0  0  0  0  0  0
   37.1180   29.8730   41.1630 C   0  0  0  0  0  0  0  0  0  0  0  0
   37.2670   30.7570   40.1370 C   0  0  0  0  0  0  0  0  0  0  0  0
   36.6050   31.2130   38.1260 H   0  0  0  0  0  0  0  0  0  0  0  0
   34.9050   27.7010   39.9860 H   0  0  0  0  0  0  0  0  0  0  0  0
   35.8990   27.2820   42.6080 H   0  0  0  0  0  0  0  0  0  0  0  0
   37.5960   28.5460   44.1180 H   0  0  0  0  0  0  0  0  0  0  0  0
   32.8330   28.6730   36.7370 C   0  0  0  0  0  0  0  0  0  0  0  0
   33.4260   28.7070   35.4700 C   0  0  0  0  0  0  0  0  0  0  0  0
   34.7880   28.9900   35.3770 C   0  0  0  0  0  0  0  0  0  0  0  0
   35.4890   29.2240   36.5360 N   0  0  0  0  0  0  0  0  0  0  0  0
   34.8940   29.1840   37.7390 C   0  0  0  0  0  0  0  0  0  0  0  0
   33.5730   28.9110   37.8520 N   0  0  0  0  0  0  0  0  0  0  0  0
   31.7740   28.4510   36.7800 H   0  0  0  0  0  0  0  0  0  0  0  0
   32.9020   28.5290   34.5470 H   0  0  0  0  0  0  0  0  0  0  0  0
   35.3400   29.0410   34.4540 H   0  0  0  0  0  0  0  0  0  0  0  0
   38.1760   31.9030   40.2420 C   0  0  0  0  0  0  0  0  0  0  0  0
   37.7940   33.2160   40.1060 C   0  0  0  0  0  0  0  0  0  0  0  0
   38.9710   33.9510   40.2790 C   0  0  0  0  0  0  0  0  0  0  0  0
   39.9850   33.0490   40.5080 C   0  0  0  0  0  0  0  0  0  0  0  0
   39.4500   31.8260   40.4740 O   0  0  0  0  0  0  0  0  0  0  0  0
   36.8260   33.6600   39.9080 H   0  0  0  0  0  0  0  0  0  0  0  0
   39.1340   35.0170   40.2540 H   0  0  0  0  0  0  0  0  0  0  0  0
   41.4120   33.2480   40.7540 C   0  0  0  0  0  0  0  0  0  0  0  0
   42.1460   34.1570   39.9880 C   0  0  0  0  0  0  0  0  0  0  0  0
   41.7910   34.7940   39.1660 H   0  0  0  0  0  0  0  0  0  0  0  0
   43.4600   34.1610   40.4130 C   0  0  0  0  0  0  0  0  0  0  0  0
   44.3330   34.7020   40.1000 H   0  0  0  0  0  0  0  0  0  0  0  0
   43.4570   33.2370   41.4360 C   0  0  0  0  0  0  0  0  0  0  0  0
   44.2260   32.8710   42.0920 H   0  0  0  0  0  0  0  0  0  0  0  0
   42.2510   32.7200   41.6140 O   0  0  0  0  0  0  0  0  0  0  0  0
  1  9  1  0  0  0  0
  2  1  2  0  0  0  0
  2  3  1  0  0  0  0
  3  4  2  0  0  0  0
  4  5  1  0  0  0  0
  5 12  1  0  0  0  0
  5  6  1  0  0  0  0
  6 13  1  0  0  0  0
  7  6  2  0  0  0  0
  8  4  1  0  0  0  0
  8  7  1  0  0  0  0
  9 23  1  0  0  0  0
  9  8  2  0  0  0  0
 10  1  1  0  0  0  0
 11  3  1  0  0  0  0
 14 20  1  0  0  0  0
 14 19  1  0  0  0  0
 15 14  2  0  0  0  0
 16 15  1  0  0  0  0
 16 17  2  0  0  0  0
 17 18  1  0  0  0  0
 18 19  2  0  0  0  0
 18  2  1  0  0  0  0
 21 15  1  0  0  0  0
 22 16  1  0  0  0  0
 23 27  1  0  0  0  0
 24 23  2  0  0  0  0
 24 25  1  0  0  0  0
 25 26  2  0  0  0  0
 26 30  1  0  0  0  0
 27 26  1  0  0  0  0
 28 24  1  0  0  0  0
 29 25  1  0  0  0  0
 30 37  1  0  0  0  0
 31 33  1  0  0  0  0
 31 30  2  0  0  0  0
 32 31  1  0  0  0  0
 33 35  2  0  0  0  0
 34 33  1  0  0  0  0
 35 37  1  0  0  0  0
 35 36  1  0  0  0  0
M  END
>  <minimizedAffinity>
-6.00945473

$$$$

 OpenBabel03252506583D

 37 41  0  0  0  0  0  0  0  0999 V2000
   40.6990   30.6560   41.4590 C   0  0  0  0  0  0  0  0  0  0  0  0
   40.6560   31.9750   41.0270 C   0  0  0  0  0  0  0  0  0  0  0  0
   39.4850   32.6210   40.7080 C   0  0  0  0  0  0  0  0  0  0  0  0
   38.2670   31.9520   40.8110 C   0  0  0  0  0  0  0  0  0  0  0  0
   36.9520   32.2500   40.5910 N   0  0  0  0  0  0  0  0  0  0  0  0
   36.2070   31.1530   40.8770 C   0  0  0  0  0  0  0  0  0  0  0  0
   37.0690   30.1850   41.2720 N   0  0  0  0  0  0  0  0  0  0  0  0
   38.3390   30.6490   41.2390 C   0  0  0  0  0  0  0  0  0  0  0  0
   39.4790   29.9770   41.5640 C   0  0  0  0  0  0  0  0  0  0  0  0
   41.6310   30.1720   41.7030 H   0  0  0  0  0  0  0  0  0  0  0  0
   39.4450   33.6540   40.3690 H   0  0  0  0  0  0  0  0  0  0  0  0
   36.6490   33.1920   40.2560 H   0  0  0  0  0  0  0  0  0  0  0  0
   35.1350   31.1450   40.7790 H   0  0  0  0  0  0  0  0  0  0  0  0
   43.8650   33.5740   41.8840 C   0  0  0  0  0  0  0  0  0  0  0  0
   44.2610   34.1110   40.6540 C   0  0  0  0  0  0  0  0  0  0  0  0
   43.4360   33.9250   39.5460 C   0  0  0  0  0  0  0  0  0  0  0  0
   42.2670   33.2210   39.7110 N   0  0  0  0  0  0  0  0  0  0  0  0
   41.9110   32.7160   40.9040 C   0  0  0  0  0  0  0  0  0  0  0  0
   42.6980   32.8850   41.9920 N   0  0  0  0  0  0  0  0  0  0  0  0
   44.5260   33.7330   42.7280 H   0  0  0  0  0  0  0  0  0  0  0  0
   45.1710   34.6650   40.4960 H   0  0  0  0  0  0  0  0  0  0  0  0
   43.6460   34.2950   38.5580 H   0  0  0  0  0  0  0  0  0  0  0  0
   39.4410   28.5820   42.0140 C   0  0  0  0  0  0  0  0  0  0  0  0
   40.0520   28.1130   43.1510 C   0  0  0  0  0  0  0  0  0  0  0  0
   39.7550   26.7470   43.1800 C   0  0  0  0  0  0  0  0  0  0  0  0
   38.9890   26.4720   42.0690 C   0  0  0  0  0  0  0  0  0  0  0  0
   38.8290   27.6160   41.4000 O   0  0  0  0  0  0  0  0  0  0  0  0
   40.6460   28.6190   43.9030 H   0  0  0  0  0  0  0  0  0  0  0  0
   40.0340   25.9900   43.8960 H   0  0  0  0  0  0  0  0  0  0  0  0
   38.3980   25.2240   41.5930 C   0  0  0  0  0  0  0  0  0  0  0  0
   37.0360   25.1520   41.2890 C   0  0  0  0  0  0  0  0  0  0  0  0
   36.2820   25.9480   41.3590 H   0  0  0  0  0  0  0  0  0  0  0  0
   36.7260   23.8760   40.8630 C   0  0  0  0  0  0  0  0  0  0  0  0
   35.8150   23.4080   40.5410 H   0  0  0  0  0  0  0  0  0  0  0  0
   37.9400   23.2250   40.9300 C   0  0  0  0  0  0  0  0  0  0  0  0
   38.2420   22.2170   40.7070 H   0  0  0  0  0  0  0  0  0  0  0  0
   38.8970   24.0330   41.3580 O   0  0  0  0  0  0  0  0  0  0  0  0
  1  9  1  0  0  0  0
  1 10  1  0  0  0  0
  2  1  2  0  0  0  0
  3  4  2  0  0  0  0
  3  2  1  0  0  0  0
  4  8  1  0  0  0  0
  5  4  1  0  0  0  0
  5  6  1  0  0  0  0
  6  7  2  0  0  0  0
  8  7  1  0  0  0  0
  8  9  2  0  0  0  0
  9 23  1  0  0  0  0
 11  3  1  0  0  0  0
 12  5  1  0  0  0  0
 13  6  1  0  0  0  0
 14 19  1  0  0  0  0
 14 20  1  0  0  0  0
 15 14  2  0  0  0  0
 16 17  2  0  0  0  0
 16 15  1  0  0  0  0
 17 18  1  0  0  0  0
 18  2  1  0  0  0  0
 18 19  2  0  0  0  0
 21 15  1  0  0  0  0
 22 16  1  0  0  0  0
 23 24  2  0  0  0  0
 24 25  1  0  0  0  0
 24 28  1  0  0  0  0
 25 29  1  0  0  0  0
 26 25  2  0  0  0  0
 27 23  1  0  0  0  0
 27 26  1  0  0  0  0
 30 26  1  0  0  0  0
 31 32  1  0  0  0  0
 31 30  2  0  0  0  0
 33 35  2  0  0  0  0
 33 31  1  0  0  0  0
 34 33  1  0  0  0  0
 35 37  1  0  0  0  0
 36 35  1  0  0  0  0
 37 30  1  0  0  0  0
M  END
>  <minimizedAffinity>
-5.98305559

$$$$

 OpenBabel03252506583D

 37 41  0  0  0  0  0  0  0  0999 V2000
   40.7950   30.7380   38.0270 C   0  0  0  0  0  0  0  0  0  0  0  0
   41.7340   31.7290   37.7750 C   0  0  0  0  0  0  0  0  0  0  0  0
   41.5980   33.0210   38.2250 C   0  0  0  0  0  0  0  0  0  0  0  0
   40.4800   33.3880   38.9710 C   0  0  0  0  0  0  0  0  0  0  0  0
   40.0160   34.5270   39.5640 N   0  0  0  0  0  0  0  0  0  0  0  0
   38.8310   34.2500   40.1630 C   0  0  0  0  0  0  0  0  0  0  0  0
   38.5720   32.9400   39.9340 N   0  0  0  0  0  0  0  0  0  0  0  0
   39.5680   32.3890   39.2040 C   0  0  0  0  0  0  0  0  0  0  0  0
   39.6680   31.0990   38.7750 C   0  0  0  0  0  0  0  0  0  0  0  0
   40.9250   29.7310   37.6620 H   0  0  0  0  0  0  0  0  0  0  0  0
   42.3300   33.8030   38.0300 H   0  0  0  0  0  0  0  0  0  0  0  0
   40.5460   35.4270   39.5190 H   0  0  0  0  0  0  0  0  0  0  0  0
   38.2700   34.9960   40.6990 H   0  0  0  0  0  0  0  0  0  0  0  0
   43.9530   30.1100   35.3160 C   0  0  0  0  0  0  0  0  0  0  0  0
   45.1680   30.7660   35.5430 C   0  0  0  0  0  0  0  0  0  0  0  0
   45.2220   31.7510   36.5270 C   0  0  0  0  0  0  0  0  0  0  0  0
   44.0780   32.0350   37.2330 N   0  0  0  0  0  0  0  0  0  0  0  0
   42.9240   31.3890   36.9950 C   0  0  0  0  0  0  0  0  0  0  0  0
   42.8500   30.4290   36.0440 N   0  0  0  0  0  0  0  0  0  0  0  0
   43.9390   29.3490   34.5450 H   0  0  0  0  0  0  0  0  0  0  0  0
   46.0790   30.5640   35.0050 H   0  0  0  0  0  0  0  0  0  0  0  0
   46.1040   32.3150   36.7800 H   0  0  0  0  0  0  0  0  0  0  0  0
   38.6320   30.1090   39.0840 C   0  0  0  0  0  0  0  0  0  0  0  0
   37.5660   29.8170   38.2690 C   0  0  0  0  0  0  0  0  0  0  0  0
   36.8510   28.8300   38.9550 C   0  0  0  0  0  0  0  0  0  0  0  0
   37.5200   28.5860   40.1330 C   0  0  0  0  0  0  0  0  0  0  0  0
   38.5880   29.3850   40.1600 O   0  0  0  0  0  0  0  0  0  0  0  0
   37.2750   30.2150   37.3040 H   0  0  0  0  0  0  0  0  0  0  0  0
   35.9440   28.3130   38.6820 H   0  0  0  0  0  0  0  0  0  0  0  0
   37.2330   27.6630   41.2290 C   0  0  0  0  0  0  0  0  0  0  0  0
   36.7430   28.1370   42.4480 C   0  0  0  0  0  0  0  0  0  0  0  0
   36.5230   29.1750   42.7340 H   0  0  0  0  0  0  0  0  0  0  0  0
   36.5540   27.0770   43.3120 C   0  0  0  0  0  0  0  0  0  0  0  0
   36.2010   27.0050   44.3240 H   0  0  0  0  0  0  0  0  0  0  0  0
   36.9460   25.9910   42.5590 C   0  0  0  0  0  0  0  0  0  0  0  0
   36.9930   24.9370   42.7660 H   0  0  0  0  0  0  0  0  0  0  0  0
   37.3370   26.3600   41.3490 O   0  0  0  0  0  0  0  0  0  0  0  0
  1  9  1  0  0  0  0
  2  1  2  0  0  0  0
  2  3  1  0  0  0  0
  3  4  2  0  0  0  0
  4  8  1  0  0  0  0
  4  5  1  0  0  0  0
  5  6  1  0  0  0  0
  6 13  1  0  0  0  0
  7  6  2  0  0  0  0
  8  7  1  0  0  0  0
  9 23  1  0  0  0  0
  9  8  2  0  0  0  0
 10  1  1  0  0  0  0
 11  3  1  0  0  0  0
 12  5  1  0  0  0  0
 14 15  2  0  0  0  0
 14 19  1  0  0  0  0
 15 16  1  0  0  0  0
 16 22  1  0  0  0  0
 16 17  2  0  0  0  0
 18 17  1  0  0  0  0
 18  2  1  0  0  0  0
 19 18  2  0  0  0  0
 20 14  1  0  0  0  0
 21 15  1  0  0  0  0
 23 27  1  0  0  0  0
 24 25  1  0  0  0  0
 24 23  2  0  0  0  0
 25 26  2  0  0  0  0
 26 27  1  0  0  0  0
 26 30  1  0  0  0  0
 28 24  1  0  0  0  0
 29 25  1  0  0  0  0
 30 37  1  0  0  0  0
 30 31  2  0  0  0  0
 31 32  1  0  0  0  0
 31 33  1  0  0  0  0
 33 34  1  0  0  0  0
 35 36  1  0  0  0  0
 35 33  2  0  0  0  0
 37 35  1  0  0  0  0
M  END
>  <minimizedAffinity>
-5.81263781

$$$$

 OpenBabel03252506583D

 37 41  0  0  0  0  0  0  0  0999 V2000
   37.9990   30.9020   40.2390 C   0  0  0  0  0  0  0  0  0  0  0  0
   38.9490   31.2220   41.1990 C   0  0  0  0  0  0  0  0  0  0  0  0
   39.0780   30.5350   42.3830 C   0  0  0  0  0  0  0  0  0  0  0  0
   38.2320   29.4640   42.6660 C   0  0  0  0  0  0  0  0  0  0  0  0
   38.0640   28.5790   43.6930 N   0  0  0  0  0  0  0  0  0  0  0  0
   37.0450   27.7410   43.3790 C   0  0  0  0  0  0  0  0  0  0  0  0
   36.5910   28.1150   42.1590 N   0  0  0  0  0  0  0  0  0  0  0  0
   37.3020   29.1700   41.7000 C   0  0  0  0  0  0  0  0  0  0  0  0
   37.1450   29.8270   40.5160 C   0  0  0  0  0  0  0  0  0  0  0  0
   37.9180   31.4570   39.3180 H   0  0  0  0  0  0  0  0  0  0  0  0
   39.8200   30.7810   43.1400 H   0  0  0  0  0  0  0  0  0  0  0  0
   38.6640   28.6080   44.5490 H   0  0  0  0  0  0  0  0  0  0  0  0
   36.7250   26.9530   44.0390 H   0  0  0  0  0  0  0  0  0  0  0  0
   40.2220   34.5180   40.1500 C   0  0  0  0  0  0  0  0  0  0  0  0
   41.5790   34.4250   40.4770 C   0  0  0  0  0  0  0  0  0  0  0  0
   42.0490   33.2440   41.0500 C   0  0  0  0  0  0  0  0  0  0  0  0
   41.1570   32.2220   41.2690 N   0  0  0  0  0  0  0  0  0  0  0  0
   39.8590   32.3390   40.9450 C   0  0  0  0  0  0  0  0  0  0  0  0
   39.3810   33.4760   40.3880 N   0  0  0  0  0  0  0  0  0  0  0  0
   39.8840   35.4470   39.7060 H   0  0  0  0  0  0  0  0  0  0  0  0
   42.3000   35.2090   40.3170 H   0  0  0  0  0  0  0  0  0  0  0  0
   43.0710   33.0700   41.3390 H   0  0  0  0  0  0  0  0  0  0  0  0
   36.1160   29.4280   39.5520 C   0  0  0  0  0  0  0  0  0  0  0  0
   34.7790   29.3060   39.8450 C   0  0  0  0  0  0  0  0  0  0  0  0
   34.1850   28.9090   38.6430 C   0  0  0  0  0  0  0  0  0  0  0  0
   35.1860   28.8140   37.7030 C   0  0  0  0  0  0  0  0  0  0  0  0
   36.3320   29.1390   38.3060 O   0  0  0  0  0  0  0  0  0  0  0  0
   34.2340   29.4620   40.7680 H   0  0  0  0  0  0  0  0  0  0  0  0
   33.1510   28.6970   38.4160 H   0  0  0  0  0  0  0  0  0  0  0  0
   35.1480   28.4460   36.2900 C   0  0  0  0  0  0  0  0  0  0  0  0
   36.0510   29.0080   35.3840 C   0  0  0  0  0  0  0  0  0  0  0  0
   36.8450   29.7410   35.5830 H   0  0  0  0  0  0  0  0  0  0  0  0
   35.8110   28.5020   34.1220 C   0  0  0  0  0  0  0  0  0  0  0  0
   36.2670   28.6670   33.1640 H   0  0  0  0  0  0  0  0  0  0  0  0
   34.7550   27.6400   34.3290 C   0  0  0  0  0  0  0  0  0  0  0  0
   34.1940   27.0010   33.6720 H   0  0  0  0  0  0  0  0  0  0  0  0
   34.3880   27.6260   35.6010 O   0  0  0  0  0  0  0  0  0  0  0  0
  1  9  2  0  0  0  0
  1  2  1  0  0  0  0
  2  3  2  0  0  0  0
  3  4  1  0  0  0  0
  3 11  1  0  0  0  0
  4  5  1  0  0  0  0
  5 12  1  0  0  0  0
  6  5  1  0  0  0  0
  6 13  1  0  0  0  0
  7  6  2  0  0  0  0
  8  7  1  0  0  0  0
  8  4  2  0  0  0  0
  9  8  1  0  0  0  0
 10  1  1  0  0  0  0
 14 19  2  0  0  0  0
 14 15  1  0  0  0  0
 15 16  2  0  0  0  0
 16 17  1  0  0  0  0
 16 22  1  0  0  0  0
 18  2  1  0  0  0  0
 18 17  2  0  0  0  0
 19 18  1  0  0  0  0
 20 14  1  0  0  0  0
 21 15  1  0  0  0  0
 23 24  2  0  0  0  0
 23  9  1  0  0  0  0
 24 28  1  0  0  0  0
 25 24  1  0  0  0  0
 26 27  1  0  0  0  0
 26 25  2  0  0  0  0
 27 23  1  0  0  0  0
 29 25  1  0  0  0  0
 30 26  1  0  0  0  0
 31 32  1  0  0  0  0
 31 30  2  0  0  0  0
 33 35  2  0  0  0  0
 33 31  1  0  0  0  0
 34 33  1  0  0  0  0
 35 37  1  0  0  0  0
 36 35  1  0  0  0  0
 37 30  1  0  0  0  0
M  END
>  <minimizedAffinity>
-5.6667695

$$$$

 OpenBabel03252506583D

 37 41  0  0  0  0  0  0  0  0999 V2000
   39.5380   30.1790   40.9770 C   0  0  0  0  0  0  0  0  0  0  0  0
   38.1810   29.9420   41.1550 C   0  0  0  0  0  0  0  0  0  0  0  0
   37.2180   30.8920   40.9090 C   0  0  0  0  0  0  0  0  0  0  0  0
   37.5830   32.1600   40.4610 C   0  0  0  0  0  0  0  0  0  0  0  0
   36.9370   33.3150   40.1250 N   0  0  0  0  0  0  0  0  0  0  0  0
   37.8620   34.2340   39.7520 C   0  0  0  0  0  0  0  0  0  0  0  0
   39.0740   33.6380   39.8600 N   0  0  0  0  0  0  0  0  0  0  0  0
   38.9300   32.3660   40.2950 C   0  0  0  0  0  0  0  0  0  0  0  0
   39.9130   31.4500   40.5270 C   0  0  0  0  0  0  0  0  0  0  0  0
   40.2740   29.4160   41.1770 H   0  0  0  0  0  0  0  0  0  0  0  0
   36.1530   30.7140   41.0480 H   0  0  0  0  0  0  0  0  0  0  0  0
   35.8960   33.3990   40.1740 H   0  0  0  0  0  0  0  0  0  0  0  0
   37.5910   35.2290   39.4400 H   0  0  0  0  0  0  0  0  0  0  0  0
   37.6110   26.3040   41.3040 C   0  0  0  0  0  0  0  0  0  0  0  0
   36.9370   26.1630   42.5210 C   0  0  0  0  0  0  0  0  0  0  0  0
   36.6820   27.3050   43.2800 C   0  0  0  0  0  0  0  0  0  0  0  0
   37.1060   28.5200   42.7970 N   0  0  0  0  0  0  0  0  0  0  0  0
   37.7510   28.6250   41.6240 C   0  0  0  0  0  0  0  0  0  0  0  0
   38.0090   27.5300   40.8720 N   0  0  0  0  0  0  0  0  0  0  0  0
   37.7960   25.4000   40.7350 H   0  0  0  0  0  0  0  0  0  0  0  0
   36.5950   25.2250   42.9240 H   0  0  0  0  0  0  0  0  0  0  0  0
   36.1720   27.3070   44.2280 H   0  0  0  0  0  0  0  0  0  0  0  0
   41.3260   31.7770   40.3140 C   0  0  0  0  0  0  0  0  0  0  0  0
   42.1300   32.4000   41.2370 C   0  0  0  0  0  0  0  0  0  0  0  0
   43.3760   32.5060   40.6130 C   0  0  0  0  0  0  0  0  0  0  0  0
   43.2560   31.9460   39.3620 C   0  0  0  0  0  0  0  0  0  0  0  0
   41.9960   31.5210   39.2330 O   0  0  0  0  0  0  0  0  0  0  0  0
   41.9210   32.7590   42.2380 H   0  0  0  0  0  0  0  0  0  0  0  0
   44.3000   32.9300   40.9750 H   0  0  0  0  0  0  0  0  0  0  0  0
   44.2280   31.7800   38.2840 C   0  0  0  0  0  0  0  0  0  0  0  0
   43.8380   31.2520   37.0500 C   0  0  0  0  0  0  0  0  0  0  0  0
   42.8390   30.9160   36.7400 H   0  0  0  0  0  0  0  0  0  0  0  0
   44.9310   31.1970   36.2080 C   0  0  0  0  0  0  0  0  0  0  0  0
   45.0640   30.8660   35.1950 H   0  0  0  0  0  0  0  0  0  0  0  0
   45.9480   31.7050   36.9870 C   0  0  0  0  0  0  0  0  0  0  0  0
   46.9940   31.8750   36.8050 H   0  0  0  0  0  0  0  0  0  0  0  0
   45.5120   32.0370   38.1920 O   0  0  0  0  0  0  0  0  0  0  0  0
  1  2  1  0  0  0  0
  1 10  1  0  0  0  0
  2 18  1  0  0  0  0
  3 11  1  0  0  0  0
  3  2  2  0  0  0  0
  4  3  1  0  0  0  0
  5 12  1  0  0  0  0
  5  4  1  0  0  0  0
  6  7  2  0  0  0  0
  6  5  1  0  0  0  0
  7  8  1  0  0  0  0
  8  4  2  0  0  0  0
  8  9  1  0  0  0  0
  9  1  2  0  0  0  0
 13  6  1  0  0  0  0
 14 15  1  0  0  0  0
 15 21  1  0  0  0  0
 15 16  2  0  0  0  0
 16 22  1  0  0  0  0
 17 16  1  0  0  0  0
 18 17  2  0  0  0  0
 19 14  2  0  0  0  0
 19 18  1  0  0  0  0
 20 14  1  0  0  0  0
 23  9  1  0  0  0  0
 23 24  2  0  0  0  0
 24 28  1  0  0  0  0
 25 29  1  0  0  0  0
 25 24  1  0  0  0  0
 26 25  2  0  0  0  0
 27 26  1  0  0  0  0
 27 23  1  0  0  0  0
 30 26  1  0  0  0  0
 31 30  2  0  0  0  0
 32 31  1  0  0  0  0
 33 35  2  0  0  0  0
 33 31  1  0  0  0  0
 34 33  1  0  0  0  0
 35 37  1  0  0  0  0
 36 35  1  0  0  0  0
 37 30  1  0  0  0  0
M  END
>  <minimizedAffinity>
-5.64296436

$$$$

 OpenBabel03252506583D

 37 41  0  0  0  0  0  0  0  0999 V2000
   33.4560   28.9760   38.2520 C   0  0  0  0  0  0  0  0  0  0  0  0
   32.8080   29.2480   37.0550 C   0  0  0  0  0  0  0  0  0  0  0  0
   33.4480   29.2400   35.8380 C   0  0  0  0  0  0  0  0  0  0  0  0
   34.8090   28.9490   35.7650 C   0  0  0  0  0  0  0  0  0  0  0  0
   35.7500   28.8500   34.7790 N   0  0  0  0  0  0  0  0  0  0  0  0
   36.9380   28.5280   35.3470 C   0  0  0  0  0  0  0  0  0  0  0  0
   36.7220   28.4300   36.6810 N   0  0  0  0  0  0  0  0  0  0  0  0
   35.4250   28.6840   36.9630 C   0  0  0  0  0  0  0  0  0  0  0  0
   34.8240   28.6830   38.1870 C   0  0  0  0  0  0  0  0  0  0  0  0
   32.9310   28.9880   39.1940 H   0  0  0  0  0  0  0  0  0  0  0  0
   32.9460   29.4530   34.8960 H   0  0  0  0  0  0  0  0  0  0  0  0
   35.5130   29.0120   33.7740 H   0  0  0  0  0  0  0  0  0  0  0  0
   37.8350   28.3940   34.7660 H   0  0  0  0  0  0  0  0  0  0  0  0
   29.3080   29.6840   35.9820 C   0  0  0  0  0  0  0  0  0  0  0  0
   28.6990   30.1470   37.1530 C   0  0  0  0  0  0  0  0  0  0  0  0
   29.4820   30.3070   38.2950 C   0  0  0  0  0  0  0  0  0  0  0  0
   30.8200   30.0020   38.2200 N   0  0  0  0  0  0  0  0  0  0  0  0
   31.3790   29.5590   37.0820 C   0  0  0  0  0  0  0  0  0  0  0  0
   30.6370   29.3960   35.9620 N   0  0  0  0  0  0  0  0  0  0  0  0
   28.6770   29.5690   35.1090 H   0  0  0  0  0  0  0  0  0  0  0  0
   27.6550   30.3930   37.2400 H   0  0  0  0  0  0  0  0  0  0  0  0
   29.1140   30.6550   39.2450 H   0  0  0  0  0  0  0  0  0  0  0  0
   35.5790   28.3830   39.4070 C   0  0  0  0  0  0  0  0  0  0  0  0
   35.6960   29.2340   40.4800 C   0  0  0  0  0  0  0  0  0  0  0  0
   36.4920   28.5440   41.3990 C   0  0  0  0  0  0  0  0  0  0  0  0
   36.8070   27.3290   40.8350 C   0  0  0  0  0  0  0  0  0  0  0  0
   36.2300   27.2840   39.6320 O   0  0  0  0  0  0  0  0  0  0  0  0
   35.2940   30.2260   40.6510 H   0  0  0  0  0  0  0  0  0  0  0  0
   36.8360   28.8390   42.3780 H   0  0  0  0  0  0  0  0  0  0  0  0
   37.6050   26.2130   41.3370 C   0  0  0  0  0  0  0  0  0  0  0  0
   36.9870   25.0440   41.7880 C   0  0  0  0  0  0  0  0  0  0  0  0
   35.9130   24.8150   41.8280 H   0  0  0  0  0  0  0  0  0  0  0  0
   37.9500   24.1470   42.2090 C   0  0  0  0  0  0  0  0  0  0  0  0
   37.9040   23.1550   42.6170 H   0  0  0  0  0  0  0  0  0  0  0  0
   39.1260   24.8310   41.9860 C   0  0  0  0  0  0  0  0  0  0  0  0
   40.1590   24.5780   42.1450 H   0  0  0  0  0  0  0  0  0  0  0  0
   38.8970   26.0310   41.4780 O   0  0  0  0  0  0  0  0  0  0  0  0
  1 10  1  0  0  0  0
  2 18  1  0  0  0  0
  2  1  2  0  0  0  0
  3  2  1  0  0  0  0
  4  3  2  0  0  0  0
  4  8  1  0  0  0  0
  5  6  1  0  0  0  0
  5  4  1  0  0  0  0
  6  7  2  0  0  0  0
  7  8  1  0  0  0  0
  8  9  2  0  0  0  0
  9  1  1  0  0  0  0
  9 23  1  0  0  0  0
 11  3  1  0  0  0  0
 12  5  1  0  0  0  0
 13  6  1  0  0  0  0
 14 15  1  0  0  0  0
 15 21  1  0  0  0  0
 15 16  2  0  0  0  0
 16 22  1  0  0  0  0
 17 16  1  0  0  0  0
 18 17  2  0  0  0  0
 19 14  2  0  0  0  0
 19 18  1  0  0  0  0
 20 14  1  0  0  0  0
 23 27  1  0  0  0  0
 23 24  2  0  0  0  0
 24 28  1  0  0  0  0
 24 25  1  0  0  0  0
 25 29  1  0  0  0  0
 26 30  1  0  0  0  0
 26 25  2  0  0  0  0
 27 26  1  0  0  0  0
 30 37  1  0  0  0  0
 30 31  2  0  0  0  0
 31 32  1  0  0  0  0
 31 33  1  0  0  0  0
 33 34  1  0  0  0  0
 35 36  1  0  0  0  0
 35 33  2  0  0  0  0
 37 35  1  0  0  0  0
M  END
>  <minimizedAffinity>
-5.60280609

$$$$

 OpenBabel03252506583D

 37 41  0  0  0  0  0  0  0  0999 V2000
   36.9090   27.4840   40.4150 C   0  0  0  0  0  0  0  0  0  0  0  0
   37.9500   27.6760   41.3130 C   0  0  0  0  0  0  0  0  0  0  0  0
   38.4480   28.9190   41.6270 C   0  0  0  0  0  0  0  0  0  0  0  0
   37.9070   30.0590   41.0360 C   0  0  0  0  0  0  0  0  0  0  0  0
   38.1290   31.4060   41.0970 N   0  0  0  0  0  0  0  0  0  0  0  0
   37.2550   32.0250   40.2640 C   0  0  0  0  0  0  0  0  0  0  0  0
   36.4990   31.0550   39.6970 N   0  0  0  0  0  0  0  0  0  0  0  0
   36.8800   29.8400   40.1530 C   0  0  0  0  0  0  0  0  0  0  0  0
   36.3600   28.6250   39.8170 C   0  0  0  0  0  0  0  0  0  0  0  0
   36.5370   26.4980   40.1850 H   0  0  0  0  0  0  0  0  0  0  0  0
   39.2650   29.0770   42.3290 H   0  0  0  0  0  0  0  0  0  0  0  0
   38.8710   31.8150   41.7080 H   0  0  0  0  0  0  0  0  0  0  0  0
   37.2380   33.0940   40.1420 H   0  0  0  0  0  0  0  0  0  0  0  0
   40.0400   25.5990   43.5280 C   0  0  0  0  0  0  0  0  0  0  0  0
   39.6620   24.3040   43.1550 C   0  0  0  0  0  0  0  0  0  0  0  0
   38.7030   24.1490   42.1560 C   0  0  0  0  0  0  0  0  0  0  0  0
   38.1680   25.2760   41.5800 N   0  0  0  0  0  0  0  0  0  0  0  0
   38.5490   26.5080   41.9580 C   0  0  0  0  0  0  0  0  0  0  0  0
   39.4800   26.6810   42.9250 N   0  0  0  0  0  0  0  0  0  0  0  0
   40.7880   25.6900   44.3060 H   0  0  0  0  0  0  0  0  0  0  0  0
   40.0640   23.4040   43.5890 H   0  0  0  0  0  0  0  0  0  0  0  0
   38.3430   23.2000   41.7970 H   0  0  0  0  0  0  0  0  0  0  0  0
   35.2580   28.5050   38.8590 C   0  0  0  0  0  0  0  0  0  0  0  0
   35.2140   27.5930   37.8320 C   0  0  0  0  0  0  0  0  0  0  0  0
   33.9980   27.8390   37.1870 C   0  0  0  0  0  0  0  0  0  0  0  0
   33.3830   28.8750   37.8550 C   0  0  0  0  0  0  0  0  0  0  0  0
   34.1880   29.2390   38.8560 O   0  0  0  0  0  0  0  0  0  0  0  0
   35.9180   26.8290   37.5260 H   0  0  0  0  0  0  0  0  0  0  0  0
   33.5560   27.3560   36.3290 H   0  0  0  0  0  0  0  0  0  0  0  0
   32.1050   29.5440   37.6250 C   0  0  0  0  0  0  0  0  0  0  0  0
   31.7200   29.9190   36.3350 C   0  0  0  0  0  0  0  0  0  0  0  0
   32.2720   29.7790   35.3950 H   0  0  0  0  0  0  0  0  0  0  0  0
   30.4820   30.5280   36.3830 C   0  0  0  0  0  0  0  0  0  0  0  0
   29.8420   30.9540   35.6340 H   0  0  0  0  0  0  0  0  0  0  0  0
   30.1710   30.4910   37.7260 C   0  0  0  0  0  0  0  0  0  0  0  0
   29.3220   30.8340   38.2890 H   0  0  0  0  0  0  0  0  0  0  0  0
   31.1330   29.9120   38.4270 O   0  0  0  0  0  0  0  0  0  0  0  0
  1  2  1  0  0  0  0
  2  3  2  0  0  0  0
  2 18  1  0  0  0  0
  3 11  1  0  0  0  0
  4  5  1  0  0  0  0
  4  3  1  0  0  0  0
  5 12  1  0  0  0  0
  6  5  1  0  0  0  0
  7  8  1  0  0  0  0
  7  6  2  0  0  0  0
  8  4  2  0  0  0  0
  9  8  1  0  0  0  0
  9  1  2  0  0  0  0
 10  1  1  0  0  0  0
 13  6  1  0  0  0  0
 14 20  1  0  0  0  0
 15 14  1  0  0  0  0
 15 21  1  0  0  0  0
 16 15  2  0  0  0  0
 17 18  2  0  0  0  0
 17 16  1  0  0  0  0
 18 19  1  0  0  0  0
 19 14  2  0  0  0  0
 22 16  1  0  0  0  0
 23  9  1  0  0  0  0
 24 23  2  0  0  0  0
 25 24  1  0  0  0  0
 25 26  2  0  0  0  0
 26 27  1  0  0  0  0
 27 23  1  0  0  0  0
 28 24  1  0  0  0  0
 29 25  1  0  0  0  0
 30 26  1  0  0  0  0
 30 37  1  0  0  0  0
 31 33  1  0  0  0  0
 31 30  2  0  0  0  0
 32 31  1  0  0  0  0
 33 35  2  0  0  0  0
 34 33  1  0  0  0  0
 35 36  1  0  0  0  0
 35 37  1  0  0  0  0
M  END
>  <minimizedAffinity>
-5.57370424

$$$$
