
 OpenBabel03252502333D

 23 24  0  0  0  0  0  0  0  0999 V2000
   35.5710   29.1630   39.7350 C   0  0  0  0  0  0  0  0  0  0  0  0
   36.1710   30.4230   39.5980 C   0  0  0  0  0  0  0  0  0  0  0  0
   37.1080   30.8090   40.5950 C   0  0  0  0  0  0  0  0  0  0  0  0
   37.3570   29.9410   41.6050 N   0  0  0  0  0  0  0  0  0  0  0  0
   36.7510   28.7400   41.6900 C   0  0  0  0  0  0  0  0  0  0  0  0
   35.8610   28.3420   40.7640 N   0  0  0  0  0  0  0  0  0  0  0  0
   35.9470   31.0890   38.7760 H   0  0  0  0  0  0  0  0  0  0  0  0
   37.7740   32.0950   40.5300 C   0  0  0  0  0  0  0  0  0  0  0  0
   37.3440   33.1580   39.7700 C   0  0  0  0  0  0  0  0  0  0  0  0
   36.4600   33.1580   39.1330 H   0  0  0  0  0  0  0  0  0  0  0  0
   38.2740   34.1600   40.0150 C   0  0  0  0  0  0  0  0  0  0  0  0
   38.1370   35.1260   39.5070 H   0  0  0  0  0  0  0  0  0  0  0  0
   39.2160   33.6440   40.9120 C   0  0  0  0  0  0  0  0  0  0  0  0
   39.9830   34.3660   41.1580 H   0  0  0  0  0  0  0  0  0  0  0  0
   38.8690   32.4080   41.1860 O   0  0  0  0  0  0  0  0  0  0  0  0
   34.5960   28.7860   38.6750 C   0  0  0  0  0  0  0  0  0  0  0  0
   34.7040   27.4730   38.3080 F   0  0  0  0  0  0  0  0  0  0  0  0
   33.3070   29.0700   39.1300 F   0  0  0  0  0  0  0  0  0  0  0  0
   34.7700   29.6170   37.5660 F   0  0  0  0  0  0  0  0  0  0  0  0
   37.0520   27.8120   42.8160 C   0  0  0  0  0  0  0  0  0  0  0  0
   37.9620   28.3400   43.6790 F   0  0  0  0  0  0  0  0  0  0  0  0
   37.4850   26.5730   42.3330 F   0  0  0  0  0  0  0  0  0  0  0  0
   35.9070   27.5260   43.5470 F   0  0  0  0  0  0  0  0  0  0  0  0
  1  6  1  0  0  0  0
  2  1  2  0  0  0  0
  2  3  1  0  0  0  0
  3  4  2  0  0  0  0
  4  5  1  0  0  0  0
  5 20  1  0  0  0  0
  6  5  2  0  0  0  0
  7  2  1  0  0  0  0
  8  3  1  0  0  0  0
  8 15  1  0  0  0  0
  9 11  1  0  0  0  0
  9  8  2  0  0  0  0
 10  9  1  0  0  0  0
 11 13  2  0  0  0  0
 12 11  1  0  0  0  0
 13 14  1  0  0  0  0
 13 15  1  0  0  0  0
 16 18  1  0  0  0  0
 16  1  1  0  0  0  0
 17 16  1  0  0  0  0
 19 16  1  0  0  0  0
 20 23  1  0  0  0  0
 20 21  1  0  0  0  0
 22 20  1  0  0  0  0
M  END
>  <minimizedAffinity>
-5.54828167

$$$$

 OpenBabel03252502333D

 23 24  0  0  0  0  0  0  0  0999 V2000
   36.7150   28.7190   41.6780 C   0  0  0  0  0  0  0  0  0  0  0  0
   37.4090   29.9370   41.6650 C   0  0  0  0  0  0  0  0  0  0  0  0
   37.1250   30.8360   40.6000 C   0  0  0  0  0  0  0  0  0  0  0  0
   36.2100   30.4580   39.6750 N   0  0  0  0  0  0  0  0  0  0  0  0
   35.5710   29.2720   39.7340 C   0  0  0  0  0  0  0  0  0  0  0  0
   35.8150   28.3990   40.7270 N   0  0  0  0  0  0  0  0  0  0  0  0
   38.1330   30.2040   42.4230 H   0  0  0  0  0  0  0  0  0  0  0  0
   37.7980   32.1170   40.5110 C   0  0  0  0  0  0  0  0  0  0  0  0
   37.3950   33.1540   39.7010 C   0  0  0  0  0  0  0  0  0  0  0  0
   36.5310   33.1330   39.0380 H   0  0  0  0  0  0  0  0  0  0  0  0
   38.3200   34.1610   39.9400 C   0  0  0  0  0  0  0  0  0  0  0  0
   38.2020   35.1090   39.3940 H   0  0  0  0  0  0  0  0  0  0  0  0
   39.2320   33.6740   40.8830 C   0  0  0  0  0  0  0  0  0  0  0  0
   39.9930   34.4030   41.1270 H   0  0  0  0  0  0  0  0  0  0  0  0
   38.8730   32.4500   41.1880 O   0  0  0  0  0  0  0  0  0  0  0  0
   37.0330   27.7990   42.8050 C   0  0  0  0  0  0  0  0  0  0  0  0
   35.9220   27.4520   43.5250 F   0  0  0  0  0  0  0  0  0  0  0  0
   37.6670   26.6660   42.2950 F   0  0  0  0  0  0  0  0  0  0  0  0
   37.9850   28.3940   43.6360 F   0  0  0  0  0  0  0  0  0  0  0  0
   34.5720   28.8930   38.6970 C   0  0  0  0  0  0  0  0  0  0  0  0
   34.7870   29.5450   37.5220 F   0  0  0  0  0  0  0  0  0  0  0  0
   33.2710   29.1180   39.1590 F   0  0  0  0  0  0  0  0  0  0  0  0
   34.6210   27.5310   38.4290 F   0  0  0  0  0  0  0  0  0  0  0  0
  1 16  1  0  0  0  0
  2  1  1  0  0  0  0
  2  7  1  0  0  0  0
  3  2  2  0  0  0  0
  4  5  2  0  0  0  0
  4  3  1  0  0  0  0
  5  6  1  0  0  0  0
  6  1  2  0  0  0  0
  8  3  1  0  0  0  0
  8 15  1  0  0  0  0
  9 11  1  0  0  0  0
  9  8  2  0  0  0  0
 10  9  1  0  0  0  0
 11 13  2  0  0  0  0
 12 11  1  0  0  0  0
 13 14  1  0  0  0  0
 13 15  1  0  0  0  0
 16 17  1  0  0  0  0
 16 19  1  0  0  0  0
 18 16  1  0  0  0  0
 20 22  1  0  0  0  0
 20  5  1  0  0  0  0
 21 20  1  0  0  0  0
 23 20  1  0  0  0  0
M  END
>  <minimizedAffinity>
-5.48985481

$$$$

 OpenBabel03252502333D

 23 24  0  0  0  0  0  0  0  0999 V2000
   40.0780   28.9800   42.4860 C   0  0  0  0  0  0  0  0  0  0  0  0
   39.9870   30.2640   41.9310 C   0  0  0  0  0  0  0  0  0  0  0  0
   38.7020   30.6990   41.5060 C   0  0  0  0  0  0  0  0  0  0  0  0
   37.6580   29.8490   41.6630 N   0  0  0  0  0  0  0  0  0  0  0  0
   37.8010   28.6220   42.2020 C   0  0  0  0  0  0  0  0  0  0  0  0
   39.0010   28.1790   42.6160 N   0  0  0  0  0  0  0  0  0  0  0  0
   40.8440   30.9150   41.8230 H   0  0  0  0  0  0  0  0  0  0  0  0
   38.5180   32.0120   40.9210 C   0  0  0  0  0  0  0  0  0  0  0  0
   37.4290   32.3840   40.1660 C   0  0  0  0  0  0  0  0  0  0  0  0
   36.5860   31.7400   39.9210 H   0  0  0  0  0  0  0  0  0  0  0  0
   37.6780   33.7070   39.8250 C   0  0  0  0  0  0  0  0  0  0  0  0
   36.9320   34.2300   39.2090 H   0  0  0  0  0  0  0  0  0  0  0  0
   38.9070   34.0600   40.3950 C   0  0  0  0  0  0  0  0  0  0  0  0
   39.1780   35.0840   40.1760 H   0  0  0  0  0  0  0  0  0  0  0  0
   39.3640   33.0110   41.0370 O   0  0  0  0  0  0  0  0  0  0  0  0
   41.4360   28.5530   42.9230 C   0  0  0  0  0  0  0  0  0  0  0  0
   42.0880   29.5270   43.6290 F   0  0  0  0  0  0  0  0  0  0  0  0
   41.3180   27.3860   43.6800 F   0  0  0  0  0  0  0  0  0  0  0  0
   42.1860   28.1770   41.8060 F   0  0  0  0  0  0  0  0  0  0  0  0
   36.6290   27.7160   42.3580 C   0  0  0  0  0  0  0  0  0  0  0  0
   36.9180   26.4420   41.9760 F   0  0  0  0  0  0  0  0  0  0  0  0
   35.5280   28.2090   41.6510 F   0  0  0  0  0  0  0  0  0  0  0  0
   36.2070   27.6660   43.6800 F   0  0  0  0  0  0  0  0  0  0  0  0
  1  6  1  0  0  0  0
  1 16  1  0  0  0  0
  2  1  2  0  0  0  0
  3  4  2  0  0  0  0
  3  2  1  0  0  0  0
  4  5  1  0  0  0  0
  5 20  1  0  0  0  0
  5  6  2  0  0  0  0
  7  2  1  0  0  0  0
  8 15  1  0  0  0  0
  8  3  1  0  0  0  0
  9  8  2  0  0  0  0
 10  9  1  0  0  0  0
 11  9  1  0  0  0  0
 11 13  2  0  0  0  0
 12 11  1  0  0  0  0
 13 15  1  0  0  0  0
 14 13  1  0  0  0  0
 16 17  1  0  0  0  0
 16 18  1  0  0  0  0
 19 16  1  0  0  0  0
 20 23  1  0  0  0  0
 21 20  1  0  0  0  0
 22 20  1  0  0  0  0
M  END
>  <minimizedAffinity>
-5.04175091

$$$$

 OpenBabel03252502333D

 23 24  0  0  0  0  0  0  0  0999 V2000
   37.0480   29.4180   41.3640 C   0  0  0  0  0  0  0  0  0  0  0  0
   36.2260   28.9160   40.3450 C   0  0  0  0  0  0  0  0  0  0  0  0
   36.0020   29.7540   39.2180 C   0  0  0  0  0  0  0  0  0  0  0  0
   36.5930   30.9730   39.2040 N   0  0  0  0  0  0  0  0  0  0  0  0
   37.3750   31.4080   40.2120 C   0  0  0  0  0  0  0  0  0  0  0  0
   37.6080   30.6420   41.2920 N   0  0  0  0  0  0  0  0  0  0  0  0
   35.7720   27.9350   40.3920 H   0  0  0  0  0  0  0  0  0  0  0  0
   35.1650   29.3130   38.1200 C   0  0  0  0  0  0  0  0  0  0  0  0
   33.8940   28.8050   38.2630 C   0  0  0  0  0  0  0  0  0  0  0  0
   33.3730   28.6750   39.2110 H   0  0  0  0  0  0  0  0  0  0  0  0
   33.4850   28.5220   36.9670 C   0  0  0  0  0  0  0  0  0  0  0  0
   32.4800   28.0970   36.8250 H   0  0  0  0  0  0  0  0  0  0  0  0
   34.5340   28.8760   36.1110 C   0  0  0  0  0  0  0  0  0  0  0  0
   34.2960   28.6860   35.0740 H   0  0  0  0  0  0  0  0  0  0  0  0
   35.5120   29.3420   36.8530 O   0  0  0  0  0  0  0  0  0  0  0  0
   37.2650   28.5180   42.5300 C   0  0  0  0  0  0  0  0  0  0  0  0
   36.1370   27.8230   42.8700 F   0  0  0  0  0  0  0  0  0  0  0  0
   38.3150   27.6460   42.2360 F   0  0  0  0  0  0  0  0  0  0  0  0
   37.7210   29.2680   43.6170 F   0  0  0  0  0  0  0  0  0  0  0  0
   38.0060   32.7560   40.1600 C   0  0  0  0  0  0  0  0  0  0  0  0
   38.5990   33.0850   41.3400 F   0  0  0  0  0  0  0  0  0  0  0  0
   37.0690   33.7250   39.7860 F   0  0  0  0  0  0  0  0  0  0  0  0
   38.9840   32.8120   39.1760 F   0  0  0  0  0  0  0  0  0  0  0  0
  1 16  1  0  0  0  0
  2  7  1  0  0  0  0
  2  1  2  0  0  0  0
  3  2  1  0  0  0  0
  4  3  2  0  0  0  0
  4  5  1  0  0  0  0
  5  6  2  0  0  0  0
  6  1  1  0  0  0  0
  8  9  2  0  0  0  0
  8  3  1  0  0  0  0
  9 10  1  0  0  0  0
 11  9  1  0  0  0  0
 12 11  1  0  0  0  0
 13 15  1  0  0  0  0
 13 11  2  0  0  0  0
 14 13  1  0  0  0  0
 15  8  1  0  0  0  0
 16 17  1  0  0  0  0
 16 19  1  0  0  0  0
 18 16  1  0  0  0  0
 20  5  1  0  0  0  0
 20 21  1  0  0  0  0
 22 20  1  0  0  0  0
 23 20  1  0  0  0  0
M  END
>  <minimizedAffinity>
-5.02853727

$$$$

 OpenBabel03252502333D

 23 24  0  0  0  0  0  0  0  0999 V2000
   37.4860   31.4670   40.2760 C   0  0  0  0  0  0  0  0  0  0  0  0
   36.6820   31.0820   39.1940 C   0  0  0  0  0  0  0  0  0  0  0  0
   36.0940   29.7890   39.2480 C   0  0  0  0  0  0  0  0  0  0  0  0
   36.3490   29.0190   40.3340 N   0  0  0  0  0  0  0  0  0  0  0  0
   37.1310   29.4380   41.3490 C   0  0  0  0  0  0  0  0  0  0  0  0
   37.7010   30.6550   41.3310 N   0  0  0  0  0  0  0  0  0  0  0  0
   36.5020   31.7260   38.3440 H   0  0  0  0  0  0  0  0  0  0  0  0
   35.2490   29.3110   38.1710 C   0  0  0  0  0  0  0  0  0  0  0  0
   33.9780   28.8140   38.3400 C   0  0  0  0  0  0  0  0  0  0  0  0
   33.4620   28.7210   39.2940 H   0  0  0  0  0  0  0  0  0  0  0  0
   33.5600   28.4860   37.0570 C   0  0  0  0  0  0  0  0  0  0  0  0
   32.5530   28.0600   36.9360 H   0  0  0  0  0  0  0  0  0  0  0  0
   34.6060   28.8040   36.1840 C   0  0  0  0  0  0  0  0  0  0  0  0
   34.3610   28.5770   35.1550 H   0  0  0  0  0  0  0  0  0  0  0  0
   35.5890   29.2930   36.9020 O   0  0  0  0  0  0  0  0  0  0  0  0
   38.0870   32.8270   40.1920 C   0  0  0  0  0  0  0  0  0  0  0  0
   37.1680   33.7840   39.8570 F   0  0  0  0  0  0  0  0  0  0  0  0
   38.6930   33.1260   41.4130 F   0  0  0  0  0  0  0  0  0  0  0  0
   39.1350   32.8140   39.2690 F   0  0  0  0  0  0  0  0  0  0  0  0
   37.3870   28.5610   42.5260 C   0  0  0  0  0  0  0  0  0  0  0  0
   37.7690   29.2770   43.6180 F   0  0  0  0  0  0  0  0  0  0  0  0
   38.3370   27.5830   42.2140 F   0  0  0  0  0  0  0  0  0  0  0  0
   36.2470   27.8490   42.8760 F   0  0  0  0  0  0  0  0  0  0  0  0
  1  6  1  0  0  0  0
  2  3  1  0  0  0  0
  2  1  2  0  0  0  0
  3  4  2  0  0  0  0
  4  5  1  0  0  0  0
  5 20  1  0  0  0  0
  6  5  2  0  0  0  0
  7  2  1  0  0  0  0
  8  9  2  0  0  0  0
  8  3  1  0  0  0  0
  9 10  1  0  0  0  0
 11  9  1  0  0  0  0
 12 11  1  0  0  0  0
 13 15  1  0  0  0  0
 13 11  2  0  0  0  0
 14 13  1  0  0  0  0
 15  8  1  0  0  0  0
 16  1  1  0  0  0  0
 16 18  1  0  0  0  0
 17 16  1  0  0  0  0
 19 16  1  0  0  0  0
 20 23  1  0  0  0  0
 20 21  1  0  0  0  0
 22 20  1  0  0  0  0
M  END
>  <minimizedAffinity>
-5.01945353

$$$$

 OpenBabel03252502333D

 23 24  0  0  0  0  0  0  0  0999 V2000
   37.1000   30.2300   38.2250 C   0  0  0  0  0  0  0  0  0  0  0  0
   37.0030   29.2720   39.2440 C   0  0  0  0  0  0  0  0  0  0  0  0
   37.3150   29.6930   40.5650 C   0  0  0  0  0  0  0  0  0  0  0  0
   37.6840   30.9840   40.7510 N   0  0  0  0  0  0  0  0  0  0  0  0
   37.7620   31.8660   39.7350 C   0  0  0  0  0  0  0  0  0  0  0  0
   37.4730   31.5020   38.4740 N   0  0  0  0  0  0  0  0  0  0  0  0
   36.7040   28.2490   39.0560 H   0  0  0  0  0  0  0  0  0  0  0  0
   37.2410   28.7660   41.6780 C   0  0  0  0  0  0  0  0  0  0  0  0
   36.7960   27.4680   41.5820 C   0  0  0  0  0  0  0  0  0  0  0  0
   36.4520   26.9880   40.6670 H   0  0  0  0  0  0  0  0  0  0  0  0
   36.8990   26.9690   42.8740 C   0  0  0  0  0  0  0  0  0  0  0  0
   36.5940   25.9270   43.0490 H   0  0  0  0  0  0  0  0  0  0  0  0
   37.4010   27.9980   43.6790 C   0  0  0  0  0  0  0  0  0  0  0  0
   37.5120   27.6900   44.7100 H   0  0  0  0  0  0  0  0  0  0  0  0
   37.5860   29.0480   42.9140 O   0  0  0  0  0  0  0  0  0  0  0  0
   36.7660   29.7600   36.8530 C   0  0  0  0  0  0  0  0  0  0  0  0
   37.5040   28.6690   36.4800 F   0  0  0  0  0  0  0  0  0  0  0  0
   35.4000   29.4780   36.7940 F   0  0  0  0  0  0  0  0  0  0  0  0
   36.9510   30.8060   35.9460 F   0  0  0  0  0  0  0  0  0  0  0  0
   38.1710   33.2770   39.9800 C   0  0  0  0  0  0  0  0  0  0  0  0
   38.4860   33.4940   41.2860 F   0  0  0  0  0  0  0  0  0  0  0  0
   37.1740   34.1610   39.5550 F   0  0  0  0  0  0  0  0  0  0  0  0
   39.2870   33.6120   39.2240 F   0  0  0  0  0  0  0  0  0  0  0  0
  1  6  2  0  0  0  0
  1  2  1  0  0  0  0
  2  3  2  0  0  0  0
  3  4  1  0  0  0  0
  3  8  1  0  0  0  0
  5 20  1  0  0  0  0
  5  4  2  0  0  0  0
  6  5  1  0  0  0  0
  7  2  1  0  0  0  0
  8 15  1  0  0  0  0
  9  8  2  0  0  0  0
  9 11  1  0  0  0  0
 10  9  1  0  0  0  0
 11 12  1  0  0  0  0
 11 13  2  0  0  0  0
 13 14  1  0  0  0  0
 15 13  1  0  0  0  0
 16  1  1  0  0  0  0
 17 16  1  0  0  0  0
 18 16  1  0  0  0  0
 19 16  1  0  0  0  0
 20 21  1  0  0  0  0
 22 20  1  0  0  0  0
 23 20  1  0  0  0  0
M  END
>  <minimizedAffinity>
-4.97627497

$$$$

 OpenBabel03252502333D

 23 24  0  0  0  0  0  0  0  0999 V2000
   36.2470   29.6510   39.7360 C   0  0  0  0  0  0  0  0  0  0  0  0
   36.9280   28.7620   40.5780 C   0  0  0  0  0  0  0  0  0  0  0  0
   38.0330   29.2760   41.3110 C   0  0  0  0  0  0  0  0  0  0  0  0
   38.3520   30.5830   41.1470 N   0  0  0  0  0  0  0  0  0  0  0  0
   37.6630   31.3960   40.3220 C   0  0  0  0  0  0  0  0  0  0  0  0
   36.6130   30.9430   39.6150 N   0  0  0  0  0  0  0  0  0  0  0  0
   36.6430   27.7240   40.6830 H   0  0  0  0  0  0  0  0  0  0  0  0
   38.7920   28.4250   42.2050 C   0  0  0  0  0  0  0  0  0  0  0  0
   38.2430   27.4540   43.0110 C   0  0  0  0  0  0  0  0  0  0  0  0
   37.1830   27.2140   43.0710 H   0  0  0  0  0  0  0  0  0  0  0  0
   39.3280   26.9030   43.6800 C   0  0  0  0  0  0  0  0  0  0  0  0
   39.1340   26.0900   44.3950 H   0  0  0  0  0  0  0  0  0  0  0  0
   40.4740   27.5740   43.2390 C   0  0  0  0  0  0  0  0  0  0  0  0
   41.3720   27.2030   43.7140 H   0  0  0  0  0  0  0  0  0  0  0  0
   40.0960   28.4720   42.3600 O   0  0  0  0  0  0  0  0  0  0  0  0
   35.0950   29.0840   38.9820 C   0  0  0  0  0  0  0  0  0  0  0  0
   34.9800   29.6140   37.7260 F   0  0  0  0  0  0  0  0  0  0  0  0
   35.2360   27.6960   38.9240 F   0  0  0  0  0  0  0  0  0  0  0  0
   33.9190   29.2900   39.7070 F   0  0  0  0  0  0  0  0  0  0  0  0
   38.0450   32.8280   40.1690 C   0  0  0  0  0  0  0  0  0  0  0  0
   36.9710   33.6120   39.8780 F   0  0  0  0  0  0  0  0  0  0  0  0
   39.0420   32.9710   39.1980 F   0  0  0  0  0  0  0  0  0  0  0  0
   38.6140   33.3210   41.3350 F   0  0  0  0  0  0  0  0  0  0  0  0
  1  2  1  0  0  0  0
  2  7  1  0  0  0  0
  2  3  2  0  0  0  0
  3  8  1  0  0  0  0
  4  3  1  0  0  0  0
  5  4  2  0  0  0  0
  6  1  2  0  0  0  0
  6  5  1  0  0  0  0
  8 15  1  0  0  0  0
  8  9  2  0  0  0  0
  9 10  1  0  0  0  0
  9 11  1  0  0  0  0
 11 12  1  0  0  0  0
 13 11  2  0  0  0  0
 13 14  1  0  0  0  0
 15 13  1  0  0  0  0
 16 19  1  0  0  0  0
 16  1  1  0  0  0  0
 17 16  1  0  0  0  0
 18 16  1  0  0  0  0
 20  5  1  0  0  0  0
 20 23  1  0  0  0  0
 21 20  1  0  0  0  0
 22 20  1  0  0  0  0
M  END
>  <minimizedAffinity>
-4.92861319

$$$$

 OpenBabel03252502333D

 23 24  0  0  0  0  0  0  0  0999 V2000
   37.8210   31.8960   39.7440 C   0  0  0  0  0  0  0  0  0  0  0  0
   37.7490   31.0550   40.8630 C   0  0  0  0  0  0  0  0  0  0  0  0
   37.3820   29.7010   40.6360 C   0  0  0  0  0  0  0  0  0  0  0  0
   37.1280   29.3150   39.3620 N   0  0  0  0  0  0  0  0  0  0  0  0
   37.2130   30.1650   38.3200 C   0  0  0  0  0  0  0  0  0  0  0  0
   37.5570   31.4520   38.4980 N   0  0  0  0  0  0  0  0  0  0  0  0
   37.9590   31.4010   41.8660 H   0  0  0  0  0  0  0  0  0  0  0  0
   37.2830   28.7630   41.7380 C   0  0  0  0  0  0  0  0  0  0  0  0
   37.9290   28.9080   42.9440 C   0  0  0  0  0  0  0  0  0  0  0  0
   38.5840   29.7360   43.2100 H   0  0  0  0  0  0  0  0  0  0  0  0
   37.5470   27.7930   43.6780 C   0  0  0  0  0  0  0  0  0  0  0  0
   37.9450   27.6860   44.6980 H   0  0  0  0  0  0  0  0  0  0  0  0
   36.6900   27.0360   42.8710 C   0  0  0  0  0  0  0  0  0  0  0  0
   36.3430   26.1420   43.3720 H   0  0  0  0  0  0  0  0  0  0  0  0
   36.5680   27.6620   41.7240 O   0  0  0  0  0  0  0  0  0  0  0  0
   38.2080   33.3090   40.0120 C   0  0  0  0  0  0  0  0  0  0  0  0
   38.4820   33.5330   41.3340 F   0  0  0  0  0  0  0  0  0  0  0  0
   39.3070   33.6330   39.2150 F   0  0  0  0  0  0  0  0  0  0  0  0
   37.1900   34.1600   39.5750 F   0  0  0  0  0  0  0  0  0  0  0  0
   36.9250   29.7030   36.9330 C   0  0  0  0  0  0  0  0  0  0  0  0
   36.9340   30.7320   36.0430 F   0  0  0  0  0  0  0  0  0  0  0  0
   35.7090   29.0130   36.8860 F   0  0  0  0  0  0  0  0  0  0  0  0
   37.8720   28.7800   36.5080 F   0  0  0  0  0  0  0  0  0  0  0  0
  1 16  1  0  0  0  0
  1  2  1  0  0  0  0
  2  7  1  0  0  0  0
  3  2  2  0  0  0  0
  3  8  1  0  0  0  0
  4  3  1  0  0  0  0
  5  6  1  0  0  0  0
  5  4  2  0  0  0  0
  6  1  2  0  0  0  0
  8  9  2  0  0  0  0
  9 10  1  0  0  0  0
  9 11  1  0  0  0  0
 11 12  1  0  0  0  0
 13 14  1  0  0  0  0
 13 11  2  0  0  0  0
 15  8  1  0  0  0  0
 15 13  1  0  0  0  0
 16 17  1  0  0  0  0
 18 16  1  0  0  0  0
 19 16  1  0  0  0  0
 20  5  1  0  0  0  0
 21 20  1  0  0  0  0
 22 20  1  0  0  0  0
 23 20  1  0  0  0  0
M  END
>  <minimizedAffinity>
-4.84133244

$$$$

 OpenBabel03252502333D

 23 24  0  0  0  0  0  0  0  0999 V2000
   37.7940   28.1030   42.2110 C   0  0  0  0  0  0  0  0  0  0  0  0
   39.0850   28.3780   42.6830 C   0  0  0  0  0  0  0  0  0  0  0  0
   39.6580   29.6280   42.3210 C   0  0  0  0  0  0  0  0  0  0  0  0
   38.9230   30.4650   41.5480 N   0  0  0  0  0  0  0  0  0  0  0  0
   37.6840   30.1510   41.1210 C   0  0  0  0  0  0  0  0  0  0  0  0
   37.1120   28.9790   41.4450 N   0  0  0  0  0  0  0  0  0  0  0  0
   39.6410   27.6830   43.2990 H   0  0  0  0  0  0  0  0  0  0  0  0
   40.9890   29.9920   42.7660 C   0  0  0  0  0  0  0  0  0  0  0  0
   42.0000   29.0930   43.0160 C   0  0  0  0  0  0  0  0  0  0  0  0
   41.9200   28.0120   42.9090 H   0  0  0  0  0  0  0  0  0  0  0  0
   43.0740   29.8790   43.4110 C   0  0  0  0  0  0  0  0  0  0  0  0
   44.0160   29.3730   43.6690 H   0  0  0  0  0  0  0  0  0  0  0  0
   42.6500   31.2120   43.3780 C   0  0  0  0  0  0  0  0  0  0  0  0
   43.4320   31.8970   43.6750 H   0  0  0  0  0  0  0  0  0  0  0  0
   41.3970   31.2210   42.9860 O   0  0  0  0  0  0  0  0  0  0  0  0
   37.2200   26.7880   42.6070 C   0  0  0  0  0  0  0  0  0  0  0  0
   36.2380   26.9090   43.5520 F   0  0  0  0  0  0  0  0  0  0  0  0
   36.7350   26.1470   41.4660 F   0  0  0  0  0  0  0  0  0  0  0  0
   38.2420   25.9570   43.0730 F   0  0  0  0  0  0  0  0  0  0  0  0
   36.9080   31.0980   40.2720 C   0  0  0  0  0  0  0  0  0  0  0  0
   37.2430   30.9930   38.9580 F   0  0  0  0  0  0  0  0  0  0  0  0
   37.0720   32.4120   40.7240 F   0  0  0  0  0  0  0  0  0  0  0  0
   35.5450   30.8580   40.3730 F   0  0  0  0  0  0  0  0  0  0  0  0
  1 16  1  0  0  0  0
  1  2  1  0  0  0  0
  2  7  1  0  0  0  0
  3  2  2  0  0  0  0
  3  8  1  0  0  0  0
  4  3  1  0  0  0  0
  5  6  1  0  0  0  0
  5  4  2  0  0  0  0
  6  1  2  0  0  0  0
  8 15  1  0  0  0  0
  8  9  2  0  0  0  0
  9 11  1  0  0  0  0
 10  9  1  0  0  0  0
 11 12  1  0  0  0  0
 13 11  2  0  0  0  0
 13 14  1  0  0  0  0
 15 13  1  0  0  0  0
 16 19  1  0  0  0  0
 16 17  1  0  0  0  0
 18 16  1  0  0  0  0
 20 23  1  0  0  0  0
 20 22  1  0  0  0  0
 20  5  1  0  0  0  0
 21 20  1  0  0  0  0
M  END
>  <minimizedAffinity>
-4.80430841

$$$$
