
 OpenBabel03252508543D

 42 45  0  0  1  0  0  0  0  0999 V2000
   43.3070   34.4410   40.7090 C   0  0  0  0  0  0  0  0  0  0  0  0
   43.2700   35.6010   40.2120 O   0  0  0  0  0  0  0  0  0  0  0  0
   41.9400   34.0330   40.4870 N   0  0  0  0  0  0  0  0  0  0  0  0
   41.5110   33.9990   39.1060 C   0  0  0  0  0  0  0  0  0  0  0  0
   40.7300   35.3130   38.9030 C   0  0  0  0  0  0  0  0  0  0  0  0
   39.9840   35.5630   40.2030 C   0  0  0  0  0  0  0  0  0  0  0  0
   39.6260   34.2530   40.9110 C   0  0  0  0  0  0  0  0  0  0  0  0
   40.9080   33.6460   41.4500 C   0  0  1  0  0  0  0  0  0  0  0  0
   40.8350   33.1290   38.9430 H   0  0  0  0  0  0  0  0  0  0  0  0
   42.3390   33.9940   38.3930 H   0  0  0  0  0  0  0  0  0  0  0  0
   41.4610   36.1320   38.7250 H   0  0  0  0  0  0  0  0  0  0  0  0
   39.9950   35.1960   38.0880 H   0  0  0  0  0  0  0  0  0  0  0  0
   39.1010   36.1860   40.0540 H   0  0  0  0  0  0  0  0  0  0  0  0
   40.6500   36.1260   40.9150 H   0  0  0  0  0  0  0  0  0  0  0  0
   39.1850   33.5600   40.1990 H   0  0  0  0  0  0  0  0  0  0  0  0
   38.9660   34.5620   41.7480 H   0  0  0  0  0  0  0  0  0  0  0  0
   41.1500   34.2120   42.3790 H   0  0  0  0  0  0  0  0  0  0  0  0
   40.8440   32.2000   41.6450 C   0  0  0  0  0  0  0  0  0  0  0  0
   39.8050   31.3330   41.3480 C   0  0  0  0  0  0  0  0  0  0  0  0
   38.8550   31.5970   40.9140 H   0  0  0  0  0  0  0  0  0  0  0  0
   40.2630   30.0880   41.7280 C   0  0  0  0  0  0  0  0  0  0  0  0
   39.7370   29.1430   41.6560 H   0  0  0  0  0  0  0  0  0  0  0  0
   41.5520   30.2810   42.2330 C   0  0  0  0  0  0  0  0  0  0  0  0
   42.1910   29.4910   42.6190 H   0  0  0  0  0  0  0  0  0  0  0  0
   41.8840   31.5680   42.1730 O   0  0  0  0  0  0  0  0  0  0  0  0
   44.3700   33.7890   41.2850 O   0  0  0  0  0  0  0  0  0  0  0  0
   45.7010   34.1150   41.1290 C   0  0  0  0  0  0  0  0  0  0  0  0
   46.3500   34.7400   42.2050 C   0  0  0  0  0  0  0  0  0  0  0  0
   47.7100   35.0550   42.0060 C   0  0  0  0  0  0  0  0  0  0  0  0
   48.2970   34.7400   40.8070 N   0  0  0  0  0  0  0  0  0  0  0  0
   47.6240   34.1490   39.8330 C   0  0  0  0  0  0  0  0  0  0  0  0
   46.3240   33.8270   39.9720 N   0  0  0  0  0  0  0  0  0  0  0  0
   48.2410   35.5360   42.8100 H   0  0  0  0  0  0  0  0  0  0  0  0
   48.0710   33.8920   38.8770 H   0  0  0  0  0  0  0  0  0  0  0  0
   45.6320   35.0240   43.4230 C   0  0  0  0  0  0  0  0  0  0  0  0
   44.9920   36.2410   43.6420 C   0  0  0  0  0  0  0  0  0  0  0  0
   44.4440   36.0910   44.9000 C   0  0  0  0  0  0  0  0  0  0  0  0
   44.7330   34.8690   45.4010 N   0  0  0  0  0  0  0  0  0  0  0  0
   45.4520   34.2400   44.4910 N   0  0  0  0  0  0  0  0  0  0  0  0
   44.9260   37.1080   43.0030 H   0  0  0  0  0  0  0  0  0  0  0  0
   43.8490   36.8430   45.4420 H   0  0  0  0  0  0  0  0  0  0  0  0
   44.4800   34.4220   46.3170 H   0  0  0  0  0  0  0  0  0  0  0  0
  1 26  1  0  0  0  0
  2  1  2  0  0  0  0
  3  1  1  0  0  0  0
  3  8  1  0  0  0  0
  4  3  1  0  0  0  0
  5  4  1  0  0  0  0
  5  6  1  0  0  0  0
  6  7  1  0  0  0  0
  6 14  1  0  0  0  0
  7  8  1  0  0  0  0
  7 16  1  0  0  0  0
  8 18  1  0  0  0  0
  8 17  1  1  0  0  0
  9  4  1  0  0  0  0
 10  4  1  0  0  0  0
 11  5  1  0  0  0  0
 12  5  1  0  0  0  0
 13  6  1  0  0  0  0
 15  7  1  0  0  0  0
 18 25  1  0  0  0  0
 19 18  2  0  0  0  0
 19 21  1  0  0  0  0
 20 19  1  0  0  0  0
 21 23  2  0  0  0  0
 22 21  1  0  0  0  0
 23 24  1  0  0  0  0
 25 23  1  0  0  0  0
 27 26  1  0  0  0  0
 27 28  1  0  0  0  0
 28 35  1  0  0  0  0
 29 28  2  0  0  0  0
 29 33  1  0  0  0  0
 30 29  1  0  0  0  0
 31 32  1  0  0  0  0
 31 30  2  0  0  0  0
 32 27  2  0  0  0  0
 34 31  1  0  0  0  0
 35 36  1  0  0  0  0
 35 39  2  0  0  0  0
 36 37  2  0  0  0  0
 37 38  1  0  0  0  0
 37 41  1  0  0  0  0
 38 42  1  0  0  0  0
 39 38  1  0  0  0  0
 40 36  1  0  0  0  0
M  END
>  <minimizedAffinity>
-6.53866863

>  <minimizedRMSD>
0.522599161

$$$$
