
 OpenBabel03252507263D

 26 28  0  0  0  0  0  0  0  0999 V2000
   45.5830   34.1140   45.4680 C   0  0  0  0  0  0  0  0  0  0  0  0
   44.6550   35.1510   45.6600 C   0  0  0  0  0  0  0  0  0  0  0  0
   44.4440   36.0390   44.6050 C   0  0  0  0  0  0  0  0  0  0  0  0
   45.1460   35.8610   43.4370 N   0  0  0  0  0  0  0  0  0  0  0  0
   46.0290   34.8440   43.3040 C   0  0  0  0  0  0  0  0  0  0  0  0
   46.2530   33.9740   44.3030 N   0  0  0  0  0  0  0  0  0  0  0  0
   44.1380   35.2260   46.6150 H   0  0  0  0  0  0  0  0  0  0  0  0
   43.7340   36.8470   44.7270 H   0  0  0  0  0  0  0  0  0  0  0  0
   46.7450   34.7000   42.0500 C   0  0  0  0  0  0  0  0  0  0  0  0
   47.9580   35.3490   41.8600 C   0  0  0  0  0  0  0  0  0  0  0  0
   48.7250   35.2860   40.7140 C   0  0  0  0  0  0  0  0  0  0  0  0
   48.1780   34.4920   39.7120 C   0  0  0  0  0  0  0  0  0  0  0  0
   46.9680   33.8360   39.8840 C   0  0  0  0  0  0  0  0  0  0  0  0
   46.2700   33.9490   41.0490 N   0  0  0  0  0  0  0  0  0  0  0  0
   48.3140   35.9480   42.6890 H   0  0  0  0  0  0  0  0  0  0  0  0
   49.6610   35.8200   40.6390 H   0  0  0  0  0  0  0  0  0  0  0  0
   48.7270   34.3970   38.7850 H   0  0  0  0  0  0  0  0  0  0  0  0
   46.6180   33.2370   39.0510 H   0  0  0  0  0  0  0  0  0  0  0  0
   45.8370   33.1620   46.5440 C   0  0  0  0  0  0  0  0  0  0  0  0
   46.9210   32.2990   46.6110 C   0  0  0  0  0  0  0  0  0  0  0  0
   47.7400   32.1810   45.9080 H   0  0  0  0  0  0  0  0  0  0  0  0
   46.8180   31.5560   47.7720 C   0  0  0  0  0  0  0  0  0  0  0  0
   47.4450   30.7880   48.1910 H   0  0  0  0  0  0  0  0  0  0  0  0
   45.6730   31.9940   48.3690 C   0  0  0  0  0  0  0  0  0  0  0  0
   45.1610   31.7390   49.2720 H   0  0  0  0  0  0  0  0  0  0  0  0
   45.1280   32.9200   47.6390 O   0  0  0  0  0  0  0  0  0  0  0  0
  1  2  1  0  0  0  0
  1 19  1  0  0  0  0
  2  7  1  0  0  0  0
  3  8  1  0  0  0  0
  3  2  2  0  0  0  0
  4  3  1  0  0  0  0
  5  4  2  0  0  0  0
  5  6  1  0  0  0  0
  6  1  2  0  0  0  0
  9  5  1  0  0  0  0
 10  9  1  0  0  0  0
 10 15  1  0  0  0  0
 11 10  2  0  0  0  0
 12 13  2  0  0  0  0
 12 11  1  0  0  0  0
 13 14  1  0  0  0  0
 14  9  2  0  0  0  0
 16 11  1  0  0  0  0
 17 12  1  0  0  0  0
 18 13  1  0  0  0  0
 19 20  2  0  0  0  0
 19 26  1  0  0  0  0
 20 22  1  0  0  0  0
 21 20  1  0  0  0  0
 22 23  1  0  0  0  0
 22 24  2  0  0  0  0
 24 25  1  0  0  0  0
 26 24  1  0  0  0  0
M  END
>  <minimizedAffinity>
-5.93745852

>  <minimizedRMSD>
0.291165918

$$$$
