
 OpenBabel03252506093D

 29 31  0  0  0  0  0  0  0  0999 V2000
   45.1510   33.4040   41.0440 F   0  0  0  0  0  0  0  0  0  0  0  0
   46.3340   34.0100   40.8970 C   0  0  0  0  0  0  0  0  0  0  0  0
   46.8380   34.7770   41.9300 C   0  0  0  0  0  0  0  0  0  0  0  0
   48.0510   35.4260   41.8390 C   0  0  0  0  0  0  0  0  0  0  0  0
   48.8190   35.3290   40.6910 C   0  0  0  0  0  0  0  0  0  0  0  0
   48.2710   34.5480   39.6850 C   0  0  0  0  0  0  0  0  0  0  0  0
   47.0710   33.8880   39.7340 C   0  0  0  0  0  0  0  0  0  0  0  0
   48.4260   36.0270   42.6730 H   0  0  0  0  0  0  0  0  0  0  0  0
   49.7660   35.8130   40.5720 H   0  0  0  0  0  0  0  0  0  0  0  0
   48.8210   34.4290   38.7540 H   0  0  0  0  0  0  0  0  0  0  0  0
   45.4530   34.0810   45.2630 C   0  0  0  0  0  0  0  0  0  0  0  0
   44.6450   35.2140   45.4820 C   0  0  0  0  0  0  0  0  0  0  0  0
   44.5790   36.2160   44.4830 C   0  0  0  0  0  0  0  0  0  0  0  0
   45.3230   36.0000   43.3530 N   0  0  0  0  0  0  0  0  0  0  0  0
   46.0750   34.9230   43.1740 C   0  0  0  0  0  0  0  0  0  0  0  0
   46.1310   33.9870   44.1200 N   0  0  0  0  0  0  0  0  0  0  0  0
   44.0990   35.2990   46.3940 H   0  0  0  0  0  0  0  0  0  0  0  0
   43.9700   37.0900   44.6260 H   0  0  0  0  0  0  0  0  0  0  0  0
   45.5160   33.0810   46.2670 N   0  0  0  0  0  0  0  0  0  0  0  0
   46.4590   32.6180   46.3570 H   0  0  0  0  0  0  0  0  0  0  0  0
   44.7320   32.7840   46.8980 H   0  0  0  0  0  0  0  0  0  0  0  0
   46.5780   33.0940   38.6330 C   0  0  0  0  0  0  0  0  0  0  0  0
   46.7200   33.4320   37.3030 C   0  0  0  0  0  0  0  0  0  0  0  0
   47.1830   34.2740   36.8510 H   0  0  0  0  0  0  0  0  0  0  0  0
   46.1210   32.4260   36.5800 C   0  0  0  0  0  0  0  0  0  0  0  0
   45.9750   32.2380   35.5300 H   0  0  0  0  0  0  0  0  0  0  0  0
   45.6350   31.5150   37.4930 C   0  0  0  0  0  0  0  0  0  0  0  0
   45.0990   30.5730   37.4790 H   0  0  0  0  0  0  0  0  0  0  0  0
   45.9390   31.9700   38.6800 O   0  0  0  0  0  0  0  0  0  0  0  0
  2  1  1  0  0  0  0
  2  3  1  0  0  0  0
  3 15  1  0  0  0  0
  4  3  2  0  0  0  0
  4  8  1  0  0  0  0
  5  4  1  0  0  0  0
  6  7  1  0  0  0  0
  6  5  2  0  0  0  0
  7  2  2  0  0  0  0
  9  5  1  0  0  0  0
 10  6  1  0  0  0  0
 11 12  1  0  0  0  0
 11 19  1  0  0  0  0
 12 17  1  0  0  0  0
 13 18  1  0  0  0  0
 13 12  2  0  0  0  0
 14 13  1  0  0  0  0
 15 14  2  0  0  0  0
 15 16  1  0  0  0  0
 16 11  2  0  0  0  0
 19 20  1  0  0  0  0
 19 21  1  0  0  0  0
 22 29  1  0  0  0  0
 22  7  1  0  0  0  0
 23 22  2  0  0  0  0
 24 23  1  0  0  0  0
 25 23  1  0  0  0  0
 25 27  2  0  0  0  0
 26 25  1  0  0  0  0
 27 29  1  0  0  0  0
 28 27  1  0  0  0  0
M  END
>  <minimizedAffinity>
-5.91488886

>  <minimizedRMSD>
0.138828769

$$$$
