
 OpenBabel03252508403D

 40 43  0  0  0  0  0  0  0  0999 V2000
   37.9610   27.9820   41.1520 C   0  0  0  0  0  0  0  0  0  0  0  0
   37.8660   29.0610   41.9890 C   0  0  0  0  0  0  0  0  0  0  0  0
   37.3470   28.8360   43.2290 C   0  0  0  0  0  0  0  0  0  0  0  0
   36.9200   27.6100   43.6790 C   0  0  0  0  0  0  0  0  0  0  0  0
   37.0300   26.5450   42.8150 C   0  0  0  0  0  0  0  0  0  0  0  0
   37.5460   26.7180   41.5540 C   0  0  0  0  0  0  0  0  0  0  0  0
   37.2660   29.6920   43.9040 H   0  0  0  0  0  0  0  0  0  0  0  0
   36.5150   27.4990   44.6820 H   0  0  0  0  0  0  0  0  0  0  0  0
   36.6850   25.5930   43.2000 H   0  0  0  0  0  0  0  0  0  0  0  0
   37.9120   32.5070   40.4500 C   0  0  0  0  0  0  0  0  0  0  0  0
   37.4350   31.2730   40.9320 C   0  0  0  0  0  0  0  0  0  0  0  0
   38.3220   30.3330   41.4850 C   0  0  0  0  0  0  0  0  0  0  0  0
   39.6150   30.7190   41.5050 N   0  0  0  0  0  0  0  0  0  0  0  0
   40.0540   31.8920   41.0430 C   0  0  0  0  0  0  0  0  0  0  0  0
   39.2150   32.7810   40.5200 N   0  0  0  0  0  0  0  0  0  0  0  0
   36.9760   33.4050   39.9080 N   0  0  0  0  0  0  0  0  0  0  0  0
   36.3780   31.0120   40.8930 H   0  0  0  0  0  0  0  0  0  0  0  0
   41.1180   32.0800   41.1180 H   0  0  0  0  0  0  0  0  0  0  0  0
   36.3960   33.0330   39.1030 H   0  0  0  0  0  0  0  0  0  0  0  0
   36.9380   34.3590   40.3480 H   0  0  0  0  0  0  0  0  0  0  0  0
   37.6230   25.5380   40.7080 C   0  0  0  0  0  0  0  0  0  0  0  0
   36.5370   25.3110   39.8920 C   0  0  0  0  0  0  0  0  0  0  0  0
   36.4410   24.2310   39.0190 C   0  0  0  0  0  0  0  0  0  0  0  0
   37.5040   23.3430   38.9780 C   0  0  0  0  0  0  0  0  0  0  0  0
   38.5980   23.5450   39.7800 C   0  0  0  0  0  0  0  0  0  0  0  0
   38.6620   24.6320   40.6390 C   0  0  0  0  0  0  0  0  0  0  0  0
   35.6750   25.9640   39.8730 H   0  0  0  0  0  0  0  0  0  0  0  0
   35.5800   24.0660   38.3820 H   0  0  0  0  0  0  0  0  0  0  0  0
   37.5040   22.4830   38.3280 H   0  0  0  0  0  0  0  0  0  0  0  0
   39.4820   22.9150   39.8280 H   0  0  0  0  0  0  0  0  0  0  0  0
   39.7970   24.9040   41.5180 C   0  0  0  0  0  0  0  0  0  0  0  0
   40.8920   25.5230   40.9120 C   0  0  0  0  0  0  0  0  0  0  0  0
   41.0980   25.8610   39.8950 H   0  0  0  0  0  0  0  0  0  0  0  0
   41.8670   25.7030   41.8920 C   0  0  0  0  0  0  0  0  0  0  0  0
   42.8660   26.1370   41.8710 H   0  0  0  0  0  0  0  0  0  0  0  0
   41.2860   25.1720   43.0410 C   0  0  0  0  0  0  0  0  0  0  0  0
   41.6610   25.0840   44.0580 H   0  0  0  0  0  0  0  0  0  0  0  0
   40.0830   24.7170   42.7830 O   0  0  0  0  0  0  0  0  0  0  0  0
   38.9280   28.2480   38.7350 N   0  0  0  0  0  0  0  0  0  0  0  0
   38.4970   28.1240   39.8240 C   0  0  0  0  0  0  0  0  0  0  0  0
  1  6  2  0  0  0  0
  1  2  1  0  0  0  0
  2  3  2  0  0  0  0
  3  4  1  0  0  0  0
  3  7  1  0  0  0  0
  4  8  1  0  0  0  0
  5  9  1  0  0  0  0
  5  4  2  0  0  0  0
  6  5  1  0  0  0  0
 10 15  2  0  0  0  0
 10 11  1  0  0  0  0
 11 12  2  0  0  0  0
 12 13  1  0  0  0  0
 12  2  1  0  0  0  0
 14 18  1  0  0  0  0
 14 13  2  0  0  0  0
 15 14  1  0  0  0  0
 16 20  1  0  0  0  0
 16 10  1  0  0  0  0
 17 11  1  0  0  0  0
 19 16  1  0  0  0  0
 21  6  1  0  0  0  0
 22 21  2  0  0  0  0
 23 22  1  0  0  0  0
 24 23  2  0  0  0  0
 24 25  1  0  0  0  0
 25 30  1  0  0  0  0
 25 26  2  0  0  0  0
 26 21  1  0  0  0  0
 26 31  1  0  0  0  0
 27 22  1  0  0  0  0
 28 23  1  0  0  0  0
 29 24  1  0  0  0  0
 31 38  1  0  0  0  0
 32 31  2  0  0  0  0
 32 34  1  0  0  0  0
 33 32  1  0  0  0  0
 34 36  2  0  0  0  0
 35 34  1  0  0  0  0
 36 37  1  0  0  0  0
 38 36  1  0  0  0  0
 39 40  3  0  0  0  0
 40  1  1  0  0  0  0
M  END
>  <minimizedAffinity>
-6.2371273

$$$$

 OpenBabel03252508403D

 40 43  0  0  0  0  0  0  0  0999 V2000
   38.8960   30.3790   38.8680 C   0  0  0  0  0  0  0  0  0  0  0  0
   40.2630   30.3930   38.8090 C   0  0  0  0  0  0  0  0  0  0  0  0
   40.8870   29.1890   38.6660 C   0  0  0  0  0  0  0  0  0  0  0  0
   40.2340   27.9830   38.5800 C   0  0  0  0  0  0  0  0  0  0  0  0
   38.8600   28.0030   38.6410 C   0  0  0  0  0  0  0  0  0  0  0  0
   38.1820   29.1890   38.7850 C   0  0  0  0  0  0  0  0  0  0  0  0
   41.9790   29.1910   38.6180 H   0  0  0  0  0  0  0  0  0  0  0  0
   40.7930   27.0580   38.4660 H   0  0  0  0  0  0  0  0  0  0  0  0
   38.3750   27.0370   38.5700 H   0  0  0  0  0  0  0  0  0  0  0  0
   42.0880   33.5690   37.8980 C   0  0  0  0  0  0  0  0  0  0  0  0
   41.4550   32.3170   37.7740 C   0  0  0  0  0  0  0  0  0  0  0  0
   40.9190   31.6750   38.9030 C   0  0  0  0  0  0  0  0  0  0  0  0
   41.0680   32.3490   40.0620 N   0  0  0  0  0  0  0  0  0  0  0  0
   41.6710   33.5350   40.1650 C   0  0  0  0  0  0  0  0  0  0  0  0
   42.1780   34.1440   39.0970 N   0  0  0  0  0  0  0  0  0  0  0  0
   42.6050   34.1610   36.7320 N   0  0  0  0  0  0  0  0  0  0  0  0
   41.3610   31.8150   36.8110 H   0  0  0  0  0  0  0  0  0  0  0  0
   41.7250   33.9720   41.1550 H   0  0  0  0  0  0  0  0  0  0  0  0
   43.3090   33.5790   36.1960 H   0  0  0  0  0  0  0  0  0  0  0  0
   42.2460   35.1210   36.5000 H   0  0  0  0  0  0  0  0  0  0  0  0
   36.7310   29.1150   38.8430 C   0  0  0  0  0  0  0  0  0  0  0  0
   36.0790   29.1500   37.6310 C   0  0  0  0  0  0  0  0  0  0  0  0
   34.6940   29.0880   37.4990 C   0  0  0  0  0  0  0  0  0  0  0  0
   33.9430   28.9880   38.6590 C   0  0  0  0  0  0  0  0  0  0  0  0
   34.5680   28.9520   39.8800 C   0  0  0  0  0  0  0  0  0  0  0  0
   35.9500   29.0140   39.9770 C   0  0  0  0  0  0  0  0  0  0  0  0
   36.6020   29.2270   36.6880 H   0  0  0  0  0  0  0  0  0  0  0  0
   34.1940   29.1170   36.5380 H   0  0  0  0  0  0  0  0  0  0  0  0
   32.8660   28.9360   38.6400 H   0  0  0  0  0  0  0  0  0  0  0  0
   34.0790   28.8740   40.8470 H   0  0  0  0  0  0  0  0  0  0  0  0
   36.6770   28.9800   41.2430 C   0  0  0  0  0  0  0  0  0  0  0  0
   36.7480   27.7300   41.8620 C   0  0  0  0  0  0  0  0  0  0  0  0
   36.3710   26.7390   41.6030 H   0  0  0  0  0  0  0  0  0  0  0  0
   37.4700   27.8880   43.0440 C   0  0  0  0  0  0  0  0  0  0  0  0
   37.7650   27.1930   43.8290 H   0  0  0  0  0  0  0  0  0  0  0  0
   37.7900   29.2440   43.0600 C   0  0  0  0  0  0  0  0  0  0  0  0
   38.3450   29.8400   43.7800 H   0  0  0  0  0  0  0  0  0  0  0  0
   37.3110   29.8440   41.9960 O   0  0  0  0  0  0  0  0  0  0  0  0
   37.5410   32.5990   39.1500 N   0  0  0  0  0  0  0  0  0  0  0  0
   38.1520   31.6020   39.0180 C   0  0  0  0  0  0  0  0  0  0  0  0
  1 40  1  0  0  0  0
  2  1  1  0  0  0  0
  2 12  1  0  0  0  0
  3  2  2  0  0  0  0
  4  5  2  0  0  0  0
  4  3  1  0  0  0  0
  5  6  1  0  0  0  0
  6 21  1  0  0  0  0
  6  1  2  0  0  0  0
  7  3  1  0  0  0  0
  8  4  1  0  0  0  0
  9  5  1  0  0  0  0
 10 15  1  0  0  0  0
 11 10  2  0  0  0  0
 11 12  1  0  0  0  0
 12 13  2  0  0  0  0
 13 14  1  0  0  0  0
 14 18  1  0  0  0  0
 15 14  2  0  0  0  0
 16 10  1  0  0  0  0
 17 11  1  0  0  0  0
 19 16  1  0  0  0  0
 20 16  1  0  0  0  0
 21 26  1  0  0  0  0
 22 21  2  0  0  0  0
 23 22  1  0  0  0  0
 23 24  2  0  0  0  0
 24 25  1  0  0  0  0
 25 26  2  0  0  0  0
 25 30  1  0  0  0  0
 26 31  1  0  0  0  0
 27 22  1  0  0  0  0
 28 23  1  0  0  0  0
 29 24  1  0  0  0  0
 31 32  2  0  0  0  0
 31 38  1  0  0  0  0
 32 34  1  0  0  0  0
 33 32  1  0  0  0  0
 34 36  2  0  0  0  0
 34 35  1  0  0  0  0
 36 37  1  0  0  0  0
 38 36  1  0  0  0  0
 40 39  3  0  0  0  0
M  END
>  <minimizedAffinity>
-6.18643045

$$$$

 OpenBabel03252508403D

 40 43  0  0  0  0  0  0  0  0999 V2000
   39.2730   31.3640   40.4760 C   0  0  0  0  0  0  0  0  0  0  0  0
   39.3420   32.6170   39.9310 C   0  0  0  0  0  0  0  0  0  0  0  0
   38.1600   33.2590   39.7100 C   0  0  0  0  0  0  0  0  0  0  0  0
   36.9250   32.7300   39.9970 C   0  0  0  0  0  0  0  0  0  0  0  0
   36.8890   31.4690   40.5450 C   0  0  0  0  0  0  0  0  0  0  0  0
   38.0520   30.7780   40.7890 C   0  0  0  0  0  0  0  0  0  0  0  0
   38.2050   34.2610   39.2740 H   0  0  0  0  0  0  0  0  0  0  0  0
   36.0190   33.2970   39.7950 H   0  0  0  0  0  0  0  0  0  0  0  0
   35.9020   31.0800   40.7600 H   0  0  0  0  0  0  0  0  0  0  0  0
   42.3650   33.9070   38.0740 C   0  0  0  0  0  0  0  0  0  0  0  0
   41.0780   33.3920   38.3240 C   0  0  0  0  0  0  0  0  0  0  0  0
   40.6530   33.1440   39.6410 C   0  0  0  0  0  0  0  0  0  0  0  0
   41.5620   33.4380   40.5940 N   0  0  0  0  0  0  0  0  0  0  0  0
   42.7790   33.9250   40.3430 C   0  0  0  0  0  0  0  0  0  0  0  0
   43.1820   34.1600   39.0970 N   0  0  0  0  0  0  0  0  0  0  0  0
   42.7320   34.1340   36.7360 N   0  0  0  0  0  0  0  0  0  0  0  0
   40.3810   33.1720   37.5160 H   0  0  0  0  0  0  0  0  0  0  0  0
   43.4150   34.1190   41.1980 H   0  0  0  0  0  0  0  0  0  0  0  0
   42.6750   33.2910   36.0970 H   0  0  0  0  0  0  0  0  0  0  0  0
   43.0280   35.1120   36.4950 H   0  0  0  0  0  0  0  0  0  0  0  0
   37.9200   29.4520   41.3680 C   0  0  0  0  0  0  0  0  0  0  0  0
   37.9210   29.3930   42.7430 C   0  0  0  0  0  0  0  0  0  0  0  0
   37.8040   28.2080   43.4650 C   0  0  0  0  0  0  0  0  0  0  0  0
   37.6800   27.0300   42.7470 C   0  0  0  0  0  0  0  0  0  0  0  0
   37.6750   27.0600   41.3750 C   0  0  0  0  0  0  0  0  0  0  0  0
   37.7940   28.2570   40.6870 C   0  0  0  0  0  0  0  0  0  0  0  0
   38.0150   30.2730   43.3650 H   0  0  0  0  0  0  0  0  0  0  0  0
   37.8070   28.1780   44.5480 H   0  0  0  0  0  0  0  0  0  0  0  0
   37.5850   26.0720   43.2330 H   0  0  0  0  0  0  0  0  0  0  0  0
   37.5830   26.2000   40.7170 H   0  0  0  0  0  0  0  0  0  0  0  0
   37.7960   28.3580   39.2290 C   0  0  0  0  0  0  0  0  0  0  0  0
   36.5430   28.2740   38.6190 C   0  0  0  0  0  0  0  0  0  0  0  0
   35.5280   28.1450   38.9990 H   0  0  0  0  0  0  0  0  0  0  0  0
   36.7370   28.3880   37.2440 C   0  0  0  0  0  0  0  0  0  0  0  0
   36.0540   28.3770   36.3950 H   0  0  0  0  0  0  0  0  0  0  0  0
   38.1170   28.5370   37.1140 C   0  0  0  0  0  0  0  0  0  0  0  0
   38.7440   28.6610   36.2350 H   0  0  0  0  0  0  0  0  0  0  0  0
   38.6960   28.5140   38.2910 O   0  0  0  0  0  0  0  0  0  0  0  0
   41.4540   30.0040   40.9660 N   0  0  0  0  0  0  0  0  0  0  0  0
   40.4700   30.6110   40.7450 C   0  0  0  0  0  0  0  0  0  0  0  0
  1 40  1  0  0  0  0
  1  6  1  0  0  0  0
  2  1  2  0  0  0  0
  3  2  1  0  0  0  0
  3  4  2  0  0  0  0
  4  5  1  0  0  0  0
  5  9  1  0  0  0  0
  5  6  2  0  0  0  0
  6 21  1  0  0  0  0
  7  3  1  0  0  0  0
  8  4  1  0  0  0  0
 10 11  2  0  0  0  0
 10 15  1  0  0  0  0
 11 12  1  0  0  0  0
 12  2  1  0  0  0  0
 12 13  2  0  0  0  0
 14 13  1  0  0  0  0
 14 18  1  0  0  0  0
 15 14  2  0  0  0  0
 16 10  1  0  0  0  0
 17 11  1  0  0  0  0
 19 16  1  0  0  0  0
 20 16  1  0  0  0  0
 21 22  1  0  0  0  0
 22 27  1  0  0  0  0
 22 23  2  0  0  0  0
 23 28  1  0  0  0  0
 24 29  1  0  0  0  0
 24 23  1  0  0  0  0
 25 24  2  0  0  0  0
 26 21  2  0  0  0  0
 26 25  1  0  0  0  0
 30 25  1  0  0  0  0
 31 26  1  0  0  0  0
 32 33  1  0  0  0  0
 32 31  2  0  0  0  0
 34 32  1  0  0  0  0
 35 34  1  0  0  0  0
 36 34  2  0  0  0  0
 36 38  1  0  0  0  0
 37 36  1  0  0  0  0
 38 31  1  0  0  0  0
 40 39  3  0  0  0  0
M  END
>  <minimizedAffinity>
-6.12928057

$$$$

 OpenBabel03252508403D

 40 43  0  0  0  0  0  0  0  0999 V2000
   38.8810   30.6250   39.1770 C   0  0  0  0  0  0  0  0  0  0  0  0
   39.2890   31.8980   39.4720 C   0  0  0  0  0  0  0  0  0  0  0  0
   38.3610   32.7330   40.0170 C   0  0  0  0  0  0  0  0  0  0  0  0
   37.0600   32.3780   40.2830 C   0  0  0  0  0  0  0  0  0  0  0  0
   36.6800   31.0920   39.9770 C   0  0  0  0  0  0  0  0  0  0  0  0
   37.5780   30.2090   39.4260 C   0  0  0  0  0  0  0  0  0  0  0  0
   38.6780   33.7520   40.2550 H   0  0  0  0  0  0  0  0  0  0  0  0
   36.3690   33.0950   40.7200 H   0  0  0  0  0  0  0  0  0  0  0  0
   35.6500   30.8440   40.1990 H   0  0  0  0  0  0  0  0  0  0  0  0
   42.3560   33.3550   37.8210 C   0  0  0  0  0  0  0  0  0  0  0  0
   41.0070   33.0400   38.0790 C   0  0  0  0  0  0  0  0  0  0  0  0
   40.6600   32.2390   39.1800 C   0  0  0  0  0  0  0  0  0  0  0  0
   41.7040   31.8230   39.9290 N   0  0  0  0  0  0  0  0  0  0  0  0
   42.9780   32.1300   39.6720 C   0  0  0  0  0  0  0  0  0  0  0  0
   43.3060   32.8880   38.6310 N   0  0  0  0  0  0  0  0  0  0  0  0
   42.6380   34.1610   36.7040 N   0  0  0  0  0  0  0  0  0  0  0  0
   40.2010   33.4030   37.4410 H   0  0  0  0  0  0  0  0  0  0  0  0
   43.7220   31.7320   40.3520 H   0  0  0  0  0  0  0  0  0  0  0  0
   42.2880   33.7940   35.7740 H   0  0  0  0  0  0  0  0  0  0  0  0
   43.1680   35.0480   36.8940 H   0  0  0  0  0  0  0  0  0  0  0  0
   37.0890   28.8720   39.1330 C   0  0  0  0  0  0  0  0  0  0  0  0
   36.6230   28.6690   37.8540 C   0  0  0  0  0  0  0  0  0  0  0  0
   36.1200   27.4520   37.4000 C   0  0  0  0  0  0  0  0  0  0  0  0
   36.0920   26.3960   38.2960 C   0  0  0  0  0  0  0  0  0  0  0  0
   36.5500   26.5710   39.5780 C   0  0  0  0  0  0  0  0  0  0  0  0
   37.0460   27.7960   39.9970 C   0  0  0  0  0  0  0  0  0  0  0  0
   36.6160   29.4480   37.1040 H   0  0  0  0  0  0  0  0  0  0  0  0
   35.7570   27.3080   36.3900 H   0  0  0  0  0  0  0  0  0  0  0  0
   35.7160   25.4240   38.0210 H   0  0  0  0  0  0  0  0  0  0  0  0
   36.5740   25.8150   40.3570 H   0  0  0  0  0  0  0  0  0  0  0  0
   37.5480   28.0490   41.3450 C   0  0  0  0  0  0  0  0  0  0  0  0
   36.6170   27.8900   42.3740 C   0  0  0  0  0  0  0  0  0  0  0  0
   35.5620   27.6100   42.3980 H   0  0  0  0  0  0  0  0  0  0  0  0
   37.2660   28.1700   43.5750 C   0  0  0  0  0  0  0  0  0  0  0  0
   36.9350   28.1730   44.6130 H   0  0  0  0  0  0  0  0  0  0  0  0
   38.5670   28.4840   43.1850 C   0  0  0  0  0  0  0  0  0  0  0  0
   39.4400   28.7680   43.7660 H   0  0  0  0  0  0  0  0  0  0  0  0
   38.6900   28.4020   41.8810 O   0  0  0  0  0  0  0  0  0  0  0  0
   40.5310   28.8900   38.1220 N   0  0  0  0  0  0  0  0  0  0  0  0
   39.7930   29.6730   38.6000 C   0  0  0  0  0  0  0  0  0  0  0  0
  1  6  2  0  0  0  0
  1  2  1  0  0  0  0
  2  3  2  0  0  0  0
  3  7  1  0  0  0  0
  3  4  1  0  0  0  0
  4  8  1  0  0  0  0
  5  9  1  0  0  0  0
  5  4  2  0  0  0  0
  6  5  1  0  0  0  0
 10 11  2  0  0  0  0
 10 15  1  0  0  0  0
 11 12  1  0  0  0  0
 12  2  1  0  0  0  0
 12 13  2  0  0  0  0
 14 13  1  0  0  0  0
 14 18  1  0  0  0  0
 15 14  2  0  0  0  0
 16 20  1  0  0  0  0
 16 10  1  0  0  0  0
 17 11  1  0  0  0  0
 19 16  1  0  0  0  0
 21  6  1  0  0  0  0
 21 26  1  0  0  0  0
 22 21  2  0  0  0  0
 23 22  1  0  0  0  0
 23 24  2  0  0  0  0
 24 25  1  0  0  0  0
 25 26  2  0  0  0  0
 25 30  1  0  0  0  0
 26 31  1  0  0  0  0
 27 22  1  0  0  0  0
 28 23  1  0  0  0  0
 29 24  1  0  0  0  0
 31 38  1  0  0  0  0
 31 32  2  0  0  0  0
 32 33  1  0  0  0  0
 32 34  1  0  0  0  0
 34 35  1  0  0  0  0
 36 34  2  0  0  0  0
 36 37  1  0  0  0  0
 38 36  1  0  0  0  0
 39 40  3  0  0  0  0
 40  1  1  0  0  0  0
M  END
>  <minimizedAffinity>
-6.1248951

$$$$

 OpenBabel03252508403D

 40 43  0  0  0  0  0  0  0  0999 V2000
   38.8300   28.4320   41.5960 C   0  0  0  0  0  0  0  0  0  0  0  0
   37.5850   28.9840   41.4570 C   0  0  0  0  0  0  0  0  0  0  0  0
   36.6290   28.5810   42.3410 C   0  0  0  0  0  0  0  0  0  0  0  0
   36.8380   27.6670   43.3460 C   0  0  0  0  0  0  0  0  0  0  0  0
   38.1000   27.1310   43.4610 C   0  0  0  0  0  0  0  0  0  0  0  0
   39.1000   27.5040   42.5950 C   0  0  0  0  0  0  0  0  0  0  0  0
   35.6320   29.0170   42.2370 H   0  0  0  0  0  0  0  0  0  0  0  0
   36.0310   27.3890   44.0180 H   0  0  0  0  0  0  0  0  0  0  0  0
   38.2320   26.4150   44.2620 H   0  0  0  0  0  0  0  0  0  0  0  0
   37.1330   32.2270   39.5800 C   0  0  0  0  0  0  0  0  0  0  0  0
   37.3150   31.3200   40.6410 C   0  0  0  0  0  0  0  0  0  0  0  0
   37.3990   29.9390   40.3920 C   0  0  0  0  0  0  0  0  0  0  0  0
   37.2910   29.5910   39.0930 N   0  0  0  0  0  0  0  0  0  0  0  0
   37.1180   30.4620   38.0960 C   0  0  0  0  0  0  0  0  0  0  0  0
   37.0390   31.7680   38.3320 N   0  0  0  0  0  0  0  0  0  0  0  0
   37.0570   33.5960   39.8930 N   0  0  0  0  0  0  0  0  0  0  0  0
   37.3970   31.6550   41.6750 H   0  0  0  0  0  0  0  0  0  0  0  0
   37.0460   30.0520   37.0960 H   0  0  0  0  0  0  0  0  0  0  0  0
   36.2990   33.8660   40.5820 H   0  0  0  0  0  0  0  0  0  0  0  0
   37.7540   34.2210   39.4160 H   0  0  0  0  0  0  0  0  0  0  0  0
   40.4010   26.8850   42.7890 C   0  0  0  0  0  0  0  0  0  0  0  0
   41.3510   27.6640   43.4110 C   0  0  0  0  0  0  0  0  0  0  0  0
   42.6480   27.2330   43.6770 C   0  0  0  0  0  0  0  0  0  0  0  0
   42.9890   25.9470   43.2890 C   0  0  0  0  0  0  0  0  0  0  0  0
   42.0610   25.1500   42.6670 C   0  0  0  0  0  0  0  0  0  0  0  0
   40.7780   25.6090   42.4170 C   0  0  0  0  0  0  0  0  0  0  0  0
   41.1530   28.6740   43.7390 H   0  0  0  0  0  0  0  0  0  0  0  0
   43.3850   27.8570   44.1680 H   0  0  0  0  0  0  0  0  0  0  0  0
   43.9730   25.5410   43.4600 H   0  0  0  0  0  0  0  0  0  0  0  0
   42.2210   24.1310   42.3240 H   0  0  0  0  0  0  0  0  0  0  0  0
   39.7440   24.8120   41.7610 C   0  0  0  0  0  0  0  0  0  0  0  0
   39.7620   24.8390   40.3650 C   0  0  0  0  0  0  0  0  0  0  0  0
   40.3950   25.3370   39.6290 H   0  0  0  0  0  0  0  0  0  0  0  0
   38.7170   24.0320   39.9170 C   0  0  0  0  0  0  0  0  0  0  0  0
   38.3610   23.7650   38.9220 H   0  0  0  0  0  0  0  0  0  0  0  0
   38.1300   23.5660   41.0910 C   0  0  0  0  0  0  0  0  0  0  0  0
   37.2820   22.9050   41.2550 H   0  0  0  0  0  0  0  0  0  0  0  0
   38.7560   24.0430   42.1410 O   0  0  0  0  0  0  0  0  0  0  0  0
   40.7830   29.0870   39.9830 N   0  0  0  0  0  0  0  0  0  0  0  0
   39.9020   28.7970   40.7090 C   0  0  0  0  0  0  0  0  0  0  0  0
  1  6  1  0  0  0  0
  2  1  2  0  0  0  0
  2  3  1  0  0  0  0
  3  4  2  0  0  0  0
  4  5  1  0  0  0  0
  4  8  1  0  0  0  0
  5  9  1  0  0  0  0
  6 21  1  0  0  0  0
  6  5  2  0  0  0  0
  7  3  1  0  0  0  0
 10 16  1  0  0  0  0
 10 11  1  0  0  0  0
 11 17  1  0  0  0  0
 12 11  2  0  0  0  0
 12  2  1  0  0  0  0
 13 12  1  0  0  0  0
 14 15  1  0  0  0  0
 14 13  2  0  0  0  0
 15 10  2  0  0  0  0
 16 19  1  0  0  0  0
 18 14  1  0  0  0  0
 20 16  1  0  0  0  0
 21 22  1  0  0  0  0
 22 23  2  0  0  0  0
 22 27  1  0  0  0  0
 23 28  1  0  0  0  0
 24 29  1  0  0  0  0
 24 23  1  0  0  0  0
 25 24  2  0  0  0  0
 26 25  1  0  0  0  0
 26 21  2  0  0  0  0
 30 25  1  0  0  0  0
 31 38  1  0  0  0  0
 31 26  1  0  0  0  0
 32 31  2  0  0  0  0
 33 32  1  0  0  0  0
 34 32  1  0  0  0  0
 34 36  2  0  0  0  0
 35 34  1  0  0  0  0
 36 37  1  0  0  0  0
 36 38  1  0  0  0  0
 39 40  3  0  0  0  0
 40  1  1  0  0  0  0
M  END
>  <minimizedAffinity>
-6.10974884

$$$$

 OpenBabel03252508403D

 40 43  0  0  0  0  0  0  0  0999 V2000
   38.5900   27.5240   41.4020 C   0  0  0  0  0  0  0  0  0  0  0  0
   39.0540   27.5460   42.6890 C   0  0  0  0  0  0  0  0  0  0  0  0
   38.1220   27.6550   43.6790 C   0  0  0  0  0  0  0  0  0  0  0  0
   36.7680   27.7430   43.4620 C   0  0  0  0  0  0  0  0  0  0  0  0
   36.3330   27.7160   42.1580 C   0  0  0  0  0  0  0  0  0  0  0  0
   37.2310   27.6080   41.1230 C   0  0  0  0  0  0  0  0  0  0  0  0
   38.4840   27.6740   44.7110 H   0  0  0  0  0  0  0  0  0  0  0  0
   36.0790   27.8270   44.2980 H   0  0  0  0  0  0  0  0  0  0  0  0
   35.2620   27.7870   42.0210 H   0  0  0  0  0  0  0  0  0  0  0  0
   42.5140   26.1620   43.2900 C   0  0  0  0  0  0  0  0  0  0  0  0
   41.1190   26.2200   43.1050 C   0  0  0  0  0  0  0  0  0  0  0  0
   40.4800   27.4520   42.8820 C   0  0  0  0  0  0  0  0  0  0  0  0
   41.3040   28.5210   42.8650 N   0  0  0  0  0  0  0  0  0  0  0  0
   42.6250   28.4510   43.0420 C   0  0  0  0  0  0  0  0  0  0  0  0
   43.2290   27.2860   43.2530 N   0  0  0  0  0  0  0  0  0  0  0  0
   43.0940   24.9000   43.5090 N   0  0  0  0  0  0  0  0  0  0  0  0
   40.4990   25.3240   43.1290 H   0  0  0  0  0  0  0  0  0  0  0  0
   43.1730   29.3850   43.0050 H   0  0  0  0  0  0  0  0  0  0  0  0
   42.7120   24.3580   44.3350 H   0  0  0  0  0  0  0  0  0  0  0  0
   43.8490   24.6130   42.8370 H   0  0  0  0  0  0  0  0  0  0  0  0
   36.6830   27.5900   39.7770 C   0  0  0  0  0  0  0  0  0  0  0  0
   36.3750   26.3480   39.2690 C   0  0  0  0  0  0  0  0  0  0  0  0
   35.8420   26.1440   37.9990 C   0  0  0  0  0  0  0  0  0  0  0  0
   35.6140   27.2610   37.2120 C   0  0  0  0  0  0  0  0  0  0  0  0
   35.9110   28.5110   37.6940 C   0  0  0  0  0  0  0  0  0  0  0  0
   36.4410   28.6790   38.9640 C   0  0  0  0  0  0  0  0  0  0  0  0
   36.5280   25.4350   39.8280 H   0  0  0  0  0  0  0  0  0  0  0  0
   35.6050   25.1590   37.6130 H   0  0  0  0  0  0  0  0  0  0  0  0
   35.2040   27.1850   36.2180 H   0  0  0  0  0  0  0  0  0  0  0  0
   35.7720   29.4500   37.1650 H   0  0  0  0  0  0  0  0  0  0  0  0
   36.7790   29.9810   39.5360 C   0  0  0  0  0  0  0  0  0  0  0  0
   37.9270   30.5850   39.0180 C   0  0  0  0  0  0  0  0  0  0  0  0
   38.6520   30.2940   38.2560 H   0  0  0  0  0  0  0  0  0  0  0  0
   38.0920   31.8030   39.6740 C   0  0  0  0  0  0  0  0  0  0  0  0
   38.8380   32.5920   39.5940 H   0  0  0  0  0  0  0  0  0  0  0  0
   37.0160   31.8540   40.5580 C   0  0  0  0  0  0  0  0  0  0  0  0
   36.7170   32.6090   41.2810 H   0  0  0  0  0  0  0  0  0  0  0  0
   36.2760   30.7750   40.4470 O   0  0  0  0  0  0  0  0  0  0  0  0
   40.2370   27.3130   39.3800 N   0  0  0  0  0  0  0  0  0  0  0  0
   39.5000   27.4110   40.2930 C   0  0  0  0  0  0  0  0  0  0  0  0
  1  2  1  0  0  0  0
  2 12  1  0  0  0  0
  2  3  2  0  0  0  0
  3  7  1  0  0  0  0
  4  3  1  0  0  0  0
  4  8  1  0  0  0  0
  5  4  2  0  0  0  0
  6  1  2  0  0  0  0
  6  5  1  0  0  0  0
  9  5  1  0  0  0  0
 10 16  1  0  0  0  0
 11 17  1  0  0  0  0
 11 10  2  0  0  0  0
 12 11  1  0  0  0  0
 13 12  2  0  0  0  0
 13 14  1  0  0  0  0
 14 15  2  0  0  0  0
 15 10  1  0  0  0  0
 16 19  1  0  0  0  0
 18 14  1  0  0  0  0
 20 16  1  0  0  0  0
 21  6  1  0  0  0  0
 22 21  1  0  0  0  0
 22 27  1  0  0  0  0
 23 22  2  0  0  0  0
 24 25  2  0  0  0  0
 24 23  1  0  0  0  0
 25 26  1  0  0  0  0
 26 31  1  0  0  0  0
 26 21  2  0  0  0  0
 28 23  1  0  0  0  0
 29 24  1  0  0  0  0
 30 25  1  0  0  0  0
 31 38  1  0  0  0  0
 32 31  2  0  0  0  0
 32 34  1  0  0  0  0
 33 32  1  0  0  0  0
 34 36  2  0  0  0  0
 35 34  1  0  0  0  0
 36 37  1  0  0  0  0
 38 36  1  0  0  0  0
 39 40  3  0  0  0  0
 40  1  1  0  0  0  0
M  END
>  <minimizedAffinity>
-5.97613335

$$$$

 OpenBabel03252508403D

 40 43  0  0  0  0  0  0  0  0999 V2000
   38.4140   28.3890   41.3480 C   0  0  0  0  0  0  0  0  0  0  0  0
   39.0250   28.6350   42.5480 C   0  0  0  0  0  0  0  0  0  0  0  0
   38.3080   28.3590   43.6740 C   0  0  0  0  0  0  0  0  0  0  0  0
   37.0280   27.8590   43.6740 C   0  0  0  0  0  0  0  0  0  0  0  0
   36.4420   27.6210   42.4530 C   0  0  0  0  0  0  0  0  0  0  0  0
   37.1220   27.8810   41.2870 C   0  0  0  0  0  0  0  0  0  0  0  0
   38.7880   28.5530   44.6370 H   0  0  0  0  0  0  0  0  0  0  0  0
   36.5120   27.6610   44.6100 H   0  0  0  0  0  0  0  0  0  0  0  0
   35.4340   27.2270   42.4870 H   0  0  0  0  0  0  0  0  0  0  0  0
   41.9480   31.0240   42.5120 C   0  0  0  0  0  0  0  0  0  0  0  0
   40.6250   30.5420   42.5470 C   0  0  0  0  0  0  0  0  0  0  0  0
   40.3680   29.1610   42.5130 C   0  0  0  0  0  0  0  0  0  0  0  0
   41.4690   28.3820   42.4460 N   0  0  0  0  0  0  0  0  0  0  0  0
   42.7180   28.8530   42.4130 C   0  0  0  0  0  0  0  0  0  0  0  0
   42.9610   30.1590   42.4460 N   0  0  0  0  0  0  0  0  0  0  0  0
   42.1400   32.4160   42.5490 N   0  0  0  0  0  0  0  0  0  0  0  0
   39.7700   31.2170   42.6020 H   0  0  0  0  0  0  0  0  0  0  0  0
   43.5140   28.1210   42.3590 H   0  0  0  0  0  0  0  0  0  0  0  0
   41.6560   32.9660   41.7840 H   0  0  0  0  0  0  0  0  0  0  0  0
   42.7420   32.7820   43.3290 H   0  0  0  0  0  0  0  0  0  0  0  0
   36.4240   27.6020   40.0430 C   0  0  0  0  0  0  0  0  0  0  0  0
   35.6420   28.6230   39.5500 C   0  0  0  0  0  0  0  0  0  0  0  0
   34.9050   28.5300   38.3720 C   0  0  0  0  0  0  0  0  0  0  0  0
   34.9710   27.3390   37.6670 C   0  0  0  0  0  0  0  0  0  0  0  0
   35.7430   26.3060   38.1360 C   0  0  0  0  0  0  0  0  0  0  0  0
   36.4650   26.4320   39.3120 C   0  0  0  0  0  0  0  0  0  0  0  0
   35.5450   29.5770   40.0490 H   0  0  0  0  0  0  0  0  0  0  0  0
   34.2940   29.3420   37.9970 H   0  0  0  0  0  0  0  0  0  0  0  0
   34.4290   27.1900   36.7470 H   0  0  0  0  0  0  0  0  0  0  0  0
   35.8660   25.3350   37.6650 H   0  0  0  0  0  0  0  0  0  0  0  0
   37.3040   25.3720   39.8660 C   0  0  0  0  0  0  0  0  0  0  0  0
   36.6290   24.3860   40.5890 C   0  0  0  0  0  0  0  0  0  0  0  0
   35.5800   24.2240   40.8420 H   0  0  0  0  0  0  0  0  0  0  0  0
   37.5790   23.4700   41.0360 C   0  0  0  0  0  0  0  0  0  0  0  0
   37.5080   22.5570   41.6270 H   0  0  0  0  0  0  0  0  0  0  0  0
   38.7830   23.9710   40.5450 C   0  0  0  0  0  0  0  0  0  0  0  0
   39.8020   23.6020   40.6330 H   0  0  0  0  0  0  0  0  0  0  0  0
   38.5800   25.0780   39.8700 O   0  0  0  0  0  0  0  0  0  0  0  0
   39.6460   28.8700   39.0910 N   0  0  0  0  0  0  0  0  0  0  0  0
   39.0950   28.6490   40.1070 C   0  0  0  0  0  0  0  0  0  0  0  0
  1  2  1  0  0  0  0
  2  3  2  0  0  0  0
  3  7  1  0  0  0  0
  4  3  1  0  0  0  0
  4  8  1  0  0  0  0
  5  9  1  0  0  0  0
  5  4  2  0  0  0  0
  6  1  2  0  0  0  0
  6  5  1  0  0  0  0
 10 11  1  0  0  0  0
 10 16  1  0  0  0  0
 11 17  1  0  0  0  0
 12 11  2  0  0  0  0
 12  2  1  0  0  0  0
 13 12  1  0  0  0  0
 14 15  1  0  0  0  0
 14 13  2  0  0  0  0
 15 10  2  0  0  0  0
 16 20  1  0  0  0  0
 18 14  1  0  0  0  0
 19 16  1  0  0  0  0
 21  6  1  0  0  0  0
 22 21  1  0  0  0  0
 22 27  1  0  0  0  0
 23 22  2  0  0  0  0
 24 25  2  0  0  0  0
 24 23  1  0  0  0  0
 25 26  1  0  0  0  0
 26 31  1  0  0  0  0
 26 21  2  0  0  0  0
 28 23  1  0  0  0  0
 29 24  1  0  0  0  0
 30 25  1  0  0  0  0
 31 38  1  0  0  0  0
 31 32  2  0  0  0  0
 32 33  1  0  0  0  0
 32 34  1  0  0  0  0
 34 35  1  0  0  0  0
 36 37  1  0  0  0  0
 36 34  2  0  0  0  0
 38 36  1  0  0  0  0
 39 40  3  0  0  0  0
 40  1  1  0  0  0  0
M  END
>  <minimizedAffinity>
-5.90268707

$$$$

 OpenBabel03252508403D

 40 43  0  0  0  0  0  0  0  0999 V2000
   38.4600   27.3490   41.5860 C   0  0  0  0  0  0  0  0  0  0  0  0
   37.4070   26.5000   41.7980 C   0  0  0  0  0  0  0  0  0  0  0  0
   36.5800   26.7910   42.8410 C   0  0  0  0  0  0  0  0  0  0  0  0
   36.7390   27.8680   43.6800 C   0  0  0  0  0  0  0  0  0  0  0  0
   37.8060   28.7030   43.4400 C   0  0  0  0  0  0  0  0  0  0  0  0
   38.6700   28.4550   42.4010 C   0  0  0  0  0  0  0  0  0  0  0  0
   35.7360   26.1180   43.0180 H   0  0  0  0  0  0  0  0  0  0  0  0
   36.0420   28.0430   44.4950 H   0  0  0  0  0  0  0  0  0  0  0  0
   37.9030   29.5420   44.1180 H   0  0  0  0  0  0  0  0  0  0  0  0
   37.6250   23.0330   40.3200 C   0  0  0  0  0  0  0  0  0  0  0  0
   37.7770   24.1080   41.2180 C   0  0  0  0  0  0  0  0  0  0  0  0
   37.2680   25.3790   40.9010 C   0  0  0  0  0  0  0  0  0  0  0  0
   36.6480   25.4580   39.7050 N   0  0  0  0  0  0  0  0  0  0  0  0
   36.5110   24.4310   38.8630 C   0  0  0  0  0  0  0  0  0  0  0  0
   36.9930   23.2280   39.1630 N   0  0  0  0  0  0  0  0  0  0  0  0
   38.1560   21.7860   40.6950 N   0  0  0  0  0  0  0  0  0  0  0  0
   38.2880   23.9890   42.1740 H   0  0  0  0  0  0  0  0  0  0  0  0
   35.9920   24.6270   37.9330 H   0  0  0  0  0  0  0  0  0  0  0  0
   39.1920   21.7780   40.9170 H   0  0  0  0  0  0  0  0  0  0  0  0
   37.4800   20.9820   40.7190 H   0  0  0  0  0  0  0  0  0  0  0  0
   39.7700   29.3890   42.2240 C   0  0  0  0  0  0  0  0  0  0  0  0
   40.9250   29.0940   42.9130 C   0  0  0  0  0  0  0  0  0  0  0  0
   42.0760   29.8770   42.8600 C   0  0  0  0  0  0  0  0  0  0  0  0
   42.0420   31.0130   42.0670 C   0  0  0  0  0  0  0  0  0  0  0  0
   40.9040   31.3290   41.3700 C   0  0  0  0  0  0  0  0  0  0  0  0
   39.7760   30.5280   41.4440 C   0  0  0  0  0  0  0  0  0  0  0  0
   41.0200   28.2250   43.5490 H   0  0  0  0  0  0  0  0  0  0  0  0
   42.9780   29.6320   43.4080 H   0  0  0  0  0  0  0  0  0  0  0  0
   42.8930   31.6690   41.9740 H   0  0  0  0  0  0  0  0  0  0  0  0
   40.7700   32.1900   40.7210 H   0  0  0  0  0  0  0  0  0  0  0  0
   38.5330   30.8080   40.7280 C   0  0  0  0  0  0  0  0  0  0  0  0
   38.5670   30.5740   39.3510 C   0  0  0  0  0  0  0  0  0  0  0  0
   39.3390   30.2170   38.6670 H   0  0  0  0  0  0  0  0  0  0  0  0
   37.3100   30.8930   38.8410 C   0  0  0  0  0  0  0  0  0  0  0  0
   36.8900   30.8650   37.8360 H   0  0  0  0  0  0  0  0  0  0  0  0
   36.5900   31.3040   39.9610 C   0  0  0  0  0  0  0  0  0  0  0  0
   35.5640   31.6480   40.0670 H   0  0  0  0  0  0  0  0  0  0  0  0
   37.3370   31.2400   41.0380 O   0  0  0  0  0  0  0  0  0  0  0  0
   40.1440   26.9450   39.6250 N   0  0  0  0  0  0  0  0  0  0  0  0
   39.3850   27.1210   40.5080 C   0  0  0  0  0  0  0  0  0  0  0  0
  1  2  2  0  0  0  0
  1  6  1  0  0  0  0
  2  3  1  0  0  0  0
  3  7  1  0  0  0  0
  3  4  2  0  0  0  0
  4  8  1  0  0  0  0
  5  4  1  0  0  0  0
  5  9  1  0  0  0  0
  6  5  2  0  0  0  0
 10 16  1  0  0  0  0
 10 11  1  0  0  0  0
 11 17  1  0  0  0  0
 12 11  2  0  0  0  0
 12  2  1  0  0  0  0
 13 12  1  0  0  0  0
 14 15  1  0  0  0  0
 14 13  2  0  0  0  0
 15 10  2  0  0  0  0
 16 20  1  0  0  0  0
 16 19  1  0  0  0  0
 18 14  1  0  0  0  0
 21  6  1  0  0  0  0
 21 22  1  0  0  0  0
 22 27  1  0  0  0  0
 23 22  2  0  0  0  0
 23 28  1  0  0  0  0
 24 23  1  0  0  0  0
 25 26  1  0  0  0  0
 25 24  2  0  0  0  0
 26 21  2  0  0  0  0
 29 24  1  0  0  0  0
 30 25  1  0  0  0  0
 31 38  1  0  0  0  0
 31 26  1  0  0  0  0
 32 31  2  0  0  0  0
 33 32  1  0  0  0  0
 34 32  1  0  0  0  0
 34 36  2  0  0  0  0
 35 34  1  0  0  0  0
 36 37  1  0  0  0  0
 36 38  1  0  0  0  0
 39 40  3  0  0  0  0
 40  1  1  0  0  0  0
M  END
>  <minimizedAffinity>
-5.8362689

$$$$

 OpenBabel03252508403D

 40 43  0  0  0  0  0  0  0  0999 V2000
   39.7000   28.7310   40.8460 C   0  0  0  0  0  0  0  0  0  0  0  0
   40.1680   30.0140   40.9280 C   0  0  0  0  0  0  0  0  0  0  0  0
   39.9430   30.6800   42.0960 C   0  0  0  0  0  0  0  0  0  0  0  0
   39.2840   30.1470   43.1770 C   0  0  0  0  0  0  0  0  0  0  0  0
   38.8260   28.8540   43.0640 C   0  0  0  0  0  0  0  0  0  0  0  0
   39.0270   28.1390   41.9090 C   0  0  0  0  0  0  0  0  0  0  0  0
   40.3140   31.7060   42.1700 H   0  0  0  0  0  0  0  0  0  0  0  0
   39.1380   30.7330   44.0810 H   0  0  0  0  0  0  0  0  0  0  0  0
   38.3120   28.4630   43.9330 H   0  0  0  0  0  0  0  0  0  0  0  0
   40.8780   31.7590   37.6560 C   0  0  0  0  0  0  0  0  0  0  0  0
   40.1780   31.2530   38.7690 C   0  0  0  0  0  0  0  0  0  0  0  0
   40.8560   30.5450   39.7760 C   0  0  0  0  0  0  0  0  0  0  0  0
   42.1830   30.4060   39.5750 N   0  0  0  0  0  0  0  0  0  0  0  0
   42.8340   30.8910   38.5140 C   0  0  0  0  0  0  0  0  0  0  0  0
   42.1930   31.5610   37.5620 N   0  0  0  0  0  0  0  0  0  0  0  0
   40.1430   32.4580   36.6820 N   0  0  0  0  0  0  0  0  0  0  0  0
   39.1030   31.3940   38.8820 H   0  0  0  0  0  0  0  0  0  0  0  0
   43.9010   30.7110   38.4720 H   0  0  0  0  0  0  0  0  0  0  0  0
   39.3380   31.9260   36.2470 H   0  0  0  0  0  0  0  0  0  0  0  0
   40.4600   33.4390   36.4770 H   0  0  0  0  0  0  0  0  0  0  0  0
   38.5080   26.7820   41.8770 C   0  0  0  0  0  0  0  0  0  0  0  0
   39.3300   25.8110   42.4030 C   0  0  0  0  0  0  0  0  0  0  0  0
   38.9940   24.4600   42.4560 C   0  0  0  0  0  0  0  0  0  0  0  0
   37.7610   24.0870   41.9460 C   0  0  0  0  0  0  0  0  0  0  0  0
   36.9230   25.0340   41.4160 C   0  0  0  0  0  0  0  0  0  0  0  0
   37.2880   26.3700   41.3790 C   0  0  0  0  0  0  0  0  0  0  0  0
   40.3040   26.0320   42.8170 H   0  0  0  0  0  0  0  0  0  0  0  0
   39.6520   23.7080   42.8730 H   0  0  0  0  0  0  0  0  0  0  0  0
   37.4300   23.0610   41.9500 H   0  0  0  0  0  0  0  0  0  0  0  0
   35.9390   24.8510   40.9920 H   0  0  0  0  0  0  0  0  0  0  0  0
   36.4420   27.4270   40.8290 C   0  0  0  0  0  0  0  0  0  0  0  0
   36.2810   27.4080   39.4420 C   0  0  0  0  0  0  0  0  0  0  0  0
   36.6570   26.7580   38.6500 H   0  0  0  0  0  0  0  0  0  0  0  0
   35.4540   28.4760   39.1010 C   0  0  0  0  0  0  0  0  0  0  0  0
   35.0680   28.8390   38.1490 H   0  0  0  0  0  0  0  0  0  0  0  0
   35.1670   29.0790   40.3240 C   0  0  0  0  0  0  0  0  0  0  0  0
   34.5610   29.9480   40.5700 H   0  0  0  0  0  0  0  0  0  0  0  0
   35.7610   28.4400   41.3040 O   0  0  0  0  0  0  0  0  0  0  0  0
   40.0590   27.3140   38.6750 N   0  0  0  0  0  0  0  0  0  0  0  0
   39.8920   27.9510   39.6520 C   0  0  0  0  0  0  0  0  0  0  0  0
  1  2  2  0  0  0  0
  1  6  1  0  0  0  0
  2  3  1  0  0  0  0
  3  7  1  0  0  0  0
  3  4  2  0  0  0  0
  4  8  1  0  0  0  0
  5  4  1  0  0  0  0
  5  9  1  0  0  0  0
  6  5  2  0  0  0  0
 10 11  1  0  0  0  0
 11 17  1  0  0  0  0
 11 12  2  0  0  0  0
 12  2  1  0  0  0  0
 13 12  1  0  0  0  0
 14 13  2  0  0  0  0
 15 10  2  0  0  0  0
 15 14  1  0  0  0  0
 16 10  1  0  0  0  0
 18 14  1  0  0  0  0
 19 16  1  0  0  0  0
 20 16  1  0  0  0  0
 21  6  1  0  0  0  0
 21 22  1  0  0  0  0
 22 23  2  0  0  0  0
 22 27  1  0  0  0  0
 23 28  1  0  0  0  0
 24 29  1  0  0  0  0
 24 23  1  0  0  0  0
 25 24  2  0  0  0  0
 26 25  1  0  0  0  0
 26 21  2  0  0  0  0
 30 25  1  0  0  0  0
 31 38  1  0  0  0  0
 31 26  1  0  0  0  0
 32 31  2  0  0  0  0
 33 32  1  0  0  0  0
 34 32  1  0  0  0  0
 34 36  2  0  0  0  0
 35 34  1  0  0  0  0
 36 37  1  0  0  0  0
 36 38  1  0  0  0  0
 39 40  3  0  0  0  0
 40  1  1  0  0  0  0
M  END
>  <minimizedAffinity>
-5.82543373

$$$$
