
 OpenBabel03242513153D

 29 31  0  0  0  0  0  0  0  0999 V2000
   36.2760   26.8090   38.9170 Cl  0  0  0  0  0  0  0  0  0  0  0  0
   36.6940   27.0570   40.6060 C   0  0  0  0  0  0  0  0  0  0  0  0
   36.3150   28.2140   41.2340 C   0  0  0  0  0  0  0  0  0  0  0  0
   36.6240   28.3540   42.5630 C   0  0  0  0  0  0  0  0  0  0  0  0
   37.2970   27.3600   43.2360 C   0  0  0  0  0  0  0  0  0  0  0  0
   37.6830   26.1900   42.5990 C   0  0  0  0  0  0  0  0  0  0  0  0
   37.3620   26.0590   41.2530 C   0  0  0  0  0  0  0  0  0  0  0  0
   36.3890   29.1760   43.2050 H   0  0  0  0  0  0  0  0  0  0  0  0
   37.5650   27.4320   44.3010 H   0  0  0  0  0  0  0  0  0  0  0  0
   38.2160   25.4330   43.1840 H   0  0  0  0  0  0  0  0  0  0  0  0
   37.8200   24.7950   40.6700 C   0  0  0  0  0  0  0  0  0  0  0  0
   37.3620   23.5090   40.8370 C   0  0  0  0  0  0  0  0  0  0  0  0
   36.5710   23.1330   41.4250 H   0  0  0  0  0  0  0  0  0  0  0  0
   38.0770   22.5940   40.0990 C   0  0  0  0  0  0  0  0  0  0  0  0
   38.0030   21.5250   39.9860 H   0  0  0  0  0  0  0  0  0  0  0  0
   38.9970   23.4040   39.4740 C   0  0  0  0  0  0  0  0  0  0  0  0
   39.8070   23.1530   38.7680 H   0  0  0  0  0  0  0  0  0  0  0  0
   38.8130   24.6380   39.8270 O   0  0  0  0  0  0  0  0  0  0  0  0
   35.6360   29.2450   40.4700 C   0  0  0  0  0  0  0  0  0  0  0  0
   34.3930   29.1040   40.2990 O   0  0  0  0  0  0  0  0  0  0  0  0
   37.3390   31.3910   38.0980 C   0  0  0  0  0  0  0  0  0  0  0  0
   37.7370   32.5200   38.8240 C   0  0  0  0  0  0  0  0  0  0  0  0
   37.3920   32.5070   40.1680 C   0  0  0  0  0  0  0  0  0  0  0  0
   36.7080   31.4290   40.6760 N   0  0  0  0  0  0  0  0  0  0  0  0
   36.3560   30.3810   39.9310 C   0  0  0  0  0  0  0  0  0  0  0  0
   36.6820   30.3780   38.6330 N   0  0  0  0  0  0  0  0  0  0  0  0
   37.5720   31.3240   37.0350 H   0  0  0  0  0  0  0  0  0  0  0  0
   38.2710   33.3330   38.3690 H   0  0  0  0  0  0  0  0  0  0  0  0
   37.6560   33.3340   40.8100 H   0  0  0  0  0  0  0  0  0  0  0  0
  1  2  1  0  0  0  0
  2  3  2  0  0  0  0
  2  7  1  0  0  0  0
  3  4  1  0  0  0  0
  4  8  1  0  0  0  0
  4  5  2  0  0  0  0
  5  9  1  0  0  0  0
  6 10  1  0  0  0  0
  6  5  1  0  0  0  0
  7  6  2  0  0  0  0
 11 12  2  0  0  0  0
 11  7  1  0  0  0  0
 12 13  1  0  0  0  0
 14 12  1  0  0  0  0
 15 14  1  0  0  0  0
 16 18  1  0  0  0  0
 16 14  2  0  0  0  0
 17 16  1  0  0  0  0
 18 11  1  0  0  0  0
 19  3  1  0  0  0  0
 20 19  2  0  0  0  0
 21 26  2  0  0  0  0
 21 22  1  0  0  0  0
 22 23  2  0  0  0  0
 23 24  1  0  0  0  0
 23 29  1  0  0  0  0
 25 19  1  0  0  0  0
 25 24  2  0  0  0  0
 26 25  1  0  0  0  0
 27 21  1  0  0  0  0
 28 22  1  0  0  0  0
M  END
>  <minimizedAffinity>
-5.30099249

$$$$

 OpenBabel03242513153D

 29 31  0  0  0  0  0  0  0  0999 V2000
   39.0540   27.4960   39.7360 Cl  0  0  0  0  0  0  0  0  0  0  0  0
   38.2700   27.6510   41.3020 C   0  0  0  0  0  0  0  0  0  0  0  0
   38.3660   28.8310   41.9910 C   0  0  0  0  0  0  0  0  0  0  0  0
   37.7070   28.9280   43.1910 C   0  0  0  0  0  0  0  0  0  0  0  0
   36.9780   27.8670   43.6800 C   0  0  0  0  0  0  0  0  0  0  0  0
   36.8830   26.6730   42.9810 C   0  0  0  0  0  0  0  0  0  0  0  0
   37.5540   26.5880   41.7660 C   0  0  0  0  0  0  0  0  0  0  0  0
   37.6610   29.7730   43.8430 H   0  0  0  0  0  0  0  0  0  0  0  0
   36.4360   27.9030   44.6370 H   0  0  0  0  0  0  0  0  0  0  0  0
   36.2900   25.8630   43.4180 H   0  0  0  0  0  0  0  0  0  0  0  0
   37.4010   25.2860   41.1120 C   0  0  0  0  0  0  0  0  0  0  0  0
   36.5500   24.8750   40.1130 C   0  0  0  0  0  0  0  0  0  0  0  0
   35.8080   25.4050   39.5810 H   0  0  0  0  0  0  0  0  0  0  0  0
   36.7280   23.5530   39.7770 C   0  0  0  0  0  0  0  0  0  0  0  0
   36.2520   22.9080   39.0570 H   0  0  0  0  0  0  0  0  0  0  0  0
   37.7390   23.1860   40.6360 C   0  0  0  0  0  0  0  0  0  0  0  0
   38.2490   22.2160   40.7650 H   0  0  0  0  0  0  0  0  0  0  0  0
   38.0860   24.1970   41.3690 O   0  0  0  0  0  0  0  0  0  0  0  0
   39.1740   29.9070   41.4470 C   0  0  0  0  0  0  0  0  0  0  0  0
   40.4240   29.8100   41.5870 O   0  0  0  0  0  0  0  0  0  0  0  0
   38.5020   33.3300   40.4630 C   0  0  0  0  0  0  0  0  0  0  0  0
   37.4560   33.2600   39.5350 C   0  0  0  0  0  0  0  0  0  0  0  0
   36.9940   31.9800   39.2650 C   0  0  0  0  0  0  0  0  0  0  0  0
   37.5720   30.9080   39.9020 N   0  0  0  0  0  0  0  0  0  0  0  0
   38.5680   31.0400   40.7780 C   0  0  0  0  0  0  0  0  0  0  0  0
   39.0250   32.2690   41.0490 N   0  0  0  0  0  0  0  0  0  0  0  0
   38.9230   34.3000   40.7300 H   0  0  0  0  0  0  0  0  0  0  0  0
   37.0460   34.1370   39.0700 H   0  0  0  0  0  0  0  0  0  0  0  0
   36.1880   31.8260   38.5620 H   0  0  0  0  0  0  0  0  0  0  0  0
  1  2  1  0  0  0  0
  2  7  2  0  0  0  0
  2  3  1  0  0  0  0
  3  4  2  0  0  0  0
  4  5  1  0  0  0  0
  4  8  1  0  0  0  0
  5  9  1  0  0  0  0
  6 10  1  0  0  0  0
  6  5  2  0  0  0  0
  7  6  1  0  0  0  0
 11 18  1  0  0  0  0
 11  7  1  0  0  0  0
 12 11  2  0  0  0  0
 13 12  1  0  0  0  0
 14 12  1  0  0  0  0
 14 16  2  0  0  0  0
 15 14  1  0  0  0  0
 16 17  1  0  0  0  0
 16 18  1  0  0  0  0
 19 20  2  0  0  0  0
 19  3  1  0  0  0  0
 21 27  1  0  0  0  0
 21 26  1  0  0  0  0
 22 21  2  0  0  0  0
 23 22  1  0  0  0  0
 23 24  2  0  0  0  0
 24 25  1  0  0  0  0
 25 26  2  0  0  0  0
 25 19  1  0  0  0  0
 28 22  1  0  0  0  0
 29 23  1  0  0  0  0
M  END
>  <minimizedAffinity>
-5.24102116

$$$$

 OpenBabel03242513153D

 29 31  0  0  0  0  0  0  0  0999 V2000
   36.6120   28.1680   39.4150 Cl  0  0  0  0  0  0  0  0  0  0  0  0
   37.2340   28.0440   41.0540 C   0  0  0  0  0  0  0  0  0  0  0  0
   37.4080   29.1810   41.7990 C   0  0  0  0  0  0  0  0  0  0  0  0
   37.8580   29.0420   43.0870 C   0  0  0  0  0  0  0  0  0  0  0  0
   38.1260   27.7950   43.6070 C   0  0  0  0  0  0  0  0  0  0  0  0
   37.9520   26.6450   42.8510 C   0  0  0  0  0  0  0  0  0  0  0  0
   37.4940   26.8000   41.5470 C   0  0  0  0  0  0  0  0  0  0  0  0
   38.0290   29.8140   43.8060 H   0  0  0  0  0  0  0  0  0  0  0  0
   38.4880   27.6390   44.6340 H   0  0  0  0  0  0  0  0  0  0  0  0
   38.1810   25.6810   43.3150 H   0  0  0  0  0  0  0  0  0  0  0  0
   37.3530   25.5300   40.8300 C   0  0  0  0  0  0  0  0  0  0  0  0
   36.5980   24.4160   41.1140 C   0  0  0  0  0  0  0  0  0  0  0  0
   35.9430   24.2160   41.9160 H   0  0  0  0  0  0  0  0  0  0  0  0
   36.7490   23.4230   40.1740 C   0  0  0  0  0  0  0  0  0  0  0  0
   36.3250   22.4370   40.0740 H   0  0  0  0  0  0  0  0  0  0  0  0
   37.6410   24.0030   39.3020 C   0  0  0  0  0  0  0  0  0  0  0  0
   38.0880   23.6120   38.3720 H   0  0  0  0  0  0  0  0  0  0  0  0
   37.9530   25.1920   39.7140 O   0  0  0  0  0  0  0  0  0  0  0  0
   37.1410   30.4740   41.1930 C   0  0  0  0  0  0  0  0  0  0  0  0
   35.9400   30.8580   41.1740 O   0  0  0  0  0  0  0  0  0  0  0  0
   39.0070   33.3830   40.1040 C   0  0  0  0  0  0  0  0  0  0  0  0
   40.2100   32.8900   39.5830 C   0  0  0  0  0  0  0  0  0  0  0  0
   40.3470   31.5110   39.6250 C   0  0  0  0  0  0  0  0  0  0  0  0
   39.3330   30.7490   40.1550 N   0  0  0  0  0  0  0  0  0  0  0  0
   38.2090   31.2790   40.6370 C   0  0  0  0  0  0  0  0  0  0  0  0
   38.0610   32.6100   40.6030 N   0  0  0  0  0  0  0  0  0  0  0  0
   38.8210   34.4580   40.1090 H   0  0  0  0  0  0  0  0  0  0  0  0
   40.9660   33.5380   39.1820 H   0  0  0  0  0  0  0  0  0  0  0  0
   41.2410   31.0370   39.2450 H   0  0  0  0  0  0  0  0  0  0  0  0
  1  2  1  0  0  0  0
  2  7  2  0  0  0  0
  2  3  1  0  0  0  0
  3  4  2  0  0  0  0
  4  5  1  0  0  0  0
  4  8  1  0  0  0  0
  5  9  1  0  0  0  0
  6 10  1  0  0  0  0
  6  5  2  0  0  0  0
  7  6  1  0  0  0  0
 11 12  2  0  0  0  0
 11  7  1  0  0  0  0
 12 13  1  0  0  0  0
 14 12  1  0  0  0  0
 15 14  1  0  0  0  0
 16 18  1  0  0  0  0
 16 14  2  0  0  0  0
 17 16  1  0  0  0  0
 18 11  1  0  0  0  0
 19  3  1  0  0  0  0
 20 19  2  0  0  0  0
 21 27  1  0  0  0  0
 21 26  1  0  0  0  0
 22 23  1  0  0  0  0
 22 21  2  0  0  0  0
 23 24  2  0  0  0  0
 24 25  1  0  0  0  0
 25 19  1  0  0  0  0
 26 25  2  0  0  0  0
 28 22  1  0  0  0  0
 29 23  1  0  0  0  0
M  END
>  <minimizedAffinity>
-5.16662931

$$$$

 OpenBabel03242513153D

 29 31  0  0  0  0  0  0  0  0999 V2000
   39.6330   28.1130   42.6750 Cl  0  0  0  0  0  0  0  0  0  0  0  0
   38.9320   26.5210   42.4250 C   0  0  0  0  0  0  0  0  0  0  0  0
   37.5700   26.3870   42.3500 C   0  0  0  0  0  0  0  0  0  0  0  0
   37.0610   25.1350   42.1140 C   0  0  0  0  0  0  0  0  0  0  0  0
   37.8990   24.0530   41.9610 C   0  0  0  0  0  0  0  0  0  0  0  0
   39.2770   24.1900   42.0400 C   0  0  0  0  0  0  0  0  0  0  0  0
   39.7810   25.4640   42.2780 C   0  0  0  0  0  0  0  0  0  0  0  0
   36.0340   24.8580   42.0080 H   0  0  0  0  0  0  0  0  0  0  0  0
   37.5320   23.0330   41.7710 H   0  0  0  0  0  0  0  0  0  0  0  0
   39.8940   23.2950   41.9110 H   0  0  0  0  0  0  0  0  0  0  0  0
   41.2430   25.5020   42.3530 C   0  0  0  0  0  0  0  0  0  0  0  0
   42.0880   25.5250   43.4380 C   0  0  0  0  0  0  0  0  0  0  0  0
   41.8780   25.5190   44.4720 H   0  0  0  0  0  0  0  0  0  0  0  0
   43.4140   25.5590   43.0740 C   0  0  0  0  0  0  0  0  0  0  0  0
   44.3300   25.5840   43.6400 H   0  0  0  0  0  0  0  0  0  0  0  0
   43.3220   25.5550   41.7010 C   0  0  0  0  0  0  0  0  0  0  0  0
   44.1130   25.5750   40.9310 H   0  0  0  0  0  0  0  0  0  0  0  0
   42.0770   25.5230   41.3410 O   0  0  0  0  0  0  0  0  0  0  0  0
   36.7300   27.5540   42.5500 C   0  0  0  0  0  0  0  0  0  0  0  0
   36.1810   27.6760   43.6790 O   0  0  0  0  0  0  0  0  0  0  0  0
   36.5030   30.7530   40.8620 C   0  0  0  0  0  0  0  0  0  0  0  0
   36.1700   30.4590   39.5340 C   0  0  0  0  0  0  0  0  0  0  0  0
   36.0270   29.1090   39.2490 C   0  0  0  0  0  0  0  0  0  0  0  0
   36.2150   28.1860   40.2490 N   0  0  0  0  0  0  0  0  0  0  0  0
   36.5330   28.5300   41.4970 C   0  0  0  0  0  0  0  0  0  0  0  0
   36.6740   29.8290   41.7890 N   0  0  0  0  0  0  0  0  0  0  0  0
   36.6340   31.7910   41.1680 H   0  0  0  0  0  0  0  0  0  0  0  0
   36.0360   31.2270   38.7960 H   0  0  0  0  0  0  0  0  0  0  0  0
   35.7700   28.7850   38.2510 H   0  0  0  0  0  0  0  0  0  0  0  0
  2  1  1  0  0  0  0
  3  2  1  0  0  0  0
  3 19  1  0  0  0  0
  4  3  2  0  0  0  0
  5  6  2  0  0  0  0
  5  4  1  0  0  0  0
  6  7  1  0  0  0  0
  7 11  1  0  0  0  0
  7  2  2  0  0  0  0
  8  4  1  0  0  0  0
  9  5  1  0  0  0  0
 10  6  1  0  0  0  0
 11 12  2  0  0  0  0
 12 13  1  0  0  0  0
 14 12  1  0  0  0  0
 14 15  1  0  0  0  0
 16 14  2  0  0  0  0
 17 16  1  0  0  0  0
 18 16  1  0  0  0  0
 18 11  1  0  0  0  0
 19 20  2  0  0  0  0
 21 27  1  0  0  0  0
 21 26  1  0  0  0  0
 22 21  2  0  0  0  0
 23 22  1  0  0  0  0
 23 24  2  0  0  0  0
 24 25  1  0  0  0  0
 25 26  2  0  0  0  0
 25 19  1  0  0  0  0
 28 22  1  0  0  0  0
 29 23  1  0  0  0  0
M  END
>  <minimizedAffinity>
-5.07721424

$$$$

 OpenBabel03242513153D

 29 31  0  0  0  0  0  0  0  0999 V2000
   36.1220   28.9500   40.8180 Cl  0  0  0  0  0  0  0  0  0  0  0  0
   37.6900   29.1990   41.5730 C   0  0  0  0  0  0  0  0  0  0  0  0
   38.1740   28.2630   42.4480 C   0  0  0  0  0  0  0  0  0  0  0  0
   39.4180   28.4720   42.9870 C   0  0  0  0  0  0  0  0  0  0  0  0
   40.1480   29.5910   42.6560 C   0  0  0  0  0  0  0  0  0  0  0  0
   39.6550   30.5400   41.7720 C   0  0  0  0  0  0  0  0  0  0  0  0
   38.3940   30.3160   41.2310 C   0  0  0  0  0  0  0  0  0  0  0  0
   39.9510   27.8390   43.6650 H   0  0  0  0  0  0  0  0  0  0  0  0
   41.1490   29.7970   43.0650 H   0  0  0  0  0  0  0  0  0  0  0  0
   40.2800   31.4100   41.5450 H   0  0  0  0  0  0  0  0  0  0  0  0
   37.9600   31.3770   40.3190 C   0  0  0  0  0  0  0  0  0  0  0  0
   37.7380   31.3620   38.9620 C   0  0  0  0  0  0  0  0  0  0  0  0
   37.8280   30.5790   38.2600 H   0  0  0  0  0  0  0  0  0  0  0  0
   37.3320   32.5840   38.4800 C   0  0  0  0  0  0  0  0  0  0  0  0
   37.0740   32.9350   37.4940 H   0  0  0  0  0  0  0  0  0  0  0  0
   37.3210   33.3420   39.6280 C   0  0  0  0  0  0  0  0  0  0  0  0
   37.0640   34.4050   39.7800 H   0  0  0  0  0  0  0  0  0  0  0  0
   37.6830   32.6180   40.6400 O   0  0  0  0  0  0  0  0  0  0  0  0
   37.3510   27.1160   42.7880 C   0  0  0  0  0  0  0  0  0  0  0  0
   36.4490   27.2970   43.6520 O   0  0  0  0  0  0  0  0  0  0  0  0
   36.8340   24.2370   40.6490 C   0  0  0  0  0  0  0  0  0  0  0  0
   37.8940   23.3640   40.9240 C   0  0  0  0  0  0  0  0  0  0  0  0
   38.7940   23.8140   41.8790 C   0  0  0  0  0  0  0  0  0  0  0  0
   38.5930   25.0390   42.4690 N   0  0  0  0  0  0  0  0  0  0  0  0
   37.5610   25.8260   42.1640 C   0  0  0  0  0  0  0  0  0  0  0  0
   36.6830   25.4060   41.2440 N   0  0  0  0  0  0  0  0  0  0  0  0
   36.0820   23.9580   39.9100 H   0  0  0  0  0  0  0  0  0  0  0  0
   37.9980   22.4180   40.4280 H   0  0  0  0  0  0  0  0  0  0  0  0
   39.6450   23.2100   42.1580 H   0  0  0  0  0  0  0  0  0  0  0  0
  1  2  1  0  0  0  0
  2  3  1  0  0  0  0
  3 19  1  0  0  0  0
  3  4  2  0  0  0  0
  4  8  1  0  0  0  0
  5  4  1  0  0  0  0
  5  9  1  0  0  0  0
  6  5  2  0  0  0  0
  7  2  2  0  0  0  0
  7  6  1  0  0  0  0
 10  6  1  0  0  0  0
 11 18  1  0  0  0  0
 11  7  1  0  0  0  0
 12 11  2  0  0  0  0
 13 12  1  0  0  0  0
 14 12  1  0  0  0  0
 14 16  2  0  0  0  0
 15 14  1  0  0  0  0
 16 17  1  0  0  0  0
 16 18  1  0  0  0  0
 19 20  2  0  0  0  0
 21 22  2  0  0  0  0
 21 26  1  0  0  0  0
 22 23  1  0  0  0  0
 23 29  1  0  0  0  0
 23 24  2  0  0  0  0
 25 24  1  0  0  0  0
 25 19  1  0  0  0  0
 26 25  2  0  0  0  0
 27 21  1  0  0  0  0
 28 22  1  0  0  0  0
M  END
>  <minimizedAffinity>
-5.04718876

$$$$

 OpenBabel03242513153D

 29 31  0  0  0  0  0  0  0  0999 V2000
   38.9200   30.6620   41.7400 Cl  0  0  0  0  0  0  0  0  0  0  0  0
   37.8420   30.4430   40.3690 C   0  0  0  0  0  0  0  0  0  0  0  0
   37.8010   31.3930   39.3830 C   0  0  0  0  0  0  0  0  0  0  0  0
   36.9780   31.1680   38.3090 C   0  0  0  0  0  0  0  0  0  0  0  0
   36.2180   30.0230   38.2350 C   0  0  0  0  0  0  0  0  0  0  0  0
   36.2580   29.0630   39.2350 C   0  0  0  0  0  0  0  0  0  0  0  0
   37.0980   29.3010   40.3170 C   0  0  0  0  0  0  0  0  0  0  0  0
   36.8400   31.7900   37.4510 H   0  0  0  0  0  0  0  0  0  0  0  0
   35.5440   29.8040   37.3920 H   0  0  0  0  0  0  0  0  0  0  0  0
   35.6320   28.1710   39.1230 H   0  0  0  0  0  0  0  0  0  0  0  0
   37.0630   28.2360   41.3220 C   0  0  0  0  0  0  0  0  0  0  0  0
   37.4850   26.9290   41.2620 C   0  0  0  0  0  0  0  0  0  0  0  0
   37.9370   26.3880   40.4770 H   0  0  0  0  0  0  0  0  0  0  0  0
   37.2700   26.2500   42.4390 C   0  0  0  0  0  0  0  0  0  0  0  0
   37.4690   25.2370   42.7490 H   0  0  0  0  0  0  0  0  0  0  0  0
   36.6890   27.2250   43.2160 C   0  0  0  0  0  0  0  0  0  0  0  0
   36.3250   27.1870   44.2580 H   0  0  0  0  0  0  0  0  0  0  0  0
   36.5930   28.3290   42.5430 O   0  0  0  0  0  0  0  0  0  0  0  0
   38.5980   32.5980   39.5250 C   0  0  0  0  0  0  0  0  0  0  0  0
   38.1520   33.4910   40.2980 O   0  0  0  0  0  0  0  0  0  0  0  0
   41.7930   33.9770   38.5140 C   0  0  0  0  0  0  0  0  0  0  0  0
   42.2550   33.1500   37.4830 C   0  0  0  0  0  0  0  0  0  0  0  0
   41.4150   32.0970   37.1530 C   0  0  0  0  0  0  0  0  0  0  0  0
   40.2320   31.9410   37.8340 N   0  0  0  0  0  0  0  0  0  0  0  0
   39.8470   32.7650   38.8100 C   0  0  0  0  0  0  0  0  0  0  0  0
   40.6470   33.7860   39.1400 N   0  0  0  0  0  0  0  0  0  0  0  0
   42.3960   34.8290   38.8340 H   0  0  0  0  0  0  0  0  0  0  0  0
   43.1920   33.3240   36.9870 H   0  0  0  0  0  0  0  0  0  0  0  0
   41.6860   31.4050   36.3690 H   0  0  0  0  0  0  0  0  0  0  0  0
  2  1  1  0  0  0  0
  3 19  1  0  0  0  0
  3  2  2  0  0  0  0
  4  3  1  0  0  0  0
  5  4  2  0  0  0  0
  5  6  1  0  0  0  0
  6  7  2  0  0  0  0
  7  2  1  0  0  0  0
  7 11  1  0  0  0  0
  8  4  1  0  0  0  0
  9  5  1  0  0  0  0
 10  6  1  0  0  0  0
 11 18  1  0  0  0  0
 12 11  2  0  0  0  0
 12 14  1  0  0  0  0
 13 12  1  0  0  0  0
 14 15  1  0  0  0  0
 14 16  2  0  0  0  0
 16 17  1  0  0  0  0
 18 16  1  0  0  0  0
 19 20  2  0  0  0  0
 21 27  1  0  0  0  0
 21 26  1  0  0  0  0
 22 21  2  0  0  0  0
 23 22  1  0  0  0  0
 23 24  2  0  0  0  0
 24 25  1  0  0  0  0
 25 26  2  0  0  0  0
 25 19  1  0  0  0  0
 28 22  1  0  0  0  0
 29 23  1  0  0  0  0
M  END
>  <minimizedAffinity>
-5.04492807

$$$$

 OpenBabel03242513153D

 29 31  0  0  0  0  0  0  0  0999 V2000
   39.6690   28.3490   41.4480 Cl  0  0  0  0  0  0  0  0  0  0  0  0
   38.1040   29.0970   41.1650 C   0  0  0  0  0  0  0  0  0  0  0  0
   38.0250   30.4540   40.9900 C   0  0  0  0  0  0  0  0  0  0  0  0
   36.7920   30.9970   40.7320 C   0  0  0  0  0  0  0  0  0  0  0  0
   35.6740   30.1960   40.6540 C   0  0  0  0  0  0  0  0  0  0  0  0
   35.7550   28.8230   40.8330 C   0  0  0  0  0  0  0  0  0  0  0  0
   37.0110   28.2850   41.0930 C   0  0  0  0  0  0  0  0  0  0  0  0
   36.5560   32.0240   40.5530 H   0  0  0  0  0  0  0  0  0  0  0  0
   34.6680   30.5910   40.4490 H   0  0  0  0  0  0  0  0  0  0  0  0
   34.8340   28.2360   40.7600 H   0  0  0  0  0  0  0  0  0  0  0  0
   36.9900   26.8320   41.2760 C   0  0  0  0  0  0  0  0  0  0  0  0
   37.0530   26.0670   42.4170 C   0  0  0  0  0  0  0  0  0  0  0  0
   37.1290   26.3510   43.4310 H   0  0  0  0  0  0  0  0  0  0  0  0
   37.0020   24.7180   42.1530 C   0  0  0  0  0  0  0  0  0  0  0  0
   37.0260   23.8460   42.7850 H   0  0  0  0  0  0  0  0  0  0  0  0
   36.9050   24.7110   40.7810 C   0  0  0  0  0  0  0  0  0  0  0  0
   36.8350   23.8660   40.0740 H   0  0  0  0  0  0  0  0  0  0  0  0
   36.9010   25.9270   40.3310 O   0  0  0  0  0  0  0  0  0  0  0  0
   39.2290   31.2560   41.1140 C   0  0  0  0  0  0  0  0  0  0  0  0
   39.6630   31.4590   42.2820 O   0  0  0  0  0  0  0  0  0  0  0  0
   40.6190   31.4820   37.7750 C   0  0  0  0  0  0  0  0  0  0  0  0
   41.1630   32.7680   37.6760 C   0  0  0  0  0  0  0  0  0  0  0  0
   41.0280   33.5530   38.8120 C   0  0  0  0  0  0  0  0  0  0  0  0
   40.3940   33.0350   39.9160 N   0  0  0  0  0  0  0  0  0  0  0  0
   39.8950   31.7990   39.9480 C   0  0  0  0  0  0  0  0  0  0  0  0
   40.0180   31.0290   38.8600 N   0  0  0  0  0  0  0  0  0  0  0  0
   40.6830   30.8010   36.9250 H   0  0  0  0  0  0  0  0  0  0  0  0
   41.6470   33.1160   36.7830 H   0  0  0  0  0  0  0  0  0  0  0  0
   41.4170   34.5600   38.8310 H   0  0  0  0  0  0  0  0  0  0  0  0
  2  1  1  0  0  0  0
  3 19  1  0  0  0  0
  3  2  2  0  0  0  0
  4  3  1  0  0  0  0
  5  4  2  0  0  0  0
  5  6  1  0  0  0  0
  6  7  2  0  0  0  0
  7  2  1  0  0  0  0
  7 11  1  0  0  0  0
  8  4  1  0  0  0  0
  9  5  1  0  0  0  0
 10  6  1  0  0  0  0
 11 12  2  0  0  0  0
 12 13  1  0  0  0  0
 14 12  1  0  0  0  0
 14 15  1  0  0  0  0
 16 14  2  0  0  0  0
 17 16  1  0  0  0  0
 18 16  1  0  0  0  0
 18 11  1  0  0  0  0
 19 20  2  0  0  0  0
 21 26  1  0  0  0  0
 22 21  2  0  0  0  0
 22 23  1  0  0  0  0
 23 29  1  0  0  0  0
 23 24  2  0  0  0  0
 24 25  1  0  0  0  0
 25 19  1  0  0  0  0
 26 25  2  0  0  0  0
 27 21  1  0  0  0  0
 28 22  1  0  0  0  0
M  END
>  <minimizedAffinity>
-5.02118158

$$$$

 OpenBabel03242513153D

 29 31  0  0  0  0  0  0  0  0999 V2000
   39.8240   27.0800   40.3790 Cl  0  0  0  0  0  0  0  0  0  0  0  0
   38.7300   27.4750   41.6960 C   0  0  0  0  0  0  0  0  0  0  0  0
   38.8790   28.6620   42.3650 C   0  0  0  0  0  0  0  0  0  0  0  0
   37.9820   28.9540   43.3610 C   0  0  0  0  0  0  0  0  0  0  0  0
   36.9680   28.0760   43.6730 C   0  0  0  0  0  0  0  0  0  0  0  0
   36.8200   26.8740   42.9970 C   0  0  0  0  0  0  0  0  0  0  0  0
   37.7350   26.5900   41.9890 C   0  0  0  0  0  0  0  0  0  0  0  0
   37.9410   29.8350   43.9640 H   0  0  0  0  0  0  0  0  0  0  0  0
   36.2280   28.2710   44.4640 H   0  0  0  0  0  0  0  0  0  0  0  0
   35.9960   26.2140   43.2880 H   0  0  0  0  0  0  0  0  0  0  0  0
   37.5000   25.2960   41.3430 C   0  0  0  0  0  0  0  0  0  0  0  0
   38.1160   24.0790   41.5160 C   0  0  0  0  0  0  0  0  0  0  0  0
   38.9030   23.7930   42.1580 H   0  0  0  0  0  0  0  0  0  0  0  0
   37.5900   23.1010   40.7040 C   0  0  0  0  0  0  0  0  0  0  0  0
   37.8190   22.0560   40.5720 H   0  0  0  0  0  0  0  0  0  0  0  0
   36.6170   23.8000   40.0270 C   0  0  0  0  0  0  0  0  0  0  0  0
   35.9060   23.4660   39.2530 H   0  0  0  0  0  0  0  0  0  0  0  0
   36.6040   25.0350   40.4220 O   0  0  0  0  0  0  0  0  0  0  0  0
   39.9830   29.5380   42.0180 C   0  0  0  0  0  0  0  0  0  0  0  0
   41.0910   29.3090   42.5770 O   0  0  0  0  0  0  0  0  0  0  0  0
   39.0780   32.7800   40.6740 C   0  0  0  0  0  0  0  0  0  0  0  0
   39.4580   32.7530   39.3270 C   0  0  0  0  0  0  0  0  0  0  0  0
   40.0390   31.5660   38.9040 C   0  0  0  0  0  0  0  0  0  0  0  0
   40.1980   30.5380   39.8010 N   0  0  0  0  0  0  0  0  0  0  0  0
   39.8150   30.6250   41.0750 C   0  0  0  0  0  0  0  0  0  0  0  0
   39.2520   31.7630   41.4990 N   0  0  0  0  0  0  0  0  0  0  0  0
   38.6130   33.6770   41.0860 H   0  0  0  0  0  0  0  0  0  0  0  0
   39.3070   33.5910   38.6740 H   0  0  0  0  0  0  0  0  0  0  0  0
   40.3650   31.4500   37.8810 H   0  0  0  0  0  0  0  0  0  0  0  0
  1  2  1  0  0  0  0
  2  7  2  0  0  0  0
  2  3  1  0  0  0  0
  3  4  2  0  0  0  0
  4  5  1  0  0  0  0
  4  8  1  0  0  0  0
  5  9  1  0  0  0  0
  6 10  1  0  0  0  0
  6  5  2  0  0  0  0
  7  6  1  0  0  0  0
 11 12  2  0  0  0  0
 11  7  1  0  0  0  0
 12 13  1  0  0  0  0
 14 12  1  0  0  0  0
 15 14  1  0  0  0  0
 16 18  1  0  0  0  0
 16 14  2  0  0  0  0
 17 16  1  0  0  0  0
 18 11  1  0  0  0  0
 19  3  1  0  0  0  0
 19 20  2  0  0  0  0
 21 27  1  0  0  0  0
 21 26  1  0  0  0  0
 22 21  2  0  0  0  0
 23 22  1  0  0  0  0
 23 24  2  0  0  0  0
 24 25  1  0  0  0  0
 25 26  2  0  0  0  0
 25 19  1  0  0  0  0
 28 22  1  0  0  0  0
 29 23  1  0  0  0  0
M  END
>  <minimizedAffinity>
-4.96096706

$$$$

 OpenBabel03242513153D

 29 31  0  0  0  0  0  0  0  0999 V2000
   37.6720   31.8160   37.0250 Cl  0  0  0  0  0  0  0  0  0  0  0  0
   36.9290   31.0880   38.4420 C   0  0  0  0  0  0  0  0  0  0  0  0
   37.0110   31.7270   39.6510 C   0  0  0  0  0  0  0  0  0  0  0  0
   36.3850   31.1480   40.7260 C   0  0  0  0  0  0  0  0  0  0  0  0
   35.7010   29.9610   40.5860 C   0  0  0  0  0  0  0  0  0  0  0  0
   35.6220   29.3140   39.3610 C   0  0  0  0  0  0  0  0  0  0  0  0
   36.2590   29.9120   38.2790 C   0  0  0  0  0  0  0  0  0  0  0  0
   36.3330   31.5180   41.7280 H   0  0  0  0  0  0  0  0  0  0  0  0
   35.1860   29.4640   41.4210 H   0  0  0  0  0  0  0  0  0  0  0  0
   35.0650   28.3730   39.3080 H   0  0  0  0  0  0  0  0  0  0  0  0
   36.1250   29.1480   37.0370 C   0  0  0  0  0  0  0  0  0  0  0  0
   36.9950   28.2850   36.4130 C   0  0  0  0  0  0  0  0  0  0  0  0
   37.9640   27.9690   36.6870 H   0  0  0  0  0  0  0  0  0  0  0  0
   36.4810   27.7670   35.2470 C   0  0  0  0  0  0  0  0  0  0  0  0
   36.8700   27.0780   34.5160 H   0  0  0  0  0  0  0  0  0  0  0  0
   35.2450   28.3700   35.2010 C   0  0  0  0  0  0  0  0  0  0  0  0
   34.4360   28.2860   34.4550 H   0  0  0  0  0  0  0  0  0  0  0  0
   35.0900   29.1400   36.2320 O   0  0  0  0  0  0  0  0  0  0  0  0
   37.7710   32.9600   39.7530 C   0  0  0  0  0  0  0  0  0  0  0  0
   37.1460   34.0350   39.5410 O   0  0  0  0  0  0  0  0  0  0  0  0
   41.1190   34.1560   40.4540 C   0  0  0  0  0  0  0  0  0  0  0  0
   41.8880   33.0120   40.7020 C   0  0  0  0  0  0  0  0  0  0  0  0
   41.1980   31.8110   40.6160 C   0  0  0  0  0  0  0  0  0  0  0  0
   39.8600   31.8240   40.3060 N   0  0  0  0  0  0  0  0  0  0  0  0
   39.1820   32.9500   40.0810 C   0  0  0  0  0  0  0  0  0  0  0  0
   39.8330   34.1170   40.1590 N   0  0  0  0  0  0  0  0  0  0  0  0
   41.5860   35.1410   40.5020 H   0  0  0  0  0  0  0  0  0  0  0  0
   42.9330   33.0670   40.9400 H   0  0  0  0  0  0  0  0  0  0  0  0
   41.7070   30.8740   40.7910 H   0  0  0  0  0  0  0  0  0  0  0  0
  1  2  1  0  0  0  0
  2  3  1  0  0  0  0
  3 19  1  0  0  0  0
  3  4  2  0  0  0  0
  4  8  1  0  0  0  0
  5  4  1  0  0  0  0
  5  9  1  0  0  0  0
  6  5  2  0  0  0  0
  7  2  2  0  0  0  0
  7  6  1  0  0  0  0
 10  6  1  0  0  0  0
 11  7  1  0  0  0  0
 12 13  1  0  0  0  0
 12 11  2  0  0  0  0
 14 12  1  0  0  0  0
 15 14  1  0  0  0  0
 16 14  2  0  0  0  0
 16 18  1  0  0  0  0
 17 16  1  0  0  0  0
 18 11  1  0  0  0  0
 19 25  1  0  0  0  0
 20 19  2  0  0  0  0
 21 27  1  0  0  0  0
 21 22  1  0  0  0  0
 22 28  1  0  0  0  0
 23 22  2  0  0  0  0
 23 29  1  0  0  0  0
 24 23  1  0  0  0  0
 25 26  1  0  0  0  0
 25 24  2  0  0  0  0
 26 21  2  0  0  0  0
M  END
>  <minimizedAffinity>
-4.94886684

$$$$
