
 OpenBabel03242515003D

 36 38  0  0  0  0  0  0  0  0999 V2000
   43.8580   34.7690   40.7810 S   0  0  0  0  0  0  0  0  0  0  0  0
   45.1300   34.4770   42.0130 C   0  0  0  0  0  0  0  0  0  0  0  0
   46.4600   34.5340   41.5650 C   0  0  0  0  0  0  0  0  0  0  0  0
   47.4850   34.3120   42.4920 C   0  0  0  0  0  0  0  0  0  0  0  0
   47.1290   34.0530   43.7840 N   0  0  0  0  0  0  0  0  0  0  0  0
   45.8490   34.0030   44.1960 C   0  0  0  0  0  0  0  0  0  0  0  0
   44.8900   34.2160   43.3000 N   0  0  0  0  0  0  0  0  0  0  0  0
   46.6700   34.7430   40.5290 H   0  0  0  0  0  0  0  0  0  0  0  0
   48.4980   34.3500   42.1720 H   0  0  0  0  0  0  0  0  0  0  0  0
   45.5950   33.7200   45.5920 C   0  0  0  0  0  0  0  0  0  0  0  0
   44.8690   34.5450   46.2170 O   0  0  0  0  0  0  0  0  0  0  0  0
   46.1250   32.5530   46.2900 C   0  0  0  0  0  0  0  0  0  0  0  0
   47.0250   32.6490   47.3310 C   0  0  0  0  0  0  0  0  0  0  0  0
   47.4700   33.5480   47.7860 H   0  0  0  0  0  0  0  0  0  0  0  0
   47.2620   31.3380   47.6990 C   0  0  0  0  0  0  0  0  0  0  0  0
   47.9440   31.0790   48.5100 H   0  0  0  0  0  0  0  0  0  0  0  0
   46.4980   30.5100   46.8670 C   0  0  0  0  0  0  0  0  0  0  0  0
   46.5640   29.4410   47.0190 H   0  0  0  0  0  0  0  0  0  0  0  0
   45.8480   31.3050   46.0570 O   0  0  0  0  0  0  0  0  0  0  0  0
   42.2190   34.8560   41.4950 C   0  0  0  0  0  0  0  0  0  0  0  0
   42.3270   35.0970   42.5680 H   0  0  0  0  0  0  0  0  0  0  0  0
   41.7440   33.8570   41.3730 H   0  0  0  0  0  0  0  0  0  0  0  0
   41.3370   35.8540   40.8210 C   0  0  0  0  0  0  0  0  0  0  0  0
   41.8630   36.6950   40.3420 H   0  0  0  0  0  0  0  0  0  0  0  0
   40.6740   36.3110   41.5920 H   0  0  0  0  0  0  0  0  0  0  0  0
   42.0610   36.0920   37.8780 Cl  0  0  0  0  0  0  0  0  0  0  0  0
   40.6730   35.2440   38.4640 C   0  0  0  0  0  0  0  0  0  0  0  0
   40.4290   35.1950   39.8480 C   0  0  0  0  0  0  0  0  0  0  0  0
   39.3050   34.5030   40.2440 C   0  0  0  0  0  0  0  0  0  0  0  0
   38.3920   33.8500   39.4170 C   0  0  0  0  0  0  0  0  0  0  0  0
   38.6620   33.9190   38.0640 C   0  0  0  0  0  0  0  0  0  0  0  0
   37.5630   33.1240   36.9340 Cl  0  0  0  0  0  0  0  0  0  0  0  0
   39.7690   34.5960   37.6120 C   0  0  0  0  0  0  0  0  0  0  0  0
   39.1410   34.4800   41.3170 H   0  0  0  0  0  0  0  0  0  0  0  0
   37.5470   33.3400   39.8410 H   0  0  0  0  0  0  0  0  0  0  0  0
   39.9370   34.6210   36.5360 H   0  0  0  0  0  0  0  0  0  0  0  0
  1 20  1  0  0  0  0
  1  2  1  0  0  0  0
  2  7  1  0  0  0  0
  3  2  2  0  0  0  0
  3  4  1  0  0  0  0
  4  5  2  0  0  0  0
  5  6  1  0  0  0  0
  6 10  1  0  0  0  0
  7  6  2  0  0  0  0
  8  3  1  0  0  0  0
  9  4  1  0  0  0  0
 10 11  2  0  0  0  0
 10 12  1  0  0  0  0
 12 13  2  0  0  0  0
 13 15  1  0  0  0  0
 13 14  1  0  0  0  0
 15 16  1  0  0  0  0
 17 18  1  0  0  0  0
 17 15  2  0  0  0  0
 19 12  1  0  0  0  0
 19 17  1  0  0  0  0
 20 21  1  0  0  0  0
 22 20  1  0  0  0  0
 23 20  1  0  0  0  0
 23 25  1  0  0  0  0
 24 23  1  0  0  0  0
 26 27  1  0  0  0  0
 27 28  1  0  0  0  0
 28 29  2  0  0  0  0
 28 23  1  0  0  0  0
 29 34  1  0  0  0  0
 30 35  1  0  0  0  0
 30 29  1  0  0  0  0
 31 30  2  0  0  0  0
 32 31  1  0  0  0  0
 33 31  1  0  0  0  0
 33 27  2  0  0  0  0
 36 33  1  0  0  0  0
M  END
>  <minimizedAffinity>
-6.48352194

>  <minimizedRMSD>
0.526693225

$$$$
