
 OpenBabel03242515003D

 36 38  0  0  0  0  0  0  0  0999 V2000
   43.4570   34.9630   40.7340 S   0  0  0  0  0  0  0  0  0  0  0  0
   44.7220   34.7010   41.9810 C   0  0  0  0  0  0  0  0  0  0  0  0
   46.0380   34.5500   41.5150 C   0  0  0  0  0  0  0  0  0  0  0  0
   47.0570   34.3430   42.4520 C   0  0  0  0  0  0  0  0  0  0  0  0
   46.7080   34.3010   43.7710 N   0  0  0  0  0  0  0  0  0  0  0  0
   45.4420   34.4470   44.2010 C   0  0  0  0  0  0  0  0  0  0  0  0
   44.4890   34.6420   43.2940 N   0  0  0  0  0  0  0  0  0  0  0  0
   46.2430   34.5940   40.4580 H   0  0  0  0  0  0  0  0  0  0  0  0
   48.0590   34.2270   42.1190 H   0  0  0  0  0  0  0  0  0  0  0  0
   45.1940   34.3840   45.6250 C   0  0  0  0  0  0  0  0  0  0  0  0
   44.5000   35.3150   46.1240 O   0  0  0  0  0  0  0  0  0  0  0  0
   45.6970   33.3180   46.4860 C   0  0  0  0  0  0  0  0  0  0  0  0
   46.8310   32.5910   46.1900 C   0  0  0  0  0  0  0  0  0  0  0  0
   47.5070   32.6760   45.3250 H   0  0  0  0  0  0  0  0  0  0  0  0
   46.9500   31.7030   47.2430 C   0  0  0  0  0  0  0  0  0  0  0  0
   47.7650   30.9780   47.3010 H   0  0  0  0  0  0  0  0  0  0  0  0
   45.8870   31.9310   48.1250 C   0  0  0  0  0  0  0  0  0  0  0  0
   45.8250   31.3170   49.0130 H   0  0  0  0  0  0  0  0  0  0  0  0
   45.1850   32.9050   47.6070 O   0  0  0  0  0  0  0  0  0  0  0  0
   41.8190   35.1050   41.4400 C   0  0  0  0  0  0  0  0  0  0  0  0
   41.9250   35.4680   42.4790 H   0  0  0  0  0  0  0  0  0  0  0  0
   41.3590   34.0920   41.4340 H   0  0  0  0  0  0  0  0  0  0  0  0
   40.9190   36.0070   40.6610 C   0  0  0  0  0  0  0  0  0  0  0  0
   41.4190   36.8620   40.1800 H   0  0  0  0  0  0  0  0  0  0  0  0
   40.1730   36.4460   41.3610 H   0  0  0  0  0  0  0  0  0  0  0  0
   41.7700   36.2560   37.7530 Cl  0  0  0  0  0  0  0  0  0  0  0  0
   40.4420   35.2880   38.2890 C   0  0  0  0  0  0  0  0  0  0  0  0
   40.1320   35.2420   39.6600 C   0  0  0  0  0  0  0  0  0  0  0  0
   39.0610   34.4520   40.0160 C   0  0  0  0  0  0  0  0  0  0  0  0
   38.2600   33.6960   39.1620 C   0  0  0  0  0  0  0  0  0  0  0  0
   38.5930   33.7640   37.8230 C   0  0  0  0  0  0  0  0  0  0  0  0
   37.6370   32.8430   36.6590 Cl  0  0  0  0  0  0  0  0  0  0  0  0
   39.6510   34.5380   37.4100 C   0  0  0  0  0  0  0  0  0  0  0  0
   38.8440   34.4340   41.0800 H   0  0  0  0  0  0  0  0  0  0  0  0
   37.4480   33.1130   39.5550 H   0  0  0  0  0  0  0  0  0  0  0  0
   39.8720   34.5570   36.3430 H   0  0  0  0  0  0  0  0  0  0  0  0
  1 20  1  0  0  0  0
  1  2  1  0  0  0  0
  2  7  1  0  0  0  0
  3  2  2  0  0  0  0
  3  4  1  0  0  0  0
  4  5  2  0  0  0  0
  5  6  1  0  0  0  0
  6 10  1  0  0  0  0
  7  6  2  0  0  0  0
  8  3  1  0  0  0  0
  9  4  1  0  0  0  0
 10 11  2  0  0  0  0
 10 12  1  0  0  0  0
 12 19  1  0  0  0  0
 13 12  2  0  0  0  0
 13 15  1  0  0  0  0
 14 13  1  0  0  0  0
 15 16  1  0  0  0  0
 15 17  2  0  0  0  0
 17 18  1  0  0  0  0
 19 17  1  0  0  0  0
 20 21  1  0  0  0  0
 22 20  1  0  0  0  0
 23 25  1  0  0  0  0
 23 20  1  0  0  0  0
 24 23  1  0  0  0  0
 26 27  1  0  0  0  0
 27 28  1  0  0  0  0
 28 29  2  0  0  0  0
 28 23  1  0  0  0  0
 29 34  1  0  0  0  0
 30 35  1  0  0  0  0
 30 29  1  0  0  0  0
 31 30  2  0  0  0  0
 32 31  1  0  0  0  0
 33 31  1  0  0  0  0
 33 27  2  0  0  0  0
 36 33  1  0  0  0  0
M  END
>  <minimizedAffinity>
-6.73803091

>  <minimizedRMSD>
0.248029143

$$$$
