
 OpenBabel03242515003D

 36 38  0  0  0  0  0  0  0  0999 V2000
   43.7340   34.8730   40.7720 S   0  0  0  0  0  0  0  0  0  0  0  0
   45.0330   34.5910   41.9790 C   0  0  0  0  0  0  0  0  0  0  0  0
   46.3520   34.6220   41.4990 C   0  0  0  0  0  0  0  0  0  0  0  0
   47.3970   34.4060   42.4040 C   0  0  0  0  0  0  0  0  0  0  0  0
   47.0690   34.1790   43.7100 N   0  0  0  0  0  0  0  0  0  0  0  0
   45.8000   34.1530   44.1540 C   0  0  0  0  0  0  0  0  0  0  0  0
   44.8220   34.3590   43.2770 N   0  0  0  0  0  0  0  0  0  0  0  0
   46.5390   34.8070   40.4530 H   0  0  0  0  0  0  0  0  0  0  0  0
   48.4010   34.4250   42.0590 H   0  0  0  0  0  0  0  0  0  0  0  0
   45.5760   33.9020   45.5620 C   0  0  0  0  0  0  0  0  0  0  0  0
   44.7630   34.6680   46.1530 O   0  0  0  0  0  0  0  0  0  0  0  0
   46.2300   32.8310   46.3060 C   0  0  0  0  0  0  0  0  0  0  0  0
   46.0680   31.4960   45.9940 C   0  0  0  0  0  0  0  0  0  0  0  0
   45.4660   31.0360   45.1950 H   0  0  0  0  0  0  0  0  0  0  0  0
   46.8450   30.8330   46.9250 C   0  0  0  0  0  0  0  0  0  0  0  0
   46.9250   29.7440   46.9420 H   0  0  0  0  0  0  0  0  0  0  0  0
   47.4400   31.7900   47.7550 C   0  0  0  0  0  0  0  0  0  0  0  0
   48.0880   31.4420   48.5480 H   0  0  0  0  0  0  0  0  0  0  0  0
   47.0270   32.9540   47.3250 O   0  0  0  0  0  0  0  0  0  0  0  0
   42.1100   34.9560   41.5200 C   0  0  0  0  0  0  0  0  0  0  0  0
   42.2370   35.2380   42.5810 H   0  0  0  0  0  0  0  0  0  0  0  0
   41.6510   33.9450   41.4450 H   0  0  0  0  0  0  0  0  0  0  0  0
   41.1940   35.9140   40.8310 C   0  0  0  0  0  0  0  0  0  0  0  0
   41.6900   36.7790   40.3630 H   0  0  0  0  0  0  0  0  0  0  0  0
   40.4970   36.3370   41.5900 H   0  0  0  0  0  0  0  0  0  0  0  0
   41.9820   36.1620   37.9050 Cl  0  0  0  0  0  0  0  0  0  0  0  0
   40.6130   35.2650   38.4630 C   0  0  0  0  0  0  0  0  0  0  0  0
   40.3360   35.2140   39.8410 C   0  0  0  0  0  0  0  0  0  0  0  0
   39.2310   34.4830   40.2130 C   0  0  0  0  0  0  0  0  0  0  0  0
   38.3640   33.7910   39.3690 C   0  0  0  0  0  0  0  0  0  0  0  0
   38.6640   33.8630   38.0230 C   0  0  0  0  0  0  0  0  0  0  0  0
   37.6240   33.0190   36.8720 Cl  0  0  0  0  0  0  0  0  0  0  0  0
   39.7550   34.5780   37.5940 C   0  0  0  0  0  0  0  0  0  0  0  0
   39.0410   34.4600   41.2830 H   0  0  0  0  0  0  0  0  0  0  0  0
   37.5280   33.2510   39.7760 H   0  0  0  0  0  0  0  0  0  0  0  0
   39.9490   34.6030   36.5210 H   0  0  0  0  0  0  0  0  0  0  0  0
  1 20  1  0  0  0  0
  1  2  1  0  0  0  0
  2  7  1  0  0  0  0
  3  2  2  0  0  0  0
  3  4  1  0  0  0  0
  4  5  2  0  0  0  0
  5  6  1  0  0  0  0
  6 10  1  0  0  0  0
  7  6  2  0  0  0  0
  8  3  1  0  0  0  0
  9  4  1  0  0  0  0
 10 11  2  0  0  0  0
 10 12  1  0  0  0  0
 12 19  1  0  0  0  0
 13 12  2  0  0  0  0
 13 15  1  0  0  0  0
 14 13  1  0  0  0  0
 15 16  1  0  0  0  0
 15 17  2  0  0  0  0
 17 18  1  0  0  0  0
 19 17  1  0  0  0  0
 20 21  1  0  0  0  0
 22 20  1  0  0  0  0
 23 20  1  0  0  0  0
 23 25  1  0  0  0  0
 24 23  1  0  0  0  0
 26 27  1  0  0  0  0
 27 28  1  0  0  0  0
 28 29  2  0  0  0  0
 28 23  1  0  0  0  0
 29 34  1  0  0  0  0
 30 35  1  0  0  0  0
 30 29  1  0  0  0  0
 31 30  2  0  0  0  0
 32 31  1  0  0  0  0
 33 31  1  0  0  0  0
 33 27  2  0  0  0  0
 36 33  1  0  0  0  0
M  END
>  <minimizedAffinity>
-6.55584526

>  <minimizedRMSD>
0.349066377

$$$$
