
 OpenBabel03242515003D

 36 38  0  0  0  0  0  0  0  0999 V2000
   43.4870   34.9620   40.7520 S   0  0  0  0  0  0  0  0  0  0  0  0
   44.7630   34.6810   41.9830 C   0  0  0  0  0  0  0  0  0  0  0  0
   46.0740   34.5320   41.5030 C   0  0  0  0  0  0  0  0  0  0  0  0
   47.1010   34.3110   42.4280 C   0  0  0  0  0  0  0  0  0  0  0  0
   46.7640   34.2530   43.7500 N   0  0  0  0  0  0  0  0  0  0  0  0
   45.5020   34.3980   44.1930 C   0  0  0  0  0  0  0  0  0  0  0  0
   44.5410   34.6070   43.2970 N   0  0  0  0  0  0  0  0  0  0  0  0
   46.2690   34.5890   40.4450 H   0  0  0  0  0  0  0  0  0  0  0  0
   48.1000   34.1960   42.0840 H   0  0  0  0  0  0  0  0  0  0  0  0
   45.2680   34.3170   45.6180 C   0  0  0  0  0  0  0  0  0  0  0  0
   44.5030   35.1910   46.1190 O   0  0  0  0  0  0  0  0  0  0  0  0
   45.8590   33.2980   46.4780 C   0  0  0  0  0  0  0  0  0  0  0  0
   45.2390   32.8280   47.6180 C   0  0  0  0  0  0  0  0  0  0  0  0
   44.2660   33.1150   48.0490 H   0  0  0  0  0  0  0  0  0  0  0  0
   46.1220   31.8920   48.1250 C   0  0  0  0  0  0  0  0  0  0  0  0
   45.9100   31.3360   49.0400 H   0  0  0  0  0  0  0  0  0  0  0  0
   47.2310   31.8370   47.2730 C   0  0  0  0  0  0  0  0  0  0  0  0
   48.0270   31.1490   47.5230 H   0  0  0  0  0  0  0  0  0  0  0  0
   47.0020   32.7000   46.3180 O   0  0  0  0  0  0  0  0  0  0  0  0
   41.8570   35.1140   41.4760 C   0  0  0  0  0  0  0  0  0  0  0  0
   41.9770   35.4800   42.5120 H   0  0  0  0  0  0  0  0  0  0  0  0
   41.3930   34.1030   41.4790 H   0  0  0  0  0  0  0  0  0  0  0  0
   40.9530   36.0170   40.7030 C   0  0  0  0  0  0  0  0  0  0  0  0
   41.4490   36.8750   40.2230 H   0  0  0  0  0  0  0  0  0  0  0  0
   40.2090   36.4530   41.4090 H   0  0  0  0  0  0  0  0  0  0  0  0
   41.7960   36.2710   37.7930 Cl  0  0  0  0  0  0  0  0  0  0  0  0
   40.4690   35.3020   38.3320 C   0  0  0  0  0  0  0  0  0  0  0  0
   40.1620   35.2540   39.7040 C   0  0  0  0  0  0  0  0  0  0  0  0
   39.0930   34.4640   40.0610 C   0  0  0  0  0  0  0  0  0  0  0  0
   38.2890   33.7100   39.2070 C   0  0  0  0  0  0  0  0  0  0  0  0
   38.6180   33.7800   37.8680 C   0  0  0  0  0  0  0  0  0  0  0  0
   37.6590   32.8610   36.7050 Cl  0  0  0  0  0  0  0  0  0  0  0  0
   39.6750   34.5530   37.4530 C   0  0  0  0  0  0  0  0  0  0  0  0
   38.8780   34.4440   41.1260 H   0  0  0  0  0  0  0  0  0  0  0  0
   37.4780   33.1270   39.6020 H   0  0  0  0  0  0  0  0  0  0  0  0
   39.8940   34.5750   36.3860 H   0  0  0  0  0  0  0  0  0  0  0  0
  1 20  1  0  0  0  0
  1  2  1  0  0  0  0
  2  7  1  0  0  0  0
  3  2  2  0  0  0  0
  3  4  1  0  0  0  0
  4  5  2  0  0  0  0
  5  6  1  0  0  0  0
  6 10  1  0  0  0  0
  7  6  2  0  0  0  0
  8  3  1  0  0  0  0
  9  4  1  0  0  0  0
 10 11  2  0  0  0  0
 10 12  1  0  0  0  0
 12 13  2  0  0  0  0
 13 14  1  0  0  0  0
 13 15  1  0  0  0  0
 15 16  1  0  0  0  0
 17 18  1  0  0  0  0
 17 15  2  0  0  0  0
 19 12  1  0  0  0  0
 19 17  1  0  0  0  0
 20 22  1  0  0  0  0
 20 21  1  0  0  0  0
 23 25  1  0  0  0  0
 23 20  1  0  0  0  0
 24 23  1  0  0  0  0
 26 27  1  0  0  0  0
 27 28  1  0  0  0  0
 28 29  2  0  0  0  0
 28 23  1  0  0  0  0
 29 34  1  0  0  0  0
 30 35  1  0  0  0  0
 30 29  1  0  0  0  0
 31 30  2  0  0  0  0
 32 31  1  0  0  0  0
 33 31  1  0  0  0  0
 33 27  2  0  0  0  0
 36 33  1  0  0  0  0
M  END
>  <minimizedAffinity>
-6.7910943

>  <minimizedRMSD>
0.308547318

$$$$
