
 OpenBabel03242515003D

 36 38  0  0  0  0  0  0  0  0999 V2000
   43.8430   34.7550   40.7830 S   0  0  0  0  0  0  0  0  0  0  0  0
   45.1190   34.4710   42.0130 C   0  0  0  0  0  0  0  0  0  0  0  0
   46.4480   34.5340   41.5640 C   0  0  0  0  0  0  0  0  0  0  0  0
   47.4750   34.3180   42.4890 C   0  0  0  0  0  0  0  0  0  0  0  0
   47.1220   34.0590   43.7820 N   0  0  0  0  0  0  0  0  0  0  0  0
   45.8440   34.0030   44.1960 C   0  0  0  0  0  0  0  0  0  0  0  0
   44.8820   34.2090   43.3010 N   0  0  0  0  0  0  0  0  0  0  0  0
   46.6550   34.7430   40.5270 H   0  0  0  0  0  0  0  0  0  0  0  0
   48.4870   34.3610   42.1680 H   0  0  0  0  0  0  0  0  0  0  0  0
   45.5930   33.7200   45.5930 C   0  0  0  0  0  0  0  0  0  0  0  0
   44.8680   34.5450   46.2190 O   0  0  0  0  0  0  0  0  0  0  0  0
   46.1240   32.5530   46.2900 C   0  0  0  0  0  0  0  0  0  0  0  0
   47.0260   32.6500   47.3280 C   0  0  0  0  0  0  0  0  0  0  0  0
   47.4720   33.5490   47.7820 H   0  0  0  0  0  0  0  0  0  0  0  0
   47.2650   31.3380   47.6950 C   0  0  0  0  0  0  0  0  0  0  0  0
   47.9490   31.0800   48.5060 H   0  0  0  0  0  0  0  0  0  0  0  0
   46.5000   30.5100   46.8660 C   0  0  0  0  0  0  0  0  0  0  0  0
   46.5660   29.4410   47.0170 H   0  0  0  0  0  0  0  0  0  0  0  0
   45.8480   31.3050   46.0570 O   0  0  0  0  0  0  0  0  0  0  0  0
   42.2090   34.8670   41.5030 C   0  0  0  0  0  0  0  0  0  0  0  0
   42.3240   35.1220   42.5720 H   0  0  0  0  0  0  0  0  0  0  0  0
   41.7240   33.8710   41.3970 H   0  0  0  0  0  0  0  0  0  0  0  0
   41.3320   35.8630   40.8190 C   0  0  0  0  0  0  0  0  0  0  0  0
   41.8630   36.6990   40.3370 H   0  0  0  0  0  0  0  0  0  0  0  0
   40.6680   36.3270   41.5840 H   0  0  0  0  0  0  0  0  0  0  0  0
   42.0620   36.0940   37.8770 Cl  0  0  0  0  0  0  0  0  0  0  0  0
   40.6730   35.2460   38.4620 C   0  0  0  0  0  0  0  0  0  0  0  0
   40.4260   35.2010   39.8460 C   0  0  0  0  0  0  0  0  0  0  0  0
   39.3030   34.5090   40.2420 C   0  0  0  0  0  0  0  0  0  0  0  0
   38.3920   33.8530   39.4160 C   0  0  0  0  0  0  0  0  0  0  0  0
   38.6640   33.9190   38.0630 C   0  0  0  0  0  0  0  0  0  0  0  0
   37.5670   33.1200   36.9340 Cl  0  0  0  0  0  0  0  0  0  0  0  0
   39.7710   34.5950   37.6110 C   0  0  0  0  0  0  0  0  0  0  0  0
   39.1370   34.4890   41.3150 H   0  0  0  0  0  0  0  0  0  0  0  0
   37.5460   33.3430   39.8390 H   0  0  0  0  0  0  0  0  0  0  0  0
   39.9410   34.6170   36.5350 H   0  0  0  0  0  0  0  0  0  0  0  0
  1 20  1  0  0  0  0
  1  2  1  0  0  0  0
  2  7  1  0  0  0  0
  3  2  2  0  0  0  0
  3  4  1  0  0  0  0
  4  5  2  0  0  0  0
  5  6  1  0  0  0  0
  6 10  1  0  0  0  0
  7  6  2  0  0  0  0
  8  3  1  0  0  0  0
  9  4  1  0  0  0  0
 10 11  2  0  0  0  0
 10 12  1  0  0  0  0
 12 13  2  0  0  0  0
 13 15  1  0  0  0  0
 13 14  1  0  0  0  0
 15 16  1  0  0  0  0
 17 18  1  0  0  0  0
 17 15  2  0  0  0  0
 19 12  1  0  0  0  0
 19 17  1  0  0  0  0
 20 21  1  0  0  0  0
 22 20  1  0  0  0  0
 23 20  1  0  0  0  0
 23 25  1  0  0  0  0
 24 23  1  0  0  0  0
 26 27  1  0  0  0  0
 27 28  1  0  0  0  0
 28 29  2  0  0  0  0
 28 23  1  0  0  0  0
 29 34  1  0  0  0  0
 30 35  1  0  0  0  0
 30 29  1  0  0  0  0
 31 30  2  0  0  0  0
 32 31  1  0  0  0  0
 33 31  1  0  0  0  0
 33 27  2  0  0  0  0
 36 33  1  0  0  0  0
M  END
>  <minimizedAffinity>
-6.4865365

>  <minimizedRMSD>
0.580614686

$$$$
