
 OpenBabel03242515003D

 36 38  0  0  0  0  0  0  0  0999 V2000
   43.4550   34.9690   40.7300 S   0  0  0  0  0  0  0  0  0  0  0  0
   44.7260   34.7100   41.9700 C   0  0  0  0  0  0  0  0  0  0  0  0
   46.0430   34.5820   41.5000 C   0  0  0  0  0  0  0  0  0  0  0  0
   47.0670   34.3780   42.4320 C   0  0  0  0  0  0  0  0  0  0  0  0
   46.7220   34.3150   43.7510 N   0  0  0  0  0  0  0  0  0  0  0  0
   45.4550   34.4400   44.1860 C   0  0  0  0  0  0  0  0  0  0  0  0
   44.4970   34.6330   43.2840 N   0  0  0  0  0  0  0  0  0  0  0  0
   46.2450   34.6410   40.4430 H   0  0  0  0  0  0  0  0  0  0  0  0
   48.0700   34.2790   42.0960 H   0  0  0  0  0  0  0  0  0  0  0  0
   45.2120   34.3570   45.6100 C   0  0  0  0  0  0  0  0  0  0  0  0
   44.5120   35.2760   46.1220 O   0  0  0  0  0  0  0  0  0  0  0  0
   45.7250   33.2840   46.4560 C   0  0  0  0  0  0  0  0  0  0  0  0
   46.8330   32.5330   46.1220 C   0  0  0  0  0  0  0  0  0  0  0  0
   47.4770   32.6010   45.2310 H   0  0  0  0  0  0  0  0  0  0  0  0
   46.9730   31.6460   47.1730 C   0  0  0  0  0  0  0  0  0  0  0  0
   47.7750   30.9070   47.2030 H   0  0  0  0  0  0  0  0  0  0  0  0
   45.9480   31.8990   48.0920 C   0  0  0  0  0  0  0  0  0  0  0  0
   45.9070   31.2900   48.9850 H   0  0  0  0  0  0  0  0  0  0  0  0
   45.2470   32.8850   47.5980 O   0  0  0  0  0  0  0  0  0  0  0  0
   41.8190   35.1080   41.4440 C   0  0  0  0  0  0  0  0  0  0  0  0
   41.9300   35.4710   42.4820 H   0  0  0  0  0  0  0  0  0  0  0  0
   41.3620   34.0930   41.4400 H   0  0  0  0  0  0  0  0  0  0  0  0
   40.9140   36.0070   40.6690 C   0  0  0  0  0  0  0  0  0  0  0  0
   41.4080   36.8670   40.1890 H   0  0  0  0  0  0  0  0  0  0  0  0
   40.1670   36.4410   41.3720 H   0  0  0  0  0  0  0  0  0  0  0  0
   41.7650   36.2610   37.7610 Cl  0  0  0  0  0  0  0  0  0  0  0  0
   40.4390   35.2890   38.2960 C   0  0  0  0  0  0  0  0  0  0  0  0
   40.1290   35.2410   39.6670 C   0  0  0  0  0  0  0  0  0  0  0  0
   39.0600   34.4480   40.0220 C   0  0  0  0  0  0  0  0  0  0  0  0
   38.2620   33.6910   39.1670 C   0  0  0  0  0  0  0  0  0  0  0  0
   38.5940   33.7610   37.8280 C   0  0  0  0  0  0  0  0  0  0  0  0
   37.6410   32.8380   36.6630 Cl  0  0  0  0  0  0  0  0  0  0  0  0
   39.6500   34.5370   37.4160 C   0  0  0  0  0  0  0  0  0  0  0  0
   38.8430   34.4290   41.0860 H   0  0  0  0  0  0  0  0  0  0  0  0
   37.4510   33.1060   39.5590 H   0  0  0  0  0  0  0  0  0  0  0  0
   39.8720   34.5580   36.3490 H   0  0  0  0  0  0  0  0  0  0  0  0
  1 20  1  0  0  0  0
  1  2  1  0  0  0  0
  2  7  1  0  0  0  0
  3  2  2  0  0  0  0
  3  4  1  0  0  0  0
  4  5  2  0  0  0  0
  5  6  1  0  0  0  0
  6 10  1  0  0  0  0
  7  6  2  0  0  0  0
  8  3  1  0  0  0  0
  9  4  1  0  0  0  0
 10 11  2  0  0  0  0
 10 12  1  0  0  0  0
 12 19  1  0  0  0  0
 13 12  2  0  0  0  0
 13 15  1  0  0  0  0
 14 13  1  0  0  0  0
 15 16  1  0  0  0  0
 15 17  2  0  0  0  0
 17 18  1  0  0  0  0
 19 17  1  0  0  0  0
 20 21  1  0  0  0  0
 22 20  1  0  0  0  0
 23 25  1  0  0  0  0
 23 20  1  0  0  0  0
 24 23  1  0  0  0  0
 26 27  1  0  0  0  0
 27 28  1  0  0  0  0
 28 29  2  0  0  0  0
 28 23  1  0  0  0  0
 29 34  1  0  0  0  0
 30 35  1  0  0  0  0
 30 29  1  0  0  0  0
 31 30  2  0  0  0  0
 32 31  1  0  0  0  0
 33 31  1  0  0  0  0
 33 27  2  0  0  0  0
 36 33  1  0  0  0  0
M  END
>  <minimizedAffinity>
-6.72847748

>  <minimizedRMSD>
0.279973894

$$$$
