
 OpenBabel03252507153D

 28 30  0  0  0  0  0  0  0  0999 V2000
   45.1830   36.1420   43.3550 C   0  0  0  0  0  0  0  0  0  0  0  0
   45.7980   34.9250   43.0240 C   0  0  0  0  0  0  0  0  0  0  0  0
   45.8100   33.9330   43.9860 C   0  0  0  0  0  0  0  0  0  0  0  0
   45.2440   34.1530   45.1910 N   0  0  0  0  0  0  0  0  0  0  0  0
   44.6510   35.3510   45.4880 C   0  0  0  0  0  0  0  0  0  0  0  0
   44.6340   36.3060   44.5730 N   0  0  0  0  0  0  0  0  0  0  0  0
   45.1520   36.9440   42.6280 H   0  0  0  0  0  0  0  0  0  0  0  0
   44.2230   35.4320   46.4840 H   0  0  0  0  0  0  0  0  0  0  0  0
   46.4490   32.6490   43.6620 C   0  0  0  0  0  0  0  0  0  0  0  0
   45.6690   31.5670   43.3160 C   0  0  0  0  0  0  0  0  0  0  0  0
   46.3050   30.3800   43.0190 C   0  0  0  0  0  0  0  0  0  0  0  0
   47.6990   30.2280   43.0560 C   0  0  0  0  0  0  0  0  0  0  0  0
   48.4150   31.3590   43.4130 C   0  0  0  0  0  0  0  0  0  0  0  0
   47.7800   32.5120   43.7000 N   0  0  0  0  0  0  0  0  0  0  0  0
   44.6120   31.6790   43.2880 H   0  0  0  0  0  0  0  0  0  0  0  0
   45.6930   29.5280   42.7460 H   0  0  0  0  0  0  0  0  0  0  0  0
   48.1950   29.3000   42.8240 H   0  0  0  0  0  0  0  0  0  0  0  0
   49.4990   31.3190   43.4630 H   0  0  0  0  0  0  0  0  0  0  0  0
   46.3830   34.7300   41.7430 C   0  0  0  0  0  0  0  0  0  0  0  0
   47.5520   35.1470   41.5560 O   0  0  0  0  0  0  0  0  0  0  0  0
   45.7130   34.0730   40.6230 C   0  0  0  0  0  0  0  0  0  0  0  0
   44.3300   34.0290   40.5100 C   0  0  0  0  0  0  0  0  0  0  0  0
   43.5600   34.4230   41.1500 H   0  0  0  0  0  0  0  0  0  0  0  0
   43.9950   33.3380   39.3420 C   0  0  0  0  0  0  0  0  0  0  0  0
   43.0490   33.0800   38.8830 H   0  0  0  0  0  0  0  0  0  0  0  0
   45.2420   32.9950   38.8040 C   0  0  0  0  0  0  0  0  0  0  0  0
   45.4880   32.4440   37.8850 H   0  0  0  0  0  0  0  0  0  0  0  0
   46.1890   33.4460   39.5860 O   0  0  0  0  0  0  0  0  0  0  0  0
  1  6  1  0  0  0  0
  2  1  2  0  0  0  0
  2  3  1  0  0  0  0
  3  4  2  0  0  0  0
  4  5  1  0  0  0  0
  5  8  1  0  0  0  0
  6  5  2  0  0  0  0
  7  1  1  0  0  0  0
  9 14  1  0  0  0  0
  9  3  1  0  0  0  0
 10  9  2  0  0  0  0
 11 12  2  0  0  0  0
 11 10  1  0  0  0  0
 12 13  1  0  0  0  0
 13 18  1  0  0  0  0
 13 14  2  0  0  0  0
 15 10  1  0  0  0  0
 16 11  1  0  0  0  0
 17 12  1  0  0  0  0
 19  2  1  0  0  0  0
 20 19  2  0  0  0  0
 21 19  1  0  0  0  0
 22 21  2  0  0  0  0
 22 23  1  0  0  0  0
 24 22  1  0  0  0  0
 25 24  1  0  0  0  0
 26 24  2  0  0  0  0
 26 28  1  0  0  0  0
 27 26  1  0  0  0  0
 28 21  1  0  0  0  0
M  END
>  <minimizedAffinity>
-4.30862474

>  <minimizedRMSD>
0.238797352

$$$$
