
 OpenBabel03252507153D

 28 30  0  0  0  0  0  0  0  0999 V2000
   45.3150   36.2110   43.3420 C   0  0  0  0  0  0  0  0  0  0  0  0
   45.9260   34.9890   43.0260 C   0  0  0  0  0  0  0  0  0  0  0  0
   45.8490   33.9750   43.9620 C   0  0  0  0  0  0  0  0  0  0  0  0
   45.2040   34.1800   45.1290 N   0  0  0  0  0  0  0  0  0  0  0  0
   44.6170   35.3830   45.4130 C   0  0  0  0  0  0  0  0  0  0  0  0
   44.6850   36.3590   44.5220 N   0  0  0  0  0  0  0  0  0  0  0  0
   45.3520   37.0300   42.6350 H   0  0  0  0  0  0  0  0  0  0  0  0
   44.1210   35.4510   46.3790 H   0  0  0  0  0  0  0  0  0  0  0  0
   46.4820   32.6840   43.6520 C   0  0  0  0  0  0  0  0  0  0  0  0
   45.6990   31.6060   43.3020 C   0  0  0  0  0  0  0  0  0  0  0  0
   46.3290   30.4130   43.0190 C   0  0  0  0  0  0  0  0  0  0  0  0
   47.7220   30.2510   43.0730 C   0  0  0  0  0  0  0  0  0  0  0  0
   48.4410   31.3780   43.4330 C   0  0  0  0  0  0  0  0  0  0  0  0
   47.8110   32.5380   43.7070 N   0  0  0  0  0  0  0  0  0  0  0  0
   44.6430   31.7260   43.2600 H   0  0  0  0  0  0  0  0  0  0  0  0
   45.7140   29.5640   42.7430 H   0  0  0  0  0  0  0  0  0  0  0  0
   48.2130   29.3180   42.8520 H   0  0  0  0  0  0  0  0  0  0  0  0
   49.5240   31.3300   43.4970 H   0  0  0  0  0  0  0  0  0  0  0  0
   46.5960   34.8090   41.7850 C   0  0  0  0  0  0  0  0  0  0  0  0
   47.7480   35.2940   41.6580 O   0  0  0  0  0  0  0  0  0  0  0  0
   46.0330   34.0960   40.6410 C   0  0  0  0  0  0  0  0  0  0  0  0
   46.8320   33.4820   39.6850 C   0  0  0  0  0  0  0  0  0  0  0  0
   47.9030   33.4150   39.6020 H   0  0  0  0  0  0  0  0  0  0  0  0
   46.0080   32.8870   38.7240 C   0  0  0  0  0  0  0  0  0  0  0  0
   46.2140   32.3180   37.8280 H   0  0  0  0  0  0  0  0  0  0  0  0
   44.7190   33.1900   39.1770 C   0  0  0  0  0  0  0  0  0  0  0  0
   43.7390   32.9330   38.7460 H   0  0  0  0  0  0  0  0  0  0  0  0
   44.7990   33.8870   40.2820 O   0  0  0  0  0  0  0  0  0  0  0  0
  1  6  1  0  0  0  0
  2  1  2  0  0  0  0
  2  3  1  0  0  0  0
  3  4  2  0  0  0  0
  4  5  1  0  0  0  0
  5  8  1  0  0  0  0
  6  5  2  0  0  0  0
  7  1  1  0  0  0  0
  9 14  1  0  0  0  0
  9  3  1  0  0  0  0
 10  9  2  0  0  0  0
 11 12  2  0  0  0  0
 11 10  1  0  0  0  0
 12 13  1  0  0  0  0
 13 18  1  0  0  0  0
 13 14  2  0  0  0  0
 15 10  1  0  0  0  0
 16 11  1  0  0  0  0
 17 12  1  0  0  0  0
 19  2  1  0  0  0  0
 20 19  2  0  0  0  0
 21 19  1  0  0  0  0
 22 21  2  0  0  0  0
 23 22  1  0  0  0  0
 24 26  2  0  0  0  0
 24 22  1  0  0  0  0
 25 24  1  0  0  0  0
 26 28  1  0  0  0  0
 27 26  1  0  0  0  0
 28 21  1  0  0  0  0
M  END
>  <minimizedAffinity>
-4.31151438

>  <minimizedRMSD>
0.428397298

$$$$
