
 OpenBabel03252507163D

 28 30  0  0  0  0  0  0  0  0999 V2000
   45.3160   36.2110   43.3390 C   0  0  0  0  0  0  0  0  0  0  0  0
   45.9270   34.9880   43.0240 C   0  0  0  0  0  0  0  0  0  0  0  0
   45.8490   33.9750   43.9600 C   0  0  0  0  0  0  0  0  0  0  0  0
   45.2030   34.1810   45.1270 N   0  0  0  0  0  0  0  0  0  0  0  0
   44.6170   35.3850   45.4100 C   0  0  0  0  0  0  0  0  0  0  0  0
   44.6860   36.3600   44.5180 N   0  0  0  0  0  0  0  0  0  0  0  0
   45.3540   37.0290   42.6310 H   0  0  0  0  0  0  0  0  0  0  0  0
   44.1210   35.4530   46.3750 H   0  0  0  0  0  0  0  0  0  0  0  0
   46.4820   32.6830   43.6520 C   0  0  0  0  0  0  0  0  0  0  0  0
   45.6980   31.6060   43.3010 C   0  0  0  0  0  0  0  0  0  0  0  0
   46.3280   30.4120   43.0200 C   0  0  0  0  0  0  0  0  0  0  0  0
   47.7210   30.2500   43.0750 C   0  0  0  0  0  0  0  0  0  0  0  0
   48.4410   31.3760   43.4360 C   0  0  0  0  0  0  0  0  0  0  0  0
   47.8110   32.5360   43.7080 N   0  0  0  0  0  0  0  0  0  0  0  0
   44.6430   31.7260   43.2580 H   0  0  0  0  0  0  0  0  0  0  0  0
   45.7130   29.5630   42.7430 H   0  0  0  0  0  0  0  0  0  0  0  0
   48.2120   29.3160   42.8560 H   0  0  0  0  0  0  0  0  0  0  0  0
   49.5240   31.3280   43.5010 H   0  0  0  0  0  0  0  0  0  0  0  0
   46.5980   34.8070   41.7830 C   0  0  0  0  0  0  0  0  0  0  0  0
   47.7500   35.2900   41.6570 O   0  0  0  0  0  0  0  0  0  0  0  0
   46.0350   34.0940   40.6390 C   0  0  0  0  0  0  0  0  0  0  0  0
   46.8330   33.4800   39.6840 C   0  0  0  0  0  0  0  0  0  0  0  0
   47.9040   33.4120   39.6020 H   0  0  0  0  0  0  0  0  0  0  0  0
   46.0100   32.8860   38.7230 C   0  0  0  0  0  0  0  0  0  0  0  0
   46.2170   32.3170   37.8250 H   0  0  0  0  0  0  0  0  0  0  0  0
   44.7210   33.1900   39.1740 C   0  0  0  0  0  0  0  0  0  0  0  0
   43.7420   32.9330   38.7430 H   0  0  0  0  0  0  0  0  0  0  0  0
   44.8010   33.8850   40.2800 O   0  0  0  0  0  0  0  0  0  0  0  0
  1  6  1  0  0  0  0
  2  1  2  0  0  0  0
  2  3  1  0  0  0  0
  3  4  2  0  0  0  0
  4  5  1  0  0  0  0
  5  8  1  0  0  0  0
  6  5  2  0  0  0  0
  7  1  1  0  0  0  0
  9 14  1  0  0  0  0
  9  3  1  0  0  0  0
 10  9  2  0  0  0  0
 11 12  2  0  0  0  0
 11 10  1  0  0  0  0
 12 13  1  0  0  0  0
 13 18  1  0  0  0  0
 13 14  2  0  0  0  0
 15 10  1  0  0  0  0
 16 11  1  0  0  0  0
 17 12  1  0  0  0  0
 19  2  1  0  0  0  0
 20 19  2  0  0  0  0
 21 19  1  0  0  0  0
 22 21  2  0  0  0  0
 23 22  1  0  0  0  0
 24 26  2  0  0  0  0
 24 22  1  0  0  0  0
 25 24  1  0  0  0  0
 26 28  1  0  0  0  0
 27 26  1  0  0  0  0
 28 21  1  0  0  0  0
M  END
>  <minimizedAffinity>
-4.30963421

>  <minimizedRMSD>
0.196616784

$$$$
