
 OpenBabel03252507173D

 28 30  0  0  0  0  0  0  0  0999 V2000
   36.5710   30.0810   37.8900 C   0  0  0  0  0  0  0  0  0  0  0  0
   36.8490   29.8350   39.2430 C   0  0  0  0  0  0  0  0  0  0  0  0
   37.2530   28.5600   39.5900 C   0  0  0  0  0  0  0  0  0  0  0  0
   37.3690   27.6060   38.6430 N   0  0  0  0  0  0  0  0  0  0  0  0
   37.0910   27.8730   37.3300 C   0  0  0  0  0  0  0  0  0  0  0  0
   36.7030   29.0910   36.9890 N   0  0  0  0  0  0  0  0  0  0  0  0
   36.2520   31.0680   37.5770 H   0  0  0  0  0  0  0  0  0  0  0  0
   37.2130   27.0400   36.6420 H   0  0  0  0  0  0  0  0  0  0  0  0
   37.5500   28.2770   41.0030 C   0  0  0  0  0  0  0  0  0  0  0  0
   36.6150   27.6320   41.7810 C   0  0  0  0  0  0  0  0  0  0  0  0
   36.9300   27.3850   43.1000 C   0  0  0  0  0  0  0  0  0  0  0  0
   38.1520   27.7600   43.6790 C   0  0  0  0  0  0  0  0  0  0  0  0
   39.0410   28.4040   42.8340 C   0  0  0  0  0  0  0  0  0  0  0  0
   38.7190   28.6390   41.5470 N   0  0  0  0  0  0  0  0  0  0  0  0
   35.6880   27.3470   41.3450 H   0  0  0  0  0  0  0  0  0  0  0  0
   36.1950   26.8770   43.7140 H   0  0  0  0  0  0  0  0  0  0  0  0
   38.3980   27.5660   44.7100 H   0  0  0  0  0  0  0  0  0  0  0  0
   40.0080   28.7250   43.2100 H   0  0  0  0  0  0  0  0  0  0  0  0
   36.7160   30.8660   40.2130 C   0  0  0  0  0  0  0  0  0  0  0  0
   35.7400   30.8170   41.0000 O   0  0  0  0  0  0  0  0  0  0  0  0
   37.6440   31.9850   40.3560 C   0  0  0  0  0  0  0  0  0  0  0  0
   37.4100   33.2200   39.7650 C   0  0  0  0  0  0  0  0  0  0  0  0
   36.5950   33.5630   39.1520 H   0  0  0  0  0  0  0  0  0  0  0  0
   38.4680   34.0780   40.0810 C   0  0  0  0  0  0  0  0  0  0  0  0
   38.6810   35.1090   39.8300 H   0  0  0  0  0  0  0  0  0  0  0  0
   39.3020   33.2800   40.8730 C   0  0  0  0  0  0  0  0  0  0  0  0
   40.2600   33.5210   41.3560 H   0  0  0  0  0  0  0  0  0  0  0  0
   38.7750   32.0880   40.9940 O   0  0  0  0  0  0  0  0  0  0  0  0
  1  2  1  0  0  0  0
  2  3  2  0  0  0  0
  2 19  1  0  0  0  0
  3  9  1  0  0  0  0
  4  3  1  0  0  0  0
  5  4  2  0  0  0  0
  6  5  1  0  0  0  0
  6  1  2  0  0  0  0
  7  1  1  0  0  0  0
  8  5  1  0  0  0  0
  9 14  2  0  0  0  0
  9 10  1  0  0  0  0
 10 11  2  0  0  0  0
 11 12  1  0  0  0  0
 11 16  1  0  0  0  0
 12 17  1  0  0  0  0
 13 18  1  0  0  0  0
 13 12  2  0  0  0  0
 14 13  1  0  0  0  0
 15 10  1  0  0  0  0
 19 21  1  0  0  0  0
 19 20  2  0  0  0  0
 21 28  1  0  0  0  0
 22 24  1  0  0  0  0
 22 21  2  0  0  0  0
 23 22  1  0  0  0  0
 24 26  2  0  0  0  0
 25 24  1  0  0  0  0
 26 28  1  0  0  0  0
 26 27  1  0  0  0  0
M  END
>  <minimizedAffinity>
-5.00866699

$$$$

 OpenBabel03252507173D

 28 30  0  0  0  0  0  0  0  0999 V2000
   39.4470   27.3530   43.6490 C   0  0  0  0  0  0  0  0  0  0  0  0
   38.4630   26.8900   42.7620 C   0  0  0  0  0  0  0  0  0  0  0  0
   38.7890   25.8230   41.9460 C   0  0  0  0  0  0  0  0  0  0  0  0
   40.0150   25.2650   42.0210 N   0  0  0  0  0  0  0  0  0  0  0  0
   40.9570   25.7360   42.8950 C   0  0  0  0  0  0  0  0  0  0  0  0
   40.6530   26.7570   43.6800 N   0  0  0  0  0  0  0  0  0  0  0  0
   39.2310   28.1870   44.3050 H   0  0  0  0  0  0  0  0  0  0  0  0
   41.9140   25.2210   42.8810 H   0  0  0  0  0  0  0  0  0  0  0  0
   37.7740   25.3200   41.0080 C   0  0  0  0  0  0  0  0  0  0  0  0
   37.0000   24.2350   41.3560 C   0  0  0  0  0  0  0  0  0  0  0  0
   36.0590   23.7940   40.4500 C   0  0  0  0  0  0  0  0  0  0  0  0
   35.8580   24.3980   39.2000 C   0  0  0  0  0  0  0  0  0  0  0  0
   36.6730   25.4810   38.9210 C   0  0  0  0  0  0  0  0  0  0  0  0
   37.5890   25.9020   39.8170 N   0  0  0  0  0  0  0  0  0  0  0  0
   37.1500   23.7760   42.3040 H   0  0  0  0  0  0  0  0  0  0  0  0
   35.4490   22.9400   40.7230 H   0  0  0  0  0  0  0  0  0  0  0  0
   35.1230   24.0520   38.4920 H   0  0  0  0  0  0  0  0  0  0  0  0
   36.5770   26.0010   37.9720 H   0  0  0  0  0  0  0  0  0  0  0  0
   37.1810   27.5040   42.7120 C   0  0  0  0  0  0  0  0  0  0  0  0
   36.2540   26.9940   43.3860 O   0  0  0  0  0  0  0  0  0  0  0  0
   36.8680   28.6930   41.9230 C   0  0  0  0  0  0  0  0  0  0  0  0
   35.8100   28.7280   41.0250 C   0  0  0  0  0  0  0  0  0  0  0  0
   35.0890   27.9750   40.7580 H   0  0  0  0  0  0  0  0  0  0  0  0
   35.7670   29.9920   40.4290 C   0  0  0  0  0  0  0  0  0  0  0  0
   35.1140   30.4360   39.6880 H   0  0  0  0  0  0  0  0  0  0  0  0
   36.8390   30.6650   41.0270 C   0  0  0  0  0  0  0  0  0  0  0  0
   37.2020   31.6920   40.8750 H   0  0  0  0  0  0  0  0  0  0  0  0
   37.4340   29.8660   41.8770 O   0  0  0  0  0  0  0  0  0  0  0  0
  1  6  1  0  0  0  0
  1  7  1  0  0  0  0
  2  1  2  0  0  0  0
  3  4  2  0  0  0  0
  3  2  1  0  0  0  0
  4  5  1  0  0  0  0
  5  6  2  0  0  0  0
  8  5  1  0  0  0  0
  9 10  1  0  0  0  0
  9  3  1  0  0  0  0
 10 15  1  0  0  0  0
 11 16  1  0  0  0  0
 11 10  2  0  0  0  0
 12 11  1  0  0  0  0
 13 12  2  0  0  0  0
 13 14  1  0  0  0  0
 14  9  2  0  0  0  0
 17 12  1  0  0  0  0
 18 13  1  0  0  0  0
 19  2  1  0  0  0  0
 19 20  2  0  0  0  0
 21 19  1  0  0  0  0
 22 21  2  0  0  0  0
 23 22  1  0  0  0  0
 24 22  1  0  0  0  0
 24 26  2  0  0  0  0
 25 24  1  0  0  0  0
 26 28  1  0  0  0  0
 27 26  1  0  0  0  0
 28 21  1  0  0  0  0
M  END
>  <minimizedAffinity>
-4.94120407

$$$$

 OpenBabel03252507173D

 28 30  0  0  0  0  0  0  0  0999 V2000
   39.2020   32.2510   40.5620 C   0  0  0  0  0  0  0  0  0  0  0  0
   38.4690   31.1060   40.9090 C   0  0  0  0  0  0  0  0  0  0  0  0
   39.0840   30.1780   41.7290 C   0  0  0  0  0  0  0  0  0  0  0  0
   40.3430   30.3900   42.1640 N   0  0  0  0  0  0  0  0  0  0  0  0
   41.0370   31.5160   41.8080 C   0  0  0  0  0  0  0  0  0  0  0  0
   40.4550   32.4090   41.0250 N   0  0  0  0  0  0  0  0  0  0  0  0
   38.7550   33.0010   39.9220 H   0  0  0  0  0  0  0  0  0  0  0  0
   42.0440   31.5960   42.2090 H   0  0  0  0  0  0  0  0  0  0  0  0
   38.3360   28.9700   42.1070 C   0  0  0  0  0  0  0  0  0  0  0  0
   37.7360   28.8980   43.3450 C   0  0  0  0  0  0  0  0  0  0  0  0
   37.0440   27.7490   43.6630 C   0  0  0  0  0  0  0  0  0  0  0  0
   36.9250   26.6590   42.7870 C   0  0  0  0  0  0  0  0  0  0  0  0
   37.5540   26.8050   41.5620 C   0  0  0  0  0  0  0  0  0  0  0  0
   38.2280   27.9350   41.2650 N   0  0  0  0  0  0  0  0  0  0  0  0
   37.8250   29.7220   44.0110 H   0  0  0  0  0  0  0  0  0  0  0  0
   36.5720   27.6910   44.6370 H   0  0  0  0  0  0  0  0  0  0  0  0
   36.3840   25.7620   43.0360 H   0  0  0  0  0  0  0  0  0  0  0  0
   37.5060   26.0040   40.8310 H   0  0  0  0  0  0  0  0  0  0  0  0
   37.1430   30.9170   40.4320 C   0  0  0  0  0  0  0  0  0  0  0  0
   36.1910   31.2050   41.1970 O   0  0  0  0  0  0  0  0  0  0  0  0
   36.8120   30.4070   39.1030 C   0  0  0  0  0  0  0  0  0  0  0  0
   35.7700   29.5130   38.8930 C   0  0  0  0  0  0  0  0  0  0  0  0
   35.0760   29.0670   39.5840 H   0  0  0  0  0  0  0  0  0  0  0  0
   35.7020   29.2140   37.5290 C   0  0  0  0  0  0  0  0  0  0  0  0
   35.0510   28.5750   36.9450 H   0  0  0  0  0  0  0  0  0  0  0  0
   36.7440   29.9730   36.9820 C   0  0  0  0  0  0  0  0  0  0  0  0
   37.0810   30.0630   35.9390 H   0  0  0  0  0  0  0  0  0  0  0  0
   37.3450   30.6360   37.9370 O   0  0  0  0  0  0  0  0  0  0  0  0
  1  2  2  0  0  0  0
  1  6  1  0  0  0  0
  2  3  1  0  0  0  0
  3  9  1  0  0  0  0
  3  4  2  0  0  0  0
  5  4  1  0  0  0  0
  5  8  1  0  0  0  0
  6  5  2  0  0  0  0
  7  1  1  0  0  0  0
  9 10  1  0  0  0  0
 10 11  2  0  0  0  0
 10 15  1  0  0  0  0
 11 16  1  0  0  0  0
 12 17  1  0  0  0  0
 12 11  1  0  0  0  0
 13 12  2  0  0  0  0
 14 13  1  0  0  0  0
 14  9  2  0  0  0  0
 18 13  1  0  0  0  0
 19  2  1  0  0  0  0
 19 20  2  0  0  0  0
 21 19  1  0  0  0  0
 22 21  2  0  0  0  0
 22 23  1  0  0  0  0
 24 22  1  0  0  0  0
 25 24  1  0  0  0  0
 26 24  2  0  0  0  0
 26 28  1  0  0  0  0
 27 26  1  0  0  0  0
 28 21  1  0  0  0  0
M  END
>  <minimizedAffinity>
-4.90795183

$$$$

 OpenBabel03252507173D

 28 30  0  0  0  0  0  0  0  0999 V2000
   36.0820   28.7440   38.8280 C   0  0  0  0  0  0  0  0  0  0  0  0
   36.7080   29.8350   39.4490 C   0  0  0  0  0  0  0  0  0  0  0  0
   37.3630   30.7430   38.6390 C   0  0  0  0  0  0  0  0  0  0  0  0
   37.3850   30.5620   37.3020 N   0  0  0  0  0  0  0  0  0  0  0  0
   36.7660   29.4880   36.7210 C   0  0  0  0  0  0  0  0  0  0  0  0
   36.1360   28.6150   37.4900 N   0  0  0  0  0  0  0  0  0  0  0  0
   35.5580   28.0110   39.4290 H   0  0  0  0  0  0  0  0  0  0  0  0
   36.8390   29.4290   35.6380 H   0  0  0  0  0  0  0  0  0  0  0  0
   38.0270   31.8950   39.2670 C   0  0  0  0  0  0  0  0  0  0  0  0
   37.3670   33.1020   39.3490 C   0  0  0  0  0  0  0  0  0  0  0  0
   38.0220   34.1580   39.9450 C   0  0  0  0  0  0  0  0  0  0  0  0
   39.3210   34.0580   40.4670 C   0  0  0  0  0  0  0  0  0  0  0  0
   39.9190   32.8150   40.3470 C   0  0  0  0  0  0  0  0  0  0  0  0
   39.2670   31.7910   39.7610 N   0  0  0  0  0  0  0  0  0  0  0  0
   36.3830   33.1800   38.9550 H   0  0  0  0  0  0  0  0  0  0  0  0
   37.5040   35.1080   40.0110 H   0  0  0  0  0  0  0  0  0  0  0  0
   39.8330   34.8840   40.9320 H   0  0  0  0  0  0  0  0  0  0  0  0
   40.9250   32.6600   40.7270 H   0  0  0  0  0  0  0  0  0  0  0  0
   36.6640   29.9930   40.8620 C   0  0  0  0  0  0  0  0  0  0  0  0
   35.8750   30.8450   41.3390 O   0  0  0  0  0  0  0  0  0  0  0  0
   37.4800   29.2280   41.8010 C   0  0  0  0  0  0  0  0  0  0  0  0
   36.9770   28.1390   42.5020 C   0  0  0  0  0  0  0  0  0  0  0  0
   35.9990   27.6910   42.4970 H   0  0  0  0  0  0  0  0  0  0  0  0
   37.9900   27.6200   43.3140 C   0  0  0  0  0  0  0  0  0  0  0  0
   38.0250   26.7900   44.0090 H   0  0  0  0  0  0  0  0  0  0  0  0
   39.0790   28.4560   43.0420 C   0  0  0  0  0  0  0  0  0  0  0  0
   40.1020   28.4370   43.4460 H   0  0  0  0  0  0  0  0  0  0  0  0
   38.7240   29.3600   42.1650 O   0  0  0  0  0  0  0  0  0  0  0  0
  1  7  1  0  0  0  0
  1  2  1  0  0  0  0
  2 19  1  0  0  0  0
  3  9  1  0  0  0  0
  3  2  2  0  0  0  0
  4  3  1  0  0  0  0
  5  4  2  0  0  0  0
  5  6  1  0  0  0  0
  6  1  2  0  0  0  0
  8  5  1  0  0  0  0
  9 10  2  0  0  0  0
  9 14  1  0  0  0  0
 10 11  1  0  0  0  0
 11 16  1  0  0  0  0
 11 12  2  0  0  0  0
 12 17  1  0  0  0  0
 13 12  1  0  0  0  0
 13 18  1  0  0  0  0
 14 13  2  0  0  0  0
 15 10  1  0  0  0  0
 19 20  2  0  0  0  0
 19 21  1  0  0  0  0
 21 28  1  0  0  0  0
 21 22  2  0  0  0  0
 22 24  1  0  0  0  0
 23 22  1  0  0  0  0
 24 25  1  0  0  0  0
 26 24  2  0  0  0  0
 26 27  1  0  0  0  0
 28 26  1  0  0  0  0
M  END
>  <minimizedAffinity>
-4.86970329

$$$$

 OpenBabel03252507173D

 28 30  0  0  0  0  0  0  0  0999 V2000
   37.4090   24.8740   42.1340 C   0  0  0  0  0  0  0  0  0  0  0  0
   37.3750   26.2560   41.8910 C   0  0  0  0  0  0  0  0  0  0  0  0
   36.8900   26.6790   40.6690 C   0  0  0  0  0  0  0  0  0  0  0  0
   36.4700   25.7740   39.7590 N   0  0  0  0  0  0  0  0  0  0  0  0
   36.5150   24.4320   40.0210 C   0  0  0  0  0  0  0  0  0  0  0  0
   36.9770   24.0190   41.1890 N   0  0  0  0  0  0  0  0  0  0  0  0
   37.7820   24.5030   43.0800 H   0  0  0  0  0  0  0  0  0  0  0  0
   36.1550   23.7830   39.2260 H   0  0  0  0  0  0  0  0  0  0  0  0
   36.8450   28.1220   40.3910 C   0  0  0  0  0  0  0  0  0  0  0  0
   35.7170   28.8450   40.7150 C   0  0  0  0  0  0  0  0  0  0  0  0
   35.7130   30.1950   40.4400 C   0  0  0  0  0  0  0  0  0  0  0  0
   36.7980   30.8600   39.8490 C   0  0  0  0  0  0  0  0  0  0  0  0
   37.8950   30.0680   39.5520 C   0  0  0  0  0  0  0  0  0  0  0  0
   37.8840   28.7480   39.8270 N   0  0  0  0  0  0  0  0  0  0  0  0
   34.8930   28.3430   41.1630 H   0  0  0  0  0  0  0  0  0  0  0  0
   34.8270   30.7650   40.6950 H   0  0  0  0  0  0  0  0  0  0  0  0
   36.7940   31.9160   39.6340 H   0  0  0  0  0  0  0  0  0  0  0  0
   38.7730   30.5110   39.0930 H   0  0  0  0  0  0  0  0  0  0  0  0
   37.8260   27.1790   42.8750 C   0  0  0  0  0  0  0  0  0  0  0  0
   36.9830   27.6470   43.6780 O   0  0  0  0  0  0  0  0  0  0  0  0
   39.2110   27.6230   43.0130 C   0  0  0  0  0  0  0  0  0  0  0  0
   40.1670   26.8670   43.6800 C   0  0  0  0  0  0  0  0  0  0  0  0
   40.0910   25.9130   44.1720 H   0  0  0  0  0  0  0  0  0  0  0  0
   41.3860   27.5500   43.6440 C   0  0  0  0  0  0  0  0  0  0  0  0
   42.3700   27.3240   44.0340 H   0  0  0  0  0  0  0  0  0  0  0  0
   41.0790   28.7170   42.9330 C   0  0  0  0  0  0  0  0  0  0  0  0
   41.7230   29.5630   42.6520 H   0  0  0  0  0  0  0  0  0  0  0  0
   39.8140   28.7000   42.5970 O   0  0  0  0  0  0  0  0  0  0  0  0
  1  7  1  0  0  0  0
  2  1  1  0  0  0  0
  2 19  1  0  0  0  0
  3  2  2  0  0  0  0
  4  5  2  0  0  0  0
  4  3  1  0  0  0  0
  5  6  1  0  0  0  0
  6  1  2  0  0  0  0
  8  5  1  0  0  0  0
  9  3  1  0  0  0  0
  9 10  1  0  0  0  0
 10 15  1  0  0  0  0
 11 16  1  0  0  0  0
 11 10  2  0  0  0  0
 12 11  1  0  0  0  0
 13 14  1  0  0  0  0
 13 12  2  0  0  0  0
 14  9  2  0  0  0  0
 17 12  1  0  0  0  0
 18 13  1  0  0  0  0
 19 21  1  0  0  0  0
 19 20  2  0  0  0  0
 21 22  2  0  0  0  0
 22 23  1  0  0  0  0
 24 22  1  0  0  0  0
 24 25  1  0  0  0  0
 26 24  2  0  0  0  0
 27 26  1  0  0  0  0
 28 26  1  0  0  0  0
 28 21  1  0  0  0  0
M  END
>  <minimizedAffinity>
-4.82561398

$$$$

 OpenBabel03252507173D

 28 30  0  0  0  0  0  0  0  0999 V2000
   36.4260   27.1930   38.6220 C   0  0  0  0  0  0  0  0  0  0  0  0
   36.6670   28.4430   39.2120 C   0  0  0  0  0  0  0  0  0  0  0  0
   37.5160   29.3100   38.5500 C   0  0  0  0  0  0  0  0  0  0  0  0
   38.0800   28.9410   37.3810 N   0  0  0  0  0  0  0  0  0  0  0  0
   37.8300   27.7150   36.8270 C   0  0  0  0  0  0  0  0  0  0  0  0
   37.0170   26.8800   37.4540 N   0  0  0  0  0  0  0  0  0  0  0  0
   35.7660   26.4870   39.1090 H   0  0  0  0  0  0  0  0  0  0  0  0
   38.3310   27.5110   35.8840 H   0  0  0  0  0  0  0  0  0  0  0  0
   37.7830   30.6260   39.1490 C   0  0  0  0  0  0  0  0  0  0  0  0
   36.9520   31.6870   38.8640 C   0  0  0  0  0  0  0  0  0  0  0  0
   37.2350   32.9050   39.4440 C   0  0  0  0  0  0  0  0  0  0  0  0
   38.3240   33.1080   40.3050 C   0  0  0  0  0  0  0  0  0  0  0  0
   39.1140   31.9960   40.5440 C   0  0  0  0  0  0  0  0  0  0  0  0
   38.8250   30.8110   39.9690 N   0  0  0  0  0  0  0  0  0  0  0  0
   36.1260   31.5360   38.2110 H   0  0  0  0  0  0  0  0  0  0  0  0
   36.5820   33.7410   39.2210 H   0  0  0  0  0  0  0  0  0  0  0  0
   38.5450   34.0610   40.7580 H   0  0  0  0  0  0  0  0  0  0  0  0
   39.9760   32.0750   41.2000 H   0  0  0  0  0  0  0  0  0  0  0  0
   36.0530   28.7970   40.4450 C   0  0  0  0  0  0  0  0  0  0  0  0
   34.9060   29.3050   40.4120 O   0  0  0  0  0  0  0  0  0  0  0  0
   36.6720   28.6090   41.7550 C   0  0  0  0  0  0  0  0  0  0  0  0
   36.6450   27.3890   42.4180 C   0  0  0  0  0  0  0  0  0  0  0  0
   36.2130   26.4440   42.1350 H   0  0  0  0  0  0  0  0  0  0  0  0
   37.3150   27.5240   43.6370 C   0  0  0  0  0  0  0  0  0  0  0  0
   37.5220   26.8330   44.4450 H   0  0  0  0  0  0  0  0  0  0  0  0
   37.7190   28.8640   43.6340 C   0  0  0  0  0  0  0  0  0  0  0  0
   38.2810   29.4350   44.3880 H   0  0  0  0  0  0  0  0  0  0  0  0
   37.3200   29.4350   42.5260 O   0  0  0  0  0  0  0  0  0  0  0  0
  1  7  1  0  0  0  0
  1  2  1  0  0  0  0
  2 19  1  0  0  0  0
  3  9  1  0  0  0  0
  3  2  2  0  0  0  0
  4  3  1  0  0  0  0
  5  4  2  0  0  0  0
  5  6  1  0  0  0  0
  6  1  2  0  0  0  0
  8  5  1  0  0  0  0
  9 14  1  0  0  0  0
 10  9  2  0  0  0  0
 10 11  1  0  0  0  0
 11 12  2  0  0  0  0
 12 13  1  0  0  0  0
 12 17  1  0  0  0  0
 13 18  1  0  0  0  0
 14 13  2  0  0  0  0
 15 10  1  0  0  0  0
 16 11  1  0  0  0  0
 19 21  1  0  0  0  0
 20 19  2  0  0  0  0
 21 22  2  0  0  0  0
 21 28  1  0  0  0  0
 22 24  1  0  0  0  0
 23 22  1  0  0  0  0
 24 25  1  0  0  0  0
 26 24  2  0  0  0  0
 26 27  1  0  0  0  0
 28 26  1  0  0  0  0
M  END
>  <minimizedAffinity>
-4.77011824

$$$$

 OpenBabel03252507173D

 28 30  0  0  0  0  0  0  0  0999 V2000
   39.2280   31.9250   41.3040 C   0  0  0  0  0  0  0  0  0  0  0  0
   38.3650   31.0320   40.6520 C   0  0  0  0  0  0  0  0  0  0  0  0
   38.6420   30.7220   39.3340 C   0  0  0  0  0  0  0  0  0  0  0  0
   39.7110   31.2730   38.7210 N   0  0  0  0  0  0  0  0  0  0  0  0
   40.5370   32.1430   39.3800 C   0  0  0  0  0  0  0  0  0  0  0  0
   40.2790   32.4440   40.6420 N   0  0  0  0  0  0  0  0  0  0  0  0
   39.0450   32.1930   42.3370 H   0  0  0  0  0  0  0  0  0  0  0  0
   41.3700   32.5330   38.8010 H   0  0  0  0  0  0  0  0  0  0  0  0
   37.7520   29.7870   38.6300 C   0  0  0  0  0  0  0  0  0  0  0  0
   36.6760   30.2730   37.9190 C   0  0  0  0  0  0  0  0  0  0  0  0
   35.8650   29.3660   37.2720 C   0  0  0  0  0  0  0  0  0  0  0  0
   36.0860   27.9810   37.3060 C   0  0  0  0  0  0  0  0  0  0  0  0
   37.1850   27.5680   38.0400 C   0  0  0  0  0  0  0  0  0  0  0  0
   37.9690   28.4670   38.6680 N   0  0  0  0  0  0  0  0  0  0  0  0
   36.5070   31.3230   37.8920 H   0  0  0  0  0  0  0  0  0  0  0  0
   35.0180   29.7470   36.7120 H   0  0  0  0  0  0  0  0  0  0  0  0
   35.4500   27.2720   36.8010 H   0  0  0  0  0  0  0  0  0  0  0  0
   37.4200   26.5100   38.1140 H   0  0  0  0  0  0  0  0  0  0  0  0
   37.2490   30.4710   41.3310 C   0  0  0  0  0  0  0  0  0  0  0  0
   36.1340   31.0350   41.2060 O   0  0  0  0  0  0  0  0  0  0  0  0
   37.3120   29.2760   42.1700 C   0  0  0  0  0  0  0  0  0  0  0  0
   36.5110   28.1660   41.9380 C   0  0  0  0  0  0  0  0  0  0  0  0
   35.7680   27.9810   41.1820 H   0  0  0  0  0  0  0  0  0  0  0  0
   36.8000   27.1930   42.9000 C   0  0  0  0  0  0  0  0  0  0  0  0
   36.4130   26.1980   43.0820 H   0  0  0  0  0  0  0  0  0  0  0  0
   37.7930   27.7980   43.6790 C   0  0  0  0  0  0  0  0  0  0  0  0
   38.3320   27.4160   44.5580 H   0  0  0  0  0  0  0  0  0  0  0  0
   38.0440   28.9940   43.2100 O   0  0  0  0  0  0  0  0  0  0  0  0
  1  7  1  0  0  0  0
  2  1  1  0  0  0  0
  2 19  1  0  0  0  0
  3  2  2  0  0  0  0
  4  3  1  0  0  0  0
  4  5  2  0  0  0  0
  5  6  1  0  0  0  0
  6  1  2  0  0  0  0
  8  5  1  0  0  0  0
  9 14  1  0  0  0  0
  9  3  1  0  0  0  0
 10  9  2  0  0  0  0
 11 12  2  0  0  0  0
 11 10  1  0  0  0  0
 12 13  1  0  0  0  0
 13 18  1  0  0  0  0
 13 14  2  0  0  0  0
 15 10  1  0  0  0  0
 16 11  1  0  0  0  0
 17 12  1  0  0  0  0
 19 21  1  0  0  0  0
 20 19  2  0  0  0  0
 21 28  1  0  0  0  0
 22 21  2  0  0  0  0
 22 24  1  0  0  0  0
 23 22  1  0  0  0  0
 24 25  1  0  0  0  0
 24 26  2  0  0  0  0
 26 27  1  0  0  0  0
 28 26  1  0  0  0  0
M  END
>  <minimizedAffinity>
-4.77000332

$$$$

 OpenBabel03252507173D

 28 30  0  0  0  0  0  0  0  0999 V2000
   36.6650   28.0990   42.5140 C   0  0  0  0  0  0  0  0  0  0  0  0
   37.2070   29.1280   41.7290 C   0  0  0  0  0  0  0  0  0  0  0  0
   38.5790   29.2910   41.7480 C   0  0  0  0  0  0  0  0  0  0  0  0
   39.3460   28.4770   42.5030 N   0  0  0  0  0  0  0  0  0  0  0  0
   38.7910   27.4810   43.2600 C   0  0  0  0  0  0  0  0  0  0  0  0
   37.4780   27.3170   43.2470 N   0  0  0  0  0  0  0  0  0  0  0  0
   35.5940   27.9390   42.5250 H   0  0  0  0  0  0  0  0  0  0  0  0
   39.4910   26.8770   43.8340 H   0  0  0  0  0  0  0  0  0  0  0  0
   39.1710   30.3630   40.9330 C   0  0  0  0  0  0  0  0  0  0  0  0
   39.4980   31.5660   41.5210 C   0  0  0  0  0  0  0  0  0  0  0  0
   40.0510   32.5450   40.7250 C   0  0  0  0  0  0  0  0  0  0  0  0
   40.2920   32.3720   39.3530 C   0  0  0  0  0  0  0  0  0  0  0  0
   39.9380   31.1380   38.8350 C   0  0  0  0  0  0  0  0  0  0  0  0
   39.3970   30.1900   39.6260 N   0  0  0  0  0  0  0  0  0  0  0  0
   39.3160   31.6990   42.5600 H   0  0  0  0  0  0  0  0  0  0  0  0
   40.3090   33.4920   41.1860 H   0  0  0  0  0  0  0  0  0  0  0  0
   40.7240   33.1390   38.7320 H   0  0  0  0  0  0  0  0  0  0  0  0
   40.0940   30.9290   37.7810 H   0  0  0  0  0  0  0  0  0  0  0  0
   36.3670   29.9670   40.9450 C   0  0  0  0  0  0  0  0  0  0  0  0
   36.1130   31.1180   41.3760 O   0  0  0  0  0  0  0  0  0  0  0  0
   35.7760   29.5770   39.6680 C   0  0  0  0  0  0  0  0  0  0  0  0
   34.4880   29.0660   39.5740 C   0  0  0  0  0  0  0  0  0  0  0  0
   33.7500   28.8770   40.3330 H   0  0  0  0  0  0  0  0  0  0  0  0
   34.2100   28.7900   38.2310 C   0  0  0  0  0  0  0  0  0  0  0  0
   33.3410   28.3890   37.7260 H   0  0  0  0  0  0  0  0  0  0  0  0
   35.3900   29.1640   37.5770 C   0  0  0  0  0  0  0  0  0  0  0  0
   35.6460   29.1290   36.5080 H   0  0  0  0  0  0  0  0  0  0  0  0
   36.2520   29.6090   38.4550 O   0  0  0  0  0  0  0  0  0  0  0  0
  1  7  1  0  0  0  0
  1  6  1  0  0  0  0
  2  3  1  0  0  0  0
  2  1  2  0  0  0  0
  3  4  2  0  0  0  0
  4  5  1  0  0  0  0
  5  8  1  0  0  0  0
  6  5  2  0  0  0  0
  9 10  1  0  0  0  0
  9  3  1  0  0  0  0
 10 15  1  0  0  0  0
 11 16  1  0  0  0  0
 11 10  2  0  0  0  0
 12 11  1  0  0  0  0
 13 12  2  0  0  0  0
 13 14  1  0  0  0  0
 14  9  2  0  0  0  0
 17 12  1  0  0  0  0
 18 13  1  0  0  0  0
 19 20  2  0  0  0  0
 19  2  1  0  0  0  0
 21 19  1  0  0  0  0
 22 21  2  0  0  0  0
 22 23  1  0  0  0  0
 24 22  1  0  0  0  0
 25 24  1  0  0  0  0
 26 24  2  0  0  0  0
 26 28  1  0  0  0  0
 27 26  1  0  0  0  0
 28 21  1  0  0  0  0
M  END
>  <minimizedAffinity>
-4.56432676

$$$$

 OpenBabel03252507173D

 28 30  0  0  0  0  0  0  0  0999 V2000
   35.9560   26.4780   38.3960 C   0  0  0  0  0  0  0  0  0  0  0  0
   36.5050   27.6990   38.8150 C   0  0  0  0  0  0  0  0  0  0  0  0
   35.8530   28.8570   38.4360 C   0  0  0  0  0  0  0  0  0  0  0  0
   34.7320   28.7870   37.6880 N   0  0  0  0  0  0  0  0  0  0  0  0
   34.2180   27.5820   37.2910 C   0  0  0  0  0  0  0  0  0  0  0  0
   34.8350   26.4690   37.6510 N   0  0  0  0  0  0  0  0  0  0  0  0
   36.4370   25.5480   38.6740 H   0  0  0  0  0  0  0  0  0  0  0  0
   33.3120   27.6300   36.6920 H   0  0  0  0  0  0  0  0  0  0  0  0
   36.4100   30.1490   38.8640 C   0  0  0  0  0  0  0  0  0  0  0  0
   37.1430   30.9050   37.9750 C   0  0  0  0  0  0  0  0  0  0  0  0
   37.6480   32.1100   38.4130 C   0  0  0  0  0  0  0  0  0  0  0  0
   37.4490   32.5960   39.7150 C   0  0  0  0  0  0  0  0  0  0  0  0
   36.7040   31.7810   40.5500 C   0  0  0  0  0  0  0  0  0  0  0  0
   36.2160   30.6050   40.1070 N   0  0  0  0  0  0  0  0  0  0  0  0
   37.2950   30.5390   36.9880 H   0  0  0  0  0  0  0  0  0  0  0  0
   38.2240   32.7060   37.7150 H   0  0  0  0  0  0  0  0  0  0  0  0
   37.8450   33.5380   40.0560 H   0  0  0  0  0  0  0  0  0  0  0  0
   36.5080   32.0900   41.5730 H   0  0  0  0  0  0  0  0  0  0  0  0
   37.6880   27.7330   39.6030 C   0  0  0  0  0  0  0  0  0  0  0  0
   38.7780   27.9710   39.0260 O   0  0  0  0  0  0  0  0  0  0  0  0
   37.7230   27.5080   41.0460 C   0  0  0  0  0  0  0  0  0  0  0  0
   36.5870   27.6090   41.8380 C   0  0  0  0  0  0  0  0  0  0  0  0
   35.5690   27.8470   41.5810 H   0  0  0  0  0  0  0  0  0  0  0  0
   36.9370   27.3400   43.1650 C   0  0  0  0  0  0  0  0  0  0  0  0
   36.3690   27.3120   44.0860 H   0  0  0  0  0  0  0  0  0  0  0  0
   38.3110   27.0830   43.0870 C   0  0  0  0  0  0  0  0  0  0  0  0
   39.0270   26.8230   43.8810 H   0  0  0  0  0  0  0  0  0  0  0  0
   38.7040   27.1950   41.8440 O   0  0  0  0  0  0  0  0  0  0  0  0
  1  7  1  0  0  0  0
  1  2  1  0  0  0  0
  2 19  1  0  0  0  0
  3  2  2  0  0  0  0
  3  9  1  0  0  0  0
  4  3  1  0  0  0  0
  5  6  1  0  0  0  0
  5  4  2  0  0  0  0
  6  1  2  0  0  0  0
  8  5  1  0  0  0  0
  9 14  1  0  0  0  0
 10 11  1  0  0  0  0
 10  9  2  0  0  0  0
 11 12  2  0  0  0  0
 12 17  1  0  0  0  0
 12 13  1  0  0  0  0
 13 18  1  0  0  0  0
 14 13  2  0  0  0  0
 15 10  1  0  0  0  0
 16 11  1  0  0  0  0
 19 21  1  0  0  0  0
 20 19  2  0  0  0  0
 21 22  2  0  0  0  0
 21 28  1  0  0  0  0
 22 24  1  0  0  0  0
 23 22  1  0  0  0  0
 24 25  1  0  0  0  0
 26 24  2  0  0  0  0
 26 27  1  0  0  0  0
 28 26  1  0  0  0  0
M  END
>  <minimizedAffinity>
-4.52254438

$$$$
