REMARK  Name = 
REMARK  3 active torsions:
REMARK  status: ('A' for Active; 'I' for Inactive)
REMARK    1  A    between atoms: C_2  and  C_13
REMARK    2  A    between atoms: C_3  and  C_7
REMARK    3  A    between atoms: C_13  and  C_21
REMARK                            x       y       z     vdW  Elec       q    Type
REMARK                         _______ _______ _______ _____ _____    ______ ____
ROOT
ATOM      1  C   UNL     1      45.272  36.161  43.179  0.00  0.00    +0.000 A 
ATOM      2  C   UNL     1      45.870  34.922  42.903  0.00  0.00    +0.000 A 
ATOM      3  C   UNL     1      45.826  33.957  43.891  0.00  0.00    +0.000 A 
ATOM      4  N   UNL     1      45.224  34.223  45.069  0.00  0.00    +0.000 NA
ATOM      5  C   UNL     1      44.649  35.441  45.313  0.00  0.00    +0.000 A 
ATOM      6  N   UNL     1      44.686  36.370  44.372  0.00  0.00    +0.000 NA
ATOM      7  H   UNL     1      45.285  36.943  42.430  0.00  0.00    +0.000 HD
ATOM      8  H   UNL     1      44.189  35.559  46.291  0.00  0.00    +0.000 HD
ENDROOT
BRANCH   3   9
ATOM      9  C   UNL     1      46.446  32.650  43.625  0.00  0.00    +0.000 A 
ATOM     10  C   UNL     1      45.654  31.575  43.286  0.00  0.00    +0.000 A 
ATOM     11  C   UNL     1      46.272  30.367  43.044  0.00  0.00    +0.000 A 
ATOM     12  C   UNL     1      47.661  30.187  43.128  0.00  0.00    +0.000 A 
ATOM     13  C   UNL     1      48.390  31.312  43.474  0.00  0.00    +0.000 A 
ATOM     14  N   UNL     1      47.772  32.487  43.708  0.00  0.00    +0.000 NA
ATOM     15  H   UNL     1      44.601  31.709  43.222  0.00  0.00    +0.000 HD
ATOM     16  H   UNL     1      45.650  29.520  42.777  0.00  0.00    +0.000 HD
ATOM     17  H   UNL     1      48.143  29.242  42.939  0.00  0.00    +0.000 HD
ATOM     18  H   UNL     1      49.471  31.251  43.559  0.00  0.00    +0.000 HD
ENDBRANCH   3   9
BRANCH   2  19
ATOM     19  C   UNL     1      46.495  34.678  41.649  0.00  0.00    +0.000 C 
ATOM     20  O   UNL     1      47.653  35.127  41.467  0.00  0.00    +0.000 OA
BRANCH  19  21
ATOM     21  C   UNL     1      45.877  33.937  40.552  0.00  0.00    +0.000 A 
ATOM     22  C   UNL     1      44.877  34.484  39.759  0.00  0.00    +0.000 A 
ATOM     23  H   UNL     1      44.408  35.452  39.788  0.00  0.00    +0.000 HD
ATOM     24  C   UNL     1      44.493  33.538  38.803  0.00  0.00    +0.000 A 
ATOM     25  H   UNL     1      43.761  33.553  38.005  0.00  0.00    +0.000 HD
ATOM     26  C   UNL     1      45.314  32.442  39.090  0.00  0.00    +0.000 A 
ATOM     27  H   UNL     1      45.374  31.458  38.602  0.00  0.00    +0.000 HD
ATOM     28  O   UNL     1      46.087  32.732  40.104  0.00  0.00    +0.000 OA
ENDBRANCH  19  21
ENDBRANCH   2  19
TORSDOF 3
