
 OpenBabel03242515553D

 42 45  0  0  0  0  0  0  0  0999 V2000
   46.4790   32.4570   46.1250 C   0  0  0  0  0  0  0  0  0  0  0  0
   47.1440   32.7030   47.3560 C   0  0  0  0  0  0  0  0  0  0  0  0
   47.5190   31.7120   48.2300 C   0  0  0  0  0  0  0  0  0  0  0  0
   47.2640   30.4220   47.9480 C   0  0  0  0  0  0  0  0  0  0  0  0
   46.6110   30.1130   46.7520 C   0  0  0  0  0  0  0  0  0  0  0  0
   46.3700   28.7940   46.5040 C   0  0  0  0  0  0  0  0  0  0  0  0
   45.7340   28.4290   45.3540 C   0  0  0  0  0  0  0  0  0  0  0  0
   45.3620   29.4480   44.4840 C   0  0  0  0  0  0  0  0  0  0  0  0
   45.6360   30.7280   44.8020 C   0  0  0  0  0  0  0  0  0  0  0  0
   46.2520   31.1270   45.9090 C   0  0  0  0  0  0  0  0  0  0  0  0
   47.3720   33.7200   47.6280 H   0  0  0  0  0  0  0  0  0  0  0  0
   48.0220   31.9820   49.1460 H   0  0  0  0  0  0  0  0  0  0  0  0
   47.5680   29.6570   48.6500 H   0  0  0  0  0  0  0  0  0  0  0  0
   46.6930   28.0320   47.2400 H   0  0  0  0  0  0  0  0  0  0  0  0
   45.5840   27.3410   45.2380 H   0  0  0  0  0  0  0  0  0  0  0  0
   44.8880   28.9610   43.6230 H   0  0  0  0  0  0  0  0  0  0  0  0
   44.6200   35.3470   45.0770 C   0  0  0  0  0  0  0  0  0  0  0  0
   45.2130   35.6710   43.8200 C   0  0  0  0  0  0  0  0  0  0  0  0
   46.2740   34.8670   43.3250 C   0  0  0  0  0  0  0  0  0  0  0  0
   46.6480   33.8400   44.0970 N   0  0  0  0  0  0  0  0  0  0  0  0
   46.1290   33.5280   45.2350 C   0  0  0  0  0  0  0  0  0  0  0  0
   45.1160   34.2980   45.7010 N   0  0  0  0  0  0  0  0  0  0  0  0
   43.8130   35.9610   45.4500 H   0  0  0  0  0  0  0  0  0  0  0  0
   46.6770   35.1570   42.3820 H   0  0  0  0  0  0  0  0  0  0  0  0
   44.6710   36.8050   43.1600 N   0  0  0  0  0  0  0  0  0  0  0  0
   45.1670   37.6460   43.5500 H   0  0  0  0  0  0  0  0  0  0  0  0
   43.9290   36.8740   42.4280 H   0  0  0  0  0  0  0  0  0  0  0  0
   45.1510   31.4940   43.7760 O   0  0  0  0  0  0  0  0  0  0  0  0
   45.0120   31.2230   41.4230 C   0  0  0  0  0  0  0  0  0  0  0  0
   44.4230   31.0420   42.6770 C   0  0  0  0  0  0  0  0  0  0  0  0
   43.1880   30.4350   42.7140 C   0  0  0  0  0  0  0  0  0  0  0  0
   42.7550   30.3070   43.6900 H   0  0  0  0  0  0  0  0  0  0  0  0
   42.5510   30.0200   41.5640 C   0  0  0  0  0  0  0  0  0  0  0  0
   41.5720   29.5450   41.6600 H   0  0  0  0  0  0  0  0  0  0  0  0
   43.1360   30.2010   40.3290 C   0  0  0  0  0  3  0  0  0  0  0  0
   44.3810   30.8100   40.2740 C   0  0  0  0  0  3  0  0  0  0  0  0
   46.6830   32.5890   40.1720 N   0  0  0  0  0  0  0  0  0  0  0  0
   46.3190   31.8210   41.1470 C   0  0  0  0  0  0  0  0  0  0  0  0
   47.5070   31.6890   41.9060 N   0  0  0  0  0  0  0  0  0  0  0  0
   45.9600   32.8300   39.4710 H   0  0  0  0  0  0  0  0  0  0  0  0
   48.0770   32.2330   42.5890 H   0  0  0  0  0  0  0  0  0  0  0  0
   47.9140   30.7360   41.6900 H   0  0  0  0  0  0  0  0  0  0  0  0
  1  2  1  0  0  0  0
  2 11  1  0  0  0  0
  2  3  2  0  0  0  0
  3 12  1  0  0  0  0
  4  3  1  0  0  0  0
  4 13  1  0  0  0  0
  5  4  2  0  0  0  0
  6  5  1  0  0  0  0
  6 14  1  0  0  0  0
  7  6  2  0  0  0  0
  8  9  2  0  0  0  0
  8  7  1  0  0  0  0
  9 10  1  0  0  0  0
 10  1  2  0  0  0  0
 10  5  1  0  0  0  0
 15  7  1  0  0  0  0
 16  8  1  0  0  0  0
 17 23  1  0  0  0  0
 17 22  1  0  0  0  0
 18 17  2  0  0  0  0
 19 18  1  0  0  0  0
 19 20  2  0  0  0  0
 20 21  1  0  0  0  0
 21 22  2  0  0  0  0
 21  1  1  0  0  0  0
 24 19  1  0  0  0  0
 25 26  1  0  0  0  0
 25 18  1  0  0  0  0
 27 25  1  0  0  0  0
 28  9  1  0  0  0  0
 29 30  1  0  0  0  0
 30 31  2  0  0  0  0
 30 28  1  0  0  0  0
 31 32  1  0  0  0  0
 33 34  1  0  0  0  0
 33 31  1  0  0  0  0
 35 33  2  0  0  0  0
 36 35  1  0  0  0  0
 36 29  2  0  0  0  0
 37 38  2  0  0  0  0
 38 29  1  0  0  0  0
 38 39  1  0  0  0  0
 39 41  1  0  0  0  0
 40 37  1  0  0  0  0
 42 39  1  0  0  0  0
M  END
>  <minimizedAffinity>
-5.0035224

>  <minimizedRMSD>
3.0685246

$$$$
