REMARK  Name = 
REMARK  5 active torsions:
REMARK  status: ('A' for Active; 'I' for Inactive)
REMARK    1  A    between atoms: C_2  and  N_7
REMARK    2  A    between atoms: C_3  and  C_14
REMARK    3  A    between atoms: C_20  and  O_22
REMARK    4  A    between atoms: O_22  and  C_42
REMARK    5  A    between atoms: C_39  and  C_41
REMARK                            x       y       z     vdW  Elec       q    Type
REMARK                         _______ _______ _______ _____ _____    ______ ____
ROOT
ATOM      1  C   UNL     1      46.446  32.000  45.496  0.00  0.00    +0.000 A 
ATOM      2  C   UNL     1      46.758  32.742  44.338  0.00  0.00    +0.000 A 
ATOM      3  C   UNL     1      47.724  32.113  43.590  0.00  0.00    +0.000 A 
ATOM      4  C   UNL     1      48.328  30.930  43.890  0.00  0.00    +0.000 A 
ATOM      5  C   UNL     1      47.961  30.265  45.057  0.00  0.00    +0.000 A 
ATOM      6  C   UNL     1      47.008  30.809  45.867  0.00  0.00    +0.000 A 
ATOM      7  O   UNL     1      48.745  29.124  45.076  0.00  0.00    +0.000 OA
ATOM      8  C   UNL     1      49.527  29.035  43.891  0.00  0.00    +0.000 C 
ATOM      9  O   UNL     1      49.297  30.259  43.170  0.00  0.00    +0.000 OA
ATOM     10  H   UNL     1      45.708  32.220  46.297  0.00  0.00    +0.000 HD
ATOM     11  H   UNL     1      47.971  32.647  42.726  0.00  0.00    +0.000 HD
ATOM     12  H   UNL     1      46.811  30.217  46.720  0.00  0.00    +0.000 HD
ATOM     13  H   UNL     1      50.611  29.088  44.138  0.00  0.00    +0.000 HD
ENDROOT
BRANCH   2  16
ATOM     14  C   UNL     1      45.120  36.002  43.488  0.00  0.00    +0.000 A 
ATOM     15  C   UNL     1      45.915  34.878  43.253  0.00  0.00    +0.000 A 
ATOM     16  C   UNL     1      46.064  33.953  44.240  0.00  0.00    +0.000 A 
ATOM     17  N   UNL     1      45.416  34.186  45.421  0.00  0.00    +0.000 NA
ATOM     18  C   UNL     1      44.655  35.264  45.642  0.00  0.00    +0.000 A 
ATOM     19  N   UNL     1      44.514  36.152  44.687  0.00  0.00    +0.000 NA
ATOM     20  H   UNL     1      44.998  36.746  42.695  0.00  0.00    +0.000 HD
ATOM     21  H   UNL     1      44.118  35.510  46.546  0.00  0.00    +0.000 HD
BRANCH  15  22
ATOM     22  N   UNL     1      46.540  34.783  42.010  0.00  0.00    +0.000 N 
ATOM     23  C   UNL     1      47.865  35.271  41.794  0.00  0.00    +0.000 C 
ATOM     24  C   UNL     1      48.450  34.939  40.455  0.00  0.00    +0.000 C 
ATOM     25  N   UNL     1      48.157  33.653  39.980  0.00  0.00    +0.000 NA
ATOM     26  C   UNL     1      46.866  33.200  40.162  0.00  0.00    +0.000 C 
ATOM     27  C   UNL     1      45.984  34.225  40.844  0.00  0.00    +0.000 C 
ATOM     28  H   UNL     1      48.574  35.005  42.604  0.00  0.00    +0.000 HD
ATOM     29  H   UNL     1      47.788  36.397  41.836  0.00  0.00    +0.000 HD
ATOM     30  H   UNL     1      49.563  35.048  40.540  0.00  0.00    +0.000 HD
ATOM     31  H   UNL     1      48.148  35.695  39.706  0.00  0.00    +0.000 HD
ATOM     32  H   UNL     1      48.583  33.523  39.058  0.00  0.00    +0.000 HD
ATOM     33  H   UNL     1      46.381  33.022  39.158  0.00  0.00    +0.000 HD
ATOM     34  H   UNL     1      46.831  32.219  40.660  0.00  0.00    +0.000 HD
ATOM     35  H   UNL     1      45.813  35.048  40.109  0.00  0.00    +0.000 HD
ATOM     36  H   UNL     1      44.989  33.788  41.042  0.00  0.00    +0.000 HD
ENDBRANCH  15  22
ENDBRANCH   2  16
BRANCH   8  37
ATOM     37  O   UNL     1      49.092  27.974  43.164  0.00  0.00    +0.000 OA
BRANCH  37  39
ATOM     38  C   UNL     1      49.111  26.115  41.491  0.00  0.00    +0.000 A 
ATOM     39  C   UNL     1      49.486  26.889  42.550  0.00  0.00    +0.000 A 
ATOM     40  C   UNL     1      50.633  26.440  43.226  0.00  0.00    +0.000 A 
ATOM     41  H   UNL     1      51.171  26.839  44.099  0.00  0.00    +0.000 HD
ATOM     42  C   UNL     1      51.306  25.285  42.812  0.00  0.00    +0.000 A 
ATOM     43  H   UNL     1      52.191  24.853  43.257  0.00  0.00    +0.000 HD
ATOM     44  C   UNL     1      50.864  24.559  41.732  0.00  0.00    +0.000 A 
ATOM     45  C   UNL     1      49.744  24.973  41.049  0.00  0.00    +0.000 A 
BRANCH  38  47
ATOM     46  N   UNL     1      47.979  26.355  39.469  0.00  0.00    +0.000 NA
ATOM     47  C   UNL     1      47.929  26.489  40.769  0.00  0.00    +0.000 C 
ATOM     48  N   UNL     1      46.610  26.953  40.681  0.00  0.00    +0.000 N 
ATOM     49  H   UNL     1      47.181  26.585  38.851  0.00  0.00    +0.000 HD
ATOM     50  H   UNL     1      45.749  26.354  40.779  0.00  0.00    +0.000 HD
ATOM     51  H   UNL     1      46.273  27.925  40.514  0.00  0.00    +0.000 HD
ENDBRANCH  38  47
ENDBRANCH  37  39
ENDBRANCH   8  37
TORSDOF 5
