
     RDKit          3D

 28 29  0  0  0  0  0  0  0  0999 V2000
   45.4399   35.0627   44.0006 C   0  0  0  0  0  0  0  0  0  0  0  0
   46.4947   34.2971   43.5114 C   0  0  0  0  0  0  0  0  0  0  0  0
   47.0253   33.2866   44.3261 C   0  0  0  0  0  0  0  0  0  0  0  0
   46.4575   33.1260   45.5604 N   0  0  0  0  0  0  0  0  0  0  0  0
   45.4311   33.8945   45.9963 C   0  0  0  0  0  0  0  0  0  0  0  0
   44.9144   34.8708   45.2163 N   0  0  0  0  0  0  0  0  0  0  0  0
   44.9021   36.1353   43.0930 C   0  0  0  0  0  0  0  0  0  0  0  0
   46.8823   34.4954   42.5186 H   0  0  0  0  0  0  0  0  0  0  0  0
   47.8378   32.6781   43.9811 H   0  0  0  0  0  0  0  0  0  0  0  0
   45.0306   33.7104   46.9870 H   0  0  0  0  0  0  0  0  0  0  0  0
   44.4908   36.9787   43.6895 H   0  0  0  0  0  0  0  0  0  0  0  0
   45.7086   36.5570   42.4824 H   0  0  0  0  0  0  0  0  0  0  0  0
   44.6496   37.3512   39.1769 N   0  0  0  0  0  0  0  0  0  0  0  0
   44.3913   37.1601   40.4166 C   0  0  0  0  0  0  0  0  0  0  0  0
   45.0299   38.2534   41.0648 N   0  0  0  0  0  0  0  0  0  0  0  0
   43.6111   36.0561   41.0111 C   0  0  0  0  0  0  0  0  0  0  0  0
   43.8192   35.5399   42.2747 C   0  0  0  0  0  0  0  0  0  0  0  0
   43.0347   34.5050   42.7408 C   0  0  0  0  0  0  0  0  0  0  0  0
   43.2328   34.1304   43.7387 H   0  0  0  0  0  0  0  0  0  0  0  0
   42.0245   33.9720   41.9383 C   0  0  0  0  0  0  0  0  0  0  0  0
   41.4532   33.1763   42.3515 H   0  0  0  0  0  0  0  0  0  0  0  0
   41.8407   34.5172   40.6655 C   0  0  0  0  0  0  0  0  0  0  0  0
   42.6196   35.5584   40.1788 C   0  0  0  0  0  0  0  0  0  0  0  0
   44.2873   36.6712   38.4526 H   0  0  0  0  0  0  0  0  0  0  0  0
   45.9169   38.4617   41.5731 H   0  0  0  0  0  0  0  0  0  0  0  0
   44.6177   39.2109   41.1440 H   0  0  0  0  0  0  0  0  0  0  0  0
   41.0523   34.0836   40.0700 H   0  0  0  0  0  0  0  0  0  0  0  0
   42.4368   35.9426   39.1903 H   0  0  0  0  0  0  0  0  0  0  0  0
  1  6  1  0
  2  1  2  0
  2  3  1  0
  3  4  2  0
  4  5  1  0
  6  5  2  0
  7  1  1  0
  2  8  1  0
  3  9  1  0
  5 10  1  0
  7 11  1  0
  7 12  1  0
 13 14  2  3
 14 15  1  0
 14 16  1  0
 16 17  2  0
 17 18  1  0
 18 19  1  0
 18 20  2  0
 20 21  1  0
 20 22  1  0
 22 23  2  0
 23 16  1  0
 13 24  1  0
 15 25  1  0
 15 26  1  0
 22 27  1  0
 23 28  1  0
  7 17  1  0
M  ISO  7   8  14   9  14  10  14  11   8  12   8  19  15  21  16
M  END
>  <DihAtoms>  (1) 
0,6,16,15

>  <DihDeg>  (1) 
-179.98958090189305

$$$$
