
 OpenBabel03252509273D

 35 37  0  0  1  0  0  0  0  0999 V2000
   46.8700   35.1540   41.9420 C   0  0  1  0  0  0  0  0  0  0  0  0
   48.4240   35.1830   41.9580 C   0  0  0  0  0  0  0  0  0  0  0  0
   47.5260   34.1810   41.1730 C   0  0  2  0  0  0  0  0  0  0  0  0
   46.4180   36.0720   41.5170 H   0  0  0  0  0  0  0  0  0  0  0  0
   48.8610   35.9980   41.3590 H   0  0  0  0  0  0  0  0  0  0  0  0
   48.9510   34.7760   42.8250 H   0  0  0  0  0  0  0  0  0  0  0  0
   47.6200   33.1180   41.5490 H   0  0  0  0  0  0  0  0  0  0  0  0
   44.8050   35.0540   45.0710 C   0  0  0  0  0  0  0  0  0  0  0  0
   45.2820   35.5150   43.7950 C   0  0  0  0  0  0  0  0  0  0  0  0
   46.3320   34.8070   43.3110 C   0  0  0  0  0  0  0  0  0  0  0  0
   46.8950   33.7400   43.9850 N   0  0  0  0  0  0  0  0  0  0  0  0
   46.4100   33.3470   45.1790 C   0  0  0  0  0  0  0  0  0  0  0  0
   45.3590   34.0080   45.7240 N   0  0  0  0  0  0  0  0  0  0  0  0
   43.9650   35.5950   45.4870 H   0  0  0  0  0  0  0  0  0  0  0  0
   46.9360   32.5090   45.5940 H   0  0  0  0  0  0  0  0  0  0  0  0
   44.7260   36.6190   43.1300 N   0  0  0  0  0  0  0  0  0  0  0  0
   44.0350   36.0300   42.6310 H   0  0  0  0  0  0  0  0  0  0  0  0
   45.3860   37.3180   43.5820 H   0  0  0  0  0  0  0  0  0  0  0  0
   47.5120   34.2410   39.6630 C   0  0  0  0  0  0  0  0  0  0  0  0
   48.2130   35.0620   39.3930 H   0  0  0  0  0  0  0  0  0  0  0  0
   46.4690   34.5210   39.3730 H   0  0  0  0  0  0  0  0  0  0  0  0
   46.9850   32.4300   38.0760 C   0  0  0  0  0  0  0  0  0  0  0  0
   47.8450   32.9730   39.0070 C   0  0  0  0  0  0  0  0  0  0  0  0
   49.0200   32.3250   39.3240 C   0  0  0  0  0  0  0  0  0  0  0  0
   49.6690   32.8020   40.0730 H   0  0  0  0  0  0  0  0  0  0  0  0
   49.3290   31.1380   38.7050 C   0  0  0  0  0  0  0  0  0  0  0  0
   50.2780   30.6940   39.0150 H   0  0  0  0  0  0  0  0  0  0  0  0
   48.4890   30.5690   37.7690 C   0  0  0  0  0  3  0  0  0  0  0  0
   47.3410   31.2360   37.4850 C   0  0  0  0  0  3  0  0  0  0  0  0
   45.3850   33.7870   36.6960 N   0  0  0  0  0  0  0  0  0  0  0  0
   45.7240   33.0090   37.6600 C   0  0  0  0  0  0  0  0  0  0  0  0
   44.5290   32.7350   38.3910 N   0  0  0  0  0  0  0  0  0  0  0  0
   44.4050   34.1010   36.5580 H   0  0  0  0  0  0  0  0  0  0  0  0
   44.2790   33.4900   39.0820 H   0  0  0  0  0  0  0  0  0  0  0  0
   43.9880   31.8590   38.2260 H   0  0  0  0  0  0  0  0  0  0  0  0
  1  4  1  6  0  0  0
  1  2  1  0  0  0  0
  1 10  1  0  0  0  0
  2  6  1  0  0  0  0
  3  7  1  1  0  0  0
  3  1  1  0  0  0  0
  3  2  1  0  0  0  0
  5  2  1  0  0  0  0
  8 14  1  0  0  0  0
  8 13  1  0  0  0  0
  9  8  2  0  0  0  0
 10  9  1  0  0  0  0
 10 11  2  0  0  0  0
 11 12  1  0  0  0  0
 12 15  1  0  0  0  0
 12 13  2  0  0  0  0
 16 18  1  0  0  0  0
 16  9  1  0  0  0  0
 17 16  1  0  0  0  0
 19  3  1  0  0  0  0
 20 19  1  0  0  0  0
 21 19  1  0  0  0  0
 22 23  1  0  0  0  0
 23 24  2  0  0  0  0
 23 19  1  0  0  0  0
 24 25  1  0  0  0  0
 26 27  1  0  0  0  0
 26 24  1  0  0  0  0
 28 26  2  0  0  0  0
 29 28  1  0  0  0  0
 29 22  2  0  0  0  0
 30 31  2  0  0  0  0
 31 22  1  0  0  0  0
 31 32  1  0  0  0  0
 32 34  1  0  0  0  0
 33 30  1  0  0  0  0
 35 32  1  0  0  0  0
M  END
>  <minimizedAffinity>
-5.14526463

>  <minimizedRMSD>
2.56670952

$$$$
