REMARK  Name = 
REMARK  5 active torsions:
REMARK  status: ('A' for Active; 'I' for Inactive)
REMARK    1  A    between atoms: C_1  and  C_15
REMARK    2  A    between atoms: C_9  and  O_18
REMARK    3  A    between atoms: C_12  and  N_17
REMARK    4  A    between atoms: O_18  and  C_33
REMARK    5  A    between atoms: C_30  and  C_32
REMARK                            x       y       z     vdW  Elec       q    Type
REMARK                         _______ _______ _______ _____ _____    ______ ____
ROOT
ATOM      1  C   UNL     1      46.045  32.713  46.699  0.00  0.00    +0.000 A 
ATOM      2  C   UNL     1      45.545  32.944  48.008  0.00  0.00    +0.000 A 
ATOM      3  C   UNL     1      45.745  32.087  49.062  0.00  0.00    +0.000 A 
ATOM      4  C   UNL     1      46.448  30.952  48.894  0.00  0.00    +0.000 A 
ATOM      5  C   UNL     1      46.966  30.666  47.628  0.00  0.00    +0.000 A 
ATOM      6  C   UNL     1      47.671  29.506  47.499  0.00  0.00    +0.000 A 
ATOM      7  C   UNL     1      48.202  29.170  46.288  0.00  0.00    +0.000 A 
ATOM      8  C   UNL     1      47.986  30.051  45.234  0.00  0.00    +0.000 A 
ATOM      9  C   UNL     1      47.277  31.178  45.444  0.00  0.00    +0.000 A 
ATOM     10  C   UNL     1      46.745  31.543  46.604  0.00  0.00    +0.000 A 
ATOM     11  H   UNL     1      44.976  33.840  48.195  0.00  0.00    +0.000 HD
ATOM     12  H   UNL     1      45.332  32.335  50.028  0.00  0.00    +0.000 HD
ATOM     13  H   UNL     1      46.594  30.291  49.737  0.00  0.00    +0.000 HD
ATOM     14  H   UNL     1      47.806  28.848  48.380  0.00  0.00    +0.000 HD
ATOM     15  H   UNL     1      48.757  28.215  46.279  0.00  0.00    +0.000 HD
ATOM     16  H   UNL     1      48.496  29.622  44.363  0.00  0.00    +0.000 HD
ENDROOT
BRANCH   1  21
ATOM     17  C   UNL     1      44.480  35.529  45.110  0.00  0.00    +0.000 A 
ATOM     18  C   UNL     1      45.159  35.609  43.857  0.00  0.00    +0.000 A 
ATOM     19  C   UNL     1      46.175  34.663  43.557  0.00  0.00    +0.000 A 
ATOM     20  N   UNL     1      46.426  33.745  44.498  0.00  0.00    +0.000 NA
ATOM     21  C   UNL     1      45.827  33.654  45.636  0.00  0.00    +0.000 A 
ATOM     22  N   UNL     1      44.858  34.558  45.916  0.00  0.00    +0.000 NA
ATOM     23  H   UNL     1      43.707  36.251  45.334  0.00  0.00    +0.000 HD
ATOM     24  H   UNL     1      46.646  34.772  42.607  0.00  0.00    +0.000 HD
BRANCH  18  25
ATOM     25  N   UNL     1      44.743  36.662  43.000  0.00  0.00    +0.000 N 
ATOM     26  H   UNL     1      45.286  37.515  43.287  0.00  0.00    +0.000 HD
ATOM     27  H   UNL     1      44.047  36.668  42.222  0.00  0.00    +0.000 HD
ENDBRANCH  18  25
ENDBRANCH   1  21
BRANCH   9  28
ATOM     28  O   UNL     1      47.225  31.831  44.241  0.00  0.00    +0.000 OA
BRANCH  28  30
ATOM     29  C   UNL     1      47.330  30.068  42.657  0.00  0.00    +0.000 A 
ATOM     30  C   UNL     1      47.710  31.362  43.022  0.00  0.00    +0.000 A 
ATOM     31  C   UNL     1      48.520  32.054  42.150  0.00  0.00    +0.000 A 
ATOM     32  H   UNL     1      48.799  33.047  42.452  0.00  0.00    +0.000 HD
ATOM     33  C   UNL     1      48.944  31.499  40.962  0.00  0.00    +0.000 A 
ATOM     34  H   UNL     1      49.586  32.099  40.312  0.00  0.00    +0.000 HD
ATOM     35  C   UNL     1      48.566  30.221  40.605  0.00  0.00    +0.000 A 
ATOM     36  C   UNL     1      47.750  29.511  41.472  0.00  0.00    +0.000 A 
BRANCH  29  38
ATOM     37  N   UNL     1      46.463  27.871  43.458  0.00  0.00    +0.000 NA
ATOM     38  C   UNL     1      46.463  29.164  43.412  0.00  0.00    +0.000 C 
ATOM     39  N   UNL     1      45.403  29.511  44.285  0.00  0.00    +0.000 N 
ATOM     40  H   UNL     1      47.173  27.382  42.883  0.00  0.00    +0.000 HD
ATOM     41  H   UNL     1      45.206  29.578  45.307  0.00  0.00    +0.000 HD
ATOM     42  H   UNL     1      44.575  29.778  43.683  0.00  0.00    +0.000 HD
ENDBRANCH  29  38
ENDBRANCH  28  30
ENDBRANCH   9  28
TORSDOF 5
