
     RDKit          3D

 44 47  0  0  0  0  0  0  0  0999 V2000
   46.0447   32.7133   46.6991 C   0  0  0  0  0  0  0  0  0  0  0  0
   45.5454   32.9438   48.0084 C   0  0  0  0  0  0  0  0  0  0  0  0
   45.7453   32.0869   49.0622 C   0  0  0  0  0  0  0  0  0  0  0  0
   46.4478   30.9516   48.8943 C   0  0  0  0  0  0  0  0  0  0  0  0
   46.9660   30.6664   47.6276 C   0  0  0  0  0  0  0  0  0  0  0  0
   47.6713   29.5062   47.4991 C   0  0  0  0  0  0  0  0  0  0  0  0
   48.2018   29.1702   46.2883 C   0  0  0  0  0  0  0  0  0  0  0  0
   47.9862   30.0507   45.2336 C   0  0  0  0  0  0  0  0  0  0  0  0
   47.2766   31.1780   45.4439 C   0  0  0  0  0  0  0  0  0  0  0  0
   46.7454   31.5431   46.6044 C   0  0  0  0  0  0  0  0  0  0  0  0
   44.4803   35.5286   45.1101 C   0  0  0  0  0  0  0  0  0  0  0  0
   45.1588   35.6087   43.8571 C   0  0  0  0  0  0  0  0  0  0  0  0
   46.1755   34.6632   43.5566 C   0  0  0  0  0  0  0  0  0  0  0  0
   46.4257   33.7455   44.4976 N   0  0  0  0  0  0  0  0  0  0  0  0
   45.8268   33.6535   45.6360 C   0  0  0  0  0  0  0  0  0  0  0  0
   44.8578   34.5580   45.9162 N   0  0  0  0  0  0  0  0  0  0  0  0
   44.7430   36.6623   43.0002 N   0  0  0  0  0  0  0  0  0  0  0  0
   47.2246   31.8311   44.2413 O   0  0  0  0  0  0  0  0  0  0  0  0
   44.9759   33.8398   48.1954 H   0  0  0  0  0  0  0  0  0  0  0  0
   45.3320   32.3347   50.0277 H   0  0  0  0  0  0  0  0  0  0  0  0
   46.5940   30.2907   49.7375 H   0  0  0  0  0  0  0  0  0  0  0  0
   47.8061   28.8477   48.3804 H   0  0  0  0  0  0  0  0  0  0  0  0
   48.7565   28.2149   46.2787 H   0  0  0  0  0  0  0  0  0  0  0  0
   48.4962   29.6223   44.3627 H   0  0  0  0  0  0  0  0  0  0  0  0
   43.7068   36.2505   45.3342 H   0  0  0  0  0  0  0  0  0  0  0  0
   46.6464   34.7722   42.6070 H   0  0  0  0  0  0  0  0  0  0  0  0
   45.2859   37.5147   43.2869 H   0  0  0  0  0  0  0  0  0  0  0  0
   44.0467   36.6684   42.2219 H   0  0  0  0  0  0  0  0  0  0  0  0
   46.4628   27.8710   43.4582 N   0  0  0  0  0  0  0  0  0  0  0  0
   46.4631   29.1638   43.4122 C   0  0  0  0  0  0  0  0  0  0  0  0
   45.4031   29.5108   44.2852 N   0  0  0  0  0  0  0  0  0  0  0  0
   47.3296   30.0683   42.6565 C   0  0  0  0  0  0  0  0  0  0  0  0
   47.7102   31.3623   43.0219 C   0  0  0  0  0  0  0  0  0  0  0  0
   48.5203   32.0540   42.1497 C   0  0  0  0  0  0  0  0  0  0  0  0
   48.7994   33.0470   42.4520 H   0  0  0  0  0  0  0  0  0  0  0  0
   48.9440   31.4992   40.9616 C   0  0  0  0  0  0  0  0  0  0  0  0
   49.5855   32.0987   40.3123 H   0  0  0  0  0  0  0  0  0  0  0  0
   48.5665   30.2211   40.6051 C   0  0  0  0  0  0  0  0  0  0  0  0
   47.7500   29.5106   41.4725 C   0  0  0  0  0  0  0  0  0  0  0  0
   47.1727   27.3822   42.8827 H   0  0  0  0  0  0  0  0  0  0  0  0
   45.2059   29.5779   45.3070 H   0  0  0  0  0  0  0  0  0  0  0  0
   44.5745   29.7784   43.6830 H   0  0  0  0  0  0  0  0  0  0  0  0
   48.9296   29.8399   39.6626 H   0  0  0  0  0  0  0  0  0  0  0  0
   47.5076   28.5222   41.1096 H   0  0  0  0  0  0  0  0  0  0  0  0
  1  2  2  0
  2  3  1  0
  4  3  2  0
  5  4  1  0
  6  5  2  0
  7  6  1  0
  8  9  1  0
  8  7  2  0
  9 10  2  0
 10  1  1  0
 10  5  1  0
 11 16  2  0
 12 11  1  0
 13 12  2  0
 13 14  1  0
 14 15  2  0
 15 16  1  0
 15  1  1  0
 17 12  1  0
 18  9  1  0
  2 19  1  0
  3 20  1  0
  4 21  1  0
  6 22  1  0
  7 23  1  0
  8 24  1  0
 11 25  1  0
 13 26  1  0
 17 27  1  0
 17 28  1  0
 29 30  2  3
 30 31  1  0
 30 32  1  0
 32 33  2  0
 33 34  1  0
 34 35  1  0
 34 36  2  0
 36 37  1  0
 36 38  1  0
 38 39  2  0
 39 32  1  0
 29 40  1  0
 31 41  1  0
 31 42  1  0
 38 43  1  0
 39 44  1  0
 18 33  1  0
M  ISO  8  19  14  20  14  21  14  22  14  23  14  24  14  25  14  26  14
M  ISO  2  35  15  37  16
M  END
>  <DihAtoms>  (1) 
8,17,32,31

>  <DihDeg>  (1) 
64.60854609008048

$$$$
