
 OpenBabel03252508033D

 47 50  0  0  1  0  0  0  0  0999 V2000
   41.8820   33.3160   41.1290 C   0  0  0  0  0  0  0  0  0  0  0  0
   42.7380   34.3680   41.2830 C   0  0  0  0  0  0  0  0  0  0  0  0
   42.1980   35.6660   41.2160 C   0  0  0  0  0  0  0  0  0  0  0  0
   40.8650   35.9250   41.0050 C   0  0  0  0  0  0  0  0  0  0  0  0
   40.0160   34.8640   40.8530 C   0  0  0  0  0  0  0  0  0  0  0  0
   40.5290   33.6030   40.9160 C   0  0  0  0  0  0  0  0  0  0  0  0
   42.8000   36.5650   41.3180 H   0  0  0  0  0  0  0  0  0  0  0  0
   40.4640   36.9090   40.9560 H   0  0  0  0  0  0  0  0  0  0  0  0
   38.9610   34.9740   40.6850 H   0  0  0  0  0  0  0  0  0  0  0  0
   39.8400   32.7540   40.7910 H   0  0  0  0  0  0  0  0  0  0  0  0
   42.3730   31.7120   41.2860 S   0  0  0  0  0  0  0  0  0  0  0  0
   41.3890   31.0180   40.2900 O   0  0  0  0  0  0  0  0  0  0  0  0
   42.0940   31.1470   42.6250 O   0  0  0  0  0  0  0  0  0  0  0  0
   44.2140   29.8500   41.3110 C   0  0  0  0  0  0  0  0  0  0  0  0
   43.6150   30.8710   40.5200 C   0  0  0  0  0  0  0  0  0  0  0  0
   44.1590   30.9040   39.2240 C   0  0  0  0  0  0  0  0  0  0  0  0
   43.6340   31.6860   38.6400 H   0  0  0  0  0  0  0  0  0  0  0  0
   45.1350   30.1420   38.6230 C   0  0  0  0  0  0  0  0  0  0  0  0
   45.3730   30.3720   37.6060 H   0  0  0  0  0  0  0  0  0  0  0  0
   45.5990   29.2200   39.5090 C   0  0  0  0  0  3  0  0  0  0  0  0
   45.1980   29.0400   40.7880 C   0  0  0  0  0  3  0  0  0  0  0  0
   43.3490   28.4210   43.0880 N   0  0  0  0  0  0  0  0  0  0  0  0
   43.9980   29.4810   42.7310 C   0  0  0  0  0  0  0  0  0  0  0  0
   44.4510   30.1460   43.9000 N   0  0  0  0  0  0  0  0  0  0  0  0
   43.2920   28.2730   44.1180 H   0  0  0  0  0  0  0  0  0  0  0  0
   44.9950   29.6790   44.6590 H   0  0  0  0  0  0  0  0  0  0  0  0
   44.6300   30.8900   44.6040 H   0  0  0  0  0  0  0  0  0  0  0  0
   44.1620   34.2030   41.5090 C   0  0  0  0  0  0  0  0  0  0  0  0
   45.0070   33.9440   40.5950 O   0  0  0  0  0  0  0  0  0  0  0  0
   44.5410   34.3640   42.8860 C   0  0  0  0  0  0  0  0  0  0  0  0
   44.2840   35.6570   43.4580 C   0  0  0  0  0  0  0  0  0  0  0  0
   44.6320   35.8330   44.7870 C   0  0  0  0  0  0  0  0  0  0  0  0
   45.1880   34.7870   45.4580 N   0  0  0  0  0  0  0  0  0  0  0  0
   45.4120   33.5710   44.8630 C   0  0  0  0  0  0  0  0  0  0  0  0
   45.0900   33.4050   43.6280 N   0  0  0  0  0  0  0  0  0  0  0  0
   43.8610   36.5160   43.0090 H   0  0  0  0  0  0  0  0  0  0  0  0
   44.4940   36.7520   45.3350 H   0  0  0  0  0  0  0  0  0  0  0  0
   46.0130   32.4910   45.6740 C   0  0  1  0  0  0  0  0  0  0  0  0
   46.9480   32.8500   46.8030 C   0  0  0  0  0  0  0  0  0  0  0  0
   45.5250   32.4290   47.0780 C   0  0  1  0  0  0  0  0  0  0  0  0
   46.2710   31.5610   45.1740 H   0  0  0  0  0  0  0  0  0  0  0  0
   47.7730   32.1460   47.0670 H   0  0  0  0  0  0  0  0  0  0  0  0
   47.2470   33.9140   46.9510 H   0  0  0  0  0  0  0  0  0  0  0  0
   45.3390   31.4170   47.4840 H   0  0  0  0  0  0  0  0  0  0  0  0
   44.7120   33.4940   47.6160 N   0  0  0  0  0  0  0  0  0  0  0  0
   43.8360   33.6600   47.1130 H   0  0  0  0  0  0  0  0  0  0  0  0
   45.2280   34.3400   47.9030 H   0  0  0  0  0  0  0  0  0  0  0  0
  1  2  1  0  0  0  0
  1 11  1  0  0  0  0
  2 28  1  0  0  0  0
  3  2  2  0  0  0  0
  3  7  1  0  0  0  0
  4  3  1  0  0  0  0
  5  6  1  0  0  0  0
  5  4  2  0  0  0  0
  6  1  2  0  0  0  0
  8  4  1  0  0  0  0
  9  5  1  0  0  0  0
 10  6  1  0  0  0  0
 11 13  2  0  0  0  0
 12 11  2  0  0  0  0
 14 23  1  0  0  0  0
 15 11  1  0  0  0  0
 15 14  2  0  0  0  0
 16 15  1  0  0  0  0
 17 16  1  0  0  0  0
 18 16  2  0  0  0  0
 18 20  1  0  0  0  0
 19 18  1  0  0  0  0
 20 21  2  0  0  0  0
 21 14  1  0  0  0  0
 22 25  1  0  0  0  0
 23 22  2  0  0  0  0
 23 24  1  0  0  0  0
 24 27  1  0  0  0  0
 24 26  1  0  0  0  0
 28 30  1  0  0  0  0
 29 28  2  0  0  0  0
 30 31  2  0  0  0  0
 30 35  1  0  0  0  0
 31 32  1  0  0  0  0
 32 37  1  0  0  0  0
 32 33  2  0  0  0  0
 34 33  1  0  0  0  0
 34 38  1  0  0  0  0
 35 34  2  0  0  0  0
 36 31  1  0  0  0  0
 38 41  1  6  0  0  0
 38 39  1  0  0  0  0
 38 40  1  0  0  0  0
 39 43  1  0  0  0  0
 39 42  1  0  0  0  0
 39 40  1  0  0  0  0
 40 44  1  1  0  0  0
 40 45  1  0  0  0  0
 45 47  1  0  0  0  0
 46 45  1  0  0  0  0
M  END
>  <minimizedAffinity>
-5.75325537

>  <minimizedRMSD>
1.09135759

$$$$
