
     RDKit          3D

 53 57  0  0  0  0  0  0  0  0999 V2000
   45.1195   36.0024   43.4876 C   0  0  0  0  0  0  0  0  0  0  0  0
   45.9153   34.8781   43.2530 C   0  0  0  0  0  0  0  0  0  0  0  0
   46.0637   33.9528   44.2396 C   0  0  0  0  0  0  0  0  0  0  0  0
   45.4158   34.1858   45.4214 N   0  0  0  0  0  0  0  0  0  0  0  0
   44.6552   35.2644   45.6417 C   0  0  0  0  0  0  0  0  0  0  0  0
   44.5135   36.1524   44.6871 N   0  0  0  0  0  0  0  0  0  0  0  0
   46.5403   34.7834   42.0104 N   0  0  0  0  0  0  0  0  0  0  0  0
   47.8649   35.2709   41.7935 C   0  0  0  0  0  0  0  0  0  0  0  0
   48.4501   34.9386   40.4547 C   0  0  0  0  0  0  0  0  0  0  0  0
   48.1567   33.6525   39.9803 N   0  0  0  0  0  0  0  0  0  0  0  0
   46.8658   33.2003   40.1624 C   0  0  0  0  0  0  0  0  0  0  0  0
   45.9839   34.2247   40.8438 C   0  0  0  0  0  0  0  0  0  0  0  0
   46.4461   31.9996   45.4959 C   0  0  0  0  0  0  0  0  0  0  0  0
   46.7583   32.7424   44.3382 C   0  0  0  0  0  0  0  0  0  0  0  0
   47.7236   32.1132   43.5897 C   0  0  0  0  0  0  0  0  0  0  0  0
   48.3282   30.9295   43.8903 C   0  0  0  0  0  0  0  0  0  0  0  0
   47.9614   30.2653   45.0571 C   0  0  0  0  0  0  0  0  0  0  0  0
   47.0077   30.8090   45.8670 C   0  0  0  0  0  0  0  0  0  0  0  0
   48.7449   29.1238   45.0756 O   0  0  0  0  0  0  0  0  0  0  0  0
   49.5268   29.0352   43.8907 C   0  0  2  0  0  0  0  0  0  0  0  0
   49.2973   30.2588   43.1700 O   0  0  0  0  0  0  0  0  0  0  0  0
   49.0920   27.9741   43.1638 O   0  0  0  0  0  0  0  0  0  0  0  0
   44.9984   36.7462   42.6954 H   0  0  0  0  0  0  0  0  0  0  0  0
   44.1185   35.5097   46.5464 H   0  0  0  0  0  0  0  0  0  0  0  0
   48.5741   35.0055   42.6044 H   0  0  0  0  0  0  0  0  0  0  0  0
   47.7881   36.3974   41.8364 H   0  0  0  0  0  0  0  0  0  0  0  0
   49.5626   35.0480   40.5397 H   0  0  0  0  0  0  0  0  0  0  0  0
   48.1482   35.6952   39.7058 H   0  0  0  0  0  0  0  0  0  0  0  0
   48.5831   33.5235   39.0584 H   0  0  0  0  0  0  0  0  0  0  0  0
   46.3808   33.0221   39.1578 H   0  0  0  0  0  0  0  0  0  0  0  0
   46.8307   32.2191   40.6598 H   0  0  0  0  0  0  0  0  0  0  0  0
   45.8130   35.0481   40.1094 H   0  0  0  0  0  0  0  0  0  0  0  0
   44.9885   33.7884   41.0424 H   0  0  0  0  0  0  0  0  0  0  0  0
   45.7078   32.2197   46.2973 H   0  0  0  0  0  0  0  0  0  0  0  0
   47.9710   32.6469   42.7261 H   0  0  0  0  0  0  0  0  0  0  0  0
   46.8110   30.2169   46.7199 H   0  0  0  0  0  0  0  0  0  0  0  0
   50.6113   29.0879   44.1382 H   0  0  0  0  0  0  0  0  0  0  0  0
   47.9787   26.3546   39.4692 N   0  0  0  0  0  0  0  0  0  0  0  0
   47.9293   26.4891   40.7688 C   0  0  0  0  0  0  0  0  0  0  0  0
   46.6096   26.9535   40.6813 N   0  0  0  0  0  0  0  0  0  0  0  0
   49.1111   26.1147   41.4909 C   0  0  0  0  0  0  0  0  0  0  0  0
   49.4862   26.8888   42.5497 C   0  0  0  0  0  0  0  0  0  0  0  0
   50.6330   26.4397   43.2259 C   0  0  0  0  0  0  0  0  0  0  0  0
   51.1713   26.8392   44.0986 H   0  0  0  0  0  0  0  0  0  0  0  0
   51.3059   25.2854   42.8119 C   0  0  0  0  0  0  0  0  0  0  0  0
   52.1915   24.8531   43.2569 H   0  0  0  0  0  0  0  0  0  0  0  0
   50.8640   24.5586   41.7316 C   0  0  0  0  0  0  0  0  0  0  0  0
   49.7436   24.9731   41.0492 C   0  0  0  0  0  0  0  0  0  0  0  0
   47.1808   26.5846   38.8508 H   0  0  0  0  0  0  0  0  0  0  0  0
   45.7494   26.3535   40.7785 H   0  0  0  0  0  0  0  0  0  0  0  0
   46.2727   27.9254   40.5142 H   0  0  0  0  0  0  0  0  0  0  0  0
   51.3453   23.6697   41.3770 H   0  0  0  0  0  0  0  0  0  0  0  0
   49.3795   24.4200   40.2004 H   0  0  0  0  0  0  0  0  0  0  0  0
  1  6  2  0
  2  1  1  0
  2  3  2  0
  3 14  1  0
  3  4  1  0
  4  5  2  0
  6  5  1  0
  7  2  1  0
  8  7  1  0
  9  8  1  0
 10 11  1  0
 10  9  1  0
 11 12  1  0
 12  7  1  0
 13 18  2  0
 14 13  1  0
 15 16  1  0
 15 14  2  0
 16 17  2  0
 17 19  1  0
 17 18  1  0
 20 19  1  0
 21 16  1  0
 21 20  1  0
 22 20  1  0
  1 23  1  0
  5 24  1  0
  8 25  1  0
  8 26  1  0
  9 27  1  0
  9 28  1  0
 10 29  1  0
 11 30  1  0
 11 31  1  0
 12 32  1  0
 12 33  1  0
 13 34  1  0
 15 35  1  0
 18 36  1  0
 20 37  1  1
 38 39  2  3
 39 40  1  0
 39 41  1  0
 41 42  2  0
 42 43  1  0
 43 44  1  0
 43 45  2  0
 45 46  1  0
 45 47  1  0
 47 48  2  0
 48 41  1  0
 38 49  1  0
 40 50  1  0
 40 51  1  0
 47 52  1  0
 48 53  1  0
 22 42  1  0
M  ISO  8  23  14  24  14  25  13  26  13  27  13  28  13  29   5  30  13
M  ISO  8  31  13  32  13  33  13  34  14  35  14  36  14  37  13  44  15
M  ISO  1  46  16
M  END
>  <DihAtoms>  (1) 
19,21,41,40

>  <DihDeg>  (1) 
-0.8647495376855872

$$$$
