
 OpenBabel03252508033D

 47 50  0  0  1  0  0  0  0  0999 V2000
   41.4110   33.2960   41.2930 C   0  0  0  0  0  0  0  0  0  0  0  0
   42.4860   34.1340   41.2060 C   0  0  0  0  0  0  0  0  0  0  0  0
   42.2380   35.4870   40.9060 C   0  0  0  0  0  0  0  0  0  0  0  0
   40.9820   36.0030   40.6980 C   0  0  0  0  0  0  0  0  0  0  0  0
   39.9120   35.1550   40.7880 C   0  0  0  0  0  0  0  0  0  0  0  0
   40.1410   33.8430   41.0770 C   0  0  0  0  0  0  0  0  0  0  0  0
   43.0280   36.2260   40.8080 H   0  0  0  0  0  0  0  0  0  0  0  0
   40.8030   37.0250   40.4720 H   0  0  0  0  0  0  0  0  0  0  0  0
   38.8960   35.4720   40.6400 H   0  0  0  0  0  0  0  0  0  0  0  0
   39.2750   33.1670   41.1470 H   0  0  0  0  0  0  0  0  0  0  0  0
   41.5510   31.6790   41.7430 S   0  0  0  0  0  0  0  0  0  0  0  0
   40.2990   31.5360   42.6670 O   0  0  0  0  0  0  0  0  0  0  0  0
   42.7370   31.4110   42.5860 O   0  0  0  0  0  0  0  0  0  0  0  0
   40.6330   29.2280   41.8300 C   0  0  0  0  0  0  0  0  0  0  0  0
   41.0350   30.2800   40.9600 C   0  0  0  0  0  0  0  0  0  0  0  0
   40.8400   29.9370   39.6100 C   0  0  0  0  0  0  0  0  0  0  0  0
   41.1300   30.8000   38.9790 H   0  0  0  0  0  0  0  0  0  0  0  0
   40.3460   28.7940   39.0210 C   0  0  0  0  0  0  0  0  0  0  0  0
   40.3010   28.7800   37.9540 H   0  0  0  0  0  0  0  0  0  0  0  0
   40.0110   27.8950   39.9860 C   0  0  0  0  0  0  0  0  0  0  0  0
   40.1270   28.0510   41.3230 C   0  0  0  0  0  0  0  0  0  0  0  0
   39.6590   28.8970   44.0400 N   0  0  0  0  0  0  0  0  0  0  0  0
   40.7000   29.1230   43.3080 C   0  0  0  0  0  0  0  0  0  0  0  0
   41.8360   29.2080   44.1540 N   0  0  0  0  0  0  0  0  0  0  0  0
   39.8530   28.8260   45.0630 H   0  0  0  0  0  0  0  0  0  0  0  0
   42.0910   28.4810   44.8570 H   0  0  0  0  0  0  0  0  0  0  0  0
   42.7050   29.5590   44.6040 H   0  0  0  0  0  0  0  0  0  0  0  0
   43.8520   33.6910   41.4070 C   0  0  0  0  0  0  0  0  0  0  0  0
   44.5330   33.0520   40.5440 O   0  0  0  0  0  0  0  0  0  0  0  0
   44.3810   34.0460   42.6960 C   0  0  0  0  0  0  0  0  0  0  0  0
   44.2610   35.4310   43.0600 C   0  0  0  0  0  0  0  0  0  0  0  0
   44.7550   35.7950   44.3020 C   0  0  0  0  0  0  0  0  0  0  0  0
   45.3150   34.8340   45.0870 N   0  0  0  0  0  0  0  0  0  0  0  0
   45.4050   33.5240   44.6900 C   0  0  0  0  0  0  0  0  0  0  0  0
   44.9470   33.1830   43.5360 N   0  0  0  0  0  0  0  0  0  0  0  0
   43.8440   36.2340   42.5130 H   0  0  0  0  0  0  0  0  0  0  0  0
   44.7270   36.7990   44.6960 H   0  0  0  0  0  0  0  0  0  0  0  0
   46.0220   32.5500   45.6140 C   0  0  1  0  0  0  0  0  0  0  0  0
   46.9330   33.0470   46.7100 C   0  0  0  0  0  0  0  0  0  0  0  0
   45.5170   32.6190   47.0120 C   0  0  1  0  0  0  0  0  0  0  0  0
   46.3100   31.5800   45.2150 H   0  0  0  0  0  0  0  0  0  0  0  0
   47.7710   32.3970   47.0540 H   0  0  0  0  0  0  0  0  0  0  0  0
   47.2020   34.1290   46.7510 H   0  0  0  0  0  0  0  0  0  0  0  0
   45.3520   31.6500   47.5180 H   0  0  0  0  0  0  0  0  0  0  0  0
   44.6700   33.7120   47.4290 N   0  0  0  0  0  0  0  0  0  0  0  0
   43.7960   33.8010   46.9030 H   0  0  0  0  0  0  0  0  0  0  0  0
   45.1610   34.5960   47.6330 H   0  0  0  0  0  0  0  0  0  0  0  0
  1 11  1  0  0  0  0
  2  1  1  0  0  0  0
  2 28  1  0  0  0  0
  3  2  2  0  0  0  0
  4  5  2  0  0  0  0
  4  3  1  0  0  0  0
  5  6  1  0  0  0  0
  6 10  1  0  0  0  0
  6  1  2  0  0  0  0
  7  3  1  0  0  0  0
  8  4  1  0  0  0  0
  9  5  1  0  0  0  0
 11 13  2  0  0  0  0
 11 12  2  0  0  0  0
 14 23  1  0  0  0  0
 15 11  1  0  0  0  0
 15 14  2  0  0  0  0
 16 15  1  0  0  0  0
 17 16  1  0  0  0  0
 18 16  2  0  0  0  0
 18 20  1  0  0  0  0
 19 18  1  0  0  0  0
 20 21  2  0  0  0  0
 21 14  1  0  0  0  0
 22 25  1  0  0  0  0
 23 22  2  0  0  0  0
 23 24  1  0  0  0  0
 24 27  1  0  0  0  0
 24 26  1  0  0  0  0
 28 30  1  0  0  0  0
 29 28  2  0  0  0  0
 30 31  2  0  0  0  0
 30 35  1  0  0  0  0
 31 32  1  0  0  0  0
 32 37  1  0  0  0  0
 32 33  2  0  0  0  0
 34 33  1  0  0  0  0
 34 38  1  0  0  0  0
 35 34  2  0  0  0  0
 36 31  1  0  0  0  0
 38 41  1  6  0  0  0
 38 39  1  0  0  0  0
 38 40  1  0  0  0  0
 39 43  1  0  0  0  0
 39 40  1  0  0  0  0
 39 42  1  0  0  0  0
 40 45  1  0  0  0  0
 40 44  1  1  0  0  0
 45 47  1  0  0  0  0
 46 45  1  0  0  0  0
M  END
>  <minimizedAffinity>
-6.36508369

>  <minimizedRMSD>
3.62769628

$$$$
