
 OpenBabel03252509263D

 35 37  0  0  1  0  0  0  0  0999 V2000
   46.9670   35.1310   41.7370 C   0  0  1  0  0  0  0  0  0  0  0  0
   48.4880   35.4490   41.7680 C   0  0  0  0  0  0  0  0  0  0  0  0
   47.8050   34.2730   41.0090 C   0  0  2  0  0  0  0  0  0  0  0  0
   46.3590   35.9360   41.2760 H   0  0  0  0  0  0  0  0  0  0  0  0
   48.7760   36.3120   41.1470 H   0  0  0  0  0  0  0  0  0  0  0  0
   49.0660   35.1740   42.6540 H   0  0  0  0  0  0  0  0  0  0  0  0
   48.0880   33.2580   41.4220 H   0  0  0  0  0  0  0  0  0  0  0  0
   44.9890   34.8790   44.9130 C   0  0  0  0  0  0  0  0  0  0  0  0
   45.4120   35.3860   43.6360 C   0  0  0  0  0  0  0  0  0  0  0  0
   46.4800   34.7340   43.1120 C   0  0  0  0  0  0  0  0  0  0  0  0
   47.1060   33.6800   43.7500 N   0  0  0  0  0  0  0  0  0  0  0  0
   46.6690   33.2430   44.9460 C   0  0  0  0  0  0  0  0  0  0  0  0
   45.6040   33.8460   45.5310 N   0  0  0  0  0  0  0  0  0  0  0  0
   44.1380   35.3740   45.3620 H   0  0  0  0  0  0  0  0  0  0  0  0
   47.2410   32.4210   45.3310 H   0  0  0  0  0  0  0  0  0  0  0  0
   44.7930   36.4770   43.0080 N   0  0  0  0  0  0  0  0  0  0  0  0
   44.1150   35.8690   42.5140 H   0  0  0  0  0  0  0  0  0  0  0  0
   45.4330   37.1950   43.4580 H   0  0  0  0  0  0  0  0  0  0  0  0
   47.8050   34.2820   39.4980 C   0  0  0  0  0  0  0  0  0  0  0  0
   48.5940   35.0090   39.2060 H   0  0  0  0  0  0  0  0  0  0  0  0
   46.8010   34.6650   39.1900 H   0  0  0  0  0  0  0  0  0  0  0  0
   47.0280   32.4350   38.0620 C   0  0  0  0  0  0  0  0  0  0  0  0
   47.9970   32.9620   38.8890 C   0  0  0  0  0  0  0  0  0  0  0  0
   49.1510   32.2500   39.1440 C   0  0  0  0  0  0  0  0  0  0  0  0
   49.8910   32.7170   39.8110 H   0  0  0  0  0  0  0  0  0  0  0  0
   49.3280   31.0150   38.5680 C   0  0  0  0  0  0  0  0  0  0  0  0
   50.2700   30.5230   38.8240 H   0  0  0  0  0  0  0  0  0  0  0  0
   48.3770   30.4610   37.7370 C   0  0  0  0  0  3  0  0  0  0  0  0
   47.2550   31.1910   37.5090 C   0  0  0  0  0  3  0  0  0  0  0  0
   45.3960   33.7940   36.7210 N   0  0  0  0  0  0  0  0  0  0  0  0
   45.7770   33.0780   37.7190 C   0  0  0  0  0  0  0  0  0  0  0  0
   44.6500   32.9720   38.5880 N   0  0  0  0  0  0  0  0  0  0  0  0
   44.4340   34.1740   36.6510 H   0  0  0  0  0  0  0  0  0  0  0  0
   44.5310   33.8040   39.2230 H   0  0  0  0  0  0  0  0  0  0  0  0
   44.0300   32.1330   38.5620 H   0  0  0  0  0  0  0  0  0  0  0  0
  1  4  1  6  0  0  0
  1  2  1  0  0  0  0
  1 10  1  0  0  0  0
  2  6  1  0  0  0  0
  3  7  1  1  0  0  0
  3  1  1  0  0  0  0
  3  2  1  0  0  0  0
  5  2  1  0  0  0  0
  8 14  1  0  0  0  0
  8 13  1  0  0  0  0
  9  8  2  0  0  0  0
 10  9  1  0  0  0  0
 10 11  2  0  0  0  0
 11 12  1  0  0  0  0
 12 15  1  0  0  0  0
 12 13  2  0  0  0  0
 16 18  1  0  0  0  0
 16  9  1  0  0  0  0
 17 16  1  0  0  0  0
 19  3  1  0  0  0  0
 20 19  1  0  0  0  0
 21 19  1  0  0  0  0
 22 23  1  0  0  0  0
 23 24  2  0  0  0  0
 23 19  1  0  0  0  0
 24 25  1  0  0  0  0
 26 27  1  0  0  0  0
 26 24  1  0  0  0  0
 28 26  2  0  0  0  0
 29 28  1  0  0  0  0
 29 22  2  0  0  0  0
 30 31  2  0  0  0  0
 31 22  1  0  0  0  0
 31 32  1  0  0  0  0
 32 34  1  0  0  0  0
 33 30  1  0  0  0  0
 35 32  1  0  0  0  0
M  END
>  <minimizedAffinity>
-5.17088461

>  <minimizedRMSD>
1.56626642

$$$$
