
     RDKit          3D

 36 38  0  0  0  0  0  0  0  0999 V2000
   45.2391   33.5647   43.7080 C   0  0  1  0  0  0  0  0  0  0  0  0
   45.8603   34.9914   43.4837 C   0  0  1  0  0  0  0  0  0  0  0  0
   45.8242   33.8786   42.4594 C   0  0  0  0  0  0  0  0  0  0  0  0
   45.8992   32.8671   44.8176 C   0  0  0  0  0  0  0  0  0  0  0  0
   46.7117   31.7472   44.5052 C   0  0  0  0  0  0  0  0  0  0  0  0
   47.3772   31.0448   45.5050 C   0  0  0  0  0  0  0  0  0  0  0  0
   47.2053   31.4895   46.7785 N   0  0  0  0  0  0  0  0  0  0  0  0
   46.4138   32.5757   47.0455 C   0  0  0  0  0  0  0  0  0  0  0  0
   45.7805   33.2426   46.0941 N   0  0  0  0  0  0  0  0  0  0  0  0
   46.3260   32.9264   48.3821 O   0  0  0  0  0  0  0  0  0  0  0  0
   44.8334   36.0699   43.2424 C   0  0  0  0  0  0  0  0  0  0  0  0
   45.3528   37.3313   43.2436 F   0  0  0  0  0  0  0  0  0  0  0  0
   44.2467   35.8552   41.9781 F   0  0  0  0  0  0  0  0  0  0  0  0
   43.7818   35.9605   44.1388 F   0  0  0  0  0  0  0  0  0  0  0  0
   44.1232   33.6012   43.8470 H   0  0  0  0  0  0  0  0  0  0  0  0
   46.7934   35.2270   43.9844 H   0  0  0  0  0  0  0  0  0  0  0  0
   46.8535   33.5259   42.1725 H   0  0  0  0  0  0  0  0  0  0  0  0
   45.2053   34.0202   41.5515 H   0  0  0  0  0  0  0  0  0  0  0  0
   46.8338   31.4105   43.4733 H   0  0  0  0  0  0  0  0  0  0  0  0
   47.9978   30.1923   45.2882 H   0  0  0  0  0  0  0  0  0  0  0  0
   45.3471   29.2943   50.1507 N   0  0  0  0  0  0  0  0  0  0  0  0
   45.3968   30.5876   49.9194 C   0  0  0  0  0  0  0  0  0  0  0  0
   44.0796   30.5623   49.4346 N   0  0  0  0  0  0  0  0  0  0  0  0
   46.6022   31.2904   50.2316 C   0  0  0  0  0  0  0  0  0  0  0  0
   46.9441   32.3593   49.4414 C   0  0  0  0  0  0  0  0  0  0  0  0
   48.1445   33.0116   49.7506 C   0  0  0  0  0  0  0  0  0  0  0  0
   48.5850   33.8664   49.2505 H   0  0  0  0  0  0  0  0  0  0  0  0
   48.9042   32.5400   50.8279 C   0  0  0  0  0  0  0  0  0  0  0  0
   49.8278   32.9909   51.1171 H   0  0  0  0  0  0  0  0  0  0  0  0
   48.5178   31.4756   51.5799 C   0  0  0  0  0  0  0  0  0  0  0  0
   47.3438   30.8221   51.2918 C   0  0  0  0  0  0  0  0  0  0  0  0
   46.1165   28.7485   50.5420 H   0  0  0  0  0  0  0  0  0  0  0  0
   43.7734   30.4052   48.4474 H   0  0  0  0  0  0  0  0  0  0  0  0
   43.2005   30.7044   50.0097 H   0  0  0  0  0  0  0  0  0  0  0  0
   49.1125   31.1042   52.4262 H   0  0  0  0  0  0  0  0  0  0  0  0
   47.0217   29.9761   51.8797 H   0  0  0  0  0  0  0  0  0  0  0  0
  1  4  1  0
  2  1  1  0
  3  2  1  0
  3  1  1  0
  4  9  1  0
  5  4  2  0
  5  6  1  0
  6  7  2  0
  7  8  1  0
  8 10  1  0
  9  8  2  0
 11  2  1  0
 11 14  1  0
 12 11  1  0
 13 11  1  0
  1 15  1  6
  2 16  1  1
  3 17  1  0
  3 18  1  0
  5 19  1  0
  6 20  1  0
 21 22  2  3
 22 23  1  0
 22 24  1  0
 24 25  2  0
 25 26  1  0
 26 27  1  0
 26 28  2  0
 28 29  1  0
 28 30  1  0
 30 31  2  0
 31 24  1  0
 21 32  1  0
 23 33  1  0
 23 34  1  0
 30 35  1  0
 31 36  1  0
 10 25  1  0
M  ISO  8  15  13  16  13  17  13  18  13  19  14  20  14  27  15  29  16
M  END
>  <DihAtoms>  (1) 
7,9,24,23

>  <DihDeg>  (1) 
63.77147501968275

$$$$
