
 OpenBabel03242516223D

 34 36  0  0  0  0  0  0  0  0999 V2000
   46.2650   32.4960   47.2680 C   0  0  0  0  0  0  0  0  0  0  0  0
   47.5690   32.4590   47.7030 C   0  0  0  0  0  0  0  0  0  0  0  0
   47.9610   31.6220   48.7260 C   0  0  0  0  0  0  0  0  0  0  0  0
   47.0480   30.7870   49.3510 C   0  0  0  0  0  0  0  0  0  0  0  0
   45.7420   30.8120   48.9280 C   0  0  0  0  0  0  0  0  0  0  0  0
   45.3720   31.6580   47.9010 C   0  0  0  0  0  0  0  0  0  0  0  0
   48.2800   33.1170   47.2080 H   0  0  0  0  0  0  0  0  0  0  0  0
   47.3500   30.1230   50.1590 H   0  0  0  0  0  0  0  0  0  0  0  0
   44.9840   30.1760   49.3840 H   0  0  0  0  0  0  0  0  0  0  0  0
   44.3430   31.6860   47.5590 H   0  0  0  0  0  0  0  0  0  0  0  0
   44.5540   35.2040   45.5010 C   0  0  0  0  0  0  0  0  0  0  0  0
   45.0350   35.1040   44.1910 C   0  0  0  0  0  0  0  0  0  0  0  0
   45.9640   34.0870   43.9110 C   0  0  0  0  0  0  0  0  0  0  0  0
   46.3610   33.2420   44.9130 N   0  0  0  0  0  0  0  0  0  0  0  0
   45.8550   33.3880   46.1790 C   0  0  0  0  0  0  0  0  0  0  0  0
   44.9560   34.3630   46.4750 N   0  0  0  0  0  0  0  0  0  0  0  0
   43.8410   36.0020   45.6650 H   0  0  0  0  0  0  0  0  0  0  0  0
   44.7140   35.7810   43.3980 H   0  0  0  0  0  0  0  0  0  0  0  0
   46.3600   33.9770   42.9090 H   0  0  0  0  0  0  0  0  0  0  0  0
   49.6760   31.6300   49.2370 S   0  0  0  0  0  0  0  0  0  0  0  0
   50.3390   29.0620   49.1230 C   0  0  0  0  0  0  0  0  0  0  0  0
   50.1310   30.0910   50.0030 C   0  0  0  0  0  0  0  0  0  0  0  0
   50.2910   29.8340   51.3370 C   0  0  0  0  0  0  0  0  0  0  0  0
   50.1110   30.6990   51.9900 H   0  0  0  0  0  0  0  0  0  0  0  0
   50.6470   28.5910   51.8050 C   0  0  0  0  0  0  0  0  0  0  0  0
   50.7580   28.4530   52.8840 H   0  0  0  0  0  0  0  0  0  0  0  0
   50.8590   27.5460   50.9260 C   0  0  0  0  0  3  0  0  0  0  0  0
   50.7000   27.7970   49.5660 C   0  0  0  0  0  3  0  0  0  0  0  0
   49.2040   29.0810   46.8620 N   0  0  0  0  0  0  0  0  0  0  0  0
   50.2100   29.1700   47.6660 C   0  0  0  0  0  0  0  0  0  0  0  0
   51.4600   29.4230   47.0370 N   0  0  0  0  0  0  0  0  0  0  0  0
   48.2300   28.9010   47.1620 H   0  0  0  0  0  0  0  0  0  0  0  0
   51.9390   28.6020   46.6040 H   0  0  0  0  0  0  0  0  0  0  0  0
   52.3780   29.6100   46.5760 H   0  0  0  0  0  0  0  0  0  0  0  0
  1  2  2  0  0  0  0
  1  6  1  0  0  0  0
  2  3  1  0  0  0  0
  3 20  1  0  0  0  0
  3  4  2  0  0  0  0
  4  8  1  0  0  0  0
  5  4  1  0  0  0  0
  5  9  1  0  0  0  0
  6  5  2  0  0  0  0
  7  2  1  0  0  0  0
 10  6  1  0  0  0  0
 11 17  1  0  0  0  0
 11 16  1  0  0  0  0
 12 11  2  0  0  0  0
 13 12  1  0  0  0  0
 13 14  2  0  0  0  0
 14 15  1  0  0  0  0
 15 16  2  0  0  0  0
 15  1  1  0  0  0  0
 18 12  1  0  0  0  0
 19 13  1  0  0  0  0
 20 22  1  0  0  0  0
 21 28  2  0  0  0  0
 21 22  1  0  0  0  0
 22 23  2  0  0  0  0
 23 25  1  0  0  0  0
 23 24  1  0  0  0  0
 25 26  1  0  0  0  0
 27 25  2  0  0  0  0
 28 27  1  0  0  0  0
 29 32  1  0  0  0  0
 29 30  2  0  0  0  0
 30 21  1  0  0  0  0
 31 30  1  0  0  0  0
 33 31  1  0  0  0  0
 34 31  1  0  0  0  0
M  END
>  <minimizedAffinity>
-4.9449172

>  <minimizedRMSD>
1.56794596

$$$$
