
 OpenBabel03242522423D

 52 53  0  0  0  0  0  0  0  0999 V2000
   46.2200   34.6580   42.9570 C   0  0  0  0  0  0  0  0  0  0  0  0
   46.0550   33.9710   44.1550 C   0  0  0  0  0  0  0  0  0  0  0  0
   45.3000   34.3600   45.1930 C   0  0  0  0  0  0  0  0  0  0  0  0
   44.6160   35.5440   45.0800 C   0  0  0  0  0  0  0  0  0  0  0  0
   44.6900   36.3090   43.9530 C   0  0  0  0  0  0  0  0  0  0  0  0
   45.4880   35.8540   42.9140 C   0  0  0  0  0  0  0  0  0  0  0  0
   45.0950   33.9130   46.1250 H   0  0  0  0  0  0  0  0  0  0  0  0
   43.9650   35.9940   45.8340 H   0  0  0  0  0  0  0  0  0  0  0  0
   44.1750   37.2620   43.7820 H   0  0  0  0  0  0  0  0  0  0  0  0
   45.5660   36.4370   42.0060 H   0  0  0  0  0  0  0  0  0  0  0  0
   46.7690   32.6870   44.2900 C   0  0  0  0  0  0  0  0  0  0  0  0
   46.7020   32.2370   43.2860 H   0  0  0  0  0  0  0  0  0  0  0  0
   47.7660   32.9230   44.6670 H   0  0  0  0  0  0  0  0  0  0  0  0
   46.1310   31.6510   45.1670 C   0  0  0  0  0  0  0  0  0  0  0  0
   46.0350   30.6520   44.6860 H   0  0  0  0  0  0  0  0  0  0  0  0
   45.0710   31.8480   45.4140 H   0  0  0  0  0  0  0  0  0  0  0  0
   47.0520   32.4240   47.3340 C   0  0  0  0  0  0  0  0  0  0  0  0
   46.9940   31.4440   46.3230 C   0  0  0  0  0  0  0  0  0  0  0  0
   47.7710   30.3100   46.4980 C   0  0  0  0  0  0  0  0  0  0  0  0
   48.5320   30.1930   47.6030 N   0  0  0  0  0  0  0  0  0  0  0  0
   48.5560   31.1420   48.5340 C   0  0  0  0  0  0  0  0  0  0  0  0
   47.8240   32.2720   48.4240 N   0  0  0  0  0  0  0  0  0  0  0  0
   46.5420   33.3660   47.3970 H   0  0  0  0  0  0  0  0  0  0  0  0
   47.7270   29.5560   45.7170 H   0  0  0  0  0  0  0  0  0  0  0  0
   49.4140   30.9330   49.7590 C   0  0  0  0  0  0  0  0  0  0  0  0
   48.8160   31.3830   50.5890 H   0  0  0  0  0  0  0  0  0  0  0  0
   49.5380   29.8490   49.9510 H   0  0  0  0  0  0  0  0  0  0  0  0
   50.6920   31.6210   49.6980 C   0  0  0  0  0  0  0  0  0  0  0  0
   51.8770   31.0860   49.2230 C   0  0  0  0  0  0  0  0  0  0  0  0
   52.8600   32.0410   49.3280 C   0  0  0  0  0  0  0  0  0  0  0  0
   52.2390   33.1200   49.8630 N   0  0  0  0  0  0  0  0  0  0  0  0
   50.9440   32.8790   50.0880 N   0  0  0  0  0  0  0  0  0  0  0  0
   52.0900   30.0990   48.8190 H   0  0  0  0  0  0  0  0  0  0  0  0
   53.9120   32.0740   49.0870 H   0  0  0  0  0  0  0  0  0  0  0  0
   52.6230   34.0660   50.1080 H   0  0  0  0  0  0  0  0  0  0  0  0
   47.1420   34.1720   41.6070 S   0  0  0  0  0  0  0  0  0  0  0  0
   47.9310   35.4470   41.0820 O   0  0  0  0  0  0  0  0  0  0  0  0
   46.2610   33.8490   40.4570 O   0  0  0  0  0  0  0  0  0  0  0  0
   48.7150   31.8770   41.4740 C   0  0  0  0  0  0  0  0  0  0  0  0
   48.5510   33.2070   41.8070 C   0  0  0  0  0  0  0  0  0  0  0  0
   49.7290   33.7320   42.3770 C   0  0  0  0  0  0  0  0  0  0  0  0
   49.6800   34.7940   42.6720 H   0  0  0  0  0  0  0  0  0  0  0  0
   50.9090   33.0800   42.6010 C   0  0  0  0  0  0  0  0  0  0  0  0
   51.7320   33.6180   43.0490 H   0  0  0  0  0  0  0  0  0  0  0  0
   50.9570   31.7640   42.2300 C   0  0  0  0  0  0  0  0  0  0  0  0
   49.8570   31.1540   41.6650 C   0  0  0  0  0  0  0  0  0  0  0  0
   47.1310   31.0800   39.6910 N   0  0  0  0  0  0  0  0  0  0  0  0
   47.5830   31.1820   40.8880 C   0  0  0  0  0  0  0  0  0  0  0  0
   46.7070   30.4060   41.7300 N   0  0  0  0  0  0  0  0  0  0  0  0
   46.3040   30.5420   39.4290 H   0  0  0  0  0  0  0  0  0  0  0  0
   45.8850   30.9830   42.0360 H   0  0  0  0  0 10  0  0  0  0  0  0
   45.8240   30.3840   42.2960 H   0  0  0  0  0  0  0  0  0  0  0  0
  1  2  1  0  0  0  0
  2 11  1  0  0  0  0
  2  3  2  0  0  0  0
  3  7  1  0  0  0  0
  4  3  1  0  0  0  0
  4  8  1  0  0  0  0
  5  4  2  0  0  0  0
  6  1  2  0  0  0  0
  6  5  1  0  0  0  0
  9  5  1  0  0  0  0
 10  6  1  0  0  0  0
 11 13  1  0  0  0  0
 11 14  1  0  0  0  0
 12 11  1  0  0  0  0
 14 16  1  0  0  0  0
 14 18  1  0  0  0  0
 15 14  1  0  0  0  0
 17 23  1  0  0  0  0
 17 22  1  0  0  0  0
 18 19  1  0  0  0  0
 18 17  2  0  0  0  0
 19 20  2  0  0  0  0
 20 21  1  0  0  0  0
 21 25  1  0  0  0  0
 22 21  2  0  0  0  0
 24 19  1  0  0  0  0
 25 27  1  0  0  0  0
 25 26  1  0  0  0  0
 28 25  1  0  0  0  0
 28 32  2  0  0  0  0
 29 30  2  0  0  0  0
 29 28  1  0  0  0  0
 30 31  1  0  0  0  0
 31 32  1  0  0  0  0
 31 35  1  0  0  0  0
 33 29  1  0  0  0  0
 34 30  1  0  0  0  0
 36 40  1  0  0  0  0
 36  1  1  0  0  0  0
 37 36  2  0  0  0  0
 38 36  2  0  0  0  0
 39 46  2  0  0  0  0
 39 40  1  0  0  0  0
 40 41  2  0  0  0  0
 41 43  1  0  0  0  0
 41 42  1  0  0  0  0
 43 44  1  0  0  0  0
 45 43  2  0  0  0  0
 46 45  1  0  0  0  0
 47 48  2  0  0  0  0
 48 39  1  0  0  0  0
 49 52  1  0  0  0  0
 50 47  1  0  0  0  0
M  END
>  <minimizedAffinity>
-6.33379555

>  <minimizedRMSD>
0.418954194

$$$$
