
 OpenBabel03242523133D

 51 55  0  0  1  0  0  0  0  0999 V2000
   35.3340   29.7120   40.0150 C   0  0  0  0  0  0  0  0  0  0  0  0
   36.2890   30.3460   39.1940 C   0  0  0  0  0  0  0  0  0  0  0  0
   36.0600   30.0750   37.8660 C   0  0  0  0  0  0  0  0  0  0  0  0
   35.0570   29.3020   37.3660 C   0  0  0  0  0  0  0  0  0  0  0  0
   34.1600   28.7100   38.2510 C   0  0  0  0  0  0  0  0  0  0  0  0
   34.3020   28.9210   39.5910 C   0  0  0  0  0  0  0  0  0  0  0  0
   33.2860   27.9990   37.4460 O   0  0  0  0  0  0  0  0  0  0  0  0
   33.5820   28.2160   36.0720 C   0  0  2  0  0  0  0  0  0  0  0  0
   34.7860   29.0050   36.0440 O   0  0  0  0  0  0  0  0  0  0  0  0
   35.2280   29.7360   41.1210 H   0  0  0  0  0  0  0  0  0  0  0  0
   36.7580   30.5360   37.2380 H   0  0  0  0  0  0  0  0  0  0  0  0
   33.5650   28.4250   40.1620 H   0  0  0  0  0  0  0  0  0  0  0  0
   33.8940   27.2640   35.5880 H   0  0  0  0  0  0  0  0  0  0  0  0
   39.0250   31.6870   41.3730 C   0  0  0  0  0  0  0  0  0  0  0  0
   38.1600   30.7120   40.8710 C   0  0  0  0  0  0  0  0  0  0  0  0
   37.2650   31.0530   39.9050 C   0  0  0  0  0  0  0  0  0  0  0  0
   37.2670   32.3520   39.4790 N   0  0  0  0  0  0  0  0  0  0  0  0
   38.0970   33.2830   39.9620 C   0  0  0  0  0  0  0  0  0  0  0  0
   38.9580   32.9490   40.8930 N   0  0  0  0  0  0  0  0  0  0  0  0
   39.7460   31.4140   42.1490 H   0  0  0  0  0  0  0  0  0  0  0  0
   38.1510   34.3220   39.6730 H   0  0  0  0  0  0  0  0  0  0  0  0
   38.2500   29.4320   41.4190 N   0  0  0  0  0  0  0  0  0  0  0  0
   37.7860   29.1430   42.7380 C   0  0  0  0  0  0  0  0  0  0  0  0
   37.7980   27.6910   43.1080 C   0  0  0  0  0  0  0  0  0  0  0  0
   37.4090   26.8130   42.0870 N   0  0  0  0  0  0  0  0  0  0  0  0
   37.8880   27.0790   40.8200 C   0  0  0  0  0  0  0  0  0  0  0  0
   38.7880   28.2960   40.7850 C   0  0  0  0  0  0  0  0  0  0  0  0
   36.8000   29.5940   42.9710 H   0  0  0  0  0  0  0  0  0  0  0  0
   38.5100   29.6550   43.4370 H   0  0  0  0  0  0  0  0  0  0  0  0
   37.1040   27.5620   43.9800 H   0  0  0  0  0  0  0  0  0  0  0  0
   38.7940   27.4020   43.4940 H   0  0  0  0  0  0  0  0  0  0  0  0
   37.4640   25.8480   42.4250 H   0  0  0  0  0  0  0  0  0  0  0  0
   38.5420   26.2250   40.4750 H   0  0  0  0  0  0  0  0  0  0  0  0
   37.0850   27.1290   40.0690 H   0  0  0  0  0  0  0  0  0  0  0  0
   39.7340   28.0180   41.3100 H   0  0  0  0  0  0  0  0  0  0  0  0
   39.0780   28.5170   39.7420 H   0  0  0  0  0  0  0  0  0  0  0  0
   32.5570   28.9070   35.5110 O   0  0  0  0  0  0  0  0  0  0  0  0
   31.0480   30.6690   36.4460 C   0  0  0  0  0  0  0  0  0  0  0  0
   31.8820   30.0250   35.5800 C   0  0  0  0  0  0  0  0  0  0  0  0
   32.1300   30.7180   34.3830 C   0  0  0  0  0  0  0  0  0  0  0  0
   32.7460   30.4650   33.5060 H   0  0  0  0  0  0  0  0  0  0  0  0
   31.5490   31.9660   34.1400 C   0  0  0  0  0  0  0  0  0  0  0  0
   31.6710   32.5820   33.2600 H   0  0  0  0  0  0  0  0  0  0  0  0
   30.7180   32.5510   35.0660 C   0  0  0  0  0  3  0  0  0  0  0  0
   30.4540   31.8970   36.2480 C   0  0  0  0  0  3  0  0  0  0  0  0
   30.1670   28.8320   37.5740 N   0  0  0  0  0  0  0  0  0  0  0  0
   30.7180   30.0120   37.6780 C   0  0  0  0  0  0  0  0  0  0  0  0
   30.6720   29.9220   39.0760 N   0  0  0  0  0  0  0  0  0  0  0  0
   29.8980   28.2630   38.3960 H   0  0  0  0  0  0  0  0  0  0  0  0
   31.4570   29.5770   39.6870 H   0  0  0  0  0  0  0  0  0  0  0  0
   29.8890   30.1730   39.7170 H   0  0  0  0  0  0  0  0  0  0  0  0
  1 10  1  0  0  0  0
  2 16  1  0  0  0  0
  2  1  2  0  0  0  0
  3  2  1  0  0  0  0
  4  3  2  0  0  0  0
  4  5  1  0  0  0  0
  5  6  2  0  0  0  0
  6  1  1  0  0  0  0
  6 12  1  0  0  0  0
  7  5  1  0  0  0  0
  8 13  1  6  0  0  0
  8  7  1  0  0  0  0
  9  8  1  0  0  0  0
  9  4  1  0  0  0  0
 11  3  1  0  0  0  0
 14 20  1  0  0  0  0
 15 14  2  0  0  0  0
 15 22  1  0  0  0  0
 16 15  1  0  0  0  0
 17 16  2  0  0  0  0
 17 18  1  0  0  0  0
 18 19  2  0  0  0  0
 19 14  1  0  0  0  0
 21 18  1  0  0  0  0
 22 23  1  0  0  0  0
 23 28  1  0  0  0  0
 23 24  1  0  0  0  0
 23 29  1  0  0  0  0
 24 31  1  0  0  0  0
 24 30  1  0  0  0  0
 25 32  1  0  0  0  0
 25 24  1  0  0  0  0
 26 25  1  0  0  0  0
 27 26  1  0  0  0  0
 27 35  1  0  0  0  0
 27 22  1  0  0  0  0
 33 26  1  0  0  0  0
 34 26  1  0  0  0  0
 36 27  1  0  0  0  0
 37 39  1  0  0  0  0
 37  8  1  0  0  0  0
 38 47  1  0  0  0  0
 39 38  2  0  0  0  0
 40 39  1  0  0  0  0
 41 40  1  0  0  0  0
 42 40  2  0  0  0  0
 42 44  1  0  0  0  0
 43 42  1  0  0  0  0
 44 45  2  0  0  0  0
 45 38  1  0  0  0  0
 46 47  2  0  0  0  0
 46 49  1  0  0  0  0
 47 48  1  0  0  0  0
 48 50  1  0  0  0  0
 48 51  1  0  0  0  0
M  END
>  <minimizedAffinity>
-7.15703678

$$$$

 OpenBabel03242523133D

 51 55  0  0  1  0  0  0  0  0999 V2000
   41.1250   29.3690   37.4000 C   0  0  0  0  0  0  0  0  0  0  0  0
   40.6610   30.6280   37.8340 C   0  0  0  0  0  0  0  0  0  0  0  0
   39.2950   30.6310   37.9820 C   0  0  0  0  0  0  0  0  0  0  0  0
   38.4610   29.5800   37.7490 C   0  0  0  0  0  0  0  0  0  0  0  0
   39.0040   28.3730   37.3190 C   0  0  0  0  0  0  0  0  0  0  0  0
   40.3530   28.2700   37.1430 C   0  0  0  0  0  0  0  0  0  0  0  0
   37.9170   27.5280   37.1690 O   0  0  0  0  0  0  0  0  0  0  0  0
   36.7210   28.1750   37.5860 C   0  0  2  0  0  0  0  0  0  0  0  0
   37.0870   29.5340   37.8870 O   0  0  0  0  0  0  0  0  0  0  0  0
   42.1640   29.0320   37.1980 H   0  0  0  0  0  0  0  0  0  0  0  0
   38.9300   31.5560   38.3030 H   0  0  0  0  0  0  0  0  0  0  0  0
   40.6500   27.3090   36.8170 H   0  0  0  0  0  0  0  0  0  0  0  0
   36.0220   28.2860   36.7280 H   0  0  0  0  0  0  0  0  0  0  0  0
   43.0200   33.4200   38.6580 C   0  0  0  0  0  0  0  0  0  0  0  0
   41.8600   32.6530   38.7910 C   0  0  0  0  0  0  0  0  0  0  0  0
   41.6720   31.5870   37.9650 C   0  0  0  0  0  0  0  0  0  0  0  0
   42.6460   31.3300   37.0410 N   0  0  0  0  0  0  0  0  0  0  0  0
   43.7560   32.0670   36.9180 C   0  0  0  0  0  0  0  0  0  0  0  0
   43.9330   33.0920   37.7160 N   0  0  0  0  0  0  0  0  0  0  0  0
   43.1730   34.2760   39.3210 H   0  0  0  0  0  0  0  0  0  0  0  0
   44.5610   31.9210   36.2130 H   0  0  0  0  0  0  0  0  0  0  0  0
   40.9370   33.0480   39.7590 N   0  0  0  0  0  0  0  0  0  0  0  0
   40.1070   34.1970   39.5830 C   0  0  0  0  0  0  0  0  0  0  0  0
   39.0560   34.3830   40.6350 C   0  0  0  0  0  0  0  0  0  0  0  0
   38.4330   33.2040   41.0690 N   0  0  0  0  0  0  0  0  0  0  0  0
   39.2460   32.1070   41.2690 C   0  0  0  0  0  0  0  0  0  0  0  0
   40.7040   32.4080   40.9900 C   0  0  0  0  0  0  0  0  0  0  0  0
   39.6600   34.2720   38.5710 H   0  0  0  0  0  0  0  0  0  0  0  0
   40.7950   35.0880   39.6620 H   0  0  0  0  0  0  0  0  0  0  0  0
   38.2760   35.0680   40.2100 H   0  0  0  0  0  0  0  0  0  0  0  0
   39.4720   34.9300   41.5010 H   0  0  0  0  0  0  0  0  0  0  0  0
   37.7450   33.4270   41.7940 H   0  0  0  0  0  0  0  0  0  0  0  0
   39.2150   31.8040   42.3560 H   0  0  0  0  0  0  0  0  0  0  0  0
   38.8910   31.2160   40.7280 H   0  0  0  0  0  0  0  0  0  0  0  0
   41.0590   33.0810   41.8070 H   0  0  0  0  0  0  0  0  0  0  0  0
   41.3000   31.4830   41.0820 H   0  0  0  0  0  0  0  0  0  0  0  0
   36.2610   27.5560   38.7040 O   0  0  0  0  0  0  0  0  0  0  0  0
   36.2850   28.1970   41.1210 C   0  0  0  0  0  0  0  0  0  0  0  0
   36.4440   27.4450   39.9940 C   0  0  0  0  0  0  0  0  0  0  0  0
   36.9520   26.1550   40.2190 C   0  0  0  0  0  0  0  0  0  0  0  0
   37.1860   25.3300   39.5280 H   0  0  0  0  0  0  0  0  0  0  0  0
   37.2570   25.7160   41.5110 C   0  0  0  0  0  0  0  0  0  0  0  0
   37.6500   24.7500   41.7950 H   0  0  0  0  0  0  0  0  0  0  0  0
   37.0680   26.5360   42.5980 C   0  0  0  0  0  3  0  0  0  0  0  0
   36.5720   27.8060   42.4110 C   0  0  0  0  0  3  0  0  0  0  0  0
   34.7660   29.6980   40.1910 N   0  0  0  0  0  0  0  0  0  0  0  0
   35.8010   29.5390   40.9720 C   0  0  0  0  0  0  0  0  0  0  0  0
   35.8200   30.9150   41.2440 N   0  0  0  0  0  0  0  0  0  0  0  0
   34.3280   30.6200   40.0190 H   0  0  0  0  0  0  0  0  0  0  0  0
   35.3540   31.3760   42.0680 H   0  0  0  0  0  0  0  0  0  0  0  0
   36.2790   31.6780   40.7010 H   0  0  0  0  0  0  0  0  0  0  0  0
  1  2  1  0  0  0  0
  2 16  1  0  0  0  0
  2  3  2  0  0  0  0
  3 11  1  0  0  0  0
  4  9  1  0  0  0  0
  4  3  1  0  0  0  0
  5  4  2  0  0  0  0
  6  5  1  0  0  0  0
  6  1  2  0  0  0  0
  7  5  1  0  0  0  0
  7  8  1  0  0  0  0
  8 13  1  6  0  0  0
  8  9  1  0  0  0  0
  8 37  1  0  0  0  0
 10  1  1  0  0  0  0
 12  6  1  0  0  0  0
 14 15  1  0  0  0  0
 14 20  1  0  0  0  0
 15 22  1  0  0  0  0
 16 15  2  0  0  0  0
 17 16  1  0  0  0  0
 18 17  2  0  0  0  0
 18 19  1  0  0  0  0
 19 14  2  0  0  0  0
 21 18  1  0  0  0  0
 22 27  1  0  0  0  0
 23 29  1  0  0  0  0
 23 22  1  0  0  0  0
 23 24  1  0  0  0  0
 24 25  1  0  0  0  0
 24 31  1  0  0  0  0
 25 26  1  0  0  0  0
 25 32  1  0  0  0  0
 26 33  1  0  0  0  0
 27 36  1  0  0  0  0
 27 26  1  0  0  0  0
 27 35  1  0  0  0  0
 28 23  1  0  0  0  0
 30 24  1  0  0  0  0
 34 26  1  0  0  0  0
 37 39  1  0  0  0  0
 38 45  1  0  0  0  0
 39 40  1  0  0  0  0
 39 38  2  0  0  0  0
 40 42  2  0  0  0  0
 41 40  1  0  0  0  0
 42 43  1  0  0  0  0
 42 44  1  0  0  0  0
 45 44  2  0  0  0  0
 46 47  2  0  0  0  0
 47 38  1  0  0  0  0
 47 48  1  0  0  0  0
 48 50  1  0  0  0  0
 49 46  1  0  0  0  0
 51 48  1  0  0  0  0
M  END
>  <minimizedAffinity>
-6.95674324

$$$$

 OpenBabel03242523133D

 51 55  0  0  1  0  0  0  0  0999 V2000
   39.0290   26.6810   38.0780 C   0  0  0  0  0  0  0  0  0  0  0  0
   39.2200   26.7880   39.4710 C   0  0  0  0  0  0  0  0  0  0  0  0
   40.0290   27.8550   39.7810 C   0  0  0  0  0  0  0  0  0  0  0  0
   40.5940   28.7190   38.8920 C   0  0  0  0  0  0  0  0  0  0  0  0
   40.3540   28.5370   37.5330 C   0  0  0  0  0  0  0  0  0  0  0  0
   39.5620   27.5050   37.1240 C   0  0  0  0  0  0  0  0  0  0  0  0
   41.0600   29.5520   36.9100 O   0  0  0  0  0  0  0  0  0  0  0  0
   41.6590   30.4090   37.8740 C   0  0  2  0  0  0  0  0  0  0  0  0
   41.4070   29.8030   39.1550 O   0  0  0  0  0  0  0  0  0  0  0  0
   38.4270   25.9440   37.5030 H   0  0  0  0  0  0  0  0  0  0  0  0
   40.1840   27.9530   40.8100 H   0  0  0  0  0  0  0  0  0  0  0  0
   39.4510   27.4670   36.0740 H   0  0  0  0  0  0  0  0  0  0  0  0
   42.7690   30.3690   37.7910 H   0  0  0  0  0  0  0  0  0  0  0  0
   37.3010   24.5400   41.7730 C   0  0  0  0  0  0  0  0  0  0  0  0
   37.7630   25.7630   41.2810 C   0  0  0  0  0  0  0  0  0  0  0  0
   38.5960   25.7740   40.2050 C   0  0  0  0  0  0  0  0  0  0  0  0
   38.9370   24.5650   39.6640 N   0  0  0  0  0  0  0  0  0  0  0  0
   38.4920   23.3960   40.1380 C   0  0  0  0  0  0  0  0  0  0  0  0
   37.6880   23.3920   41.1750 N   0  0  0  0  0  0  0  0  0  0  0  0
   36.6300   24.5300   42.6370 H   0  0  0  0  0  0  0  0  0  0  0  0
   38.7200   22.4090   39.7620 H   0  0  0  0  0  0  0  0  0  0  0  0
   37.3570   26.9180   41.9500 N   0  0  0  0  0  0  0  0  0  0  0  0
   37.8860   27.2740   43.2280 C   0  0  0  0  0  0  0  0  0  0  0  0
   37.4740   28.6250   43.7280 C   0  0  0  0  0  0  0  0  0  0  0  0
   37.4260   29.6310   42.7530 N   0  0  0  0  0  0  0  0  0  0  0  0
   36.8830   29.2900   41.5310 C   0  0  0  0  0  0  0  0  0  0  0  0
   36.4100   27.8520   41.4890 C   0  0  0  0  0  0  0  0  0  0  0  0
   38.9860   27.1510   43.3030 H   0  0  0  0  0  0  0  0  0  0  0  0
   37.4610   26.5230   43.9560 H   0  0  0  0  0  0  0  0  0  0  0  0
   38.2080   28.9260   44.5210 H   0  0  0  0  0  0  0  0  0  0  0  0
   36.5020   28.5610   44.2510 H   0  0  0  0  0  0  0  0  0  0  0  0
   37.1220   30.5100   43.1820 H   0  0  0  0  0  0  0  0  0  0  0  0
   35.9550   29.9060   41.3420 H   0  0  0  0  0  0  0  0  0  0  0  0
   37.5500   29.5370   40.6900 H   0  0  0  0  0  0  0  0  0  0  0  0
   35.5070   27.7870   42.1430 H   0  0  0  0  0  0  0  0  0  0  0  0
   36.0620   27.6030   40.4710 H   0  0  0  0  0  0  0  0  0  0  0  0
   41.0600   31.6250   37.8050 O   0  0  0  0  0  0  0  0  0  0  0  0
   41.2990   33.9360   38.7330 C   0  0  0  0  0  0  0  0  0  0  0  0
   40.7760   32.6970   38.4970 C   0  0  0  0  0  0  0  0  0  0  0  0
   39.5720   32.4330   39.1710 C   0  0  0  0  0  0  0  0  0  0  0  0
   38.9210   31.5450   39.1840 H   0  0  0  0  0  0  0  0  0  0  0  0
   38.9890   33.3910   40.0060 C   0  0  0  0  0  0  0  0  0  0  0  0
   38.0710   33.2930   40.5690 H   0  0  0  0  0  0  0  0  0  0  0  0
   39.5790   34.6190   40.1920 C   0  0  0  0  0  3  0  0  0  0  0  0
   40.7600   34.9090   39.5460 C   0  0  0  0  0  3  0  0  0  0  0  0
   42.5730   34.2070   36.8020 N   0  0  0  0  0  0  0  0  0  0  0  0
   42.5450   34.2700   38.1070 C   0  0  0  0  0  0  0  0  0  0  0  0
   43.8850   34.6850   38.1250 N   0  0  0  0  0  0  0  0  0  0  0  0
   43.4150   34.4370   36.2460 H   0  0  0  0  0  0  0  0  0  0  0  0
   44.2070   35.6870   38.1520 H   0  0  0  0  0  0  0  0  0  0  0  0
   44.7460   34.0990   38.1180 H   0  0  0  0  0  0  0  0  0  0  0  0
  1  2  1  0  0  0  0
  2  3  2  0  0  0  0
  2 16  1  0  0  0  0
  3 11  1  0  0  0  0
  4  9  1  0  0  0  0
  4  3  1  0  0  0  0
  5  4  2  0  0  0  0
  6  5  1  0  0  0  0
  6  1  2  0  0  0  0
  7  5  1  0  0  0  0
  7  8  1  0  0  0  0
  8 13  1  6  0  0  0
  8  9  1  0  0  0  0
 10  1  1  0  0  0  0
 12  6  1  0  0  0  0
 14 20  1  0  0  0  0
 15 14  1  0  0  0  0
 15 22  1  0  0  0  0
 16 15  2  0  0  0  0
 17 18  2  0  0  0  0
 17 16  1  0  0  0  0
 18 19  1  0  0  0  0
 19 14  2  0  0  0  0
 21 18  1  0  0  0  0
 22 23  1  0  0  0  0
 23 28  1  0  0  0  0
 23 24  1  0  0  0  0
 23 29  1  0  0  0  0
 24 31  1  0  0  0  0
 24 30  1  0  0  0  0
 25 32  1  0  0  0  0
 25 24  1  0  0  0  0
 26 25  1  0  0  0  0
 27 26  1  0  0  0  0
 27 22  1  0  0  0  0
 27 35  1  0  0  0  0
 33 26  1  0  0  0  0
 34 26  1  0  0  0  0
 36 27  1  0  0  0  0
 37  8  1  0  0  0  0
 37 39  1  0  0  0  0
 38 45  1  0  0  0  0
 39 38  2  0  0  0  0
 39 40  1  0  0  0  0
 40 41  1  0  0  0  0
 40 42  2  0  0  0  0
 42 44  1  0  0  0  0
 42 43  1  0  0  0  0
 45 44  2  0  0  0  0
 46 47  2  0  0  0  0
 47 48  1  0  0  0  0
 47 38  1  0  0  0  0
 48 50  1  0  0  0  0
 49 46  1  0  0  0  0
 51 48  1  0  0  0  0
M  END
>  <minimizedAffinity>
-6.85854769

$$$$

 OpenBabel03242523133D

 51 55  0  0  1  0  0  0  0  0999 V2000
   36.9350   26.7530   42.0470 C   0  0  0  0  0  0  0  0  0  0  0  0
   37.1640   26.3870   40.7040 C   0  0  0  0  0  0  0  0  0  0  0  0
   37.1080   27.4820   39.8750 C   0  0  0  0  0  0  0  0  0  0  0  0
   36.8660   28.7660   40.2560 C   0  0  0  0  0  0  0  0  0  0  0  0
   36.6470   29.0370   41.6050 C   0  0  0  0  0  0  0  0  0  0  0  0
   36.6840   28.0160   42.5080 C   0  0  0  0  0  0  0  0  0  0  0  0
   36.4290   30.4030   41.6600 O   0  0  0  0  0  0  0  0  0  0  0  0
   36.5960   30.9890   40.3750 C   0  0  2  0  0  0  0  0  0  0  0  0
   36.8040   29.8950   39.4630 O   0  0  0  0  0  0  0  0  0  0  0  0
   36.9230   26.1170   42.9590 H   0  0  0  0  0  0  0  0  0  0  0  0
   37.2740   27.2330   38.8730 H   0  0  0  0  0  0  0  0  0  0  0  0
   36.5060   28.3400   43.4980 H   0  0  0  0  0  0  0  0  0  0  0  0
   35.6370   31.4320   40.0230 H   0  0  0  0  0  0  0  0  0  0  0  0
   38.1690   22.7830   40.5290 C   0  0  0  0  0  0  0  0  0  0  0  0
   38.3110   24.1280   40.8770 C   0  0  0  0  0  0  0  0  0  0  0  0
   37.3410   25.0120   40.5160 C   0  0  0  0  0  0  0  0  0  0  0  0
   36.2710   24.5210   39.8230 N   0  0  0  0  0  0  0  0  0  0  0  0
   36.1380   23.2310   39.4910 C   0  0  0  0  0  0  0  0  0  0  0  0
   37.0750   22.3830   39.8420 N   0  0  0  0  0  0  0  0  0  0  0  0
   38.9470   22.0700   40.8190 H   0  0  0  0  0  0  0  0  0  0  0  0
   35.3240   22.7770   38.9470 H   0  0  0  0  0  0  0  0  0  0  0  0
   39.4690   24.4950   41.5610 N   0  0  0  0  0  0  0  0  0  0  0  0
   40.5930   25.0630   40.8880 C   0  0  0  0  0  0  0  0  0  0  0  0
   41.6850   25.5570   41.7870 C   0  0  0  0  0  0  0  0  0  0  0  0
   41.2500   26.1960   42.9570 N   0  0  0  0  0  0  0  0  0  0  0  0
   40.1840   25.6230   43.6210 C   0  0  0  0  0  0  0  0  0  0  0  0
   39.6920   24.3610   42.9440 C   0  0  0  0  0  0  0  0  0  0  0  0
   40.3200   25.8410   40.1460 H   0  0  0  0  0  0  0  0  0  0  0  0
   41.0410   24.2260   40.2760 H   0  0  0  0  0  0  0  0  0  0  0  0
   42.3090   26.2750   41.1940 H   0  0  0  0  0  0  0  0  0  0  0  0
   42.3740   24.7300   42.0440 H   0  0  0  0  0  0  0  0  0  0  0  0
   42.0600   26.4830   43.5120 H   0  0  0  0  0  0  0  0  0  0  0  0
   40.5120   25.2920   44.6490 H   0  0  0  0  0  0  0  0  0  0  0  0
   39.3720   26.3410   43.8110 H   0  0  0  0  0  0  0  0  0  0  0  0
   40.4760   23.5810   43.0990 H   0  0  0  0  0  0  0  0  0  0  0  0
   38.7910   23.9870   43.4620 H   0  0  0  0  0  0  0  0  0  0  0  0
   37.6930   31.7900   40.4040 O   0  0  0  0  0  0  0  0  0  0  0  0
   39.7870   31.8410   39.0380 C   0  0  0  0  0  0  0  0  0  0  0  0
   38.9700   31.8320   40.1310 C   0  0  0  0  0  0  0  0  0  0  0  0
   39.6430   31.8780   41.3640 C   0  0  0  0  0  0  0  0  0  0  0  0
   39.2720   31.8830   42.4000 H   0  0  0  0  0  0  0  0  0  0  0  0
   41.0390   31.9310   41.4200 C   0  0  0  0  0  0  0  0  0  0  0  0
   41.6550   31.9690   42.3080 H   0  0  0  0  0  0  0  0  0  0  0  0
   41.7930   31.9380   40.2700 C   0  0  0  0  0  3  0  0  0  0  0  0
   41.1640   31.8930   39.0470 C   0  0  0  0  0  3  0  0  0  0  0  0
   39.8400   32.3080   36.7570 N   0  0  0  0  0  0  0  0  0  0  0  0
   39.1770   31.7630   37.7420 C   0  0  0  0  0  0  0  0  0  0  0  0
   38.1640   31.3680   36.8560 N   0  0  0  0  0  0  0  0  0  0  0  0
   39.5000   32.3010   35.7790 H   0  0  0  0  0  0  0  0  0  0  0  0
   38.1040   30.4290   36.3850 H   0  0  0  0  0  0  0  0  0  0  0  0
   37.3370   31.9140   36.5310 H   0  0  0  0  0  0  0  0  0  0  0  0
  1  6  1  0  0  0  0
  1 10  1  0  0  0  0
  2  1  2  0  0  0  0
  3  4  2  0  0  0  0
  3  2  1  0  0  0  0
  4  5  1  0  0  0  0
  5  7  1  0  0  0  0
  5  6  2  0  0  0  0
  6 12  1  0  0  0  0
  8 13  1  6  0  0  0
  8 37  1  0  0  0  0
  8  7  1  0  0  0  0
  9  4  1  0  0  0  0
  9  8  1  0  0  0  0
 11  3  1  0  0  0  0
 14 20  1  0  0  0  0
 14 15  1  0  0  0  0
 15 22  1  0  0  0  0
 16  2  1  0  0  0  0
 16 15  2  0  0  0  0
 17 16  1  0  0  0  0
 18 17  2  0  0  0  0
 18 19  1  0  0  0  0
 19 14  2  0  0  0  0
 21 18  1  0  0  0  0
 22 27  1  0  0  0  0
 23 22  1  0  0  0  0
 23 24  1  0  0  0  0
 24 31  1  0  0  0  0
 24 25  1  0  0  0  0
 25 32  1  0  0  0  0
 25 26  1  0  0  0  0
 26 34  1  0  0  0  0
 26 33  1  0  0  0  0
 27 35  1  0  0  0  0
 27 36  1  0  0  0  0
 27 26  1  0  0  0  0
 28 23  1  0  0  0  0
 29 23  1  0  0  0  0
 30 24  1  0  0  0  0
 38 45  2  0  0  0  0
 38 39  1  0  0  0  0
 39 37  1  0  0  0  0
 39 40  2  0  0  0  0
 40 42  1  0  0  0  0
 40 41  1  0  0  0  0
 42 43  1  0  0  0  0
 44 42  2  0  0  0  0
 45 44  1  0  0  0  0
 46 47  2  0  0  0  0
 47 38  1  0  0  0  0
 48 47  1  0  0  0  0
 49 46  1  0  0  0  0
 50 48  1  0  0  0  0
 51 48  1  0  0  0  0
M  END
>  <minimizedAffinity>
-6.76344824

$$$$

 OpenBabel03242523133D

 51 55  0  0  1  0  0  0  0  0999 V2000
   38.2370   28.6140   42.7400 C   0  0  0  0  0  0  0  0  0  0  0  0
   39.0870   28.0080   41.7910 C   0  0  0  0  0  0  0  0  0  0  0  0
   38.9340   28.5790   40.5510 C   0  0  0  0  0  0  0  0  0  0  0  0
   38.0850   29.5950   40.2340 C   0  0  0  0  0  0  0  0  0  0  0  0
   37.2780   30.1330   41.2330 C   0  0  0  0  0  0  0  0  0  0  0  0
   37.3580   29.6340   42.5000 C   0  0  0  0  0  0  0  0  0  0  0  0
   36.5420   31.1210   40.6010 O   0  0  0  0  0  0  0  0  0  0  0  0
   36.9500   31.2570   39.2450 C   0  0  2  0  0  0  0  0  0  0  0  0
   37.9000   30.2030   39.0070 O   0  0  0  0  0  0  0  0  0  0  0  0
   38.1230   28.3980   43.8240 H   0  0  0  0  0  0  0  0  0  0  0  0
   39.5560   28.1440   39.8320 H   0  0  0  0  0  0  0  0  0  0  0  0
   36.7010   30.1190   43.1720 H   0  0  0  0  0  0  0  0  0  0  0  0
   36.1110   30.9980   38.5610 H   0  0  0  0  0  0  0  0  0  0  0  0
   40.7310   24.8060   42.8300 C   0  0  0  0  0  0  0  0  0  0  0  0
   39.7910   25.5970   42.1660 C   0  0  0  0  0  0  0  0  0  0  0  0
   39.8430   26.9490   42.3060 C   0  0  0  0  0  0  0  0  0  0  0  0
   40.8290   27.4590   43.1040 N   0  0  0  0  0  0  0  0  0  0  0  0
   41.7290   26.6980   43.7390 C   0  0  0  0  0  0  0  0  0  0  0  0
   41.6740   25.3950   43.5990 N   0  0  0  0  0  0  0  0  0  0  0  0
   40.6910   23.7190   42.7170 H   0  0  0  0  0  0  0  0  0  0  0  0
   42.5290   27.0330   44.3810 H   0  0  0  0  0  0  0  0  0  0  0  0
   38.8220   24.9400   41.4070 N   0  0  0  0  0  0  0  0  0  0  0  0
   37.5750   24.5310   41.9690 C   0  0  0  0  0  0  0  0  0  0  0  0
   36.5830   23.9940   40.9830 C   0  0  0  0  0  0  0  0  0  0  0  0
   36.5400   24.6700   39.7550 N   0  0  0  0  0  0  0  0  0  0  0  0
   37.7500   25.0330   39.2000 C   0  0  0  0  0  0  0  0  0  0  0  0
   38.9280   24.5970   40.0460 C   0  0  0  0  0  0  0  0  0  0  0  0
   37.1040   25.3010   42.6130 H   0  0  0  0  0  0  0  0  0  0  0  0
   37.8180   23.6790   42.6690 H   0  0  0  0  0  0  0  0  0  0  0  0
   35.5700   24.0510   41.4620 H   0  0  0  0  0  0  0  0  0  0  0  0
   36.7550   22.9150   40.8130 H   0  0  0  0  0  0  0  0  0  0  0  0
   35.8490   24.2260   39.1440 H   0  0  0  0  0  0  0  0  0  0  0  0
   37.8900   24.5030   38.2130 H   0  0  0  0  0  0  0  0  0  0  0  0
   37.7910   26.1030   38.9440 H   0  0  0  0  0  0  0  0  0  0  0  0
   38.9910   23.4850   39.9690 H   0  0  0  0  0  0  0  0  0  0  0  0
   39.8660   24.9810   39.6060 H   0  0  0  0  0  0  0  0  0  0  0  0
   37.5450   32.4680   39.0910 O   0  0  0  0  0  0  0  0  0  0  0  0
   39.9310   33.1390   38.7570 C   0  0  0  0  0  0  0  0  0  0  0  0
   38.6660   33.1170   39.2670 C   0  0  0  0  0  0  0  0  0  0  0  0
   38.4330   34.0480   40.2930 C   0  0  0  0  0  0  0  0  0  0  0  0
   37.5350   34.2690   40.8910 H   0  0  0  0  0  0  0  0  0  0  0  0
   39.4450   34.9110   40.7260 C   0  0  0  0  0  0  0  0  0  0  0  0
   39.3750   35.6600   41.5030 H   0  0  0  0  0  0  0  0  0  0  0  0
   40.6970   34.8700   40.1600 C   0  0  0  0  0  3  0  0  0  0  0  0
   40.9570   33.9690   39.1530 C   0  0  0  0  0  3  0  0  0  0  0  0
   39.4200   32.1160   36.7280 N   0  0  0  0  0  0  0  0  0  0  0  0
   40.2580   32.1950   37.7280 C   0  0  0  0  0  0  0  0  0  0  0  0
   41.0740   31.2200   37.1350 N   0  0  0  0  0  0  0  0  0  0  0  0
   39.5620   31.4770   35.9260 H   0  0  0  0  0  0  0  0  0  0  0  0
   41.9010   31.4190   36.5150 H   0  0  0  0  0  0  0  0  0  0  0  0
   41.0020   30.1830   37.2070 H   0  0  0  0  0  0  0  0  0  0  0  0
  1 10  1  0  0  0  0
  2 16  1  0  0  0  0
  2  1  2  0  0  0  0
  3  2  1  0  0  0  0
  4  3  2  0  0  0  0
  4  5  1  0  0  0  0
  5  6  2  0  0  0  0
  6  1  1  0  0  0  0
  6 12  1  0  0  0  0
  7  5  1  0  0  0  0
  8 13  1  6  0  0  0
  8  7  1  0  0  0  0
  9  8  1  0  0  0  0
  9  4  1  0  0  0  0
 11  3  1  0  0  0  0
 14 19  1  0  0  0  0
 15 16  1  0  0  0  0
 15 14  2  0  0  0  0
 16 17  2  0  0  0  0
 17 18  1  0  0  0  0
 18 21  1  0  0  0  0
 19 18  2  0  0  0  0
 20 14  1  0  0  0  0
 22 23  1  0  0  0  0
 22 15  1  0  0  0  0
 23 28  1  0  0  0  0
 23 29  1  0  0  0  0
 24 30  1  0  0  0  0
 24 23  1  0  0  0  0
 25 24  1  0  0  0  0
 26 25  1  0  0  0  0
 26 27  1  0  0  0  0
 27 22  1  0  0  0  0
 31 24  1  0  0  0  0
 32 25  1  0  0  0  0
 33 26  1  0  0  0  0
 34 26  1  0  0  0  0
 35 27  1  0  0  0  0
 36 27  1  0  0  0  0
 37  8  1  0  0  0  0
 37 39  1  0  0  0  0
 38 45  2  0  0  0  0
 38 39  1  0  0  0  0
 39 40  2  0  0  0  0
 40 42  1  0  0  0  0
 40 41  1  0  0  0  0
 42 43  1  0  0  0  0
 44 42  2  0  0  0  0
 45 44  1  0  0  0  0
 46 47  2  0  0  0  0
 47 38  1  0  0  0  0
 48 51  1  0  0  0  0
 48 47  1  0  0  0  0
 49 46  1  0  0  0  0
 50 48  1  0  0  0  0
M  END
>  <minimizedAffinity>
-6.74943876

$$$$

 OpenBabel03242523133D

 51 55  0  0  1  0  0  0  0  0999 V2000
   35.9000   25.9960   38.4570 C   0  0  0  0  0  0  0  0  0  0  0  0
   36.5380   27.1940   38.8410 C   0  0  0  0  0  0  0  0  0  0  0  0
   36.0010   28.2750   38.1850 C   0  0  0  0  0  0  0  0  0  0  0  0
   34.9880   28.2410   37.2760 C   0  0  0  0  0  0  0  0  0  0  0  0
   34.4160   27.0130   36.9530 C   0  0  0  0  0  0  0  0  0  0  0  0
   34.8800   25.8790   37.5530 C   0  0  0  0  0  0  0  0  0  0  0  0
   33.4410   27.3110   36.0160 O   0  0  0  0  0  0  0  0  0  0  0  0
   33.3470   28.7180   35.8240 C   0  0  2  0  0  0  0  0  0  0  0  0
   34.4140   29.2970   36.5960 O   0  0  0  0  0  0  0  0  0  0  0  0
   36.0830   24.9560   38.8040 H   0  0  0  0  0  0  0  0  0  0  0  0
   36.4600   29.1740   38.4550 H   0  0  0  0  0  0  0  0  0  0  0  0
   34.3720   25.0100   37.2310 H   0  0  0  0  0  0  0  0  0  0  0  0
   33.6180   28.9850   34.7780 H   0  0  0  0  0  0  0  0  0  0  0  0
   39.2610   27.3020   41.4110 C   0  0  0  0  0  0  0  0  0  0  0  0
   38.2340   27.8260   40.6230 C   0  0  0  0  0  0  0  0  0  0  0  0
   37.5870   27.0080   39.7480 C   0  0  0  0  0  0  0  0  0  0  0  0
   37.9910   25.7030   39.6930 N   0  0  0  0  0  0  0  0  0  0  0  0
   38.9750   25.2060   40.4500 C   0  0  0  0  0  0  0  0  0  0  0  0
   39.5950   25.9980   41.2930 N   0  0  0  0  0  0  0  0  0  0  0  0
   39.7810   27.9580   42.1160 H   0  0  0  0  0  0  0  0  0  0  0  0
   39.3440   24.1910   40.4580 H   0  0  0  0  0  0  0  0  0  0  0  0
   37.9460   29.1830   40.7630 N   0  0  0  0  0  0  0  0  0  0  0  0
   38.5900   30.1760   39.9640 C   0  0  0  0  0  0  0  0  0  0  0  0
   38.0450   31.5630   40.1200 C   0  0  0  0  0  0  0  0  0  0  0  0
   36.6510   31.6450   40.2390 N   0  0  0  0  0  0  0  0  0  0  0  0
   36.0370   30.7030   41.0400 C   0  0  0  0  0  0  0  0  0  0  0  0
   37.0280   29.7450   41.6690 C   0  0  0  0  0  0  0  0  0  0  0  0
   38.6610   29.9050   38.8910 H   0  0  0  0  0  0  0  0  0  0  0  0
   39.6600   30.2130   40.3240 H   0  0  0  0  0  0  0  0  0  0  0  0
   38.3660   32.1510   39.2200 H   0  0  0  0  0  0  0  0  0  0  0  0
   38.5270   32.0710   40.9760 H   0  0  0  0  0  0  0  0  0  0  0  0
   36.3740   32.6240   40.3560 H   0  0  0  0  0  0  0  0  0  0  0  0
   35.5340   31.2140   41.9120 H   0  0  0  0  0  0  0  0  0  0  0  0
   35.2200   30.1790   40.5220 H   0  0  0  0  0  0  0  0  0  0  0  0
   37.6000   30.3250   42.4330 H   0  0  0  0  0  0  0  0  0  0  0  0
   36.4860   28.9630   42.2300 H   0  0  0  0  0  0  0  0  0  0  0  0
   32.1450   29.1390   36.2960 O   0  0  0  0  0  0  0  0  0  0  0  0
   30.3000   30.6330   37.0830 C   0  0  0  0  0  0  0  0  0  0  0  0
   31.3220   30.1540   36.3160 C   0  0  0  0  0  0  0  0  0  0  0  0
   31.6310   30.9440   35.1950 C   0  0  0  0  0  0  0  0  0  0  0  0
   32.3870   30.8260   34.4030 H   0  0  0  0  0  0  0  0  0  0  0  0
   30.9230   32.1190   34.9260 C   0  0  0  0  0  0  0  0  0  0  0  0
   31.0770   32.7970   34.0980 H   0  0  0  0  0  0  0  0  0  0  0  0
   29.9050   32.5350   35.7500 C   0  0  0  0  0  3  0  0  0  0  0  0
   29.5770   31.7840   36.8550 C   0  0  0  0  0  3  0  0  0  0  0  0
   30.7630   29.8000   39.2080 N   0  0  0  0  0  0  0  0  0  0  0  0
   29.9020   29.8660   38.2270 C   0  0  0  0  0  0  0  0  0  0  0  0
   28.9980   29.0790   38.9550 N   0  0  0  0  0  0  0  0  0  0  0  0
   30.5770   29.2840   40.0860 H   0  0  0  0  0  0  0  0  0  0  0  0
   28.2260   29.4520   39.5670 H   0  0  0  0  0  0  0  0  0  0  0  0
   28.9390   28.0390   39.0090 H   0  0  0  0  0  0  0  0  0  0  0  0
  1 10  1  0  0  0  0
  1  2  1  0  0  0  0
  2 16  1  0  0  0  0
  3 11  1  0  0  0  0
  3  2  2  0  0  0  0
  4  3  1  0  0  0  0
  5  4  2  0  0  0  0
  5  6  1  0  0  0  0
  6  1  2  0  0  0  0
  7  5  1  0  0  0  0
  8 13  1  6  0  0  0
  8  7  1  0  0  0  0
  8 37  1  0  0  0  0
  8  9  1  0  0  0  0
  9  4  1  0  0  0  0
 12  6  1  0  0  0  0
 14 20  1  0  0  0  0
 15 22  1  0  0  0  0
 15 14  2  0  0  0  0
 16 15  1  0  0  0  0
 17 16  2  0  0  0  0
 17 18  1  0  0  0  0
 18 21  1  0  0  0  0
 18 19  2  0  0  0  0
 19 14  1  0  0  0  0
 22 27  1  0  0  0  0
 23 24  1  0  0  0  0
 23 29  1  0  0  0  0
 23 22  1  0  0  0  0
 24 25  1  0  0  0  0
 24 31  1  0  0  0  0
 25 32  1  0  0  0  0
 25 26  1  0  0  0  0
 26 27  1  0  0  0  0
 26 33  1  0  0  0  0
 27 36  1  0  0  0  0
 27 35  1  0  0  0  0
 28 23  1  0  0  0  0
 30 24  1  0  0  0  0
 34 26  1  0  0  0  0
 37 39  1  0  0  0  0
 38 47  1  0  0  0  0
 39 38  2  0  0  0  0
 40 39  1  0  0  0  0
 41 40  1  0  0  0  0
 42 40  2  0  0  0  0
 42 44  1  0  0  0  0
 43 42  1  0  0  0  0
 44 45  2  0  0  0  0
 45 38  1  0  0  0  0
 46 49  1  0  0  0  0
 47 48  1  0  0  0  0
 47 46  2  0  0  0  0
 48 51  1  0  0  0  0
 48 50  1  0  0  0  0
M  END
>  <minimizedAffinity>
-6.7283659

$$$$

 OpenBabel03242523133D

 51 55  0  0  1  0  0  0  0  0999 V2000
   38.9140   24.3200   41.6010 C   0  0  0  0  0  0  0  0  0  0  0  0
   37.7480   24.5180   40.8330 C   0  0  0  0  0  0  0  0  0  0  0  0
   37.0670   25.6390   41.2430 C   0  0  0  0  0  0  0  0  0  0  0  0
   37.4330   26.4760   42.2530 C   0  0  0  0  0  0  0  0  0  0  0  0
   38.6000   26.2020   42.9630 C   0  0  0  0  0  0  0  0  0  0  0  0
   39.3470   25.1110   42.6300 C   0  0  0  0  0  0  0  0  0  0  0  0
   38.6850   27.2130   43.9060 O   0  0  0  0  0  0  0  0  0  0  0  0
   37.6330   28.1530   43.7280 C   0  0  2  0  0  0  0  0  0  0  0  0
   36.7860   27.6120   42.6980 O   0  0  0  0  0  0  0  0  0  0  0  0
   39.6840   23.5230   41.5210 H   0  0  0  0  0  0  0  0  0  0  0  0
   36.1980   25.8040   40.6870 H   0  0  0  0  0  0  0  0  0  0  0  0
   40.2080   25.0060   43.2340 H   0  0  0  0  0  0  0  0  0  0  0  0
   36.9680   28.1620   44.6210 H   0  0  0  0  0  0  0  0  0  0  0  0
   36.9680   22.3150   37.9060 C   0  0  0  0  0  0  0  0  0  0  0  0
   37.0580   23.5230   38.6010 C   0  0  0  0  0  0  0  0  0  0  0  0
   37.5250   23.5190   39.8790 C   0  0  0  0  0  0  0  0  0  0  0  0
   37.8810   22.3120   40.4130 N   0  0  0  0  0  0  0  0  0  0  0  0
   37.7930   21.1570   39.7440 C   0  0  0  0  0  0  0  0  0  0  0  0
   37.3440   21.1660   38.5110 N   0  0  0  0  0  0  0  0  0  0  0  0
   36.5940   22.3160   36.8770 H   0  0  0  0  0  0  0  0  0  0  0  0
   38.0560   20.1730   40.1020 H   0  0  0  0  0  0  0  0  0  0  0  0
   36.6320   24.6760   37.9410 N   0  0  0  0  0  0  0  0  0  0  0  0
   35.2530   25.0410   37.8780 C   0  0  0  0  0  0  0  0  0  0  0  0
   34.9830   26.3900   37.2830 C   0  0  0  0  0  0  0  0  0  0  0  0
   35.8940   27.3920   37.6440 N   0  0  0  0  0  0  0  0  0  0  0  0
   37.2290   27.0420   37.6720 C   0  0  0  0  0  0  0  0  0  0  0  0
   37.4560   25.5990   37.2720 C   0  0  0  0  0  0  0  0  0  0  0  0
   34.7190   24.9290   38.8430 H   0  0  0  0  0  0  0  0  0  0  0  0
   34.7670   24.2880   37.1900 H   0  0  0  0  0  0  0  0  0  0  0  0
   33.9560   26.7000   37.6100 H   0  0  0  0  0  0  0  0  0  0  0  0
   34.9200   26.3180   36.1810 H   0  0  0  0  0  0  0  0  0  0  0  0
   35.6400   28.2690   37.1810 H   0  0  0  0  0  0  0  0  0  0  0  0
   37.7960   27.6480   36.9060 H   0  0  0  0  0  0  0  0  0  0  0  0
   37.7100   27.2920   38.6290 H   0  0  0  0  0  0  0  0  0  0  0  0
   37.2460   25.5270   36.1770 H   0  0  0  0  0  0  0  0  0  0  0  0
   38.5250   25.3430   37.3890 H   0  0  0  0  0  0  0  0  0  0  0  0
   38.1690   29.3320   43.3240 O   0  0  0  0  0  0  0  0  0  0  0  0
   38.3540   30.7280   41.2560 C   0  0  0  0  0  0  0  0  0  0  0  0
   38.7240   29.9400   42.3080 C   0  0  0  0  0  0  0  0  0  0  0  0
   40.0990   29.6620   42.3750 C   0  0  0  0  0  0  0  0  0  0  0  0
   40.6920   29.0700   43.0890 H   0  0  0  0  0  0  0  0  0  0  0  0
   40.9840   30.1730   41.4200 C   0  0  0  0  0  0  0  0  0  0  0  0
   42.0540   30.0220   41.3770 H   0  0  0  0  0  0  0  0  0  0  0  0
   40.5330   30.9620   40.3890 C   0  0  0  0  0  3  0  0  0  0  0  0
   39.1910   31.2520   40.2940 C   0  0  0  0  0  3  0  0  0  0  0  0
   36.6780   32.1770   40.5400 N   0  0  0  0  0  0  0  0  0  0  0  0
   36.9610   31.0300   41.0990 C   0  0  0  0  0  0  0  0  0  0  0  0
   35.5950   30.7350   41.2120 N   0  0  0  0  0  0  0  0  0  0  0  0
   35.7070   32.4920   40.3670 H   0  0  0  0  0  0  0  0  0  0  0  0
   35.0360   30.1800   40.5140 H   0  0  0  0  0  0  0  0  0  0  0  0
   34.9340   31.0030   41.9720 H   0  0  0  0  0  0  0  0  0  0  0  0
  1  6  1  0  0  0  0
  2  3  1  0  0  0  0
  2  1  2  0  0  0  0
  3  4  2  0  0  0  0
  4  9  1  0  0  0  0
  4  5  1  0  0  0  0
  5  7  1  0  0  0  0
  6  5  2  0  0  0  0
  6 12  1  0  0  0  0
  8  7  1  0  0  0  0
  8 13  1  1  0  0  0
  9  8  1  0  0  0  0
 10  1  1  0  0  0  0
 11  3  1  0  0  0  0
 14 19  2  0  0  0  0
 14 15  1  0  0  0  0
 15 16  2  0  0  0  0
 16 17  1  0  0  0  0
 16  2  1  0  0  0  0
 18 21  1  0  0  0  0
 18 17  2  0  0  0  0
 19 18  1  0  0  0  0
 20 14  1  0  0  0  0
 22 15  1  0  0  0  0
 23 22  1  0  0  0  0
 23 28  1  0  0  0  0
 24 30  1  0  0  0  0
 24 25  1  0  0  0  0
 24 23  1  0  0  0  0
 25 26  1  0  0  0  0
 26 34  1  0  0  0  0
 27 36  1  0  0  0  0
 27 26  1  0  0  0  0
 27 22  1  0  0  0  0
 29 23  1  0  0  0  0
 31 24  1  0  0  0  0
 32 25  1  0  0  0  0
 33 26  1  0  0  0  0
 35 27  1  0  0  0  0
 37  8  1  0  0  0  0
 38 39  1  0  0  0  0
 39 40  2  0  0  0  0
 39 37  1  0  0  0  0
 40 41  1  0  0  0  0
 42 40  1  0  0  0  0
 43 42  1  0  0  0  0
 44 42  2  0  0  0  0
 45 44  1  0  0  0  0
 45 38  2  0  0  0  0
 46 47  2  0  0  0  0
 47 48  1  0  0  0  0
 47 38  1  0  0  0  0
 48 51  1  0  0  0  0
 49 46  1  0  0  0  0
 50 48  1  0  0  0  0
M  END
>  <minimizedAffinity>
-6.62829113

$$$$

 OpenBabel03242523133D

 51 55  0  0  1  0  0  0  0  0999 V2000
   36.1910   27.0700   39.3720 C   0  0  0  0  0  0  0  0  0  0  0  0
   36.5920   28.4090   39.5620 C   0  0  0  0  0  0  0  0  0  0  0  0
   36.1240   29.2160   38.5530 C   0  0  0  0  0  0  0  0  0  0  0  0
   35.3700   28.8180   37.4910 C   0  0  0  0  0  0  0  0  0  0  0  0
   35.0220   27.4740   37.3800 C   0  0  0  0  0  0  0  0  0  0  0  0
   35.4390   26.5930   38.3340 C   0  0  0  0  0  0  0  0  0  0  0  0
   34.2780   27.3960   36.2150 O   0  0  0  0  0  0  0  0  0  0  0  0
   34.0910   28.6900   35.6540 C   0  0  2  0  0  0  0  0  0  0  0  0
   34.8740   29.5890   36.4590 O   0  0  0  0  0  0  0  0  0  0  0  0
   36.3890   26.1780   40.0050 H   0  0  0  0  0  0  0  0  0  0  0  0
   36.4100   30.2140   38.6740 H   0  0  0  0  0  0  0  0  0  0  0  0
   35.1140   25.6050   38.1470 H   0  0  0  0  0  0  0  0  0  0  0  0
   34.5790   28.7530   34.6560 H   0  0  0  0  0  0  0  0  0  0  0  0
   38.8930   29.4820   42.3170 C   0  0  0  0  0  0  0  0  0  0  0  0
   38.2140   29.6110   41.1030 C   0  0  0  0  0  0  0  0  0  0  0  0
   37.4040   28.6010   40.6860 C   0  0  0  0  0  0  0  0  0  0  0  0
   37.3040   27.5030   41.4940 N   0  0  0  0  0  0  0  0  0  0  0  0
   37.9560   27.3830   42.6560 C   0  0  0  0  0  0  0  0  0  0  0  0
   38.7350   28.3600   43.0540 N   0  0  0  0  0  0  0  0  0  0  0  0
   39.5440   30.2940   42.6540 H   0  0  0  0  0  0  0  0  0  0  0  0
   37.9240   26.5480   43.3400 H   0  0  0  0  0  0  0  0  0  0  0  0
   38.4320   30.7760   40.3670 N   0  0  0  0  0  0  0  0  0  0  0  0
   39.4020   30.8350   39.3200 C   0  0  0  0  0  0  0  0  0  0  0  0
   39.3910   32.1010   38.5190 C   0  0  0  0  0  0  0  0  0  0  0  0
   38.1180   32.6180   38.2410 N   0  0  0  0  0  0  0  0  0  0  0  0
   37.1950   32.5880   39.2670 C   0  0  0  0  0  0  0  0  0  0  0  0
   37.7650   32.0020   40.5410 C   0  0  0  0  0  0  0  0  0  0  0  0
   39.3870   29.9510   38.6500 H   0  0  0  0  0  0  0  0  0  0  0  0
   40.4080   30.7920   39.8320 H   0  0  0  0  0  0  0  0  0  0  0  0
   39.9140   31.8880   37.5500 H   0  0  0  0  0  0  0  0  0  0  0  0
   40.0110   32.8730   39.0130 H   0  0  0  0  0  0  0  0  0  0  0  0
   38.2100   33.4860   37.7060 H   0  0  0  0  0  0  0  0  0  0  0  0
   36.8970   33.6430   39.5400 H   0  0  0  0  0  0  0  0  0  0  0  0
   36.2510   32.1060   38.9690 H   0  0  0  0  0  0  0  0  0  0  0  0
   38.4960   32.7450   40.9420 H   0  0  0  0  0  0  0  0  0  0  0  0
   36.9690   31.9230   41.3040 H   0  0  0  0  0  0  0  0  0  0  0  0
   32.7740   29.0120   35.7390 O   0  0  0  0  0  0  0  0  0  0  0  0
   31.0400   30.5800   36.6270 C   0  0  0  0  0  0  0  0  0  0  0  0
   31.9380   30.0160   35.7680 C   0  0  0  0  0  0  0  0  0  0  0  0
   32.0430   30.6620   34.5250 C   0  0  0  0  0  0  0  0  0  0  0  0
   32.6650   30.4520   33.6410 H   0  0  0  0  0  0  0  0  0  0  0  0
   31.2710   31.7910   34.2330 C   0  0  0  0  0  0  0  0  0  0  0  0
   31.2720   32.3610   33.3140 H   0  0  0  0  0  0  0  0  0  0  0  0
   30.3870   32.3000   35.1550 C   0  0  0  0  0  3  0  0  0  0  0  0
   30.2600   31.6890   36.3810 C   0  0  0  0  0  3  0  0  0  0  0  0
   31.9160   29.4470   38.4640 N   0  0  0  0  0  0  0  0  0  0  0  0
   30.8510   29.9590   37.9060 C   0  0  0  0  0  0  0  0  0  0  0  0
   30.0750   29.5720   39.0080 N   0  0  0  0  0  0  0  0  0  0  0  0
   31.8980   28.9850   39.3900 H   0  0  0  0  0  0  0  0  0  0  0  0
   29.8510   30.1830   39.8350 H   0  0  0  0  0  0  0  0  0  0  0  0
   29.6090   28.6560   39.1840 H   0  0  0  0  0  0  0  0  0  0  0  0
  1  2  1  0  0  0  0
  1 10  1  0  0  0  0
  2 16  1  0  0  0  0
  3 11  1  0  0  0  0
  3  2  2  0  0  0  0
  4  3  1  0  0  0  0
  5  4  2  0  0  0  0
  5  6  1  0  0  0  0
  6  1  2  0  0  0  0
  7  5  1  0  0  0  0
  8 13  1  6  0  0  0
  8 37  1  0  0  0  0
  8  7  1  0  0  0  0
  8  9  1  0  0  0  0
  9  4  1  0  0  0  0
 12  6  1  0  0  0  0
 14 20  1  0  0  0  0
 14 19  1  0  0  0  0
 15 14  2  0  0  0  0
 16 15  1  0  0  0  0
 16 17  2  0  0  0  0
 17 18  1  0  0  0  0
 18 19  2  0  0  0  0
 18 21  1  0  0  0  0
 22 27  1  0  0  0  0
 22 15  1  0  0  0  0
 23 29  1  0  0  0  0
 23 22  1  0  0  0  0
 24 31  1  0  0  0  0
 24 23  1  0  0  0  0
 25 24  1  0  0  0  0
 25 26  1  0  0  0  0
 26 33  1  0  0  0  0
 26 27  1  0  0  0  0
 27 35  1  0  0  0  0
 27 36  1  0  0  0  0
 28 23  1  0  0  0  0
 30 24  1  0  0  0  0
 32 25  1  0  0  0  0
 34 26  1  0  0  0  0
 37 39  1  0  0  0  0
 38 47  1  0  0  0  0
 39 38  2  0  0  0  0
 40 39  1  0  0  0  0
 41 40  1  0  0  0  0
 42 40  2  0  0  0  0
 42 44  1  0  0  0  0
 43 42  1  0  0  0  0
 44 45  2  0  0  0  0
 45 38  1  0  0  0  0
 46 49  1  0  0  0  0
 47 46  2  0  0  0  0
 47 48  1  0  0  0  0
 48 51  1  0  0  0  0
 48 50  1  0  0  0  0
M  END
>  <minimizedAffinity>
-6.61515236

$$$$

 OpenBabel03242523133D

 51 55  0  0  1  0  0  0  0  0999 V2000
   39.0570   31.8780   37.4890 C   0  0  0  0  0  0  0  0  0  0  0  0
   40.0070   31.8540   38.5300 C   0  0  0  0  0  0  0  0  0  0  0  0
   39.4230   31.5220   39.7290 C   0  0  0  0  0  0  0  0  0  0  0  0
   38.1050   31.2450   39.9300 C   0  0  0  0  0  0  0  0  0  0  0  0
   37.2350   31.2950   38.8450 C   0  0  0  0  0  0  0  0  0  0  0  0
   37.7190   31.6150   37.6110 C   0  0  0  0  0  0  0  0  0  0  0  0
   35.9940   30.9780   39.3710 O   0  0  0  0  0  0  0  0  0  0  0  0
   36.1060   30.6480   40.7510 C   0  0  2  0  0  0  0  0  0  0  0  0
   37.4750   30.9030   41.1110 O   0  0  0  0  0  0  0  0  0  0  0  0
   39.1990   32.0960   36.4090 H   0  0  0  0  0  0  0  0  0  0  0  0
   40.1110   31.4990   40.5160 H   0  0  0  0  0  0  0  0  0  0  0  0
   36.9690   31.6210   36.8670 H   0  0  0  0  0  0  0  0  0  0  0  0
   35.5410   31.3800   41.3710 H   0  0  0  0  0  0  0  0  0  0  0  0
   43.5510   32.2110   37.3680 C   0  0  0  0  0  0  0  0  0  0  0  0
   42.3920   31.5170   37.7220 C   0  0  0  0  0  0  0  0  0  0  0  0
   41.2970   32.2180   38.1260 C   0  0  0  0  0  0  0  0  0  0  0  0
   41.4010   33.5800   38.1600 N   0  0  0  0  0  0  0  0  0  0  0  0
   42.5130   34.2410   37.8190 C   0  0  0  0  0  0  0  0  0  0  0  0
   43.5650   33.5620   37.4300 N   0  0  0  0  0  0  0  0  0  0  0  0
   44.4310   31.6500   37.0420 H   0  0  0  0  0  0  0  0  0  0  0  0
   42.6650   35.3110   37.8230 H   0  0  0  0  0  0  0  0  0  0  0  0
   42.4350   30.1250   37.6670 N   0  0  0  0  0  0  0  0  0  0  0  0
   42.8720   29.3400   38.7780 C   0  0  0  0  0  0  0  0  0  0  0  0
   42.6970   27.8610   38.6140 C   0  0  0  0  0  0  0  0  0  0  0  0
   41.5090   27.4680   37.9820 N   0  0  0  0  0  0  0  0  0  0  0  0
   41.1100   28.2100   36.8880 C   0  0  0  0  0  0  0  0  0  0  0  0
   42.0790   29.3280   36.5630 C   0  0  0  0  0  0  0  0  0  0  0  0
   42.4550   29.6750   39.7490 H   0  0  0  0  0  0  0  0  0  0  0  0
   43.9840   29.5210   38.8630 H   0  0  0  0  0  0  0  0  0  0  0  0
   42.7290   27.4050   39.6380 H   0  0  0  0  0  0  0  0  0  0  0  0
   43.5670   27.4280   38.0840 H   0  0  0  0  0  0  0  0  0  0  0  0
   41.4850   26.4480   37.9010 H   0  0  0  0  0  0  0  0  0  0  0  0
   41.1030   27.5560   35.9680 H   0  0  0  0  0  0  0  0  0  0  0  0
   40.0730   28.5670   36.9790 H   0  0  0  0  0  0  0  0  0  0  0  0
   43.0050   28.8500   36.1620 H   0  0  0  0  0  0  0  0  0  0  0  0
   41.6760   29.9420   35.7370 H   0  0  0  0  0  0  0  0  0  0  0  0
   35.8180   29.3300   40.9050 O   0  0  0  0  0  0  0  0  0  0  0  0
   37.0080   27.3780   41.9200 C   0  0  0  0  0  0  0  0  0  0  0  0
   36.3560   28.1410   40.9960 C   0  0  0  0  0  0  0  0  0  0  0  0
   36.1760   27.5220   39.7480 C   0  0  0  0  0  0  0  0  0  0  0  0
   35.6980   27.8720   38.8200 H   0  0  0  0  0  0  0  0  0  0  0  0
   36.6430   26.2250   39.5150 C   0  0  0  0  0  0  0  0  0  0  0  0
   36.5590   25.6580   38.5980 H   0  0  0  0  0  0  0  0  0  0  0  0
   37.2920   25.5190   40.5000 C   0  0  0  0  0  3  0  0  0  0  0  0
   37.4840   26.0980   41.7330 C   0  0  0  0  0  3  0  0  0  0  0  0
   38.2390   27.4250   43.8970 N   0  0  0  0  0  0  0  0  0  0  0  0
   37.2600   27.9520   43.2100 C   0  0  0  0  0  0  0  0  0  0  0  0
   37.0190   28.8720   44.2410 N   0  0  0  0  0  0  0  0  0  0  0  0
   38.5150   27.7660   44.8340 H   0  0  0  0  0  0  0  0  0  0  0  0
   37.4180   29.8450   44.2880 H   0  0  0  0  0  0  0  0  0  0  0  0
   36.4290   28.7540   45.0920 H   0  0  0  0  0  0  0  0  0  0  0  0
  1  6  2  0  0  0  0
  1  2  1  0  0  0  0
  2  3  2  0  0  0  0
  3  4  1  0  0  0  0
  3 11  1  0  0  0  0
  4  9  1  0  0  0  0
  5  7  1  0  0  0  0
  5  4  2  0  0  0  0
  6  5  1  0  0  0  0
  7  8  1  0  0  0  0
  8 37  1  0  0  0  0
  8  9  1  0  0  0  0
  8 13  1  1  0  0  0
 10  1  1  0  0  0  0
 12  6  1  0  0  0  0
 14 19  2  0  0  0  0
 14 15  1  0  0  0  0
 15 16  2  0  0  0  0
 16 17  1  0  0  0  0
 16  2  1  0  0  0  0
 18 21  1  0  0  0  0
 18 17  2  0  0  0  0
 19 18  1  0  0  0  0
 20 14  1  0  0  0  0
 22 15  1  0  0  0  0
 22 23  1  0  0  0  0
 23 29  1  0  0  0  0
 23 28  1  0  0  0  0
 24 23  1  0  0  0  0
 24 30  1  0  0  0  0
 25 24  1  0  0  0  0
 26 34  1  0  0  0  0
 26 25  1  0  0  0  0
 27 26  1  0  0  0  0
 27 22  1  0  0  0  0
 31 24  1  0  0  0  0
 32 25  1  0  0  0  0
 33 26  1  0  0  0  0
 35 27  1  0  0  0  0
 36 27  1  0  0  0  0
 37 39  1  0  0  0  0
 38 47  1  0  0  0  0
 39 38  2  0  0  0  0
 40 39  1  0  0  0  0
 41 40  1  0  0  0  0
 42 40  2  0  0  0  0
 42 44  1  0  0  0  0
 43 42  1  0  0  0  0
 44 45  2  0  0  0  0
 45 38  1  0  0  0  0
 46 49  1  0  0  0  0
 47 46  2  0  0  0  0
 47 48  1  0  0  0  0
 48 50  1  0  0  0  0
 48 51  1  0  0  0  0
M  END
>  <minimizedAffinity>
-6.49691391

$$$$
