REMARK  Name = 
REMARK  4 active torsions:
REMARK  status: ('A' for Active; 'I' for Inactive)
REMARK    1  A    between atoms: N_1  and  C_8
REMARK    2  A    between atoms: C_3  and  N_12
REMARK    3  A    between atoms: N_12  and  C_28
REMARK    4  A    between atoms: C_25  and  C_27
REMARK                            x       y       z     vdW  Elec       q    Type
REMARK                         _______ _______ _______ _____ _____    ______ ____
ROOT
ATOM      1  N   UNL     1      47.151  34.228  42.382  0.00  0.00    +0.000 N 
ATOM      2  C   UNL     1      47.992  35.049  41.534  0.00  0.00    +0.000 C 
ATOM      3  C   UNL     1      47.714  34.394  40.219  0.00  0.00    +0.000 C 
ATOM      4  C   UNL     1      47.905  32.933  40.563  0.00  0.00    +0.000 C 
ATOM      5  C   UNL     1      47.369  32.855  41.971  0.00  0.00    +0.000 C 
ATOM      6  H   UNL     1      47.709  36.089  41.518  0.00  0.00    +0.000 HD
ATOM      7  H   UNL     1      49.052  34.856  41.790  0.00  0.00    +0.000 HD
ATOM      8  H   UNL     1      46.683  34.591  39.845  0.00  0.00    +0.000 HD
ATOM      9  H   UNL     1      49.009  32.746  40.536  0.00  0.00    +0.000 HD
ATOM     10  H   UNL     1      47.352  32.313  39.846  0.00  0.00    +0.000 HD
ATOM     11  H   UNL     1      46.354  32.367  41.938  0.00  0.00    +0.000 HD
ATOM     12  H   UNL     1      48.074  32.317  42.638  0.00  0.00    +0.000 HD
ENDROOT
BRANCH   1  15
ATOM     13  C   UNL     1      44.585  35.943  44.471  0.00  0.00    +0.000 A 
ATOM     14  C   UNL     1      45.403  35.679  43.378  0.00  0.00    +0.000 A 
ATOM     15  C   UNL     1      46.275  34.603  43.414  0.00  0.00    +0.000 A 
ATOM     16  N   UNL     1      46.288  33.831  44.560  0.00  0.00    +0.000 NA
ATOM     17  C   UNL     1      45.480  34.109  45.617  0.00  0.00    +0.000 A 
ATOM     18  N   UNL     1      44.625  35.173  45.566  0.00  0.00    +0.000 NA
ATOM     19  H   UNL     1      43.914  36.789  44.414  0.00  0.00    +0.000 HD
ATOM     20  H   UNL     1      45.401  36.281  42.468  0.00  0.00    +0.000 HD
ATOM     21  H   UNL     1      45.565  33.446  46.467  0.00  0.00    +0.000 HD
ENDBRANCH   1  15
BRANCH   3  22
ATOM     22  N   UNL     1      48.665  34.743  39.205  0.00  0.00    +0.000 N 
ATOM     23  H   UNL     1      49.318  33.976  38.857  0.00  0.00    +0.000 HD
BRANCH  22  25
ATOM     24  C   UNL     1      49.779  36.938  39.019  0.00  0.00    +0.000 A 
ATOM     25  C   UNL     1      48.915  35.974  38.546  0.00  0.00    +0.000 A 
ATOM     26  C   UNL     1      48.323  36.319  37.350  0.00  0.00    +0.000 A 
ATOM     27  H   UNL     1      47.629  35.666  36.844  0.00  0.00    +0.000 HD
ATOM     28  C   UNL     1      48.544  37.489  36.673  0.00  0.00    +0.000 A 
ATOM     29  H   UNL     1      48.067  37.742  35.731  0.00  0.00    +0.000 HD
ATOM     30  C   UNL     1      49.412  38.412  37.187  0.00  0.00    +0.000 A 
ATOM     31  C   UNL     1      50.028  38.114  38.377  0.00  0.00    +0.000 A 
BRANCH  24  33
ATOM     32  N   UNL     1      50.792  37.728  41.030  0.00  0.00    +0.000 NA
ATOM     33  C   UNL     1      50.493  36.743  40.255  0.00  0.00    +0.000 C 
ATOM     34  N   UNL     1      51.086  35.757  41.074  0.00  0.00    +0.000 N 
ATOM     35  H   UNL     1      51.306  37.612  41.919  0.00  0.00    +0.000 HD
ATOM     36  H   UNL     1      50.673  35.291  41.910  0.00  0.00    +0.000 HD
ATOM     37  H   UNL     1      52.052  35.448  40.827  0.00  0.00    +0.000 HD
ENDBRANCH  24  33
ENDBRANCH  22  25
ENDBRANCH   3  22
TORSDOF 4
