
 OpenBabel03252500393D

 26 27  0  0  0  0  0  0  0  0999 V2000
   42.3540   35.1480   41.1580 C   0  0  0  0  0  0  0  0  0  0  0  0
   42.7200   34.9240   39.8460 C   0  0  0  0  0  0  0  0  0  0  0  0
   41.8430   35.2130   38.8210 C   0  0  0  0  0  0  0  0  0  0  0  0
   42.1720   35.0210   37.8050 H   0  0  0  0  0  0  0  0  0  0  0  0
   40.5790   35.7350   39.1020 C   0  0  0  0  0  0  0  0  0  0  0  0
   39.9470   35.9370   38.2710 H   0  0  0  0  0  0  0  0  0  0  0  0
   40.2410   35.9500   40.4400 C   0  0  0  0  0  3  0  0  0  0  0  0
   41.1090   35.6650   41.4850 C   0  0  0  0  0  3  0  0  0  0  0  0
   43.6100   35.7090   43.2150 N   0  0  0  0  0  0  0  0  0  0  0  0
   43.2130   34.8750   42.3280 C   0  0  0  0  0  0  0  0  0  0  0  0
   43.7940   33.6440   42.7420 N   0  0  0  0  0  0  0  0  0  0  0  0
   43.3180   36.7240   43.1510 H   0  0  0  0  0  0  0  0  0  0  0  0
   44.6220   33.0490   42.5240 H   0  0  0  0  0  0  0  0  0  0  0  0
   43.3910   33.0240   43.4810 H   0  0  0  0  0  0  0  0  0  0  0  0
   44.0700   34.3690   39.5920 C   0  0  0  0  0  0  0  0  0  0  0  0
   44.6530   34.3700   40.5400 H   0  0  0  0  0  0  0  0  0  0  0  0
   44.6460   34.9710   38.8790 H   0  0  0  0  0  0  0  0  0  0  0  0
   43.9060   32.9650   39.0790 C   0  0  0  0  0  0  0  0  0  0  0  0
   44.3200   32.7220   37.7710 C   0  0  0  0  0  0  0  0  0  0  0  0
   44.1830   31.4260   37.2540 C   0  0  0  0  0  0  0  0  0  0  0  0
   43.6440   30.4820   38.0840 N   0  0  0  0  0  0  0  0  0  0  0  0
   43.2540   30.7630   39.3510 C   0  0  0  0  0  0  0  0  0  0  0  0
   43.3820   32.0110   39.8570 N   0  0  0  0  0  0  0  0  0  0  0  0
   44.7360   33.5320   37.1850 H   0  0  0  0  0  0  0  0  0  0  0  0
   44.4920   31.2040   36.2510 H   0  0  0  0  0  0  0  0  0  0  0  0
   42.8350   29.9640   39.9520 H   0  0  0  0  0  0  0  0  0  0  0  0
  1  8  1  0  0  0  0
  1 10  1  0  0  0  0
  2  1  2  0  0  0  0
  3  5  2  0  0  0  0
  3  2  1  0  0  0  0
  4  3  1  0  0  0  0
  5  7  1  0  0  0  0
  6  5  1  0  0  0  0
  7  8  2  0  0  0  0
 10 11  1  0  0  0  0
 10  9  2  0  0  0  0
 11 14  1  0  0  0  0
 12  9  1  0  0  0  0
 13 11  1  0  0  0  0
 15  2  1  0  0  0  0
 15 16  1  0  0  0  0
 17 15  1  0  0  0  0
 18 15  1  0  0  0  0
 18 23  1  0  0  0  0
 19 18  2  0  0  0  0
 20 19  1  0  0  0  0
 20 21  2  0  0  0  0
 21 22  1  0  0  0  0
 22 23  2  0  0  0  0
 22 26  1  0  0  0  0
 24 19  1  0  0  0  0
 25 20  1  0  0  0  0
M  END
>  <minimizedAffinity>
-3.90602684

>  <minimizedRMSD>
4.85175848

$$$$
