
     RDKit          3D

 28 29  0  0  0  0  0  0  0  0999 V2000
   45.4399   35.0627   44.0006 C   0  0  0  0  0  0  0  0  0  0  0  0
   46.4947   34.2971   43.5114 C   0  0  0  0  0  0  0  0  0  0  0  0
   47.0253   33.2866   44.3261 C   0  0  0  0  0  0  0  0  0  0  0  0
   46.4575   33.1260   45.5604 N   0  0  0  0  0  0  0  0  0  0  0  0
   45.4311   33.8945   45.9963 C   0  0  0  0  0  0  0  0  0  0  0  0
   44.9144   34.8708   45.2163 N   0  0  0  0  0  0  0  0  0  0  0  0
   44.9021   36.1353   43.0930 C   0  0  0  0  0  0  0  0  0  0  0  0
   46.8823   34.4954   42.5186 H   0  0  0  0  0  0  0  0  0  0  0  0
   47.8378   32.6781   43.9811 H   0  0  0  0  0  0  0  0  0  0  0  0
   45.0306   33.7104   46.9870 H   0  0  0  0  0  0  0  0  0  0  0  0
   44.4908   36.9787   43.6895 H   0  0  0  0  0  0  0  0  0  0  0  0
   45.7086   36.5570   42.4824 H   0  0  0  0  0  0  0  0  0  0  0  0
   46.0408   34.0129   39.7649 N   0  0  0  0  0  0  0  0  0  0  0  0
   45.5420   34.9094   40.5314 C   0  0  0  0  0  0  0  0  0  0  0  0
   46.6202   35.8147   40.7347 N   0  0  0  0  0  0  0  0  0  0  0  0
   44.1669   34.9690   41.0665 C   0  0  0  0  0  0  0  0  0  0  0  0
   43.8192   35.5399   42.2747 C   0  0  0  0  0  0  0  0  0  0  0  0
   42.5027   35.5455   42.6878 C   0  0  0  0  0  0  0  0  0  0  0  0
   42.2747   36.0045   43.6431 H   0  0  0  0  0  0  0  0  0  0  0  0
   41.5122   34.9740   41.8871 C   0  0  0  0  0  0  0  0  0  0  0  0
   40.5165   35.0085   42.2579 H   0  0  0  0  0  0  0  0  0  0  0  0
   41.8981   34.4051   40.6712 C   0  0  0  0  0  0  0  0  0  0  0  0
   43.2172   34.3896   40.2384 C   0  0  0  0  0  0  0  0  0  0  0  0
   45.4439   33.1995   39.4480 H   0  0  0  0  0  0  0  0  0  0  0  0
   47.3563   36.0197   41.4450 H   0  0  0  0  0  0  0  0  0  0  0  0
   46.8908   36.5662   40.0601 H   0  0  0  0  0  0  0  0  0  0  0  0
   41.1096   33.9717   40.0757 H   0  0  0  0  0  0  0  0  0  0  0  0
   43.4616   33.9382   39.2925 H   0  0  0  0  0  0  0  0  0  0  0  0
  1  6  1  0
  2  1  2  0
  2  3  1  0
  3  4  2  0
  4  5  1  0
  6  5  2  0
  7  1  1  0
  2  8  1  0
  3  9  1  0
  5 10  1  0
  7 11  1  0
  7 12  1  0
 13 14  2  3
 14 15  1  0
 14 16  1  0
 16 17  2  0
 17 18  1  0
 18 19  1  0
 18 20  2  0
 20 21  1  0
 20 22  1  0
 22 23  2  0
 23 16  1  0
 13 24  1  0
 15 25  1  0
 15 26  1  0
 22 27  1  0
 23 28  1  0
  7 17  1  0
M  ISO  7   8  14   9  14  10  14  11   8  12   8  19  15  21  16
M  END
>  <DihAtoms>  (1) 
0,6,16,15

>  <DihDeg>  (1) 
-179.98958090189305

$$$$
