
 OpenBabel03242519383D

 32 33  0  0  0  0  0  0  0  0999 V2000
   48.0820   32.8240   41.7580 O   0  0  0  0  0  0  0  0  0  0  0  0
   47.1350   33.9130   41.2350 P   0  0  2  0  0  0  0  0  0  0  0  0
   45.5900   33.6580   41.9340 O   0  0  0  0  0  0  0  0  0  0  0  0
   44.3980   35.8440   44.6130 C   0  0  0  0  0  0  0  0  0  0  0  0
   44.6600   35.3750   43.3040 C   0  0  0  0  0  0  0  0  0  0  0  0
   45.3130   34.1530   43.2040 C   0  0  0  0  0  0  0  0  0  0  0  0
   45.6680   33.4680   44.3310 N   0  0  0  0  0  0  0  0  0  0  0  0
   45.3890   33.9690   45.5660 C   0  0  0  0  0  0  0  0  0  0  0  0
   44.7620   35.1390   45.7090 N   0  0  0  0  0  0  0  0  0  0  0  0
   43.8870   36.7980   44.7550 H   0  0  0  0  0  0  0  0  0  0  0  0
   44.3470   35.9770   42.4760 H   0  0  0  0  0  0  0  0  0  0  0  0
   45.6790   33.4080   46.4420 H   0  0  0  0  0  0  0  0  0  0  0  0
   47.0130   33.9160   39.5770 O   0  0  0  0  0  0  0  0  0  0  0  0
   46.7370   32.5380   37.5810 C   0  0  0  0  0  0  0  0  0  0  0  0
   46.4860   32.8130   38.9180 C   0  0  0  0  0  0  0  0  0  0  0  0
   45.6660   31.9010   39.5500 C   0  0  0  0  0  0  0  0  0  0  0  0
   45.4110   32.0320   40.6060 H   0  0  0  0  0  0  0  0  0  0  0  0
   45.1060   30.7840   38.9640 C   0  0  0  0  0  0  0  0  0  0  0  0
   44.4700   30.1050   39.5170 H   0  0  0  0  0  0  0  0  0  0  0  0
   45.3980   30.5750   37.6350 C   0  0  0  0  0  3  0  0  0  0  0  0
   46.2100   31.4390   36.9270 C   0  0  0  0  0  3  0  0  0  0  0  0
   48.2180   32.9770   35.7910 N   0  0  0  0  0  0  0  0  0  0  0  0
   47.5940   33.4480   36.8290 C   0  0  0  0  0  0  0  0  0  0  0  0
   47.8490   34.8240   37.0830 N   0  0  0  0  0  0  0  0  0  0  0  0
   48.8470   33.5800   35.2120 H   0  0  0  0  0  0  0  0  0  0  0  0
   47.1390   35.2570   36.4300 H   0  0  0  0  0  0  0  0  0  0  0  0
   48.5140   35.3350   37.7040 H   0  0  0  0  0  0  0  0  0  0  0  0
   47.7150   35.3820   41.8220 O   0  0  0  0  0  0  0  0  0  0  0  0
   48.9790   35.6830   41.3460 C   0  0  0  0  0  0  0  0  0  0  0  0
   49.4260   36.9410   41.7350 F   0  0  0  0  0  0  0  0  0  0  0  0
   49.8590   34.6790   41.6820 F   0  0  0  0  0  0  0  0  0  0  0  0
   48.8800   35.7160   39.9580 F   0  0  0  0  0  0  0  0  0  0  0  0
  2  1  2  1  0  0  0
  2 28  1  0  0  0  0
  2  3  1  0  0  0  0
  3  6  1  0  0  0  0
  4 10  1  0  0  0  0
  4  9  1  0  0  0  0
  5  4  2  0  0  0  0
  6  5  1  0  0  0  0
  6  7  2  0  0  0  0
  7  8  1  0  0  0  0
  8  9  2  0  0  0  0
  8 12  1  0  0  0  0
 11  5  1  0  0  0  0
 13  2  1  0  0  0  0
 14 15  1  0  0  0  0
 15 16  2  0  0  0  0
 15 13  1  0  0  0  0
 16 17  1  0  0  0  0
 18 19  1  0  0  0  0
 18 16  1  0  0  0  0
 20 18  2  0  0  0  0
 21 14  2  0  0  0  0
 21 20  1  0  0  0  0
 22 23  2  0  0  0  0
 23 24  1  0  0  0  0
 23 14  1  0  0  0  0
 24 27  1  0  0  0  0
 25 22  1  0  0  0  0
 26 24  1  0  0  0  0
 29 31  1  0  0  0  0
 29 30  1  0  0  0  0
 29 28  1  0  0  0  0
 32 29  1  0  0  0  0
M  END
>  <minimizedAffinity>
-5.64354849

>  <minimizedRMSD>
0.66020453

$$$$
