
 OpenBabel03252509263D

 35 37  0  0  1  0  0  0  0  0999 V2000
   46.7290   35.1790   42.0060 C   0  0  1  0  0  0  0  0  0  0  0  0
   48.2530   35.4770   42.0740 C   0  0  0  0  0  0  0  0  0  0  0  0
   47.5800   34.2550   41.3810 C   0  0  2  0  0  0  0  0  0  0  0  0
   46.1540   35.9540   41.4600 H   0  0  0  0  0  0  0  0  0  0  0  0
   48.5800   36.2840   41.3990 H   0  0  0  0  0  0  0  0  0  0  0  0
   48.7920   35.2630   43.0000 H   0  0  0  0  0  0  0  0  0  0  0  0
   47.8290   33.2720   41.8810 H   0  0  0  0  0  0  0  0  0  0  0  0
   44.6830   35.2730   45.1470 C   0  0  0  0  0  0  0  0  0  0  0  0
   45.1760   35.6750   43.8580 C   0  0  0  0  0  0  0  0  0  0  0  0
   46.1820   34.8970   43.3860 C   0  0  0  0  0  0  0  0  0  0  0  0
   46.6890   33.8170   44.0840 N   0  0  0  0  0  0  0  0  0  0  0  0
   46.1910   33.4820   45.2900 C   0  0  0  0  0  0  0  0  0  0  0  0
   45.1820   34.2140   45.8240 N   0  0  0  0  0  0  0  0  0  0  0  0
   43.8790   35.8700   45.5550 H   0  0  0  0  0  0  0  0  0  0  0  0
   46.6710   32.6260   45.7230 H   0  0  0  0  0  0  0  0  0  0  0  0
   44.6800   36.7920   43.1690 N   0  0  0  0  0  0  0  0  0  0  0  0
   43.9520   36.2310   42.6880 H   0  0  0  0  0  0  0  0  0  0  0  0
   45.3800   37.4630   43.5990 H   0  0  0  0  0  0  0  0  0  0  0  0
   47.6390   34.1470   39.8740 C   0  0  0  0  0  0  0  0  0  0  0  0
   48.0940   35.1000   39.5260 H   0  0  0  0  0  0  0  0  0  0  0  0
   46.5780   34.0820   39.5260 H   0  0  0  0  0  0  0  0  0  0  0  0
   47.9980   32.3900   38.1830 C   0  0  0  0  0  0  0  0  0  0  0  0
   48.3540   32.9640   39.3840 C   0  0  0  0  0  0  0  0  0  0  0  0
   49.3870   32.4310   40.1260 C   0  0  0  0  0  0  0  0  0  0  0  0
   49.6310   32.9280   41.0780 H   0  0  0  0  0  0  0  0  0  0  0  0
   50.0570   31.3240   39.6620 C   0  0  0  0  0  0  0  0  0  0  0  0
   50.8590   30.9700   40.3120 H   0  0  0  0  0  0  0  0  0  0  0  0
   49.7230   30.7280   38.4640 C   0  0  0  0  0  3  0  0  0  0  0  0
   48.7020   31.2810   37.7610 C   0  0  0  0  0  3  0  0  0  0  0  0
   46.7310   33.9470   36.6740 N   0  0  0  0  0  0  0  0  0  0  0  0
   46.9340   32.8510   37.3140 C   0  0  0  0  0  0  0  0  0  0  0  0
   45.8200   32.0070   37.0270 N   0  0  0  0  0  0  0  0  0  0  0  0
   45.8870   34.0940   36.0870 H   0  0  0  0  0  0  0  0  0  0  0  0
   44.9790   32.2060   37.6270 H   0  0  0  0  0  0  0  0  0  0  0  0
   45.8790   31.2760   36.2860 H   0  0  0  0  0  0  0  0  0  0  0  0
  1  4  1  6  0  0  0
  1  2  1  0  0  0  0
  1 10  1  0  0  0  0
  2  6  1  0  0  0  0
  3  7  1  1  0  0  0
  3  1  1  0  0  0  0
  3  2  1  0  0  0  0
  5  2  1  0  0  0  0
  8 14  1  0  0  0  0
  8 13  1  0  0  0  0
  9  8  2  0  0  0  0
 10  9  1  0  0  0  0
 10 11  2  0  0  0  0
 11 12  1  0  0  0  0
 12 15  1  0  0  0  0
 12 13  2  0  0  0  0
 16 18  1  0  0  0  0
 16  9  1  0  0  0  0
 17 16  1  0  0  0  0
 19  3  1  0  0  0  0
 20 19  1  0  0  0  0
 21 19  1  0  0  0  0
 22 23  1  0  0  0  0
 23 19  1  0  0  0  0
 23 24  2  0  0  0  0
 24 25  1  0  0  0  0
 26 24  1  0  0  0  0
 26 27  1  0  0  0  0
 28 26  2  0  0  0  0
 29 22  2  0  0  0  0
 29 28  1  0  0  0  0
 30 31  2  0  0  0  0
 31 22  1  0  0  0  0
 32 31  1  0  0  0  0
 32 34  1  0  0  0  0
 33 30  1  0  0  0  0
 35 32  1  0  0  0  0
M  END
>  <minimizedAffinity>
-5.20097494

>  <minimizedRMSD>
0.884062588

$$$$
