
 OpenBabel03252508053D

 47 50  0  0  1  0  0  0  0  0999 V2000
   37.2120   29.4020   39.0840 C   0  0  0  0  0  0  0  0  0  0  0  0
   36.5520   29.1870   40.2600 C   0  0  0  0  0  0  0  0  0  0  0  0
   35.1610   28.9810   40.2010 C   0  0  0  0  0  0  0  0  0  0  0  0
   34.4400   28.9850   39.0320 C   0  0  0  0  0  0  0  0  0  0  0  0
   35.1110   29.2000   37.8590 C   0  0  0  0  0  0  0  0  0  0  0  0
   36.4580   29.4010   37.9060 C   0  0  0  0  0  0  0  0  0  0  0  0
   34.5490   28.8110   41.0830 H   0  0  0  0  0  0  0  0  0  0  0  0
   33.3890   28.8280   38.9950 H   0  0  0  0  0  0  0  0  0  0  0  0
   34.6280   29.2190   36.9000 H   0  0  0  0  0  0  0  0  0  0  0  0
   36.9910   29.5750   36.9580 H   0  0  0  0  0  0  0  0  0  0  0  0
   38.8860   29.5630   38.9960 S   0  0  0  0  0  0  0  0  0  0  0  0
   39.0250   30.3130   37.6330 O   0  0  0  0  0  0  0  0  0  0  0  0
   39.5880   28.2680   38.8450 O   0  0  0  0  0  0  0  0  0  0  0  0
   39.2910   31.9940   39.8810 C   0  0  0  0  0  0  0  0  0  0  0  0
   39.9060   30.7310   39.6520 C   0  0  0  0  0  0  0  0  0  0  0  0
   41.2390   30.7180   40.1010 C   0  0  0  0  0  0  0  0  0  0  0  0
   41.6590   29.7050   39.9360 H   0  0  0  0  0  0  0  0  0  0  0  0
   42.0110   31.6890   40.6980 C   0  0  0  0  0  0  0  0  0  0  0  0
   43.0160   31.4240   40.9460 H   0  0  0  0  0  0  0  0  0  0  0  0
   41.2780   32.8250   40.8440 C   0  0  0  0  0  3  0  0  0  0  0  0
   39.9920   33.0200   40.4750 C   0  0  0  0  0  3  0  0  0  0  0  0
   37.0130   32.6720   40.4210 N   0  0  0  0  0  0  0  0  0  0  0  0
   37.9340   32.4790   39.5340 C   0  0  0  0  0  0  0  0  0  0  0  0
   37.4160   32.8360   38.2620 N   0  0  0  0  0  0  0  0  0  0  0  0
   36.1110   33.0360   40.0400 H   0  0  0  0  0  0  0  0  0  0  0  0
   36.9620   33.7530   38.0570 H   0  0  0  0  0  0  0  0  0  0  0  0
   37.1500   32.7890   37.2580 H   0  0  0  0  0  0  0  0  0  0  0  0
   37.2180   29.1650   41.5490 C   0  0  0  0  0  0  0  0  0  0  0  0
   37.3600   30.1810   42.3000 O   0  0  0  0  0  0  0  0  0  0  0  0
   37.7140   27.8640   41.9090 C   0  0  0  0  0  0  0  0  0  0  0  0
   38.9680   27.8460   42.6120 C   0  0  0  0  0  0  0  0  0  0  0  0
   39.4600   26.6040   42.9790 C   0  0  0  0  0  0  0  0  0  0  0  0
   38.7380   25.4970   42.6560 N   0  0  0  0  0  0  0  0  0  0  0  0
   37.5440   25.5700   41.9820 C   0  0  0  0  0  0  0  0  0  0  0  0
   37.0840   26.7230   41.6400 N   0  0  0  0  0  0  0  0  0  0  0  0
   39.5870   28.6540   42.8980 H   0  0  0  0  0  0  0  0  0  0  0  0
   40.3870   26.4510   43.5080 H   0  0  0  0  0  0  0  0  0  0  0  0
   36.8280   24.3130   41.6820 C   0  0  1  0  0  0  0  0  0  0  0  0
   36.3170   24.0700   40.2830 C   0  0  0  0  0  0  0  0  0  0  0  0
   37.5630   23.3820   40.7850 C   0  0  1  0  0  0  0  0  0  0  0  0
   36.1920   23.8910   42.4570 H   0  0  0  0  0  0  0  0  0  0  0  0
   35.3930   23.4620   40.1420 H   0  0  0  0  0  0  0  0  0  0  0  0
   36.4040   24.8780   39.5190 H   0  0  0  0  0  0  0  0  0  0  0  0
   37.5090   22.3090   41.0470 H   0  0  0  0  0  0  0  0  0  0  0  0
   38.7630   23.8150   40.1080 N   0  0  0  0  0  0  0  0  0  0  0  0
   39.5170   24.1230   40.7290 H   0  0  0  0  0  0  0  0  0  0  0  0
   38.6100   24.3970   39.2700 H   0  0  0  0  0  0  0  0  0  0  0  0
  1  2  1  0  0  0  0
  2 28  1  0  0  0  0
  3  2  2  0  0  0  0
  3  7  1  0  0  0  0
  4  3  1  0  0  0  0
  5  6  1  0  0  0  0
  5  4  2  0  0  0  0
  6  1  2  0  0  0  0
  8  4  1  0  0  0  0
  9  5  1  0  0  0  0
 10  6  1  0  0  0  0
 11  1  1  0  0  0  0
 11 15  1  0  0  0  0
 12 11  2  0  0  0  0
 13 11  2  0  0  0  0
 14 21  1  0  0  0  0
 15 14  2  0  0  0  0
 15 16  1  0  0  0  0
 16 18  2  0  0  0  0
 17 16  1  0  0  0  0
 18 20  1  0  0  0  0
 18 19  1  0  0  0  0
 21 20  2  0  0  0  0
 23 14  1  0  0  0  0
 23 22  2  0  0  0  0
 24 23  1  0  0  0  0
 25 22  1  0  0  0  0
 26 24  1  0  0  0  0
 27 24  1  0  0  0  0
 28 30  1  0  0  0  0
 28 29  2  0  0  0  0
 30 31  1  0  0  0  0
 31 36  1  0  0  0  0
 31 32  2  0  0  0  0
 32 37  1  0  0  0  0
 33 32  1  0  0  0  0
 34 33  2  0  0  0  0
 35 30  2  0  0  0  0
 35 34  1  0  0  0  0
 38 34  1  0  0  0  0
 38 41  1  1  0  0  0
 39 40  1  0  0  0  0
 39 38  1  0  0  0  0
 40 44  1  1  0  0  0
 40 38  1  0  0  0  0
 42 39  1  0  0  0  0
 43 39  1  0  0  0  0
 45 46  1  0  0  0  0
 45 40  1  0  0  0  0
 47 45  1  0  0  0  0
M  END
>  <minimizedAffinity>
-6.51282072

$$$$

 OpenBabel03252508053D

 47 50  0  0  1  0  0  0  0  0999 V2000
   40.0210   28.9590   41.7200 C   0  0  0  0  0  0  0  0  0  0  0  0
   39.1680   28.1280   42.3860 C   0  0  0  0  0  0  0  0  0  0  0  0
   39.7150   27.2760   43.3650 C   0  0  0  0  0  0  0  0  0  0  0  0
   41.0520   27.2390   43.6800 C   0  0  0  0  0  0  0  0  0  0  0  0
   41.8980   28.0770   43.0060 C   0  0  0  0  0  0  0  0  0  0  0  0
   41.3780   28.9050   42.0570 C   0  0  0  0  0  0  0  0  0  0  0  0
   39.1180   26.5740   43.9400 H   0  0  0  0  0  0  0  0  0  0  0  0
   41.4580   26.5930   44.4200 H   0  0  0  0  0  0  0  0  0  0  0  0
   42.9560   28.1150   43.1890 H   0  0  0  0  0  0  0  0  0  0  0  0
   42.0660   29.5750   41.5190 H   0  0  0  0  0  0  0  0  0  0  0  0
   39.4920   30.0990   40.5980 S   0  0  0  0  0  0  0  0  0  0  0  0
   40.7620   30.2160   39.6960 O   0  0  0  0  0  0  0  0  0  0  0  0
   39.2630   31.4360   41.1910 O   0  0  0  0  0  0  0  0  0  0  0  0
   37.4230   30.6990   39.1090 C   0  0  0  0  0  0  0  0  0  0  0  0
   38.6010   29.9040   39.1820 C   0  0  0  0  0  0  0  0  0  0  0  0
   38.8020   29.1700   38.0000 C   0  0  0  0  0  0  0  0  0  0  0  0
   39.7480   28.6010   38.0930 H   0  0  0  0  0  0  0  0  0  0  0  0
   38.0720   29.0990   36.8340 C   0  0  0  0  0  0  0  0  0  0  0  0
   38.4430   28.4510   36.0690 H   0  0  0  0  0  0  0  0  0  0  0  0
   36.9870   29.9130   36.9290 C   0  0  0  0  0  3  0  0  0  0  0  0
   36.6360   30.6880   37.9790 C   0  0  0  0  0  3  0  0  0  0  0  0
   35.9940   31.1410   41.0340 N   0  0  0  0  0  0  0  0  0  0  0  0
   36.7950   31.5840   40.1200 C   0  0  0  0  0  0  0  0  0  0  0  0
   36.9580   32.9820   40.3020 N   0  0  0  0  0  0  0  0  0  0  0  0
   35.6420   31.8700   41.6940 H   0  0  0  0  0  0  0  0  0  0  0  0
   37.2320   33.4210   41.2070 H   0  0  0  0  0  0  0  0  0  0  0  0
   36.9910   34.0030   40.1090 H   0  0  0  0  0  0  0  0  0  0  0  0
   37.7410   28.0870   42.1290 C   0  0  0  0  0  0  0  0  0  0  0  0
   36.9020   28.9160   42.6050 O   0  0  0  0  0  0  0  0  0  0  0  0
   37.3500   27.0040   41.2680 C   0  0  0  0  0  0  0  0  0  0  0  0
   36.5780   27.3720   40.1120 C   0  0  0  0  0  0  0  0  0  0  0  0
   36.1980   26.3460   39.2630 C   0  0  0  0  0  0  0  0  0  0  0  0
   36.5720   25.0740   39.5710 N   0  0  0  0  0  0  0  0  0  0  0  0
   37.3100   24.7770   40.6890 C   0  0  0  0  0  0  0  0  0  0  0  0
   37.6640   25.7290   41.4800 N   0  0  0  0  0  0  0  0  0  0  0  0
   36.2480   28.3280   39.8040 H   0  0  0  0  0  0  0  0  0  0  0  0
   35.6180   26.4850   38.3640 H   0  0  0  0  0  0  0  0  0  0  0  0
   37.6750   23.3670   40.9360 C   0  0  1  0  0  0  0  0  0  0  0  0
   37.3580   22.3270   39.8890 C   0  0  0  0  0  0  0  0  0  0  0  0
   38.7630   22.8490   40.0640 C   0  0  1  0  0  0  0  0  0  0  0  0
   37.6070   22.9930   41.9550 H   0  0  0  0  0  0  0  0  0  0  0  0
   37.1320   21.2840   40.2130 H   0  0  0  0  0  0  0  0  0  0  0  0
   36.7700   22.6190   38.9870 H   0  0  0  0  0  0  0  0  0  0  0  0
   39.5140   22.2010   40.5540 H   0  0  0  0  0  0  0  0  0  0  0  0
   39.2260   23.6230   38.9360 N   0  0  0  0  0  0  0  0  0  0  0  0
   39.5920   24.5490   39.1740 H   0  0  0  0  0  0  0  0  0  0  0  0
   38.6250   23.5830   38.0980 H   0  0  0  0  0  0  0  0  0  0  0  0
  1  6  2  0  0  0  0
  1  2  1  0  0  0  0
  2  3  2  0  0  0  0
  3  4  1  0  0  0  0
  3  7  1  0  0  0  0
  4  8  1  0  0  0  0
  5  9  1  0  0  0  0
  5  4  2  0  0  0  0
  6  5  1  0  0  0  0
 10  6  1  0  0  0  0
 11 13  2  0  0  0  0
 11  1  1  0  0  0  0
 12 11  2  0  0  0  0
 14 15  1  0  0  0  0
 14 23  1  0  0  0  0
 15 11  1  0  0  0  0
 16 17  1  0  0  0  0
 16 15  2  0  0  0  0
 18 20  2  0  0  0  0
 18 16  1  0  0  0  0
 19 18  1  0  0  0  0
 20 21  1  0  0  0  0
 21 14  2  0  0  0  0
 22 25  1  0  0  0  0
 23 24  1  0  0  0  0
 23 22  2  0  0  0  0
 24 26  1  0  0  0  0
 27 24  1  0  0  0  0
 28  2  1  0  0  0  0
 28 29  2  0  0  0  0
 30 35  1  0  0  0  0
 30 28  1  0  0  0  0
 31 30  2  0  0  0  0
 32 33  2  0  0  0  0
 32 31  1  0  0  0  0
 33 34  1  0  0  0  0
 34 38  1  0  0  0  0
 34 35  2  0  0  0  0
 36 31  1  0  0  0  0
 37 32  1  0  0  0  0
 38 41  1  1  0  0  0
 39 40  1  0  0  0  0
 39 42  1  0  0  0  0
 39 38  1  0  0  0  0
 40 44  1  1  0  0  0
 40 38  1  0  0  0  0
 43 39  1  0  0  0  0
 45 46  1  0  0  0  0
 45 40  1  0  0  0  0
 47 45  1  0  0  0  0
M  END
>  <minimizedAffinity>
-6.38555288

$$$$

 OpenBabel03252508053D

 47 50  0  0  1  0  0  0  0  0999 V2000
   37.4560   28.1340   41.2000 C   0  0  0  0  0  0  0  0  0  0  0  0
   37.2250   27.6960   39.9280 C   0  0  0  0  0  0  0  0  0  0  0  0
   36.9480   26.3270   39.7490 C   0  0  0  0  0  0  0  0  0  0  0  0
   36.9000   25.4190   40.7780 C   0  0  0  0  0  0  0  0  0  0  0  0
   37.1330   25.8690   42.0490 C   0  0  0  0  0  0  0  0  0  0  0  0
   37.4010   27.1920   42.2330 C   0  0  0  0  0  0  0  0  0  0  0  0
   36.7610   25.8830   38.7750 H   0  0  0  0  0  0  0  0  0  0  0  0
   36.6910   24.3870   40.6350 H   0  0  0  0  0  0  0  0  0  0  0  0
   37.1140   25.2300   42.9120 H   0  0  0  0  0  0  0  0  0  0  0  0
   37.5880   27.5470   43.2590 H   0  0  0  0  0  0  0  0  0  0  0  0
   37.6980   29.7590   41.5730 S   0  0  0  0  0  0  0  0  0  0  0  0
   37.9640   29.6580   43.1090 O   0  0  0  0  0  0  0  0  0  0  0  0
   36.4800   30.5830   41.4030 O   0  0  0  0  0  0  0  0  0  0  0  0
   38.9420   31.8960   40.7090 C   0  0  0  0  0  0  0  0  0  0  0  0
   39.0880   30.7050   41.4750 C   0  0  0  0  0  0  0  0  0  0  0  0
   40.3680   30.6160   42.0510 C   0  0  0  0  0  0  0  0  0  0  0  0
   40.4170   29.6960   42.6660 H   0  0  0  0  0  0  0  0  0  0  0  0
   41.4550   31.4590   41.9940 C   0  0  0  0  0  0  0  0  0  0  0  0
   42.3300   31.1580   42.5290 H   0  0  0  0  0  0  0  0  0  0  0  0
   41.1500   32.5420   41.2290 C   0  0  0  0  0  3  0  0  0  0  0  0
   39.9800   32.7950   40.6010 C   0  0  0  0  0  3  0  0  0  0  0  0
   37.0080   33.3200   40.2950 N   0  0  0  0  0  0  0  0  0  0  0  0
   37.8020   32.3810   39.8950 C   0  0  0  0  0  0  0  0  0  0  0  0
   37.3990   31.9730   38.5980 N   0  0  0  0  0  0  0  0  0  0  0  0
   36.2610   33.5790   39.6120 H   0  0  0  0  0  0  0  0  0  0  0  0
   37.2550   32.6300   37.8010 H   0  0  0  0  0  0  0  0  0  0  0  0
   37.1110   31.3720   37.7980 H   0  0  0  0  0  0  0  0  0  0  0  0
   37.2530   28.5710   38.7720 C   0  0  0  0  0  0  0  0  0  0  0  0
   36.2590   29.2490   38.3610 O   0  0  0  0  0  0  0  0  0  0  0  0
   38.5330   28.6070   38.1180 C   0  0  0  0  0  0  0  0  0  0  0  0
   38.7960   27.5320   37.2010 C   0  0  0  0  0  0  0  0  0  0  0  0
   40.0200   27.5500   36.5520 C   0  0  0  0  0  0  0  0  0  0  0  0
   40.8830   28.5690   36.8190 N   0  0  0  0  0  0  0  0  0  0  0  0
   40.5810   29.5710   37.7060 C   0  0  0  0  0  0  0  0  0  0  0  0
   39.4450   29.5560   38.3110 N   0  0  0  0  0  0  0  0  0  0  0  0
   38.1850   26.7090   36.9400 H   0  0  0  0  0  0  0  0  0  0  0  0
   40.3420   26.8050   35.8410 H   0  0  0  0  0  0  0  0  0  0  0  0
   41.5790   30.6390   37.9260 C   0  0  1  0  0  0  0  0  0  0  0  0
   42.2350   31.2940   36.7340 C   0  0  0  0  0  0  0  0  0  0  0  0
   41.1380   31.9940   37.4990 C   0  0  1  0  0  0  0  0  0  0  0  0
   42.2320   30.5560   38.7910 H   0  0  0  0  0  0  0  0  0  0  0  0
   43.2790   31.6740   36.8320 H   0  0  0  0  0  0  0  0  0  0  0  0
   42.0290   30.9010   35.7100 H   0  0  0  0  0  0  0  0  0  0  0  0
   41.4090   32.8290   38.1720 H   0  0  0  0  0  0  0  0  0  0  0  0
   39.9260   32.1590   36.7300 N   0  0  0  0  0  0  0  0  0  0  0  0
   39.0780   31.8150   37.1890 H   0  0  0  0  0  0  0  0  0  0  0  0
   40.0100   31.9420   35.7250 H   0  0  0  0  0  0  0  0  0  0  0  0
  1 11  1  0  0  0  0
  1  6  1  0  0  0  0
  2  1  2  0  0  0  0
  3  2  1  0  0  0  0
  3  4  2  0  0  0  0
  4  5  1  0  0  0  0
  5  6  2  0  0  0  0
  5  9  1  0  0  0  0
  6 10  1  0  0  0  0
  7  3  1  0  0  0  0
  8  4  1  0  0  0  0
 11 12  2  0  0  0  0
 13 11  2  0  0  0  0
 14 15  1  0  0  0  0
 15 11  1  0  0  0  0
 15 16  2  0  0  0  0
 16 17  1  0  0  0  0
 18 16  1  0  0  0  0
 18 19  1  0  0  0  0
 20 18  2  0  0  0  0
 21 14  2  0  0  0  0
 21 20  1  0  0  0  0
 23 22  2  0  0  0  0
 23 14  1  0  0  0  0
 24 23  1  0  0  0  0
 25 22  1  0  0  0  0
 26 24  1  0  0  0  0
 27 24  1  0  0  0  0
 28  2  1  0  0  0  0
 29 28  2  0  0  0  0
 30 35  1  0  0  0  0
 30 28  1  0  0  0  0
 31 30  2  0  0  0  0
 32 33  2  0  0  0  0
 32 31  1  0  0  0  0
 33 34  1  0  0  0  0
 34 38  1  0  0  0  0
 34 35  2  0  0  0  0
 36 31  1  0  0  0  0
 37 32  1  0  0  0  0
 38 41  1  1  0  0  0
 39 42  1  0  0  0  0
 39 40  1  0  0  0  0
 39 38  1  0  0  0  0
 40 38  1  0  0  0  0
 40 44  1  1  0  0  0
 43 39  1  0  0  0  0
 45 46  1  0  0  0  0
 45 40  1  0  0  0  0
 47 45  1  0  0  0  0
M  END
>  <minimizedAffinity>
-6.3380003

$$$$

 OpenBabel03252508053D

 47 50  0  0  1  0  0  0  0  0999 V2000
   38.5540   29.0060   41.9270 C   0  0  0  0  0  0  0  0  0  0  0  0
   37.2230   28.8480   41.6680 C   0  0  0  0  0  0  0  0  0  0  0  0
   36.5890   27.6990   42.1780 C   0  0  0  0  0  0  0  0  0  0  0  0
   37.2360   26.7370   42.9160 C   0  0  0  0  0  0  0  0  0  0  0  0
   38.5700   26.9060   43.1700 C   0  0  0  0  0  0  0  0  0  0  0  0
   39.1920   28.0140   42.6810 C   0  0  0  0  0  0  0  0  0  0  0  0
   35.5370   27.4820   42.0170 H   0  0  0  0  0  0  0  0  0  0  0  0
   36.7500   25.8720   43.2980 H   0  0  0  0  0  0  0  0  0  0  0  0
   39.1530   26.2050   43.7380 H   0  0  0  0  0  0  0  0  0  0  0  0
   40.2660   28.1430   42.8890 H   0  0  0  0  0  0  0  0  0  0  0  0
   39.4150   30.3790   41.4660 S   0  0  0  0  0  0  0  0  0  0  0  0
   40.8790   29.8650   41.6460 O   0  0  0  0  0  0  0  0  0  0  0  0
   39.2420   31.5140   42.4000 O   0  0  0  0  0  0  0  0  0  0  0  0
   39.4550   32.2390   39.6230 C   0  0  0  0  0  0  0  0  0  0  0  0
   39.8750   30.9160   39.9380 C   0  0  0  0  0  0  0  0  0  0  0  0
   40.6590   30.3640   38.9090 C   0  0  0  0  0  0  0  0  0  0  0  0
   40.9920   29.3540   39.2190 H   0  0  0  0  0  0  0  0  0  0  0  0
   41.0670   30.8770   37.6970 C   0  0  0  0  0  0  0  0  0  0  0  0
   41.6680   30.2440   37.0810 H   0  0  0  0  0  0  0  0  0  0  0  0
   40.5830   32.1400   37.5540 C   0  0  0  0  0  3  0  0  0  0  0  0
   39.8190   32.8270   38.4320 C   0  0  0  0  0  3  0  0  0  0  0  0
   37.3020   33.2070   40.2280 N   0  0  0  0  0  0  0  0  0  0  0  0
   38.5860   33.1760   40.3750 C   0  0  0  0  0  0  0  0  0  0  0  0
   38.9510   34.1330   41.3560 N   0  0  0  0  0  0  0  0  0  0  0  0
   36.8110   33.9000   40.8350 H   0  0  0  0  0  0  0  0  0  0  0  0
   38.5220   34.1810   42.3060 H   0  0  0  0  0  0  0  0  0  0  0  0
   39.4260   34.9280   41.8280 H   0  0  0  0  0  0  0  0  0  0  0  0
   36.4480   29.8030   40.8990 C   0  0  0  0  0  0  0  0  0  0  0  0
   36.0780   30.9400   41.3310 O   0  0  0  0  0  0  0  0  0  0  0  0
   36.1300   29.3410   39.5750 C   0  0  0  0  0  0  0  0  0  0  0  0
   34.7340   29.1240   39.3080 C   0  0  0  0  0  0  0  0  0  0  0  0
   34.4030   28.6880   38.0350 C   0  0  0  0  0  0  0  0  0  0  0  0
   35.4030   28.4940   37.1320 N   0  0  0  0  0  0  0  0  0  0  0  0
   36.7220   28.7160   37.4410 C   0  0  0  0  0  0  0  0  0  0  0  0
   37.0330   29.1210   38.6220 N   0  0  0  0  0  0  0  0  0  0  0  0
   33.9030   29.2480   39.9480 H   0  0  0  0  0  0  0  0  0  0  0  0
   33.3960   28.4870   37.7050 H   0  0  0  0  0  0  0  0  0  0  0  0
   37.7370   28.4860   36.3920 C   0  0  1  0  0  0  0  0  0  0  0  0
   39.0730   27.8970   36.7740 C   0  0  0  0  0  0  0  0  0  0  0  0
   38.0160   27.0530   36.1060 C   0  0  1  0  0  0  0  0  0  0  0  0
   37.7940   29.1980   35.5720 H   0  0  0  0  0  0  0  0  0  0  0  0
   39.9780   28.1820   36.1860 H   0  0  0  0  0  0  0  0  0  0  0  0
   39.3120   27.7310   37.8510 H   0  0  0  0  0  0  0  0  0  0  0  0
   38.1440   26.7850   35.0410 H   0  0  0  0  0  0  0  0  0  0  0  0
   37.4860   26.0200   36.9660 N   0  0  0  0  0  0  0  0  0  0  0  0
   36.4660   26.0080   37.0420 H   0  0  0  0  0  0  0  0  0  0  0  0
   38.0010   25.8760   37.8480 H   0  0  0  0  0  0  0  0  0  0  0  0
  1  6  1  0  0  0  0
  2  1  2  0  0  0  0
  2  3  1  0  0  0  0
  3  4  2  0  0  0  0
  4  5  1  0  0  0  0
  4  8  1  0  0  0  0
  5  9  1  0  0  0  0
  6 10  1  0  0  0  0
  6  5  2  0  0  0  0
  7  3  1  0  0  0  0
 11 12  2  0  0  0  0
 11  1  1  0  0  0  0
 11 13  2  0  0  0  0
 14 15  1  0  0  0  0
 14 23  1  0  0  0  0
 15 11  1  0  0  0  0
 16 17  1  0  0  0  0
 16 15  2  0  0  0  0
 18 16  1  0  0  0  0
 19 18  1  0  0  0  0
 20 18  2  0  0  0  0
 20 21  1  0  0  0  0
 21 14  2  0  0  0  0
 22 23  2  0  0  0  0
 22 25  1  0  0  0  0
 23 24  1  0  0  0  0
 24 27  1  0  0  0  0
 24 26  1  0  0  0  0
 28 29  2  0  0  0  0
 28  2  1  0  0  0  0
 30 28  1  0  0  0  0
 31 30  1  0  0  0  0
 31 36  1  0  0  0  0
 32 31  2  0  0  0  0
 33 34  2  0  0  0  0
 33 32  1  0  0  0  0
 34 35  1  0  0  0  0
 35 30  2  0  0  0  0
 37 32  1  0  0  0  0
 38 41  1  6  0  0  0
 38 39  1  0  0  0  0
 38 34  1  0  0  0  0
 39 43  1  0  0  0  0
 40 44  1  6  0  0  0
 40 38  1  0  0  0  0
 40 39  1  0  0  0  0
 40 45  1  0  0  0  0
 42 39  1  0  0  0  0
 45 46  1  0  0  0  0
 45 47  1  0  0  0  0
M  END
>  <minimizedAffinity>
-6.33200121

$$$$

 OpenBabel03252508053D

 47 50  0  0  1  0  0  0  0  0999 V2000
   37.6970   30.1350   40.5080 C   0  0  0  0  0  0  0  0  0  0  0  0
   37.1150   29.2080   41.3230 C   0  0  0  0  0  0  0  0  0  0  0  0
   35.8120   28.7820   41.0030 C   0  0  0  0  0  0  0  0  0  0  0  0
   35.1030   29.2470   39.9220 C   0  0  0  0  0  0  0  0  0  0  0  0
   35.6960   30.1750   39.1110 C   0  0  0  0  0  0  0  0  0  0  0  0
   36.9570   30.5950   39.4130 C   0  0  0  0  0  0  0  0  0  0  0  0
   35.2640   28.0550   41.5960 H   0  0  0  0  0  0  0  0  0  0  0  0
   34.1190   28.9200   39.6870 H   0  0  0  0  0  0  0  0  0  0  0  0
   35.2150   30.5920   38.2450 H   0  0  0  0  0  0  0  0  0  0  0  0
   37.4270   31.3430   38.7560 H   0  0  0  0  0  0  0  0  0  0  0  0
   39.2850   30.6590   40.7120 S   0  0  0  0  0  0  0  0  0  0  0  0
   40.0620   29.3660   40.3080 O   0  0  0  0  0  0  0  0  0  0  0  0
   39.6270   30.9400   42.1250 O   0  0  0  0  0  0  0  0  0  0  0  0
   40.0470   32.9000   39.5900 C   0  0  0  0  0  0  0  0  0  0  0  0
   40.3000   31.5010   39.6640 C   0  0  0  0  0  0  0  0  0  0  0  0
   41.4110   31.1350   38.8840 C   0  0  0  0  0  0  0  0  0  0  0  0
   41.5880   30.0480   39.0060 H   0  0  0  0  0  0  0  0  0  0  0  0
   42.2550   31.8810   38.0920 C   0  0  0  0  0  0  0  0  0  0  0  0
   43.0390   31.3550   37.5900 H   0  0  0  0  0  0  0  0  0  0  0  0
   41.8780   33.1870   38.1310 C   0  0  0  0  0  3  0  0  0  0  0  0
   40.8450   33.7190   38.8220 C   0  0  0  0  0  3  0  0  0  0  0  0
   37.9360   34.1160   39.5300 N   0  0  0  0  0  0  0  0  0  0  0  0
   38.9680   33.7150   40.1980 C   0  0  0  0  0  0  0  0  0  0  0  0
   38.8380   34.1610   41.5380 N   0  0  0  0  0  0  0  0  0  0  0  0
   37.2430   34.6640   40.0870 H   0  0  0  0  0  0  0  0  0  0  0  0
   37.9930   33.9920   42.1260 H   0  0  0  0  0  0  0  0  0  0  0  0
   39.0520   34.6040   42.4550 H   0  0  0  0  0  0  0  0  0  0  0  0
   37.7760   28.6550   42.4900 C   0  0  0  0  0  0  0  0  0  0  0  0
   37.7640   29.1910   43.6430 O   0  0  0  0  0  0  0  0  0  0  0  0
   38.4590   27.4180   42.2220 C   0  0  0  0  0  0  0  0  0  0  0  0
   39.3670   26.9730   43.2440 C   0  0  0  0  0  0  0  0  0  0  0  0
   40.0300   25.7780   43.0120 C   0  0  0  0  0  0  0  0  0  0  0  0
   39.7850   25.1130   41.8500 N   0  0  0  0  0  0  0  0  0  0  0  0
   38.9070   25.5840   40.9060 C   0  0  0  0  0  0  0  0  0  0  0  0
   38.2900   26.6940   41.1190 N   0  0  0  0  0  0  0  0  0  0  0  0
   39.6130   27.4270   44.1660 H   0  0  0  0  0  0  0  0  0  0  0  0
   40.7360   25.3330   43.6950 H   0  0  0  0  0  0  0  0  0  0  0  0
   38.7000   24.7880   39.6790 C   0  0  1  0  0  0  0  0  0  0  0  0
   39.5400   23.5550   39.4480 C   0  0  0  0  0  0  0  0  0  0  0  0
   38.1070   23.4430   39.9070 C   0  0  1  0  0  0  0  0  0  0  0  0
   38.4440   25.3180   38.7640 H   0  0  0  0  0  0  0  0  0  0  0  0
   39.7890   23.2590   38.4020 H   0  0  0  0  0  0  0  0  0  0  0  0
   40.3670   23.3140   40.1570 H   0  0  0  0  0  0  0  0  0  0  0  0
   37.3390   23.1190   39.1800 H   0  0  0  0  0  0  0  0  0  0  0  0
   37.9800   22.9190   41.2470 N   0  0  0  0  0  0  0  0  0  0  0  0
   37.4120   23.4920   41.8780 H   0  0  0  0  0  0  0  0  0  0  0  0
   38.8460   22.5330   41.6530 H   0  0  0  0  0  0  0  0  0  0  0  0
  1 11  1  0  0  0  0
  1  2  1  0  0  0  0
  2 28  1  0  0  0  0
  3  2  2  0  0  0  0
  3  7  1  0  0  0  0
  4  3  1  0  0  0  0
  5  6  1  0  0  0  0
  5  4  2  0  0  0  0
  6  1  2  0  0  0  0
  8  4  1  0  0  0  0
  9  5  1  0  0  0  0
 10  6  1  0  0  0  0
 11 13  2  0  0  0  0
 12 11  2  0  0  0  0
 14 15  1  0  0  0  0
 14 23  1  0  0  0  0
 15 11  1  0  0  0  0
 16 17  1  0  0  0  0
 16 15  2  0  0  0  0
 18 20  2  0  0  0  0
 18 16  1  0  0  0  0
 19 18  1  0  0  0  0
 20 21  1  0  0  0  0
 21 14  2  0  0  0  0
 22 25  1  0  0  0  0
 22 23  2  0  0  0  0
 23 24  1  0  0  0  0
 24 26  1  0  0  0  0
 24 27  1  0  0  0  0
 28 29  2  0  0  0  0
 30 28  1  0  0  0  0
 30 31  1  0  0  0  0
 31 36  1  0  0  0  0
 32 31  2  0  0  0  0
 32 37  1  0  0  0  0
 33 32  1  0  0  0  0
 34 35  1  0  0  0  0
 34 33  2  0  0  0  0
 35 30  2  0  0  0  0
 38 41  1  6  0  0  0
 38 40  1  0  0  0  0
 38 34  1  0  0  0  0
 39 38  1  0  0  0  0
 39 40  1  0  0  0  0
 39 43  1  0  0  0  0
 40 44  1  6  0  0  0
 40 45  1  0  0  0  0
 42 39  1  0  0  0  0
 45 47  1  0  0  0  0
 45 46  1  0  0  0  0
M  END
>  <minimizedAffinity>
-6.32111645

$$$$

 OpenBabel03252508053D

 47 50  0  0  1  0  0  0  0  0999 V2000
   36.6550   26.9910   39.9810 C   0  0  0  0  0  0  0  0  0  0  0  0
   36.4300   28.1190   40.7160 C   0  0  0  0  0  0  0  0  0  0  0  0
   36.6080   28.0380   42.1100 C   0  0  0  0  0  0  0  0  0  0  0  0
   36.9930   26.8920   42.7620 C   0  0  0  0  0  0  0  0  0  0  0  0
   37.2170   25.7670   42.0160 C   0  0  0  0  0  0  0  0  0  0  0  0
   37.0470   25.8360   40.6660 C   0  0  0  0  0  0  0  0  0  0  0  0
   36.4440   28.8790   42.7780 H   0  0  0  0  0  0  0  0  0  0  0  0
   37.1250   26.8380   43.8150 H   0  0  0  0  0  0  0  0  0  0  0  0
   37.5210   24.8300   42.4430 H   0  0  0  0  0  0  0  0  0  0  0  0
   37.2280   24.9260   40.0720 H   0  0  0  0  0  0  0  0  0  0  0  0
   36.5790   26.9700   38.2980 S   0  0  0  0  0  0  0  0  0  0  0  0
   36.2730   25.4590   38.0500 O   0  0  0  0  0  0  0  0  0  0  0  0
   37.8800   27.2550   37.6530 O   0  0  0  0  0  0  0  0  0  0  0  0
   35.6150   28.2310   36.2150 C   0  0  0  0  0  0  0  0  0  0  0  0
   35.2990   27.3180   37.2600 C   0  0  0  0  0  0  0  0  0  0  0  0
   33.9800   26.8430   37.1490 C   0  0  0  0  0  0  0  0  0  0  0  0
   33.7980   26.1090   37.9590 H   0  0  0  0  0  0  0  0  0  0  0  0
   32.9880   27.1100   36.2320 C   0  0  0  0  0  0  0  0  0  0  0  0
   32.0520   26.6120   36.3720 H   0  0  0  0  0  0  0  0  0  0  0  0
   33.4500   27.9940   35.3080 C   0  0  0  0  0  3  0  0  0  0  0  0
   34.6800   28.5520   35.2550 C   0  0  0  0  0  3  0  0  0  0  0  0
   37.7590   28.6220   35.1230 N   0  0  0  0  0  0  0  0  0  0  0  0
   36.8500   29.0090   35.9590 C   0  0  0  0  0  0  0  0  0  0  0  0
   37.2450   30.2560   36.5080 N   0  0  0  0  0  0  0  0  0  0  0  0
   38.5660   29.2770   35.0240 H   0  0  0  0  0  0  0  0  0  0  0  0
   37.5220   31.0810   35.9320 H   0  0  0  0  0  0  0  0  0  0  0  0
   37.4750   31.0020   37.1950 H   0  0  0  0  0  0  0  0  0  0  0  0
   36.0190   29.3790   40.1250 C   0  0  0  0  0  0  0  0  0  0  0  0
   34.8380   29.6340   39.7280 O   0  0  0  0  0  0  0  0  0  0  0  0
   37.0870   30.3370   40.0290 C   0  0  0  0  0  0  0  0  0  0  0  0
   36.8050   31.6430   40.5580 C   0  0  0  0  0  0  0  0  0  0  0  0
   37.8230   32.5790   40.4850 C   0  0  0  0  0  0  0  0  0  0  0  0
   39.0080   32.2100   39.9260 N   0  0  0  0  0  0  0  0  0  0  0  0
   39.2250   30.9470   39.4350 C   0  0  0  0  0  0  0  0  0  0  0  0
   38.2800   30.0750   39.5010 N   0  0  0  0  0  0  0  0  0  0  0  0
   35.9180   32.0080   41.0040 H   0  0  0  0  0  0  0  0  0  0  0  0
   37.7420   33.5940   40.8440 H   0  0  0  0  0  0  0  0  0  0  0  0
   40.5470   30.6370   38.8530 C   0  0  1  0  0  0  0  0  0  0  0  0
   40.6220   29.8690   37.5560 C   0  0  0  0  0  0  0  0  0  0  0  0
   40.8510   31.3610   37.5900 C   0  0  1  0  0  0  0  0  0  0  0  0
   41.3660   30.4200   39.5350 H   0  0  0  0  0  0  0  0  0  0  0  0
   41.4950   29.2000   37.3730 H   0  0  0  0  0  0  0  0  0  0  0  0
   39.6860   29.4660   37.1030 H   0  0  0  0  0  0  0  0  0  0  0  0
   41.8840   31.7420   37.4830 H   0  0  0  0  0  0  0  0  0  0  0  0
   39.8190   32.1090   36.9110 N   0  0  0  0  0  0  0  0  0  0  0  0
   39.3980   32.8590   37.4670 H   0  0  0  0  0  0  0  0  0  0  0  0
   39.1610   31.5440   36.3520 H   0  0  0  0  0  0  0  0  0  0  0  0
  1  6  2  0  0  0  0
  1  2  1  0  0  0  0
  2  3  2  0  0  0  0
  3  4  1  0  0  0  0
  3  7  1  0  0  0  0
  4  8  1  0  0  0  0
  5  9  1  0  0  0  0
  5  4  2  0  0  0  0
  6  5  1  0  0  0  0
 10  6  1  0  0  0  0
 11  1  1  0  0  0  0
 12 11  2  0  0  0  0
 13 11  2  0  0  0  0
 14 15  1  0  0  0  0
 15 11  1  0  0  0  0
 16 15  2  0  0  0  0
 16 17  1  0  0  0  0
 18 19  1  0  0  0  0
 18 16  1  0  0  0  0
 20 18  2  0  0  0  0
 21 20  1  0  0  0  0
 21 14  2  0  0  0  0
 22 23  2  0  0  0  0
 23 14  1  0  0  0  0
 23 24  1  0  0  0  0
 24 27  1  0  0  0  0
 25 22  1  0  0  0  0
 26 24  1  0  0  0  0
 28  2  1  0  0  0  0
 29 28  2  0  0  0  0
 30 28  1  0  0  0  0
 30 31  1  0  0  0  0
 31 36  1  0  0  0  0
 32 31  2  0  0  0  0
 32 37  1  0  0  0  0
 33 32  1  0  0  0  0
 34 35  1  0  0  0  0
 34 33  2  0  0  0  0
 35 30  2  0  0  0  0
 38 34  1  0  0  0  0
 38 41  1  1  0  0  0
 39 40  1  0  0  0  0
 39 38  1  0  0  0  0
 40 44  1  6  0  0  0
 40 38  1  0  0  0  0
 42 39  1  0  0  0  0
 43 39  1  0  0  0  0
 45 46  1  0  0  0  0
 45 40  1  0  0  0  0
 47 45  1  0  0  0  0
M  END
>  <minimizedAffinity>
-6.29640913

$$$$

 OpenBabel03252508053D

 47 50  0  0  1  0  0  0  0  0999 V2000
   38.0370   29.0200   41.6600 C   0  0  0  0  0  0  0  0  0  0  0  0
   37.0710   28.1680   41.2060 C   0  0  0  0  0  0  0  0  0  0  0  0
   36.9140   26.9400   41.8760 C   0  0  0  0  0  0  0  0  0  0  0  0
   37.6760   26.5590   42.9540 C   0  0  0  0  0  0  0  0  0  0  0  0
   38.6400   27.4200   43.4020 C   0  0  0  0  0  0  0  0  0  0  0  0
   38.8000   28.6110   42.7600 C   0  0  0  0  0  0  0  0  0  0  0  0
   36.1800   26.1950   41.5830 H   0  0  0  0  0  0  0  0  0  0  0  0
   37.5510   25.6300   43.4560 H   0  0  0  0  0  0  0  0  0  0  0  0
   39.2800   27.2040   44.2370 H   0  0  0  0  0  0  0  0  0  0  0  0
   39.5780   29.2990   43.1250 H   0  0  0  0  0  0  0  0  0  0  0  0
   38.2670   30.5600   41.0190 S   0  0  0  0  0  0  0  0  0  0  0  0
   39.2800   31.1470   42.0540 O   0  0  0  0  0  0  0  0  0  0  0  0
   37.0530   31.4050   41.0830 O   0  0  0  0  0  0  0  0  0  0  0  0
   39.2940   32.5000   39.5900 C   0  0  0  0  0  0  0  0  0  0  0  0
   39.3130   31.0950   39.8120 C   0  0  0  0  0  0  0  0  0  0  0  0
   40.2730   30.4580   39.0060 C   0  0  0  0  0  0  0  0  0  0  0  0
   40.2750   29.3760   39.2440 H   0  0  0  0  0  0  0  0  0  0  0  0
   41.1580   30.9560   38.0750 C   0  0  0  0  0  0  0  0  0  0  0  0
   41.7950   30.2500   37.5870 H   0  0  0  0  0  0  0  0  0  0  0  0
   41.0110   32.3050   37.9860 C   0  0  0  0  0  3  0  0  0  0  0  0
   40.1470   33.0800   38.6780 C   0  0  0  0  0  3  0  0  0  0  0  0
   38.7070   34.1610   41.2760 N   0  0  0  0  0  0  0  0  0  0  0  0
   38.4250   33.5530   40.1690 C   0  0  0  0  0  0  0  0  0  0  0  0
   37.2180   34.0930   39.6540 N   0  0  0  0  0  0  0  0  0  0  0  0
   38.0200   34.8950   41.5560 H   0  0  0  0  0  0  0  0  0  0  0  0
   37.0550   35.1130   39.5090 H   0  0  0  0  0  0  0  0  0  0  0  0
   36.2540   34.1610   39.2710 H   0  0  0  0  0  0  0  0  0  0  0  0
   36.2150   28.4730   40.0760 C   0  0  0  0  0  0  0  0  0  0  0  0
   35.0730   29.0250   40.1700 O   0  0  0  0  0  0  0  0  0  0  0  0
   36.7840   28.0910   38.8120 C   0  0  0  0  0  0  0  0  0  0  0  0
   38.0870   27.4870   38.8710 C   0  0  0  0  0  0  0  0  0  0  0  0
   38.6520   27.1020   37.6660 C   0  0  0  0  0  0  0  0  0  0  0  0
   37.9500   27.3170   36.5200 N   0  0  0  0  0  0  0  0  0  0  0  0
   36.7070   27.8990   36.5200 C   0  0  0  0  0  0  0  0  0  0  0  0
   36.1800   28.2590   37.6380 N   0  0  0  0  0  0  0  0  0  0  0  0
   38.6950   27.2870   39.7130 H   0  0  0  0  0  0  0  0  0  0  0  0
   39.6210   26.6380   37.5710 H   0  0  0  0  0  0  0  0  0  0  0  0
   36.0180   28.0850   35.2260 C   0  0  1  0  0  0  0  0  0  0  0  0
   34.9350   29.1290   35.1090 C   0  0  0  0  0  0  0  0  0  0  0  0
   36.3140   29.3750   34.5480 C   0  0  1  0  0  0  0  0  0  0  0  0
   35.8430   27.2050   34.6110 H   0  0  0  0  0  0  0  0  0  0  0  0
   34.0930   28.9580   34.3980 H   0  0  0  0  0  0  0  0  0  0  0  0
   34.6040   29.6810   36.0200 H   0  0  0  0  0  0  0  0  0  0  0  0
   36.4580   29.3280   33.4520 H   0  0  0  0  0  0  0  0  0  0  0  0
   37.0330   30.4170   35.2430 N   0  0  0  0  0  0  0  0  0  0  0  0
   37.9660   30.1500   35.5680 H   0  0  0  0  0  0  0  0  0  0  0  0
   36.4710   30.9710   35.9070 H   0  0  0  0  0  0  0  0  0  0  0  0
  1  6  1  0  0  0  0
  2  1  2  0  0  0  0
  2  3  1  0  0  0  0
  3  4  2  0  0  0  0
  4  5  1  0  0  0  0
  4  8  1  0  0  0  0
  5  9  1  0  0  0  0
  6 10  1  0  0  0  0
  6  5  2  0  0  0  0
  7  3  1  0  0  0  0
 11 13  2  0  0  0  0
 11  1  1  0  0  0  0
 11 12  2  0  0  0  0
 14 15  1  0  0  0  0
 14 23  1  0  0  0  0
 15 11  1  0  0  0  0
 16 17  1  0  0  0  0
 16 15  2  0  0  0  0
 18 16  1  0  0  0  0
 19 18  1  0  0  0  0
 20 18  2  0  0  0  0
 20 21  1  0  0  0  0
 21 14  2  0  0  0  0
 22 25  1  0  0  0  0
 23 22  2  0  0  0  0
 24 23  1  0  0  0  0
 26 24  1  0  0  0  0
 27 24  1  0  0  0  0
 28 29  2  0  0  0  0
 28  2  1  0  0  0  0
 30 31  1  0  0  0  0
 30 28  1  0  0  0  0
 31 36  1  0  0  0  0
 32 31  2  0  0  0  0
 33 34  2  0  0  0  0
 33 32  1  0  0  0  0
 34 35  1  0  0  0  0
 35 30  2  0  0  0  0
 37 32  1  0  0  0  0
 38 41  1  6  0  0  0
 38 34  1  0  0  0  0
 39 38  1  0  0  0  0
 39 43  1  0  0  0  0
 40 44  1  6  0  0  0
 40 39  1  0  0  0  0
 40 38  1  0  0  0  0
 40 45  1  0  0  0  0
 42 39  1  0  0  0  0
 45 46  1  0  0  0  0
 45 47  1  0  0  0  0
M  END
>  <minimizedAffinity>
-6.27479887

$$$$

 OpenBabel03252508053D

 47 50  0  0  1  0  0  0  0  0999 V2000
   39.8170   28.0060   42.4410 C   0  0  0  0  0  0  0  0  0  0  0  0
   39.1060   26.8990   42.8050 C   0  0  0  0  0  0  0  0  0  0  0  0
   39.8070   25.8470   43.4250 C   0  0  0  0  0  0  0  0  0  0  0  0
   41.1570   25.8770   43.6790 C   0  0  0  0  0  0  0  0  0  0  0  0
   41.8600   26.9920   43.3110 C   0  0  0  0  0  0  0  0  0  0  0  0
   41.1900   28.0160   42.7100 C   0  0  0  0  0  0  0  0  0  0  0  0
   39.3310   24.9230   43.7420 H   0  0  0  0  0  0  0  0  0  0  0  0
   41.6790   25.0790   44.1470 H   0  0  0  0  0  0  0  0  0  0  0  0
   42.9160   27.1010   43.4710 H   0  0  0  0  0  0  0  0  0  0  0  0
   41.7620   28.9090   42.4150 H   0  0  0  0  0  0  0  0  0  0  0  0
   39.0920   29.3780   41.7840 S   0  0  0  0  0  0  0  0  0  0  0  0
   40.3230   30.3370   41.7100 O   0  0  0  0  0  0  0  0  0  0  0  0
   38.1120   30.0100   42.6950 O   0  0  0  0  0  0  0  0  0  0  0  0
   37.4180   30.0970   39.9030 C   0  0  0  0  0  0  0  0  0  0  0  0
   38.7790   29.7840   40.1800 C   0  0  0  0  0  0  0  0  0  0  0  0
   39.5890   29.9570   39.0440 C   0  0  0  0  0  0  0  0  0  0  0  0
   40.6400   29.7400   39.3220 H   0  0  0  0  0  0  0  0  0  0  0  0
   39.2900   30.3600   37.7620 C   0  0  0  0  0  0  0  0  0  0  0  0
   40.1020   30.4090   37.0680 H   0  0  0  0  0  0  0  0  0  0  0  0
   37.9580   30.6180   37.6670 C   0  0  0  0  0  3  0  0  0  0  0  0
   37.0330   30.5100   38.6470 C   0  0  0  0  0  3  0  0  0  0  0  0
   35.7350   31.0400   41.3920 N   0  0  0  0  0  0  0  0  0  0  0  0
   36.2170   30.0150   40.7690 C   0  0  0  0  0  0  0  0  0  0  0  0
   35.3940   28.8920   41.0430 N   0  0  0  0  0  0  0  0  0  0  0  0
   34.8730   30.8450   41.9490 H   0  0  0  0  0  0  0  0  0  0  0  0
   34.3590   28.8870   40.9140 H   0  0  0  0  0  0  0  0  0  0  0  0
   35.0900   27.9390   41.3260 H   0  0  0  0  0  0  0  0  0  0  0  0
   37.6790   26.7650   42.5810 C   0  0  0  0  0  0  0  0  0  0  0  0
   36.7850   27.2510   43.3440 O   0  0  0  0  0  0  0  0  0  0  0  0
   37.3580   26.0210   41.3940 C   0  0  0  0  0  0  0  0  0  0  0  0
   36.8940   24.6770   41.6050 C   0  0  0  0  0  0  0  0  0  0  0  0
   36.5690   23.9440   40.4760 C   0  0  0  0  0  0  0  0  0  0  0  0
   36.7080   24.5320   39.2560 N   0  0  0  0  0  0  0  0  0  0  0  0
   37.1570   25.8210   39.1100 C   0  0  0  0  0  0  0  0  0  0  0  0
   37.4600   26.5050   40.1580 N   0  0  0  0  0  0  0  0  0  0  0  0
   36.7600   24.1500   42.5110 H   0  0  0  0  0  0  0  0  0  0  0  0
   36.2100   22.9270   40.4940 H   0  0  0  0  0  0  0  0  0  0  0  0
   37.2670   26.3770   37.7450 C   0  0  1  0  0  0  0  0  0  0  0  0
   36.2630   25.9640   36.6960 C   0  0  0  0  0  0  0  0  0  0  0  0
   36.1740   27.3120   37.3690 C   0  0  1  0  0  0  0  0  0  0  0  0
   38.2630   26.5580   37.3480 H   0  0  0  0  0  0  0  0  0  0  0  0
   36.5830   25.9210   35.6280 H   0  0  0  0  0  0  0  0  0  0  0  0
   35.5110   25.1770   36.9370 H   0  0  0  0  0  0  0  0  0  0  0  0
   36.4760   28.2110   36.8000 H   0  0  0  0  0  0  0  0  0  0  0  0
   35.0080   27.4500   38.2110 N   0  0  0  0  0  0  0  0  0  0  0  0
   35.2060   27.7570   39.1670 H   0  0  0  0  0  0  0  0  0  0  0  0
   34.3070   26.6990   38.1190 H   0  0  0  0  0  0  0  0  0  0  0  0
  1  6  2  0  0  0  0
  1  2  1  0  0  0  0
  2  3  2  0  0  0  0
  3  4  1  0  0  0  0
  3  7  1  0  0  0  0
  4  8  1  0  0  0  0
  5  9  1  0  0  0  0
  5  4  2  0  0  0  0
  6  5  1  0  0  0  0
 10  6  1  0  0  0  0
 11  1  1  0  0  0  0
 11 13  2  0  0  0  0
 12 11  2  0  0  0  0
 14 15  1  0  0  0  0
 14 23  1  0  0  0  0
 15 11  1  0  0  0  0
 16 17  1  0  0  0  0
 16 15  2  0  0  0  0
 18 16  1  0  0  0  0
 19 18  1  0  0  0  0
 20 18  2  0  0  0  0
 20 21  1  0  0  0  0
 21 14  2  0  0  0  0
 22 25  1  0  0  0  0
 23 24  1  0  0  0  0
 23 22  2  0  0  0  0
 24 27  1  0  0  0  0
 26 24  1  0  0  0  0
 28  2  1  0  0  0  0
 28 29  2  0  0  0  0
 30 31  1  0  0  0  0
 30 28  1  0  0  0  0
 31 36  1  0  0  0  0
 32 37  1  0  0  0  0
 32 31  2  0  0  0  0
 33 32  1  0  0  0  0
 34 33  2  0  0  0  0
 34 35  1  0  0  0  0
 35 30  2  0  0  0  0
 38 41  1  6  0  0  0
 38 34  1  0  0  0  0
 39 43  1  0  0  0  0
 39 40  1  0  0  0  0
 39 38  1  0  0  0  0
 40 44  1  6  0  0  0
 40 38  1  0  0  0  0
 40 45  1  0  0  0  0
 42 39  1  0  0  0  0
 45 46  1  0  0  0  0
 47 45  1  0  0  0  0
M  END
>  <minimizedAffinity>
-6.16761589

$$$$

 OpenBabel03252508053D

 47 50  0  0  1  0  0  0  0  0999 V2000
   37.4290   28.3680   38.3830 C   0  0  0  0  0  0  0  0  0  0  0  0
   36.9390   29.6410   38.3250 C   0  0  0  0  0  0  0  0  0  0  0  0
   36.6680   30.1800   37.0530 C   0  0  0  0  0  0  0  0  0  0  0  0
   36.8710   29.4970   35.8780 C   0  0  0  0  0  0  0  0  0  0  0  0
   37.3620   28.2220   35.9470 C   0  0  0  0  0  0  0  0  0  0  0  0
   37.6270   27.6920   37.1740 C   0  0  0  0  0  0  0  0  0  0  0  0
   36.2850   31.1860   36.9050 H   0  0  0  0  0  0  0  0  0  0  0  0
   36.6640   29.9110   34.9210 H   0  0  0  0  0  0  0  0  0  0  0  0
   37.5500   27.6170   35.0800 H   0  0  0  0  0  0  0  0  0  0  0  0
   38.0240   26.6650   37.2220 H   0  0  0  0  0  0  0  0  0  0  0  0
   37.7020   27.5630   39.8370 S   0  0  0  0  0  0  0  0  0  0  0  0
   38.3610   26.2480   39.3100 O   0  0  0  0  0  0  0  0  0  0  0  0
   36.4540   27.1700   40.5270 O   0  0  0  0  0  0  0  0  0  0  0  0
   38.6070   28.0000   42.2560 C   0  0  0  0  0  0  0  0  0  0  0  0
   38.9850   27.6760   40.9230 C   0  0  0  0  0  0  0  0  0  0  0  0
   40.3690   27.4470   40.8200 C   0  0  0  0  0  0  0  0  0  0  0  0
   40.6050   27.1610   39.7760 H   0  0  0  0  0  0  0  0  0  0  0  0
   41.3730   27.4860   41.7620 C   0  0  0  0  0  0  0  0  0  0  0  0
   42.3630   27.2700   41.4240 H   0  0  0  0  0  0  0  0  0  0  0  0
   40.8450   27.8080   42.9740 C   0  0  0  0  0  3  0  0  0  0  0  0
   39.5480   28.0600   43.2590 C   0  0  0  0  0  3  0  0  0  0  0  0
   36.8210   29.5710   42.7910 N   0  0  0  0  0  0  0  0  0  0  0  0
   37.2830   28.3630   42.8180 C   0  0  0  0  0  0  0  0  0  0  0  0
   36.3140   27.5230   43.4230 N   0  0  0  0  0  0  0  0  0  0  0  0
   35.8680   29.6810   43.2020 H   0  0  0  0  0  0  0  0  0  0  0  0
   35.3170   27.4760   43.1200 H   0  0  0  0  0  0  0  0  0  0  0  0
   35.8710   26.8250   44.0540 H   0  0  0  0  0  0  0  0  0  0  0  0
   36.6910   30.4480   39.5040 C   0  0  0  0  0  0  0  0  0  0  0  0
   35.6670   30.3320   40.2500 O   0  0  0  0  0  0  0  0  0  0  0  0
   37.7270   31.4100   39.7630 C   0  0  0  0  0  0  0  0  0  0  0  0
   37.3150   32.7870   39.7650 C   0  0  0  0  0  0  0  0  0  0  0  0
   38.2950   33.7310   40.0220 C   0  0  0  0  0  0  0  0  0  0  0  0
   39.5670   33.3040   40.2510 N   0  0  0  0  0  0  0  0  0  0  0  0
   39.9070   31.9740   40.2370 C   0  0  0  0  0  0  0  0  0  0  0  0
   38.9990   31.0940   39.9990 N   0  0  0  0  0  0  0  0  0  0  0  0
   36.3560   33.1990   39.5970 H   0  0  0  0  0  0  0  0  0  0  0  0
   38.1200   34.7960   40.0520 H   0  0  0  0  0  0  0  0  0  0  0  0
   41.3130   31.6060   40.5050 C   0  0  1  0  0  0  0  0  0  0  0  0
   42.1710   32.5240   41.3420 C   0  0  0  0  0  0  0  0  0  0  0  0
   41.6000   31.2520   41.9210 C   0  0  1  0  0  0  0  0  0  0  0  0
   41.8630   31.0900   39.7210 H   0  0  0  0  0  0  0  0  0  0  0  0
   43.2670   32.5720   41.1410 H   0  0  0  0  0  0  0  0  0  0  0  0
   41.7630   33.5090   41.6680 H   0  0  0  0  0  0  0  0  0  0  0  0
   42.2750   30.3910   42.0810 H   0  0  0  0  0  0  0  0  0  0  0  0
   40.6110   31.4900   42.9470 N   0  0  0  0  0  0  0  0  0  0  0  0
   39.7200   31.0060   42.8030 H   0  0  0  0  0  0  0  0  0  0  0  0
   40.5420   32.4660   43.2740 H   0  0  0  0  0  0  0  0  0  0  0  0
  1 11  1  0  0  0  0
  2  1  1  0  0  0  0
  2 28  1  0  0  0  0
  3  2  2  0  0  0  0
  4  5  2  0  0  0  0
  4  3  1  0  0  0  0
  5  6  1  0  0  0  0
  6 10  1  0  0  0  0
  6  1  2  0  0  0  0
  7  3  1  0  0  0  0
  8  4  1  0  0  0  0
  9  5  1  0  0  0  0
 11 13  2  0  0  0  0
 11 15  1  0  0  0  0
 12 11  2  0  0  0  0
 14 23  1  0  0  0  0
 14 21  1  0  0  0  0
 15 14  2  0  0  0  0
 16 15  1  0  0  0  0
 16 18  2  0  0  0  0
 17 16  1  0  0  0  0
 18 20  1  0  0  0  0
 19 18  1  0  0  0  0
 20 21  2  0  0  0  0
 22 23  2  0  0  0  0
 22 25  1  0  0  0  0
 23 24  1  0  0  0  0
 24 27  1  0  0  0  0
 26 24  1  0  0  0  0
 28 30  1  0  0  0  0
 28 29  2  0  0  0  0
 30 31  2  0  0  0  0
 30 35  1  0  0  0  0
 31 32  1  0  0  0  0
 32 37  1  0  0  0  0
 32 33  2  0  0  0  0
 34 33  1  0  0  0  0
 34 38  1  0  0  0  0
 35 34  2  0  0  0  0
 36 31  1  0  0  0  0
 38 41  1  6  0  0  0
 38 39  1  0  0  0  0
 38 40  1  0  0  0  0
 39 43  1  0  0  0  0
 39 40  1  0  0  0  0
 40 44  1  1  0  0  0
 40 45  1  0  0  0  0
 42 39  1  0  0  0  0
 45 47  1  0  0  0  0
 46 45  1  0  0  0  0
M  END
>  <minimizedAffinity>
-6.14011145

$$$$
