
 OpenBabel03242523333D

 42 45  0  0  0  0  0  0  0  0999 V2000
   44.4800   36.0630   44.7030 C   0  0  0  0  0  0  0  0  0  0  0  0
   45.2200   35.8810   43.5140 C   0  0  0  0  0  0  0  0  0  0  0  0
   46.0720   34.7770   43.4080 C   0  0  0  0  0  0  0  0  0  0  0  0
   46.1660   33.9060   44.4580 N   0  0  0  0  0  0  0  0  0  0  0  0
   45.4350   34.1240   45.5800 C   0  0  0  0  0  0  0  0  0  0  0  0
   44.6030   35.1910   45.6960 N   0  0  0  0  0  0  0  0  0  0  0  0
   43.7940   36.8720   44.9010 H   0  0  0  0  0  0  0  0  0  0  0  0
   44.9890   36.6810   42.8370 H   0  0  0  0  0  0  0  0  0  0  0  0
   46.3060   33.9700   41.1040 C   0  0  0  0  0  0  0  0  0  0  0  0
   46.7930   34.6990   42.1560 C   0  0  0  0  0  0  0  0  0  0  0  0
   47.9740   35.3210   41.9210 C   0  0  0  0  0  0  0  0  0  0  0  0
   48.4590   35.9260   42.6720 H   0  0  0  0  0  0  0  0  0  0  0  0
   48.6880   35.2740   40.7480 C   0  0  0  0  0  0  0  0  0  0  0  0
   49.6260   35.7860   40.6070 H   0  0  0  0  0  0  0  0  0  0  0  0
   48.1810   34.5280   39.6790 C   0  0  0  0  0  3  0  0  0  0  0  0
   46.9840   33.8850   39.8890 C   0  0  0  0  0  3  0  0  0  0  0  0
   43.8630   33.2020   40.7630 N   0  0  0  0  0  0  0  0  0  0  0  0
   45.1220   33.1590   41.0850 C   0  0  0  0  0  0  0  0  0  0  0  0
   45.1550   31.7970   41.4810 N   0  0  0  0  0  0  0  0  0  0  0  0
   43.4110   34.0740   40.4030 H   0  0  0  0  0  0  0  0  0  0  0  0
   45.0900   30.8010   41.7830 H   0  0  0  0  0  0  0  0  0  0  0  0
   46.0070   31.1660   41.5540 H   0  0  0  0  0  0  0  0  0  0  0  0
   45.5880   33.1170   46.6550 C   0  0  0  0  0  0  0  0  0  0  0  0
   44.6010   32.7480   47.0240 H   0  0  0  0  0  0  0  0  0  0  0  0
   46.0390   33.6410   47.5160 H   0  0  0  0  0  0  0  0  0  0  0  0
   46.5980   31.7710   46.0190 S   0  0  0  0  0  0  0  0  0  0  0  0
   47.6420   31.1100   47.3010 C   0  0  0  0  0  0  0  0  0  0  0  0
   47.9710   31.9420   48.3420 C   0  0  0  0  0  0  0  0  0  0  0  0
   48.7610   31.4390   49.3510 C   0  0  0  0  0  0  0  0  0  0  0  0
   49.2290   30.1280   49.3450 C   0  0  0  0  0  0  0  0  0  0  0  0
   49.9990   29.6760   50.3530 N   0  0  0  0  0  0  0  0  0  0  0  0
   50.4550   28.4010   50.3500 C   0  0  0  0  0  0  0  0  0  0  0  0
   50.1280   27.5790   49.3140 C   0  0  0  0  0  0  0  0  0  0  0  0
   49.3360   28.0420   48.2750 C   0  0  0  0  0  0  0  0  0  0  0  0
   48.8560   29.3570   48.2680 C   0  0  0  0  0  0  0  0  0  0  0  0
   48.0660   29.8070   47.2270 C   0  0  0  0  0  0  0  0  0  0  0  0
   47.7060   32.9680   48.5070 H   0  0  0  0  0  0  0  0  0  0  0  0
   49.0770   32.0310   50.2250 H   0  0  0  0  0  0  0  0  0  0  0  0
   51.0810   28.0080   51.1530 H   0  0  0  0  0  0  0  0  0  0  0  0
   50.4310   26.5480   49.2010 H   0  0  0  0  0  0  0  0  0  0  0  0
   49.0490   27.4300   47.4340 H   0  0  0  0  0  0  0  0  0  0  0  0
   47.7940   29.1720   46.3960 H   0  0  0  0  0  0  0  0  0  0  0  0
  1  7  1  0  0  0  0
  1  6  1  0  0  0  0
  2  1  2  0  0  0  0
  3  2  1  0  0  0  0
  3  4  2  0  0  0  0
  4  5  1  0  0  0  0
  5  6  2  0  0  0  0
  5 23  1  0  0  0  0
  8  2  1  0  0  0  0
  9 10  1  0  0  0  0
 10  3  1  0  0  0  0
 11 10  2  0  0  0  0
 11 12  1  0  0  0  0
 13 11  1  0  0  0  0
 14 13  1  0  0  0  0
 15 16  1  0  0  0  0
 15 13  2  0  0  0  0
 16  9  2  0  0  0  0
 17 18  2  0  0  0  0
 18  9  1  0  0  0  0
 18 19  1  0  0  0  0
 19 22  1  0  0  0  0
 19 21  1  0  0  0  0
 20 17  1  0  0  0  0
 23 24  1  0  0  0  0
 23 25  1  0  0  0  0
 26 23  1  0  0  0  0
 26 27  1  0  0  0  0
 27 28  1  0  0  0  0
 28 37  1  0  0  0  0
 28 29  2  0  0  0  0
 29 38  1  0  0  0  0
 30 29  1  0  0  0  0
 30 31  1  0  0  0  0
 32 31  2  0  0  0  0
 32 39  1  0  0  0  0
 33 32  1  0  0  0  0
 34 33  2  0  0  0  0
 35 34  1  0  0  0  0
 35 30  2  0  0  0  0
 36 27  2  0  0  0  0
 36 35  1  0  0  0  0
 40 33  1  0  0  0  0
 41 34  1  0  0  0  0
 42 36  1  0  0  0  0
M  END
>  <minimizedAffinity>
-6.81530523

>  <minimizedRMSD>
0.672323525

$$$$
