REMARK  Name = 
REMARK  3 active torsions:
REMARK  status: ('A' for Active; 'I' for Inactive)
REMARK    1  A    between atoms: C_1  and  C_7
REMARK    2  A    between atoms: C_7  and  C_17
REMARK    3  A    between atoms: C_14  and  C_16
REMARK                            x       y       z     vdW  Elec       q    Type
REMARK                         _______ _______ _______ _____ _____    ______ ____
ROOT
ATOM      1  C   UNL     1      44.183  34.702  41.240  0.00  0.00    +0.000 A 
ATOM      2  C   UNL     1      43.819  35.540  42.275  0.00  0.00    +0.000 A 
ATOM      3  C   UNL     1      42.487  35.801  42.522  0.00  0.00    +0.000 A 
ATOM      4  H   UNL     1      42.247  36.465  43.345  0.00  0.00    +0.000 HD
ATOM      5  C   UNL     1      41.497  35.221  41.727  0.00  0.00    +0.000 A 
ATOM      6  H   UNL     1      40.489  35.459  41.966  0.00  0.00    +0.000 HD
ATOM      7  C   UNL     1      41.900  34.377  40.689  0.00  0.00    +0.000 A 
ATOM      8  C   UNL     1      43.235  34.102  40.425  0.00  0.00    +0.000 A 
ENDROOT
BRANCH   1  10
ATOM      9  N   UNL     1      45.998  33.268  40.363  0.00  0.00    +0.000 NA
ATOM     10  C   UNL     1      45.576  34.356  40.890  0.00  0.00    +0.000 C 
ATOM     11  N   UNL     1      46.757  35.132  41.051  0.00  0.00    +0.000 N 
ATOM     12  H   UNL     1      45.315  32.495  40.131  0.00  0.00    +0.000 HD
ATOM     13  H   UNL     1      47.448  35.373  41.794  0.00  0.00    +0.000 HD
ATOM     14  H   UNL     1      47.199  35.693  40.288  0.00  0.00    +0.000 HD
ENDBRANCH   1  10
BRANCH   2  15
ATOM     15  C   UNL     1      44.902  36.135  43.093  0.00  0.00    +0.000 C 
ATOM     16  H   UNL     1      44.491  36.979  43.690  0.00  0.00    +0.000 HD
ATOM     17  H   UNL     1      45.709  36.557  42.482  0.00  0.00    +0.000 HD
BRANCH  15  18
ATOM     18  C   UNL     1      45.440  35.063  44.001  0.00  0.00    +0.000 A 
ATOM     19  C   UNL     1      46.495  34.297  43.511  0.00  0.00    +0.000 A 
ATOM     20  C   UNL     1      47.025  33.287  44.326  0.00  0.00    +0.000 A 
ATOM     21  N   UNL     1      46.458  33.126  45.560  0.00  0.00    +0.000 NA
ATOM     22  C   UNL     1      45.431  33.895  45.996  0.00  0.00    +0.000 A 
ATOM     23  N   UNL     1      44.914  34.871  45.216  0.00  0.00    +0.000 NA
ATOM     24  H   UNL     1      46.882  34.495  42.519  0.00  0.00    +0.000 HD
ATOM     25  H   UNL     1      47.838  32.678  43.981  0.00  0.00    +0.000 HD
ATOM     26  H   UNL     1      45.031  33.710  46.987  0.00  0.00    +0.000 HD
ENDBRANCH  15  18
ENDBRANCH   2  15
TORSDOF 3
