
 OpenBabel03242511153D

 49 53  0  0  1  0  0  0  0  0999 V2000
   37.8080   31.7720   39.1840 C   0  0  1  0  0  0  0  0  0  0  0  0
   38.4420   30.8660   38.1400 C   0  0  0  0  0  0  0  0  0  0  0  0
   38.2860   30.4580   39.6190 C   0  0  2  0  0  0  0  0  0  0  0  0
   36.7180   31.8930   39.1290 H   0  0  0  0  0  0  0  0  0  0  0  0
   39.4250   31.1790   37.7890 H   0  0  0  0  0  0  0  0  0  0  0  0
   37.7680   30.3590   37.4130 H   0  0  0  0  0  0  0  0  0  0  0  0
   39.2630   30.2940   40.1220 H   0  0  0  0  0  0  0  0  0  0  0  0
   38.4900   35.2570   40.2100 C   0  0  0  0  0  0  0  0  0  0  0  0
   39.9250   35.2470   40.3240 C   0  0  0  0  0  0  0  0  0  0  0  0
   40.6030   34.0480   40.0480 C   0  0  0  0  0  0  0  0  0  0  0  0
   39.8790   32.9980   39.7010 N   0  0  0  0  0  0  0  0  0  0  0  0
   38.5410   33.0150   39.5980 C   0  0  0  0  0  0  0  0  0  0  0  0
   37.8290   34.1500   39.8530 N   0  0  0  0  0  0  0  0  0  0  0  0
   37.9100   36.1430   40.4070 H   0  0  0  0  0  0  0  0  0  0  0  0
   40.3020   36.1860   40.6130 H   0  0  0  0  0  0  0  0  0  0  0  0
   42.8840   33.9030   39.0990 C   0  0  0  0  0  0  0  0  0  0  0  0
   42.0460   34.0810   40.1750 C   0  0  0  0  0  0  0  0  0  0  0  0
   42.7010   34.2950   41.3580 C   0  0  0  0  0  0  0  0  0  0  0  0
   42.1790   34.4490   42.2780 H   0  0  0  0  0  0  0  0  0  0  0  0
   44.0690   34.3250   41.4550 C   0  0  0  0  0  0  0  0  0  0  0  0
   44.5600   34.4930   42.3990 H   0  0  0  0  0  0  0  0  0  0  0  0
   44.8830   34.1440   40.3680 C   0  0  0  0  0  3  0  0  0  0  0  0
   44.2750   33.9270   39.1580 C   0  0  0  0  0  3  0  0  0  0  0  0
   41.6690   33.0210   36.9280 N   0  0  0  0  0  0  0  0  0  0  0  0
   42.3900   33.6510   37.7670 C   0  0  0  0  0  0  0  0  0  0  0  0
   42.8200   34.4240   36.6480 N   0  0  0  0  0  0  0  0  0  0  0  0
   41.7170   33.3190   35.9400 H   0  0  0  0  0  0  0  0  0  0  0  0
   42.7140   35.1450   35.8830 H   0  0  0  0  0  0  0  0  0  0  0  0
   43.7640   34.3610   36.2020 H   0  0  0  0  0  0  0  0  0  0  0  0
   37.3160   29.4430   39.9150 N   0  0  0  0  0  0  0  0  0  0  0  0
   36.6650   29.4760   39.1050 H   0  0  0  0  0  0  0  0  0  0  0  0
   37.3610   28.6810   41.0940 C   0  0  0  0  0  0  0  0  0  0  0  0
   37.5330   29.3120   42.2960 C   0  0  0  0  0  0  0  0  0  0  0  0
   37.5190   28.6380   43.5090 C   0  0  0  0  0  0  0  0  0  0  0  0
   37.3260   27.2740   43.5500 C   0  0  0  0  0  0  0  0  0  0  0  0
   37.1510   26.6150   42.3550 C   0  0  0  0  0  0  0  0  0  0  0  0
   36.9460   25.2460   42.3750 C   0  0  0  0  0  0  0  0  0  0  0  0
   36.7580   24.5370   41.2330 C   0  0  0  0  0  0  0  0  0  0  0  0
   36.7850   25.2480   40.0380 C   0  0  0  0  0  0  0  0  0  0  0  0
   36.9890   26.5970   40.0270 C   0  0  0  0  0  0  0  0  0  0  0  0
   37.1730   27.3140   41.1680 C   0  0  0  0  0  0  0  0  0  0  0  0
   37.6910   30.3690   42.3850 H   0  0  0  0  0  0  0  0  0  0  0  0
   37.6540   29.1310   44.4520 H   0  0  0  0  0  0  0  0  0  0  0  0
   37.3050   26.6960   44.4700 H   0  0  0  0  0  0  0  0  0  0  0  0
   36.9240   24.6770   43.2970 H   0  0  0  0  0  0  0  0  0  0  0  0
   36.5930   23.4640   41.2040 H   0  0  0  0  0  0  0  0  0  0  0  0
   36.6360   24.6860   39.1110 H   0  0  0  0  0  0  0  0  0  0  0  0
   37.0130   27.2460   38.8180 O   0  0  0  0  0  0  0  0  0  0  0  0
   36.2520   27.0360   38.1760 H   0  0  0  0  0  0  0  0  0  0  0  0
  1  4  1  6  0  0  0
  1 12  1  0  0  0  0
  1  3  1  0  0  0  0
  2  1  1  0  0  0  0
  2  3  1  0  0  0  0
  3 30  1  0  0  0  0
  3  7  1  1  0  0  0
  5  2  1  0  0  0  0
  6  2  1  0  0  0  0
  8  9  1  0  0  0  0
  8 14  1  0  0  0  0
  9 15  1  0  0  0  0
 10 17  1  0  0  0  0
 10  9  2  0  0  0  0
 11 10  1  0  0  0  0
 12 11  2  0  0  0  0
 12 13  1  0  0  0  0
 13  8  2  0  0  0  0
 16 23  2  0  0  0  0
 16 17  1  0  0  0  0
 17 18  2  0  0  0  0
 18 20  1  0  0  0  0
 18 19  1  0  0  0  0
 20 21  1  0  0  0  0
 22 20  2  0  0  0  0
 23 22  1  0  0  0  0
 24 25  2  0  0  0  0
 25 16  1  0  0  0  0
 26 25  1  0  0  0  0
 27 24  1  0  0  0  0
 28 26  1  0  0  0  0
 29 26  1  0  0  0  0
 30 32  1  0  0  0  0
 31 30  1  0  0  0  0
 32 41  2  0  0  0  0
 32 33  1  0  0  0  0
 33 42  1  0  0  0  0
 33 34  2  0  0  0  0
 34 35  1  0  0  0  0
 34 43  1  0  0  0  0
 35 44  1  0  0  0  0
 36 37  1  0  0  0  0
 36 35  2  0  0  0  0
 37 45  1  0  0  0  0
 38 37  2  0  0  0  0
 39 38  1  0  0  0  0
 40 39  2  0  0  0  0
 40 41  1  0  0  0  0
 41 36  1  0  0  0  0
 46 38  1  0  0  0  0
 47 39  1  0  0  0  0
 48 40  1  0  0  0  0
 49 48  1  0  0  0  0
M  END
>  <minimizedAffinity>
-8.09162998

$$$$

 OpenBabel03242511153D

 49 53  0  0  1  0  0  0  0  0999 V2000
   37.3630   32.0520   39.4450 C   0  0  1  0  0  0  0  0  0  0  0  0
   37.3290   31.2920   38.1280 C   0  0  0  0  0  0  0  0  0  0  0  0
   37.7480   30.6390   39.4600 C   0  0  2  0  0  0  0  0  0  0  0  0
   36.3910   32.2900   39.8970 H   0  0  0  0  0  0  0  0  0  0  0  0
   38.1080   31.5640   37.4150 H   0  0  0  0  0  0  0  0  0  0  0  0
   36.3350   30.9970   37.7230 H   0  0  0  0  0  0  0  0  0  0  0  0
   38.8020   30.2880   39.4510 H   0  0  0  0  0  0  0  0  0  0  0  0
   38.9530   35.2850   40.2700 C   0  0  0  0  0  0  0  0  0  0  0  0
   40.3280   35.0220   39.9360 C   0  0  0  0  0  0  0  0  0  0  0  0
   40.6590   33.7480   39.4460 C   0  0  0  0  0  0  0  0  0  0  0  0
   39.6830   32.8640   39.3200 N   0  0  0  0  0  0  0  0  0  0  0  0
   38.4030   33.1180   39.6340 C   0  0  0  0  0  0  0  0  0  0  0  0
   38.0230   34.3360   40.1140 N   0  0  0  0  0  0  0  0  0  0  0  0
   38.6330   36.2400   40.6500 H   0  0  0  0  0  0  0  0  0  0  0  0
   40.9420   35.8590   40.1110 H   0  0  0  0  0  0  0  0  0  0  0  0
   42.9860   33.1860   40.0770 C   0  0  0  0  0  0  0  0  0  0  0  0
   42.0530   33.5240   39.1230 C   0  0  0  0  0  0  0  0  0  0  0  0
   42.5670   33.6220   37.8570 C   0  0  0  0  0  0  0  0  0  0  0  0
   41.9600   33.8780   37.0150 H   0  0  0  0  0  0  0  0  0  0  0  0
   43.8910   33.4030   37.5730 C   0  0  0  0  0  0  0  0  0  0  0  0
   44.2700   33.4890   36.5690 H   0  0  0  0  0  0  0  0  0  0  0  0
   44.8000   33.0680   38.5410 C   0  0  0  0  0  3  0  0  0  0  0  0
   44.3360   32.9560   39.8260 C   0  0  0  0  0  3  0  0  0  0  0  0
   42.1680   32.4060   42.4620 N   0  0  0  0  0  0  0  0  0  0  0  0
   42.6480   33.0470   41.4720 C   0  0  0  0  0  0  0  0  0  0  0  0
   42.9270   34.0770   42.4180 N   0  0  0  0  0  0  0  0  0  0  0  0
   42.1950   32.8660   43.3860 H   0  0  0  0  0  0  0  0  0  0  0  0
   43.4430   34.5250   43.2250 H   0  0  0  0  0  0  0  0  0  0  0  0
   42.4120   34.9850   42.4860 H   0  0  0  0  0  0  0  0  0  0  0  0
   36.8370   29.6890   40.0330 N   0  0  0  0  0  0  0  0  0  0  0  0
   35.9790   29.7870   39.4560 H   0  0  0  0  0  0  0  0  0  0  0  0
   37.1750   28.9010   41.1460 C   0  0  0  0  0  0  0  0  0  0  0  0
   37.5490   29.5110   42.3120 C   0  0  0  0  0  0  0  0  0  0  0  0
   37.8300   28.8050   43.4740 C   0  0  0  0  0  0  0  0  0  0  0  0
   37.7400   27.4290   43.4960 C   0  0  0  0  0  0  0  0  0  0  0  0
   37.3680   26.7910   42.3350 C   0  0  0  0  0  0  0  0  0  0  0  0
   37.2620   25.4110   42.3400 C   0  0  0  0  0  0  0  0  0  0  0  0
   36.8910   24.7220   41.2310 C   0  0  0  0  0  0  0  0  0  0  0  0
   36.6240   25.4650   40.0870 C   0  0  0  0  0  0  0  0  0  0  0  0
   36.7310   26.8250   40.0910 C   0  0  0  0  0  0  0  0  0  0  0  0
   37.0980   27.5230   41.2000 C   0  0  0  0  0  0  0  0  0  0  0  0
   37.6510   30.5730   42.4120 H   0  0  0  0  0  0  0  0  0  0  0  0
   38.1220   29.2800   44.3900 H   0  0  0  0  0  0  0  0  0  0  0  0
   37.9480   26.8260   44.3770 H   0  0  0  0  0  0  0  0  0  0  0  0
   37.4690   24.8170   43.2220 H   0  0  0  0  0  0  0  0  0  0  0  0
   36.7950   23.6400   41.1920 H   0  0  0  0  0  0  0  0  0  0  0  0
   36.3250   24.9190   39.1860 H   0  0  0  0  0  0  0  0  0  0  0  0
   36.4620   27.5070   38.9300 O   0  0  0  0  0  0  0  0  0  0  0  0
   35.6010   27.2590   38.4490 H   0  0  0  0  0  0  0  0  0  0  0  0
  1  3  1  0  0  0  0
  1 12  1  0  0  0  0
  1  4  1  1  0  0  0
  2  1  1  0  0  0  0
  2  3  1  0  0  0  0
  3  7  1  1  0  0  0
  3 30  1  0  0  0  0
  5  2  1  0  0  0  0
  6  2  1  0  0  0  0
  8 14  1  0  0  0  0
  9 15  1  0  0  0  0
  9  8  2  0  0  0  0
 10  9  1  0  0  0  0
 11 10  2  0  0  0  0
 11 12  1  0  0  0  0
 12 13  2  0  0  0  0
 13  8  1  0  0  0  0
 16 25  1  0  0  0  0
 17 10  1  0  0  0  0
 17 16  2  0  0  0  0
 18 17  1  0  0  0  0
 19 18  1  0  0  0  0
 20 18  2  0  0  0  0
 20 22  1  0  0  0  0
 21 20  1  0  0  0  0
 22 23  2  0  0  0  0
 23 16  1  0  0  0  0
 24 27  1  0  0  0  0
 25 26  1  0  0  0  0
 25 24  2  0  0  0  0
 26 29  1  0  0  0  0
 26 28  1  0  0  0  0
 30 32  1  0  0  0  0
 31 30  1  0  0  0  0
 32 41  2  0  0  0  0
 32 33  1  0  0  0  0
 33 42  1  0  0  0  0
 33 34  2  0  0  0  0
 34 35  1  0  0  0  0
 34 43  1  0  0  0  0
 35 44  1  0  0  0  0
 36 37  1  0  0  0  0
 36 35  2  0  0  0  0
 37 45  1  0  0  0  0
 38 37  2  0  0  0  0
 39 40  2  0  0  0  0
 39 38  1  0  0  0  0
 40 41  1  0  0  0  0
 41 36  1  0  0  0  0
 46 38  1  0  0  0  0
 47 39  1  0  0  0  0
 48 40  1  0  0  0  0
 49 48  1  0  0  0  0
M  END
>  <minimizedAffinity>
-7.6342144

$$$$

 OpenBabel03242511153D

 49 53  0  0  1  0  0  0  0  0999 V2000
   36.6550   29.7450   40.6470 C   0  0  1  0  0  0  0  0  0  0  0  0
   35.2590   29.1400   40.6270 C   0  0  0  0  0  0  0  0  0  0  0  0
   36.5390   28.2880   40.7410 C   0  0  2  0  0  0  0  0  0  0  0  0
   36.9490   30.2650   41.5680 H   0  0  0  0  0  0  0  0  0  0  0  0
   34.7480   29.1830   39.6650 H   0  0  0  0  0  0  0  0  0  0  0  0
   34.6410   29.2290   41.5480 H   0  0  0  0  0  0  0  0  0  0  0  0
   36.6750   27.6030   39.8770 H   0  0  0  0  0  0  0  0  0  0  0  0
   36.9870   30.7500   37.1060 C   0  0  0  0  0  0  0  0  0  0  0  0
   38.1930   31.5350   37.1420 C   0  0  0  0  0  0  0  0  0  0  0  0
   38.8430   31.6930   38.3770 C   0  0  0  0  0  0  0  0  0  0  0  0
   38.3060   31.1100   39.4340 N   0  0  0  0  0  0  0  0  0  0  0  0
   37.1810   30.3790   39.3920 C   0  0  0  0  0  0  0  0  0  0  0  0
   36.5070   30.1910   38.2220 N   0  0  0  0  0  0  0  0  0  0  0  0
   36.4410   30.5900   36.1920 H   0  0  0  0  0  0  0  0  0  0  0  0
   38.4460   31.9100   36.1910 H   0  0  0  0  0  0  0  0  0  0  0  0
   40.3810   33.3410   39.4010 C   0  0  0  0  0  0  0  0  0  0  0  0
   40.0530   32.4910   38.3700 C   0  0  0  0  0  0  0  0  0  0  0  0
   40.9710   32.4720   37.3540 C   0  0  0  0  0  0  0  0  0  0  0  0
   40.8480   31.8590   36.4870 H   0  0  0  0  0  0  0  0  0  0  0  0
   42.1120   33.2340   37.3700 C   0  0  0  0  0  0  0  0  0  0  0  0
   42.8170   33.2020   36.5560 H   0  0  0  0  0  0  0  0  0  0  0  0
   42.4170   34.0730   38.4080 C   0  0  0  0  0  3  0  0  0  0  0  0
   41.5290   34.1280   39.4510 C   0  0  0  0  0  3  0  0  0  0  0  0
   38.6020   34.0920   41.2010 N   0  0  0  0  0  0  0  0  0  0  0  0
   39.5370   33.5140   40.5580 C   0  0  0  0  0  0  0  0  0  0  0  0
   39.6610   32.6800   41.7090 N   0  0  0  0  0  0  0  0  0  0  0  0
   38.3850   33.7390   42.1460 H   0  0  0  0  0  0  0  0  0  0  0  0
   39.3630   31.9160   42.3760 H   0  0  0  0  0  0  0  0  0  0  0  0
   40.4450   32.7210   42.3980 H   0  0  0  0  0  0  0  0  0  0  0  0
   36.7950   27.6640   42.0080 N   0  0  0  0  0  0  0  0  0  0  0  0
   36.3820   28.3230   42.6980 H   0  0  0  0  0  0  0  0  0  0  0  0
   37.4870   26.4470   42.1210 C   0  0  0  0  0  0  0  0  0  0  0  0
   36.9410   25.3120   41.5860 C   0  0  0  0  0  0  0  0  0  0  0  0
   37.5930   24.0870   41.5950 C   0  0  0  0  0  0  0  0  0  0  0  0
   38.8470   23.9650   42.1560 C   0  0  0  0  0  0  0  0  0  0  0  0
   39.4180   25.0920   42.7020 C   0  0  0  0  0  0  0  0  0  0  0  0
   40.6800   24.9920   43.2610 C   0  0  0  0  0  0  0  0  0  0  0  0
   41.3030   26.0680   43.8080 C   0  0  0  0  0  0  0  0  0  0  0  0
   40.6140   27.2750   43.7840 C   0  0  0  0  0  0  0  0  0  0  0  0
   39.3700   27.3640   43.2310 C   0  0  0  0  0  0  0  0  0  0  0  0
   38.7420   26.2920   42.6780 C   0  0  0  0  0  0  0  0  0  0  0  0
   35.9740   25.2880   41.1240 H   0  0  0  0  0  0  0  0  0  0  0  0
   37.1680   23.1960   41.1770 H   0  0  0  0  0  0  0  0  0  0  0  0
   39.4040   23.0320   42.1900 H   0  0  0  0  0  0  0  0  0  0  0  0
   41.2290   24.0590   43.2890 H   0  0  0  0  0  0  0  0  0  0  0  0
   42.2920   26.0340   44.2560 H   0  0  0  0  0  0  0  0  0  0  0  0
   41.1070   28.1480   44.2240 H   0  0  0  0  0  0  0  0  0  0  0  0
   38.7330   28.5800   43.2430 O   0  0  0  0  0  0  0  0  0  0  0  0
   39.2780   29.3790   42.9260 H   0  0  0  0  0  0  0  0  0  0  0  0
  1  3  1  0  0  0  0
  1  4  1  1  0  0  0
  2  1  1  0  0  0  0
  2  3  1  0  0  0  0
  2  6  1  0  0  0  0
  3  7  1  6  0  0  0
  3 30  1  0  0  0  0
  5  2  1  0  0  0  0
  8  9  2  0  0  0  0
  8 13  1  0  0  0  0
  9 10  1  0  0  0  0
 10 11  2  0  0  0  0
 12 11  1  0  0  0  0
 12  1  1  0  0  0  0
 13 12  2  0  0  0  0
 14  8  1  0  0  0  0
 15  9  1  0  0  0  0
 16 23  1  0  0  0  0
 16 25  1  0  0  0  0
 17 10  1  0  0  0  0
 17 16  2  0  0  0  0
 18 20  2  0  0  0  0
 18 17  1  0  0  0  0
 19 18  1  0  0  0  0
 20 22  1  0  0  0  0
 21 20  1  0  0  0  0
 22 23  2  0  0  0  0
 24 27  1  0  0  0  0
 25 24  2  0  0  0  0
 25 26  1  0  0  0  0
 26 28  1  0  0  0  0
 26 29  1  0  0  0  0
 30 32  1  0  0  0  0
 30 31  1  0  0  0  0
 32 41  1  0  0  0  0
 33 34  1  0  0  0  0
 33 32  2  0  0  0  0
 34 35  2  0  0  0  0
 35 44  1  0  0  0  0
 35 36  1  0  0  0  0
 36 37  1  0  0  0  0
 37 45  1  0  0  0  0
 37 38  2  0  0  0  0
 38 46  1  0  0  0  0
 39 38  1  0  0  0  0
 39 47  1  0  0  0  0
 40 48  1  0  0  0  0
 40 39  2  0  0  0  0
 41 36  2  0  0  0  0
 41 40  1  0  0  0  0
 42 33  1  0  0  0  0
 43 34  1  0  0  0  0
 49 48  1  0  0  0  0
M  END
>  <minimizedAffinity>
-7.43787622

$$$$

 OpenBabel03242511153D

 49 53  0  0  1  0  0  0  0  0999 V2000
   38.2320   30.0750   37.5980 C   0  0  1  0  0  0  0  0  0  0  0  0
   37.8250   31.5230   37.3670 C   0  0  0  0  0  0  0  0  0  0  0  0
   39.1850   31.1230   37.9710 C   0  0  2  0  0  0  0  0  0  0  0  0
   38.4850   29.4900   36.7050 H   0  0  0  0  0  0  0  0  0  0  0  0
   37.0500   31.8990   38.0360 H   0  0  0  0  0  0  0  0  0  0  0  0
   37.8410   31.9070   36.3220 H   0  0  0  0  0  0  0  0  0  0  0  0
   39.3180   31.4940   39.0100 H   0  0  0  0  0  0  0  0  0  0  0  0
   35.5350   28.6510   39.6860 C   0  0  0  0  0  0  0  0  0  0  0  0
   36.2860   27.8630   40.6280 C   0  0  0  0  0  0  0  0  0  0  0  0
   37.6860   27.8470   40.5090 C   0  0  0  0  0  0  0  0  0  0  0  0
   38.2300   28.5580   39.5370 N   0  0  0  0  0  0  0  0  0  0  0  0
   37.5220   29.2900   38.6630 C   0  0  0  0  0  0  0  0  0  0  0  0
   36.1610   29.3440   38.7290 N   0  0  0  0  0  0  0  0  0  0  0  0
   34.4600   28.7060   39.7220 H   0  0  0  0  0  0  0  0  0  0  0  0
   35.6610   27.3750   41.3190 H   0  0  0  0  0  0  0  0  0  0  0  0
   38.7230   27.5060   42.7310 C   0  0  0  0  0  0  0  0  0  0  0  0
   38.4040   27.0410   41.4760 C   0  0  0  0  0  0  0  0  0  0  0  0
   38.8240   25.7600   41.2370 C   0  0  0  0  0  0  0  0  0  0  0  0
   38.6470   25.2670   40.3040 H   0  0  0  0  0  0  0  0  0  0  0  0
   39.5000   25.0130   42.1680 C   0  0  0  0  0  0  0  0  0  0  0  0
   39.8210   24.0070   41.9540 H   0  0  0  0  0  0  0  0  0  0  0  0
   39.8060   25.4980   43.4120 C   0  0  0  0  0  3  0  0  0  0  0  0
   39.4070   26.7780   43.7020 C   0  0  0  0  0  3  0  0  0  0  0  0
   38.5900   30.0890   43.2560 N   0  0  0  0  0  0  0  0  0  0  0  0
   38.3810   28.8360   43.1730 C   0  0  0  0  0  0  0  0  0  0  0  0
   37.2090   29.0930   43.9440 N   0  0  0  0  0  0  0  0  0  0  0  0
   37.9010   30.6530   43.7790 H   0  0  0  0  0  0  0  0  0  0  0  0
   36.2300   29.4550   44.1090 H   0  0  0  0  0  0  0  0  0  0  0  0
   37.0840   28.8350   44.9490 H   0  0  0  0  0  0  0  0  0  0  0  0
   40.3450   31.3140   37.1470 N   0  0  0  0  0  0  0  0  0  0  0  0
   40.2110   30.6400   36.3670 H   0  0  0  0  0  0  0  0  0  0  0  0
   41.3580   32.2300   37.4760 C   0  0  0  0  0  0  0  0  0  0  0  0
   41.0460   33.3420   38.2090 C   0  0  0  0  0  0  0  0  0  0  0  0
   42.0010   34.2560   38.6330 C   0  0  0  0  0  0  0  0  0  0  0  0
   43.3320   34.0720   38.3230 C   0  0  0  0  0  0  0  0  0  0  0  0
   43.6720   32.9620   37.5850 C   0  0  0  0  0  0  0  0  0  0  0  0
   45.0040   32.7550   37.2720 C   0  0  0  0  0  0  0  0  0  0  0  0
   45.4070   31.6750   36.5550 C   0  0  0  0  0  0  0  0  0  0  0  0
   44.4200   30.7860   36.1450 C   0  0  0  0  0  0  0  0  0  0  0  0
   43.1090   30.9980   36.4570 C   0  0  0  0  0  0  0  0  0  0  0  0
   42.6990   32.0760   37.1790 C   0  0  0  0  0  0  0  0  0  0  0  0
   40.0460   33.5860   38.5080 H   0  0  0  0  0  0  0  0  0  0  0  0
   41.7600   35.1280   39.2080 H   0  0  0  0  0  0  0  0  0  0  0  0
   44.1210   34.7550   38.6290 H   0  0  0  0  0  0  0  0  0  0  0  0
   45.7850   33.4390   37.5820 H   0  0  0  0  0  0  0  0  0  0  0  0
   46.4410   31.4740   36.2890 H   0  0  0  0  0  0  0  0  0  0  0  0
   44.7340   29.9130   35.5640 H   0  0  0  0  0  0  0  0  0  0  0  0
   42.1760   30.0920   36.0190 O   0  0  0  0  0  0  0  0  0  0  0  0
   42.3860   29.1100   36.1860 H   0  0  0  0  0  0  0  0  0  0  0  0
  1  4  1  6  0  0  0
  1  3  1  0  0  0  0
  1 12  1  0  0  0  0
  2  1  1  0  0  0  0
  2  3  1  0  0  0  0
  2  5  1  0  0  0  0
  3  7  1  1  0  0  0
  6  2  1  0  0  0  0
  8 14  1  0  0  0  0
  8  9  1  0  0  0  0
  9 15  1  0  0  0  0
 10  9  2  0  0  0  0
 10 17  1  0  0  0  0
 11 10  1  0  0  0  0
 12 13  1  0  0  0  0
 12 11  2  0  0  0  0
 13  8  2  0  0  0  0
 16 25  1  0  0  0  0
 16 23  1  0  0  0  0
 17 16  2  0  0  0  0
 18 17  1  0  0  0  0
 18 20  2  0  0  0  0
 19 18  1  0  0  0  0
 20 22  1  0  0  0  0
 21 20  1  0  0  0  0
 22 23  2  0  0  0  0
 24 27  1  0  0  0  0
 25 24  2  0  0  0  0
 25 26  1  0  0  0  0
 26 28  1  0  0  0  0
 26 29  1  0  0  0  0
 30 32  1  0  0  0  0
 30  3  1  0  0  0  0
 31 30  1  0  0  0  0
 32 33  1  0  0  0  0
 33 42  1  0  0  0  0
 33 34  2  0  0  0  0
 34 43  1  0  0  0  0
 35 44  1  0  0  0  0
 35 34  1  0  0  0  0
 36 35  2  0  0  0  0
 37 45  1  0  0  0  0
 37 36  1  0  0  0  0
 38 37  2  0  0  0  0
 39 40  2  0  0  0  0
 39 38  1  0  0  0  0
 40 41  1  0  0  0  0
 41 32  2  0  0  0  0
 41 36  1  0  0  0  0
 46 38  1  0  0  0  0
 47 39  1  0  0  0  0
 48 49  1  0  0  0  0
 48 40  1  0  0  0  0
M  END
>  <minimizedAffinity>
-7.09651184

$$$$

 OpenBabel03242511153D

 49 53  0  0  1  0  0  0  0  0999 V2000
   34.9250   26.9810   37.3290 C   0  0  1  0  0  0  0  0  0  0  0  0
   36.0100   28.0170   37.0810 C   0  0  0  0  0  0  0  0  0  0  0  0
   35.3880   27.7740   38.4700 C   0  0  2  0  0  0  0  0  0  0  0  0
   35.2410   25.9290   37.3150 H   0  0  0  0  0  0  0  0  0  0  0  0
   35.6940   28.8940   36.5160 H   0  0  0  0  0  0  0  0  0  0  0  0
   37.0530   27.6540   36.9350 H   0  0  0  0  0  0  0  0  0  0  0  0
   34.8500   28.6650   38.8590 H   0  0  0  0  0  0  0  0  0  0  0  0
   31.6290   26.3700   35.7730 C   0  0  0  0  0  0  0  0  0  0  0  0
   31.0970   27.7060   35.6950 C   0  0  0  0  0  0  0  0  0  0  0  0
   31.8850   28.7620   36.1800 C   0  0  0  0  0  0  0  0  0  0  0  0
   33.0710   28.4650   36.6820 N   0  0  0  0  0  0  0  0  0  0  0  0
   33.5600   27.2170   36.7520 C   0  0  0  0  0  0  0  0  0  0  0  0
   32.8400   26.1520   36.2960 N   0  0  0  0  0  0  0  0  0  0  0  0
   31.0760   25.5170   35.4180 H   0  0  0  0  0  0  0  0  0  0  0  0
   30.1370   27.7210   35.2620 H   0  0  0  0  0  0  0  0  0  0  0  0
   30.6730   30.6960   37.1410 C   0  0  0  0  0  0  0  0  0  0  0  0
   31.3120   30.0890   36.0830 C   0  0  0  0  0  0  0  0  0  0  0  0
   31.3560   30.8560   34.9500 C   0  0  0  0  0  0  0  0  0  0  0  0
   31.8200   30.5150   34.0490 H   0  0  0  0  0  0  0  0  0  0  0  0
   30.8090   32.1130   34.8810 C   0  0  0  0  0  0  0  0  0  0  0  0
   30.8560   32.6940   33.9750 H   0  0  0  0  0  0  0  0  0  0  0  0
   30.1780   32.6950   35.9480 C   0  0  0  0  0  3  0  0  0  0  0  0
   30.1080   31.9680   37.1080 C   0  0  0  0  0  3  0  0  0  0  0  0
   30.9070   29.7300   39.5860 N   0  0  0  0  0  0  0  0  0  0  0  0
   30.5100   30.0480   38.4190 C   0  0  0  0  0  0  0  0  0  0  0  0
   29.3270   29.3190   38.7450 N   0  0  0  0  0  0  0  0  0  0  0  0
   30.2720   29.1610   40.1670 H   0  0  0  0  0  0  0  0  0  0  0  0
   28.4080   29.1550   39.2400 H   0  0  0  0  0  0  0  0  0  0  0  0
   29.0690   28.3860   38.3510 H   0  0  0  0  0  0  0  0  0  0  0  0
   36.2180   27.1370   39.4520 N   0  0  0  0  0  0  0  0  0  0  0  0
   36.2350   26.1410   39.1560 H   0  0  0  0  0  0  0  0  0  0  0  0
   36.7820   27.8400   40.5300 C   0  0  0  0  0  0  0  0  0  0  0  0
   36.4430   29.1500   40.7280 C   0  0  0  0  0  0  0  0  0  0  0  0
   36.9020   29.8920   41.8080 C   0  0  0  0  0  0  0  0  0  0  0  0
   37.7390   29.3210   42.7440 C   0  0  0  0  0  0  0  0  0  0  0  0
   38.0960   28.0040   42.5660 C   0  0  0  0  0  0  0  0  0  0  0  0
   38.9270   27.4100   43.5010 C   0  0  0  0  0  0  0  0  0  0  0  0
   39.3110   26.1130   43.3890 C   0  0  0  0  0  0  0  0  0  0  0  0
   38.8330   25.4060   42.2900 C   0  0  0  0  0  0  0  0  0  0  0  0
   38.0150   26.0000   41.3740 C   0  0  0  0  0  0  0  0  0  0  0  0
   37.6230   27.2980   41.4820 C   0  0  0  0  0  0  0  0  0  0  0  0
   35.8000   29.6960   40.0660 H   0  0  0  0  0  0  0  0  0  0  0  0
   36.6380   30.9190   41.9660 H   0  0  0  0  0  0  0  0  0  0  0  0
   38.1280   29.8530   43.6080 H   0  0  0  0  0  0  0  0  0  0  0  0
   39.3090   27.9470   44.3600 H   0  0  0  0  0  0  0  0  0  0  0  0
   39.9600   25.6080   44.0990 H   0  0  0  0  0  0  0  0  0  0  0  0
   39.1370   24.3590   42.1910 H   0  0  0  0  0  0  0  0  0  0  0  0
   37.5800   25.2560   40.3060 O   0  0  0  0  0  0  0  0  0  0  0  0
   37.2010   24.3360   40.5190 H   0  0  0  0  0  0  0  0  0  0  0  0
  1  4  1  6  0  0  0
  1  3  1  0  0  0  0
  2  1  1  0  0  0  0
  2  3  1  0  0  0  0
  3  7  1  1  0  0  0
  3 30  1  0  0  0  0
  5  2  1  0  0  0  0
  6  2  1  0  0  0  0
  8 13  1  0  0  0  0
  9  8  2  0  0  0  0
  9 10  1  0  0  0  0
 10 11  2  0  0  0  0
 11 12  1  0  0  0  0
 12  1  1  0  0  0  0
 13 12  2  0  0  0  0
 14  8  1  0  0  0  0
 15  9  1  0  0  0  0
 16 25  1  0  0  0  0
 17 10  1  0  0  0  0
 17 16  2  0  0  0  0
 18 17  1  0  0  0  0
 19 18  1  0  0  0  0
 20 18  2  0  0  0  0
 20 22  1  0  0  0  0
 21 20  1  0  0  0  0
 22 23  2  0  0  0  0
 23 16  1  0  0  0  0
 24 27  1  0  0  0  0
 25 26  1  0  0  0  0
 25 24  2  0  0  0  0
 26 28  1  0  0  0  0
 29 26  1  0  0  0  0
 30 32  1  0  0  0  0
 31 30  1  0  0  0  0
 32 33  2  0  0  0  0
 32 41  1  0  0  0  0
 33 34  1  0  0  0  0
 34 43  1  0  0  0  0
 34 35  2  0  0  0  0
 35 44  1  0  0  0  0
 36 35  1  0  0  0  0
 36 37  1  0  0  0  0
 37 45  1  0  0  0  0
 38 37  2  0  0  0  0
 38 46  1  0  0  0  0
 39 38  1  0  0  0  0
 40 41  1  0  0  0  0
 40 39  2  0  0  0  0
 41 36  2  0  0  0  0
 42 33  1  0  0  0  0
 47 39  1  0  0  0  0
 48 49  1  0  0  0  0
 48 40  1  0  0  0  0
M  END
>  <minimizedAffinity>
-7.08428526

$$$$

 OpenBabel03242511153D

 49 53  0  0  1  0  0  0  0  0999 V2000
   37.4100   31.6910   39.1790 C   0  0  1  0  0  0  0  0  0  0  0  0
   37.3450   30.9740   37.8390 C   0  0  0  0  0  0  0  0  0  0  0  0
   37.7480   30.2660   39.1470 C   0  0  2  0  0  0  0  0  0  0  0  0
   36.4500   31.9470   39.6430 H   0  0  0  0  0  0  0  0  0  0  0  0
   38.1280   31.2410   37.1300 H   0  0  0  0  0  0  0  0  0  0  0  0
   36.3380   30.7240   37.4320 H   0  0  0  0  0  0  0  0  0  0  0  0
   38.7900   29.8810   39.1210 H   0  0  0  0  0  0  0  0  0  0  0  0
   39.1520   34.7620   40.2720 C   0  0  0  0  0  0  0  0  0  0  0  0
   40.4710   34.5510   39.7340 C   0  0  0  0  0  0  0  0  0  0  0  0
   40.7140   33.3650   39.0210 C   0  0  0  0  0  0  0  0  0  0  0  0
   39.7130   32.5120   38.8880 N   0  0  0  0  0  0  0  0  0  0  0  0
   38.4860   32.7150   39.3930 C   0  0  0  0  0  0  0  0  0  0  0  0
   38.1920   33.8480   40.0930 N   0  0  0  0  0  0  0  0  0  0  0  0
   38.9010   35.6490   40.8270 H   0  0  0  0  0  0  0  0  0  0  0  0
   41.1170   35.3520   39.9540 H   0  0  0  0  0  0  0  0  0  0  0  0
   42.4500   32.0420   37.8550 C   0  0  0  0  0  0  0  0  0  0  0  0
   42.0530   33.1920   38.4970 C   0  0  0  0  0  0  0  0  0  0  0  0
   43.0340   34.1430   38.5860 C   0  0  0  0  0  0  0  0  0  0  0  0
   42.8700   35.0880   39.0600 H   0  0  0  0  0  0  0  0  0  0  0  0
   44.2960   33.9590   38.0800 C   0  0  0  0  0  0  0  0  0  0  0  0
   45.0500   34.7230   38.1660 H   0  0  0  0  0  0  0  0  0  0  0  0
   44.6670   32.8040   37.4450 C   0  0  0  0  0  3  0  0  0  0  0  0
   43.7200   31.8200   37.3290 C   0  0  0  0  0  3  0  0  0  0  0  0
   40.7320   30.2300   36.9990 N   0  0  0  0  0  0  0  0  0  0  0  0
   41.5680   30.9150   37.6710 C   0  0  0  0  0  0  0  0  0  0  0  0
   41.4150   29.9110   38.6730 N   0  0  0  0  0  0  0  0  0  0  0  0
   40.3680   29.3660   37.4300 H   0  0  0  0  0  0  0  0  0  0  0  0
   41.5450   28.9510   39.0960 H   0  0  0  0  0  0  0  0  0  0  0  0
   40.9040   30.0370   39.5760 H   0  0  0  0  0  0  0  0  0  0  0  0
   36.8100   29.3300   39.6980 N   0  0  0  0  0  0  0  0  0  0  0  0
   36.0120   29.3560   39.0320 H   0  0  0  0  0  0  0  0  0  0  0  0
   37.0540   28.6360   40.8940 C   0  0  0  0  0  0  0  0  0  0  0  0
   37.3180   29.3400   42.0370 C   0  0  0  0  0  0  0  0  0  0  0  0
   37.5010   28.7320   43.2710 C   0  0  0  0  0  0  0  0  0  0  0  0
   37.4200   27.3610   43.3940 C   0  0  0  0  0  0  0  0  0  0  0  0
   37.1560   26.6290   42.2590 C   0  0  0  0  0  0  0  0  0  0  0  0
   37.0610   25.2520   42.3640 C   0  0  0  0  0  0  0  0  0  0  0  0
   36.7950   24.4730   41.2850 C   0  0  0  0  0  0  0  0  0  0  0  0
   36.6240   25.1210   40.0660 C   0  0  0  0  0  0  0  0  0  0  0  0
   36.7200   26.4780   39.9720 C   0  0  0  0  0  0  0  0  0  0  0  0
   36.9830   27.2650   41.0500 C   0  0  0  0  0  0  0  0  0  0  0  0
   37.4030   30.4090   42.0610 H   0  0  0  0  0  0  0  0  0  0  0  0
   37.7080   29.2810   44.1690 H   0  0  0  0  0  0  0  0  0  0  0  0
   37.5530   26.8310   44.3350 H   0  0  0  0  0  0  0  0  0  0  0  0
   37.1930   24.7320   43.3050 H   0  0  0  0  0  0  0  0  0  0  0  0
   36.7110   23.3900   41.3230 H   0  0  0  0  0  0  0  0  0  0  0  0
   36.4100   24.5010   39.1890 H   0  0  0  0  0  0  0  0  0  0  0  0
   36.5500   27.0630   38.7420 O   0  0  0  0  0  0  0  0  0  0  0  0
   35.7360   26.7650   38.2080 H   0  0  0  0  0  0  0  0  0  0  0  0
  1 12  1  0  0  0  0
  1  4  1  1  0  0  0
  2  3  1  0  0  0  0
  2  1  1  0  0  0  0
  3  7  1  1  0  0  0
  3  1  1  0  0  0  0
  3 30  1  0  0  0  0
  5  2  1  0  0  0  0
  6  2  1  0  0  0  0
  8 14  1  0  0  0  0
  9 15  1  0  0  0  0
  9  8  2  0  0  0  0
 10  9  1  0  0  0  0
 11 10  2  0  0  0  0
 11 12  1  0  0  0  0
 12 13  2  0  0  0  0
 13  8  1  0  0  0  0
 16 17  1  0  0  0  0
 17 18  2  0  0  0  0
 17 10  1  0  0  0  0
 18 19  1  0  0  0  0
 20 21  1  0  0  0  0
 20 18  1  0  0  0  0
 22 20  2  0  0  0  0
 23 22  1  0  0  0  0
 23 16  2  0  0  0  0
 24 27  1  0  0  0  0
 24 25  2  0  0  0  0
 25 16  1  0  0  0  0
 25 26  1  0  0  0  0
 26 28  1  0  0  0  0
 26 29  1  0  0  0  0
 30 32  1  0  0  0  0
 31 30  1  0  0  0  0
 32 41  2  0  0  0  0
 32 33  1  0  0  0  0
 33 42  1  0  0  0  0
 33 34  2  0  0  0  0
 34 35  1  0  0  0  0
 34 43  1  0  0  0  0
 35 44  1  0  0  0  0
 36 37  1  0  0  0  0
 36 35  2  0  0  0  0
 37 45  1  0  0  0  0
 38 46  1  0  0  0  0
 38 37  2  0  0  0  0
 39 38  1  0  0  0  0
 40 39  2  0  0  0  0
 40 41  1  0  0  0  0
 41 36  1  0  0  0  0
 47 39  1  0  0  0  0
 48 40  1  0  0  0  0
 49 48  1  0  0  0  0
M  END
>  <minimizedAffinity>
-7.00953817

$$$$

 OpenBabel03242511153D

 49 53  0  0  1  0  0  0  0  0999 V2000
   38.0490   30.7840   37.6950 C   0  0  1  0  0  0  0  0  0  0  0  0
   37.6640   31.8880   36.7230 C   0  0  0  0  0  0  0  0  0  0  0  0
   37.7780   32.1150   38.2430 C   0  0  2  0  0  0  0  0  0  0  0  0
   39.1010   30.4710   37.6880 H   0  0  0  0  0  0  0  0  0  0  0  0
   36.6710   31.7960   36.2840 H   0  0  0  0  0  0  0  0  0  0  0  0
   38.4700   32.3320   36.0950 H   0  0  0  0  0  0  0  0  0  0  0  0
   36.8100   32.4040   38.7060 H   0  0  0  0  0  0  0  0  0  0  0  0
   35.1200   28.5580   37.3410 C   0  0  0  0  0  0  0  0  0  0  0  0
   35.3420   27.6180   38.4090 C   0  0  0  0  0  0  0  0  0  0  0  0
   36.4870   27.7820   39.2070 C   0  0  0  0  0  0  0  0  0  0  0  0
   37.2940   28.7900   38.9260 N   0  0  0  0  0  0  0  0  0  0  0  0
   37.0790   29.6620   37.9280 C   0  0  0  0  0  0  0  0  0  0  0  0
   35.9850   29.5530   37.1220 N   0  0  0  0  0  0  0  0  0  0  0  0
   34.2620   28.4890   36.6940 H   0  0  0  0  0  0  0  0  0  0  0  0
   34.5810   26.8930   38.4590 H   0  0  0  0  0  0  0  0  0  0  0  0
   36.7820   27.1840   41.5910 C   0  0  0  0  0  0  0  0  0  0  0  0
   36.6730   26.8150   40.2700 C   0  0  0  0  0  0  0  0  0  0  0  0
   36.7530   25.4640   40.0650 C   0  0  0  0  0  0  0  0  0  0  0  0
   36.6860   25.0310   39.0890 H   0  0  0  0  0  0  0  0  0  0  0  0
   36.9270   24.5650   41.0870 C   0  0  0  0  0  0  0  0  0  0  0  0
   36.9890   23.5070   40.8980 H   0  0  0  0  0  0  0  0  0  0  0  0
   37.0330   24.9580   42.3950 C   0  0  0  0  0  3  0  0  0  0  0  0
   36.9580   26.3020   42.6540 C   0  0  0  0  0  3  0  0  0  0  0  0
   36.5380   29.8040   41.8100 N   0  0  0  0  0  0  0  0  0  0  0  0
   36.7370   28.5630   42.0150 C   0  0  0  0  0  0  0  0  0  0  0  0
   37.0460   28.9470   43.3530 N   0  0  0  0  0  0  0  0  0  0  0  0
   36.6740   30.4450   42.6080 H   0  0  0  0  0  0  0  0  0  0  0  0
   36.8230   29.2850   44.3290 H   0  0  0  0  0  0  0  0  0  0  0  0
   38.0040   28.9540   43.7690 H   0  0  0  0  0  0  0  0  0  0  0  0
   38.8860   32.9010   38.7030 N   0  0  0  0  0  0  0  0  0  0  0  0
   38.8120   33.7810   38.1550 H   0  0  0  0  0  0  0  0  0  0  0  0
   39.7950   32.4300   39.6650 C   0  0  0  0  0  0  0  0  0  0  0  0
   39.3330   32.0500   40.8960 C   0  0  0  0  0  0  0  0  0  0  0  0
   40.1560   31.5100   41.8740 C   0  0  0  0  0  0  0  0  0  0  0  0
   41.5030   31.3310   41.6370 C   0  0  0  0  0  0  0  0  0  0  0  0
   41.9930   31.7080   40.4070 C   0  0  0  0  0  0  0  0  0  0  0  0
   43.3400   31.5280   40.1460 C   0  0  0  0  0  0  0  0  0  0  0  0
   43.8850   31.8700   38.9510 C   0  0  0  0  0  0  0  0  0  0  0  0
   43.0280   32.4130   37.9990 C   0  0  0  0  0  0  0  0  0  0  0  0
   41.7020   32.5870   38.2650 C   0  0  0  0  0  0  0  0  0  0  0  0
   41.1480   32.2430   39.4600 C   0  0  0  0  0  0  0  0  0  0  0  0
   38.3070   32.1410   41.1910 H   0  0  0  0  0  0  0  0  0  0  0  0
   39.7970   31.2100   42.8390 H   0  0  0  0  0  0  0  0  0  0  0  0
   42.1930   30.9130   42.3650 H   0  0  0  0  0  0  0  0  0  0  0  0
   44.0210   31.1090   40.8770 H   0  0  0  0  0  0  0  0  0  0  0  0
   44.9360   31.7450   38.7040 H   0  0  0  0  0  0  0  0  0  0  0  0
   43.4590   32.6930   37.0320 H   0  0  0  0  0  0  0  0  0  0  0  0
   40.9050   33.1350   37.2910 O   0  0  0  0  0  0  0  0  0  0  0  0
   40.9910   32.7360   36.3590 H   0  0  0  0  0  0  0  0  0  0  0  0
  1  4  1  6  0  0  0
  1 12  1  0  0  0  0
  1  3  1  0  0  0  0
  2  1  1  0  0  0  0
  2  3  1  0  0  0  0
  3 30  1  0  0  0  0
  3  7  1  1  0  0  0
  5  2  1  0  0  0  0
  6  2  1  0  0  0  0
  8  9  1  0  0  0  0
  9 15  1  0  0  0  0
  9 10  2  0  0  0  0
 10 17  1  0  0  0  0
 11 10  1  0  0  0  0
 12 11  2  0  0  0  0
 13  8  2  0  0  0  0
 13 12  1  0  0  0  0
 14  8  1  0  0  0  0
 16 25  1  0  0  0  0
 16 23  1  0  0  0  0
 17 16  2  0  0  0  0
 18 17  1  0  0  0  0
 18 20  2  0  0  0  0
 19 18  1  0  0  0  0
 20 22  1  0  0  0  0
 21 20  1  0  0  0  0
 22 23  2  0  0  0  0
 24 25  2  0  0  0  0
 24 27  1  0  0  0  0
 25 26  1  0  0  0  0
 26 29  1  0  0  0  0
 26 28  1  0  0  0  0
 30 32  1  0  0  0  0
 31 30  1  0  0  0  0
 32 33  1  0  0  0  0
 33 42  1  0  0  0  0
 33 34  2  0  0  0  0
 34 43  1  0  0  0  0
 35 34  1  0  0  0  0
 35 44  1  0  0  0  0
 36 35  2  0  0  0  0
 37 36  1  0  0  0  0
 37 45  1  0  0  0  0
 38 37  2  0  0  0  0
 39 40  2  0  0  0  0
 39 38  1  0  0  0  0
 40 41  1  0  0  0  0
 41 32  2  0  0  0  0
 41 36  1  0  0  0  0
 46 38  1  0  0  0  0
 47 39  1  0  0  0  0
 48 40  1  0  0  0  0
 49 48  1  0  0  0  0
M  END
>  <minimizedAffinity>
-6.9143815

$$$$

 OpenBabel03242511153D

 49 53  0  0  1  0  0  0  0  0999 V2000
   38.2470   28.7200   42.7140 C   0  0  1  0  0  0  0  0  0  0  0  0
   37.3590   28.3010   43.8760 C   0  0  0  0  0  0  0  0  0  0  0  0
   37.6280   27.3940   42.6590 C   0  0  2  0  0  0  0  0  0  0  0  0
   39.3270   28.7390   42.9070 H   0  0  0  0  0  0  0  0  0  0  0  0
   36.4010   28.8170   43.9370 H   0  0  0  0  0  0  0  0  0  0  0  0
   37.8540   28.0080   44.8290 H   0  0  0  0  0  0  0  0  0  0  0  0
   36.7060   27.1690   42.0810 H   0  0  0  0  0  0  0  0  0  0  0  0
   36.0810   30.7300   40.4940 C   0  0  0  0  0  0  0  0  0  0  0  0
   36.9610   31.8110   40.1350 C   0  0  0  0  0  0  0  0  0  0  0  0
   38.2610   31.8120   40.6700 C   0  0  0  0  0  0  0  0  0  0  0  0
   38.5960   30.8170   41.4720 N   0  0  0  0  0  0  0  0  0  0  0  0
   37.7690   29.8130   41.8020 C   0  0  0  0  0  0  0  0  0  0  0  0
   36.4970   29.7590   41.3140 N   0  0  0  0  0  0  0  0  0  0  0  0
   35.0740   30.6700   40.1180 H   0  0  0  0  0  0  0  0  0  0  0  0
   36.4970   32.4970   39.4860 H   0  0  0  0  0  0  0  0  0  0  0  0
   40.1070   32.7880   39.3400 C   0  0  0  0  0  0  0  0  0  0  0  0
   39.1140   32.9170   40.2840 C   0  0  0  0  0  0  0  0  0  0  0  0
   39.0130   34.1770   40.8110 C   0  0  0  0  0  0  0  0  0  0  0  0
   38.2870   34.4250   41.5560 H   0  0  0  0  0  0  0  0  0  0  0  0
   39.8300   35.2110   40.4300 C   0  0  0  0  0  0  0  0  0  0  0  0
   39.7300   36.1920   40.8620 H   0  0  0  0  0  0  0  0  0  0  0  0
   40.8120   35.0560   39.4870 C   0  0  0  0  0  3  0  0  0  0  0  0
   40.9540   33.8130   38.9280 C   0  0  0  0  0  3  0  0  0  0  0  0
   40.5550   30.2750   38.6650 N   0  0  0  0  0  0  0  0  0  0  0  0
   40.3840   31.5370   38.6770 C   0  0  0  0  0  0  0  0  0  0  0  0
   40.6170   31.4690   37.2710 N   0  0  0  0  0  0  0  0  0  0  0  0
   40.7600   29.8310   37.7560 H   0  0  0  0  0  0  0  0  0  0  0  0
   40.3750   31.2360   36.2690 H   0  0  0  0  0  0  0  0  0  0  0  0
   41.4830   31.8020   36.7890 H   0  0  0  0  0  0  0  0  0  0  0  0
   38.4590   26.2440   42.8750 N   0  0  0  0  0  0  0  0  0  0  0  0
   38.1040   25.8440   43.7660 H   0  0  0  0  0  0  0  0  0  0  0  0
   39.4970   25.8900   41.9970 C   0  0  0  0  0  0  0  0  0  0  0  0
   39.2080   25.6360   40.6840 C   0  0  0  0  0  0  0  0  0  0  0  0
   40.1850   25.3500   39.7410 C   0  0  0  0  0  0  0  0  0  0  0  0
   41.5160   25.3100   40.1000 C   0  0  0  0  0  0  0  0  0  0  0  0
   41.8320   25.5600   41.4150 C   0  0  0  0  0  0  0  0  0  0  0  0
   43.1630   25.5350   41.7940 C   0  0  0  0  0  0  0  0  0  0  0  0
   43.5440   25.7820   43.0740 C   0  0  0  0  0  0  0  0  0  0  0  0
   42.5350   26.0590   43.9900 C   0  0  0  0  0  0  0  0  0  0  0  0
   41.2250   26.0820   43.6080 C   0  0  0  0  0  0  0  0  0  0  0  0
   40.8370   25.8400   42.3260 C   0  0  0  0  0  0  0  0  0  0  0  0
   38.2110   25.6400   40.2910 H   0  0  0  0  0  0  0  0  0  0  0  0
   39.9630   25.1510   38.7100 H   0  0  0  0  0  0  0  0  0  0  0  0
   42.3220   25.0910   39.4040 H   0  0  0  0  0  0  0  0  0  0  0  0
   43.9610   25.3180   41.0950 H   0  0  0  0  0  0  0  0  0  0  0  0
   44.5760   25.7730   43.4140 H   0  0  0  0  0  0  0  0  0  0  0  0
   42.8310   26.2590   45.0250 H   0  0  0  0  0  0  0  0  0  0  0  0
   40.2710   26.3540   44.5560 O   0  0  0  0  0  0  0  0  0  0  0  0
   40.4410   27.1620   45.1500 H   0  0  0  0  0  0  0  0  0  0  0  0
  1  4  1  1  0  0  0
  1  2  1  0  0  0  0
  2  5  1  0  0  0  0
  2  6  1  0  0  0  0
  3  7  1  6  0  0  0
  3  1  1  0  0  0  0
  3 30  1  0  0  0  0
  3  2  1  0  0  0  0
  8 13  1  0  0  0  0
  9  8  2  0  0  0  0
  9 10  1  0  0  0  0
 10 11  2  0  0  0  0
 11 12  1  0  0  0  0
 12  1  1  0  0  0  0
 13 12  2  0  0  0  0
 14  8  1  0  0  0  0
 15  9  1  0  0  0  0
 16 17  1  0  0  0  0
 17 10  1  0  0  0  0
 17 18  2  0  0  0  0
 18 19  1  0  0  0  0
 20 18  1  0  0  0  0
 20 21  1  0  0  0  0
 22 20  2  0  0  0  0
 23 16  2  0  0  0  0
 23 22  1  0  0  0  0
 24 25  2  0  0  0  0
 25 16  1  0  0  0  0
 26 25  1  0  0  0  0
 27 24  1  0  0  0  0
 28 26  1  0  0  0  0
 29 26  1  0  0  0  0
 30 31  1  0  0  0  0
 32 41  1  0  0  0  0
 32 30  1  0  0  0  0
 33 32  2  0  0  0  0
 34 35  2  0  0  0  0
 34 33  1  0  0  0  0
 35 36  1  0  0  0  0
 36 37  2  0  0  0  0
 36 41  1  0  0  0  0
 37 38  1  0  0  0  0
 38 46  1  0  0  0  0
 38 39  2  0  0  0  0
 39 47  1  0  0  0  0
 40 39  1  0  0  0  0
 40 48  1  0  0  0  0
 41 40  2  0  0  0  0
 42 33  1  0  0  0  0
 43 34  1  0  0  0  0
 44 35  1  0  0  0  0
 45 37  1  0  0  0  0
 48 49  1  0  0  0  0
M  END
>  <minimizedAffinity>
-6.91331434

$$$$

 OpenBabel03242511153D

 49 53  0  0  1  0  0  0  0  0999 V2000
   35.2750   28.0050   37.9690 C   0  0  1  0  0  0  0  0  0  0  0  0
   36.4630   28.6380   37.2610 C   0  0  0  0  0  0  0  0  0  0  0  0
   35.7820   29.2780   38.4870 C   0  0  2  0  0  0  0  0  0  0  0  0
   35.4860   27.1180   38.5800 H   0  0  0  0  0  0  0  0  0  0  0  0
   36.2500   29.0500   36.2740 H   0  0  0  0  0  0  0  0  0  0  0  0
   37.4680   28.1900   37.4300 H   0  0  0  0  0  0  0  0  0  0  0  0
   35.3230   30.2630   38.2560 H   0  0  0  0  0  0  0  0  0  0  0  0
   32.3370   26.7250   36.1280 C   0  0  0  0  0  0  0  0  0  0  0  0
   31.5640   27.9260   35.9480 C   0  0  0  0  0  0  0  0  0  0  0  0
   32.0770   29.1270   36.4670 C   0  0  0  0  0  0  0  0  0  0  0  0
   33.2420   29.0800   37.0910 N   0  0  0  0  0  0  0  0  0  0  0  0
   33.9550   27.9550   37.2550 C   0  0  0  0  0  0  0  0  0  0  0  0
   33.5080   26.7600   36.7720 N   0  0  0  0  0  0  0  0  0  0  0  0
   32.0010   25.7720   35.7540 H   0  0  0  0  0  0  0  0  0  0  0  0
   30.6700   27.7430   35.4250 H   0  0  0  0  0  0  0  0  0  0  0  0
   30.3870   30.7730   37.2150 C   0  0  0  0  0  0  0  0  0  0  0  0
   31.2690   30.3120   36.2650 C   0  0  0  0  0  0  0  0  0  0  0  0
   31.3090   31.0760   35.1290 C   0  0  0  0  0  0  0  0  0  0  0  0
   31.9480   30.8390   34.3050 H   0  0  0  0  0  0  0  0  0  0  0  0
   30.5370   32.1970   34.9610 C   0  0  0  0  0  0  0  0  0  0  0  0
   30.5860   32.7800   34.0560 H   0  0  0  0  0  0  0  0  0  0  0  0
   29.6650   32.6360   35.9220 C   0  0  0  0  0  3  0  0  0  0  0  0
   29.5880   31.9050   37.0790 C   0  0  0  0  0  3  0  0  0  0  0  0
   30.5340   29.7910   39.6610 N   0  0  0  0  0  0  0  0  0  0  0  0
   30.1870   30.1000   38.4750 C   0  0  0  0  0  0  0  0  0  0  0  0
   29.0310   29.3020   38.7250 N   0  0  0  0  0  0  0  0  0  0  0  0
   29.9000   29.1790   40.1980 H   0  0  0  0  0  0  0  0  0  0  0  0
   28.0960   29.0800   39.1640 H   0  0  0  0  0  0  0  0  0  0  0  0
   28.8500   28.3610   38.3080 H   0  0  0  0  0  0  0  0  0  0  0  0
   36.5180   29.2680   39.7190 N   0  0  0  0  0  0  0  0  0  0  0  0
   36.2760   28.3520   40.1470 H   0  0  0  0  0  0  0  0  0  0  0  0
   37.3200   30.3480   40.1240 C   0  0  0  0  0  0  0  0  0  0  0  0
   36.9680   31.6190   39.7610 C   0  0  0  0  0  0  0  0  0  0  0  0
   37.6680   32.7420   40.1790 C   0  0  0  0  0  0  0  0  0  0  0  0
   38.7700   32.6160   40.9980 C   0  0  0  0  0  0  0  0  0  0  0  0
   39.1460   31.3480   41.3770 C   0  0  0  0  0  0  0  0  0  0  0  0
   40.2440   31.2010   42.2060 C   0  0  0  0  0  0  0  0  0  0  0  0
   40.6610   29.9780   42.6240 C   0  0  0  0  0  0  0  0  0  0  0  0
   39.9370   28.8780   42.1790 C   0  0  0  0  0  0  0  0  0  0  0  0
   38.8560   29.0320   41.3610 C   0  0  0  0  0  0  0  0  0  0  0  0
   38.4300   30.2550   40.9410 C   0  0  0  0  0  0  0  0  0  0  0  0
   36.1300   31.8370   39.1280 H   0  0  0  0  0  0  0  0  0  0  0  0
   37.3940   33.7400   39.8960 H   0  0  0  0  0  0  0  0  0  0  0  0
   39.3540   33.4600   41.3560 H   0  0  0  0  0  0  0  0  0  0  0  0
   40.8200   32.0470   42.5610 H   0  0  0  0  0  0  0  0  0  0  0  0
   41.5160   29.8180   43.2750 H   0  0  0  0  0  0  0  0  0  0  0  0
   40.2670   27.8880   42.5090 H   0  0  0  0  0  0  0  0  0  0  0  0
   38.1840   27.9100   40.9450 O   0  0  0  0  0  0  0  0  0  0  0  0
   37.9410   27.2360   41.6670 H   0  0  0  0  0  0  0  0  0  0  0  0
  1  3  1  0  0  0  0
  1  4  1  1  0  0  0
  2  6  1  0  0  0  0
  2  1  1  0  0  0  0
  2  3  1  0  0  0  0
  3  7  1  6  0  0  0
  3 30  1  0  0  0  0
  5  2  1  0  0  0  0
  8 13  1  0  0  0  0
  9  8  2  0  0  0  0
  9 10  1  0  0  0  0
 10 11  2  0  0  0  0
 11 12  1  0  0  0  0
 12  1  1  0  0  0  0
 13 12  2  0  0  0  0
 14  8  1  0  0  0  0
 15  9  1  0  0  0  0
 16 25  1  0  0  0  0
 17 10  1  0  0  0  0
 17 16  2  0  0  0  0
 18 17  1  0  0  0  0
 19 18  1  0  0  0  0
 20 18  2  0  0  0  0
 20 22  1  0  0  0  0
 21 20  1  0  0  0  0
 22 23  2  0  0  0  0
 23 16  1  0  0  0  0
 24 27  1  0  0  0  0
 25 26  1  0  0  0  0
 25 24  2  0  0  0  0
 26 28  1  0  0  0  0
 29 26  1  0  0  0  0
 30 32  1  0  0  0  0
 30 31  1  0  0  0  0
 32 41  1  0  0  0  0
 33 32  2  0  0  0  0
 33 34  1  0  0  0  0
 34 35  2  0  0  0  0
 35 44  1  0  0  0  0
 35 36  1  0  0  0  0
 36 37  1  0  0  0  0
 37 45  1  0  0  0  0
 37 38  2  0  0  0  0
 38 46  1  0  0  0  0
 39 47  1  0  0  0  0
 39 38  1  0  0  0  0
 40 39  2  0  0  0  0
 41 40  1  0  0  0  0
 41 36  2  0  0  0  0
 42 33  1  0  0  0  0
 43 34  1  0  0  0  0
 48 40  1  0  0  0  0
 48 49  1  0  0  0  0
M  END
>  <minimizedAffinity>
-6.90339279

$$$$
