REMARK  Name = 
REMARK  5 active torsions:
REMARK  status: ('A' for Active; 'I' for Inactive)
REMARK    1  A    between atoms: C_2  and  N_12
REMARK    2  A    between atoms: C_11  and  S_13
REMARK    3  A    between atoms: S_13  and  C_16
REMARK    4  A    between atoms: N_19  and  C_40
REMARK    5  A    between atoms: C_37  and  C_39
REMARK                            x       y       z     vdW  Elec       q    Type
REMARK                         _______ _______ _______ _____ _____    ______ ____
ROOT
ATOM      1  O   UNL     1      45.604  30.512  43.492  0.00  0.00    +0.000 OA
ATOM      2  C   UNL     1      44.973  29.987  44.427  0.00  0.00    +0.000 C 
ATOM      3  C   UNL     1      45.081  29.781  45.888  0.00  0.00    +0.000 C 
ATOM      4  C   UNL     1      44.544  28.378  46.033  0.00  0.00    +0.000 C 
ATOM      5  C   UNL     1      43.232  28.576  45.274  0.00  0.00    +0.000 C 
ATOM      6  N   UNL     1      43.720  29.336  44.129  0.00  0.00    +0.000 N 
ATOM      7  H   UNL     1      44.198  30.376  46.257  0.00  0.00    +0.000 HD
ATOM      8  H   UNL     1      44.344  28.127  47.099  0.00  0.00    +0.000 HD
ATOM      9  H   UNL     1      45.163  27.640  45.528  0.00  0.00    +0.000 HD
ATOM     10  H   UNL     1      42.508  29.156  45.876  0.00  0.00    +0.000 HD
ATOM     11  H   UNL     1      42.844  27.620  44.914  0.00  0.00    +0.000 HD
ENDROOT
BRANCH   6  13
ATOM     12  C   UNL     1      42.769  30.552  42.281  0.00  0.00    +0.000 A 
ATOM     13  C   UNL     1      42.960  29.360  42.915  0.00  0.00    +0.000 A 
ATOM     14  C   UNL     1      42.443  28.180  42.414  0.00  0.00    +0.000 A 
ATOM     15  H   UNL     1      42.624  27.257  42.958  0.00  0.00    +0.000 HD
ATOM     16  C   UNL     1      41.717  28.172  41.258  0.00  0.00    +0.000 A 
ATOM     17  H   UNL     1      41.321  27.232  40.885  0.00  0.00    +0.000 HD
ATOM     18  C   UNL     1      41.501  29.358  40.587  0.00  0.00    +0.000 A 
ATOM     19  C   UNL     1      42.031  30.518  41.114  0.00  0.00    +0.000 A 
BRANCH  12  21
ATOM     20  N   UNL     1      43.592  32.718  41.846  0.00  0.00    +0.000 NA
ATOM     21  C   UNL     1      43.276  31.838  42.744  0.00  0.00    +0.000 C 
ATOM     22  N   UNL     1      43.467  32.252  44.092  0.00  0.00    +0.000 N 
ATOM     23  H   UNL     1      43.956  33.650  42.144  0.00  0.00    +0.000 HD
ATOM     24  H   UNL     1      43.306  33.233  44.375  0.00  0.00    +0.000 HD
ATOM     25  H   UNL     1      43.660  32.331  45.094  0.00  0.00    +0.000 HD
ENDBRANCH  12  21
ENDBRANCH   6  13
BRANCH   3  26
ATOM     26  S   UNL     1      46.631  30.083  46.634  0.00  0.00    +0.000 S 
BRANCH  26  37
ATOM     27  C   UNL     1      44.507  35.533  45.121  0.00  0.00    +0.000 A 
ATOM     28  C   UNL     1      45.166  35.507  43.881  0.00  0.00    +0.000 A 
ATOM     29  C   UNL     1      46.088  34.542  43.639  0.00  0.00    +0.000 A 
ATOM     30  N   UNL     1      46.319  33.646  44.630  0.00  0.00    +0.000 NA
ATOM     31  C   UNL     1      45.691  33.680  45.797  0.00  0.00    +0.000 A 
ATOM     32  N   UNL     1      44.779  34.617  46.064  0.00  0.00    +0.000 NA
ATOM     33  N   UNL     1      46.012  32.684  46.782  0.00  0.00    +0.000 N 
ATOM     34  C   UNL     1      45.258  32.454  47.974  0.00  0.00    +0.000 C 
ATOM     35  C   UNL     1      46.328  32.105  48.988  0.00  0.00    +0.000 C 
ATOM     36  C   UNL     1      47.613  32.011  48.239  0.00  0.00    +0.000 C 
ATOM     37  C   UNL     1      47.134  31.774  46.805  0.00  0.00    +0.000 C 
ATOM     38  H   UNL     1      43.772  36.289  45.335  0.00  0.00    +0.000 HD
ATOM     39  H   UNL     1      46.603  34.502  42.701  0.00  0.00    +0.000 HD
ATOM     40  H   UNL     1      44.955  33.501  48.317  0.00  0.00    +0.000 HD
ATOM     41  H   UNL     1      44.354  31.927  48.005  0.00  0.00    +0.000 HD
ATOM     42  H   UNL     1      46.047  31.075  49.357  0.00  0.00    +0.000 HD
ATOM     43  H   UNL     1      46.359  32.726  49.876  0.00  0.00    +0.000 HD
ATOM     44  H   UNL     1      48.240  31.182  48.606  0.00  0.00    +0.000 HD
ATOM     45  H   UNL     1      48.156  32.963  48.285  0.00  0.00    +0.000 HD
ATOM     46  H   UNL     1      47.926  32.105  46.114  0.00  0.00    +0.000 HD
BRANCH  28  47
ATOM     47  N   UNL     1      44.816  36.524  42.926  0.00  0.00    +0.000 N 
ATOM     48  H   UNL     1      44.589  36.091  42.004  0.00  0.00    +0.000 HD
ATOM     49  H   UNL     1      44.848  37.499  43.311  0.00  0.00    +0.000 HD
ENDBRANCH  28  47
ENDBRANCH  26  37
ENDBRANCH   3  26
TORSDOF 5
