
 OpenBabel03242511083D

 48 52  0  0  1  0  0  0  0  0999 V2000
   46.5920   32.4140   43.5870 C   0  0  0  0  0  0  0  0  0  0  0  0
   46.6080   31.7030   44.7850 C   0  0  0  0  0  0  0  0  0  0  0  0
   46.1160   32.2160   45.9800 C   0  0  0  0  0  0  0  0  0  0  0  0
   45.5790   33.4870   46.0170 C   0  0  0  0  0  0  0  0  0  0  0  0
   45.5470   34.2070   44.8660 C   0  0  0  0  0  0  0  0  0  0  0  0
   45.0100   35.4770   44.8910 C   0  0  0  0  0  0  0  0  0  0  0  0
   44.9420   36.2660   43.7500 C   0  0  0  0  0  0  0  0  0  0  0  0
   45.4430   35.7160   42.5740 C   0  0  0  0  0  0  0  0  0  0  0  0
   45.9780   34.4330   42.5830 C   0  0  0  0  0  0  0  0  0  0  0  0
   46.0460   33.6610   43.7020 C   0  0  0  0  0  0  0  0  0  0  0  0
   47.0110   30.7000   44.8430 H   0  0  0  0  0  0  0  0  0  0  0  0
   46.1490   31.6240   46.8890 H   0  0  0  0  0  0  0  0  0  0  0  0
   45.2100   33.8470   46.9600 H   0  0  0  0  0  0  0  0  0  0  0  0
   44.6330   35.8550   45.8380 H   0  0  0  0  0  0  0  0  0  0  0  0
   44.5000   37.2470   43.8890 H   0  0  0  0  0  0  0  0  0  0  0  0
   45.3330   36.4230   41.7630 H   0  0  0  0  0  0  0  0  0  0  0  0
   47.7190   34.4990   40.9780 C   0  0  0  0  0  0  0  0  0  0  0  0
   46.3820   34.1420   41.2200 C   0  0  0  0  0  0  0  0  0  0  0  0
   45.7350   33.5530   40.1520 C   0  0  0  0  0  0  0  0  0  0  0  0
   44.7020   33.3040   40.4330 H   0  0  0  0  0  0  0  0  0  0  0  0
   46.3320   33.3250   38.9400 C   0  0  0  0  0  0  0  0  0  0  0  0
   45.6700   32.8550   38.2220 H   0  0  0  0  0  0  0  0  0  0  0  0
   47.6430   33.6790   38.7130 C   0  0  0  0  0  0  0  0  0  0  0  0
   48.3170   34.2670   39.7540 C   0  0  0  0  0  0  0  0  0  0  0  0
   49.0450   34.5620   42.9990 N   0  0  0  0  0  0  0  0  0  0  0  0
   48.5830   35.1250   41.9410 C   0  0  0  0  0  0  0  0  0  0  0  0
   49.0310   36.4680   41.8240 N   0  0  0  0  0  0  0  0  0  0  0  0
   49.6640   35.0420   43.6720 H   0  0  0  0  0  0  0  0  0  0  0  0
   49.9460   36.7580   41.3660 H   0  0  0  0  0  0  0  0  0  0  0  0
   48.4470   37.2690   42.2070 H   0  0  0  0  0  0  0  0  0  0  0  0
   47.1190   31.8160   42.4340 N   0  0  0  0  0  0  0  0  0  0  0  0
   46.7370   32.0780   41.5000 H   0  0  0  0  0  0  0  0  0  0  0  0
   49.5700   31.1290   42.4720 C   0  0  1  0  0  0  0  0  0  0  0  0
   48.9400   30.5350   41.2310 C   0  0  0  0  0  0  0  0  0  0  0  0
   48.1500   30.8190   42.5030 C   0  0  2  0  0  0  0  0  0  0  0  0
   50.0290   32.1180   42.2340 H   0  0  0  0  0  0  0  0  0  0  0  0
   48.7400   31.1550   40.3490 H   0  0  0  0  0  0  0  0  0  0  0  0
   49.1170   29.4550   41.0060 H   0  0  0  0  0  0  0  0  0  0  0  0
   47.8670   29.9100   43.1050 H   0  0  0  0  0  0  0  0  0  0  0  0
   50.9400   28.8010   45.0290 C   0  0  0  0  0  0  0  0  0  0  0  0
   52.3320   28.8110   44.6840 C   0  0  0  0  0  0  0  0  0  0  0  0
   52.7530   29.6030   43.5820 C   0  0  0  0  0  0  0  0  0  0  0  0
   51.8370   30.3050   42.9140 N   0  0  0  0  0  0  0  0  0  0  0  0
   50.5250   30.2810   43.2590 C   0  0  0  0  0  0  0  0  0  0  0  0
   50.0740   29.5280   44.3170 N   0  0  0  0  0  0  0  0  0  0  0  0
   50.6380   28.1920   45.8720 H   0  0  0  0  0  0  0  0  0  0  0  0
   53.0170   28.2280   45.2580 H   0  0  0  0  0  0  0  0  0  0  0  0
   53.8040   29.6030   43.3310 H   0  0  0  0  0  0  0  0  0  0  0  0
  1 10  2  0  0  0  0
  1  2  1  0  0  0  0
  2 11  1  0  0  0  0
  2  3  2  0  0  0  0
  3  4  1  0  0  0  0
  3 12  1  0  0  0  0
  4 13  1  0  0  0  0
  5  6  1  0  0  0  0
  5  4  2  0  0  0  0
  6 14  1  0  0  0  0
  7 15  1  0  0  0  0
  7  6  2  0  0  0  0
  8  9  2  0  0  0  0
  8  7  1  0  0  0  0
  9 10  1  0  0  0  0
 10  5  1  0  0  0  0
 16  8  1  0  0  0  0
 17 18  1  0  0  0  0
 17 26  1  0  0  0  0
 18  9  1  0  0  0  0
 19 20  1  0  0  0  0
 19 18  2  0  0  0  0
 21 19  1  0  0  0  0
 22 21  1  0  0  0  0
 23 21  2  0  0  0  0
 23 24  1  0  0  0  0
 24 17  2  0  0  0  0
 25 28  1  0  0  0  0
 26 25  2  0  0  0  0
 27 26  1  0  0  0  0
 27 30  1  0  0  0  0
 29 27  1  0  0  0  0
 31 35  1  0  0  0  0
 31  1  1  0  0  0  0
 32 31  1  0  0  0  0
 33 36  1  6  0  0  0
 33 35  1  0  0  0  0
 33 44  1  0  0  0  0
 34 33  1  0  0  0  0
 34 35  1  0  0  0  0
 35 39  1  1  0  0  0
 37 34  1  0  0  0  0
 38 34  1  0  0  0  0
 40 46  1  0  0  0  0
 41 40  1  0  0  0  0
 41 47  1  0  0  0  0
 42 41  2  0  0  0  0
 43 44  2  0  0  0  0
 43 42  1  0  0  0  0
 44 45  1  0  0  0  0
 45 40  2  0  0  0  0
 48 42  1  0  0  0  0
M  END
>  <minimizedAffinity>
-5.86016464

>  <minimizedRMSD>
2.11933064

$$$$
