
 OpenBabel03252508033D

 47 50  0  0  1  0  0  0  0  0999 V2000
   41.9860   33.3230   41.1610 C   0  0  0  0  0  0  0  0  0  0  0  0
   42.7840   34.4200   41.3100 C   0  0  0  0  0  0  0  0  0  0  0  0
   42.1760   35.6870   41.2280 C   0  0  0  0  0  0  0  0  0  0  0  0
   40.8330   35.8740   41.0060 C   0  0  0  0  0  0  0  0  0  0  0  0
   40.0420   34.7670   40.8590 C   0  0  0  0  0  0  0  0  0  0  0  0
   40.6210   33.5360   40.9380 C   0  0  0  0  0  0  0  0  0  0  0  0
   42.7290   36.6170   41.3240 H   0  0  0  0  0  0  0  0  0  0  0  0
   40.3810   36.8330   40.9450 H   0  0  0  0  0  0  0  0  0  0  0  0
   38.9840   34.8200   40.6850 H   0  0  0  0  0  0  0  0  0  0  0  0
   39.9790   32.6500   40.8170 H   0  0  0  0  0  0  0  0  0  0  0  0
   42.5600   31.7490   41.3370 S   0  0  0  0  0  0  0  0  0  0  0  0
   41.6940   31.0130   40.2650 O   0  0  0  0  0  0  0  0  0  0  0  0
   42.2210   31.1480   42.6470 O   0  0  0  0  0  0  0  0  0  0  0  0
   44.4700   29.9600   41.4520 C   0  0  0  0  0  0  0  0  0  0  0  0
   43.9030   30.9950   40.6540 C   0  0  0  0  0  0  0  0  0  0  0  0
   44.5600   31.1110   39.4170 C   0  0  0  0  0  0  0  0  0  0  0  0
   44.0590   31.9000   38.8230 H   0  0  0  0  0  0  0  0  0  0  0  0
   45.6190   30.4160   38.8770 C   0  0  0  0  0  0  0  0  0  0  0  0
   45.9400   30.7050   37.8980 H   0  0  0  0  0  0  0  0  0  0  0  0
   46.0390   29.4710   39.7600 C   0  0  0  0  0  3  0  0  0  0  0  0
   45.5300   29.2150   40.9850 C   0  0  0  0  0  3  0  0  0  0  0  0
   43.4860   28.4270   43.0710 N   0  0  0  0  0  0  0  0  0  0  0  0
   44.1390   29.5150   42.8270 C   0  0  0  0  0  0  0  0  0  0  0  0
   44.4760   30.1260   44.0630 N   0  0  0  0  0  0  0  0  0  0  0  0
   43.3420   28.2240   44.0840 H   0  0  0  0  0  0  0  0  0  0  0  0
   44.9610   29.6290   44.8410 H   0  0  0  0  0  0  0  0  0  0  0  0
   44.5770   30.8360   44.8160 H   0  0  0  0  0  0  0  0  0  0  0  0
   44.2130   34.3330   41.5460 C   0  0  0  0  0  0  0  0  0  0  0  0
   45.0820   34.1790   40.6300 O   0  0  0  0  0  0  0  0  0  0  0  0
   44.5680   34.4410   42.9350 C   0  0  0  0  0  0  0  0  0  0  0  0
   44.2740   35.7030   43.5580 C   0  0  0  0  0  0  0  0  0  0  0  0
   44.5980   35.8270   44.8990 C   0  0  0  0  0  0  0  0  0  0  0  0
   45.1660   34.7640   45.5320 N   0  0  0  0  0  0  0  0  0  0  0  0
   45.4250   33.5800   44.8890 C   0  0  0  0  0  0  0  0  0  0  0  0
   45.1250   33.4620   43.6420 N   0  0  0  0  0  0  0  0  0  0  0  0
   43.8400   36.5710   43.1400 H   0  0  0  0  0  0  0  0  0  0  0  0
   44.4320   36.7180   45.4840 H   0  0  0  0  0  0  0  0  0  0  0  0
   46.0360   32.4790   45.6620 C   0  0  1  0  0  0  0  0  0  0  0  0
   46.9700   32.8060   46.8020 C   0  0  0  0  0  0  0  0  0  0  0  0
   45.5510   32.3640   47.0630 C   0  0  1  0  0  0  0  0  0  0  0  0
   46.3010   31.5680   45.1300 H   0  0  0  0  0  0  0  0  0  0  0  0
   47.8010   32.1010   47.0410 H   0  0  0  0  0  0  0  0  0  0  0  0
   47.2600   33.8680   46.9860 H   0  0  0  0  0  0  0  0  0  0  0  0
   45.3740   31.3380   47.4350 H   0  0  0  0  0  0  0  0  0  0  0  0
   44.7290   33.4040   47.6390 N   0  0  0  0  0  0  0  0  0  0  0  0
   43.8510   33.5790   47.1430 H   0  0  0  0  0  0  0  0  0  0  0  0
   45.2390   34.2440   47.9540 H   0  0  0  0  0  0  0  0  0  0  0  0
  1  2  1  0  0  0  0
  1 11  1  0  0  0  0
  2 28  1  0  0  0  0
  3  2  2  0  0  0  0
  3  7  1  0  0  0  0
  4  3  1  0  0  0  0
  5  6  1  0  0  0  0
  5  4  2  0  0  0  0
  6  1  2  0  0  0  0
  8  4  1  0  0  0  0
  9  5  1  0  0  0  0
 10  6  1  0  0  0  0
 11 13  2  0  0  0  0
 12 11  2  0  0  0  0
 14 23  1  0  0  0  0
 15 11  1  0  0  0  0
 15 14  2  0  0  0  0
 16 15  1  0  0  0  0
 17 16  1  0  0  0  0
 18 16  2  0  0  0  0
 18 20  1  0  0  0  0
 19 18  1  0  0  0  0
 20 21  2  0  0  0  0
 21 14  1  0  0  0  0
 22 25  1  0  0  0  0
 23 22  2  0  0  0  0
 23 24  1  0  0  0  0
 24 27  1  0  0  0  0
 24 26  1  0  0  0  0
 28 30  1  0  0  0  0
 29 28  2  0  0  0  0
 30 31  2  0  0  0  0
 30 35  1  0  0  0  0
 31 32  1  0  0  0  0
 32 37  1  0  0  0  0
 32 33  2  0  0  0  0
 34 33  1  0  0  0  0
 34 38  1  0  0  0  0
 35 34  2  0  0  0  0
 36 31  1  0  0  0  0
 38 41  1  6  0  0  0
 38 39  1  0  0  0  0
 38 40  1  0  0  0  0
 39 43  1  0  0  0  0
 39 42  1  0  0  0  0
 39 40  1  0  0  0  0
 40 44  1  1  0  0  0
 40 45  1  0  0  0  0
 45 47  1  0  0  0  0
 46 45  1  0  0  0  0
M  END
>  <minimizedAffinity>
-5.77549982

>  <minimizedRMSD>
1.30065119

$$$$
