
 OpenBabel03252500393D

 26 27  0  0  0  0  0  0  0  0999 V2000
   44.2630   34.6380   41.3850 C   0  0  0  0  0  0  0  0  0  0  0  0
   45.6270   34.5890   41.5880 C   0  0  0  0  0  0  0  0  0  0  0  0
   46.4420   33.9320   40.6880 C   0  0  0  0  0  0  0  0  0  0  0  0
   47.5070   33.9190   40.8860 H   0  0  0  0  0  0  0  0  0  0  0  0
   45.8910   33.3110   39.5650 C   0  0  0  0  0  0  0  0  0  0  0  0
   46.5680   32.8210   38.9080 H   0  0  0  0  0  0  0  0  0  0  0  0
   44.5080   33.3790   39.3900 C   0  0  0  0  0  3  0  0  0  0  0  0
   43.6720   34.0350   40.2840 C   0  0  0  0  0  3  0  0  0  0  0  0
   42.0730   35.5800   42.0490 N   0  0  0  0  0  0  0  0  0  0  0  0
   43.3040   35.3120   42.2830 C   0  0  0  0  0  0  0  0  0  0  0  0
   43.5130   35.8160   43.5970 N   0  0  0  0  0  0  0  0  0  0  0  0
   41.6440   35.3090   41.1210 H   0  0  0  0  0  0  0  0  0  0  0  0
   43.9020   36.6630   44.0650 H   0  0  0  0  0  0  0  0  0  0  0  0
   43.2530   35.3040   44.4690 H   0  0  0  0  0  0  0  0  0  0  0  0
   46.1700   35.2610   42.7920 C   0  0  0  0  0  0  0  0  0  0  0  0
   45.4610   36.0530   43.1220 H   0  0  0  0  0  0  0  0  0  0  0  0
   47.1240   35.7660   42.6000 H   0  0  0  0  0  0  0  0  0  0  0  0
   46.3350   34.2230   43.8680 C   0  0  0  0  0  0  0  0  0  0  0  0
   47.2820   33.2270   43.6390 C   0  0  0  0  0  0  0  0  0  0  0  0
   47.4660   32.2400   44.6170 C   0  0  0  0  0  0  0  0  0  0  0  0
   46.6910   32.3280   45.7400 N   0  0  0  0  0  0  0  0  0  0  0  0
   45.7810   33.3160   45.9210 C   0  0  0  0  0  0  0  0  0  0  0  0
   45.5970   34.2720   44.9820 N   0  0  0  0  0  0  0  0  0  0  0  0
   47.8520   33.2350   42.7180 H   0  0  0  0  0  0  0  0  0  0  0  0
   48.1860   31.4580   44.4730 H   0  0  0  0  0  0  0  0  0  0  0  0
   45.2010   33.3230   46.8370 H   0  0  0  0  0  0  0  0  0  0  0  0
  1  2  1  0  0  0  0
  1 10  1  0  0  0  0
  2 15  1  0  0  0  0
  3  4  1  0  0  0  0
  3  2  2  0  0  0  0
  5  3  1  0  0  0  0
  6  5  1  0  0  0  0
  7  5  2  0  0  0  0
  7  8  1  0  0  0  0
  8  1  2  0  0  0  0
  9 10  2  0  0  0  0
 10 11  1  0  0  0  0
 11 13  1  0  0  0  0
 11 14  1  0  0  0  0
 12  9  1  0  0  0  0
 15 16  1  0  0  0  0
 15 18  1  0  0  0  0
 17 15  1  0  0  0  0
 18 23  1  0  0  0  0
 19 18  2  0  0  0  0
 19 20  1  0  0  0  0
 20 21  2  0  0  0  0
 21 22  1  0  0  0  0
 22 26  1  0  0  0  0
 23 22  2  0  0  0  0
 24 19  1  0  0  0  0
 25 20  1  0  0  0  0
M  END
>  <minimizedAffinity>
-4.80588198

>  <minimizedRMSD>
2.13823986

$$$$
