
 OpenBabel03242522453D

 52 53  0  0  0  0  0  0  0  0999 V2000
   38.0180   27.3170   41.5430 C   0  0  0  0  0  0  0  0  0  0  0  0
   38.3290   26.2870   40.6640 C   0  0  0  0  0  0  0  0  0  0  0  0
   37.8970   25.0190   40.7450 C   0  0  0  0  0  0  0  0  0  0  0  0
   37.0660   24.6900   41.7860 C   0  0  0  0  0  0  0  0  0  0  0  0
   36.6820   25.6130   42.7150 C   0  0  0  0  0  0  0  0  0  0  0  0
   37.1630   26.9070   42.5770 C   0  0  0  0  0  0  0  0  0  0  0  0
   38.0560   24.1770   40.1310 H   0  0  0  0  0  0  0  0  0  0  0  0
   36.6340   23.7070   41.9890 H   0  0  0  0  0  0  0  0  0  0  0  0
   36.0220   25.4340   43.5720 H   0  0  0  0  0  0  0  0  0  0  0  0
   36.8740   27.6630   43.2970 H   0  0  0  0  0  0  0  0  0  0  0  0
   39.2070   26.6240   39.5270 C   0  0  0  0  0  0  0  0  0  0  0  0
   39.0010   27.6890   39.3380 H   0  0  0  0  0  0  0  0  0  0  0  0
   40.2230   26.3550   39.8280 H   0  0  0  0  0  0  0  0  0  0  0  0
   38.8840   25.9780   38.2130 C   0  0  0  0  0  0  0  0  0  0  0  0
   38.3490   25.0080   38.3070 H   0  0  0  0  0  0  0  0  0  0  0  0
   39.7670   25.6550   37.6300 H   0  0  0  0  0  0  0  0  0  0  0  0
   38.4190   27.5330   36.3390 C   0  0  0  0  0  0  0  0  0  0  0  0
   37.9710   26.8560   37.4910 C   0  0  0  0  0  0  0  0  0  0  0  0
   36.6540   27.0630   37.8720 C   0  0  0  0  0  0  0  0  0  0  0  0
   35.8740   27.8810   37.1410 N   0  0  0  0  0  0  0  0  0  0  0  0
   36.3380   28.4990   36.0590 C   0  0  0  0  0  0  0  0  0  0  0  0
   37.6100   28.3440   35.6340 N   0  0  0  0  0  0  0  0  0  0  0  0
   39.3870   27.5200   35.8760 H   0  0  0  0  0  0  0  0  0  0  0  0
   36.3110   26.5410   38.7610 H   0  0  0  0  0  0  0  0  0  0  0  0
   35.3990   29.3850   35.2730 C   0  0  0  0  0  0  0  0  0  0  0  0
   34.5640   28.7030   34.9810 H   0  0  0  0  0  0  0  0  0  0  0  0
   34.9990   30.1840   35.9290 H   0  0  0  0  0  0  0  0  0  0  0  0
   35.9880   29.9260   34.0600 C   0  0  0  0  0  0  0  0  0  0  0  0
   36.2050   31.2670   33.7940 C   0  0  0  0  0  0  0  0  0  0  0  0
   36.7770   31.3780   32.5490 C   0  0  0  0  0  0  0  0  0  0  0  0
   36.8870   30.1030   32.1040 N   0  0  0  0  0  0  0  0  0  0  0  0
   36.4180   29.2290   32.9990 N   0  0  0  0  0  0  0  0  0  0  0  0
   35.9940   32.1460   34.3990 H   0  0  0  0  0  0  0  0  0  0  0  0
   37.1130   32.2040   31.9420 H   0  0  0  0  0  0  0  0  0  0  0  0
   37.2720   29.7370   31.1990 H   0  0  0  0  0  0  0  0  0  0  0  0
   38.5210   28.9440   41.4470 S   0  0  0  0  0  0  0  0  0  0  0  0
   40.1080   28.9510   41.3620 O   0  0  0  0  0  0  0  0  0  0  0  0
   38.2700   29.6500   42.7290 O   0  0  0  0  0  0  0  0  0  0  0  0
   37.1220   30.3760   39.5100 C   0  0  0  0  0  0  0  0  0  0  0  0
   38.2990   29.8480   40.0010 C   0  0  0  0  0  0  0  0  0  0  0  0
   39.3770   30.1310   39.1360 C   0  0  0  0  0  0  0  0  0  0  0  0
   40.3570   29.7410   39.4580 H   0  0  0  0  0  0  0  0  0  0  0  0
   39.3410   30.8250   37.9600 C   0  0  0  0  0  0  0  0  0  0  0  0
   40.2560   30.9640   37.4010 H   0  0  0  0  0  0  0  0  0  0  0  0
   38.1200   31.3040   37.5720 C   0  0  0  0  0  3  0  0  0  0  0  0
   37.0010   31.0800   38.3470 C   0  0  0  0  0  3  0  0  0  0  0  0
   34.9140   29.3600   40.1530 N   0  0  0  0  0  0  0  0  0  0  0  0
   35.9110   30.1580   40.2800 C   0  0  0  0  0  3  0  0  0  0  0  0
   35.6630   30.9460   41.4610 N   0  0  0  0  0  1  0  0  0  0  0  0
   34.1170   29.3230   40.7900 H   0  0  0  0  0  0  0  0  0  0  0  0
   35.0750   31.7840   41.2270 H   0  0  0  0  0 15  0  0  0  0  0  0
   35.2060   31.7980   41.8700 H   0  0  0  0  0  0  0  0  0  0  0  0
  1  6  1  0  0  0  0
  2  3  1  0  0  0  0
  2  1  2  0  0  0  0
  3  4  2  0  0  0  0
  4  8  1  0  0  0  0
  4  5  1  0  0  0  0
  5  9  1  0  0  0  0
  6  5  2  0  0  0  0
  6 10  1  0  0  0  0
  7  3  1  0  0  0  0
 11 13  1  0  0  0  0
 11  2  1  0  0  0  0
 12 11  1  0  0  0  0
 14 15  1  0  0  0  0
 14 11  1  0  0  0  0
 16 14  1  0  0  0  0
 17 18  1  0  0  0  0
 18 19  2  0  0  0  0
 18 14  1  0  0  0  0
 19 24  1  0  0  0  0
 20 19  1  0  0  0  0
 21 20  2  0  0  0  0
 22 21  1  0  0  0  0
 22 17  2  0  0  0  0
 23 17  1  0  0  0  0
 25 27  1  0  0  0  0
 25 21  1  0  0  0  0
 26 25  1  0  0  0  0
 28 25  1  0  0  0  0
 29 28  1  0  0  0  0
 29 33  1  0  0  0  0
 30 29  2  0  0  0  0
 31 30  1  0  0  0  0
 31 32  1  0  0  0  0
 32 28  2  0  0  0  0
 34 30  1  0  0  0  0
 35 31  1  0  0  0  0
 36  1  1  0  0  0  0
 36 38  2  0  0  0  0
 37 36  2  0  0  0  0
 39 40  1  0  0  0  0
 39 48  1  0  0  0  0
 40 36  1  0  0  0  0
 41 42  1  0  0  0  0
 41 40  2  0  0  0  0
 43 41  1  0  0  0  0
 44 43  1  0  0  0  0
 45 43  2  0  0  0  0
 45 46  1  0  0  0  0
 46 39  2  0  0  0  0
 47 48  2  0  0  0  0
 47 50  1  0  0  0  0
 49 52  1  0  0  0  0
M  END
>  <minimizedAffinity>
-6.39474869

$$$$

 OpenBabel03242522453D

 52 53  0  0  0  0  0  0  0  0999 V2000
   41.4150   32.2430   39.9410 C   0  0  0  0  0  0  0  0  0  0  0  0
   41.7180   31.6690   41.1700 C   0  0  0  0  0  0  0  0  0  0  0  0
   42.5850   32.1470   42.0750 C   0  0  0  0  0  0  0  0  0  0  0  0
   43.2440   33.3130   41.7780 C   0  0  0  0  0  0  0  0  0  0  0  0
   43.0320   33.9760   40.6050 C   0  0  0  0  0  0  0  0  0  0  0  0
   42.1230   33.4320   39.7100 C   0  0  0  0  0  0  0  0  0  0  0  0
   42.8710   31.8050   43.0310 H   0  0  0  0  0  0  0  0  0  0  0  0
   43.9780   33.8250   42.4060 H   0  0  0  0  0  0  0  0  0  0  0  0
   43.5130   34.9110   40.2920 H   0  0  0  0  0  0  0  0  0  0  0  0
   41.9310   33.9360   38.7710 H   0  0  0  0  0  0  0  0  0  0  0  0
   41.0060   30.4240   41.5180 C   0  0  0  0  0  0  0  0  0  0  0  0
   40.3370   30.2510   40.6600 H   0  0  0  0  0  0  0  0  0  0  0  0
   41.7740   29.6710   41.7130 H   0  0  0  0  0  0  0  0  0  0  0  0
   40.0590   30.4900   42.6780 C   0  0  0  0  0  0  0  0  0  0  0  0
   39.3450   31.3420   42.6280 H   0  0  0  0  0  0  0  0  0  0  0  0
   40.5400   30.6990   43.6520 H   0  0  0  0  0  0  0  0  0  0  0  0
   37.9550   29.3120   43.2480 C   0  0  0  0  0  0  0  0  0  0  0  0
   39.2330   29.2900   42.6560 C   0  0  0  0  0  0  0  0  0  0  0  0
   39.6320   28.1020   42.0630 C   0  0  0  0  0  0  0  0  0  0  0  0
   38.8010   27.0430   42.0750 N   0  0  0  0  0  0  0  0  0  0  0  0
   37.6020   27.1080   42.6460 C   0  0  0  0  0  0  0  0  0  0  0  0
   37.1510   28.2330   43.2420 N   0  0  0  0  0  0  0  0  0  0  0  0
   37.4560   30.1130   43.7580 H   0  0  0  0  0  0  0  0  0  0  0  0
   40.6190   28.0860   41.6070 H   0  0  0  0  0  0  0  0  0  0  0  0
   36.7130   25.8880   42.6020 C   0  0  0  0  0  0  0  0  0  0  0  0
   36.6520   25.5590   43.6690 H   0  0  0  0  0  0  0  0  0  0  0  0
   35.7000   26.1730   42.2550 H   0  0  0  0  0  0  0  0  0  0  0  0
   37.2640   24.7930   41.8220 C   0  0  0  0  0  0  0  0  0  0  0  0
   36.9140   24.4700   40.5220 C   0  0  0  0  0  0  0  0  0  0  0  0
   37.6510   23.3770   40.1320 C   0  0  0  0  0  0  0  0  0  0  0  0
   38.4200   23.0760   41.2060 N   0  0  0  0  0  0  0  0  0  0  0  0
   38.1960   23.9160   42.2200 N   0  0  0  0  0  0  0  0  0  0  0  0
   36.1970   24.9370   39.8510 H   0  0  0  0  0  0  0  0  0  0  0  0
   37.7130   22.7920   39.2270 H   0  0  0  0  0  0  0  0  0  0  0  0
   39.1290   22.3120   41.3330 H   0  0  0  0  0  0  0  0  0  0  0  0
   40.2920   31.6800   38.7880 S   0  0  0  0  0  0  0  0  0  0  0  0
   40.8280   30.2900   38.2350 O   0  0  0  0  0  0  0  0  0  0  0  0
   40.3130   32.5330   37.5730 O   0  0  0  0  0  0  0  0  0  0  0  0
   37.7650   31.7210   39.9600 C   0  0  0  0  0  0  0  0  0  0  0  0
   38.7660   31.0580   39.2790 C   0  0  0  0  0  0  0  0  0  0  0  0
   38.3950   29.7220   39.0140 C   0  0  0  0  0  0  0  0  0  0  0  0
   39.1440   29.1220   38.4710 H   0  0  0  0  0  0  0  0  0  0  0  0
   37.2270   29.1000   39.3530 C   0  0  0  0  0  0  0  0  0  0  0  0
   37.0840   28.0630   39.0800 H   0  0  0  0  0  0  0  0  0  0  0  0
   36.3070   29.8560   40.0260 C   0  0  0  0  0  3  0  0  0  0  0  0
   36.5730   31.1730   40.3340 C   0  0  0  0  0  3  0  0  0  0  0  0
   38.6570   33.6760   41.2660 N   0  0  0  0  0  0  0  0  0  0  0  0
   37.9980   33.1070   40.3230 C   0  0  0  0  0  3  0  0  0  0  0  0
   37.4180   34.1600   39.5290 N   0  0  0  0  0  1  0  0  0  0  0  0
   38.7300   34.6860   41.3930 H   0  0  0  0  0  0  0  0  0  0  0  0
   36.4970   34.4620   39.9340 H   0  0  0  0  0 15  0  0  0  0  0  0
   36.6140   34.8220   39.3980 H   0  0  0  0  0  0  0  0  0  0  0  0
  1  2  1  0  0  0  0
  2 11  1  0  0  0  0
  2  3  2  0  0  0  0
  3  7  1  0  0  0  0
  4  3  1  0  0  0  0
  4  8  1  0  0  0  0
  5  4  2  0  0  0  0
  6  1  2  0  0  0  0
  6  5  1  0  0  0  0
  9  5  1  0  0  0  0
 10  6  1  0  0  0  0
 11 13  1  0  0  0  0
 11 14  1  0  0  0  0
 12 11  1  0  0  0  0
 14 16  1  0  0  0  0
 15 14  1  0  0  0  0
 17 23  1  0  0  0  0
 18 14  1  0  0  0  0
 18 17  2  0  0  0  0
 19 20  2  0  0  0  0
 19 18  1  0  0  0  0
 20 21  1  0  0  0  0
 21 22  2  0  0  0  0
 22 17  1  0  0  0  0
 24 19  1  0  0  0  0
 25 21  1  0  0  0  0
 25 26  1  0  0  0  0
 27 25  1  0  0  0  0
 28 32  2  0  0  0  0
 28 25  1  0  0  0  0
 29 28  1  0  0  0  0
 30 29  2  0  0  0  0
 30 31  1  0  0  0  0
 31 35  1  0  0  0  0
 31 32  1  0  0  0  0
 33 29  1  0  0  0  0
 34 30  1  0  0  0  0
 36 40  1  0  0  0  0
 36  1  1  0  0  0  0
 37 36  2  0  0  0  0
 38 36  2  0  0  0  0
 39 48  1  0  0  0  0
 39 46  1  0  0  0  0
 40 39  2  0  0  0  0
 41 40  1  0  0  0  0
 41 43  2  0  0  0  0
 42 41  1  0  0  0  0
 43 45  1  0  0  0  0
 44 43  1  0  0  0  0
 45 46  2  0  0  0  0
 47 50  1  0  0  0  0
 48 47  2  0  0  0  0
 52 49  1  0  0  0  0
M  END
>  <minimizedAffinity>
-6.314713

$$$$

 OpenBabel03242522453D

 52 53  0  0  0  0  0  0  0  0999 V2000
   38.2270   31.5970   38.9660 C   0  0  0  0  0  0  0  0  0  0  0  0
   39.4350   32.0980   39.4360 C   0  0  0  0  0  0  0  0  0  0  0  0
   39.6370   33.3160   39.9610 C   0  0  0  0  0  0  0  0  0  0  0  0
   38.5600   34.1610   40.0530 C   0  0  0  0  0  0  0  0  0  0  0  0
   37.3180   33.7860   39.6300 C   0  0  0  0  0  0  0  0  0  0  0  0
   37.1730   32.5140   39.0970 C   0  0  0  0  0  0  0  0  0  0  0  0
   40.4960   33.7820   40.3570 H   0  0  0  0  0  0  0  0  0  0  0  0
   38.5630   35.1780   40.4520 H   0  0  0  0  0  0  0  0  0  0  0  0
   36.4080   34.3970   39.6710 H   0  0  0  0  0  0  0  0  0  0  0  0
   36.2000   32.1860   38.7550 H   0  0  0  0  0  0  0  0  0  0  0  0
   40.6030   31.1990   39.3630 C   0  0  0  0  0  0  0  0  0  0  0  0
   40.1630   30.2020   39.2030 H   0  0  0  0  0  0  0  0  0  0  0  0
   41.2500   31.5930   38.5760 H   0  0  0  0  0  0  0  0  0  0  0  0
   41.3960   31.0190   40.6230 C   0  0  0  0  0  0  0  0  0  0  0  0
   41.3160   31.8750   41.3300 H   0  0  0  0  0  0  0  0  0  0  0  0
   42.4920   30.9920   40.4770 H   0  0  0  0  0  0  0  0  0  0  0  0
   41.2610   28.5710   40.9850 C   0  0  0  0  0  0  0  0  0  0  0  0
   40.8520   29.8720   41.3390 C   0  0  0  0  0  0  0  0  0  0  0  0
   39.9430   29.9860   42.3790 C   0  0  0  0  0  0  0  0  0  0  0  0
   39.5000   28.8740   42.9960 N   0  0  0  0  0  0  0  0  0  0  0  0
   39.9140   27.6650   42.6300 C   0  0  0  0  0  0  0  0  0  0  0  0
   40.7960   27.4830   41.6240 N   0  0  0  0  0  0  0  0  0  0  0  0
   41.9430   28.2590   40.2180 H   0  0  0  0  0  0  0  0  0  0  0  0
   39.6270   30.9900   42.6510 H   0  0  0  0  0  0  0  0  0  0  0  0
   39.3920   26.4630   43.3820 C   0  0  0  0  0  0  0  0  0  0  0  0
   40.3140   25.8890   43.6460 H   0  0  0  0  0  0  0  0  0  0  0  0
   38.8920   26.7910   44.3140 H   0  0  0  0  0  0  0  0  0  0  0  0
   38.5370   25.6030   42.5830 C   0  0  0  0  0  0  0  0  0  0  0  0
   38.7990   24.2840   42.2510 C   0  0  0  0  0  0  0  0  0  0  0  0
   37.7580   23.8120   41.4880 C   0  0  0  0  0  0  0  0  0  0  0  0
   36.9030   24.8570   41.3830 N   0  0  0  0  0  0  0  0  0  0  0  0
   37.3600   25.9310   42.0330 N   0  0  0  0  0  0  0  0  0  0  0  0
   39.6470   23.6520   42.5020 H   0  0  0  0  0  0  0  0  0  0  0  0
   37.5330   22.8670   41.0170 H   0  0  0  0  0  0  0  0  0  0  0  0
   35.9810   24.9260   40.8850 H   0  0  0  0  0  0  0  0  0  0  0  0
   37.9320   30.0420   38.3290 S   0  0  0  0  0  0  0  0  0  0  0  0
   38.1150   28.9970   39.5120 O   0  0  0  0  0  0  0  0  0  0  0  0
   39.0100   29.6460   37.3880 O   0  0  0  0  0  0  0  0  0  0  0  0
   35.7880   29.3630   36.6880 C   0  0  0  0  0  0  0  0  0  0  0  0
   36.3340   29.5400   37.9430 C   0  0  0  0  0  0  0  0  0  0  0  0
   35.3860   29.2610   38.9490 C   0  0  0  0  0  0  0  0  0  0  0  0
   35.7460   29.3800   39.9850 H   0  0  0  0  0  0  0  0  0  0  0  0
   34.0890   28.8640   38.7840 C   0  0  0  0  0  0  0  0  0  0  0  0
   33.4770   28.6860   39.6570 H   0  0  0  0  0  0  0  0  0  0  0  0
   33.6550   28.7200   37.4940 C   0  0  0  0  0  3  0  0  0  0  0  0
   34.5040   28.9700   36.4380 C   0  0  0  0  0  3  0  0  0  0  0  0
   36.9040   30.6830   34.8620 N   0  0  0  0  0  0  0  0  0  0  0  0
   36.6340   29.6260   35.5380 C   0  0  0  0  0  3  0  0  0  0  0  0
   37.3810   28.5490   34.9400 N   0  0  0  0  0  1  0  0  0  0  0  0
   37.5340   30.7110   34.0600 H   0  0  0  0  0  0  0  0  0  0  0  0
   36.8440   28.1260   34.1430 H   0  0  0  0  0  0  0  0  0  0  0  0
   37.4140   27.8050   34.1990 H   0  0  0  0  0 15  0  0  0  0  0  0
  1  6  2  0  0  0  0
  1  2  1  0  0  0  0
  2  3  2  0  0  0  0
  3  4  1  0  0  0  0
  3  7  1  0  0  0  0
  4  8  1  0  0  0  0
  5  9  1  0  0  0  0
  5  4  2  0  0  0  0
  6  5  1  0  0  0  0
 10  6  1  0  0  0  0
 11  2  1  0  0  0  0
 11 14  1  0  0  0  0
 12 11  1  0  0  0  0
 13 11  1  0  0  0  0
 14 15  1  0  0  0  0
 14 18  1  0  0  0  0
 16 14  1  0  0  0  0
 17 18  2  0  0  0  0
 17 22  1  0  0  0  0
 18 19  1  0  0  0  0
 19 24  1  0  0  0  0
 19 20  2  0  0  0  0
 21 20  1  0  0  0  0
 21 25  1  0  0  0  0
 22 21  2  0  0  0  0
 23 17  1  0  0  0  0
 25 26  1  0  0  0  0
 25 27  1  0  0  0  0
 28 25  1  0  0  0  0
 29 33  1  0  0  0  0
 29 28  1  0  0  0  0
 30 29  2  0  0  0  0
 31 30  1  0  0  0  0
 31 32  1  0  0  0  0
 32 28  2  0  0  0  0
 34 30  1  0  0  0  0
 35 31  1  0  0  0  0
 36  1  1  0  0  0  0
 36 37  2  0  0  0  0
 38 36  2  0  0  0  0
 39 40  1  0  0  0  0
 40 36  1  0  0  0  0
 40 41  2  0  0  0  0
 41 42  1  0  0  0  0
 43 41  1  0  0  0  0
 43 44  1  0  0  0  0
 45 43  2  0  0  0  0
 46 39  2  0  0  0  0
 46 45  1  0  0  0  0
 47 48  2  0  0  0  0
 48 39  1  0  0  0  0
 50 47  1  0  0  0  0
 51 49  1  0  0  0  0
M  END
>  <minimizedAffinity>
-6.27963781

$$$$

 OpenBabel03242522453D

 52 53  0  0  0  0  0  0  0  0999 V2000
   37.8210   26.2350   41.0490 C   0  0  0  0  0  0  0  0  0  0  0  0
   38.8690   25.6930   40.3130 C   0  0  0  0  0  0  0  0  0  0  0  0
   39.2520   24.4080   40.3090 C   0  0  0  0  0  0  0  0  0  0  0  0
   38.5540   23.5280   41.0990 C   0  0  0  0  0  0  0  0  0  0  0  0
   37.5010   23.9350   41.8650 C   0  0  0  0  0  0  0  0  0  0  0  0
   37.1530   25.2760   41.8260 C   0  0  0  0  0  0  0  0  0  0  0  0
   40.0100   23.8970   39.7840 H   0  0  0  0  0  0  0  0  0  0  0  0
   38.7440   22.4570   41.2050 H   0  0  0  0  0  0  0  0  0  0  0  0
   36.8920   23.2990   42.5180 H   0  0  0  0  0  0  0  0  0  0  0  0
   36.3210   25.6290   42.4220 H   0  0  0  0  0  0  0  0  0  0  0  0
   39.6210   26.6190   39.4450 C   0  0  0  0  0  0  0  0  0  0  0  0
   39.0430   27.5560   39.4890 H   0  0  0  0  0  0  0  0  0  0  0  0
   40.6440   26.6430   39.8280 H   0  0  0  0  0  0  0  0  0  0  0  0
   39.6390   26.3020   37.9790 C   0  0  0  0  0  0  0  0  0  0  0  0
   39.3830   25.2450   37.7440 H   0  0  0  0  0  0  0  0  0  0  0  0
   40.6370   26.3680   37.5070 H   0  0  0  0  0  0  0  0  0  0  0  0
   38.6850   28.5100   37.3830 C   0  0  0  0  0  0  0  0  0  0  0  0
   38.6090   27.1040   37.3310 C   0  0  0  0  0  0  0  0  0  0  0  0
   37.5400   26.5550   36.6410 C   0  0  0  0  0  0  0  0  0  0  0  0
   36.6380   27.3690   36.0600 N   0  0  0  0  0  0  0  0  0  0  0  0
   36.7480   28.6930   36.1330 C   0  0  0  0  0  0  0  0  0  0  0  0
   37.7640   29.2920   36.7910 N   0  0  0  0  0  0  0  0  0  0  0  0
   39.4150   29.1340   37.8600 H   0  0  0  0  0  0  0  0  0  0  0  0
   37.4820   25.4710   36.6030 H   0  0  0  0  0  0  0  0  0  0  0  0
   35.7130   29.5450   35.4370 C   0  0  0  0  0  0  0  0  0  0  0  0
   34.8430   28.8560   35.3010 H   0  0  0  0  0  0  0  0  0  0  0  0
   35.4100   30.3820   36.0970 H   0  0  0  0  0  0  0  0  0  0  0  0
   36.1290   30.0120   34.1270 C   0  0  0  0  0  0  0  0  0  0  0  0
   36.1250   31.3290   33.6990 C   0  0  0  0  0  0  0  0  0  0  0  0
   36.5870   31.3680   32.4050 C   0  0  0  0  0  0  0  0  0  0  0  0
   36.8540   30.0770   32.0930 N   0  0  0  0  0  0  0  0  0  0  0  0
   36.5840   29.2600   33.1150 N   0  0  0  0  0  0  0  0  0  0  0  0
   35.8290   32.2360   34.2200 H   0  0  0  0  0  0  0  0  0  0  0  0
   36.7540   32.1550   31.6850 H   0  0  0  0  0  0  0  0  0  0  0  0
   37.2260   29.6620   31.2030 H   0  0  0  0  0  0  0  0  0  0  0  0
   37.2870   27.8550   41.0460 S   0  0  0  0  0  0  0  0  0  0  0  0
   36.3180   28.0420   42.2920 O   0  0  0  0  0  0  0  0  0  0  0  0
   36.3800   28.1080   39.8990 O   0  0  0  0  0  0  0  0  0  0  0  0
   38.1990   30.4790   41.2460 C   0  0  0  0  0  0  0  0  0  0  0  0
   38.3470   29.1300   41.5000 C   0  0  0  0  0  0  0  0  0  0  0  0
   39.5420   28.8780   42.2060 C   0  0  0  0  0  0  0  0  0  0  0  0
   39.7360   27.8200   42.4470 H   0  0  0  0  0  0  0  0  0  0  0  0
   40.4740   29.7900   42.6180 C   0  0  0  0  0  0  0  0  0  0  0  0
   41.3470   29.4460   43.1540 H   0  0  0  0  0  0  0  0  0  0  0  0
   40.2210   31.0990   42.3130 C   0  0  0  0  0  3  0  0  0  0  0  0
   39.0810   31.4510   41.6230 C   0  0  0  0  0  3  0  0  0  0  0  0
   36.8180   31.2530   39.2930 N   0  0  0  0  0  0  0  0  0  0  0  0
   37.0220   30.9030   40.5110 C   0  0  0  0  0  3  0  0  0  0  0  0
   35.7510   30.9890   41.1840 N   0  0  0  0  0  1  0  0  0  0  0  0
   35.9130   31.5320   38.9140 H   0  0  0  0  0  0  0  0  0  0  0  0
   35.5850   31.9640   41.5360 H   0  0  0  0  0  0  0  0  0  0  0  0
   35.0670   31.5960   41.7000 H   0  0  0  0  0 15  0  0  0  0  0  0
  1  6  1  0  0  0  0
  2  1  2  0  0  0  0
  3  2  1  0  0  0  0
  3  4  2  0  0  0  0
  4  8  1  0  0  0  0
  4  5  1  0  0  0  0
  5  9  1  0  0  0  0
  6  5  2  0  0  0  0
  6 10  1  0  0  0  0
  7  3  1  0  0  0  0
 11 12  1  0  0  0  0
 11 13  1  0  0  0  0
 11  2  1  0  0  0  0
 14 11  1  0  0  0  0
 15 14  1  0  0  0  0
 16 14  1  0  0  0  0
 17 23  1  0  0  0  0
 18 17  1  0  0  0  0
 18 14  1  0  0  0  0
 19 18  2  0  0  0  0
 20 21  2  0  0  0  0
 20 19  1  0  0  0  0
 21 22  1  0  0  0  0
 22 17  2  0  0  0  0
 24 19  1  0  0  0  0
 25 27  1  0  0  0  0
 25 21  1  0  0  0  0
 26 25  1  0  0  0  0
 28 25  1  0  0  0  0
 29 28  1  0  0  0  0
 29 33  1  0  0  0  0
 30 29  2  0  0  0  0
 31 30  1  0  0  0  0
 31 32  1  0  0  0  0
 32 28  2  0  0  0  0
 34 30  1  0  0  0  0
 35 31  1  0  0  0  0
 36  1  1  0  0  0  0
 36 40  1  0  0  0  0
 36 37  2  0  0  0  0
 38 36  2  0  0  0  0
 39 40  2  0  0  0  0
 39 46  1  0  0  0  0
 40 41  1  0  0  0  0
 41 42  1  0  0  0  0
 41 43  2  0  0  0  0
 43 44  1  0  0  0  0
 45 43  1  0  0  0  0
 46 45  2  0  0  0  0
 47 48  2  0  0  0  0
 48 39  1  0  0  0  0
 49 51  1  0  0  0  0
 50 47  1  0  0  0  0
M  END
>  <minimizedAffinity>
-6.18195486

$$$$

 OpenBabel03242522453D

 52 53  0  0  0  0  0  0  0  0999 V2000
   37.1730   27.7170   41.2270 C   0  0  0  0  0  0  0  0  0  0  0  0
   38.3880   27.0440   41.2620 C   0  0  0  0  0  0  0  0  0  0  0  0
   39.0850   26.7240   42.3640 C   0  0  0  0  0  0  0  0  0  0  0  0
   38.5630   27.0870   43.5800 C   0  0  0  0  0  0  0  0  0  0  0  0
   37.3740   27.7480   43.6800 C   0  0  0  0  0  0  0  0  0  0  0  0
   36.7010   28.0500   42.5050 C   0  0  0  0  0  0  0  0  0  0  0  0
   39.9940   26.2080   42.5010 H   0  0  0  0  0  0  0  0  0  0  0  0
   39.0080   26.9020   44.5600 H   0  0  0  0  0  0  0  0  0  0  0  0
   36.8870   28.0700   44.6080 H   0  0  0  0  0  0  0  0  0  0  0  0
   35.7540   28.5730   42.5510 H   0  0  0  0  0  0  0  0  0  0  0  0
   38.9590   26.6290   39.9660 C   0  0  0  0  0  0  0  0  0  0  0  0
   38.5660   25.6110   39.8150 H   0  0  0  0  0  0  0  0  0  0  0  0
   38.6680   27.3920   39.2400 H   0  0  0  0  0  0  0  0  0  0  0  0
   40.4440   26.4280   39.9180 C   0  0  0  0  0  0  0  0  0  0  0  0
   40.7530   25.4610   39.4610 H   0  0  0  0  0  0  0  0  0  0  0  0
   40.9280   26.3350   40.9080 H   0  0  0  0  0  0  0  0  0  0  0  0
   40.3460   27.8260   37.8740 C   0  0  0  0  0  0  0  0  0  0  0  0
   41.0130   27.4610   39.0610 C   0  0  0  0  0  0  0  0  0  0  0  0
   42.1910   28.1290   39.3540 C   0  0  0  0  0  0  0  0  0  0  0  0
   42.6400   29.0800   38.5140 N   0  0  0  0  0  0  0  0  0  0  0  0
   41.9780   29.3950   37.4040 C   0  0  0  0  0  0  0  0  0  0  0  0
   40.8260   28.7820   37.0580 N   0  0  0  0  0  0  0  0  0  0  0  0
   39.4360   27.4400   37.4600 H   0  0  0  0  0  0  0  0  0  0  0  0
   42.7040   27.8450   40.2690 H   0  0  0  0  0  0  0  0  0  0  0  0
   42.5290   30.4880   36.5190 C   0  0  0  0  0  0  0  0  0  0  0  0
   43.6370   30.3600   36.5870 H   0  0  0  0  0  0  0  0  0  0  0  0
   42.2100   30.3200   35.4710 H   0  0  0  0  0  0  0  0  0  0  0  0
   42.1990   31.8270   36.9760 C   0  0  0  0  0  0  0  0  0  0  0  0
   43.1090   32.8340   37.2520 C   0  0  0  0  0  0  0  0  0  0  0  0
   42.4150   33.9500   37.6570 C   0  0  0  0  0  0  0  0  0  0  0  0
   41.1120   33.5810   37.6130 N   0  0  0  0  0  0  0  0  0  0  0  0
   40.9730   32.3160   37.2080 N   0  0  0  0  0  0  0  0  0  0  0  0
   44.1950   32.8360   37.1890 H   0  0  0  0  0  0  0  0  0  0  0  0
   42.6970   34.9450   37.9650 H   0  0  0  0  0  0  0  0  0  0  0  0
   40.2480   34.1330   37.8420 H   0  0  0  0  0  0  0  0  0  0  0  0
   36.2480   28.1040   39.8470 S   0  0  0  0  0  0  0  0  0  0  0  0
   34.9230   28.8260   40.3450 O   0  0  0  0  0  0  0  0  0  0  0  0
   35.7150   26.8730   39.2090 O   0  0  0  0  0  0  0  0  0  0  0  0
   37.0040   30.6900   39.1440 C   0  0  0  0  0  0  0  0  0  0  0  0
   36.7220   29.3830   38.8010 C   0  0  0  0  0  0  0  0  0  0  0  0
   36.8580   29.1860   37.4110 C   0  0  0  0  0  0  0  0  0  0  0  0
   36.6480   28.1640   37.0550 H   0  0  0  0  0  0  0  0  0  0  0  0
   37.2160   30.1100   36.4700 C   0  0  0  0  0  0  0  0  0  0  0  0
   37.2790   29.8100   35.4330 H   0  0  0  0  0  0  0  0  0  0  0  0
   37.4740   31.3740   36.9250 C   0  0  0  0  0  3  0  0  0  0  0  0
   37.3680   31.6710   38.2670 C   0  0  0  0  0  3  0  0  0  0  0  0
   35.9050   31.3500   41.3070 N   0  0  0  0  0  0  0  0  0  0  0  0
   36.8950   31.0610   40.5420 C   0  0  0  0  0  3  0  0  0  0  0  0
   38.0840   31.1590   41.3510 N   0  0  0  0  0  1  0  0  0  0  0  0
   35.9880   31.5970   42.2930 H   0  0  0  0  0  0  0  0  0  0  0  0
   38.4380   32.1470   41.3670 H   0  0  0  0  0 15  0  0  0  0  0  0
   38.8390   31.7790   41.7340 H   0  0  0  0  0  0  0  0  0  0  0  0
  1  2  2  0  0  0  0
  1  6  1  0  0  0  0
  2  3  1  0  0  0  0
  3  7  1  0  0  0  0
  3  4  2  0  0  0  0
  4  5  1  0  0  0  0
  4  8  1  0  0  0  0
  5  9  1  0  0  0  0
  6 10  1  0  0  0  0
  6  5  2  0  0  0  0
 11  2  1  0  0  0  0
 12 11  1  0  0  0  0
 13 11  1  0  0  0  0
 14 11  1  0  0  0  0
 14 16  1  0  0  0  0
 15 14  1  0  0  0  0
 17 18  1  0  0  0  0
 18 19  2  0  0  0  0
 18 14  1  0  0  0  0
 19 24  1  0  0  0  0
 20 19  1  0  0  0  0
 21 20  2  0  0  0  0
 22 21  1  0  0  0  0
 22 17  2  0  0  0  0
 23 17  1  0  0  0  0
 25 26  1  0  0  0  0
 25 28  1  0  0  0  0
 25 21  1  0  0  0  0
 27 25  1  0  0  0  0
 28 32  2  0  0  0  0
 28 29  1  0  0  0  0
 29 30  2  0  0  0  0
 30 34  1  0  0  0  0
 31 30  1  0  0  0  0
 31 35  1  0  0  0  0
 32 31  1  0  0  0  0
 33 29  1  0  0  0  0
 36 37  2  0  0  0  0
 36  1  1  0  0  0  0
 38 36  2  0  0  0  0
 39 48  1  0  0  0  0
 40 39  1  0  0  0  0
 40 36  1  0  0  0  0
 41 40  2  0  0  0  0
 42 41  1  0  0  0  0
 43 45  2  0  0  0  0
 43 41  1  0  0  0  0
 44 43  1  0  0  0  0
 45 46  1  0  0  0  0
 46 39  2  0  0  0  0
 47 50  1  0  0  0  0
 48 47  2  0  0  0  0
 49 52  1  0  0  0  0
M  END
>  <minimizedAffinity>
-6.17687511

$$$$

 OpenBabel03242522453D

 52 53  0  0  0  0  0  0  0  0999 V2000
   39.9720   28.7940   42.3640 C   0  0  0  0  0  0  0  0  0  0  0  0
   40.2550   27.6520   43.1020 C   0  0  0  0  0  0  0  0  0  0  0  0
   41.4290   27.3530   43.6790 C   0  0  0  0  0  0  0  0  0  0  0  0
   42.4590   28.2490   43.5400 C   0  0  0  0  0  0  0  0  0  0  0  0
   42.3060   29.4120   42.8420 C   0  0  0  0  0  0  0  0  0  0  0  0
   41.0690   29.6640   42.2690 C   0  0  0  0  0  0  0  0  0  0  0  0
   41.7410   26.5350   44.2660 H   0  0  0  0  0  0  0  0  0  0  0  0
   43.4680   28.1490   43.9460 H   0  0  0  0  0  0  0  0  0  0  0  0
   43.0730   30.1790   42.6860 H   0  0  0  0  0  0  0  0  0  0  0  0
   40.9160   30.5790   41.7110 H   0  0  0  0  0  0  0  0  0  0  0  0
   39.1570   26.6830   43.2790 C   0  0  0  0  0  0  0  0  0  0  0  0
   38.9090   26.7530   44.3500 H   0  0  0  0  0  0  0  0  0  0  0  0
   38.3780   26.9610   42.5650 H   0  0  0  0  0  0  0  0  0  0  0  0
   39.5030   25.2340   43.1070 C   0  0  0  0  0  0  0  0  0  0  0  0
   39.2940   24.6110   44.0050 H   0  0  0  0  0  0  0  0  0  0  0  0
   40.5830   25.0310   42.9790 H   0  0  0  0  0  0  0  0  0  0  0  0
   37.2560   24.6950   42.2100 C   0  0  0  0  0  0  0  0  0  0  0  0
   38.6560   24.6890   42.0520 C   0  0  0  0  0  0  0  0  0  0  0  0
   39.1560   24.1640   40.8710 C   0  0  0  0  0  0  0  0  0  0  0  0
   38.3030   23.6930   39.9420 N   0  0  0  0  0  0  0  0  0  0  0  0
   36.9870   23.7190   40.1320 C   0  0  0  0  0  0  0  0  0  0  0  0
   36.4340   24.2150   41.2600 N   0  0  0  0  0  0  0  0  0  0  0  0
   36.6660   25.0450   43.0340 H   0  0  0  0  0  0  0  0  0  0  0  0
   40.2360   24.1600   40.7520 H   0  0  0  0  0  0  0  0  0  0  0  0
   36.0880   23.1940   39.0370 C   0  0  0  0  0  0  0  0  0  0  0  0
   36.7910   22.7020   38.3220 H   0  0  0  0  0  0  0  0  0  0  0  0
   35.4000   22.4300   39.4490 H   0  0  0  0  0  0  0  0  0  0  0  0
   35.3720   24.2370   38.3220 C   0  0  0  0  0  0  0  0  0  0  0  0
   35.8200   25.5310   38.1180 C   0  0  0  0  0  0  0  0  0  0  0  0
   34.8660   26.2140   37.4020 C   0  0  0  0  0  0  0  0  0  0  0  0
   33.8750   25.3130   37.1970 N   0  0  0  0  0  0  0  0  0  0  0  0
   34.1680   24.1300   37.7440 N   0  0  0  0  0  0  0  0  0  0  0  0
   36.7440   26.0120   38.4290 H   0  0  0  0  0  0  0  0  0  0  0  0
   34.7830   27.2210   37.0210 H   0  0  0  0  0  0  0  0  0  0  0  0
   32.9610   25.4210   36.6930 H   0  0  0  0  0  0  0  0  0  0  0  0
   38.4810   29.2190   41.6510 S   0  0  0  0  0  0  0  0  0  0  0  0
   37.4220   29.3920   42.8220 O   0  0  0  0  0  0  0  0  0  0  0  0
   37.9210   28.0780   40.8840 O   0  0  0  0  0  0  0  0  0  0  0  0
   37.2060   31.2130   40.1840 C   0  0  0  0  0  0  0  0  0  0  0  0
   38.2340   30.7920   41.0030 C   0  0  0  0  0  0  0  0  0  0  0  0
   39.1320   31.8470   41.2680 C   0  0  0  0  0  0  0  0  0  0  0  0
   39.9850   31.5910   41.9170 H   0  0  0  0  0  0  0  0  0  0  0  0
   39.0610   33.1340   40.8140 C   0  0  0  0  0  0  0  0  0  0  0  0
   39.8290   33.8380   41.1030 H   0  0  0  0  0  0  0  0  0  0  0  0
   37.9980   33.4390   40.0090 C   0  0  0  0  0  3  0  0  0  0  0  0
   37.0630   32.4780   39.6890 C   0  0  0  0  0  3  0  0  0  0  0  0
   35.9970   29.5440   38.7440 N   0  0  0  0  0  0  0  0  0  0  0  0
   36.2010   30.2380   39.8040 C   0  0  0  0  0  3  0  0  0  0  0  0
   35.1550   29.8900   40.7330 N   0  0  0  0  0  1  0  0  0  0  0  0
   35.2290   28.8830   38.6230 H   0  0  0  0  0  0  0  0  0  0  0  0
   34.3020   30.4770   40.5630 H   0  0  0  0  0  0  0  0  0  0  0  0
   34.1750   30.0710   41.0630 H   0  0  0  0  0 15  0  0  0  0  0  0
  1  2  1  0  0  0  0
  2 11  1  0  0  0  0
  2  3  2  0  0  0  0
  3  7  1  0  0  0  0
  4  3  1  0  0  0  0
  4  8  1  0  0  0  0
  5  4  2  0  0  0  0
  6  1  2  0  0  0  0
  6  5  1  0  0  0  0
  9  5  1  0  0  0  0
 10  6  1  0  0  0  0
 11 12  1  0  0  0  0
 13 11  1  0  0  0  0
 14 11  1  0  0  0  0
 14 15  1  0  0  0  0
 16 14  1  0  0  0  0
 17 23  1  0  0  0  0
 18 17  1  0  0  0  0
 18 14  1  0  0  0  0
 19 18  2  0  0  0  0
 20 21  2  0  0  0  0
 20 19  1  0  0  0  0
 21 22  1  0  0  0  0
 22 17  2  0  0  0  0
 24 19  1  0  0  0  0
 25 27  1  0  0  0  0
 25 21  1  0  0  0  0
 26 25  1  0  0  0  0
 28 25  1  0  0  0  0
 29 28  1  0  0  0  0
 29 33  1  0  0  0  0
 30 29  2  0  0  0  0
 31 30  1  0  0  0  0
 31 32  1  0  0  0  0
 32 28  2  0  0  0  0
 34 30  1  0  0  0  0
 35 31  1  0  0  0  0
 36  1  1  0  0  0  0
 36 37  2  0  0  0  0
 38 36  2  0  0  0  0
 39 40  1  0  0  0  0
 40 41  2  0  0  0  0
 40 36  1  0  0  0  0
 41 42  1  0  0  0  0
 43 44  1  0  0  0  0
 43 41  1  0  0  0  0
 45 43  2  0  0  0  0
 46 45  1  0  0  0  0
 46 39  2  0  0  0  0
 47 48  2  0  0  0  0
 48 39  1  0  0  0  0
 50 47  1  0  0  0  0
 51 49  1  0  0  0  0
M  END
>  <minimizedAffinity>
-6.16525745

$$$$

 OpenBabel03242522453D

 52 53  0  0  0  0  0  0  0  0999 V2000
   37.7310   26.1050   39.9290 C   0  0  0  0  0  0  0  0  0  0  0  0
   37.1890   26.2400   41.2020 C   0  0  0  0  0  0  0  0  0  0  0  0
   37.2580   25.3380   42.1920 C   0  0  0  0  0  0  0  0  0  0  0  0
   37.9260   24.1650   41.9450 C   0  0  0  0  0  0  0  0  0  0  0  0
   38.5080   23.9140   40.7360 C   0  0  0  0  0  0  0  0  0  0  0  0
   38.4010   24.8860   39.7530 C   0  0  0  0  0  0  0  0  0  0  0  0
   36.9030   25.3480   43.1840 H   0  0  0  0  0  0  0  0  0  0  0  0
   38.0680   23.3370   42.6430 H   0  0  0  0  0  0  0  0  0  0  0  0
   39.0600   23.0080   40.4590 H   0  0  0  0  0  0  0  0  0  0  0  0
   38.8530   24.7160   38.7840 H   0  0  0  0  0  0  0  0  0  0  0  0
   36.4810   27.5020   41.4940 C   0  0  0  0  0  0  0  0  0  0  0  0
   36.6780   28.1290   40.6100 H   0  0  0  0  0  0  0  0  0  0  0  0
   35.4410   27.2350   41.6980 H   0  0  0  0  0  0  0  0  0  0  0  0
   37.0190   28.3300   42.6230 C   0  0  0  0  0  0  0  0  0  0  0  0
   37.8520   27.8460   43.1790 H   0  0  0  0  0  0  0  0  0  0  0  0
   36.3050   28.4960   43.4520 H   0  0  0  0  0  0  0  0  0  0  0  0
   38.9670   29.7950   42.1760 C   0  0  0  0  0  0  0  0  0  0  0  0
   37.5850   29.5490   42.0580 C   0  0  0  0  0  0  0  0  0  0  0  0
   36.8300   30.4980   41.3880 C   0  0  0  0  0  0  0  0  0  0  0  0
   37.4350   31.5910   40.8850 N   0  0  0  0  0  0  0  0  0  0  0  0
   38.7440   31.7830   41.0180 C   0  0  0  0  0  0  0  0  0  0  0  0
   39.5370   30.8990   41.6610 N   0  0  0  0  0  0  0  0  0  0  0  0
   39.7250   29.2030   42.6520 H   0  0  0  0  0  0  0  0  0  0  0  0
   35.7640   30.3080   41.2990 H   0  0  0  0  0  0  0  0  0  0  0  0
   39.3590   33.0210   40.4090 C   0  0  0  0  0  0  0  0  0  0  0  0
   38.4990   33.7270   40.3040 H   0  0  0  0  0  0  0  0  0  0  0  0
   40.1000   33.4560   41.1100 H   0  0  0  0  0  0  0  0  0  0  0  0
   39.9270   32.8000   39.0910 C   0  0  0  0  0  0  0  0  0  0  0  0
   41.2210   33.1090   38.7050 C   0  0  0  0  0  0  0  0  0  0  0  0
   41.3790   32.7520   37.3870 C   0  0  0  0  0  0  0  0  0  0  0  0
   40.1790   32.2430   37.0190 N   0  0  0  0  0  0  0  0  0  0  0  0
   39.3050   32.2670   38.0300 N   0  0  0  0  0  0  0  0  0  0  0  0
   42.0350   33.5530   39.2720 H   0  0  0  0  0  0  0  0  0  0  0  0
   42.1960   32.8030   36.6830 H   0  0  0  0  0  0  0  0  0  0  0  0
   39.8670   31.8530   36.0960 H   0  0  0  0  0  0  0  0  0  0  0  0
   37.6900   27.2480   38.6640 S   0  0  0  0  0  0  0  0  0  0  0  0
   38.4250   26.6020   37.4110 O   0  0  0  0  0  0  0  0  0  0  0  0
   38.5610   28.4100   38.9760 O   0  0  0  0  0  0  0  0  0  0  0  0
   35.8910   28.7200   37.1300 C   0  0  0  0  0  0  0  0  0  0  0  0
   36.2290   27.5720   37.8190 C   0  0  0  0  0  0  0  0  0  0  0  0
   35.1820   26.6280   37.7690 C   0  0  0  0  0  0  0  0  0  0  0  0
   35.3740   25.6800   38.2980 H   0  0  0  0  0  0  0  0  0  0  0  0
   33.9730   26.7570   37.1450 C   0  0  0  0  0  0  0  0  0  0  0  0
   33.2650   25.9420   37.1930 H   0  0  0  0  0  0  0  0  0  0  0  0
   33.7470   27.9380   36.4920 C   0  0  0  0  0  3  0  0  0  0  0  0
   34.7070   28.9270   36.4820 C   0  0  0  0  0  3  0  0  0  0  0  0
   37.8930   30.0410   36.3770 N   0  0  0  0  0  0  0  0  0  0  0  0
   36.8590   29.8000   37.0990 C   0  0  0  0  0  3  0  0  0  0  0  0
   36.7400   30.8940   38.0290 N   0  0  0  0  0  1  0  0  0  0  0  0
   38.4900   30.8630   36.4760 H   0  0  0  0  0  0  0  0  0  0  0  0
   37.3250   30.7170   38.8820 H   0  0  0  0  0 15  0  0  0  0  0  0
   37.0260   31.2960   38.9550 H   0  0  0  0  0  0  0  0  0  0  0  0
  1  2  1  0  0  0  0
  2 11  1  0  0  0  0
  2  3  2  0  0  0  0
  3  7  1  0  0  0  0
  4  3  1  0  0  0  0
  4  8  1  0  0  0  0
  5  4  2  0  0  0  0
  6  1  2  0  0  0  0
  6  5  1  0  0  0  0
  9  5  1  0  0  0  0
 10  6  1  0  0  0  0
 11 13  1  0  0  0  0
 11 14  1  0  0  0  0
 12 11  1  0  0  0  0
 14 15  1  0  0  0  0
 14 16  1  0  0  0  0
 17 23  1  0  0  0  0
 18 17  1  0  0  0  0
 18 14  1  0  0  0  0
 19 18  2  0  0  0  0
 20 21  2  0  0  0  0
 20 19  1  0  0  0  0
 21 22  1  0  0  0  0
 22 17  2  0  0  0  0
 24 19  1  0  0  0  0
 25 21  1  0  0  0  0
 25 27  1  0  0  0  0
 26 25  1  0  0  0  0
 28 25  1  0  0  0  0
 29 28  1  0  0  0  0
 29 33  1  0  0  0  0
 30 29  2  0  0  0  0
 31 30  1  0  0  0  0
 31 32  1  0  0  0  0
 32 28  2  0  0  0  0
 34 30  1  0  0  0  0
 35 31  1  0  0  0  0
 36 38  2  0  0  0  0
 36  1  1  0  0  0  0
 37 36  2  0  0  0  0
 39 40  1  0  0  0  0
 40 36  1  0  0  0  0
 41 40  2  0  0  0  0
 41 42  1  0  0  0  0
 43 44  1  0  0  0  0
 43 41  1  0  0  0  0
 45 43  2  0  0  0  0
 46 45  1  0  0  0  0
 46 39  2  0  0  0  0
 47 50  1  0  0  0  0
 47 48  2  0  0  0  0
 48 39  1  0  0  0  0
 49 52  1  0  0  0  0
M  END
>  <minimizedAffinity>
-6.12447071

$$$$

 OpenBabel03242522453D

 52 53  0  0  0  0  0  0  0  0999 V2000
   36.9130   27.3570   40.3430 C   0  0  0  0  0  0  0  0  0  0  0  0
   36.3770   28.1070   39.3020 C   0  0  0  0  0  0  0  0  0  0  0  0
   36.0090   27.6420   38.0990 C   0  0  0  0  0  0  0  0  0  0  0  0
   36.1670   26.3010   37.8540 C   0  0  0  0  0  0  0  0  0  0  0  0
   36.6780   25.4570   38.7960 C   0  0  0  0  0  0  0  0  0  0  0  0
   37.0400   25.9980   40.0210 C   0  0  0  0  0  0  0  0  0  0  0  0
   35.5820   28.1140   37.2590 H   0  0  0  0  0  0  0  0  0  0  0  0
   35.9180   25.7740   36.9300 H   0  0  0  0  0  0  0  0  0  0  0  0
   36.8340   24.3770   38.6830 H   0  0  0  0  0  0  0  0  0  0  0  0
   37.4470   25.3530   40.7900 H   0  0  0  0  0  0  0  0  0  0  0  0
   36.1820   29.5480   39.5510 C   0  0  0  0  0  0  0  0  0  0  0  0
   35.1040   29.6400   39.7590 H   0  0  0  0  0  0  0  0  0  0  0  0
   36.8730   29.8220   40.3520 H   0  0  0  0  0  0  0  0  0  0  0  0
   36.3790   30.4660   38.3820 C   0  0  0  0  0  0  0  0  0  0  0  0
   35.5420   31.1820   38.2250 H   0  0  0  0  0  0  0  0  0  0  0  0
   36.3860   29.9610   37.3970 H   0  0  0  0  0  0  0  0  0  0  0  0
   37.6010   32.0740   39.8170 C   0  0  0  0  0  0  0  0  0  0  0  0
   37.5510   31.2910   38.6470 C   0  0  0  0  0  0  0  0  0  0  0  0
   38.6500   31.3450   37.8040 C   0  0  0  0  0  0  0  0  0  0  0  0
   39.6980   32.1250   38.1310 N   0  0  0  0  0  0  0  0  0  0  0  0
   39.7040   32.8480   39.2470 C   0  0  0  0  0  0  0  0  0  0  0  0
   38.6660   32.8420   40.1110 N   0  0  0  0  0  0  0  0  0  0  0  0
   36.8700   32.1830   40.5940 H   0  0  0  0  0  0  0  0  0  0  0  0
   38.6080   30.7410   36.9010 H   0  0  0  0  0  0  0  0  0  0  0  0
   40.9230   33.6820   39.5620 C   0  0  0  0  0  0  0  0  0  0  0  0
   40.5630   34.7350   39.4650 H   0  0  0  0  0  0  0  0  0  0  0  0
   41.2400   33.5040   40.6090 H   0  0  0  0  0  0  0  0  0  0  0  0
   42.0170   33.4900   38.6260 C   0  0  0  0  0  0  0  0  0  0  0  0
   43.0470   32.5730   38.7620 C   0  0  0  0  0  0  0  0  0  0  0  0
   43.8830   32.6930   37.6780 C   0  0  0  0  0  0  0  0  0  0  0  0
   43.3340   33.6760   36.9240 N   0  0  0  0  0  0  0  0  0  0  0  0
   42.2200   34.1580   37.4830 N   0  0  0  0  0  0  0  0  0  0  0  0
   43.2420   31.8480   39.5480 H   0  0  0  0  0  0  0  0  0  0  0  0
   44.7890   32.1990   37.3640 H   0  0  0  0  0  0  0  0  0  0  0  0
   43.6540   34.0820   36.0100 H   0  0  0  0  0  0  0  0  0  0  0  0
   37.3550   27.9130   41.8940 S   0  0  0  0  0  0  0  0  0  0  0  0
   36.5440   27.0570   42.9590 O   0  0  0  0  0  0  0  0  0  0  0  0
   36.8370   29.2840   42.1290 O   0  0  0  0  0  0  0  0  0  0  0  0
   40.0130   28.3470   42.6050 C   0  0  0  0  0  0  0  0  0  0  0  0
   38.8960   27.5360   42.5550 C   0  0  0  0  0  0  0  0  0  0  0  0
   39.1640   26.2750   43.1300 C   0  0  0  0  0  0  0  0  0  0  0  0
   38.3190   25.5660   43.1280 H   0  0  0  0  0  0  0  0  0  0  0  0
   40.3370   25.8430   43.6800 C   0  0  0  0  0  0  0  0  0  0  0  0
   40.3930   24.8420   44.0850 H   0  0  0  0  0  0  0  0  0  0  0  0
   41.3770   26.7320   43.6750 C   0  0  0  0  0  3  0  0  0  0  0  0
   41.2190   27.9910   43.1360 C   0  0  0  0  0  3  0  0  0  0  0  0
   39.4960   30.8050   42.4960 N   0  0  0  0  0  0  0  0  0  0  0  0
   39.9070   29.6780   42.0380 C   0  0  0  0  0  3  0  0  0  0  0  0
   40.3210   29.9110   40.6780 N   0  0  0  0  0  1  0  0  0  0  0  0
   39.4820   31.6760   41.9640 H   0  0  0  0  0  0  0  0  0  0  0  0
   39.5030   29.8310   40.0250 H   0  0  0  0  0  0  0  0  0  0  0  0
   40.0370   29.9720   39.6690 H   0  0  0  0  0 15  0  0  0  0  0  0
  1 36  1  0  0  0  0
  2 11  1  0  0  0  0
  2  1  2  0  0  0  0
  3  2  1  0  0  0  0
  4  3  2  0  0  0  0
  4  5  1  0  0  0  0
  5  6  2  0  0  0  0
  6  1  1  0  0  0  0
  6 10  1  0  0  0  0
  7  3  1  0  0  0  0
  8  4  1  0  0  0  0
  9  5  1  0  0  0  0
 11 12  1  0  0  0  0
 11 13  1  0  0  0  0
 14 18  1  0  0  0  0
 14 11  1  0  0  0  0
 15 14  1  0  0  0  0
 16 14  1  0  0  0  0
 17 22  1  0  0  0  0
 17 23  1  0  0  0  0
 18 17  2  0  0  0  0
 19 20  2  0  0  0  0
 19 18  1  0  0  0  0
 20 21  1  0  0  0  0
 21 25  1  0  0  0  0
 21 22  2  0  0  0  0
 24 19  1  0  0  0  0
 25 27  1  0  0  0  0
 26 25  1  0  0  0  0
 28 29  1  0  0  0  0
 28 25  1  0  0  0  0
 29 33  1  0  0  0  0
 30 29  2  0  0  0  0
 31 32  1  0  0  0  0
 31 30  1  0  0  0  0
 32 28  2  0  0  0  0
 34 30  1  0  0  0  0
 35 31  1  0  0  0  0
 36 38  2  0  0  0  0
 36 40  1  0  0  0  0
 36 37  2  0  0  0  0
 39 46  1  0  0  0  0
 40 39  2  0  0  0  0
 40 41  1  0  0  0  0
 41 43  2  0  0  0  0
 42 41  1  0  0  0  0
 43 44  1  0  0  0  0
 45 43  1  0  0  0  0
 46 45  2  0  0  0  0
 48 47  2  0  0  0  0
 48 39  1  0  0  0  0
 50 47  1  0  0  0  0
 51 49  1  0  0  0  0
M  END
>  <minimizedAffinity>
-6.03785038

$$$$

 OpenBabel03242522453D

 52 53  0  0  0  0  0  0  0  0999 V2000
   39.6820   32.1770   39.1960 C   0  0  0  0  0  0  0  0  0  0  0  0
   40.4780   31.9750   40.3170 C   0  0  0  0  0  0  0  0  0  0  0  0
   41.8080   32.1350   40.3830 C   0  0  0  0  0  0  0  0  0  0  0  0
   42.4630   32.5390   39.2460 C   0  0  0  0  0  0  0  0  0  0  0  0
   41.7940   32.7750   38.0810 C   0  0  0  0  0  0  0  0  0  0  0  0
   40.4190   32.5920   38.0760 C   0  0  0  0  0  0  0  0  0  0  0  0
   42.4950   32.0270   41.1750 H   0  0  0  0  0  0  0  0  0  0  0  0
   43.5370   32.7100   39.1400 H   0  0  0  0  0  0  0  0  0  0  0  0
   42.2390   33.1010   37.1330 H   0  0  0  0  0  0  0  0  0  0  0  0
   39.8600   32.7740   37.1670 H   0  0  0  0  0  0  0  0  0  0  0  0
   39.7920   31.5580   41.5550 C   0  0  0  0  0  0  0  0  0  0  0  0
   39.8770   32.4350   42.2160 H   0  0  0  0  0  0  0  0  0  0  0  0
   38.7860   31.2460   41.2630 H   0  0  0  0  0  0  0  0  0  0  0  0
   40.4450   30.4690   42.3520 C   0  0  0  0  0  0  0  0  0  0  0  0
   40.6930   30.7620   43.3960 H   0  0  0  0  0  0  0  0  0  0  0  0
   41.4480   30.1740   41.9920 H   0  0  0  0  0  0  0  0  0  0  0  0
   39.8290   28.1020   41.9500 C   0  0  0  0  0  0  0  0  0  0  0  0
   39.4970   29.3670   42.4730 C   0  0  0  0  0  0  0  0  0  0  0  0
   38.2650   29.4890   43.0960 C   0  0  0  0  0  0  0  0  0  0  0  0
   37.4540   28.4170   43.1760 N   0  0  0  0  0  0  0  0  0  0  0  0
   37.8080   27.2400   42.6690 C   0  0  0  0  0  0  0  0  0  0  0  0
   38.9930   27.0530   42.0480 N   0  0  0  0  0  0  0  0  0  0  0  0
   40.7160   27.7910   41.4330 H   0  0  0  0  0  0  0  0  0  0  0  0
   38.0100   30.4670   43.4980 H   0  0  0  0  0  0  0  0  0  0  0  0
   36.8580   26.0750   42.8150 C   0  0  0  0  0  0  0  0  0  0  0  0
   36.9150   25.8130   43.9000 H   0  0  0  0  0  0  0  0  0  0  0  0
   35.8250   26.3990   42.5770 H   0  0  0  0  0  0  0  0  0  0  0  0
   37.2490   24.9060   42.0470 C   0  0  0  0  0  0  0  0  0  0  0  0
   36.7410   24.5430   40.8100 C   0  0  0  0  0  0  0  0  0  0  0  0
   37.3570   23.3820   40.4090 C   0  0  0  0  0  0  0  0  0  0  0  0
   38.2150   23.0810   41.4140 N   0  0  0  0  0  0  0  0  0  0  0  0
   38.1570   23.9840   42.3960 N   0  0  0  0  0  0  0  0  0  0  0  0
   35.9890   25.0270   40.1910 H   0  0  0  0  0  0  0  0  0  0  0  0
   37.2840   22.7490   39.5380 H   0  0  0  0  0  0  0  0  0  0  0  0
   38.8810   22.2740   41.5120 H   0  0  0  0  0  0  0  0  0  0  0  0
   37.9870   32.0180   39.0910 S   0  0  0  0  0  0  0  0  0  0  0  0
   37.5940   32.0770   37.5520 O   0  0  0  0  0  0  0  0  0  0  0  0
   37.3110   33.2220   39.6360 O   0  0  0  0  0  0  0  0  0  0  0  0
   37.6500   29.2570   38.9470 C   0  0  0  0  0  0  0  0  0  0  0  0
   37.2280   30.5010   39.3720 C   0  0  0  0  0  0  0  0  0  0  0  0
   36.0240   30.4040   40.1000 C   0  0  0  0  0  0  0  0  0  0  0  0
   35.6190   31.3580   40.4750 H   0  0  0  0  0  0  0  0  0  0  0  0
   35.3140   29.2720   40.3880 C   0  0  0  0  0  0  0  0  0  0  0  0
   34.4010   29.3540   40.9600 H   0  0  0  0  0  0  0  0  0  0  0  0
   35.8270   28.0940   39.9170 C   0  0  0  0  0  3  0  0  0  0  0  0
   37.0000   28.0820   39.1920 C   0  0  0  0  0  3  0  0  0  0  0  0
   40.0970   28.9440   38.4630 N   0  0  0  0  0  0  0  0  0  0  0  0
   38.8720   29.1870   38.1680 C   0  0  0  0  0  3  0  0  0  0  0  0
   38.8270   29.4200   36.7460 N   0  0  0  0  0  1  0  0  0  0  0  0
   40.8630   28.9300   37.7890 H   0  0  0  0  0  0  0  0  0  0  0  0
   39.0350   30.4270   36.5320 H   0  0  0  0  0 15  0  0  0  0  0  0
   38.9280   30.1140   35.9650 H   0  0  0  0  0  0  0  0  0  0  0  0
  1  2  1  0  0  0  0
  2  3  2  0  0  0  0
  2 11  1  0  0  0  0
  3  7  1  0  0  0  0
  4  3  1  0  0  0  0
  5  4  2  0  0  0  0
  6  5  1  0  0  0  0
  6  1  2  0  0  0  0
  8  4  1  0  0  0  0
  9  5  1  0  0  0  0
 10  6  1  0  0  0  0
 11 12  1  0  0  0  0
 11 14  1  0  0  0  0
 13 11  1  0  0  0  0
 14 18  1  0  0  0  0
 14 15  1  0  0  0  0
 16 14  1  0  0  0  0
 17 22  2  0  0  0  0
 17 18  1  0  0  0  0
 18 19  2  0  0  0  0
 19 20  1  0  0  0  0
 19 24  1  0  0  0  0
 21 25  1  0  0  0  0
 21 20  2  0  0  0  0
 22 21  1  0  0  0  0
 23 17  1  0  0  0  0
 25 26  1  0  0  0  0
 27 25  1  0  0  0  0
 28 32  2  0  0  0  0
 28 25  1  0  0  0  0
 29 28  1  0  0  0  0
 30 29  2  0  0  0  0
 30 31  1  0  0  0  0
 31 35  1  0  0  0  0
 31 32  1  0  0  0  0
 33 29  1  0  0  0  0
 34 30  1  0  0  0  0
 36  1  1  0  0  0  0
 36 40  1  0  0  0  0
 36 38  2  0  0  0  0
 37 36  2  0  0  0  0
 39 46  2  0  0  0  0
 39 40  1  0  0  0  0
 40 41  2  0  0  0  0
 41 43  1  0  0  0  0
 41 42  1  0  0  0  0
 43 44  1  0  0  0  0
 45 43  2  0  0  0  0
 46 45  1  0  0  0  0
 48 47  2  0  0  0  0
 48 39  1  0  0  0  0
 50 47  1  0  0  0  0
 52 49  1  0  0  0  0
M  END
>  <minimizedAffinity>
-6.02057171

$$$$
