
 OpenBabel03242523333D

 42 45  0  0  0  0  0  0  0  0999 V2000
   44.4960   36.0810   44.6890 C   0  0  0  0  0  0  0  0  0  0  0  0
   45.2360   35.8940   43.5000 C   0  0  0  0  0  0  0  0  0  0  0  0
   46.0760   34.7820   43.3910 C   0  0  0  0  0  0  0  0  0  0  0  0
   46.1600   33.9060   44.4390 N   0  0  0  0  0  0  0  0  0  0  0  0
   45.4290   34.1280   45.5600 C   0  0  0  0  0  0  0  0  0  0  0  0
   44.6090   35.2030   45.6790 N   0  0  0  0  0  0  0  0  0  0  0  0
   43.8190   36.8960   44.8880 H   0  0  0  0  0  0  0  0  0  0  0  0
   45.0150   36.6990   42.8260 H   0  0  0  0  0  0  0  0  0  0  0  0
   46.3270   33.9430   41.1000 C   0  0  0  0  0  0  0  0  0  0  0  0
   46.7980   34.6990   42.1400 C   0  0  0  0  0  0  0  0  0  0  0  0
   47.9650   35.3440   41.8940 C   0  0  0  0  0  0  0  0  0  0  0  0
   48.4360   35.9730   42.6340 H   0  0  0  0  0  0  0  0  0  0  0  0
   48.6790   35.2960   40.7220 C   0  0  0  0  0  0  0  0  0  0  0  0
   49.6040   35.8250   40.5710 H   0  0  0  0  0  0  0  0  0  0  0  0
   48.1880   34.5210   39.6650 C   0  0  0  0  0  3  0  0  0  0  0  0
   47.0070   33.8540   39.8860 C   0  0  0  0  0  3  0  0  0  0  0  0
   43.9850   33.0010   40.5520 N   0  0  0  0  0  0  0  0  0  0  0  0
   45.1630   33.1050   41.0960 C   0  0  0  0  0  0  0  0  0  0  0  0
   45.1120   31.9090   41.8580 N   0  0  0  0  0  0  0  0  0  0  0  0
   43.6130   33.7160   39.8870 H   0  0  0  0  0  0  0  0  0  0  0  0
   44.9850   31.0330   42.4090 H   0  0  0  0  0  0  0  0  0  0  0  0
   45.9320   31.3620   42.2570 H   0  0  0  0  0  0  0  0  0  0  0  0
   45.5700   33.1170   46.6320 C   0  0  0  0  0  0  0  0  0  0  0  0
   44.5790   32.7460   46.9890 H   0  0  0  0  0  0  0  0  0  0  0  0
   46.0120   33.6360   47.5000 H   0  0  0  0  0  0  0  0  0  0  0  0
   46.5870   31.7720   46.0010 S   0  0  0  0  0  0  0  0  0  0  0  0
   47.6290   31.1180   47.2870 C   0  0  0  0  0  0  0  0  0  0  0  0
   47.9480   31.9510   48.3300 C   0  0  0  0  0  0  0  0  0  0  0  0
   48.7370   31.4520   49.3420 C   0  0  0  0  0  0  0  0  0  0  0  0
   49.2140   30.1440   49.3370 C   0  0  0  0  0  0  0  0  0  0  0  0
   49.9820   29.6970   50.3480 N   0  0  0  0  0  0  0  0  0  0  0  0
   50.4480   28.4250   50.3450 C   0  0  0  0  0  0  0  0  0  0  0  0
   50.1320   27.6010   49.3070 C   0  0  0  0  0  0  0  0  0  0  0  0
   49.3410   28.0600   48.2650 C   0  0  0  0  0  0  0  0  0  0  0  0
   48.8520   29.3720   48.2570 C   0  0  0  0  0  0  0  0  0  0  0  0
   48.0630   29.8180   47.2130 C   0  0  0  0  0  0  0  0  0  0  0  0
   47.6740   32.9740   48.4960 H   0  0  0  0  0  0  0  0  0  0  0  0
   49.0440   32.0450   50.2180 H   0  0  0  0  0  0  0  0  0  0  0  0
   51.0730   28.0350   51.1510 H   0  0  0  0  0  0  0  0  0  0  0  0
   50.4420   26.5730   49.1940 H   0  0  0  0  0  0  0  0  0  0  0  0
   49.0620   27.4480   47.4220 H   0  0  0  0  0  0  0  0  0  0  0  0
   47.7990   29.1820   46.3800 H   0  0  0  0  0  0  0  0  0  0  0  0
  1  7  1  0  0  0  0
  1  6  1  0  0  0  0
  2  1  2  0  0  0  0
  3  2  1  0  0  0  0
  3  4  2  0  0  0  0
  4  5  1  0  0  0  0
  5  6  2  0  0  0  0
  5 23  1  0  0  0  0
  8  2  1  0  0  0  0
  9 10  1  0  0  0  0
 10  3  1  0  0  0  0
 11 10  2  0  0  0  0
 11 12  1  0  0  0  0
 13 11  1  0  0  0  0
 14 13  1  0  0  0  0
 15 16  1  0  0  0  0
 15 13  2  0  0  0  0
 16  9  2  0  0  0  0
 17 18  2  0  0  0  0
 18  9  1  0  0  0  0
 18 19  1  0  0  0  0
 19 22  1  0  0  0  0
 19 21  1  0  0  0  0
 20 17  1  0  0  0  0
 23 24  1  0  0  0  0
 23 25  1  0  0  0  0
 26 23  1  0  0  0  0
 26 27  1  0  0  0  0
 27 28  1  0  0  0  0
 28 37  1  0  0  0  0
 28 29  2  0  0  0  0
 29 38  1  0  0  0  0
 30 29  1  0  0  0  0
 30 31  1  0  0  0  0
 32 31  2  0  0  0  0
 32 39  1  0  0  0  0
 33 32  1  0  0  0  0
 34 33  2  0  0  0  0
 35 34  1  0  0  0  0
 35 30  2  0  0  0  0
 36 27  2  0  0  0  0
 36 35  1  0  0  0  0
 40 33  1  0  0  0  0
 41 34  1  0  0  0  0
 42 36  1  0  0  0  0
M  END
>  <minimizedAffinity>
-6.80455971

>  <minimizedRMSD>
0.948414981

$$$$
