
 OpenBabel03242511133D

 49 53  0  0  1  0  0  0  0  0999 V2000
   50.0280   32.2020   41.6140 C   0  0  1  0  0  0  0  0  0  0  0  0
   49.2170   32.1010   40.3310 C   0  0  0  0  0  0  0  0  0  0  0  0
   48.5870   31.9700   41.7320 C   0  0  2  0  0  0  0  0  0  0  0  0
   50.3790   33.2040   41.8930 H   0  0  0  0  0  0  0  0  0  0  0  0
   49.3810   31.1950   39.7490 H   0  0  0  0  0  0  0  0  0  0  0  0
   49.0010   33.0430   39.7780 H   0  0  0  0  0  0  0  0  0  0  0  0
   48.1370   30.9700   41.9060 H   0  0  0  0  0  0  0  0  0  0  0  0
   52.3000   29.3120   41.2360 C   0  0  0  0  0  0  0  0  0  0  0  0
   52.7370   29.1100   42.5930 C   0  0  0  0  0  0  0  0  0  0  0  0
   52.2400   29.9720   43.5830 C   0  0  0  0  0  0  0  0  0  0  0  0
   51.3990   30.9210   43.2080 N   0  0  0  0  0  0  0  0  0  0  0  0
   50.9970   31.1030   41.9400 C   0  0  0  0  0  0  0  0  0  0  0  0
   51.4460   30.2960   40.9370 N   0  0  0  0  0  0  0  0  0  0  0  0
   52.6430   28.6850   40.4300 H   0  0  0  0  0  0  0  0  0  0  0  0
   53.4060   28.3020   42.6740 H   0  0  0  0  0  0  0  0  0  0  0  0
   51.8980   29.1900   45.9070 C   0  0  0  0  0  0  0  0  0  0  0  0
   52.7040   29.7360   44.9350 C   0  0  0  0  0  0  0  0  0  0  0  0
   53.9720   30.0270   45.3650 C   0  0  0  0  0  0  0  0  0  0  0  0
   54.7080   30.4550   44.7200 H   0  0  0  0  0  0  0  0  0  0  0  0
   54.3930   29.7920   46.6510 C   0  0  0  0  0  0  0  0  0  0  0  0
   55.3950   30.0300   46.9630 H   0  0  0  0  0  0  0  0  0  0  0  0
   53.5700   29.2480   47.6010 C   0  0  0  0  0  3  0  0  0  0  0  0
   52.2900   28.9390   47.2200 C   0  0  0  0  0  3  0  0  0  0  0  0
   49.2780   29.0840   45.6100 N   0  0  0  0  0  0  0  0  0  0  0  0
   50.5230   28.8280   45.6590 C   0  0  0  0  0  0  0  0  0  0  0  0
   50.1590   27.5220   45.2170 N   0  0  0  0  0  0  0  0  0  0  0  0
   48.6470   28.3230   45.3110 H   0  0  0  0  0  0  0  0  0  0  0  0
   49.8280   26.8050   44.5150 H   0  0  0  0  0  0  0  0  0  0  0  0
   50.1750   26.6620   45.8090 H   0  0  0  0  0  0  0  0  0  0  0  0
   47.7560   33.0530   42.1750 N   0  0  0  0  0  0  0  0  0  0  0  0
   47.7980   33.7370   41.3930 H   0  0  0  0  0  0  0  0  0  0  0  0
   47.1210   33.0490   43.4280 C   0  0  0  0  0  0  0  0  0  0  0  0
   47.4260   32.0690   44.3330 C   0  0  0  0  0  0  0  0  0  0  0  0
   46.8940   32.0360   45.6140 C   0  0  0  0  0  0  0  0  0  0  0  0
   46.0180   33.0140   46.0350 C   0  0  0  0  0  0  0  0  0  0  0  0
   45.6940   34.0100   45.1430 C   0  0  0  0  0  0  0  0  0  0  0  0
   44.8230   35.0070   45.5490 C   0  0  0  0  0  0  0  0  0  0  0  0
   44.4690   36.0230   44.7220 C   0  0  0  0  0  0  0  0  0  0  0  0
   45.0190   36.0180   43.4450 C   0  0  0  0  0  0  0  0  0  0  0  0
   45.8760   35.0310   43.0530 C   0  0  0  0  0  0  0  0  0  0  0  0
   46.2380   34.0120   43.8780 C   0  0  0  0  0  0  0  0  0  0  0  0
   48.0950   31.2590   44.1160 H   0  0  0  0  0  0  0  0  0  0  0  0
   47.1320   31.2690   46.3260 H   0  0  0  0  0  0  0  0  0  0  0  0
   45.5720   33.0370   47.0260 H   0  0  0  0  0  0  0  0  0  0  0  0
   44.3840   35.0250   46.5400 H   0  0  0  0  0  0  0  0  0  0  0  0
   43.7910   36.8250   45.0000 H   0  0  0  0  0  0  0  0  0  0  0  0
   44.7390   36.8320   42.7700 H   0  0  0  0  0  0  0  0  0  0  0  0
   46.3820   35.0720   41.7770 O   0  0  0  0  0  0  0  0  0  0  0  0
   46.7640   35.9640   41.4710 H   0  0  0  0  0  0  0  0  0  0  0  0
  1  3  1  0  0  0  0
  1  4  1  1  0  0  0
  1 12  1  0  0  0  0
  2  1  1  0  0  0  0
  2  3  1  0  0  0  0
  3  7  1  1  0  0  0
  3 30  1  0  0  0  0
  5  2  1  0  0  0  0
  6  2  1  0  0  0  0
  8  9  1  0  0  0  0
  9 15  1  0  0  0  0
  9 10  2  0  0  0  0
 10 17  1  0  0  0  0
 11 10  1  0  0  0  0
 12 11  2  0  0  0  0
 13  8  2  0  0  0  0
 13 12  1  0  0  0  0
 14  8  1  0  0  0  0
 16 23  1  0  0  0  0
 17 18  1  0  0  0  0
 17 16  2  0  0  0  0
 18 20  2  0  0  0  0
 19 18  1  0  0  0  0
 20 21  1  0  0  0  0
 20 22  1  0  0  0  0
 23 22  2  0  0  0  0
 24 25  2  0  0  0  0
 25 16  1  0  0  0  0
 26 25  1  0  0  0  0
 26 29  1  0  0  0  0
 27 24  1  0  0  0  0
 28 26  1  0  0  0  0
 30 32  1  0  0  0  0
 31 30  1  0  0  0  0
 32 41  2  0  0  0  0
 32 33  1  0  0  0  0
 33 34  2  0  0  0  0
 34 35  1  0  0  0  0
 34 43  1  0  0  0  0
 35 44  1  0  0  0  0
 36 37  1  0  0  0  0
 36 35  2  0  0  0  0
 37 45  1  0  0  0  0
 38 46  1  0  0  0  0
 38 37  2  0  0  0  0
 39 38  1  0  0  0  0
 40 39  2  0  0  0  0
 40 41  1  0  0  0  0
 41 36  1  0  0  0  0
 42 33  1  0  0  0  0
 47 39  1  0  0  0  0
 48 40  1  0  0  0  0
 49 48  1  0  0  0  0
M  END
>  <minimizedAffinity>
-5.15265322

>  <minimizedRMSD>
1.85835803

$$$$
