
 OpenBabel03252509273D

 35 37  0  0  1  0  0  0  0  0999 V2000
   36.1500   28.5420   39.9980 C   0  0  1  0  0  0  0  0  0  0  0  0
   36.2110   27.3780   38.9700 C   0  0  0  0  0  0  0  0  0  0  0  0
   37.0780   27.5220   40.2550 C   0  0  2  0  0  0  0  0  0  0  0  0
   35.1700   28.6260   40.5090 H   0  0  0  0  0  0  0  0  0  0  0  0
   35.3670   26.6730   39.0430 H   0  0  0  0  0  0  0  0  0  0  0  0
   36.7310   27.5370   38.0220 H   0  0  0  0  0  0  0  0  0  0  0  0
   38.1770   27.6730   40.0320 H   0  0  0  0  0  0  0  0  0  0  0  0
   36.9910   32.1460   39.3930 C   0  0  0  0  0  0  0  0  0  0  0  0
   36.4660   30.9880   40.0630 C   0  0  0  0  0  0  0  0  0  0  0  0
   36.5990   29.8360   39.3600 C   0  0  0  0  0  0  0  0  0  0  0  0
   37.1860   29.7820   38.1100 N   0  0  0  0  0  0  0  0  0  0  0  0
   37.6630   30.8970   37.5250 C   0  0  0  0  0  0  0  0  0  0  0  0
   37.5660   32.0850   38.1710 N   0  0  0  0  0  0  0  0  0  0  0  0
   36.9030   33.0830   39.9260 H   0  0  0  0  0  0  0  0  0  0  0  0
   38.0930   30.7170   36.5580 H   0  0  0  0  0  0  0  0  0  0  0  0
   35.8420   31.0540   41.3190 N   0  0  0  0  0  0  0  0  0  0  0  0
   36.7360   30.9090   41.8230 H   0  0  0  0  0  0  0  0  0  0  0  0
   34.8730   31.2070   40.9130 H   0  0  0  0  0  0  0  0  0  0  0  0
   36.8680   26.5460   41.3910 C   0  0  0  0  0  0  0  0  0  0  0  0
   36.4260   25.6390   40.9230 H   0  0  0  0  0  0  0  0  0  0  0  0
   36.1230   27.0220   42.0750 H   0  0  0  0  0  0  0  0  0  0  0  0
   38.6380   27.2250   42.9670 C   0  0  0  0  0  0  0  0  0  0  0  0
   38.0790   26.2530   42.1640 C   0  0  0  0  0  0  0  0  0  0  0  0
   38.6540   25.0030   42.0900 C   0  0  0  0  0  0  0  0  0  0  0  0
   38.1690   24.2640   41.4350 H   0  0  0  0  0  0  0  0  0  0  0  0
   39.7880   24.7320   42.8200 C   0  0  0  0  0  0  0  0  0  0  0  0
   40.1770   23.7190   42.7010 H   0  0  0  0  0  0  0  0  0  0  0  0
   40.3700   25.6840   43.6300 C   0  0  0  0  0  3  0  0  0  0  0  0
   39.7740   26.9040   43.6780 C   0  0  0  0  0  3  0  0  0  0  0  0
   37.0640   29.0580   43.6550 N   0  0  0  0  0  0  0  0  0  0  0  0
   38.1310   28.5720   43.1290 C   0  0  0  0  0  0  0  0  0  0  0  0
   38.8790   29.6870   42.6440 N   0  0  0  0  0  0  0  0  0  0  0  0
   36.8730   30.0780   43.6760 H   0  0  0  0  0  0  0  0  0  0  0  0
   38.5620   30.0270   41.7010 H   0  0  0  0  0  0  0  0  0  0  0  0
   39.6590   30.0940   43.2070 H   0  0  0  0  0  0  0  0  0  0  0  0
  1  3  1  0  0  0  0
  1  4  1  1  0  0  0
  2  5  1  0  0  0  0
  2  1  1  0  0  0  0
  2  3  1  0  0  0  0
  3  7  1  6  0  0  0
  3 19  1  0  0  0  0
  6  2  1  0  0  0  0
  8 14  1  0  0  0  0
  8  9  1  0  0  0  0
  9 16  1  0  0  0  0
 10  1  1  0  0  0  0
 10  9  2  0  0  0  0
 11 10  1  0  0  0  0
 12 11  2  0  0  0  0
 12 13  1  0  0  0  0
 13  8  2  0  0  0  0
 15 12  1  0  0  0  0
 16 17  1  0  0  0  0
 18 16  1  0  0  0  0
 19 21  1  0  0  0  0
 19 23  1  0  0  0  0
 20 19  1  0  0  0  0
 22 31  1  0  0  0  0
 22 29  1  0  0  0  0
 23 22  2  0  0  0  0
 24 23  1  0  0  0  0
 24 26  2  0  0  0  0
 25 24  1  0  0  0  0
 26 28  1  0  0  0  0
 27 26  1  0  0  0  0
 28 29  2  0  0  0  0
 30 33  1  0  0  0  0
 31 30  2  0  0  0  0
 32 31  1  0  0  0  0
 32 35  1  0  0  0  0
 34 32  1  0  0  0  0
M  END
>  <minimizedAffinity>
-6.27528763

$$$$

 OpenBabel03252509273D

 35 37  0  0  1  0  0  0  0  0999 V2000
   37.2010   31.2060   38.3100 C   0  0  1  0  0  0  0  0  0  0  0  0
   37.3070   30.4980   36.9300 C   0  0  0  0  0  0  0  0  0  0  0  0
   37.3180   29.8080   38.3270 C   0  0  2  0  0  0  0  0  0  0  0  0
   36.2430   31.7450   38.4550 H   0  0  0  0  0  0  0  0  0  0  0  0
   36.3520   30.4440   36.3820 H   0  0  0  0  0  0  0  0  0  0  0  0
   38.2610   30.5170   36.3990 H   0  0  0  0  0  0  0  0  0  0  0  0
   38.3080   29.3160   38.5670 H   0  0  0  0  0  0  0  0  0  0  0  0
   39.5900   33.7200   39.7350 C   0  0  0  0  0  0  0  0  0  0  0  0
   38.3600   33.0030   39.5410 C   0  0  0  0  0  0  0  0  0  0  0  0
   38.4130   32.0750   38.5540 C   0  0  0  0  0  0  0  0  0  0  0  0
   39.5490   31.8420   37.8010 N   0  0  0  0  0  0  0  0  0  0  0  0
   40.6770   32.5420   38.0230 C   0  0  0  0  0  0  0  0  0  0  0  0
   40.6980   33.4860   38.9960 N   0  0  0  0  0  0  0  0  0  0  0  0
   39.5850   34.4690   40.5170 H   0  0  0  0  0  0  0  0  0  0  0  0
   41.4830   32.2650   37.3710 H   0  0  0  0  0  0  0  0  0  0  0  0
   37.2010   33.2650   40.2880 N   0  0  0  0  0  0  0  0  0  0  0  0
   37.4580   32.5770   41.0180 H   0  0  0  0  0  0  0  0  0  0  0  0
   36.8350   33.9920   39.6050 H   0  0  0  0  0  0  0  0  0  0  0  0
   36.1500   28.9330   38.7180 C   0  0  0  0  0  0  0  0  0  0  0  0
   35.8130   28.4490   37.7750 H   0  0  0  0  0  0  0  0  0  0  0  0
   35.3570   29.6250   39.0960 H   0  0  0  0  0  0  0  0  0  0  0  0
   36.6450   28.3930   41.0720 C   0  0  0  0  0  0  0  0  0  0  0  0
   36.4520   27.9640   39.7760 C   0  0  0  0  0  0  0  0  0  0  0  0
   36.5390   26.6210   39.4720 C   0  0  0  0  0  0  0  0  0  0  0  0
   36.3770   26.3330   38.4230 H   0  0  0  0  0  0  0  0  0  0  0  0
   36.8200   25.7160   40.4680 C   0  0  0  0  0  0  0  0  0  0  0  0
   36.8710   24.6760   40.1390 H   0  0  0  0  0  0  0  0  0  0  0  0
   37.0180   26.1150   41.7730 C   0  0  0  0  0  3  0  0  0  0  0  0
   36.9230   27.4450   42.0340 C   0  0  0  0  0  3  0  0  0  0  0  0
   35.6710   30.6750   41.4610 N   0  0  0  0  0  0  0  0  0  0  0  0
   36.5810   29.7690   41.5180 C   0  0  0  0  0  0  0  0  0  0  0  0
   37.6990   30.3670   42.1730 N   0  0  0  0  0  0  0  0  0  0  0  0
   35.8160   31.6280   41.8460 H   0  0  0  0  0  0  0  0  0  0  0  0
   38.3030   30.9410   41.5320 H   0  0  0  0  0  0  0  0  0  0  0  0
   37.8620   30.2210   43.1940 H   0  0  0  0  0  0  0  0  0  0  0  0
  1  3  1  0  0  0  0
  1  4  1  1  0  0  0
  1 10  1  0  0  0  0
  2  1  1  0  0  0  0
  2  3  1  0  0  0  0
  3  7  1  1  0  0  0
  3 19  1  0  0  0  0
  5  2  1  0  0  0  0
  6  2  1  0  0  0  0
  8 14  1  0  0  0  0
  9  8  1  0  0  0  0
  9 16  1  0  0  0  0
 10  9  2  0  0  0  0
 11 12  2  0  0  0  0
 11 10  1  0  0  0  0
 12 13  1  0  0  0  0
 13  8  2  0  0  0  0
 15 12  1  0  0  0  0
 16 17  1  0  0  0  0
 18 16  1  0  0  0  0
 19 21  1  0  0  0  0
 19 23  1  0  0  0  0
 20 19  1  0  0  0  0
 22 31  1  0  0  0  0
 22 29  1  0  0  0  0
 23 22  2  0  0  0  0
 24 23  1  0  0  0  0
 24 26  2  0  0  0  0
 25 24  1  0  0  0  0
 26 28  1  0  0  0  0
 27 26  1  0  0  0  0
 28 29  2  0  0  0  0
 30 31  2  0  0  0  0
 30 33  1  0  0  0  0
 31 32  1  0  0  0  0
 32 35  1  0  0  0  0
 34 32  1  0  0  0  0
M  END
>  <minimizedAffinity>
-5.89745903

$$$$

 OpenBabel03252509273D

 35 37  0  0  1  0  0  0  0  0999 V2000
   38.3170   31.0230   38.7290 C   0  0  1  0  0  0  0  0  0  0  0  0
   39.1940   30.2930   37.6740 C   0  0  0  0  0  0  0  0  0  0  0  0
   38.6950   29.7050   39.0270 C   0  0  2  0  0  0  0  0  0  0  0  0
   37.3150   31.3040   38.3480 H   0  0  0  0  0  0  0  0  0  0  0  0
   38.6380   29.9660   36.7800 H   0  0  0  0  0  0  0  0  0  0  0  0
   40.2600   30.5280   37.6200 H   0  0  0  0  0  0  0  0  0  0  0  0
   39.5360   29.4970   39.7550 H   0  0  0  0  0  0  0  0  0  0  0  0
   39.1920   34.1610   40.5850 C   0  0  0  0  0  0  0  0  0  0  0  0
   38.3710   33.1430   39.9880 C   0  0  0  0  0  0  0  0  0  0  0  0
   39.0710   32.1850   39.3320 C   0  0  0  0  0  0  0  0  0  0  0  0
   40.4500   32.1890   39.2430 N   0  0  0  0  0  0  0  0  0  0  0  0
   41.1740   33.1670   39.8210 C   0  0  0  0  0  0  0  0  0  0  0  0
   40.5410   34.1580   40.4960 N   0  0  0  0  0  0  0  0  0  0  0  0
   38.6670   34.9430   41.1190 H   0  0  0  0  0  0  0  0  0  0  0  0
   42.2310   33.0510   39.6780 H   0  0  0  0  0  0  0  0  0  0  0  0
   36.9690   33.1620   40.0550 N   0  0  0  0  0  0  0  0  0  0  0  0
   36.9560   32.6200   40.9380 H   0  0  0  0  0  0  0  0  0  0  0  0
   36.8590   33.7180   39.1570 H   0  0  0  0  0  0  0  0  0  0  0  0
   37.6840   28.5810   39.0050 C   0  0  0  0  0  0  0  0  0  0  0  0
   38.0390   27.8780   38.2200 H   0  0  0  0  0  0  0  0  0  0  0  0
   36.7140   29.0420   38.6940 H   0  0  0  0  0  0  0  0  0  0  0  0
   36.5150   28.3920   41.1680 C   0  0  0  0  0  0  0  0  0  0  0  0
   37.4830   27.9280   40.3030 C   0  0  0  0  0  0  0  0  0  0  0  0
   38.2620   26.8450   40.6530 C   0  0  0  0  0  0  0  0  0  0  0  0
   39.0200   26.5150   39.9270 H   0  0  0  0  0  0  0  0  0  0  0  0
   38.0680   26.2340   41.8690 C   0  0  0  0  0  0  0  0  0  0  0  0
   38.7280   25.3860   42.0650 H   0  0  0  0  0  0  0  0  0  0  0  0
   37.1090   26.6760   42.7560 C   0  0  0  0  0  3  0  0  0  0  0  0
   36.3610   27.7440   42.3750 C   0  0  0  0  0  3  0  0  0  0  0  0
   35.6780   30.7590   41.2450 N   0  0  0  0  0  0  0  0  0  0  0  0
   35.6370   29.5160   40.9180 C   0  0  0  0  0  0  0  0  0  0  0  0
   34.4390   29.3410   40.1630 N   0  0  0  0  0  0  0  0  0  0  0  0
   34.9350   31.4270   40.9650 H   0  0  0  0  0  0  0  0  0  0  0  0
   33.5820   29.2180   40.7600 H   0  0  0  0  0  0  0  0  0  0  0  0
   34.4580   29.3420   39.1190 H   0  0  0  0  0  0  0  0  0  0  0  0
  1  4  1  6  0  0  0
  1  3  1  0  0  0  0
  1 10  1  0  0  0  0
  2  1  1  0  0  0  0
  2  3  1  0  0  0  0
  3  7  1  1  0  0  0
  5  2  1  0  0  0  0
  6  2  1  0  0  0  0
  8 14  1  0  0  0  0
  9 16  1  0  0  0  0
  9  8  2  0  0  0  0
 10  9  1  0  0  0  0
 11 10  2  0  0  0  0
 11 12  1  0  0  0  0
 12 13  2  0  0  0  0
 13  8  1  0  0  0  0
 15 12  1  0  0  0  0
 16 17  1  0  0  0  0
 18 16  1  0  0  0  0
 19  3  1  0  0  0  0
 19 23  1  0  0  0  0
 20 19  1  0  0  0  0
 21 19  1  0  0  0  0
 22 29  1  0  0  0  0
 23 24  1  0  0  0  0
 23 22  2  0  0  0  0
 24 26  2  0  0  0  0
 25 24  1  0  0  0  0
 26 27  1  0  0  0  0
 26 28  1  0  0  0  0
 29 28  2  0  0  0  0
 31 22  1  0  0  0  0
 31 30  2  0  0  0  0
 32 34  1  0  0  0  0
 32 31  1  0  0  0  0
 33 30  1  0  0  0  0
 35 32  1  0  0  0  0
M  END
>  <minimizedAffinity>
-5.88911963

$$$$

 OpenBabel03252509273D

 35 37  0  0  1  0  0  0  0  0999 V2000
   39.8630   32.5940   39.6110 C   0  0  1  0  0  0  0  0  0  0  0  0
   39.5200   33.0910   41.0430 C   0  0  0  0  0  0  0  0  0  0  0  0
   38.7980   33.5000   39.7250 C   0  0  2  0  0  0  0  0  0  0  0  0
   39.7300   31.5010   39.4830 H   0  0  0  0  0  0  0  0  0  0  0  0
   38.9940   32.3450   41.6610 H   0  0  0  0  0  0  0  0  0  0  0  0
   40.1500   33.8580   41.5010 H   0  0  0  0  0  0  0  0  0  0  0  0
   38.9400   34.5910   39.4650 H   0  0  0  0  0  0  0  0  0  0  0  0
   42.8500   33.6220   37.5910 C   0  0  0  0  0  0  0  0  0  0  0  0
   41.5530   33.0720   37.8790 C   0  0  0  0  0  0  0  0  0  0  0  0
   41.2330   33.0780   39.1970 C   0  0  0  0  0  0  0  0  0  0  0  0
   42.0800   33.5650   40.1740 N   0  0  0  0  0  0  0  0  0  0  0  0
   43.2860   34.0700   39.8510 C   0  0  0  0  0  0  0  0  0  0  0  0
   43.6720   34.0990   38.5510 N   0  0  0  0  0  0  0  0  0  0  0  0
   43.1380   33.6350   36.5480 H   0  0  0  0  0  0  0  0  0  0  0  0
   43.8430   34.4140   40.7010 H   0  0  0  0  0  0  0  0  0  0  0  0
   40.7110   32.5500   36.8850 N   0  0  0  0  0  0  0  0  0  0  0  0
   40.2580   33.4670   36.7200 H   0  0  0  0  0  0  0  0  0  0  0  0
   41.1000   31.5650   36.9680 H   0  0  0  0  0  0  0  0  0  0  0  0
   37.3700   33.0540   39.5070 C   0  0  0  0  0  0  0  0  0  0  0  0
   36.8620   33.9170   39.0210 H   0  0  0  0  0  0  0  0  0  0  0  0
   36.9400   32.8820   40.5240 H   0  0  0  0  0  0  0  0  0  0  0  0
   36.9930   30.6210   39.3880 C   0  0  0  0  0  0  0  0  0  0  0  0
   37.2380   31.8120   38.7390 C   0  0  0  0  0  0  0  0  0  0  0  0
   37.3560   31.8390   37.3650 C   0  0  0  0  0  0  0  0  0  0  0  0
   37.5520   32.8160   36.8970 H   0  0  0  0  0  0  0  0  0  0  0  0
   37.2290   30.6730   36.6490 C   0  0  0  0  0  0  0  0  0  0  0  0
   37.3370   30.7860   35.5680 H   0  0  0  0  0  0  0  0  0  0  0  0
   36.9840   29.4660   37.2710 C   0  0  0  0  0  3  0  0  0  0  0  0
   36.8730   29.4790   38.6240 C   0  0  0  0  0  3  0  0  0  0  0  0
   37.6470   30.0680   41.7490 N   0  0  0  0  0  0  0  0  0  0  0  0
   36.8500   30.4610   40.8200 C   0  0  0  0  0  0  0  0  0  0  0  0
   35.6120   30.7680   41.4600 N   0  0  0  0  0  0  0  0  0  0  0  0
   37.3540   30.0200   42.7430 H   0  0  0  0  0  0  0  0  0  0  0  0
   35.0070   29.9250   41.6300 H   0  0  0  0  0  0  0  0  0  0  0  0
   35.3720   31.7520   41.7170 H   0  0  0  0  0  0  0  0  0  0  0  0
  1  4  1  6  0  0  0
  1  3  1  0  0  0  0
  1  2  1  0  0  0  0
  2  6  1  0  0  0  0
  2  5  1  0  0  0  0
  3  7  1  6  0  0  0
  3  2  1  0  0  0  0
  8  9  2  0  0  0  0
  8 13  1  0  0  0  0
  9 10  1  0  0  0  0
 10  1  1  0  0  0  0
 10 11  2  0  0  0  0
 12 11  1  0  0  0  0
 12 15  1  0  0  0  0
 13 12  2  0  0  0  0
 14  8  1  0  0  0  0
 16 18  1  0  0  0  0
 16  9  1  0  0  0  0
 17 16  1  0  0  0  0
 19  3  1  0  0  0  0
 19 21  1  0  0  0  0
 20 19  1  0  0  0  0
 22 31  1  0  0  0  0
 23 22  1  0  0  0  0
 23 19  1  0  0  0  0
 24 23  2  0  0  0  0
 25 24  1  0  0  0  0
 26 28  2  0  0  0  0
 26 24  1  0  0  0  0
 27 26  1  0  0  0  0
 28 29  1  0  0  0  0
 29 22  2  0  0  0  0
 30 33  1  0  0  0  0
 31 32  1  0  0  0  0
 31 30  2  0  0  0  0
 32 34  1  0  0  0  0
 32 35  1  0  0  0  0
M  END
>  <minimizedAffinity>
-5.68271589

$$$$

 OpenBabel03252509273D

 35 37  0  0  1  0  0  0  0  0999 V2000
   39.2710   30.3770   38.5370 C   0  0  1  0  0  0  0  0  0  0  0  0
   40.0600   29.1540   37.9920 C   0  0  0  0  0  0  0  0  0  0  0  0
   39.2100   29.1990   39.2970 C   0  0  2  0  0  0  0  0  0  0  0  0
   38.4610   30.7150   37.8600 H   0  0  0  0  0  0  0  0  0  0  0  0
   39.5810   28.6620   37.1300 H   0  0  0  0  0  0  0  0  0  0  0  0
   41.1440   29.1210   38.1280 H   0  0  0  0  0  0  0  0  0  0  0  0
   39.8340   29.0840   40.2330 H   0  0  0  0  0  0  0  0  0  0  0  0
   41.3350   33.5080   38.5300 C   0  0  0  0  0  0  0  0  0  0  0  0
   40.4810   32.4650   38.0280 C   0  0  0  0  0  0  0  0  0  0  0  0
   40.2180   31.4870   38.9290 C   0  0  0  0  0  0  0  0  0  0  0  0
   40.7280   31.4910   40.2140 N   0  0  0  0  0  0  0  0  0  0  0  0
   41.5240   32.4920   40.6360 C   0  0  0  0  0  0  0  0  0  0  0  0
   41.8280   33.5070   39.7890 N   0  0  0  0  0  0  0  0  0  0  0  0
   41.5650   34.3070   37.8380 H   0  0  0  0  0  0  0  0  0  0  0  0
   41.8500   32.3740   41.6510 H   0  0  0  0  0  0  0  0  0  0  0  0
   39.9930   32.4510   36.7130 N   0  0  0  0  0  0  0  0  0  0  0  0
   39.1450   32.9870   36.9710 H   0  0  0  0  0  0  0  0  0  0  0  0
   40.8180   31.9000   36.3330 H   0  0  0  0  0  0  0  0  0  0  0  0
   37.9400   28.3830   39.3690 C   0  0  0  0  0  0  0  0  0  0  0  0
   38.0700   27.5670   38.6240 H   0  0  0  0  0  0  0  0  0  0  0  0
   37.1140   29.0650   39.0460 H   0  0  0  0  0  0  0  0  0  0  0  0
   36.5250   28.3720   41.3870 C   0  0  0  0  0  0  0  0  0  0  0  0
   37.6210   27.8820   40.7090 C   0  0  0  0  0  0  0  0  0  0  0  0
   38.4190   26.9180   41.2890 C   0  0  0  0  0  0  0  0  0  0  0  0
   39.2810   26.5620   40.7050 H   0  0  0  0  0  0  0  0  0  0  0  0
   38.1140   26.4500   42.5450 C   0  0  0  0  0  0  0  0  0  0  0  0
   38.7980   25.6890   42.9270 H   0  0  0  0  0  0  0  0  0  0  0  0
   37.0250   26.9210   43.2480 C   0  0  0  0  0  3  0  0  0  0  0  0
   36.2630   27.8690   42.6450 C   0  0  0  0  0  3  0  0  0  0  0  0
   34.5880   29.3430   40.1180 N   0  0  0  0  0  0  0  0  0  0  0  0
   35.6140   29.3820   40.8910 C   0  0  0  0  0  0  0  0  0  0  0  0
   35.7820   30.7500   41.2620 N   0  0  0  0  0  0  0  0  0  0  0  0
   34.0500   30.1960   39.8710 H   0  0  0  0  0  0  0  0  0  0  0  0
   36.2950   31.3200   40.5420 H   0  0  0  0  0  0  0  0  0  0  0  0
   35.4130   31.1070   42.1710 H   0  0  0  0  0  0  0  0  0  0  0  0
  1  4  1  6  0  0  0
  1 10  1  0  0  0  0
  1  3  1  0  0  0  0
  2  6  1  0  0  0  0
  2  1  1  0  0  0  0
  2  3  1  0  0  0  0
  3 19  1  0  0  0  0
  3  7  1  1  0  0  0
  5  2  1  0  0  0  0
  8 13  1  0  0  0  0
  9  8  2  0  0  0  0
  9 10  1  0  0  0  0
 10 11  2  0  0  0  0
 11 12  1  0  0  0  0
 12 15  1  0  0  0  0
 13 12  2  0  0  0  0
 14  8  1  0  0  0  0
 16 17  1  0  0  0  0
 16  9  1  0  0  0  0
 18 16  1  0  0  0  0
 19 23  1  0  0  0  0
 20 19  1  0  0  0  0
 21 19  1  0  0  0  0
 22 29  1  0  0  0  0
 23 24  1  0  0  0  0
 23 22  2  0  0  0  0
 24 26  2  0  0  0  0
 25 24  1  0  0  0  0
 26 27  1  0  0  0  0
 26 28  1  0  0  0  0
 29 28  2  0  0  0  0
 30 31  2  0  0  0  0
 31 32  1  0  0  0  0
 31 22  1  0  0  0  0
 32 35  1  0  0  0  0
 33 30  1  0  0  0  0
 34 32  1  0  0  0  0
M  END
>  <minimizedAffinity>
-5.60858631

$$$$

 OpenBabel03252509273D

 35 37  0  0  1  0  0  0  0  0999 V2000
   37.1410   27.7040   42.5620 C   0  0  1  0  0  0  0  0  0  0  0  0
   37.7220   28.9520   43.2840 C   0  0  0  0  0  0  0  0  0  0  0  0
   37.4590   28.8070   41.7550 C   0  0  2  0  0  0  0  0  0  0  0  0
   36.1100   27.4520   42.8810 H   0  0  0  0  0  0  0  0  0  0  0  0
   36.9710   29.5340   43.8420 H   0  0  0  0  0  0  0  0  0  0  0  0
   38.7710   28.9430   43.5910 H   0  0  0  0  0  0  0  0  0  0  0  0
   38.4090   28.8170   41.1420 H   0  0  0  0  0  0  0  0  0  0  0  0
   38.9530   24.4780   41.9520 C   0  0  0  0  0  0  0  0  0  0  0  0
   37.9470   25.4960   41.8130 C   0  0  0  0  0  0  0  0  0  0  0  0
   38.0970   26.5380   42.6670 C   0  0  0  0  0  0  0  0  0  0  0  0
   39.1240   26.6130   43.5900 N   0  0  0  0  0  0  0  0  0  0  0  0
   40.0420   25.6320   43.6800 C   0  0  0  0  0  0  0  0  0  0  0  0
   39.9560   24.5590   42.8550 N   0  0  0  0  0  0  0  0  0  0  0  0
   38.8660   23.6300   41.2850 H   0  0  0  0  0  0  0  0  0  0  0  0
   40.7820   25.8130   44.4340 H   0  0  0  0  0  0  0  0  0  0  0  0
   36.8890   25.3980   40.8960 N   0  0  0  0  0  0  0  0  0  0  0  0
   37.4320   25.8670   40.1480 H   0  0  0  0  0  0  0  0  0  0  0  0
   36.2410   24.9110   41.5820 H   0  0  0  0  0  0  0  0  0  0  0  0
   36.3740   29.6450   41.1190 C   0  0  0  0  0  0  0  0  0  0  0  0
   36.3620   30.5980   41.6920 H   0  0  0  0  0  0  0  0  0  0  0  0
   35.4170   29.0900   41.2830 H   0  0  0  0  0  0  0  0  0  0  0  0
   37.1730   30.9850   39.2100 C   0  0  0  0  0  0  0  0  0  0  0  0
   36.5410   29.8520   39.6770 C   0  0  0  0  0  0  0  0  0  0  0  0
   36.0690   28.9080   38.7890 C   0  0  0  0  0  0  0  0  0  0  0  0
   35.5730   28.0230   39.2140 H   0  0  0  0  0  0  0  0  0  0  0  0
   36.2320   29.1060   37.4390 C   0  0  0  0  0  0  0  0  0  0  0  0
   35.8280   28.3100   36.8090 H   0  0  0  0  0  0  0  0  0  0  0  0
   36.8590   30.2290   36.9420 C   0  0  0  0  0  3  0  0  0  0  0  0
   37.3110   31.1350   37.8460 C   0  0  0  0  0  3  0  0  0  0  0  0
   38.7830   32.1660   40.7340 N   0  0  0  0  0  0  0  0  0  0  0  0
   37.7100   32.0460   40.0370 C   0  0  0  0  0  0  0  0  0  0  0  0
   36.9940   33.2710   40.1930 N   0  0  0  0  0  0  0  0  0  0  0  0
   38.9980   33.0270   41.2720 H   0  0  0  0  0  0  0  0  0  0  0  0
   36.4220   33.3120   41.0750 H   0  0  0  0  0  0  0  0  0  0  0  0
   37.0610   34.0260   39.4760 H   0  0  0  0  0  0  0  0  0  0  0  0
  1 10  1  0  0  0  0
  1  4  1  1  0  0  0
  1  2  1  0  0  0  0
  2  6  1  0  0  0  0
  2  5  1  0  0  0  0
  3  7  1  6  0  0  0
  3  1  1  0  0  0  0
  3  2  1  0  0  0  0
  8 13  1  0  0  0  0
  9  8  2  0  0  0  0
  9 10  1  0  0  0  0
 10 11  2  0  0  0  0
 11 12  1  0  0  0  0
 12 15  1  0  0  0  0
 13 12  2  0  0  0  0
 14  8  1  0  0  0  0
 16 18  1  0  0  0  0
 16  9  1  0  0  0  0
 17 16  1  0  0  0  0
 19 21  1  0  0  0  0
 19 20  1  0  0  0  0
 19  3  1  0  0  0  0
 22 23  1  0  0  0  0
 22 31  1  0  0  0  0
 23 19  1  0  0  0  0
 24 25  1  0  0  0  0
 24 23  2  0  0  0  0
 26 24  1  0  0  0  0
 27 26  1  0  0  0  0
 28 26  2  0  0  0  0
 28 29  1  0  0  0  0
 29 22  2  0  0  0  0
 30 33  1  0  0  0  0
 31 32  1  0  0  0  0
 31 30  2  0  0  0  0
 32 34  1  0  0  0  0
 35 32  1  0  0  0  0
M  END
>  <minimizedAffinity>
-5.58768177

$$$$

 OpenBabel03252509273D

 35 37  0  0  1  0  0  0  0  0999 V2000
   36.9730   27.8990   42.1930 C   0  0  1  0  0  0  0  0  0  0  0  0
   37.4910   28.6000   43.4800 C   0  0  0  0  0  0  0  0  0  0  0  0
   37.6590   29.1110   42.0180 C   0  0  2  0  0  0  0  0  0  0  0  0
   35.8690   27.8060   42.1580 H   0  0  0  0  0  0  0  0  0  0  0  0
   36.7010   29.0940   44.0680 H   0  0  0  0  0  0  0  0  0  0  0  0
   38.3970   28.2190   43.9600 H   0  0  0  0  0  0  0  0  0  0  0  0
   38.7360   29.1180   41.6740 H   0  0  0  0  0  0  0  0  0  0  0  0
   38.2470   24.7030   40.7020 C   0  0  0  0  0  0  0  0  0  0  0  0
   37.4630   25.9010   40.8310 C   0  0  0  0  0  0  0  0  0  0  0  0
   37.6860   26.5840   41.9820 C   0  0  0  0  0  0  0  0  0  0  0  0
   38.5850   26.1630   42.9440 N   0  0  0  0  0  0  0  0  0  0  0  0
   39.2960   25.0320   42.7740 C   0  0  0  0  0  0  0  0  0  0  0  0
   39.1260   24.2980   41.6470 N   0  0  0  0  0  0  0  0  0  0  0  0
   38.0970   24.1320   39.7950 H   0  0  0  0  0  0  0  0  0  0  0  0
   39.9560   24.8200   43.5930 H   0  0  0  0  0  0  0  0  0  0  0  0
   36.5290   26.3060   39.8660 N   0  0  0  0  0  0  0  0  0  0  0  0
   37.2360   26.8540   39.3430 H   0  0  0  0  0  0  0  0  0  0  0  0
   35.7240   25.7800   40.3160 H   0  0  0  0  0  0  0  0  0  0  0  0
   36.9280   30.3650   41.5950 C   0  0  0  0  0  0  0  0  0  0  0  0
   37.2130   31.1390   42.3410 H   0  0  0  0  0  0  0  0  0  0  0  0
   35.8380   30.1340   41.6830 H   0  0  0  0  0  0  0  0  0  0  0  0
   38.1210   31.7720   39.9590 C   0  0  0  0  0  0  0  0  0  0  0  0
   37.1970   30.7810   40.2150 C   0  0  0  0  0  0  0  0  0  0  0  0
   36.5280   30.1750   39.1730 C   0  0  0  0  0  0  0  0  0  0  0  0
   35.8010   29.3900   39.4320 H   0  0  0  0  0  0  0  0  0  0  0  0
   36.7860   30.5660   37.8810 C   0  0  0  0  0  0  0  0  0  0  0  0
   36.2110   30.0350   37.1190 H   0  0  0  0  0  0  0  0  0  0  0  0
   37.7030   31.5550   37.5940 C   0  0  0  0  0  3  0  0  0  0  0  0
   38.3430   32.1280   38.6460 C   0  0  0  0  0  3  0  0  0  0  0  0
   39.8460   32.1440   41.7460 N   0  0  0  0  0  0  0  0  0  0  0  0
   38.8860   32.4840   40.9620 C   0  0  0  0  0  0  0  0  0  0  0  0
   38.6160   33.8590   41.2340 N   0  0  0  0  0  0  0  0  0  0  0  0
   40.2770   32.8130   42.4130 H   0  0  0  0  0  0  0  0  0  0  0  0
   37.9930   34.0060   42.0690 H   0  0  0  0  0  0  0  0  0  0  0  0
   39.0190   34.6130   40.6350 H   0  0  0  0  0  0  0  0  0  0  0  0
  1  4  1  6  0  0  0
  1  2  1  0  0  0  0
  2  6  1  0  0  0  0
  2  5  1  0  0  0  0
  3  7  1  6  0  0  0
  3  1  1  0  0  0  0
  3  2  1  0  0  0  0
  8  9  2  0  0  0  0
  8 13  1  0  0  0  0
  9 10  1  0  0  0  0
 10  1  1  0  0  0  0
 10 11  2  0  0  0  0
 12 11  1  0  0  0  0
 12 15  1  0  0  0  0
 13 12  2  0  0  0  0
 14  8  1  0  0  0  0
 16 18  1  0  0  0  0
 16  9  1  0  0  0  0
 17 16  1  0  0  0  0
 19 21  1  0  0  0  0
 19  3  1  0  0  0  0
 19 20  1  0  0  0  0
 22 23  1  0  0  0  0
 22 31  1  0  0  0  0
 23 19  1  0  0  0  0
 24 25  1  0  0  0  0
 24 23  2  0  0  0  0
 26 24  1  0  0  0  0
 27 26  1  0  0  0  0
 28 26  2  0  0  0  0
 28 29  1  0  0  0  0
 29 22  2  0  0  0  0
 30 33  1  0  0  0  0
 31 32  1  0  0  0  0
 31 30  2  0  0  0  0
 32 34  1  0  0  0  0
 35 32  1  0  0  0  0
M  END
>  <minimizedAffinity>
-5.47337723

$$$$

 OpenBabel03252509273D

 35 37  0  0  1  0  0  0  0  0999 V2000
   37.0860   31.1990   39.5380 C   0  0  1  0  0  0  0  0  0  0  0  0
   37.0620   30.8130   38.0320 C   0  0  0  0  0  0  0  0  0  0  0  0
   37.2250   29.8360   39.2340 C   0  0  2  0  0  0  0  0  0  0  0  0
   36.1390   31.6580   39.8880 H   0  0  0  0  0  0  0  0  0  0  0  0
   36.0580   30.8450   37.5790 H   0  0  0  0  0  0  0  0  0  0  0  0
   37.9580   30.9830   37.4300 H   0  0  0  0  0  0  0  0  0  0  0  0
   38.2410   29.3400   39.2650 H   0  0  0  0  0  0  0  0  0  0  0  0
   39.3750   34.0810   40.2520 C   0  0  0  0  0  0  0  0  0  0  0  0
   38.1750   33.3870   39.8710 C   0  0  0  0  0  0  0  0  0  0  0  0
   38.3030   32.0370   39.8510 C   0  0  0  0  0  0  0  0  0  0  0  0
   39.4820   31.3880   40.1660 N   0  0  0  0  0  0  0  0  0  0  0  0
   40.5790   32.0860   40.5170 C   0  0  0  0  0  0  0  0  0  0  0  0
   40.5250   33.4410   40.5610 N   0  0  0  0  0  0  0  0  0  0  0  0
   39.3100   35.1610   40.2800 H   0  0  0  0  0  0  0  0  0  0  0  0
   41.4250   31.4640   40.7360 H   0  0  0  0  0  0  0  0  0  0  0  0
   36.9900   34.0520   39.5220 N   0  0  0  0  0  0  0  0  0  0  0  0
   36.6480   34.0560   40.5000 H   0  0  0  0  0  0  0  0  0  0  0  0
   37.2360   34.1060   38.4900 H   0  0  0  0  0  0  0  0  0  0  0  0
   36.1140   28.8550   39.5330 C   0  0  0  0  0  0  0  0  0  0  0  0
   35.8490   28.4010   38.5530 H   0  0  0  0  0  0  0  0  0  0  0  0
   35.2580   29.4620   39.9160 H   0  0  0  0  0  0  0  0  0  0  0  0
   36.7480   26.5590   40.1710 C   0  0  0  0  0  0  0  0  0  0  0  0
   36.4540   27.8530   40.5480 C   0  0  0  0  0  0  0  0  0  0  0  0
   36.4840   28.2080   41.8800 C   0  0  0  0  0  0  0  0  0  0  0  0
   36.2420   29.2530   42.1260 H   0  0  0  0  0  0  0  0  0  0  0  0
   36.8070   27.2660   42.8280 C   0  0  0  0  0  0  0  0  0  0  0  0
   36.8050   27.6340   43.8560 H   0  0  0  0  0  0  0  0  0  0  0  0
   37.1040   25.9650   42.4820 C   0  0  0  0  0  3  0  0  0  0  0  0
   37.0650   25.6520   41.1610 C   0  0  0  0  0  3  0  0  0  0  0  0
   35.8400   25.5650   38.0510 N   0  0  0  0  0  0  0  0  0  0  0  0
   36.7500   26.0620   38.8110 C   0  0  0  0  0  0  0  0  0  0  0  0
   37.9530   26.0690   38.0430 N   0  0  0  0  0  0  0  0  0  0  0  0
   36.0400   25.2580   37.0800 H   0  0  0  0  0  0  0  0  0  0  0  0
   38.4530   25.1430   38.0400 H   0  0  0  0  0  0  0  0  0  0  0  0
   38.2670   26.9320   37.5480 H   0  0  0  0  0  0  0  0  0  0  0  0
  1 10  1  0  0  0  0
  1  4  1  1  0  0  0
  2  3  1  0  0  0  0
  2  1  1  0  0  0  0
  3  7  1  1  0  0  0
  3 19  1  0  0  0  0
  3  1  1  0  0  0  0
  5  2  1  0  0  0  0
  6  2  1  0  0  0  0
  8 14  1  0  0  0  0
  8 13  1  0  0  0  0
  9  8  2  0  0  0  0
 10  9  1  0  0  0  0
 10 11  2  0  0  0  0
 11 12  1  0  0  0  0
 12 13  2  0  0  0  0
 12 15  1  0  0  0  0
 16  9  1  0  0  0  0
 16 17  1  0  0  0  0
 18 16  1  0  0  0  0
 19 21  1  0  0  0  0
 19 23  1  0  0  0  0
 20 19  1  0  0  0  0
 22 23  2  0  0  0  0
 22 29  1  0  0  0  0
 23 24  1  0  0  0  0
 24 25  1  0  0  0  0
 24 26  2  0  0  0  0
 26 27  1  0  0  0  0
 28 26  1  0  0  0  0
 29 28  2  0  0  0  0
 30 31  2  0  0  0  0
 31 22  1  0  0  0  0
 32 31  1  0  0  0  0
 33 30  1  0  0  0  0
 34 32  1  0  0  0  0
 35 32  1  0  0  0  0
M  END
>  <minimizedAffinity>
-5.31442356

$$$$

 OpenBabel03252509273D

 35 37  0  0  1  0  0  0  0  0999 V2000
   38.6920   32.5680   39.3970 C   0  0  1  0  0  0  0  0  0  0  0  0
   37.8280   31.7890   38.3670 C   0  0  0  0  0  0  0  0  0  0  0  0
   38.2410   31.2980   39.7860 C   0  0  2  0  0  0  0  0  0  0  0  0
   38.2260   33.5160   39.7330 H   0  0  0  0  0  0  0  0  0  0  0  0
   36.7960   32.1640   38.2750 H   0  0  0  0  0  0  0  0  0  0  0  0
   38.3250   31.2950   37.5270 H   0  0  0  0  0  0  0  0  0  0  0  0
   38.9370   30.4070   39.7600 H   0  0  0  0  0  0  0  0  0  0  0  0
   42.3340   33.4170   39.1130 C   0  0  0  0  0  0  0  0  0  0  0  0
   41.0110   33.3640   39.6740 C   0  0  0  0  0  0  0  0  0  0  0  0
   40.1000   32.7500   38.8790 C   0  0  0  0  0  0  0  0  0  0  0  0
   40.4150   32.2250   37.6400 N   0  0  0  0  0  0  0  0  0  0  0  0
   41.6710   32.3010   37.1600 C   0  0  0  0  0  0  0  0  0  0  0  0
   42.6360   32.9000   37.9010 N   0  0  0  0  0  0  0  0  0  0  0  0
   43.0880   33.9000   39.7210 H   0  0  0  0  0  0  0  0  0  0  0  0
   41.7810   31.8560   36.1900 H   0  0  0  0  0  0  0  0  0  0  0  0
   40.6900   33.9270   40.9190 N   0  0  0  0  0  0  0  0  0  0  0  0
   40.9140   33.0510   41.4250 H   0  0  0  0  0  0  0  0  0  0  0  0
   40.4330   34.8720   40.5090 H   0  0  0  0  0  0  0  0  0  0  0  0
   37.1720   31.1410   40.8440 C   0  0  0  0  0  0  0  0  0  0  0  0
   36.2070   31.3080   40.3160 H   0  0  0  0  0  0  0  0  0  0  0  0
   37.3470   31.9590   41.5850 H   0  0  0  0  0  0  0  0  0  0  0  0
   36.4300   28.8090   41.1350 C   0  0  0  0  0  0  0  0  0  0  0  0
   37.2150   29.8610   41.5560 C   0  0  0  0  0  0  0  0  0  0  0  0
   38.0450   29.7100   42.6470 C   0  0  0  0  0  0  0  0  0  0  0  0
   38.6490   30.5810   42.9420 H   0  0  0  0  0  0  0  0  0  0  0  0
   38.0830   28.5070   43.3100 C   0  0  0  0  0  0  0  0  0  0  0  0
   38.7660   28.4750   44.1620 H   0  0  0  0  0  0  0  0  0  0  0  0
   37.3090   27.4370   42.9120 C   0  0  0  0  0  3  0  0  0  0  0  0
   36.5050   27.6220   41.8340 C   0  0  0  0  0  3  0  0  0  0  0  0
   35.6390   28.5330   38.7660 N   0  0  0  0  0  0  0  0  0  0  0  0
   35.5190   28.8400   40.0090 C   0  0  0  0  0  0  0  0  0  0  0  0
   34.1750   29.2870   40.1810 N   0  0  0  0  0  0  0  0  0  0  0  0
   34.8520   28.6260   38.0960 H   0  0  0  0  0  0  0  0  0  0  0  0
   34.0300   30.2940   39.9120 H   0  0  0  0  0  0  0  0  0  0  0  0
   33.4380   28.6420   40.5420 H   0  0  0  0  0  0  0  0  0  0  0  0
  1  4  1  1  0  0  0
  1  3  1  0  0  0  0
  2  1  1  0  0  0  0
  2  3  1  0  0  0  0
  3  7  1  1  0  0  0
  3 19  1  0  0  0  0
  5  2  1  0  0  0  0
  6  2  1  0  0  0  0
  8  9  1  0  0  0  0
  8 14  1  0  0  0  0
  9 16  1  0  0  0  0
 10  1  1  0  0  0  0
 10  9  2  0  0  0  0
 11 10  1  0  0  0  0
 12 11  2  0  0  0  0
 12 13  1  0  0  0  0
 13  8  2  0  0  0  0
 15 12  1  0  0  0  0
 16 17  1  0  0  0  0
 18 16  1  0  0  0  0
 19 23  1  0  0  0  0
 19 21  1  0  0  0  0
 20 19  1  0  0  0  0
 22 23  2  0  0  0  0
 22 29  1  0  0  0  0
 23 24  1  0  0  0  0
 24 25  1  0  0  0  0
 24 26  2  0  0  0  0
 26 27  1  0  0  0  0
 28 26  1  0  0  0  0
 29 28  2  0  0  0  0
 30 31  2  0  0  0  0
 31 32  1  0  0  0  0
 31 22  1  0  0  0  0
 32 35  1  0  0  0  0
 33 30  1  0  0  0  0
 34 32  1  0  0  0  0
M  END
>  <minimizedAffinity>
-5.28003216

$$$$
