
     RDKit          3D

 36 38  0  0  0  0  0  0  0  0999 V2000
   45.2391   33.5647   43.7080 C   0  0  1  0  0  0  0  0  0  0  0  0
   45.8603   34.9914   43.4837 C   0  0  1  0  0  0  0  0  0  0  0  0
   45.8242   33.8786   42.4594 C   0  0  0  0  0  0  0  0  0  0  0  0
   45.8992   32.8671   44.8176 C   0  0  0  0  0  0  0  0  0  0  0  0
   46.7117   31.7472   44.5052 C   0  0  0  0  0  0  0  0  0  0  0  0
   47.3772   31.0448   45.5050 C   0  0  0  0  0  0  0  0  0  0  0  0
   47.2053   31.4895   46.7785 N   0  0  0  0  0  0  0  0  0  0  0  0
   46.4138   32.5757   47.0455 C   0  0  0  0  0  0  0  0  0  0  0  0
   45.7805   33.2426   46.0941 N   0  0  0  0  0  0  0  0  0  0  0  0
   46.3260   32.9264   48.3821 O   0  0  0  0  0  0  0  0  0  0  0  0
   44.8334   36.0699   43.2424 C   0  0  0  0  0  0  0  0  0  0  0  0
   45.3528   37.3313   43.2436 F   0  0  0  0  0  0  0  0  0  0  0  0
   44.2467   35.8552   41.9781 F   0  0  0  0  0  0  0  0  0  0  0  0
   43.7818   35.9605   44.1388 F   0  0  0  0  0  0  0  0  0  0  0  0
   44.1232   33.6012   43.8470 H   0  0  0  0  0  0  0  0  0  0  0  0
   46.7934   35.2270   43.9844 H   0  0  0  0  0  0  0  0  0  0  0  0
   46.8535   33.5259   42.1725 H   0  0  0  0  0  0  0  0  0  0  0  0
   45.2053   34.0202   41.5515 H   0  0  0  0  0  0  0  0  0  0  0  0
   46.8338   31.4105   43.4733 H   0  0  0  0  0  0  0  0  0  0  0  0
   47.9978   30.1923   45.2882 H   0  0  0  0  0  0  0  0  0  0  0  0
   49.5584   34.4910   50.4755 N   0  0  0  0  0  0  0  0  0  0  0  0
   48.8670   33.7864   49.6070 C   0  0  0  0  0  0  0  0  0  0  0  0
   49.2950   34.6276   48.5678 N   0  0  0  0  0  0  0  0  0  0  0  0
   48.1201   32.6629   50.0807 C   0  0  0  0  0  0  0  0  0  0  0  0
   46.9441   32.3593   49.4414 C   0  0  0  0  0  0  0  0  0  0  0  0
   46.2174   31.2725   49.9439 C   0  0  0  0  0  0  0  0  0  0  0  0
   45.2744   30.8787   49.5828 H   0  0  0  0  0  0  0  0  0  0  0  0
   46.7294   30.5773   51.0462 C   0  0  0  0  0  0  0  0  0  0  0  0
   46.2266   29.7402   51.4781 H   0  0  0  0  0  0  0  0  0  0  0  0
   47.9021   30.9201   51.6418 C   0  0  0  0  0  0  0  0  0  0  0  0
   48.6292   31.9838   51.1638 C   0  0  0  0  0  0  0  0  0  0  0  0
   49.6012   34.2915   51.4762 H   0  0  0  0  0  0  0  0  0  0  0  0
   48.8252   35.4966   48.2253 H   0  0  0  0  0  0  0  0  0  0  0  0
   50.1641   34.4946   47.9756 H   0  0  0  0  0  0  0  0  0  0  0  0
   48.3059   30.3755   52.5067 H   0  0  0  0  0  0  0  0  0  0  0  0
   49.5629   32.2686   51.6242 H   0  0  0  0  0  0  0  0  0  0  0  0
  1  4  1  0
  2  1  1  0
  3  2  1  0
  3  1  1  0
  4  9  1  0
  5  4  2  0
  5  6  1  0
  6  7  2  0
  7  8  1  0
  8 10  1  0
  9  8  2  0
 11  2  1  0
 11 14  1  0
 12 11  1  0
 13 11  1  0
  1 15  1  6
  2 16  1  1
  3 17  1  0
  3 18  1  0
  5 19  1  0
  6 20  1  0
 21 22  2  3
 22 23  1  0
 22 24  1  0
 24 25  2  0
 25 26  1  0
 26 27  1  0
 26 28  2  0
 28 29  1  0
 28 30  1  0
 30 31  2  0
 31 24  1  0
 21 32  1  0
 23 33  1  0
 23 34  1  0
 30 35  1  0
 31 36  1  0
 10 25  1  0
M  ISO  8  15  13  16  13  17  13  18  13  19  14  20  14  27  15  29  16
M  END
>  <DihAtoms>  (1) 
7,9,24,23

>  <DihDeg>  (1) 
63.77147501968275

$$$$
