
 OpenBabel03242511093D

 48 52  0  0  1  0  0  0  0  0999 V2000
   46.5930   32.4140   43.5880 C   0  0  0  0  0  0  0  0  0  0  0  0
   46.6090   31.7030   44.7850 C   0  0  0  0  0  0  0  0  0  0  0  0
   46.1160   32.2150   45.9810 C   0  0  0  0  0  0  0  0  0  0  0  0
   45.5790   33.4870   46.0170 C   0  0  0  0  0  0  0  0  0  0  0  0
   45.5470   34.2070   44.8670 C   0  0  0  0  0  0  0  0  0  0  0  0
   45.0100   35.4760   44.8910 C   0  0  0  0  0  0  0  0  0  0  0  0
   44.9420   36.2650   43.7500 C   0  0  0  0  0  0  0  0  0  0  0  0
   45.4430   35.7160   42.5740 C   0  0  0  0  0  0  0  0  0  0  0  0
   45.9780   34.4330   42.5840 C   0  0  0  0  0  0  0  0  0  0  0  0
   46.0460   33.6610   43.7030 C   0  0  0  0  0  0  0  0  0  0  0  0
   47.0110   30.7000   44.8440 H   0  0  0  0  0  0  0  0  0  0  0  0
   46.1500   31.6240   46.8900 H   0  0  0  0  0  0  0  0  0  0  0  0
   45.2100   33.8460   46.9600 H   0  0  0  0  0  0  0  0  0  0  0  0
   44.6330   35.8550   45.8390 H   0  0  0  0  0  0  0  0  0  0  0  0
   44.5010   37.2460   43.8900 H   0  0  0  0  0  0  0  0  0  0  0  0
   45.3330   36.4220   41.7640 H   0  0  0  0  0  0  0  0  0  0  0  0
   47.7180   34.4990   40.9780 C   0  0  0  0  0  0  0  0  0  0  0  0
   46.3820   34.1420   41.2210 C   0  0  0  0  0  0  0  0  0  0  0  0
   45.7350   33.5530   40.1530 C   0  0  0  0  0  0  0  0  0  0  0  0
   44.7010   33.3030   40.4330 H   0  0  0  0  0  0  0  0  0  0  0  0
   46.3300   33.3250   38.9400 C   0  0  0  0  0  0  0  0  0  0  0  0
   45.6690   32.8550   38.2220 H   0  0  0  0  0  0  0  0  0  0  0  0
   47.6410   33.6790   38.7120 C   0  0  0  0  0  3  0  0  0  0  0  0
   48.3160   34.2680   39.7540 C   0  0  0  0  0  3  0  0  0  0  0  0
   49.0450   34.5620   42.9990 N   0  0  0  0  0  0  0  0  0  0  0  0
   48.5830   35.1240   41.9400 C   0  0  0  0  0  0  0  0  0  0  0  0
   49.0310   36.4690   41.8260 N   0  0  0  0  0  0  0  0  0  0  0  0
   49.6650   35.0400   43.6720 H   0  0  0  0  0  0  0  0  0  0  0  0
   49.9450   36.7580   41.3670 H   0  0  0  0  0  0  0  0  0  0  0  0
   48.4470   37.2690   42.2080 H   0  0  0  0  0  0  0  0  0  0  0  0
   47.1190   31.8150   42.4350 N   0  0  0  0  0  0  0  0  0  0  0  0
   46.7380   32.0780   41.5010 H   0  0  0  0  0  0  0  0  0  0  0  0
   49.5710   31.1290   42.4730 C   0  0  1  0  0  0  0  0  0  0  0  0
   48.9400   30.5350   41.2310 C   0  0  0  0  0  0  0  0  0  0  0  0
   48.1510   30.8190   42.5040 C   0  0  2  0  0  0  0  0  0  0  0  0
   50.0290   32.1170   42.2350 H   0  0  0  0  0  0  0  0  0  0  0  0
   48.7410   31.1550   40.3490 H   0  0  0  0  0  0  0  0  0  0  0  0
   49.1170   29.4550   41.0060 H   0  0  0  0  0  0  0  0  0  0  0  0
   47.8670   29.9100   43.1060 H   0  0  0  0  0  0  0  0  0  0  0  0
   50.9400   28.8010   45.0300 C   0  0  0  0  0  0  0  0  0  0  0  0
   52.3320   28.8110   44.6850 C   0  0  0  0  0  0  0  0  0  0  0  0
   52.7530   29.6020   43.5830 C   0  0  0  0  0  0  0  0  0  0  0  0
   51.8380   30.3040   42.9150 N   0  0  0  0  0  0  0  0  0  0  0  0
   50.5250   30.2810   43.2590 C   0  0  0  0  0  0  0  0  0  0  0  0
   50.0740   29.5280   44.3180 N   0  0  0  0  0  0  0  0  0  0  0  0
   50.6380   28.1920   45.8730 H   0  0  0  0  0  0  0  0  0  0  0  0
   53.0170   28.2280   45.2580 H   0  0  0  0  0  0  0  0  0  0  0  0
   53.8040   29.6020   43.3310 H   0  0  0  0  0  0  0  0  0  0  0  0
  1 10  2  0  0  0  0
  1  2  1  0  0  0  0
  2 11  1  0  0  0  0
  2  3  2  0  0  0  0
  3  4  1  0  0  0  0
  3 12  1  0  0  0  0
  4 13  1  0  0  0  0
  5  6  1  0  0  0  0
  5  4  2  0  0  0  0
  6 14  1  0  0  0  0
  7 15  1  0  0  0  0
  7  6  2  0  0  0  0
  8  9  2  0  0  0  0
  8  7  1  0  0  0  0
  9 10  1  0  0  0  0
 10  5  1  0  0  0  0
 16  8  1  0  0  0  0
 17 18  1  0  0  0  0
 17 26  1  0  0  0  0
 18  9  1  0  0  0  0
 19 20  1  0  0  0  0
 19 18  2  0  0  0  0
 21 19  1  0  0  0  0
 22 21  1  0  0  0  0
 23 21  2  0  0  0  0
 23 24  1  0  0  0  0
 24 17  2  0  0  0  0
 25 28  1  0  0  0  0
 26 25  2  0  0  0  0
 27 26  1  0  0  0  0
 27 30  1  0  0  0  0
 29 27  1  0  0  0  0
 31 35  1  0  0  0  0
 31  1  1  0  0  0  0
 32 31  1  0  0  0  0
 33 36  1  6  0  0  0
 33 35  1  0  0  0  0
 33 44  1  0  0  0  0
 34 33  1  0  0  0  0
 34 35  1  0  0  0  0
 35 39  1  1  0  0  0
 37 34  1  0  0  0  0
 38 34  1  0  0  0  0
 40 46  1  0  0  0  0
 41 40  1  0  0  0  0
 41 47  1  0  0  0  0
 42 41  2  0  0  0  0
 43 44  2  0  0  0  0
 43 42  1  0  0  0  0
 44 45  1  0  0  0  0
 45 40  2  0  0  0  0
 48 42  1  0  0  0  0
M  END
>  <minimizedAffinity>
-5.85959721

>  <minimizedRMSD>
3.13862705

$$$$
