
 OpenBabel03242511133D

 49 53  0  0  1  0  0  0  0  0999 V2000
   50.2570   31.8220   42.1840 C   0  0  1  0  0  0  0  0  0  0  0  0
   49.6410   31.9300   40.7980 C   0  0  0  0  0  0  0  0  0  0  0  0
   48.7960   31.8410   42.0840 C   0  0  2  0  0  0  0  0  0  0  0  0
   50.7240   32.7310   42.5840 H   0  0  0  0  0  0  0  0  0  0  0  0
   49.7370   31.0390   40.1770 H   0  0  0  0  0  0  0  0  0  0  0  0
   49.6690   32.9220   40.2920 H   0  0  0  0  0  0  0  0  0  0  0  0
   48.1650   30.9270   42.1190 H   0  0  0  0  0  0  0  0  0  0  0  0
   51.3590   28.2940   42.1810 C   0  0  0  0  0  0  0  0  0  0  0  0
   52.2760   28.2780   43.2910 C   0  0  0  0  0  0  0  0  0  0  0  0
   52.4830   29.4750   43.9960 C   0  0  0  0  0  0  0  0  0  0  0  0
   51.8230   30.5480   43.5940 N   0  0  0  0  0  0  0  0  0  0  0  0
   50.9700   30.5540   42.5570 C   0  0  0  0  0  0  0  0  0  0  0  0
   50.7290   29.4220   41.8370 N   0  0  0  0  0  0  0  0  0  0  0  0
   51.1550   27.4100   41.6000 H   0  0  0  0  0  0  0  0  0  0  0  0
   52.6940   27.3240   43.4410 H   0  0  0  0  0  0  0  0  0  0  0  0
   54.7710   29.5550   44.9380 C   0  0  0  0  0  0  0  0  0  0  0  0
   53.4130   29.4160   45.1050 C   0  0  0  0  0  0  0  0  0  0  0  0
   53.0320   29.2230   46.4060 C   0  0  0  0  0  0  0  0  0  0  0  0
   52.0080   29.0980   46.6880 H   0  0  0  0  0  0  0  0  0  0  0  0
   53.9290   29.1720   47.4440 C   0  0  0  0  0  0  0  0  0  0  0  0
   53.6030   29.0180   48.4580 H   0  0  0  0  0  0  0  0  0  0  0  0
   55.2770   29.3130   47.2500 C   0  0  0  0  0  3  0  0  0  0  0  0
   55.7110   29.5090   45.9650 C   0  0  0  0  0  3  0  0  0  0  0  0
   55.5000   29.4940   42.4010 N   0  0  0  0  0  0  0  0  0  0  0  0
   55.3740   29.7530   43.6410 C   0  0  0  0  0  0  0  0  0  0  0  0
   56.4030   30.7170   43.4320 N   0  0  0  0  0  0  0  0  0  0  0  0
   56.2040   30.0350   41.8740 H   0  0  0  0  0  0  0  0  0  0  0  0
   56.8070   31.6250   43.0730 H   0  0  0  0  0  0  0  0  0  0  0  0
   57.3890   30.6250   43.7680 H   0  0  0  0  0  0  0  0  0  0  0  0
   48.1000   33.0280   42.4890 N   0  0  0  0  0  0  0  0  0  0  0  0
   48.3570   33.7280   41.7640 H   0  0  0  0  0  0  0  0  0  0  0  0
   47.3110   33.0790   43.6500 C   0  0  0  0  0  0  0  0  0  0  0  0
   47.5040   32.1470   44.6340 C   0  0  0  0  0  0  0  0  0  0  0  0
   46.8140   32.1710   45.8380 C   0  0  0  0  0  0  0  0  0  0  0  0
   45.8860   33.1580   46.0950 C   0  0  0  0  0  0  0  0  0  0  0  0
   45.6730   34.1070   45.1210 C   0  0  0  0  0  0  0  0  0  0  0  0
   44.7540   35.1120   45.3640 C   0  0  0  0  0  0  0  0  0  0  0  0
   44.5030   36.0840   44.4490 C   0  0  0  0  0  0  0  0  0  0  0  0
   45.2110   36.0210   43.2530 C   0  0  0  0  0  0  0  0  0  0  0  0
   46.1150   35.0270   43.0220 C   0  0  0  0  0  0  0  0  0  0  0  0
   46.3740   34.0520   43.9360 C   0  0  0  0  0  0  0  0  0  0  0  0
   48.1980   31.3350   44.5440 H   0  0  0  0  0  0  0  0  0  0  0  0
   46.9620   31.4420   46.6110 H   0  0  0  0  0  0  0  0  0  0  0  0
   45.3180   33.2260   47.0190 H   0  0  0  0  0  0  0  0  0  0  0  0
   44.1930   35.1740   46.2880 H   0  0  0  0  0  0  0  0  0  0  0  0
   43.7910   36.8910   44.5990 H   0  0  0  0  0  0  0  0  0  0  0  0
   45.0150   36.7990   42.5080 H   0  0  0  0  0  0  0  0  0  0  0  0
   46.7790   35.0100   41.8210 O   0  0  0  0  0  0  0  0  0  0  0  0
   47.1930   35.8900   41.5210 H   0  0  0  0  0  0  0  0  0  0  0  0
  1 12  1  0  0  0  0
  1  4  1  1  0  0  0
  2  3  1  0  0  0  0
  2  1  1  0  0  0  0
  3  7  1  1  0  0  0
  3  1  1  0  0  0  0
  3 30  1  0  0  0  0
  5  2  1  0  0  0  0
  6  2  1  0  0  0  0
  8  9  1  0  0  0  0
  9 15  1  0  0  0  0
  9 10  2  0  0  0  0
 10 17  1  0  0  0  0
 11 10  1  0  0  0  0
 12 11  2  0  0  0  0
 13  8  2  0  0  0  0
 13 12  1  0  0  0  0
 14  8  1  0  0  0  0
 16 17  2  0  0  0  0
 16 23  1  0  0  0  0
 17 18  1  0  0  0  0
 18 19  1  0  0  0  0
 18 20  2  0  0  0  0
 20 21  1  0  0  0  0
 22 20  1  0  0  0  0
 23 22  2  0  0  0  0
 24 25  2  0  0  0  0
 25 16  1  0  0  0  0
 26 25  1  0  0  0  0
 26 29  1  0  0  0  0
 27 24  1  0  0  0  0
 28 26  1  0  0  0  0
 30 32  1  0  0  0  0
 31 30  1  0  0  0  0
 32 41  2  0  0  0  0
 32 33  1  0  0  0  0
 33 34  2  0  0  0  0
 34 35  1  0  0  0  0
 34 43  1  0  0  0  0
 35 44  1  0  0  0  0
 36 37  1  0  0  0  0
 36 35  2  0  0  0  0
 37 45  1  0  0  0  0
 38 46  1  0  0  0  0
 38 37  2  0  0  0  0
 39 38  1  0  0  0  0
 40 39  2  0  0  0  0
 40 41  1  0  0  0  0
 41 36  1  0  0  0  0
 42 33  1  0  0  0  0
 47 39  1  0  0  0  0
 48 40  1  0  0  0  0
 49 48  1  0  0  0  0
M  END
>  <minimizedAffinity>
-5.28034592

>  <minimizedRMSD>
1.44851005

$$$$
