REMARK  Name = 
REMARK  5 active torsions:
REMARK  status: ('A' for Active; 'I' for Inactive)
REMARK    1  A    between atoms: C_2  and  N_11
REMARK    2  A    between atoms: C_3  and  C_7
REMARK    3  A    between atoms: C_9  and  C_10
REMARK    4  A    between atoms: C_10  and  C_26
REMARK    5  A    between atoms: C_23  and  C_25
REMARK                            x       y       z     vdW  Elec       q    Type
REMARK                         _______ _______ _______ _____ _____    ______ ____
ROOT
ATOM      1  C   UNL     1      46.579  35.062  41.932  0.00  0.00    +0.000 C 
ATOM      2  C   UNL     1      48.115  35.300  41.930  0.00  0.00    +0.000 C 
ATOM      3  C   UNL     1      47.368  34.080  41.314  0.00  0.00    +0.000 C 
ATOM      4  H   UNL     1      46.014  35.837  41.376  0.00  0.00    +0.000 HD
ATOM      5  H   UNL     1      48.447  36.066  41.211  0.00  0.00    +0.000 HD
ATOM      6  H   UNL     1      48.681  35.102  42.844  0.00  0.00    +0.000 HD
ATOM      7  H   UNL     1      47.598  33.108  41.845  0.00  0.00    +0.000 HD
ENDROOT
BRANCH   1  10
ATOM      8  C   UNL     1      44.671  35.372  45.145  0.00  0.00    +0.000 A 
ATOM      9  C   UNL     1      45.130  35.702  43.823  0.00  0.00    +0.000 A 
ATOM     10  C   UNL     1      46.076  34.858  43.342  0.00  0.00    +0.000 A 
ATOM     11  N   UNL     1      46.557  33.779  44.060  0.00  0.00    +0.000 NA
ATOM     12  C   UNL     1      46.093  33.513  45.296  0.00  0.00    +0.000 A 
ATOM     13  N   UNL     1      45.144  34.314  45.841  0.00  0.00    +0.000 NA
ATOM     14  H   UNL     1      43.914  36.024  45.561  0.00  0.00    +0.000 HD
ATOM     15  H   UNL     1      46.548  32.650  45.742  0.00  0.00    +0.000 HD
BRANCH   9  16
ATOM     16  N   UNL     1      44.661  36.817  43.112  0.00  0.00    +0.000 N 
ATOM     17  H   UNL     1      43.888  36.277  42.682  0.00  0.00    +0.000 HD
ATOM     18  H   UNL     1      45.411  37.467  43.489  0.00  0.00    +0.000 HD
ENDBRANCH   9  16
ENDBRANCH   1  10
BRANCH   3  19
ATOM     19  C   UNL     1      47.364  33.909  39.812  0.00  0.00    +0.000 C 
ATOM     20  H   UNL     1      47.631  34.907  39.400  0.00  0.00    +0.000 HD
ATOM     21  H   UNL     1      46.313  33.650  39.532  0.00  0.00    +0.000 HD
BRANCH  19  23
ATOM     22  C   UNL     1      48.245  31.610  39.947  0.00  0.00    +0.000 A 
ATOM     23  C   UNL     1      48.243  32.841  39.326  0.00  0.00    +0.000 A 
ATOM     24  C   UNL     1      49.068  33.071  38.244  0.00  0.00    +0.000 A 
ATOM     25  H   UNL     1      49.028  34.071  37.786  0.00  0.00    +0.000 HD
ATOM     26  C   UNL     1      49.888  32.066  37.791  0.00  0.00    +0.000 A 
ATOM     27  H   UNL     1      50.507  32.335  36.931  0.00  0.00    +0.000 HD
ATOM     28  C   UNL     1      49.912  30.825  38.391  0.00  0.00    +0.000 A 
ATOM     29  C   UNL     1      49.087  30.636  39.453  0.00  0.00    +0.000 A 
BRANCH  22  31
ATOM     30  N   UNL     1      46.267  31.608  41.495  0.00  0.00    +0.000 NA
ATOM     31  C   UNL     1      47.431  31.245  41.088  0.00  0.00    +0.000 C 
ATOM     32  N   UNL     1      47.907  30.292  42.037  0.00  0.00    +0.000 N 
ATOM     33  H   UNL     1      45.840  31.224  42.359  0.00  0.00    +0.000 HD
ATOM     34  H   UNL     1      48.337  30.731  42.892  0.00  0.00    +0.000 HD
ATOM     35  H   UNL     1      47.817  29.268  41.860  0.00  0.00    +0.000 HD
ENDBRANCH  22  31
ENDBRANCH  19  23
ENDBRANCH   3  19
TORSDOF 5
