
 OpenBabel03242519063D

 48 51  0  0  1  0  0  0  0  0999 V2000
   49.2260   31.9650   37.7520 C   0  0  0  0  0  0  0  0  0  0  0  0
   48.8710   32.9090   38.7290 C   0  0  0  0  0  0  0  0  0  0  0  0
   48.3020   34.0350   38.2010 C   0  0  0  0  0  0  0  0  0  0  0  0
   48.0720   34.2840   36.8790 C   0  0  0  0  0  0  0  0  0  0  0  0
   48.4380   33.3250   35.9540 C   0  0  0  0  0  0  0  0  0  0  0  0
   49.0200   32.1590   36.4210 C   0  0  0  0  0  0  0  0  0  0  0  0
   47.9890   34.8340   38.8670 H   0  0  0  0  0  0  0  0  0  0  0  0
   47.6120   35.2070   36.5210 H   0  0  0  0  0  0  0  0  0  0  0  0
   48.2990   33.4230   34.8880 H   0  0  0  0  0  0  0  0  0  0  0  0
   48.3490   30.3190   35.0830 C   0  0  0  0  0  0  0  0  0  0  0  0
   49.4130   31.1340   35.4570 C   0  0  0  0  0  0  0  0  0  0  0  0
   50.6720   30.9370   34.9360 C   0  0  0  0  0  0  0  0  0  0  0  0
   51.4320   31.6190   35.2870 H   0  0  0  0  0  0  0  0  0  0  0  0
   50.9310   29.9370   34.0330 C   0  0  0  0  0  0  0  0  0  0  0  0
   51.9230   29.7910   33.6300 H   0  0  0  0  0  0  0  0  0  0  0  0
   49.8810   29.1290   33.6610 C   0  0  0  0  0  3  0  0  0  0  0  0
   48.6160   29.3020   34.1630 C   0  0  0  0  0  3  0  0  0  0  0  0
   46.0720   31.0930   34.9340 N   0  0  0  0  0  0  0  0  0  0  0  0
   46.9770   30.4320   35.5660 C   0  0  0  0  0  0  0  0  0  0  0  0
   46.6110   29.7930   36.7830 N   0  0  0  0  0  0  0  0  0  0  0  0
   45.1180   31.1180   35.3560 H   0  0  0  0  0  0  0  0  0  0  0  0
   46.7320   28.7440   36.8830 H   0  0  0  0  0  0  0  0  0  0  0  0
   46.2450   29.7830   37.7510 H   0  0  0  0  0  0  0  0  0  0  0  0
   49.0680   32.7450   40.1220 N   0  0  0  0  0  0  0  0  0  0  0  0
   50.0600   32.6090   40.4800 H   0  0  0  0  0  0  0  0  0  0  0  0
   47.4620   33.4950   43.2150 N   0  0  0  0  0  0  0  0  0  0  0  0
   48.1660   33.9720   42.0440 C   0  0  0  0  0  0  0  0  0  0  0  0
   48.1140   32.7260   41.2110 C   0  0  2  0  0  0  0  0  0  0  0  0
   48.6150   31.7030   42.2150 C   0  0  0  0  0  0  0  0  0  0  0  0
   47.9870   32.1690   43.5040 C   0  0  0  0  0  0  0  0  0  0  0  0
   47.6720   34.8490   41.5910 H   0  0  0  0  0  0  0  0  0  0  0  0
   49.2140   34.1720   42.3510 H   0  0  0  0  0  0  0  0  0  0  0  0
   47.0880   32.5180   40.9030 H   0  0  0  0  0  0  0  0  0  0  0  0
   49.7140   31.7680   42.3150 H   0  0  0  0  0  0  0  0  0  0  0  0
   48.3460   30.6650   41.9450 H   0  0  0  0  0  0  0  0  0  0  0  0
   47.1190   31.5190   43.7240 H   0  0  0  0  0  0  0  0  0  0  0  0
   48.7330   32.1860   44.3230 H   0  0  0  0  0  0  0  0  0  0  0  0
   44.7180   35.6930   44.4320 C   0  0  0  0  0  0  0  0  0  0  0  0
   45.6820   35.1720   43.5700 C   0  0  0  0  0  0  0  0  0  0  0  0
   46.4670   34.1020   43.9860 C   0  0  0  0  0  0  0  0  0  0  0  0
   46.2310   33.6230   45.2430 N   0  0  0  0  0  0  0  0  0  0  0  0
   45.3050   34.1170   46.0790 C   0  0  0  0  0  0  0  0  0  0  0  0
   44.5420   35.1630   45.6680 N   0  0  0  0  0  0  0  0  0  0  0  0
   44.1390   36.5240   44.0520 H   0  0  0  0  0  0  0  0  0  0  0  0
   45.8940   35.5250   42.5730 H   0  0  0  0  0  0  0  0  0  0  0  0
   45.2200   33.6520   47.0380 H   0  0  0  0  0  0  0  0  0  0  0  0
   50.3130   29.7440   38.6220 N   0  0  0  0  0  0  0  0  0  0  0  0
   49.8420   30.7310   38.2400 C   0  0  0  0  0  0  0  0  0  0  0  0
  1 48  1  0  0  0  0
  1  2  1  0  0  0  0
  2 24  1  0  0  0  0
  3  2  2  0  0  0  0
  3  7  1  0  0  0  0
  4  3  1  0  0  0  0
  5  6  1  0  0  0  0
  5  4  2  0  0  0  0
  6  1  2  0  0  0  0
  8  4  1  0  0  0  0
  9  5  1  0  0  0  0
 10 11  1  0  0  0  0
 10 19  1  0  0  0  0
 11  6  1  0  0  0  0
 12 13  1  0  0  0  0
 12 11  2  0  0  0  0
 14 12  1  0  0  0  0
 15 14  1  0  0  0  0
 16 14  2  0  0  0  0
 16 17  1  0  0  0  0
 17 10  2  0  0  0  0
 18 21  1  0  0  0  0
 18 19  2  0  0  0  0
 19 20  1  0  0  0  0
 20 22  1  0  0  0  0
 20 23  1  0  0  0  0
 24 25  1  0  0  0  0
 24 28  1  0  0  0  0
 26 30  1  0  0  0  0
 26 40  1  0  0  0  0
 27 32  1  0  0  0  0
 27 26  1  0  0  0  0
 28 33  1  6  0  0  0
 28 27  1  0  0  0  0
 28 29  1  0  0  0  0
 29 34  1  0  0  0  0
 29 30  1  0  0  0  0
 30 36  1  0  0  0  0
 30 37  1  0  0  0  0
 31 27  1  0  0  0  0
 35 29  1  0  0  0  0
 38 43  1  0  0  0  0
 39 40  1  0  0  0  0
 39 38  2  0  0  0  0
 40 41  2  0  0  0  0
 41 42  1  0  0  0  0
 42 46  1  0  0  0  0
 43 42  2  0  0  0  0
 44 38  1  0  0  0  0
 45 39  1  0  0  0  0
 48 47  3  0  0  0  0
M  END
>  <minimizedAffinity>
-4.72136068

>  <minimizedRMSD>
0.716325223

$$$$
