
 OpenBabel03242523473D

 24 25  0  0  0  0  0  0  0  0999 V2000
   47.9830   32.2390   43.3720 C   0  0  0  0  0  0  0  0  0  0  0  0
   47.9320   33.5930   43.2230 C   0  0  0  0  0  0  0  0  0  0  0  0
   48.9820   34.2120   42.5830 C   0  0  0  0  0  0  0  0  0  0  0  0
   48.9620   35.2730   42.4560 H   0  0  0  0  0  0  0  0  0  0  0  0
   50.0760   33.5390   42.0860 C   0  0  0  0  0  0  0  0  0  0  0  0
   50.8670   34.1010   41.5910 H   0  0  0  0  0  0  0  0  0  0  0  0
   50.1590   32.1690   42.2190 C   0  0  0  0  0  3  0  0  0  0  0  0
   49.0890   31.5410   42.8710 C   0  0  0  0  0  3  0  0  0  0  0  0
   45.0530   35.9170   43.4760 C   0  0  0  0  0  0  0  0  0  0  0  0
   46.1980   35.2610   42.9960 C   0  0  0  0  0  0  0  0  0  0  0  0
   46.7600   34.2350   43.7540 C   0  0  0  0  0  0  0  0  0  0  0  0
   46.1570   33.9350   44.9180 N   0  0  0  0  0  0  0  0  0  0  0  0
   45.0660   34.5640   45.3710 C   0  0  0  0  0  0  0  0  0  0  0  0
   44.5180   35.5590   44.6390 N   0  0  0  0  0  0  0  0  0  0  0  0
   46.5450   35.6280   42.0540 H   0  0  0  0  0  0  0  0  0  0  0  0
   44.6600   34.2450   46.3190 H   0  0  0  0  0  0  0  0  0  0  0  0
   44.5010   36.9190   42.7390 O   0  0  0  0  0  0  0  0  0  0  0  0
   44.5270   37.8920   42.9890 H   0  0  0  0  0  0  0  0  0  0  0  0
   46.0520   30.7440   43.4920 N   0  0  0  0  0  0  0  0  0  0  0  0
   47.1070   31.2900   43.9930 C   0  0  0  0  0  0  0  0  0  0  0  0
   47.0550   30.6220   45.2300 N   0  0  0  0  0  0  0  0  0  0  0  0
   45.5380   30.0560   44.0780 H   0  0  0  0  0  0  0  0  0  0  0  0
   47.8020   30.0290   45.6420 H   0  0  0  0  0  0  0  0  0  0  0  0
   47.0130   30.1430   46.1200 H   0  0  0  0  0  0  0  0  0  0  0  0
  1 20  1  0  0  0  0
  2  1  1  0  0  0  0
  2 11  1  0  0  0  0
  3  2  2  0  0  0  0
  4  3  1  0  0  0  0
  5  7  2  0  0  0  0
  5  3  1  0  0  0  0
  6  5  1  0  0  0  0
  7  8  1  0  0  0  0
  8  1  2  0  0  0  0
  9 14  1  0  0  0  0
 10  9  2  0  0  0  0
 10 11  1  0  0  0  0
 11 12  2  0  0  0  0
 12 13  1  0  0  0  0
 13 16  1  0  0  0  0
 14 13  2  0  0  0  0
 15 10  1  0  0  0  0
 17 18  1  0  0  0  0
 17  9  1  0  0  0  0
 19 20  2  0  0  0  0
 19 22  1  0  0  0  0
 20 21  1  0  0  0  0
 21 23  1  0  0  0  0
 21 24  1  0  0  0  0
M  END
>  <minimizedAffinity>
-4.54649591

>  <minimizedRMSD>
1.28863382

$$$$
