
 OpenBabel03252504563D

 36 36  0  0  1  0  0  0  0  0999 V2000
   46.6870   33.8700   41.2430 N   0  0  0  0  0  0  0  0  0  0  0  0
   46.8850   33.8320   39.8280 C   0  0  0  0  0  0  0  0  0  0  0  0
   48.0990   34.6840   39.6560 C   0  0  0  0  0  0  0  0  0  0  0  0
   48.5790   35.1220   41.0120 C   0  0  0  0  0  0  0  0  0  0  0  0
   47.8440   34.1050   41.9410 C   0  0  2  0  0  0  0  0  0  0  0  0
   46.4290   33.4000   38.9880 H   0  0  0  0  0  0  0  0  0  0  0  0
   48.5910   34.9230   38.7050 H   0  0  0  0  0  0  0  0  0  0  0  0
   49.6540   35.0480   41.0990 H   0  0  0  0  0  0  0  0  0  0  0  0
   48.1970   36.1430   41.1600 H   0  0  0  0  0  0  0  0  0  0  0  0
   47.7320   34.7200   42.8890 H   0  0  0  0  0  0  0  0  0  0  0  0
   48.7500   31.7790   42.5490 C   0  0  0  0  0  0  0  0  0  0  0  0
   48.8420   33.0940   42.2250 C   0  0  0  0  0  0  0  0  0  0  0  0
   50.1680   33.5340   42.0960 C   0  0  0  0  0  0  0  0  0  0  0  0
   50.4040   34.5740   41.8380 H   0  0  0  0  0  0  0  0  0  0  0  0
   51.2890   32.7590   42.2650 C   0  0  0  0  0  0  0  0  0  0  0  0
   52.2880   33.1420   42.1560 H   0  0  0  0  0  0  0  0  0  0  0  0
   51.1220   31.4330   42.5910 C   0  0  0  0  0  3  0  0  0  0  0  0
   49.8250   30.9390   42.7340 C   0  0  0  0  0  3  0  0  0  0  0  0
   46.9550   30.3550   41.8660 N   0  0  0  0  0  0  0  0  0  0  0  0
   47.5090   31.0960   42.7910 C   0  0  0  0  0  3  0  0  0  0  0  0
   46.6120   30.9260   43.8630 N   0  0  0  0  0  1  0  0  0  0  0  0
   46.0560   29.8370   42.0720 H   0  0  0  0  0  0  0  0  0  0  0  0
   46.5160   30.4820   44.8050 H   0  0  0  0  0 15  0  0  0  0  0  0
   45.9560   30.8170   44.6160 H   0  0  0  0  0  0  0  0  0  0  0  0
   45.4090   33.8010   41.7380 C   0  0  0  0  0  0  0  0  0  0  0  0
   44.5760   34.1710   41.0780 H   0  0  0  0  0  0  0  0  0  0  0  0
   45.1040   32.7160   41.8640 H   0  0  0  0  0  0  0  0  0  0  0  0
   44.5120   36.1250   44.5740 C   0  0  0  0  0  0  0  0  0  0  0  0
   44.7170   35.7000   43.2350 C   0  0  0  0  0  0  0  0  0  0  0  0
   45.1830   34.4020   43.0440 C   0  0  0  0  0  0  0  0  0  0  0  0
   45.4110   33.6290   44.1270 N   0  0  0  0  0  0  0  0  0  0  0  0
   45.2060   34.0590   45.4150 C   0  0  0  0  0  0  0  0  0  0  0  0
   44.7560   35.3100   45.6270 N   0  0  0  0  0  0  0  0  0  0  0  0
   44.1500   37.1370   44.6800 H   0  0  0  0  0  0  0  0  0  0  0  0
   44.5340   36.3240   42.3870 H   0  0  0  0  0  0  0  0  0  0  0  0
   45.4280   33.3410   46.1890 H   0  0  0  0  0  0  0  0  0  0  0  0
  1 25  1  0  0  0  0
  1  5  1  0  0  0  0
  2  1  1  0  0  0  0
  3  2  2  0  0  0  0
  3  4  1  0  0  0  0
  4  8  1  0  0  0  0
  4  9  1  0  0  0  0
  4  5  1  0  0  0  0
  5 12  1  0  0  0  0
  5 10  1  1  0  0  0
  6  2  1  0  0  0  0
  7  3  1  0  0  0  0
 11 18  1  0  0  0  0
 11 20  1  0  0  0  0
 12 11  2  0  0  0  0
 13 12  1  0  0  0  0
 13 15  2  0  0  0  0
 14 13  1  0  0  0  0
 15 17  1  0  0  0  0
 16 15  1  0  0  0  0
 17 18  2  0  0  0  0
 19 22  1  0  0  0  0
 19 20  2  0  0  0  0
 21 24  1  0  0  0  0
 25 27  1  0  0  0  0
 25 30  1  0  0  0  0
 26 25  1  0  0  0  0
 28 34  1  0  0  0  0
 28 33  1  0  0  0  0
 29 28  2  0  0  0  0
 30 29  1  0  0  0  0
 30 31  2  0  0  0  0
 31 32  1  0  0  0  0
 32 33  2  0  0  0  0
 32 36  1  0  0  0  0
 35 29  1  0  0  0  0
M  END
>  <minimizedAffinity>
-4.89176559

>  <minimizedRMSD>
1.34531105

$$$$
