
 OpenBabel03242519083D

 48 51  0  0  1  0  0  0  0  0999 V2000
   38.3130   29.0330   40.5970 C   0  0  0  0  0  0  0  0  0  0  0  0
   38.5250   30.4210   40.5910 C   0  0  0  0  0  0  0  0  0  0  0  0
   37.3730   31.1370   40.7690 C   0  0  0  0  0  0  0  0  0  0  0  0
   36.1190   30.6260   40.9420 C   0  0  0  0  0  0  0  0  0  0  0  0
   35.9610   29.2540   40.9410 C   0  0  0  0  0  0  0  0  0  0  0  0
   37.0860   28.4690   40.7650 C   0  0  0  0  0  0  0  0  0  0  0  0
   37.4180   32.2220   40.7810 H   0  0  0  0  0  0  0  0  0  0  0  0
   35.2370   31.2540   41.0800 H   0  0  0  0  0  0  0  0  0  0  0  0
   35.0140   28.7500   41.0700 H   0  0  0  0  0  0  0  0  0  0  0  0
   37.0340   26.4670   42.0360 C   0  0  0  0  0  0  0  0  0  0  0  0
   36.9380   27.0150   40.7610 C   0  0  0  0  0  0  0  0  0  0  0  0
   36.7250   26.2150   39.6610 C   0  0  0  0  0  0  0  0  0  0  0  0
   36.6630   26.7320   38.7150 H   0  0  0  0  0  0  0  0  0  0  0  0
   36.5990   24.8530   39.7720 C   0  0  0  0  0  0  0  0  0  0  0  0
   36.4320   24.2340   38.9030 H   0  0  0  0  0  0  0  0  0  0  0  0
   36.6950   24.3070   41.0320 C   0  0  0  0  0  3  0  0  0  0  0  0
   36.9070   25.0790   42.1470 C   0  0  0  0  0  3  0  0  0  0  0  0
   38.4360   27.4600   43.7260 N   0  0  0  0  0  0  0  0  0  0  0  0
   37.2580   27.2100   43.2700 C   0  0  0  0  0  0  0  0  0  0  0  0
   36.1410   27.6860   44.0110 N   0  0  0  0  0  0  0  0  0  0  0  0
   38.4980   28.0000   44.6160 H   0  0  0  0  0  0  0  0  0  0  0  0
   35.4450   28.3420   43.5510 H   0  0  0  0  0  0  0  0  0  0  0  0
   35.5550   27.7560   44.8610 H   0  0  0  0  0  0  0  0  0  0  0  0
   39.7840   31.0470   40.4190 N   0  0  0  0  0  0  0  0  0  0  0  0
   40.2470   30.9990   39.4640 H   0  0  0  0  0  0  0  0  0  0  0  0
   42.6420   32.3680   42.0920 N   0  0  0  0  0  0  0  0  0  0  0  0
   41.9910   32.0290   40.8450 C   0  0  0  0  0  0  0  0  0  0  0  0
   40.6040   31.7820   41.3590 C   0  0  2  0  0  0  0  0  0  0  0  0
   40.9010   30.8400   42.5120 C   0  0  0  0  0  0  0  0  0  0  0  0
   42.1810   31.4010   43.0780 C   0  0  0  0  0  0  0  0  0  0  0  0
   42.0680   32.8410   40.1010 H   0  0  0  0  0  0  0  0  0  0  0  0
   42.4340   31.0730   40.4940 H   0  0  0  0  0  0  0  0  0  0  0  0
   40.1580   32.7150   41.7080 H   0  0  0  0  0  0  0  0  0  0  0  0
   41.1020   29.8200   42.1340 H   0  0  0  0  0  0  0  0  0  0  0  0
   40.0800   30.7870   43.2500 H   0  0  0  0  0  0  0  0  0  0  0  0
   41.9370   31.9690   43.9960 H   0  0  0  0  0  0  0  0  0  0  0  0
   42.9240   30.5970   43.2500 H   0  0  0  0  0  0  0  0  0  0  0  0
   44.3420   35.6610   42.4230 C   0  0  0  0  0  0  0  0  0  0  0  0
   43.3680   34.7300   42.0630 C   0  0  0  0  0  0  0  0  0  0  0  0
   43.5440   33.3910   42.3960 C   0  0  0  0  0  0  0  0  0  0  0  0
   44.6890   33.0740   43.0700 N   0  0  0  0  0  0  0  0  0  0  0  0
   45.6310   33.9630   43.4210 C   0  0  0  0  0  0  0  0  0  0  0  0
   45.4540   35.2700   43.0920 N   0  0  0  0  0  0  0  0  0  0  0  0
   44.1480   36.6860   42.1360 H   0  0  0  0  0  0  0  0  0  0  0  0
   42.4540   34.9460   41.5320 H   0  0  0  0  0  0  0  0  0  0  0  0
   46.4820   33.5860   43.9460 H   0  0  0  0  0  0  0  0  0  0  0  0
   40.4280   27.5220   40.2580 N   0  0  0  0  0  0  0  0  0  0  0  0
   39.5000   28.1990   40.4100 C   0  0  0  0  0  0  0  0  0  0  0  0
  1  6  1  0  0  0  0
  2  1  2  0  0  0  0
  2  3  1  0  0  0  0
  3  7  1  0  0  0  0
  3  4  2  0  0  0  0
  4  8  1  0  0  0  0
  5  4  1  0  0  0  0
  5  9  1  0  0  0  0
  6  5  2  0  0  0  0
 10 17  1  0  0  0  0
 10 19  1  0  0  0  0
 11  6  1  0  0  0  0
 11 10  2  0  0  0  0
 12 14  2  0  0  0  0
 12 11  1  0  0  0  0
 13 12  1  0  0  0  0
 14 16  1  0  0  0  0
 15 14  1  0  0  0  0
 16 17  2  0  0  0  0
 18 21  1  0  0  0  0
 19 18  2  0  0  0  0
 19 20  1  0  0  0  0
 20 23  1  0  0  0  0
 22 20  1  0  0  0  0
 24  2  1  0  0  0  0
 24 28  1  0  0  0  0
 25 24  1  0  0  0  0
 26 40  1  0  0  0  0
 26 30  1  0  0  0  0
 27 28  1  0  0  0  0
 27 26  1  0  0  0  0
 28 33  1  1  0  0  0
 28 29  1  0  0  0  0
 29 30  1  0  0  0  0
 29 35  1  0  0  0  0
 30 37  1  0  0  0  0
 30 36  1  0  0  0  0
 31 27  1  0  0  0  0
 32 27  1  0  0  0  0
 34 29  1  0  0  0  0
 38 43  1  0  0  0  0
 39 40  1  0  0  0  0
 39 38  2  0  0  0  0
 40 41  2  0  0  0  0
 41 42  1  0  0  0  0
 42 46  1  0  0  0  0
 43 42  2  0  0  0  0
 44 38  1  0  0  0  0
 45 39  1  0  0  0  0
 47 48  3  0  0  0  0
 48  1  1  0  0  0  0
M  END
>  <minimizedAffinity>
-6.54934645

$$$$

 OpenBabel03242519083D

 48 51  0  0  1  0  0  0  0  0999 V2000
   40.4730   32.9270   39.6950 C   0  0  0  0  0  0  0  0  0  0  0  0
   39.1130   32.8530   40.0360 C   0  0  0  0  0  0  0  0  0  0  0  0
   38.5700   34.0710   40.3370 C   0  0  0  0  0  0  0  0  0  0  0  0
   39.2190   35.2720   40.3300 C   0  0  0  0  0  0  0  0  0  0  0  0
   40.5570   35.2960   39.9880 C   0  0  0  0  0  0  0  0  0  0  0  0
   41.1700   34.0960   39.6700 C   0  0  0  0  0  0  0  0  0  0  0  0
   37.5220   34.1320   40.6150 H   0  0  0  0  0  0  0  0  0  0  0  0
   38.7270   36.2130   40.5810 H   0  0  0  0  0  0  0  0  0  0  0  0
   41.1610   36.1910   39.9510 H   0  0  0  0  0  0  0  0  0  0  0  0
   43.4200   34.0880   40.4200 C   0  0  0  0  0  0  0  0  0  0  0  0
   42.5850   34.1020   39.3070 C   0  0  0  0  0  0  0  0  0  0  0  0
   43.1050   34.1190   38.0320 C   0  0  0  0  0  0  0  0  0  0  0  0
   42.3780   34.1280   37.2330 H   0  0  0  0  0  0  0  0  0  0  0  0
   44.4580   34.1230   37.8040 C   0  0  0  0  0  0  0  0  0  0  0  0
   44.8550   34.1360   36.8000 H   0  0  0  0  0  0  0  0  0  0  0  0
   45.2870   34.1100   38.9030 C   0  0  0  0  0  3  0  0  0  0  0  0
   44.7980   34.0920   40.1840 C   0  0  0  0  0  3  0  0  0  0  0  0
   42.7000   32.9800   42.4350 N   0  0  0  0  0  0  0  0  0  0  0  0
   42.9870   34.0700   41.8120 C   0  0  0  0  0  0  0  0  0  0  0  0
   42.8740   35.2950   42.5240 N   0  0  0  0  0  0  0  0  0  0  0  0
   42.3990   33.0660   43.4300 H   0  0  0  0  0  0  0  0  0  0  0  0
   43.7220   35.9250   42.6260 H   0  0  0  0  0  0  0  0  0  0  0  0
   42.3550   36.0060   43.0680 H   0  0  0  0  0  0  0  0  0  0  0  0
   38.3530   31.6580   40.0730 N   0  0  0  0  0  0  0  0  0  0  0  0
   37.7080   31.4430   39.2550 H   0  0  0  0  0  0  0  0  0  0  0  0
   38.1700   28.4330   41.5820 N   0  0  0  0  0  0  0  0  0  0  0  0
   38.7260   29.2810   40.5490 C   0  0  0  0  0  0  0  0  0  0  0  0
   38.2880   30.6160   41.0750 C   0  0  2  0  0  0  0  0  0  0  0  0
   36.8160   30.3420   41.3280 C   0  0  0  0  0  0  0  0  0  0  0  0
   36.8260   28.9250   41.8450 C   0  0  0  0  0  0  0  0  0  0  0  0
   39.8190   29.1610   40.4560 H   0  0  0  0  0  0  0  0  0  0  0  0
   38.1810   29.0530   39.6100 H   0  0  0  0  0  0  0  0  0  0  0  0
   38.8160   30.8510   42.0000 H   0  0  0  0  0  0  0  0  0  0  0  0
   36.2510   30.3650   40.3770 H   0  0  0  0  0  0  0  0  0  0  0  0
   36.3560   31.0620   42.0290 H   0  0  0  0  0  0  0  0  0  0  0  0
   36.7030   28.9550   42.9440 H   0  0  0  0  0  0  0  0  0  0  0  0
   36.0530   28.3140   41.3390 H   0  0  0  0  0  0  0  0  0  0  0  0
   40.0670   26.2650   43.9360 C   0  0  0  0  0  0  0  0  0  0  0  0
   39.5790   27.4320   43.3480 C   0  0  0  0  0  0  0  0  0  0  0  0
   38.7240   27.3410   42.2550 C   0  0  0  0  0  0  0  0  0  0  0  0
   38.4150   26.0820   41.8230 N   0  0  0  0  0  0  0  0  0  0  0  0
   38.8800   24.9550   42.3830 C   0  0  0  0  0  0  0  0  0  0  0  0
   39.7150   25.0500   43.4500 N   0  0  0  0  0  0  0  0  0  0  0  0
   40.7280   26.4010   44.7830 H   0  0  0  0  0  0  0  0  0  0  0  0
   39.8010   28.4390   43.6630 H   0  0  0  0  0  0  0  0  0  0  0  0
   38.5630   24.0310   41.9490 H   0  0  0  0  0  0  0  0  0  0  0  0
   41.6350   30.6610   39.0740 N   0  0  0  0  0  0  0  0  0  0  0  0
   41.1250   31.6620   39.3600 C   0  0  0  0  0  0  0  0  0  0  0  0
  1  2  1  0  0  0  0
  2 24  1  0  0  0  0
  2  3  2  0  0  0  0
  3  7  1  0  0  0  0
  4  3  1  0  0  0  0
  4  8  1  0  0  0  0
  5  4  2  0  0  0  0
  6  1  2  0  0  0  0
  6  5  1  0  0  0  0
  9  5  1  0  0  0  0
 10 19  1  0  0  0  0
 11  6  1  0  0  0  0
 11 10  2  0  0  0  0
 12 11  1  0  0  0  0
 13 12  1  0  0  0  0
 14 12  2  0  0  0  0
 14 16  1  0  0  0  0
 15 14  1  0  0  0  0
 16 17  2  0  0  0  0
 17 10  1  0  0  0  0
 18 21  1  0  0  0  0
 19 18  2  0  0  0  0
 19 20  1  0  0  0  0
 20 22  1  0  0  0  0
 20 23  1  0  0  0  0
 24 28  1  0  0  0  0
 25 24  1  0  0  0  0
 26 30  1  0  0  0  0
 26 40  1  0  0  0  0
 27 28  1  0  0  0  0
 27 26  1  0  0  0  0
 28 29  1  0  0  0  0
 28 33  1  1  0  0  0
 29 30  1  0  0  0  0
 29 35  1  0  0  0  0
 30 36  1  0  0  0  0
 31 27  1  0  0  0  0
 32 27  1  0  0  0  0
 34 29  1  0  0  0  0
 37 30  1  0  0  0  0
 38 44  1  0  0  0  0
 39 45  1  0  0  0  0
 39 38  2  0  0  0  0
 40 39  1  0  0  0  0
 41 40  2  0  0  0  0
 41 42  1  0  0  0  0
 42 43  2  0  0  0  0
 43 38  1  0  0  0  0
 46 42  1  0  0  0  0
 47 48  3  0  0  0  0
 48  1  1  0  0  0  0
M  END
>  <minimizedAffinity>
-6.53860283

$$$$

 OpenBabel03242519083D

 48 51  0  0  1  0  0  0  0  0999 V2000
   39.0060   27.9720   41.7830 C   0  0  0  0  0  0  0  0  0  0  0  0
   37.7230   28.4140   41.4200 C   0  0  0  0  0  0  0  0  0  0  0  0
   36.7780   28.1490   42.3720 C   0  0  0  0  0  0  0  0  0  0  0  0
   36.9850   27.5260   43.5690 C   0  0  0  0  0  0  0  0  0  0  0  0
   38.2640   27.1100   43.8830 C   0  0  0  0  0  0  0  0  0  0  0  0
   39.2700   27.3470   42.9630 C   0  0  0  0  0  0  0  0  0  0  0  0
   35.7490   28.4470   42.1970 H   0  0  0  0  0  0  0  0  0  0  0  0
   36.1850   27.3440   44.2890 H   0  0  0  0  0  0  0  0  0  0  0  0
   38.5340   26.6100   44.8020 H   0  0  0  0  0  0  0  0  0  0  0  0
   40.8770   25.6050   42.8730 C   0  0  0  0  0  0  0  0  0  0  0  0
   40.6290   26.9130   43.2770 C   0  0  0  0  0  0  0  0  0  0  0  0
   41.6060   27.6580   43.9000 C   0  0  0  0  0  0  0  0  0  0  0  0
   41.3190   28.6630   44.1750 H   0  0  0  0  0  0  0  0  0  0  0  0
   42.8550   27.1490   44.1470 C   0  0  0  0  0  0  0  0  0  0  0  0
   43.6140   27.7420   44.6360 H   0  0  0  0  0  0  0  0  0  0  0  0
   43.1040   25.8540   43.7500 C   0  0  0  0  0  3  0  0  0  0  0  0
   42.1510   25.0880   43.1270 C   0  0  0  0  0  3  0  0  0  0  0  0
   39.8210   24.6550   40.9270 N   0  0  0  0  0  0  0  0  0  0  0  0
   39.9260   24.7220   42.2080 C   0  0  0  0  0  0  0  0  0  0  0  0
   39.0740   23.8970   42.9920 N   0  0  0  0  0  0  0  0  0  0  0  0
   39.1130   23.9930   40.5410 H   0  0  0  0  0  0  0  0  0  0  0  0
   39.4970   23.1980   43.6710 H   0  0  0  0  0  0  0  0  0  0  0  0
   38.1500   23.5550   43.3090 H   0  0  0  0  0  0  0  0  0  0  0  0
   37.4070   29.0680   40.2040 N   0  0  0  0  0  0  0  0  0  0  0  0
   36.6480   28.6510   39.5880 H   0  0  0  0  0  0  0  0  0  0  0  0
   38.3670   32.4700   39.7430 N   0  0  0  0  0  0  0  0  0  0  0  0
   38.2530   31.3310   40.6280 C   0  0  0  0  0  0  0  0  0  0  0  0
   37.9590   30.2680   39.6110 C   0  0  2  0  0  0  0  0  0  0  0  0
   36.8340   30.9310   38.8370 C   0  0  0  0  0  0  0  0  0  0  0  0
   37.2640   32.3760   38.7980 C   0  0  0  0  0  0  0  0  0  0  0  0
   39.1740   31.1650   41.2130 H   0  0  0  0  0  0  0  0  0  0  0  0
   37.3570   31.4990   41.2620 H   0  0  0  0  0  0  0  0  0  0  0  0
   38.8320   30.0950   38.9800 H   0  0  0  0  0  0  0  0  0  0  0  0
   35.8850   30.8630   39.4010 H   0  0  0  0  0  0  0  0  0  0  0  0
   36.6800   30.4910   37.8350 H   0  0  0  0  0  0  0  0  0  0  0  0
   37.6790   32.5890   37.7950 H   0  0  0  0  0  0  0  0  0  0  0  0
   36.4250   33.0460   39.0710 H   0  0  0  0  0  0  0  0  0  0  0  0
   40.1970   35.6610   40.3050 C   0  0  0  0  0  0  0  0  0  0  0  0
   39.1910   34.7010   40.4160 C   0  0  0  0  0  0  0  0  0  0  0  0
   39.3050   33.5060   39.7130 C   0  0  0  0  0  0  0  0  0  0  0  0
   40.4230   33.3540   38.9430 N   0  0  0  0  0  0  0  0  0  0  0  0
   41.3950   34.2720   38.8300 C   0  0  0  0  0  0  0  0  0  0  0  0
   41.2780   35.4370   39.5190 N   0  0  0  0  0  0  0  0  0  0  0  0
   40.0520   36.5690   40.8760 H   0  0  0  0  0  0  0  0  0  0  0  0
   38.2980   34.7880   41.0140 H   0  0  0  0  0  0  0  0  0  0  0  0
   42.2190   34.0310   38.1930 H   0  0  0  0  0  0  0  0  0  0  0  0
   40.9260   28.3980   40.0500 N   0  0  0  0  0  0  0  0  0  0  0  0
   40.0720   28.2200   40.8130 C   0  0  0  0  0  0  0  0  0  0  0  0
  1  6  1  0  0  0  0
  2  1  2  0  0  0  0
  2  3  1  0  0  0  0
  3  4  2  0  0  0  0
  4  5  1  0  0  0  0
  4  8  1  0  0  0  0
  5  9  1  0  0  0  0
  6 11  1  0  0  0  0
  6  5  2  0  0  0  0
  7  3  1  0  0  0  0
 10 17  2  0  0  0  0
 10 11  1  0  0  0  0
 11 12  2  0  0  0  0
 12 14  1  0  0  0  0
 12 13  1  0  0  0  0
 14 15  1  0  0  0  0
 16 14  2  0  0  0  0
 17 16  1  0  0  0  0
 18 19  2  0  0  0  0
 19 10  1  0  0  0  0
 19 20  1  0  0  0  0
 20 23  1  0  0  0  0
 20 22  1  0  0  0  0
 21 18  1  0  0  0  0
 24  2  1  0  0  0  0
 25 24  1  0  0  0  0
 26 27  1  0  0  0  0
 27 31  1  0  0  0  0
 27 32  1  0  0  0  0
 28 33  1  6  0  0  0
 28 24  1  0  0  0  0
 28 27  1  0  0  0  0
 29 34  1  0  0  0  0
 29 28  1  0  0  0  0
 30 29  1  0  0  0  0
 30 37  1  0  0  0  0
 30 26  1  0  0  0  0
 35 29  1  0  0  0  0
 36 30  1  0  0  0  0
 38 39  1  0  0  0  0
 38 44  1  0  0  0  0
 39 45  1  0  0  0  0
 40 26  1  0  0  0  0
 40 39  2  0  0  0  0
 41 40  1  0  0  0  0
 42 41  2  0  0  0  0
 42 43  1  0  0  0  0
 43 38  2  0  0  0  0
 46 42  1  0  0  0  0
 47 48  3  0  0  0  0
 48  1  1  0  0  0  0
M  END
>  <minimizedAffinity>
-6.5062561

$$$$

 OpenBabel03242519083D

 48 51  0  0  1  0  0  0  0  0999 V2000
   36.8760   26.8850   40.4680 C   0  0  0  0  0  0  0  0  0  0  0  0
   36.8030   28.1920   40.9760 C   0  0  0  0  0  0  0  0  0  0  0  0
   36.7170   28.2310   42.3400 C   0  0  0  0  0  0  0  0  0  0  0  0
   36.7000   27.1570   43.1830 C   0  0  0  0  0  0  0  0  0  0  0  0
   36.7750   25.8900   42.6360 C   0  0  0  0  0  0  0  0  0  0  0  0
   36.8640   25.7780   41.2600 C   0  0  0  0  0  0  0  0  0  0  0  0
   36.6550   29.1920   42.8420 H   0  0  0  0  0  0  0  0  0  0  0  0
   36.6300   27.2550   44.2670 H   0  0  0  0  0  0  0  0  0  0  0  0
   36.7690   24.9770   43.2130 H   0  0  0  0  0  0  0  0  0  0  0  0
   38.1800   23.8440   40.8730 C   0  0  0  0  0  0  0  0  0  0  0  0
   36.9430   24.4470   40.6640 C   0  0  0  0  0  0  0  0  0  0  0  0
   35.9490   23.8000   39.9650 C   0  0  0  0  0  0  0  0  0  0  0  0
   35.0250   24.3480   39.8560 H   0  0  0  0  0  0  0  0  0  0  0  0
   36.1320   22.5430   39.4460 C   0  0  0  0  0  0  0  0  0  0  0  0
   35.3460   22.0440   38.8990 H   0  0  0  0  0  0  0  0  0  0  0  0
   37.3550   21.9430   39.6490 C   0  0  0  0  0  3  0  0  0  0  0  0
   38.3640   22.5630   40.3430 C   0  0  0  0  0  3  0  0  0  0  0  0
   40.0840   25.3070   41.0690 N   0  0  0  0  0  0  0  0  0  0  0  0
   39.3040   24.4280   41.5940 C   0  0  0  0  0  0  0  0  0  0  0  0
   39.5610   24.0230   42.9330 N   0  0  0  0  0  0  0  0  0  0  0  0
   40.8620   25.6690   41.6620 H   0  0  0  0  0  0  0  0  0  0  0  0
   38.8110   24.1470   43.6740 H   0  0  0  0  0  0  0  0  0  0  0  0
   40.1510   23.6220   43.6830 H   0  0  0  0  0  0  0  0  0  0  0  0
   36.8130   29.3690   40.1870 N   0  0  0  0  0  0  0  0  0  0  0  0
   35.9150   29.6590   39.6990 H   0  0  0  0  0  0  0  0  0  0  0  0
   38.5370   32.3830   39.3780 N   0  0  0  0  0  0  0  0  0  0  0  0
   37.4710   31.7300   40.1080 C   0  0  0  0  0  0  0  0  0  0  0  0
   37.8840   30.3020   39.9050 C   0  0  2  0  0  0  0  0  0  0  0  0
   38.0940   30.2880   38.4020 C   0  0  0  0  0  0  0  0  0  0  0  0
   38.7090   31.6390   38.1400 C   0  0  0  0  0  0  0  0  0  0  0  0
   37.4330   32.0520   41.1630 H   0  0  0  0  0  0  0  0  0  0  0  0
   36.5290   31.9280   39.5570 H   0  0  0  0  0  0  0  0  0  0  0  0
   38.8110   30.0960   40.4420 H   0  0  0  0  0  0  0  0  0  0  0  0
   37.1220   30.2370   37.8770 H   0  0  0  0  0  0  0  0  0  0  0  0
   38.7220   29.4450   38.0610 H   0  0  0  0  0  0  0  0  0  0  0  0
   39.7980   31.5040   37.9930 H   0  0  0  0  0  0  0  0  0  0  0  0
   38.2160   32.1390   37.2820 H   0  0  0  0  0  0  0  0  0  0  0  0
   39.7160   35.6610   40.6860 C   0  0  0  0  0  0  0  0  0  0  0  0
   38.8480   34.6020   40.4220 C   0  0  0  0  0  0  0  0  0  0  0  0
   39.3080   33.5020   39.7050 C   0  0  0  0  0  0  0  0  0  0  0  0
   40.6110   33.5390   39.2990 N   0  0  0  0  0  0  0  0  0  0  0  0
   41.4540   34.5530   39.5490 C   0  0  0  0  0  0  0  0  0  0  0  0
   40.9990   35.6250   40.2500 N   0  0  0  0  0  0  0  0  0  0  0  0
   39.3000   36.4870   41.2480 H   0  0  0  0  0  0  0  0  0  0  0  0
   37.8150   34.5400   40.7270 H   0  0  0  0  0  0  0  0  0  0  0  0
   42.4510   34.4600   39.1750 H   0  0  0  0  0  0  0  0  0  0  0  0
   37.0230   26.6610   37.8610 N   0  0  0  0  0  0  0  0  0  0  0  0
   36.9690   26.7630   39.0130 C   0  0  0  0  0  0  0  0  0  0  0  0
  1  2  2  0  0  0  0
  1  6  1  0  0  0  0
  2  3  1  0  0  0  0
  3  7  1  0  0  0  0
  3  4  2  0  0  0  0
  4  8  1  0  0  0  0
  5  4  1  0  0  0  0
  5  9  1  0  0  0  0
  6  5  2  0  0  0  0
 10 19  1  0  0  0  0
 11 10  1  0  0  0  0
 11  6  1  0  0  0  0
 12 11  2  0  0  0  0
 13 12  1  0  0  0  0
 14 16  2  0  0  0  0
 14 12  1  0  0  0  0
 15 14  1  0  0  0  0
 16 17  1  0  0  0  0
 17 10  2  0  0  0  0
 18 19  2  0  0  0  0
 18 21  1  0  0  0  0
 19 20  1  0  0  0  0
 20 22  1  0  0  0  0
 20 23  1  0  0  0  0
 24  2  1  0  0  0  0
 25 24  1  0  0  0  0
 26 40  1  0  0  0  0
 26 27  1  0  0  0  0
 27 31  1  0  0  0  0
 28 27  1  0  0  0  0
 28 24  1  0  0  0  0
 28 33  1  1  0  0  0
 29 28  1  0  0  0  0
 30 29  1  0  0  0  0
 30 26  1  0  0  0  0
 32 27  1  0  0  0  0
 34 29  1  0  0  0  0
 35 29  1  0  0  0  0
 36 30  1  0  0  0  0
 37 30  1  0  0  0  0
 38 44  1  0  0  0  0
 39 38  1  0  0  0  0
 39 45  1  0  0  0  0
 40 39  2  0  0  0  0
 41 42  2  0  0  0  0
 41 40  1  0  0  0  0
 42 43  1  0  0  0  0
 43 38  2  0  0  0  0
 46 42  1  0  0  0  0
 47 48  3  0  0  0  0
 48  1  1  0  0  0  0
M  END
>  <minimizedAffinity>
-6.46841192

$$$$

 OpenBabel03242519083D

 48 51  0  0  1  0  0  0  0  0999 V2000
   38.5470   31.2070   40.6460 C   0  0  0  0  0  0  0  0  0  0  0  0
   37.7980   30.0210   40.5850 C   0  0  0  0  0  0  0  0  0  0  0  0
   36.8920   30.0140   39.5600 C   0  0  0  0  0  0  0  0  0  0  0  0
   36.6830   31.0150   38.6560 C   0  0  0  0  0  0  0  0  0  0  0  0
   37.4450   32.1630   38.7560 C   0  0  0  0  0  0  0  0  0  0  0  0
   38.3820   32.2370   39.7710 C   0  0  0  0  0  0  0  0  0  0  0  0
   36.2570   29.1450   39.4180 H   0  0  0  0  0  0  0  0  0  0  0  0
   35.9410   30.9480   37.8580 H   0  0  0  0  0  0  0  0  0  0  0  0
   37.3590   33.0110   38.0920 H   0  0  0  0  0  0  0  0  0  0  0  0
   40.3290   33.4050   39.0850 C   0  0  0  0  0  0  0  0  0  0  0  0
   39.1960   33.4430   39.8930 C   0  0  0  0  0  0  0  0  0  0  0  0
   38.9350   34.5330   40.6930 C   0  0  0  0  0  0  0  0  0  0  0  0
   38.0320   34.4710   41.2830 H   0  0  0  0  0  0  0  0  0  0  0  0
   39.7720   35.6190   40.7300 C   0  0  0  0  0  0  0  0  0  0  0  0
   39.5580   36.4690   41.3610 H   0  0  0  0  0  0  0  0  0  0  0  0
   40.8940   35.5840   39.9330 C   0  0  0  0  0  3  0  0  0  0  0  0
   41.1800   34.5130   39.1250 C   0  0  0  0  0  3  0  0  0  0  0  0
   41.4260   31.3160   38.5940 N   0  0  0  0  0  0  0  0  0  0  0  0
   40.7090   32.3100   38.2000 C   0  0  0  0  0  0  0  0  0  0  0  0
   40.2780   32.3260   36.8450 N   0  0  0  0  0  0  0  0  0  0  0  0
   41.6470   30.5790   37.8900 H   0  0  0  0  0  0  0  0  0  0  0  0
   39.2400   32.3610   36.6230 H   0  0  0  0  0  0  0  0  0  0  0  0
   40.4350   32.3220   35.8220 H   0  0  0  0  0  0  0  0  0  0  0  0
   37.9390   28.9280   41.4750 N   0  0  0  0  0  0  0  0  0  0  0  0
   37.8390   29.1080   42.5170 H   0  0  0  0  0  0  0  0  0  0  0  0
   37.5720   25.3840   41.3450 N   0  0  0  0  0  0  0  0  0  0  0  0
   36.9680   26.6920   41.2060 C   0  0  0  0  0  0  0  0  0  0  0  0
   38.2110   27.5310   41.2110 C   0  0  2  0  0  0  0  0  0  0  0  0
   38.9090   26.9800   42.4420 C   0  0  0  0  0  0  0  0  0  0  0  0
   38.5990   25.5070   42.3690 C   0  0  0  0  0  0  0  0  0  0  0  0
   36.3610   26.7740   40.2880 H   0  0  0  0  0  0  0  0  0  0  0  0
   36.3860   26.8830   42.1320 H   0  0  0  0  0  0  0  0  0  0  0  0
   38.7930   27.3510   40.3060 H   0  0  0  0  0  0  0  0  0  0  0  0
   38.4510   27.3910   43.3610 H   0  0  0  0  0  0  0  0  0  0  0  0
   39.9920   27.2010   42.4600 H   0  0  0  0  0  0  0  0  0  0  0  0
   39.4960   24.9800   41.9910 H   0  0  0  0  0  0  0  0  0  0  0  0
   38.2540   25.1260   43.3510 H   0  0  0  0  0  0  0  0  0  0  0  0
   36.0030   22.6930   39.3100 C   0  0  0  0  0  0  0  0  0  0  0  0
   36.1600   23.9340   39.9260 C   0  0  0  0  0  0  0  0  0  0  0  0
   37.3010   24.1840   40.6820 C   0  0  0  0  0  0  0  0  0  0  0  0
   38.2110   23.1690   40.7690 N   0  0  0  0  0  0  0  0  0  0  0  0
   38.0680   21.9720   40.1800 C   0  0  0  0  0  0  0  0  0  0  0  0
   36.9510   21.7330   39.4430 N   0  0  0  0  0  0  0  0  0  0  0  0
   35.0950   22.5590   38.7360 H   0  0  0  0  0  0  0  0  0  0  0  0
   35.4630   24.7560   39.8780 H   0  0  0  0  0  0  0  0  0  0  0  0
   38.8540   21.2620   40.3270 H   0  0  0  0  0  0  0  0  0  0  0  0
   40.3180   31.3360   42.5740 N   0  0  0  0  0  0  0  0  0  0  0  0
   39.5380   31.2900   41.7180 C   0  0  0  0  0  0  0  0  0  0  0  0
  1 48  1  0  0  0  0
  2  1  1  0  0  0  0
  2 24  1  0  0  0  0
  3  2  2  0  0  0  0
  4  5  2  0  0  0  0
  4  3  1  0  0  0  0
  5  6  1  0  0  0  0
  6 11  1  0  0  0  0
  6  1  2  0  0  0  0
  7  3  1  0  0  0  0
  8  4  1  0  0  0  0
  9  5  1  0  0  0  0
 10 17  2  0  0  0  0
 10 11  1  0  0  0  0
 11 12  2  0  0  0  0
 12 14  1  0  0  0  0
 12 13  1  0  0  0  0
 14 15  1  0  0  0  0
 16 14  2  0  0  0  0
 17 16  1  0  0  0  0
 19 18  2  0  0  0  0
 19 10  1  0  0  0  0
 20 19  1  0  0  0  0
 21 18  1  0  0  0  0
 22 20  1  0  0  0  0
 23 20  1  0  0  0  0
 24 25  1  0  0  0  0
 26 30  1  0  0  0  0
 27 28  1  0  0  0  0
 27 26  1  0  0  0  0
 27 32  1  0  0  0  0
 28 33  1  6  0  0  0
 28 24  1  0  0  0  0
 28 29  1  0  0  0  0
 29 35  1  0  0  0  0
 29 34  1  0  0  0  0
 30 29  1  0  0  0  0
 30 37  1  0  0  0  0
 31 27  1  0  0  0  0
 36 30  1  0  0  0  0
 38 43  2  0  0  0  0
 38 39  1  0  0  0  0
 39 40  2  0  0  0  0
 40 41  1  0  0  0  0
 40 26  1  0  0  0  0
 42 46  1  0  0  0  0
 42 41  2  0  0  0  0
 43 42  1  0  0  0  0
 44 38  1  0  0  0  0
 45 39  1  0  0  0  0
 48 47  3  0  0  0  0
M  END
>  <minimizedAffinity>
-6.44123793

$$$$

 OpenBabel03242519083D

 48 51  0  0  1  0  0  0  0  0999 V2000
   40.3490   32.6060   39.8830 C   0  0  0  0  0  0  0  0  0  0  0  0
   38.9500   32.6620   39.7710 C   0  0  0  0  0  0  0  0  0  0  0  0
   38.4400   33.8960   40.0620 C   0  0  0  0  0  0  0  0  0  0  0  0
   39.1510   35.0020   40.4290 C   0  0  0  0  0  0  0  0  0  0  0  0
   40.5260   34.8990   40.5260 C   0  0  0  0  0  0  0  0  0  0  0  0
   41.1090   33.6760   40.2450 C   0  0  0  0  0  0  0  0  0  0  0  0
   37.3670   34.0550   40.0080 H   0  0  0  0  0  0  0  0  0  0  0  0
   38.6830   35.9630   40.6490 H   0  0  0  0  0  0  0  0  0  0  0  0
   41.1790   35.7120   40.8080 H   0  0  0  0  0  0  0  0  0  0  0  0
   43.2090   33.9310   39.1720 C   0  0  0  0  0  0  0  0  0  0  0  0
   42.5600   33.5480   40.3420 C   0  0  0  0  0  0  0  0  0  0  0  0
   43.2740   33.1070   41.4340 C   0  0  0  0  0  0  0  0  0  0  0  0
   42.6830   32.8340   42.2960 H   0  0  0  0  0  0  0  0  0  0  0  0
   44.6440   33.0270   41.4180 C   0  0  0  0  0  0  0  0  0  0  0  0
   45.1940   32.6800   42.2800 H   0  0  0  0  0  0  0  0  0  0  0  0
   45.2880   33.4030   40.2610 C   0  0  0  0  0  3  0  0  0  0  0  0
   44.6040   33.8470   39.1570 C   0  0  0  0  0  3  0  0  0  0  0  0
   42.3320   35.6590   37.7400 N   0  0  0  0  0  0  0  0  0  0  0  0
   42.5620   34.4110   37.9570 C   0  0  0  0  0  0  0  0  0  0  0  0
   42.1650   33.4770   36.9610 N   0  0  0  0  0  0  0  0  0  0  0  0
   41.8650   35.9090   36.8410 H   0  0  0  0  0  0  0  0  0  0  0  0
   42.8890   32.8390   36.5180 H   0  0  0  0  0  0  0  0  0  0  0  0
   41.4700   33.0140   36.3490 H   0  0  0  0  0  0  0  0  0  0  0  0
   38.1250   31.5730   39.3970 N   0  0  0  0  0  0  0  0  0  0  0  0
   37.7710   31.5260   38.3960 H   0  0  0  0  0  0  0  0  0  0  0  0
   36.6860   28.4200   40.2360 N   0  0  0  0  0  0  0  0  0  0  0  0
   37.5430   29.1900   39.3600 C   0  0  0  0  0  0  0  0  0  0  0  0
   37.6460   30.4470   40.1720 C   0  0  2  0  0  0  0  0  0  0  0  0
   36.1780   30.7080   40.4620 C   0  0  0  0  0  0  0  0  0  0  0  0
   35.6320   29.3200   40.6820 C   0  0  0  0  0  0  0  0  0  0  0  0
   38.5060   28.6850   39.1720 H   0  0  0  0  0  0  0  0  0  0  0  0
   36.9670   29.3910   38.4330 H   0  0  0  0  0  0  0  0  0  0  0  0
   38.2090   30.2620   41.0880 H   0  0  0  0  0  0  0  0  0  0  0  0
   35.6820   31.1450   39.5760 H   0  0  0  0  0  0  0  0  0  0  0  0
   36.0210   31.3840   41.3230 H   0  0  0  0  0  0  0  0  0  0  0  0
   35.5120   29.1610   41.7700 H   0  0  0  0  0  0  0  0  0  0  0  0
   34.6910   29.1710   40.1160 H   0  0  0  0  0  0  0  0  0  0  0  0
   37.1460   25.2910   42.1950 C   0  0  0  0  0  0  0  0  0  0  0  0
   37.1030   26.6570   41.9160 C   0  0  0  0  0  0  0  0  0  0  0  0
   36.7630   27.0840   40.6370 C   0  0  0  0  0  0  0  0  0  0  0  0
   36.4890   26.1100   39.7200 N   0  0  0  0  0  0  0  0  0  0  0  0
   36.5270   24.7930   39.9800 C   0  0  0  0  0  0  0  0  0  0  0  0
   36.8600   24.3820   41.2310 N   0  0  0  0  0  0  0  0  0  0  0  0
   37.4170   25.0220   43.2080 H   0  0  0  0  0  0  0  0  0  0  0  0
   37.3130   27.4510   42.6150 H   0  0  0  0  0  0  0  0  0  0  0  0
   36.2910   24.1330   39.1730 H   0  0  0  0  0  0  0  0  0  0  0  0
   41.4440   30.2820   39.3620 N   0  0  0  0  0  0  0  0  0  0  0  0
   40.9690   31.3150   39.5870 C   0  0  0  0  0  0  0  0  0  0  0  0
  1  6  1  0  0  0  0
  2  1  2  0  0  0  0
  2  3  1  0  0  0  0
  3  4  2  0  0  0  0
  4  5  1  0  0  0  0
  4  8  1  0  0  0  0
  5  9  1  0  0  0  0
  6 11  1  0  0  0  0
  6  5  2  0  0  0  0
  7  3  1  0  0  0  0
 10 11  1  0  0  0  0
 11 12  2  0  0  0  0
 12 13  1  0  0  0  0
 14 12  1  0  0  0  0
 14 15  1  0  0  0  0
 16 14  2  0  0  0  0
 17 10  2  0  0  0  0
 17 16  1  0  0  0  0
 18 19  2  0  0  0  0
 19 10  1  0  0  0  0
 20 19  1  0  0  0  0
 21 18  1  0  0  0  0
 22 20  1  0  0  0  0
 23 20  1  0  0  0  0
 24  2  1  0  0  0  0
 24 28  1  0  0  0  0
 25 24  1  0  0  0  0
 26 40  1  0  0  0  0
 26 30  1  0  0  0  0
 27 28  1  0  0  0  0
 27 26  1  0  0  0  0
 28 29  1  0  0  0  0
 28 33  1  1  0  0  0
 29 30  1  0  0  0  0
 29 35  1  0  0  0  0
 30 36  1  0  0  0  0
 31 27  1  0  0  0  0
 32 27  1  0  0  0  0
 34 29  1  0  0  0  0
 37 30  1  0  0  0  0
 38 44  1  0  0  0  0
 39 38  1  0  0  0  0
 39 45  1  0  0  0  0
 40 39  2  0  0  0  0
 41 42  2  0  0  0  0
 41 40  1  0  0  0  0
 42 43  1  0  0  0  0
 43 38  2  0  0  0  0
 46 42  1  0  0  0  0
 47 48  3  0  0  0  0
 48  1  1  0  0  0  0
M  END
>  <minimizedAffinity>
-6.39200354

$$$$

 OpenBabel03242519083D

 48 51  0  0  1  0  0  0  0  0999 V2000
   40.6130   33.1930   40.2170 C   0  0  0  0  0  0  0  0  0  0  0  0
   39.2670   33.2760   40.6110 C   0  0  0  0  0  0  0  0  0  0  0  0
   38.7660   34.5460   40.5350 C   0  0  0  0  0  0  0  0  0  0  0  0
   39.4410   35.6610   40.1290 C   0  0  0  0  0  0  0  0  0  0  0  0
   40.7630   35.5300   39.7500 C   0  0  0  0  0  0  0  0  0  0  0  0
   41.3330   34.2700   39.8030 C   0  0  0  0  0  0  0  0  0  0  0  0
   37.7340   34.7280   40.8170 H   0  0  0  0  0  0  0  0  0  0  0  0
   38.9820   36.6500   40.0910 H   0  0  0  0  0  0  0  0  0  0  0  0
   41.3840   36.3470   39.4130 H   0  0  0  0  0  0  0  0  0  0  0  0
   43.6050   34.2190   40.4830 C   0  0  0  0  0  0  0  0  0  0  0  0
   42.7310   34.1130   39.4060 C   0  0  0  0  0  0  0  0  0  0  0  0
   43.2010   33.8830   38.1330 C   0  0  0  0  0  0  0  0  0  0  0  0
   42.4460   33.8150   37.3630 H   0  0  0  0  0  0  0  0  0  0  0  0
   44.5420   33.7500   37.8710 C   0  0  0  0  0  0  0  0  0  0  0  0
   44.9000   33.5700   36.8680 H   0  0  0  0  0  0  0  0  0  0  0  0
   45.4100   33.8560   38.9340 C   0  0  0  0  0  3  0  0  0  0  0  0
   44.9700   34.0840   40.2140 C   0  0  0  0  0  3  0  0  0  0  0  0
   42.9120   35.6290   42.3100 N   0  0  0  0  0  0  0  0  0  0  0  0
   43.2250   34.4600   41.8700 C   0  0  0  0  0  0  0  0  0  0  0  0
   43.1940   33.3720   42.7850 N   0  0  0  0  0  0  0  0  0  0  0  0
   42.6530   35.7050   43.3180 H   0  0  0  0  0  0  0  0  0  0  0  0
   42.5690   32.5370   42.5890 H   0  0  0  0  0  0  0  0  0  0  0  0
   43.4810   32.8790   43.6490 H   0  0  0  0  0  0  0  0  0  0  0  0
   38.4830   32.1800   41.0480 N   0  0  0  0  0  0  0  0  0  0  0  0
   38.3000   32.0720   42.0890 H   0  0  0  0  0  0  0  0  0  0  0  0
   36.3890   30.4850   38.7120 N   0  0  0  0  0  0  0  0  0  0  0  0
   37.2650   31.6010   38.9990 C   0  0  0  0  0  0  0  0  0  0  0  0
   37.8490   31.1190   40.2940 C   0  0  2  0  0  0  0  0  0  0  0  0
   36.5820   30.7450   41.0440 C   0  0  0  0  0  0  0  0  0  0  0  0
   35.7180   30.1530   39.9600 C   0  0  0  0  0  0  0  0  0  0  0  0
   38.0040   31.7660   38.1950 H   0  0  0  0  0  0  0  0  0  0  0  0
   36.6200   32.4840   39.1860 H   0  0  0  0  0  0  0  0  0  0  0  0
   38.4850   30.2490   40.1230 H   0  0  0  0  0  0  0  0  0  0  0  0
   36.0840   31.6520   41.4350 H   0  0  0  0  0  0  0  0  0  0  0  0
   36.7670   30.0540   41.8870 H   0  0  0  0  0  0  0  0  0  0  0  0
   35.7430   29.0510   40.0570 H   0  0  0  0  0  0  0  0  0  0  0  0
   34.6900   30.5670   40.0030 H   0  0  0  0  0  0  0  0  0  0  0  0
   36.7210   28.9760   35.3280 C   0  0  0  0  0  0  0  0  0  0  0  0
   37.0670   29.6960   36.4710 C   0  0  0  0  0  0  0  0  0  0  0  0
   36.1590   29.7950   37.5190 C   0  0  0  0  0  0  0  0  0  0  0  0
   34.9590   29.1640   37.3510 N   0  0  0  0  0  0  0  0  0  0  0  0
   34.6170   28.4690   36.2540 C   0  0  0  0  0  0  0  0  0  0  0  0
   35.5090   28.3760   35.2330 N   0  0  0  0  0  0  0  0  0  0  0  0
   37.4690   28.9350   34.5470 H   0  0  0  0  0  0  0  0  0  0  0  0
   38.0040   30.2040   36.6370 H   0  0  0  0  0  0  0  0  0  0  0  0
   33.6460   28.0230   36.2460 H   0  0  0  0  0  0  0  0  0  0  0  0
   41.6820   30.8020   40.3170 N   0  0  0  0  0  0  0  0  0  0  0  0
   41.2200   31.8630   40.2720 C   0  0  0  0  0  0  0  0  0  0  0  0
  1 48  1  0  0  0  0
  1  2  1  0  0  0  0
  2 24  1  0  0  0  0
  3  2  2  0  0  0  0
  3  7  1  0  0  0  0
  4  3  1  0  0  0  0
  5  6  1  0  0  0  0
  5  4  2  0  0  0  0
  6  1  2  0  0  0  0
  8  4  1  0  0  0  0
  9  5  1  0  0  0  0
 10 19  1  0  0  0  0
 11  6  1  0  0  0  0
 11 10  2  0  0  0  0
 12 11  1  0  0  0  0
 13 12  1  0  0  0  0
 14 12  2  0  0  0  0
 14 16  1  0  0  0  0
 15 14  1  0  0  0  0
 16 17  2  0  0  0  0
 17 10  1  0  0  0  0
 18 21  1  0  0  0  0
 19 18  2  0  0  0  0
 19 20  1  0  0  0  0
 20 23  1  0  0  0  0
 22 20  1  0  0  0  0
 24 25  1  0  0  0  0
 26 27  1  0  0  0  0
 26 30  1  0  0  0  0
 27 32  1  0  0  0  0
 27 28  1  0  0  0  0
 28 33  1  6  0  0  0
 28 29  1  0  0  0  0
 28 24  1  0  0  0  0
 29 34  1  0  0  0  0
 29 35  1  0  0  0  0
 30 37  1  0  0  0  0
 30 36  1  0  0  0  0
 30 29  1  0  0  0  0
 31 27  1  0  0  0  0
 38 39  1  0  0  0  0
 39 45  1  0  0  0  0
 39 40  2  0  0  0  0
 40 26  1  0  0  0  0
 41 40  1  0  0  0  0
 42 41  2  0  0  0  0
 43 38  2  0  0  0  0
 43 42  1  0  0  0  0
 44 38  1  0  0  0  0
 46 42  1  0  0  0  0
 48 47  3  0  0  0  0
M  END
>  <minimizedAffinity>
-6.34674311

$$$$

 OpenBabel03242519083D

 48 51  0  0  1  0  0  0  0  0999 V2000
   38.4150   31.1850   40.5770 C   0  0  0  0  0  0  0  0  0  0  0  0
   37.6830   29.9900   40.4810 C   0  0  0  0  0  0  0  0  0  0  0  0
   36.8620   29.9530   39.3880 C   0  0  0  0  0  0  0  0  0  0  0  0
   36.7170   30.9330   38.4490 C   0  0  0  0  0  0  0  0  0  0  0  0
   37.4590   32.0910   38.5850 C   0  0  0  0  0  0  0  0  0  0  0  0
   38.3110   32.1950   39.6710 C   0  0  0  0  0  0  0  0  0  0  0  0
   36.2480   29.0750   39.2140 H   0  0  0  0  0  0  0  0  0  0  0  0
   36.0430   30.8420   37.5960 H   0  0  0  0  0  0  0  0  0  0  0  0
   37.4190   32.9240   37.8990 H   0  0  0  0  0  0  0  0  0  0  0  0
   40.2810   33.3820   39.0910 C   0  0  0  0  0  0  0  0  0  0  0  0
   39.1030   33.4120   39.8310 C   0  0  0  0  0  0  0  0  0  0  0  0
   38.7820   34.5030   40.6070 C   0  0  0  0  0  0  0  0  0  0  0  0
   37.8470   34.4340   41.1430 H   0  0  0  0  0  0  0  0  0  0  0  0
   39.6030   35.6000   40.6850 C   0  0  0  0  0  0  0  0  0  0  0  0
   39.3420   36.4510   41.2970 H   0  0  0  0  0  0  0  0  0  0  0  0
   40.7700   35.5740   39.9560 C   0  0  0  0  0  3  0  0  0  0  0  0
   41.1150   34.5010   39.1730 C   0  0  0  0  0  3  0  0  0  0  0  0
   41.4060   31.2910   38.6850 N   0  0  0  0  0  0  0  0  0  0  0  0
   40.7250   32.2870   38.2380 C   0  0  0  0  0  0  0  0  0  0  0  0
   40.4000   32.3050   36.8530 N   0  0  0  0  0  0  0  0  0  0  0  0
   41.6790   30.5540   38.0000 H   0  0  0  0  0  0  0  0  0  0  0  0
   39.3830   32.3430   36.5510 H   0  0  0  0  0  0  0  0  0  0  0  0
   40.6370   32.3010   35.8450 H   0  0  0  0  0  0  0  0  0  0  0  0
   37.7630   28.9170   41.4020 N   0  0  0  0  0  0  0  0  0  0  0  0
   36.9310   28.2610   41.4880 H   0  0  0  0  0  0  0  0  0  0  0  0
   40.4230   27.0560   42.8750 N   0  0  0  0  0  0  0  0  0  0  0  0
   39.7810   27.5500   41.6760 C   0  0  0  0  0  0  0  0  0  0  0  0
   38.8290   28.5260   42.3010 C   0  0  2  0  0  0  0  0  0  0  0  0
   38.2010   27.6510   43.3710 C   0  0  0  0  0  0  0  0  0  0  0  0
   39.3660   26.8210   43.8470 C   0  0  0  0  0  0  0  0  0  0  0  0
   40.5020   27.9990   40.9720 H   0  0  0  0  0  0  0  0  0  0  0  0
   39.2120   26.7030   41.2370 H   0  0  0  0  0  0  0  0  0  0  0  0
   39.3760   29.3630   42.7370 H   0  0  0  0  0  0  0  0  0  0  0  0
   37.4470   26.9760   42.9240 H   0  0  0  0  0  0  0  0  0  0  0  0
   37.7180   28.2340   44.1770 H   0  0  0  0  0  0  0  0  0  0  0  0
   39.7180   27.2340   44.8110 H   0  0  0  0  0  0  0  0  0  0  0  0
   39.0890   25.7500   43.9090 H   0  0  0  0  0  0  0  0  0  0  0  0
   43.7420   25.4580   43.3990 C   0  0  0  0  0  0  0  0  0  0  0  0
   42.3830   25.5690   43.1050 C   0  0  0  0  0  0  0  0  0  0  0  0
   41.7730   26.8170   43.1480 C   0  0  0  0  0  0  0  0  0  0  0  0
   42.5680   27.8750   43.4860 N   0  0  0  0  0  0  0  0  0  0  0  0
   43.8760   27.7780   43.7710 C   0  0  0  0  0  0  0  0  0  0  0  0
   44.4670   26.5560   43.7270 N   0  0  0  0  0  0  0  0  0  0  0  0
   44.1600   24.4610   43.3480 H   0  0  0  0  0  0  0  0  0  0  0  0
   41.7280   24.7560   42.8350 H   0  0  0  0  0  0  0  0  0  0  0  0
   44.3860   28.6840   44.0210 H   0  0  0  0  0  0  0  0  0  0  0  0
   40.0290   31.4110   42.6300 N   0  0  0  0  0  0  0  0  0  0  0  0
   39.3160   31.3000   41.7230 C   0  0  0  0  0  0  0  0  0  0  0  0
  1 48  1  0  0  0  0
  2  1  1  0  0  0  0
  2 24  1  0  0  0  0
  3  2  2  0  0  0  0
  4  5  2  0  0  0  0
  4  3  1  0  0  0  0
  5  6  1  0  0  0  0
  6 11  1  0  0  0  0
  6  1  2  0  0  0  0
  7  3  1  0  0  0  0
  8  4  1  0  0  0  0
  9  5  1  0  0  0  0
 10 17  2  0  0  0  0
 10 11  1  0  0  0  0
 11 12  2  0  0  0  0
 12 14  1  0  0  0  0
 12 13  1  0  0  0  0
 14 15  1  0  0  0  0
 16 14  2  0  0  0  0
 17 16  1  0  0  0  0
 19 18  2  0  0  0  0
 19 10  1  0  0  0  0
 20 19  1  0  0  0  0
 21 18  1  0  0  0  0
 22 20  1  0  0  0  0
 23 20  1  0  0  0  0
 24 25  1  0  0  0  0
 24 28  1  0  0  0  0
 26 40  1  0  0  0  0
 26 30  1  0  0  0  0
 27 28  1  0  0  0  0
 27 26  1  0  0  0  0
 28 33  1  1  0  0  0
 28 29  1  0  0  0  0
 29 30  1  0  0  0  0
 29 35  1  0  0  0  0
 30 37  1  0  0  0  0
 30 36  1  0  0  0  0
 31 27  1  0  0  0  0
 32 27  1  0  0  0  0
 34 29  1  0  0  0  0
 38 43  1  0  0  0  0
 39 40  1  0  0  0  0
 39 38  2  0  0  0  0
 40 41  2  0  0  0  0
 41 42  1  0  0  0  0
 42 46  1  0  0  0  0
 43 42  2  0  0  0  0
 44 38  1  0  0  0  0
 45 39  1  0  0  0  0
 48 47  3  0  0  0  0
M  END
>  <minimizedAffinity>
-6.33905077

$$$$

 OpenBabel03242519083D

 48 51  0  0  1  0  0  0  0  0999 V2000
   40.7760   33.3000   40.6080 C   0  0  0  0  0  0  0  0  0  0  0  0
   39.3750   33.3930   40.6290 C   0  0  0  0  0  0  0  0  0  0  0  0
   38.9130   34.6060   40.2000 C   0  0  0  0  0  0  0  0  0  0  0  0
   39.6730   35.6610   39.7820 C   0  0  0  0  0  0  0  0  0  0  0  0
   41.0470   35.5230   39.7790 C   0  0  0  0  0  0  0  0  0  0  0  0
   41.5820   34.3190   40.2010 C   0  0  0  0  0  0  0  0  0  0  0  0
   37.8430   34.7890   40.1740 H   0  0  0  0  0  0  0  0  0  0  0  0
   39.2420   36.6070   39.4500 H   0  0  0  0  0  0  0  0  0  0  0  0
   41.7360   36.2950   39.4670 H   0  0  0  0  0  0  0  0  0  0  0  0
   43.5250   33.7310   38.9740 C   0  0  0  0  0  0  0  0  0  0  0  0
   43.0340   34.1550   40.2050 C   0  0  0  0  0  0  0  0  0  0  0  0
   43.8820   34.3770   41.2670 C   0  0  0  0  0  0  0  0  0  0  0  0
   43.4080   34.7050   42.1800 H   0  0  0  0  0  0  0  0  0  0  0  0
   45.2370   34.1910   41.1600 C   0  0  0  0  0  0  0  0  0  0  0  0
   45.8930   34.3680   41.9990 H   0  0  0  0  0  0  0  0  0  0  0  0
   45.7260   33.7700   39.9440 C   0  0  0  0  0  3  0  0  0  0  0  0
   44.9060   33.5420   38.8680 C   0  0  0  0  0  3  0  0  0  0  0  0
   42.0950   32.3570   37.6060 N   0  0  0  0  0  0  0  0  0  0  0  0
   42.7270   33.4640   37.7830 C   0  0  0  0  0  0  0  0  0  0  0  0
   42.6340   34.4560   36.7690 N   0  0  0  0  0  0  0  0  0  0  0  0
   41.5490   32.2570   36.7220 H   0  0  0  0  0  0  0  0  0  0  0  0
   42.2540   35.4180   37.0060 H   0  0  0  0  0  0  0  0  0  0  0  0
   42.7470   34.8060   35.8010 H   0  0  0  0  0  0  0  0  0  0  0  0
   38.5020   32.3570   41.0440 N   0  0  0  0  0  0  0  0  0  0  0  0
   38.1770   32.3450   42.0560 H   0  0  0  0  0  0  0  0  0  0  0  0
   36.3440   30.4550   38.9380 N   0  0  0  0  0  0  0  0  0  0  0  0
   37.0420   31.6970   39.1860 C   0  0  0  0  0  0  0  0  0  0  0  0
   37.9380   31.2490   40.3020 C   0  0  2  0  0  0  0  0  0  0  0  0
   36.9260   30.5800   41.2160 C   0  0  0  0  0  0  0  0  0  0  0  0
   35.9930   29.9080   40.2400 C   0  0  0  0  0  0  0  0  0  0  0  0
   37.5730   32.0620   38.2900 H   0  0  0  0  0  0  0  0  0  0  0  0
   36.2950   32.4200   39.5750 H   0  0  0  0  0  0  0  0  0  0  0  0
   38.6770   30.5360   39.9320 H   0  0  0  0  0  0  0  0  0  0  0  0
   36.3560   31.3400   41.7810 H   0  0  0  0  0  0  0  0  0  0  0  0
   37.3890   29.8800   41.9350 H   0  0  0  0  0  0  0  0  0  0  0  0
   36.2360   28.8280   40.2130 H   0  0  0  0  0  0  0  0  0  0  0  0
   34.9350   30.1070   40.5040 H   0  0  0  0  0  0  0  0  0  0  0  0
   34.7290   28.3760   36.3090 C   0  0  0  0  0  0  0  0  0  0  0  0
   34.9490   28.9490   37.5610 C   0  0  0  0  0  0  0  0  0  0  0  0
   36.0200   29.8190   37.7360 C   0  0  0  0  0  0  0  0  0  0  0  0
   36.8010   30.0570   36.6410 N   0  0  0  0  0  0  0  0  0  0  0  0
   36.5960   29.5100   35.4320 C   0  0  0  0  0  0  0  0  0  0  0  0
   35.5480   28.6610   35.2670 N   0  0  0  0  0  0  0  0  0  0  0  0
   33.8800   27.7080   36.2350 H   0  0  0  0  0  0  0  0  0  0  0  0
   34.3540   28.7840   38.4450 H   0  0  0  0  0  0  0  0  0  0  0  0
   37.2810   29.7770   34.6560 H   0  0  0  0  0  0  0  0  0  0  0  0
   41.8040   31.0190   41.3890 N   0  0  0  0  0  0  0  0  0  0  0  0
   41.3460   32.0290   41.0550 C   0  0  0  0  0  0  0  0  0  0  0  0
  1  2  1  0  0  0  0
  1 48  1  0  0  0  0
  2 24  1  0  0  0  0
  3  2  2  0  0  0  0
  4  3  1  0  0  0  0
  5  4  2  0  0  0  0
  5  6  1  0  0  0  0
  6 11  1  0  0  0  0
  6  1  2  0  0  0  0
  7  3  1  0  0  0  0
  8  4  1  0  0  0  0
  9  5  1  0  0  0  0
 10 11  1  0  0  0  0
 11 12  2  0  0  0  0
 12 13  1  0  0  0  0
 14 12  1  0  0  0  0
 14 15  1  0  0  0  0
 16 14  2  0  0  0  0
 17 10  2  0  0  0  0
 17 16  1  0  0  0  0
 18 19  2  0  0  0  0
 19 10  1  0  0  0  0
 20 22  1  0  0  0  0
 20 19  1  0  0  0  0
 21 18  1  0  0  0  0
 23 20  1  0  0  0  0
 24 25  1  0  0  0  0
 26 27  1  0  0  0  0
 26 30  1  0  0  0  0
 27 32  1  0  0  0  0
 27 28  1  0  0  0  0
 28 33  1  6  0  0  0
 28 24  1  0  0  0  0
 28 29  1  0  0  0  0
 29 34  1  0  0  0  0
 29 35  1  0  0  0  0
 30 37  1  0  0  0  0
 30 29  1  0  0  0  0
 31 27  1  0  0  0  0
 36 30  1  0  0  0  0
 38 39  1  0  0  0  0
 39 40  2  0  0  0  0
 39 45  1  0  0  0  0
 40 26  1  0  0  0  0
 41 40  1  0  0  0  0
 42 41  2  0  0  0  0
 43 42  1  0  0  0  0
 43 38  2  0  0  0  0
 44 38  1  0  0  0  0
 46 42  1  0  0  0  0
 48 47  3  0  0  0  0
M  END
>  <minimizedAffinity>
-6.28004646

$$$$
