
     RDKit          3D

 26 27  0  0  0  0  0  0  0  0999 V2000
   45.0023   35.4858   44.1850 C   0  0  0  0  0  0  0  0  0  0  0  0
   45.9842   34.9127   43.3617 C   0  0  0  0  0  0  0  0  0  0  0  0
   46.7192   33.8273   43.8368 C   0  0  0  0  0  0  0  0  0  0  0  0
   46.4332   33.3931   45.0766 N   0  0  0  0  0  0  0  0  0  0  0  0
   45.4960   33.9429   45.8579 C   0  0  0  0  0  0  0  0  0  0  0  0
   44.7816   34.9948   45.4009 N   0  0  0  0  0  0  0  0  0  0  0  0
   44.2815   36.5464   43.7250 O   0  0  0  0  0  0  0  0  0  0  0  0
   46.0787   35.3853   42.4066 H   0  0  0  0  0  0  0  0  0  0  0  0
   45.3456   33.5168   46.8382 H   0  0  0  0  0  0  0  0  0  0  0  0
   44.3743   37.4875   44.0635 H   0  0  0  0  0  0  0  0  0  0  0  0
   47.1997   29.7339   43.8074 N   0  0  0  0  0  0  0  0  0  0  0  0
   47.4988   30.9643   44.0529 C   0  0  0  0  0  0  0  0  0  0  0  0
   47.2125   30.9220   45.4298 N   0  0  0  0  0  0  0  0  0  0  0  0
   47.9845   31.9497   43.1325 C   0  0  0  0  0  0  0  0  0  0  0  0
   47.7136   33.2742   42.9594 C   0  0  0  0  0  0  0  0  0  0  0  0
   48.3977   33.9484   41.9730 C   0  0  0  0  0  0  0  0  0  0  0  0
   48.2010   34.9879   41.8202 H   0  0  0  0  0  0  0  0  0  0  0  0
   49.3361   33.3595   41.1549 C   0  0  0  0  0  0  0  0  0  0  0  0
   49.8352   33.9613   40.3961 H   0  0  0  0  0  0  0  0  0  0  0  0
   49.6333   32.0203   41.3033 C   0  0  0  0  0  0  0  0  0  0  0  0
   48.9364   31.3358   42.3081 C   0  0  0  0  0  0  0  0  0  0  0  0
   46.8755   29.1477   44.6026 H   0  0  0  0  0  0  0  0  0  0  0  0
   47.8664   31.1546   46.2021 H   0  0  0  0  0  0  0  0  0  0  0  0
   47.0028   30.8904   46.4185 H   0  0  0  0  0  0  0  0  0  0  0  0
   50.3628   31.6209   40.6459 H   0  0  0  0  0  0  0  0  0  0  0  0
   49.2772   30.2849   42.3064 H   0  0  0  0  0  0  0  0  0  0  0  0
  1  6  2  0
  2  3  2  0
  2  1  1  0
  3  4  1  0
  4  5  2  0
  6  5  1  0
  7  1  1  0
  2  8  1  0
  5  9  1  0
  7 10  1  0
 11 12  2  3
 12 13  1  0
 12 14  1  0
 14 15  2  0
 15 16  1  0
 16 17  1  0
 16 18  2  0
 18 19  1  0
 18 20  1  0
 20 21  2  0
 21 14  1  0
 11 22  1  0
 13 23  1  0
 13 24  1  0
 20 25  1  0
 21 26  1  0
  3 15  1  0
M  ISO  5   8  14   9  14  10   3  17  15  19  16
M  END
>  <DihAtoms>  (1) 
1,2,14,13

>  <DihDeg>  (1) 
178.19790618630904

$$$$
