
 OpenBabel03242514063D

 48 51  0  0  1  0  0  0  0  0999 V2000
   47.3700   32.8590   39.1050 C   0  0  1  0  0  0  0  0  0  0  0  0
   47.0500   33.5240   37.7440 C   0  0  0  0  0  0  0  0  0  0  0  0
   46.4450   32.3760   36.9110 C   0  0  0  0  0  0  0  0  0  0  0  0
   47.6260   31.4620   36.5900 C   0  0  0  0  0  0  0  0  0  0  0  0
   48.2070   30.9060   37.8300 C   0  0  0  0  0  0  0  0  0  0  0  0
   48.3970   31.8260   38.9890 C   0  0  2  0  0  0  0  0  0  0  0  0
   46.3610   32.4110   39.3600 H   0  0  0  0  0  0  0  0  0  0  0  0
   46.3580   34.3540   37.8340 H   0  0  0  0  0  0  0  0  0  0  0  0
   48.0190   33.7890   37.2850 H   0  0  0  0  0  0  0  0  0  0  0  0
   46.0580   32.7910   35.9800 H   0  0  0  0  0  0  0  0  0  0  0  0
   45.7210   31.8860   37.5680 H   0  0  0  0  0  0  0  0  0  0  0  0
   47.3020   30.6370   35.9470 H   0  0  0  0  0  0  0  0  0  0  0  0
   48.3830   32.1000   36.0850 H   0  0  0  0  0  0  0  0  0  0  0  0
   49.1400   30.3560   37.5600 H   0  0  0  0  0  0  0  0  0  0  0  0
   47.5090   30.0800   38.1600 H   0  0  0  0  0  0  0  0  0  0  0  0
   49.4150   32.2650   38.9160 H   0  0  0  0  0  0  0  0  0  0  0  0
   47.1130   34.7740   42.2300 C   0  0  0  0  0  0  0  0  0  0  0  0
   48.1250   35.6910   42.0660 C   0  0  0  0  0  0  0  0  0  0  0  0
   48.9410   35.7610   40.9590 C   0  0  0  0  0  0  0  0  0  0  0  0
   48.6530   34.7950   39.9820 C   0  0  0  0  0  0  0  0  0  0  0  0
   47.6310   33.8570   40.1390 C   0  0  0  0  0  0  0  0  0  0  0  0
   46.8720   33.8550   41.2610 N   0  0  0  0  0  0  0  0  0  0  0  0
   48.2640   36.3950   42.8810 H   0  0  0  0  0  0  0  0  0  0  0  0
   49.7160   36.4890   40.8670 H   0  0  0  0  0  0  0  0  0  0  0  0
   49.3050   34.8930   39.1300 H   0  0  0  0  0  0  0  0  0  0  0  0
   45.6360   33.9300   45.4690 C   0  0  0  0  0  0  0  0  0  0  0  0
   44.6690   34.9010   45.6690 C   0  0  0  0  0  0  0  0  0  0  0  0
   44.5360   35.8540   44.6650 C   0  0  0  0  0  0  0  0  0  0  0  0
   45.3510   35.7790   43.5610 N   0  0  0  0  0  0  0  0  0  0  0  0
   46.2810   34.7960   43.4280 C   0  0  0  0  0  0  0  0  0  0  0  0
   46.4190   33.8910   44.3650 N   0  0  0  0  0  0  0  0  0  0  0  0
   45.7480   33.1720   46.2550 H   0  0  0  0  0  0  0  0  0  0  0  0
   44.0570   34.9100   46.5590 H   0  0  0  0  0  0  0  0  0  0  0  0
   43.8070   36.6420   44.7500 H   0  0  0  0  0  0  0  0  0  0  0  0
   49.5530   30.9260   40.9730 C   0  0  0  0  0  0  0  0  0  0  0  0
   48.3910   30.9010   40.1870 C   0  0  0  0  0  0  0  0  0  0  0  0
   47.4070   30.0400   40.6120 C   0  0  0  0  0  0  0  0  0  0  0  0
   46.5140   30.0190   40.0110 H   0  0  0  0  0  0  0  0  0  0  0  0
   47.5840   29.2700   41.7370 C   0  0  0  0  0  0  0  0  0  0  0  0
   46.7460   28.6350   41.9720 H   0  0  0  0  0  0  0  0  0  0  0  0
   48.7300   29.3080   42.4970 C   0  0  0  0  0  3  0  0  0  0  0  0
   49.7270   30.1550   42.0990 C   0  0  0  0  0  3  0  0  0  0  0  0
   51.4370   31.7680   39.6190 N   0  0  0  0  0  0  0  0  0  0  0  0
   50.7420   31.7690   40.7230 C   0  0  0  0  0  0  0  0  0  0  0  0
   51.5480   32.7460   41.3540 N   0  0  0  0  0  0  0  0  0  0  0  0
   51.2110   31.1670   38.8050 H   0  0  0  0  0  0  0  0  0  0  0  0
   52.4010   32.5010   41.9190 H   0  0  0  0  0  0  0  0  0  0  0  0
   51.4060   33.7890   41.3400 H   0  0  0  0  0  0  0  0  0  0  0  0
  1  7  1  1  0  0  0
  1 21  1  0  0  0  0
  2  8  1  0  0  0  0
  2  1  1  0  0  0  0
  3 11  1  0  0  0  0
  3  2  1  0  0  0  0
  4  3  1  0  0  0  0
  4  5  1  0  0  0  0
  5 15  1  0  0  0  0
  5  6  1  0  0  0  0
  6 16  1  6  0  0  0
  6  1  1  0  0  0  0
  6 36  1  0  0  0  0
  9  2  1  0  0  0  0
 10  3  1  0  0  0  0
 12  4  1  0  0  0  0
 13  4  1  0  0  0  0
 14  5  1  0  0  0  0
 17 30  1  0  0  0  0
 18 17  1  0  0  0  0
 18 23  1  0  0  0  0
 19 18  2  0  0  0  0
 20 21  2  0  0  0  0
 20 19  1  0  0  0  0
 21 22  1  0  0  0  0
 22 17  2  0  0  0  0
 24 19  1  0  0  0  0
 25 20  1  0  0  0  0
 26 27  1  0  0  0  0
 26 32  1  0  0  0  0
 27 33  1  0  0  0  0
 28 34  1  0  0  0  0
 28 27  2  0  0  0  0
 29 28  1  0  0  0  0
 30 29  2  0  0  0  0
 30 31  1  0  0  0  0
 31 26  2  0  0  0  0
 35 42  1  0  0  0  0
 36 37  1  0  0  0  0
 36 35  2  0  0  0  0
 37 39  2  0  0  0  0
 38 37  1  0  0  0  0
 39 40  1  0  0  0  0
 39 41  1  0  0  0  0
 42 41  2  0  0  0  0
 43 44  2  0  0  0  0
 44 35  1  0  0  0  0
 44 45  1  0  0  0  0
 45 47  1  0  0  0  0
 46 43  1  0  0  0  0
 48 45  1  0  0  0  0
M  END
>  <minimizedAffinity>
-5.81524229

>  <minimizedRMSD>
3.30797815

$$$$
