REMARK  Name = 
REMARK  3 active torsions:
REMARK  status: ('A' for Active; 'I' for Inactive)
REMARK    1  A    between atoms: C_1  and  O_7
REMARK    2  A    between atoms: C_3  and  C_15
REMARK    3  A    between atoms: C_12  and  C_14
REMARK                            x       y       z     vdW  Elec       q    Type
REMARK                         _______ _______ _______ _____ _____    ______ ____
ROOT
ATOM      1  C   UNL     1      48.216  32.061  43.325  0.00  0.00    +0.000 A 
ATOM      2  C   UNL     1      47.714  33.274  42.959  0.00  0.00    +0.000 A 
ATOM      3  C   UNL     1      48.189  33.846  41.801  0.00  0.00    +0.000 A 
ATOM      4  H   UNL     1      47.809  34.798  41.496  0.00  0.00    +0.000 HD
ATOM      5  C   UNL     1      49.139  33.261  40.994  0.00  0.00    +0.000 A 
ATOM      6  H   UNL     1      49.464  33.778  40.091  0.00  0.00    +0.000 HD
ATOM      7  C   UNL     1      49.668  32.033  41.334  0.00  0.00    +0.000 A 
ATOM      8  C   UNL     1      49.183  31.452  42.514  0.00  0.00    +0.000 A 
ENDROOT
BRANCH   2  11
ATOM      9  C   UNL     1      45.002  35.486  44.185  0.00  0.00    +0.000 A 
ATOM     10  C   UNL     1      45.984  34.913  43.362  0.00  0.00    +0.000 A 
ATOM     11  C   UNL     1      46.719  33.827  43.837  0.00  0.00    +0.000 A 
ATOM     12  N   UNL     1      46.433  33.393  45.077  0.00  0.00    +0.000 NA
ATOM     13  C   UNL     1      45.496  33.943  45.858  0.00  0.00    +0.000 A 
ATOM     14  N   UNL     1      44.782  34.995  45.401  0.00  0.00    +0.000 NA
ATOM     15  H   UNL     1      46.079  35.385  42.407  0.00  0.00    +0.000 HD
ATOM     16  H   UNL     1      45.346  33.517  46.838  0.00  0.00    +0.000 HD
BRANCH   9  17
ATOM     17  O   UNL     1      44.282  36.546  43.725  0.00  0.00    +0.000 OA
ATOM     18  H   UNL     1      44.374  37.487  44.063  0.00  0.00    +0.000 HD
ENDBRANCH   9  17
ENDBRANCH   2  11
BRANCH   1  20
ATOM     19  N   UNL     1      47.873  29.919  44.454  0.00  0.00    +0.000 NA
ATOM     20  C   UNL     1      47.982  31.204  44.449  0.00  0.00    +0.000 C 
ATOM     21  N   UNL     1      47.825  31.378  45.837  0.00  0.00    +0.000 N 
ATOM     22  H   UNL     1      47.720  29.450  45.369  0.00  0.00    +0.000 HD
ATOM     23  H   UNL     1      48.494  31.846  46.478  0.00  0.00    +0.000 HD
ATOM     24  H   UNL     1      47.709  31.501  46.834  0.00  0.00    +0.000 HD
ENDBRANCH   1  20
TORSDOF 3
