
 OpenBabel03242514063D

 48 51  0  0  1  0  0  0  0  0999 V2000
   46.2700   32.5710   39.0140 C   0  0  1  0  0  0  0  0  0  0  0  0
   45.1130   33.1970   38.1990 C   0  0  0  0  0  0  0  0  0  0  0  0
   44.4470   31.9840   37.5190 C   0  0  0  0  0  0  0  0  0  0  0  0
   45.4400   31.5450   36.4450 C   0  0  0  0  0  0  0  0  0  0  0  0
   46.7140   31.1160   37.0580 C   0  0  0  0  0  0  0  0  0  0  0  0
   47.2790   31.9510   38.1570 C   0  0  2  0  0  0  0  0  0  0  0  0
   45.7040   31.7930   39.6140 H   0  0  0  0  0  0  0  0  0  0  0  0
   44.4070   33.7400   38.8180 H   0  0  0  0  0  0  0  0  0  0  0  0
   45.5790   33.8060   37.4030 H   0  0  0  0  0  0  0  0  0  0  0  0
   43.5300   32.3190   37.0340 H   0  0  0  0  0  0  0  0  0  0  0  0
   44.3390   31.2300   38.3040 H   0  0  0  0  0  0  0  0  0  0  0  0
   45.0260   30.7120   35.8650 H   0  0  0  0  0  0  0  0  0  0  0  0
   45.6210   32.4360   35.8070 H   0  0  0  0  0  0  0  0  0  0  0  0
   47.4490   30.9310   36.2370 H   0  0  0  0  0  0  0  0  0  0  0  0
   46.5300   30.0810   37.4730 H   0  0  0  0  0  0  0  0  0  0  0  0
   47.9530   32.7080   37.7030 H   0  0  0  0  0  0  0  0  0  0  0  0
   46.6830   34.5040   42.1110 C   0  0  0  0  0  0  0  0  0  0  0  0
   47.8060   35.2410   41.8190 C   0  0  0  0  0  0  0  0  0  0  0  0
   48.4930   35.1750   40.6270 C   0  0  0  0  0  0  0  0  0  0  0  0
   47.9440   34.2690   39.7070 C   0  0  0  0  0  0  0  0  0  0  0  0
   46.8050   33.5120   39.9940 C   0  0  0  0  0  0  0  0  0  0  0  0
   46.1860   33.6370   41.1920 N   0  0  0  0  0  0  0  0  0  0  0  0
   48.1500   35.9130   42.6000 H   0  0  0  0  0  0  0  0  0  0  0  0
   49.3620   35.7640   40.4360 H   0  0  0  0  0  0  0  0  0  0  0  0
   48.5030   34.2570   38.7860 H   0  0  0  0  0  0  0  0  0  0  0  0
   45.5530   33.9780   45.5500 C   0  0  0  0  0  0  0  0  0  0  0  0
   44.6870   35.0320   45.7920 C   0  0  0  0  0  0  0  0  0  0  0  0
   44.5000   35.9280   44.7460 C   0  0  0  0  0  0  0  0  0  0  0  0
   45.1680   35.7220   43.5630 N   0  0  0  0  0  0  0  0  0  0  0  0
   46.0040   34.6640   43.3930 C   0  0  0  0  0  0  0  0  0  0  0  0
   46.1920   33.8100   44.3680 N   0  0  0  0  0  0  0  0  0  0  0  0
   45.7060   33.2640   46.3700 H   0  0  0  0  0  0  0  0  0  0  0  0
   44.1890   35.1420   46.7440 H   0  0  0  0  0  0  0  0  0  0  0  0
   43.8420   36.7730   44.8590 H   0  0  0  0  0  0  0  0  0  0  0  0
   49.5190   31.0430   38.6460 C   0  0  0  0  0  0  0  0  0  0  0  0
   48.1470   30.9850   38.9330 C   0  0  0  0  0  0  0  0  0  0  0  0
   47.7790   30.0570   39.8800 C   0  0  0  0  0  0  0  0  0  0  0  0
   46.7270   30.0100   40.1030 H   0  0  0  0  0  0  0  0  0  0  0  0
   48.7200   29.2590   40.4840 C   0  0  0  0  0  0  0  0  0  0  0  0
   48.3140   28.5720   41.2090 H   0  0  0  0  0  0  0  0  0  0  0  0
   50.0620   29.3290   40.1910 C   0  0  0  0  0  3  0  0  0  0  0  0
   50.4590   30.2420   39.2530 C   0  0  0  0  0  3  0  0  0  0  0  0
   51.0540   31.6010   36.7950 N   0  0  0  0  0  0  0  0  0  0  0  0
   50.1560   31.9560   37.6720 C   0  0  0  0  0  0  0  0  0  0  0  0
   50.1500   33.3130   37.2740 N   0  0  0  0  0  0  0  0  0  0  0  0
   51.4050   30.6310   36.7010 H   0  0  0  0  0  0  0  0  0  0  0  0
   50.8020   34.0300   37.6860 H   0  0  0  0  0  0  0  0  0  0  0  0
   49.5270   33.7580   36.5520 H   0  0  0  0  0  0  0  0  0  0  0  0
  1  7  1  1  0  0  0
  1 21  1  0  0  0  0
  2  8  1  0  0  0  0
  2  1  1  0  0  0  0
  3  2  1  0  0  0  0
  3 11  1  0  0  0  0
  4  5  1  0  0  0  0
  4  3  1  0  0  0  0
  5 15  1  0  0  0  0
  5  6  1  0  0  0  0
  6 16  1  6  0  0  0
  6 36  1  0  0  0  0
  6  1  1  0  0  0  0
  9  2  1  0  0  0  0
 10  3  1  0  0  0  0
 12  4  1  0  0  0  0
 13  4  1  0  0  0  0
 14  5  1  0  0  0  0
 17 30  1  0  0  0  0
 18 17  1  0  0  0  0
 18 23  1  0  0  0  0
 19 18  2  0  0  0  0
 20 21  2  0  0  0  0
 20 19  1  0  0  0  0
 21 22  1  0  0  0  0
 22 17  2  0  0  0  0
 24 19  1  0  0  0  0
 25 20  1  0  0  0  0
 26 27  1  0  0  0  0
 26 32  1  0  0  0  0
 27 33  1  0  0  0  0
 28 34  1  0  0  0  0
 28 27  2  0  0  0  0
 29 28  1  0  0  0  0
 30 29  2  0  0  0  0
 30 31  1  0  0  0  0
 31 26  2  0  0  0  0
 35 36  2  0  0  0  0
 35 42  1  0  0  0  0
 36 37  1  0  0  0  0
 37 38  1  0  0  0  0
 37 39  2  0  0  0  0
 39 40  1  0  0  0  0
 41 39  1  0  0  0  0
 42 41  2  0  0  0  0
 43 44  2  0  0  0  0
 44 35  1  0  0  0  0
 45 44  1  0  0  0  0
 45 47  1  0  0  0  0
 46 43  1  0  0  0  0
 48 45  1  0  0  0  0
M  END
>  <minimizedAffinity>
-5.891469

>  <minimizedRMSD>
1.95396519

$$$$
