REMARK  Name = 
REMARK  6 active torsions:
REMARK  status: ('A' for Active; 'I' for Inactive)
REMARK    1  A    between atoms: N_1  and  C_8
REMARK    2  A    between atoms: C_3  and  N_12
REMARK    3  A    between atoms: N_12  and  C_14
REMARK    4  A    between atoms: C_13  and  C_20
REMARK    5  A    between atoms: C_18  and  C_39
REMARK    6  A    between atoms: C_36  and  C_38
REMARK                            x       y       z     vdW  Elec       q    Type
REMARK                         _______ _______ _______ _____ _____    ______ ____
ROOT
ATOM      1  C   UNL     1      49.432  32.187  38.216  0.00  0.00    +0.000 A 
ATOM      2  C   UNL     1      48.890  33.138  39.096  0.00  0.00    +0.000 A 
ATOM      3  C   UNL     1      48.203  34.130  38.453  0.00  0.00    +0.000 A 
ATOM      4  C   UNL     1      48.022  34.249  37.105  0.00  0.00    +0.000 A 
ATOM      5  C   UNL     1      48.574  33.289  36.279  0.00  0.00    +0.000 A 
ATOM      6  C   UNL     1      49.283  32.255  36.865  0.00  0.00    +0.000 A 
ATOM      7  H   UNL     1      47.741  34.921  39.036  0.00  0.00    +0.000 HD
ATOM      8  H   UNL     1      47.461  35.068  36.652  0.00  0.00    +0.000 HD
ATOM      9  H   UNL     1      48.489  33.290  35.202  0.00  0.00    +0.000 HD
ENDROOT
BRANCH   6  11
ATOM     10  C   UNL     1      48.926  30.343  35.508  0.00  0.00    +0.000 A 
ATOM     11  C   UNL     1      49.874  31.231  36.007  0.00  0.00    +0.000 A 
ATOM     12  C   UNL     1      51.206  31.097  35.686  0.00  0.00    +0.000 A 
ATOM     13  H   UNL     1      51.865  31.833  36.122  0.00  0.00    +0.000 HD
ATOM     14  C   UNL     1      51.654  30.092  34.867  0.00  0.00    +0.000 A 
ATOM     15  H   UNL     1      52.702  29.996  34.621  0.00  0.00    +0.000 HD
ATOM     16  C   UNL     1      50.719  29.212  34.371  0.00  0.00    +0.000 A 
ATOM     17  C   UNL     1      49.385  29.320  34.673  0.00  0.00    +0.000 A 
BRANCH  10  19
ATOM     18  N   UNL     1      46.863  31.481  36.015  0.00  0.00    +0.000 NA
ATOM     19  C   UNL     1      47.493  30.385  35.777  0.00  0.00    +0.000 C 
ATOM     20  N   UNL     1      46.748  29.172  35.781  0.00  0.00    +0.000 N 
ATOM     21  H   UNL     1      45.838  31.413  36.196  0.00  0.00    +0.000 HD
ATOM     22  H   UNL     1      46.733  28.562  34.913  0.00  0.00    +0.000 HD
ATOM     23  H   UNL     1      46.134  28.463  36.218  0.00  0.00    +0.000 HD
ENDBRANCH  10  19
ENDBRANCH   6  11
BRANCH   2  24
ATOM     24  N   UNL     1      49.022  33.103  40.506  0.00  0.00    +0.000 N 
ATOM     25  H   UNL     1      49.995  33.187  40.925  0.00  0.00    +0.000 HD
BRANCH  24  28
ATOM     26  N   UNL     1      47.339  33.398  43.635  0.00  0.00    +0.000 N 
ATOM     27  C   UNL     1      48.135  34.022  42.600  0.00  0.00    +0.000 C 
ATOM     28  C   UNL     1      48.019  32.966  41.541  0.00  0.00    +0.000 C 
ATOM     29  C   UNL     1      48.384  31.730  42.344  0.00  0.00    +0.000 C 
ATOM     30  C   UNL     1      47.737  31.999  43.679  0.00  0.00    +0.000 C 
ATOM     31  H   UNL     1      47.738  35.010  42.309  0.00  0.00    +0.000 HD
ATOM     32  H   UNL     1      49.180  34.064  42.972  0.00  0.00    +0.000 HD
ATOM     33  H   UNL     1      46.995  32.914  41.168  0.00  0.00    +0.000 HD
ATOM     34  H   UNL     1      49.479  31.674  42.489  0.00  0.00    +0.000 HD
ATOM     35  H   UNL     1      48.043  30.791  41.871  0.00  0.00    +0.000 HD
ATOM     36  H   UNL     1      46.808  31.401  43.743  0.00  0.00    +0.000 HD
ATOM     37  H   UNL     1      48.442  31.793  44.509  0.00  0.00    +0.000 HD
BRANCH  26  40
ATOM     38  C   UNL     1      44.595  35.454  45.080  0.00  0.00    +0.000 A 
ATOM     39  C   UNL     1      45.535  35.006  44.152  0.00  0.00    +0.000 A 
ATOM     40  C   UNL     1      46.362  33.936  44.477  0.00  0.00    +0.000 A 
ATOM     41  N   UNL     1      46.191  33.385  45.715  0.00  0.00    +0.000 NA
ATOM     42  C   UNL     1      45.289  33.809  46.614  0.00  0.00    +0.000 A 
ATOM     43  N   UNL     1      44.484  34.855  46.291  0.00  0.00    +0.000 NA
ATOM     44  H   UNL     1      43.981  36.289  44.769  0.00  0.00    +0.000 HD
ATOM     45  H   UNL     1      45.696  35.417  43.168  0.00  0.00    +0.000 HD
ATOM     46  H   UNL     1      45.256  33.292  47.549  0.00  0.00    +0.000 HD
ENDBRANCH  26  40
ENDBRANCH  24  28
ENDBRANCH   2  24
BRANCH   1  48
ATOM     47  N   UNL     1      50.763  30.213  39.312  0.00  0.00    +0.000 NA
ATOM     48  C   UNL     1      50.183  31.093  38.831  0.00  0.00    +0.000 C 
ENDBRANCH   1  48
TORSDOF 6
