
 OpenBabel03252501563D

 26 27  0  0  0  0  0  0  0  0999 V2000
   47.3360   28.1440   47.4890 C   0  0  0  0  0  0  0  0  0  0  0  0
   47.8710   29.3820   47.7260 C   0  0  0  0  0  0  0  0  0  0  0  0
   49.2600   29.4840   47.7440 C   0  0  0  0  0  0  0  0  0  0  0  0
   49.7320   30.4420   47.9270 H   0  0  0  0  0  0  0  0  0  0  0  0
   50.1230   28.4170   47.5380 C   0  0  0  0  0  0  0  0  0  0  0  0
   51.1930   28.5330   47.5590 H   0  0  0  0  0  0  0  0  0  0  0  0
   49.5590   27.1740   47.3000 C   0  0  0  0  0  3  0  0  0  0  0  0
   48.1830   27.0750   47.2820 C   0  0  0  0  0  3  0  0  0  0  0  0
   45.9330   32.3650   46.8460 C   0  0  0  0  0  0  0  0  0  0  0  0
   46.7700   31.2420   46.7680 C   0  0  0  0  0  0  0  0  0  0  0  0
   47.0030   30.4930   47.9360 C   0  0  0  0  0  0  0  0  0  0  0  0
   46.3950   30.9230   49.0450 N   0  0  0  0  0  0  0  0  0  0  0  0
   45.5980   31.9950   49.1080 C   0  0  0  0  0  0  0  0  0  0  0  0
   45.3370   32.7570   48.0090 N   0  0  0  0  0  0  0  0  0  0  0  0
   45.6770   33.0190   46.0230 H   0  0  0  0  0  0  0  0  0  0  0  0
   45.2400   32.1090   50.1370 H   0  0  0  0  0  0  0  0  0  0  0  0
   47.3160   30.9940   45.4180 C   0  0  0  0  0  0  0  0  0  0  0  0
   48.2660   30.4040   45.5230 H   0  0  0  0  0  0  0  0  0  0  0  0
   47.5910   31.9640   44.9630 H   0  0  0  0  0  0  0  0  0  0  0  0
   46.6130   30.4110   44.7840 H   0  0  0  0  0  0  0  0  0  0  0  0
   45.2490   27.5160   46.3960 N   0  0  0  0  0  0  0  0  0  0  0  0
   45.9300   27.7990   47.4240 C   0  0  0  0  0  0  0  0  0  0  0  0
   45.1160   27.7440   48.6150 N   0  0  0  0  0  0  0  0  0  0  0  0
   44.2610   27.2750   46.3410 H   0  0  0  0  0  0  0  0  0  0  0  0
   45.0000   26.8370   49.1060 H   0  0  0  0  0  0  0  0  0  0  0  0
   44.6890   28.6480   48.9060 H   0  0  0  0  0  0  0  0  0  0  0  0
  1  2  1  0  0  0  0
  2  3  2  0  0  0  0
  2 11  1  0  0  0  0
  3  4  1  0  0  0  0
  5  6  1  0  0  0  0
  5  3  1  0  0  0  0
  7  5  2  0  0  0  0
  8  7  1  0  0  0  0
  8  1  2  0  0  0  0
  9 14  1  0  0  0  0
 10  9  2  0  0  0  0
 10 11  1  0  0  0  0
 11 12  2  0  0  0  0
 12 13  1  0  0  0  0
 13 16  1  0  0  0  0
 14 13  2  0  0  0  0
 15  9  1  0  0  0  0
 17 18  1  0  0  0  0
 17 10  1  0  0  0  0
 19 17  1  0  0  0  0
 20 17  1  0  0  0  0
 21 22  2  0  0  0  0
 22  1  1  0  0  0  0
 22 23  1  0  0  0  0
 23 26  1  0  0  0  0
 23 25  1  0  0  0  0
 24 21  1  0  0  0  0
M  END
>  <minimizedAffinity>
-3.45893645

>  <minimizedRMSD>
7.76937819

$$$$
