
 OpenBabel03242515413D

 41 44  0  0  0  0  0  0  0  0999 V2000
   35.3040   28.1920   36.7900 C   0  0  0  0  0  0  0  0  0  0  0  0
   35.3430   27.3810   37.9000 C   0  0  0  0  0  0  0  0  0  0  0  0
   36.4000   27.5390   38.7930 C   0  0  0  0  0  0  0  0  0  0  0  0
   37.3260   28.4850   38.5160 N   0  0  0  0  0  0  0  0  0  0  0  0
   37.2620   29.2690   37.4170 C   0  0  0  0  0  0  0  0  0  0  0  0
   36.2530   29.1050   36.5780 N   0  0  0  0  0  0  0  0  0  0  0  0
   34.5740   26.6660   38.1010 H   0  0  0  0  0  0  0  0  0  0  0  0
   36.6330   27.3770   41.2720 C   0  0  0  0  0  0  0  0  0  0  0  0
   36.6130   26.8350   40.0350 C   0  0  0  0  0  0  0  0  0  0  0  0
   36.8080   25.4710   40.0240 C   0  0  0  0  0  0  0  0  0  0  0  0
   36.8110   24.9150   39.0930 H   0  0  0  0  0  0  0  0  0  0  0  0
   37.0110   24.6960   41.1420 C   0  0  0  0  0  0  0  0  0  0  0  0
   37.1600   23.6240   41.0800 H   0  0  0  0  0  0  0  0  0  0  0  0
   37.0290   25.2860   42.3850 C   0  0  0  0  0  3  0  0  0  0  0  0
   36.8340   26.6660   42.4470 C   0  0  0  0  0  3  0  0  0  0  0  0
   35.5050   29.6080   41.0380 N   0  0  0  0  0  0  0  0  0  0  0  0
   36.3390   28.7630   41.5640 C   0  0  0  0  0  0  0  0  0  0  0  0
   36.9590   29.5400   42.5750 N   0  0  0  0  0  0  0  0  0  0  0  0
   35.4700   30.5650   41.4230 H   0  0  0  0  0  0  0  0  0  0  0  0
   36.4230   29.5580   43.4860 H   0  0  0  0  0  0  0  0  0  0  0  0
   37.7690   30.1450   42.8390 H   0  0  0  0  0  0  0  0  0  0  0  0
   33.9100   27.9300   35.6750 S   0  0  0  0  0  0  0  0  0  0  0  0
   32.3800   29.9630   34.8250 C   0  0  0  0  0  0  0  0  0  0  0  0
   32.6560   29.1640   35.9200 C   0  0  0  0  0  0  0  0  0  0  0  0
   31.9830   29.3410   37.1090 C   0  0  0  0  0  0  0  0  0  0  0  0
   31.0140   30.3110   37.2620 C   0  0  0  0  0  0  0  0  0  0  0  0
   30.7340   31.1240   36.1450 C   0  0  0  0  0  0  0  0  0  0  0  0
   31.3990   30.9660   34.9350 C   0  0  0  0  0  0  0  0  0  0  0  0
   29.7240   32.0280   36.5350 O   0  0  0  0  0  0  0  0  0  0  0  0
   29.6510   31.9640   37.9420 C   0  0  0  0  0  0  0  0  0  0  0  0
   30.1890   30.7140   38.3110 O   0  0  0  0  0  0  0  0  0  0  0  0
   32.8670   29.8860   33.8550 H   0  0  0  0  0  0  0  0  0  0  0  0
   32.2130   28.7110   37.9420 H   0  0  0  0  0  0  0  0  0  0  0  0
   31.1510   31.6140   34.1020 H   0  0  0  0  0  0  0  0  0  0  0  0
   28.5720   31.9610   38.2280 H   0  0  0  0  0  0  0  0  0  0  0  0
   30.1430   32.8150   38.4420 H   0  0  0  0  0  0  0  0  0  0  0  0
   38.1810   30.2400   37.1000 O   0  0  0  0  0  0  0  0  0  0  0  0
   37.8780   31.5860   37.3110 C   0  0  0  0  0  0  0  0  0  0  0  0
   37.5070   32.2370   36.1770 F   0  0  0  0  0  0  0  0  0  0  0  0
   36.8830   31.5830   38.3080 F   0  0  0  0  0  0  0  0  0  0  0  0
   39.0370   32.1930   37.7940 F   0  0  0  0  0  0  0  0  0  0  0  0
  1  2  1  0  0  0  0
  2  7  1  0  0  0  0
  2  3  2  0  0  0  0
  3  9  1  0  0  0  0
  4  3  1  0  0  0  0
  5  4  2  0  0  0  0
  6  1  2  0  0  0  0
  6  5  1  0  0  0  0
  8 17  1  0  0  0  0
  8 15  1  0  0  0  0
  9  8  2  0  0  0  0
 10  9  1  0  0  0  0
 10 12  2  0  0  0  0
 11 10  1  0  0  0  0
 12 14  1  0  0  0  0
 13 12  1  0  0  0  0
 14 15  2  0  0  0  0
 16 19  1  0  0  0  0
 16 17  2  0  0  0  0
 17 18  1  0  0  0  0
 18 21  1  0  0  0  0
 18 20  1  0  0  0  0
 22 24  1  0  0  0  0
 22  1  1  0  0  0  0
 23 28  2  0  0  0  0
 23 24  1  0  0  0  0
 24 25  2  0  0  0  0
 25 26  1  0  0  0  0
 25 33  1  0  0  0  0
 26 31  1  0  0  0  0
 27 29  1  0  0  0  0
 27 26  2  0  0  0  0
 28 27  1  0  0  0  0
 29 30  1  0  0  0  0
 30 35  1  0  0  0  0
 30 31  1  0  0  0  0
 30 36  1  0  0  0  0
 32 23  1  0  0  0  0
 34 28  1  0  0  0  0
 37 38  1  0  0  0  0
 37  5  1  0  0  0  0
 38 41  1  0  0  0  0
 38 40  1  0  0  0  0
 39 38  1  0  0  0  0
M  END
>  <minimizedAffinity>
-6.7530508

$$$$

 OpenBabel03242515413D

 41 44  0  0  0  0  0  0  0  0999 V2000
   36.5850   28.7420   41.5210 C   0  0  0  0  0  0  0  0  0  0  0  0
   35.9480   28.4000   40.3510 C   0  0  0  0  0  0  0  0  0  0  0  0
   35.8390   29.3660   39.3540 C   0  0  0  0  0  0  0  0  0  0  0  0
   36.3710   30.5850   39.5950 N   0  0  0  0  0  0  0  0  0  0  0  0
   36.9930   30.8940   40.7540 C   0  0  0  0  0  0  0  0  0  0  0  0
   37.0860   29.9660   41.6920 N   0  0  0  0  0  0  0  0  0  0  0  0
   35.5680   27.4130   40.1860 H   0  0  0  0  0  0  0  0  0  0  0  0
   35.9000   29.3290   36.8600 C   0  0  0  0  0  0  0  0  0  0  0  0
   35.2580   29.2120   38.0420 C   0  0  0  0  0  0  0  0  0  0  0  0
   33.9200   28.9030   37.9180 C   0  0  0  0  0  0  0  0  0  0  0  0
   33.2920   28.7790   38.7940 H   0  0  0  0  0  0  0  0  0  0  0  0
   33.2610   28.7250   36.7240 C   0  0  0  0  0  0  0  0  0  0  0  0
   32.2050   28.4820   36.6800 H   0  0  0  0  0  0  0  0  0  0  0  0
   33.9500   28.8550   35.5400 C   0  0  0  0  0  3  0  0  0  0  0  0
   35.3080   29.1660   35.6150 C   0  0  0  0  0  3  0  0  0  0  0  0
   38.0880   30.5580   36.9450 N   0  0  0  0  0  0  0  0  0  0  0  0
   37.3260   29.5310   36.7190 C   0  0  0  0  0  0  0  0  0  0  0  0
   38.2530   28.5590   36.2660 N   0  0  0  0  0  0  0  0  0  0  0  0
   39.1010   30.4630   36.7670 H   0  0  0  0  0  0  0  0  0  0  0  0
   38.7220   28.0230   37.0470 H   0  0  0  0  0  0  0  0  0  0  0  0
   38.7120   28.1050   35.4450 H   0  0  0  0  0  0  0  0  0  0  0  0
   36.6870   27.4430   42.7680 S   0  0  0  0  0  0  0  0  0  0  0  0
   38.4090   25.4000   42.5300 C   0  0  0  0  0  0  0  0  0  0  0  0
   38.3200   26.7470   42.8350 C   0  0  0  0  0  0  0  0  0  0  0  0
   39.4440   27.4710   43.1640 C   0  0  0  0  0  0  0  0  0  0  0  0
   40.6970   26.8950   43.2050 C   0  0  0  0  0  0  0  0  0  0  0  0
   40.7860   25.5230   42.8950 C   0  0  0  0  0  0  0  0  0  0  0  0
   39.6670   24.7700   42.5600 C   0  0  0  0  0  0  0  0  0  0  0  0
   42.1460   25.1620   43.0010 O   0  0  0  0  0  0  0  0  0  0  0  0
   42.7880   26.2180   43.6800 C   0  0  0  0  0  0  0  0  0  0  0  0
   41.9790   27.3590   43.4950 O   0  0  0  0  0  0  0  0  0  0  0  0
   37.5690   24.7620   42.2610 H   0  0  0  0  0  0  0  0  0  0  0  0
   39.3510   28.5110   43.3960 H   0  0  0  0  0  0  0  0  0  0  0  0
   39.7820   23.7170   42.3270 H   0  0  0  0  0  0  0  0  0  0  0  0
   43.7600   26.4130   43.1690 H   0  0  0  0  0  0  0  0  0  0  0  0
   42.9890   25.9940   44.7410 H   0  0  0  0  0  0  0  0  0  0  0  0
   37.5460   32.1200   41.0380 O   0  0  0  0  0  0  0  0  0  0  0  0
   38.4130   32.7250   40.1270 C   0  0  0  0  0  0  0  0  0  0  0  0
   39.3110   31.8610   39.5840 F   0  0  0  0  0  0  0  0  0  0  0  0
   37.5710   33.3320   39.1740 F   0  0  0  0  0  0  0  0  0  0  0  0
   39.1230   33.6990   40.8260 F   0  0  0  0  0  0  0  0  0  0  0  0
  1  6  1  0  0  0  0
  1 22  1  0  0  0  0
  2  1  2  0  0  0  0
  3  4  2  0  0  0  0
  3  2  1  0  0  0  0
  4  5  1  0  0  0  0
  5 37  1  0  0  0  0
  5  6  2  0  0  0  0
  7  2  1  0  0  0  0
  8  9  1  0  0  0  0
  9  3  1  0  0  0  0
 10  9  2  0  0  0  0
 10 11  1  0  0  0  0
 12 10  1  0  0  0  0
 13 12  1  0  0  0  0
 14 15  1  0  0  0  0
 14 12  2  0  0  0  0
 15  8  2  0  0  0  0
 17  8  1  0  0  0  0
 17 16  2  0  0  0  0
 18 17  1  0  0  0  0
 18 20  1  0  0  0  0
 19 16  1  0  0  0  0
 21 18  1  0  0  0  0
 22 24  1  0  0  0  0
 23 28  2  0  0  0  0
 23 24  1  0  0  0  0
 24 25  2  0  0  0  0
 25 26  1  0  0  0  0
 25 33  1  0  0  0  0
 26 31  1  0  0  0  0
 27 29  1  0  0  0  0
 27 26  2  0  0  0  0
 28 27  1  0  0  0  0
 29 30  1  0  0  0  0
 30 36  1  0  0  0  0
 31 30  1  0  0  0  0
 32 23  1  0  0  0  0
 34 28  1  0  0  0  0
 35 30  1  0  0  0  0
 38 41  1  0  0  0  0
 38 37  1  0  0  0  0
 39 38  1  0  0  0  0
 40 38  1  0  0  0  0
M  END
>  <minimizedAffinity>
-6.43954563

$$$$

 OpenBabel03242515413D

 41 44  0  0  0  0  0  0  0  0999 V2000
   36.7200   28.3320   38.1690 C   0  0  0  0  0  0  0  0  0  0  0  0
   37.2810   27.5050   39.1140 C   0  0  0  0  0  0  0  0  0  0  0  0
   38.0820   28.0790   40.0970 C   0  0  0  0  0  0  0  0  0  0  0  0
   38.2590   29.4190   40.0670 N   0  0  0  0  0  0  0  0  0  0  0  0
   37.6940   30.2080   39.1260 C   0  0  0  0  0  0  0  0  0  0  0  0
   36.9380   29.6470   38.1980 N   0  0  0  0  0  0  0  0  0  0  0  0
   37.0910   26.4520   39.1230 H   0  0  0  0  0  0  0  0  0  0  0  0
   38.3770   27.4960   42.5060 C   0  0  0  0  0  0  0  0  0  0  0  0
   38.7260   27.4120   41.2040 C   0  0  0  0  0  0  0  0  0  0  0  0
   39.8030   26.5840   40.9720 C   0  0  0  0  0  0  0  0  0  0  0  0
   40.1820   26.4280   39.9670 H   0  0  0  0  0  0  0  0  0  0  0  0
   40.4890   25.8930   41.9430 C   0  0  0  0  0  0  0  0  0  0  0  0
   41.3320   25.2530   41.7080 H   0  0  0  0  0  0  0  0  0  0  0  0
   40.1040   26.0070   43.2590 C   0  0  0  0  0  3  0  0  0  0  0  0
   39.0170   26.8340   43.5440 C   0  0  0  0  0  3  0  0  0  0  0  0
   36.8730   29.4550   42.9600 N   0  0  0  0  0  0  0  0  0  0  0  0
   37.2140   28.2030   42.9980 C   0  0  0  0  0  0  0  0  0  0  0  0
   36.1200   27.6110   43.6800 N   0  0  0  0  0  0  0  0  0  0  0  0
   35.9740   29.7300   43.3870 H   0  0  0  0  0  0  0  0  0  0  0  0
   35.3120   27.3580   43.0470 H   0  0  0  0  0  0  0  0  0  0  0  0
   35.7310   27.2920   44.5950 H   0  0  0  0  0  0  0  0  0  0  0  0
   35.6970   27.5210   36.9240 S   0  0  0  0  0  0  0  0  0  0  0  0
   33.9910   28.8240   35.3150 C   0  0  0  0  0  0  0  0  0  0  0  0
   34.2050   28.4390   36.6260 C   0  0  0  0  0  0  0  0  0  0  0  0
   33.3010   28.7630   37.6130 C   0  0  0  0  0  0  0  0  0  0  0  0
   32.1510   29.4780   37.3430 C   0  0  0  0  0  0  0  0  0  0  0  0
   31.9350   29.8690   36.0070 C   0  0  0  0  0  0  0  0  0  0  0  0
   32.8330   29.5550   34.9930 C   0  0  0  0  0  0  0  0  0  0  0  0
   30.7150   30.5770   35.9750 O   0  0  0  0  0  0  0  0  0  0  0  0
   30.3930   30.8780   37.3150 C   0  0  0  0  0  0  0  0  0  0  0  0
   31.0830   29.9390   38.1100 O   0  0  0  0  0  0  0  0  0  0  0  0
   34.6570   28.6070   34.4810 H   0  0  0  0  0  0  0  0  0  0  0  0
   33.4870   28.4540   38.6200 H   0  0  0  0  0  0  0  0  0  0  0  0
   32.6250   29.8770   33.9780 H   0  0  0  0  0  0  0  0  0  0  0  0
   29.3010   30.6940   37.4540 H   0  0  0  0  0  0  0  0  0  0  0  0
   30.6090   31.9240   37.5890 H   0  0  0  0  0  0  0  0  0  0  0  0
   37.8490   31.5720   39.0610 O   0  0  0  0  0  0  0  0  0  0  0  0
   37.3880   32.3790   40.1010 C   0  0  0  0  0  0  0  0  0  0  0  0
   38.3220   32.6020   41.0620 F   0  0  0  0  0  0  0  0  0  0  0  0
   36.9370   33.5570   39.4730 F   0  0  0  0  0  0  0  0  0  0  0  0
   36.3160   31.7110   40.6910 F   0  0  0  0  0  0  0  0  0  0  0  0
  1  6  2  0  0  0  0
  1  2  1  0  0  0  0
  2  7  1  0  0  0  0
  2  3  2  0  0  0  0
  3  9  1  0  0  0  0
  4  3  1  0  0  0  0
  5  4  2  0  0  0  0
  6  5  1  0  0  0  0
  8 17  1  0  0  0  0
  8 15  1  0  0  0  0
  9  8  2  0  0  0  0
 10  9  1  0  0  0  0
 10 12  2  0  0  0  0
 11 10  1  0  0  0  0
 12 14  1  0  0  0  0
 13 12  1  0  0  0  0
 14 15  2  0  0  0  0
 16 17  2  0  0  0  0
 16 19  1  0  0  0  0
 17 18  1  0  0  0  0
 18 21  1  0  0  0  0
 20 18  1  0  0  0  0
 22  1  1  0  0  0  0
 23 24  1  0  0  0  0
 24 22  1  0  0  0  0
 24 25  2  0  0  0  0
 25 33  1  0  0  0  0
 26 25  1  0  0  0  0
 26 31  1  0  0  0  0
 27 26  2  0  0  0  0
 28 23  2  0  0  0  0
 28 27  1  0  0  0  0
 29 27  1  0  0  0  0
 29 30  1  0  0  0  0
 30 35  1  0  0  0  0
 30 36  1  0  0  0  0
 30 31  1  0  0  0  0
 32 23  1  0  0  0  0
 34 28  1  0  0  0  0
 37  5  1  0  0  0  0
 37 38  1  0  0  0  0
 38 41  1  0  0  0  0
 38 39  1  0  0  0  0
 40 38  1  0  0  0  0
M  END
>  <minimizedAffinity>
-6.36347818

$$$$

 OpenBabel03242515413D

 41 44  0  0  0  0  0  0  0  0999 V2000
   36.8240   30.7150   39.3860 C   0  0  0  0  0  0  0  0  0  0  0  0
   37.0170   29.6910   40.2840 C   0  0  0  0  0  0  0  0  0  0  0  0
   36.7440   28.3910   39.8680 C   0  0  0  0  0  0  0  0  0  0  0  0
   36.3090   28.2100   38.6010 N   0  0  0  0  0  0  0  0  0  0  0  0
   36.1280   29.2350   37.7390 C   0  0  0  0  0  0  0  0  0  0  0  0
   36.3890   30.4650   38.1510 N   0  0  0  0  0  0  0  0  0  0  0  0
   37.3940   29.8720   41.2690 H   0  0  0  0  0  0  0  0  0  0  0  0
   37.3450   27.0730   41.9000 C   0  0  0  0  0  0  0  0  0  0  0  0
   36.9200   27.1730   40.6230 C   0  0  0  0  0  0  0  0  0  0  0  0
   36.6300   25.9580   40.0390 C   0  0  0  0  0  0  0  0  0  0  0  0
   36.2760   25.9000   39.0150 H   0  0  0  0  0  0  0  0  0  0  0  0
   36.7510   24.7370   40.6610 C   0  0  0  0  0  0  0  0  0  0  0  0
   36.5090   23.8080   40.1570 H   0  0  0  0  0  0  0  0  0  0  0  0
   37.1910   24.6780   41.9630 C   0  0  0  0  0  3  0  0  0  0  0  0
   37.4950   25.8820   42.5970 C   0  0  0  0  0  3  0  0  0  0  0  0
   36.8220   28.9170   43.5230 N   0  0  0  0  0  0  0  0  0  0  0  0
   37.6010   28.2030   42.7690 C   0  0  0  0  0  0  0  0  0  0  0  0
   38.8670   28.8030   42.9850 N   0  0  0  0  0  0  0  0  0  0  0  0
   37.2410   29.6900   44.0650 H   0  0  0  0  0  0  0  0  0  0  0  0
   39.3730   28.4320   43.8360 H   0  0  0  0  0  0  0  0  0  0  0  0
   39.5720   29.4980   42.6540 H   0  0  0  0  0  0  0  0  0  0  0  0
   37.1930   32.3720   39.9930 S   0  0  0  0  0  0  0  0  0  0  0  0
   39.4550   33.7350   40.4650 C   0  0  0  0  0  0  0  0  0  0  0  0
   38.8570   32.8450   39.5910 C   0  0  0  0  0  0  0  0  0  0  0  0
   39.5370   32.3750   38.4890 C   0  0  0  0  0  0  0  0  0  0  0  0
   40.8310   32.7650   38.2090 C   0  0  0  0  0  0  0  0  0  0  0  0
   41.4380   33.6720   39.1000 C   0  0  0  0  0  0  0  0  0  0  0  0
   40.7730   34.1610   40.2190 C   0  0  0  0  0  0  0  0  0  0  0  0
   42.7390   33.9200   38.6160 O   0  0  0  0  0  0  0  0  0  0  0  0
   42.7740   33.4290   37.2940 C   0  0  0  0  0  0  0  0  0  0  0  0
   41.7450   32.4680   37.2000 O   0  0  0  0  0  0  0  0  0  0  0  0
   38.9850   34.1500   41.3550 H   0  0  0  0  0  0  0  0  0  0  0  0
   39.0550   31.6880   37.8270 H   0  0  0  0  0  0  0  0  0  0  0  0
   41.2800   34.8570   40.8790 H   0  0  0  0  0  0  0  0  0  0  0  0
   43.7430   32.8960   37.1520 H   0  0  0  0  0  0  0  0  0  0  0  0
   42.6980   34.2240   36.5330 H   0  0  0  0  0  0  0  0  0  0  0  0
   35.6880   29.0950   36.4450 O   0  0  0  0  0  0  0  0  0  0  0  0
   36.6020   29.0840   35.3910 C   0  0  0  0  0  0  0  0  0  0  0  0
   37.8480   28.6940   35.7650 F   0  0  0  0  0  0  0  0  0  0  0  0
   36.0210   28.2490   34.4160 F   0  0  0  0  0  0  0  0  0  0  0  0
   36.6870   30.3910   34.9120 F   0  0  0  0  0  0  0  0  0  0  0  0
  1 22  1  0  0  0  0
  1  2  1  0  0  0  0
  2  7  1  0  0  0  0
  3  2  2  0  0  0  0
  3  9  1  0  0  0  0
  4  3  1  0  0  0  0
  5  6  1  0  0  0  0
  5  4  2  0  0  0  0
  6  1  2  0  0  0  0
  8 15  1  0  0  0  0
  8 17  1  0  0  0  0
  9  8  2  0  0  0  0
 10  9  1  0  0  0  0
 10 12  2  0  0  0  0
 11 10  1  0  0  0  0
 12 14  1  0  0  0  0
 13 12  1  0  0  0  0
 14 15  2  0  0  0  0
 16 19  1  0  0  0  0
 17 18  1  0  0  0  0
 17 16  2  0  0  0  0
 18 20  1  0  0  0  0
 21 18  1  0  0  0  0
 23 32  1  0  0  0  0
 24 22  1  0  0  0  0
 24 23  2  0  0  0  0
 25 24  1  0  0  0  0
 26 25  2  0  0  0  0
 26 27  1  0  0  0  0
 27 28  2  0  0  0  0
 28 23  1  0  0  0  0
 28 34  1  0  0  0  0
 29 27  1  0  0  0  0
 30 29  1  0  0  0  0
 31 30  1  0  0  0  0
 31 26  1  0  0  0  0
 33 25  1  0  0  0  0
 35 30  1  0  0  0  0
 36 30  1  0  0  0  0
 37  5  1  0  0  0  0
 38 39  1  0  0  0  0
 38 37  1  0  0  0  0
 40 38  1  0  0  0  0
 41 38  1  0  0  0  0
M  END
>  <minimizedAffinity>
-6.35200071

$$$$

 OpenBabel03242515413D

 41 44  0  0  0  0  0  0  0  0999 V2000
   33.7960   27.4310   37.0090 C   0  0  0  0  0  0  0  0  0  0  0  0
   33.2700   28.7020   37.0010 C   0  0  0  0  0  0  0  0  0  0  0  0
   32.0200   28.8930   36.4170 C   0  0  0  0  0  0  0  0  0  0  0  0
   31.3950   27.8140   35.8940 N   0  0  0  0  0  0  0  0  0  0  0  0
   31.9360   26.5760   35.9150 C   0  0  0  0  0  0  0  0  0  0  0  0
   33.1240   26.4110   36.4720 N   0  0  0  0  0  0  0  0  0  0  0  0
   33.7810   29.5240   37.4550 H   0  0  0  0  0  0  0  0  0  0  0  0
   30.3630   30.5660   37.2400 C   0  0  0  0  0  0  0  0  0  0  0  0
   31.2650   30.1210   36.3410 C   0  0  0  0  0  0  0  0  0  0  0  0
   31.4490   30.9720   35.2720 C   0  0  0  0  0  0  0  0  0  0  0  0
   32.1510   30.7310   34.4800 H   0  0  0  0  0  0  0  0  0  0  0  0
   30.7950   32.1690   35.0980 C   0  0  0  0  0  0  0  0  0  0  0  0
   30.9750   32.8040   34.2370 H   0  0  0  0  0  0  0  0  0  0  0  0
   29.8790   32.5870   36.0360 C   0  0  0  0  0  3  0  0  0  0  0  0
   29.6600   31.7590   37.1370 C   0  0  0  0  0  3  0  0  0  0  0  0
   30.7340   29.8570   39.6200 N   0  0  0  0  0  0  0  0  0  0  0  0
   30.0760   29.9190   38.5030 C   0  0  0  0  0  0  0  0  0  0  0  0
   28.9150   29.1590   38.7910 N   0  0  0  0  0  0  0  0  0  0  0  0
   30.3200   29.3240   40.4020 H   0  0  0  0  0  0  0  0  0  0  0  0
   28.1480   29.7160   39.2590 H   0  0  0  0  0  0  0  0  0  0  0  0
   28.4470   28.2260   38.7440 H   0  0  0  0  0  0  0  0  0  0  0  0
   35.4180   27.2570   37.7780 S   0  0  0  0  0  0  0  0  0  0  0  0
   35.5730   28.8120   39.9590 C   0  0  0  0  0  0  0  0  0  0  0  0
   35.8920   28.7510   38.6140 C   0  0  0  0  0  0  0  0  0  0  0  0
   36.5360   29.7980   37.9940 C   0  0  0  0  0  0  0  0  0  0  0  0
   36.8900   30.9450   38.6770 C   0  0  0  0  0  0  0  0  0  0  0  0
   36.5630   31.0060   40.0460 C   0  0  0  0  0  0  0  0  0  0  0  0
   35.9130   29.9620   40.6950 C   0  0  0  0  0  0  0  0  0  0  0  0
   37.0170   32.2530   40.5250 O   0  0  0  0  0  0  0  0  0  0  0  0
   37.3030   33.0370   39.3880 C   0  0  0  0  0  0  0  0  0  0  0  0
   37.5290   32.1330   38.3290 O   0  0  0  0  0  0  0  0  0  0  0  0
   35.0660   28.0290   40.5180 H   0  0  0  0  0  0  0  0  0  0  0  0
   36.7740   29.7290   36.9540 H   0  0  0  0  0  0  0  0  0  0  0  0
   35.6820   30.0520   41.7510 H   0  0  0  0  0  0  0  0  0  0  0  0
   38.2610   33.5770   39.5770 H   0  0  0  0  0  0  0  0  0  0  0  0
   36.5200   33.7820   39.1660 H   0  0  0  0  0  0  0  0  0  0  0  0
   31.3340   25.4550   35.3950 O   0  0  0  0  0  0  0  0  0  0  0  0
   30.5110   24.6650   36.1990 C   0  0  0  0  0  0  0  0  0  0  0  0
   31.1210   24.2370   37.3350 F   0  0  0  0  0  0  0  0  0  0  0  0
   29.3690   25.4550   36.4370 F   0  0  0  0  0  0  0  0  0  0  0  0
   30.1670   23.5420   35.4480 F   0  0  0  0  0  0  0  0  0  0  0  0
  1 22  1  0  0  0  0
  2  1  1  0  0  0  0
  2  7  1  0  0  0  0
  3  2  2  0  0  0  0
  4  5  2  0  0  0  0
  4  3  1  0  0  0  0
  5  6  1  0  0  0  0
  6  1  2  0  0  0  0
  8 17  1  0  0  0  0
  9  3  1  0  0  0  0
  9  8  2  0  0  0  0
 10  9  1  0  0  0  0
 11 10  1  0  0  0  0
 12 10  2  0  0  0  0
 12 14  1  0  0  0  0
 13 12  1  0  0  0  0
 14 15  2  0  0  0  0
 15  8  1  0  0  0  0
 16 19  1  0  0  0  0
 17 18  1  0  0  0  0
 17 16  2  0  0  0  0
 18 20  1  0  0  0  0
 21 18  1  0  0  0  0
 22 24  1  0  0  0  0
 23 32  1  0  0  0  0
 23 28  1  0  0  0  0
 24 23  2  0  0  0  0
 25 24  1  0  0  0  0
 25 26  2  0  0  0  0
 26 27  1  0  0  0  0
 27 29  1  0  0  0  0
 27 28  2  0  0  0  0
 28 34  1  0  0  0  0
 30 35  1  0  0  0  0
 30 29  1  0  0  0  0
 31 26  1  0  0  0  0
 31 30  1  0  0  0  0
 33 25  1  0  0  0  0
 36 30  1  0  0  0  0
 37  5  1  0  0  0  0
 37 38  1  0  0  0  0
 38 40  1  0  0  0  0
 38 39  1  0  0  0  0
 41 38  1  0  0  0  0
M  END
>  <minimizedAffinity>
-6.34009838

$$$$

 OpenBabel03242515413D

 41 44  0  0  0  0  0  0  0  0999 V2000
   36.5610   27.9230   38.5700 C   0  0  0  0  0  0  0  0  0  0  0  0
   37.3950   27.9140   39.6640 C   0  0  0  0  0  0  0  0  0  0  0  0
   37.6600   26.6920   40.2780 C   0  0  0  0  0  0  0  0  0  0  0  0
   37.0850   25.5850   39.7580 N   0  0  0  0  0  0  0  0  0  0  0  0
   36.2690   25.6240   38.6810 C   0  0  0  0  0  0  0  0  0  0  0  0
   36.0250   26.7920   38.1110 N   0  0  0  0  0  0  0  0  0  0  0  0
   37.8570   28.8080   40.0260 H   0  0  0  0  0  0  0  0  0  0  0  0
   38.4560   27.0140   42.6210 C   0  0  0  0  0  0  0  0  0  0  0  0
   38.5360   26.4450   41.3990 C   0  0  0  0  0  0  0  0  0  0  0  0
   39.5670   25.5390   41.2760 C   0  0  0  0  0  0  0  0  0  0  0  0
   39.7380   25.0100   40.3440 H   0  0  0  0  0  0  0  0  0  0  0  0
   40.4560   25.2180   42.2740 C   0  0  0  0  0  0  0  0  0  0  0  0
   41.2530   24.4970   42.1270 H   0  0  0  0  0  0  0  0  0  0  0  0
   40.3440   25.8230   43.5050 C   0  0  0  0  0  3  0  0  0  0  0  0
   39.3130   26.7460   43.6790 C   0  0  0  0  0  3  0  0  0  0  0  0
   36.1740   27.6900   43.4190 N   0  0  0  0  0  0  0  0  0  0  0  0
   37.3970   27.9060   43.0420 C   0  0  0  0  0  0  0  0  0  0  0  0
   37.4980   29.3170   43.1340 N   0  0  0  0  0  0  0  0  0  0  0  0
   35.5920   28.5030   43.6790 H   0  0  0  0  0  0  0  0  0  0  0  0
   37.7490   29.6630   44.1000 H   0  0  0  0  0  0  0  0  0  0  0  0
   37.4300   30.2320   42.6340 H   0  0  0  0  0  0  0  0  0  0  0  0
   36.2580   29.5390   37.8280 S   0  0  0  0  0  0  0  0  0  0  0  0
   36.6810   31.3310   39.7790 C   0  0  0  0  0  0  0  0  0  0  0  0
   37.2250   30.7990   38.6240 C   0  0  0  0  0  0  0  0  0  0  0  0
   38.4400   31.2410   38.1480 C   0  0  0  0  0  0  0  0  0  0  0  0
   39.1630   32.2230   38.7940 C   0  0  0  0  0  0  0  0  0  0  0  0
   38.6070   32.7640   39.9710 C   0  0  0  0  0  0  0  0  0  0  0  0
   37.3830   32.3360   40.4710 C   0  0  0  0  0  0  0  0  0  0  0  0
   39.5130   33.7350   40.4480 O   0  0  0  0  0  0  0  0  0  0  0  0
   40.4160   33.9900   39.3950 C   0  0  0  0  0  0  0  0  0  0  0  0
   40.3830   32.8540   38.5590 O   0  0  0  0  0  0  0  0  0  0  0  0
   35.7300   31.0360   40.2170 H   0  0  0  0  0  0  0  0  0  0  0  0
   38.8410   30.8150   37.2530 H   0  0  0  0  0  0  0  0  0  0  0  0
   36.9940   32.7800   41.3810 H   0  0  0  0  0  0  0  0  0  0  0  0
   41.4410   34.0540   39.8310 H   0  0  0  0  0  0  0  0  0  0  0  0
   40.2050   34.9310   38.8590 H   0  0  0  0  0  0  0  0  0  0  0  0
   35.6650   24.5230   38.1230 O   0  0  0  0  0  0  0  0  0  0  0  0
   35.0750   23.5580   38.9400 C   0  0  0  0  0  0  0  0  0  0  0  0
   35.3210   23.7500   40.2620 F   0  0  0  0  0  0  0  0  0  0  0  0
   33.7050   23.5950   38.6120 F   0  0  0  0  0  0  0  0  0  0  0  0
   35.6200   22.3270   38.5760 F   0  0  0  0  0  0  0  0  0  0  0  0
  1  2  1  0  0  0  0
  2  7  1  0  0  0  0
  2  3  2  0  0  0  0
  3  9  1  0  0  0  0
  4  3  1  0  0  0  0
  5  4  2  0  0  0  0
  6  1  2  0  0  0  0
  6  5  1  0  0  0  0
  8 17  1  0  0  0  0
  8 15  1  0  0  0  0
  9  8  2  0  0  0  0
 10  9  1  0  0  0  0
 10 12  2  0  0  0  0
 11 10  1  0  0  0  0
 12 14  1  0  0  0  0
 13 12  1  0  0  0  0
 14 15  2  0  0  0  0
 16 19  1  0  0  0  0
 17 18  1  0  0  0  0
 17 16  2  0  0  0  0
 18 20  1  0  0  0  0
 21 18  1  0  0  0  0
 22  1  1  0  0  0  0
 22 24  1  0  0  0  0
 23 32  1  0  0  0  0
 23 28  1  0  0  0  0
 24 23  2  0  0  0  0
 25 24  1  0  0  0  0
 25 26  2  0  0  0  0
 26 27  1  0  0  0  0
 27 29  1  0  0  0  0
 27 28  2  0  0  0  0
 28 34  1  0  0  0  0
 30 35  1  0  0  0  0
 30 29  1  0  0  0  0
 31 26  1  0  0  0  0
 31 30  1  0  0  0  0
 33 25  1  0  0  0  0
 36 30  1  0  0  0  0
 37  5  1  0  0  0  0
 37 38  1  0  0  0  0
 38 39  1  0  0  0  0
 40 38  1  0  0  0  0
 41 38  1  0  0  0  0
M  END
>  <minimizedAffinity>
-6.33112335

$$$$

 OpenBabel03242515413D

 41 44  0  0  0  0  0  0  0  0999 V2000
   35.7370   28.6650   37.1480 C   0  0  0  0  0  0  0  0  0  0  0  0
   35.8090   27.5230   37.9120 C   0  0  0  0  0  0  0  0  0  0  0  0
   36.5560   27.5640   39.0870 C   0  0  0  0  0  0  0  0  0  0  0  0
   37.1630   28.7280   39.4100 N   0  0  0  0  0  0  0  0  0  0  0  0
   37.0740   29.8350   38.6410 C   0  0  0  0  0  0  0  0  0  0  0  0
   36.3630   29.7790   37.5270 N   0  0  0  0  0  0  0  0  0  0  0  0
   35.2870   26.6300   37.6380 H   0  0  0  0  0  0  0  0  0  0  0  0
   37.1510   26.6460   41.3290 C   0  0  0  0  0  0  0  0  0  0  0  0
   36.7270   26.5070   40.0550 C   0  0  0  0  0  0  0  0  0  0  0  0
   36.4340   25.2060   39.7070 C   0  0  0  0  0  0  0  0  0  0  0  0
   36.0800   24.9600   38.7110 H   0  0  0  0  0  0  0  0  0  0  0  0
   36.5510   24.1220   40.5440 C   0  0  0  0  0  0  0  0  0  0  0  0
   36.3060   23.1160   40.2220 H   0  0  0  0  0  0  0  0  0  0  0  0
   36.9900   24.3040   41.8360 C   0  0  0  0  0  3  0  0  0  0  0  0
   37.2980   25.6040   42.2350 C   0  0  0  0  0  3  0  0  0  0  0  0
   38.5110   28.5530   42.2350 N   0  0  0  0  0  0  0  0  0  0  0  0
   37.4100   27.9160   41.9730 C   0  0  0  0  0  0  0  0  0  0  0  0
   36.4220   28.7920   42.4890 N   0  0  0  0  0  0  0  0  0  0  0  0
   38.4450   29.4660   42.7130 H   0  0  0  0  0  0  0  0  0  0  0  0
   36.1300   29.5490   41.8110 H   0  0  0  0  0  0  0  0  0  0  0  0
   35.8110   29.0400   43.2990 H   0  0  0  0  0  0  0  0  0  0  0  0
   34.7570   28.5390   35.6390 S   0  0  0  0  0  0  0  0  0  0  0  0
   32.5940   29.1750   37.0930 C   0  0  0  0  0  0  0  0  0  0  0  0
   33.1690   29.3090   35.8420 C   0  0  0  0  0  0  0  0  0  0  0  0
   32.5240   30.0010   34.8410 C   0  0  0  0  0  0  0  0  0  0  0  0
   31.2900   30.5860   35.0360 C   0  0  0  0  0  0  0  0  0  0  0  0
   30.7060   30.4470   36.3110 C   0  0  0  0  0  0  0  0  0  0  0  0
   31.3360   29.7540   37.3380 C   0  0  0  0  0  0  0  0  0  0  0  0
   29.4650   31.1180   36.2730 O   0  0  0  0  0  0  0  0  0  0  0  0
   29.1820   31.3570   34.9120 C   0  0  0  0  0  0  0  0  0  0  0  0
   30.4200   31.3260   34.2370 O   0  0  0  0  0  0  0  0  0  0  0  0
   33.0390   28.6450   37.9340 H   0  0  0  0  0  0  0  0  0  0  0  0
   32.9870   30.0920   33.8820 H   0  0  0  0  0  0  0  0  0  0  0  0
   30.8490   29.6740   38.3040 H   0  0  0  0  0  0  0  0  0  0  0  0
   28.7790   32.3940   34.8230 H   0  0  0  0  0  0  0  0  0  0  0  0
   28.4400   30.6570   34.4940 H   0  0  0  0  0  0  0  0  0  0  0  0
   37.6760   31.0360   38.9330 O   0  0  0  0  0  0  0  0  0  0  0  0
   37.1280   31.8750   39.9040 C   0  0  0  0  0  0  0  0  0  0  0  0
   37.9460   32.0660   40.9730 F   0  0  0  0  0  0  0  0  0  0  0  0
   36.8120   33.0650   39.2190 F   0  0  0  0  0  0  0  0  0  0  0  0
   35.9620   31.2620   40.3610 F   0  0  0  0  0  0  0  0  0  0  0  0
  1  6  2  0  0  0  0
  1  2  1  0  0  0  0
  2  3  2  0  0  0  0
  3  4  1  0  0  0  0
  3  9  1  0  0  0  0
  5 37  1  0  0  0  0
  5  4  2  0  0  0  0
  6  5  1  0  0  0  0
  7  2  1  0  0  0  0
  8 17  1  0  0  0  0
  8 15  1  0  0  0  0
  9  8  2  0  0  0  0
 10  9  1  0  0  0  0
 10 12  2  0  0  0  0
 11 10  1  0  0  0  0
 12 14  1  0  0  0  0
 13 12  1  0  0  0  0
 14 15  2  0  0  0  0
 16 19  1  0  0  0  0
 17 16  2  0  0  0  0
 17 18  1  0  0  0  0
 18 21  1  0  0  0  0
 20 18  1  0  0  0  0
 22 24  1  0  0  0  0
 22  1  1  0  0  0  0
 23 28  1  0  0  0  0
 23 32  1  0  0  0  0
 24 23  2  0  0  0  0
 25 26  2  0  0  0  0
 25 24  1  0  0  0  0
 26 27  1  0  0  0  0
 27 28  2  0  0  0  0
 28 34  1  0  0  0  0
 29 27  1  0  0  0  0
 30 29  1  0  0  0  0
 31 30  1  0  0  0  0
 31 26  1  0  0  0  0
 33 25  1  0  0  0  0
 35 30  1  0  0  0  0
 36 30  1  0  0  0  0
 37 38  1  0  0  0  0
 38 41  1  0  0  0  0
 38 39  1  0  0  0  0
 40 38  1  0  0  0  0
M  END
>  <minimizedAffinity>
-6.28043509

$$$$

 OpenBabel03242515413D

 41 44  0  0  0  0  0  0  0  0999 V2000
   36.3560   28.5050   38.4300 C   0  0  0  0  0  0  0  0  0  0  0  0
   37.3660   29.4040   38.1810 C   0  0  0  0  0  0  0  0  0  0  0  0
   38.0020   29.9970   39.2680 C   0  0  0  0  0  0  0  0  0  0  0  0
   37.5900   29.6500   40.5080 N   0  0  0  0  0  0  0  0  0  0  0  0
   36.5940   28.7630   40.7240 C   0  0  0  0  0  0  0  0  0  0  0  0
   35.9990   28.2100   39.6800 N   0  0  0  0  0  0  0  0  0  0  0  0
   37.6860   29.6290   37.1850 H   0  0  0  0  0  0  0  0  0  0  0  0
   39.0330   32.2680   39.3390 C   0  0  0  0  0  0  0  0  0  0  0  0
   39.1090   30.9240   39.2400 C   0  0  0  0  0  0  0  0  0  0  0  0
   40.3960   30.4500   39.1130 C   0  0  0  0  0  0  0  0  0  0  0  0
   40.5940   29.3860   39.0270 H   0  0  0  0  0  0  0  0  0  0  0  0
   41.5250   31.2340   39.0810 C   0  0  0  0  0  0  0  0  0  0  0  0
   42.5180   30.8110   38.9790 H   0  0  0  0  0  0  0  0  0  0  0  0
   41.4060   32.6010   39.1820 C   0  0  0  0  0  3  0  0  0  0  0  0
   40.1220   33.1290   39.3140 C   0  0  0  0  0  3  0  0  0  0  0  0
   37.3250   34.0910   39.0820 N   0  0  0  0  0  0  0  0  0  0  0  0
   37.8130   33.0040   39.5970 C   0  0  0  0  0  0  0  0  0  0  0  0
   36.8240   32.6470   40.5480 N   0  0  0  0  0  0  0  0  0  0  0  0
   36.4160   34.4330   39.4340 H   0  0  0  0  0  0  0  0  0  0  0  0
   36.0290   32.0820   40.1420 H   0  0  0  0  0  0  0  0  0  0  0  0
   36.5100   32.6990   41.5430 H   0  0  0  0  0  0  0  0  0  0  0  0
   35.5750   27.7780   36.9760 S   0  0  0  0  0  0  0  0  0  0  0  0
   33.9230   28.9910   35.2450 C   0  0  0  0  0  0  0  0  0  0  0  0
   34.0660   28.6250   36.5710 C   0  0  0  0  0  0  0  0  0  0  0  0
   33.0840   28.9130   37.4920 C   0  0  0  0  0  0  0  0  0  0  0  0
   31.9240   29.5730   37.1400 C   0  0  0  0  0  0  0  0  0  0  0  0
   31.7800   29.9450   35.7890 C   0  0  0  0  0  0  0  0  0  0  0  0
   32.7560   29.6660   34.8400 C   0  0  0  0  0  0  0  0  0  0  0  0
   30.5330   30.5960   35.6700 O   0  0  0  0  0  0  0  0  0  0  0  0
   30.1100   30.8900   36.9820 C   0  0  0  0  0  0  0  0  0  0  0  0
   30.7870   29.9900   37.8300 O   0  0  0  0  0  0  0  0  0  0  0  0
   34.6520   28.7990   34.4590 H   0  0  0  0  0  0  0  0  0  0  0  0
   33.2160   28.6200   38.5120 H   0  0  0  0  0  0  0  0  0  0  0  0
   32.6020   29.9710   33.8110 H   0  0  0  0  0  0  0  0  0  0  0  0
   29.0200   30.6580   37.0500 H   0  0  0  0  0  0  0  0  0  0  0  0
   30.2600   31.9470   37.2600 H   0  0  0  0  0  0  0  0  0  0  0  0
   36.1470   28.3830   41.9670 O   0  0  0  0  0  0  0  0  0  0  0  0
   36.9760   27.6520   42.8170 C   0  0  0  0  0  0  0  0  0  0  0  0
   37.8800   28.4210   43.4790 F   0  0  0  0  0  0  0  0  0  0  0  0
   36.0980   26.9560   43.6710 F   0  0  0  0  0  0  0  0  0  0  0  0
   37.6820   26.7500   42.0210 F   0  0  0  0  0  0  0  0  0  0  0  0
  1  6  1  0  0  0  0
  2  1  2  0  0  0  0
  2  3  1  0  0  0  0
  3  4  2  0  0  0  0
  4  5  1  0  0  0  0
  5 37  1  0  0  0  0
  6  5  2  0  0  0  0
  7  2  1  0  0  0  0
  8 17  1  0  0  0  0
  9  3  1  0  0  0  0
  9  8  2  0  0  0  0
 10  9  1  0  0  0  0
 11 10  1  0  0  0  0
 12 10  2  0  0  0  0
 12 14  1  0  0  0  0
 13 12  1  0  0  0  0
 14 15  2  0  0  0  0
 15  8  1  0  0  0  0
 16 19  1  0  0  0  0
 16 17  2  0  0  0  0
 17 18  1  0  0  0  0
 18 21  1  0  0  0  0
 20 18  1  0  0  0  0
 22  1  1  0  0  0  0
 23 24  1  0  0  0  0
 24 22  1  0  0  0  0
 24 25  2  0  0  0  0
 25 33  1  0  0  0  0
 26 25  1  0  0  0  0
 26 31  1  0  0  0  0
 27 26  2  0  0  0  0
 28 23  2  0  0  0  0
 28 27  1  0  0  0  0
 29 27  1  0  0  0  0
 29 30  1  0  0  0  0
 30 35  1  0  0  0  0
 30 36  1  0  0  0  0
 30 31  1  0  0  0  0
 32 23  1  0  0  0  0
 34 28  1  0  0  0  0
 37 38  1  0  0  0  0
 38 39  1  0  0  0  0
 38 40  1  0  0  0  0
 41 38  1  0  0  0  0
M  END
>  <minimizedAffinity>
-6.24530888

$$$$

 OpenBabel03242515413D

 41 44  0  0  0  0  0  0  0  0999 V2000
   37.8320   28.1590   36.3630 C   0  0  0  0  0  0  0  0  0  0  0  0
   38.2580   28.9620   37.3950 C   0  0  0  0  0  0  0  0  0  0  0  0
   37.8530   30.2950   37.4020 C   0  0  0  0  0  0  0  0  0  0  0  0
   37.0610   30.7200   36.3920 N   0  0  0  0  0  0  0  0  0  0  0  0
   36.6570   29.9080   35.3900 C   0  0  0  0  0  0  0  0  0  0  0  0
   37.0510   28.6450   35.3980 N   0  0  0  0  0  0  0  0  0  0  0  0
   38.8580   28.5800   38.1940 H   0  0  0  0  0  0  0  0  0  0  0  0
   39.2780   32.0120   38.5180 C   0  0  0  0  0  0  0  0  0  0  0  0
   38.1400   31.2940   38.4030 C   0  0  0  0  0  0  0  0  0  0  0  0
   37.1930   31.6000   39.3570 C   0  0  0  0  0  0  0  0  0  0  0  0
   36.2330   31.0950   39.3720 H   0  0  0  0  0  0  0  0  0  0  0  0
   37.3510   32.5360   40.3510 C   0  0  0  0  0  0  0  0  0  0  0  0
   36.5740   32.7400   41.0790 H   0  0  0  0  0  0  0  0  0  0  0  0
   38.5270   33.2450   40.4370 C   0  0  0  0  0  3  0  0  0  0  0  0
   39.5160   32.9720   39.4920 C   0  0  0  0  0  3  0  0  0  0  0  0
   40.9650   30.9790   36.9720 N   0  0  0  0  0  0  0  0  0  0  0  0
   40.3750   31.9650   37.5760 C   0  0  0  0  0  0  0  0  0  0  0  0
   41.0840   33.0900   37.0830 N   0  0  0  0  0  0  0  0  0  0  0  0
   41.7430   31.1950   36.3290 H   0  0  0  0  0  0  0  0  0  0  0  0
   40.7160   33.4520   36.1600 H   0  0  0  0  0  0  0  0  0  0  0  0
   41.8630   33.7680   37.2370 H   0  0  0  0  0  0  0  0  0  0  0  0
   38.3960   26.4470   36.4170 S   0  0  0  0  0  0  0  0  0  0  0  0
   36.7580   25.4560   38.2970 C   0  0  0  0  0  0  0  0  0  0  0  0
   38.0850   25.7210   38.0080 C   0  0  0  0  0  0  0  0  0  0  0  0
   39.0760   25.4280   38.9180 C   0  0  0  0  0  0  0  0  0  0  0  0
   38.7960   24.8640   40.1460 C   0  0  0  0  0  0  0  0  0  0  0  0
   37.4440   24.5950   40.4390 C   0  0  0  0  0  0  0  0  0  0  0  0
   36.4250   24.8810   39.5370 C   0  0  0  0  0  0  0  0  0  0  0  0
   37.4050   24.0280   41.7300 O   0  0  0  0  0  0  0  0  0  0  0  0
   38.6680   24.2660   42.3090 C   0  0  0  0  0  0  0  0  0  0  0  0
   39.5650   24.4680   41.2400 O   0  0  0  0  0  0  0  0  0  0  0  0
   35.9200   25.6580   37.6320 H   0  0  0  0  0  0  0  0  0  0  0  0
   40.0950   25.6420   38.6740 H   0  0  0  0  0  0  0  0  0  0  0  0
   35.3990   24.6560   39.8040 H   0  0  0  0  0  0  0  0  0  0  0  0
   38.9830   23.3360   42.8380 H   0  0  0  0  0  0  0  0  0  0  0  0
   38.6630   25.0960   43.0360 H   0  0  0  0  0  0  0  0  0  0  0  0
   35.8530   30.3000   34.3470 O   0  0  0  0  0  0  0  0  0  0  0  0
   36.3190   31.2250   33.4120 C   0  0  0  0  0  0  0  0  0  0  0  0
   35.3230   31.8880   32.7690 F   0  0  0  0  0  0  0  0  0  0  0  0
   37.1820   32.0710   34.1370 F   0  0  0  0  0  0  0  0  0  0  0  0
   37.0430   30.5090   32.4590 F   0  0  0  0  0  0  0  0  0  0  0  0
  1 22  1  0  0  0  0
  1  2  1  0  0  0  0
  2  3  2  0  0  0  0
  2  7  1  0  0  0  0
  3  9  1  0  0  0  0
  4  3  1  0  0  0  0
  5  6  1  0  0  0  0
  5  4  2  0  0  0  0
  6  1  2  0  0  0  0
  8 15  1  0  0  0  0
  9  8  2  0  0  0  0
  9 10  1  0  0  0  0
 10 11  1  0  0  0  0
 10 12  2  0  0  0  0
 12 14  1  0  0  0  0
 12 13  1  0  0  0  0
 15 14  2  0  0  0  0
 16 17  2  0  0  0  0
 17  8  1  0  0  0  0
 18 21  1  0  0  0  0
 18 17  1  0  0  0  0
 19 16  1  0  0  0  0
 20 18  1  0  0  0  0
 22 24  1  0  0  0  0
 23 28  1  0  0  0  0
 24 23  2  0  0  0  0
 24 25  1  0  0  0  0
 25 26  2  0  0  0  0
 26 27  1  0  0  0  0
 26 31  1  0  0  0  0
 27 29  1  0  0  0  0
 28 34  1  0  0  0  0
 28 27  2  0  0  0  0
 29 30  1  0  0  0  0
 30 35  1  0  0  0  0
 30 36  1  0  0  0  0
 31 30  1  0  0  0  0
 32 23  1  0  0  0  0
 33 25  1  0  0  0  0
 37  5  1  0  0  0  0
 38 40  1  0  0  0  0
 38 37  1  0  0  0  0
 39 38  1  0  0  0  0
 41 38  1  0  0  0  0
M  END
>  <minimizedAffinity>
-6.238235

$$$$
