
     RDKit          3D

 26 27  0  0  0  0  0  0  0  0999 V2000
   44.5586   35.6213   45.0634 C   0  0  0  0  0  0  0  0  0  0  0  0
   45.0254   35.8862   43.7731 C   0  0  0  0  0  0  0  0  0  0  0  0
   45.9740   34.9821   43.2377 C   0  0  0  0  0  0  0  0  0  0  0  0
   46.3739   33.9166   44.0053 N   0  0  0  0  0  0  0  0  0  0  0  0
   45.8885   33.7113   45.2436 C   0  0  0  0  0  0  0  0  0  0  0  0
   44.9916   34.5601   45.7578 N   0  0  0  0  0  0  0  0  0  0  0  0
   44.6340   36.9595   42.9872 O   0  0  0  0  0  0  0  0  0  0  0  0
   43.8380   36.3103   45.4641 H   0  0  0  0  0  0  0  0  0  0  0  0
   46.2169   32.8647   45.8276 H   0  0  0  0  0  0  0  0  0  0  0  0
   45.1997   37.7821   42.9607 H   0  0  0  0  0  0  0  0  0  0  0  0
   47.9373   31.9448   41.2497 N   0  0  0  0  0  0  0  0  0  0  0  0
   46.9712   32.7590   41.6291 C   0  0  0  0  0  0  0  0  0  0  0  0
   46.2785   31.8395   42.4441 N   0  0  0  0  0  0  0  0  0  0  0  0
   47.0143   34.1103   41.1095 C   0  0  0  0  0  0  0  0  0  0  0  0
   46.5708   35.1078   41.9159 C   0  0  0  0  0  0  0  0  0  0  0  0
   46.6307   36.4313   41.4586 C   0  0  0  0  0  0  0  0  0  0  0  0
   46.3320   37.3423   41.9490 H   0  0  0  0  0  0  0  0  0  0  0  0
   47.1469   36.6367   40.1875 C   0  0  0  0  0  0  0  0  0  0  0  0
   47.2499   37.6113   39.7020 H   0  0  0  0  0  0  0  0  0  0  0  0
   47.5899   35.5797   39.3885 C   0  0  0  0  0  0  0  0  0  0  0  0
   47.5300   34.2827   39.8461 C   0  0  0  0  0  0  0  0  0  0  0  0
   48.7057   32.2115   40.6195 H   0  0  0  0  0  0  0  0  0  0  0  0
   45.6645   31.0497   42.0712 H   0  0  0  0  0  0  0  0  0  0  0  0
   46.4219   31.9890   43.4741 H   0  0  0  0  0  0  0  0  0  0  0  0
   47.9916   35.7382   38.3996 H   0  0  0  0  0  0  0  0  0  0  0  0
   47.8620   33.4429   39.2559 H   0  0  0  0  0  0  0  0  0  0  0  0
  1  6  2  0
  2  1  1  0
  3  2  2  0
  3  4  1  0
  4  5  2  0
  5  6  1  0
  7  2  1  0
  1  8  1  0
  5  9  1  0
  7 10  1  0
 11 12  2  3
 12 13  1  0
 12 14  1  0
 14 15  2  0
 15 16  1  0
 16 17  1  0
 16 18  2  0
 18 19  1  0
 18 20  1  0
 20 21  2  0
 21 14  1  0
 11 22  1  0
 13 23  1  0
 13 24  1  0
 20 25  1  0
 21 26  1  0
  3 15  1  0
M  ISO  5   8  14   9  14  10   3  17  15  19  16
M  END
>  <DihAtoms>  (1) 
1,2,14,13

>  <DihDeg>  (1) 
119.55260996944297

$$$$
