
 OpenBabel03242514063D

 48 51  0  0  1  0  0  0  0  0999 V2000
   46.5290   32.9740   38.7750 C   0  0  1  0  0  0  0  0  0  0  0  0
   45.1410   33.4490   38.2840 C   0  0  0  0  0  0  0  0  0  0  0  0
   44.6110   32.2500   37.4720 C   0  0  0  0  0  0  0  0  0  0  0  0
   45.4520   32.2390   36.1980 C   0  0  0  0  0  0  0  0  0  0  0  0
   46.8770   32.0150   36.5170 C   0  0  0  0  0  0  0  0  0  0  0  0
   47.4630   32.7560   37.6710 C   0  0  2  0  0  0  0  0  0  0  0  0
   46.2500   31.9970   39.2770 H   0  0  0  0  0  0  0  0  0  0  0  0
   44.4710   33.7020   39.0980 H   0  0  0  0  0  0  0  0  0  0  0  0
   45.3210   34.2740   37.5720 H   0  0  0  0  0  0  0  0  0  0  0  0
   43.5710   32.4440   37.2060 H   0  0  0  0  0  0  0  0  0  0  0  0
   44.8010   31.3690   38.0920 H   0  0  0  0  0  0  0  0  0  0  0  0
   45.1090   31.4450   35.5250 H   0  0  0  0  0  0  0  0  0  0  0  0
   45.3320   33.2430   35.7390 H   0  0  0  0  0  0  0  0  0  0  0  0
   47.4680   32.1450   35.5780 H   0  0  0  0  0  0  0  0  0  0  0  0
   46.9810   30.9100   36.7320 H   0  0  0  0  0  0  0  0  0  0  0  0
   47.8780   33.7140   37.2900 H   0  0  0  0  0  0  0  0  0  0  0  0
   46.8640   34.6600   42.0220 C   0  0  0  0  0  0  0  0  0  0  0  0
   48.0030   35.4040   41.8210 C   0  0  0  0  0  0  0  0  0  0  0  0
   48.7250   35.4210   40.6490 C   0  0  0  0  0  0  0  0  0  0  0  0
   48.1960   34.5950   39.6460 C   0  0  0  0  0  0  0  0  0  0  0  0
   47.0430   33.8310   39.8400 C   0  0  0  0  0  0  0  0  0  0  0  0
   46.3880   33.8720   41.0250 N   0  0  0  0  0  0  0  0  0  0  0  0
   48.3280   36.0110   42.6610 H   0  0  0  0  0  0  0  0  0  0  0  0
   49.6050   36.0140   40.5300 H   0  0  0  0  0  0  0  0  0  0  0  0
   48.7830   34.6470   38.7450 H   0  0  0  0  0  0  0  0  0  0  0  0
   45.6720   33.9200   45.4010 C   0  0  0  0  0  0  0  0  0  0  0  0
   44.7570   34.9250   45.6700 C   0  0  0  0  0  0  0  0  0  0  0  0
   44.5590   35.8640   44.6630 C   0  0  0  0  0  0  0  0  0  0  0  0
   45.2640   35.7440   43.4900 N   0  0  0  0  0  0  0  0  0  0  0  0
   46.1480   34.7300   43.2910 C   0  0  0  0  0  0  0  0  0  0  0  0
   46.3460   33.8370   44.2300 N   0  0  0  0  0  0  0  0  0  0  0  0
   45.8340   33.1740   46.1890 H   0  0  0  0  0  0  0  0  0  0  0  0
   44.2310   34.9690   46.6120 H   0  0  0  0  0  0  0  0  0  0  0  0
   43.8640   36.6750   44.7990 H   0  0  0  0  0  0  0  0  0  0  0  0
   48.2960   30.7180   38.7800 C   0  0  0  0  0  0  0  0  0  0  0  0
   48.6330   31.8960   38.0960 C   0  0  0  0  0  0  0  0  0  0  0  0
   49.9790   32.1070   37.9080 C   0  0  0  0  0  0  0  0  0  0  0  0
   50.2390   33.0110   37.3830 H   0  0  0  0  0  0  0  0  0  0  0  0
   50.9040   31.2030   38.3710 C   0  0  0  0  0  0  0  0  0  0  0  0
   51.9260   31.4760   38.1630 H   0  0  0  0  0  0  0  0  0  0  0  0
   50.5570   30.0520   39.0390 C   0  0  0  0  0  3  0  0  0  0  0  0
   49.2250   29.8140   39.2420 C   0  0  0  0  0  3  0  0  0  0  0  0
   46.2960   30.5290   40.2140 N   0  0  0  0  0  0  0  0  0  0  0  0
   46.9230   30.2700   39.1000 C   0  0  0  0  0  0  0  0  0  0  0  0
   45.8530   29.5320   38.5450 N   0  0  0  0  0  0  0  0  0  0  0  0
   46.7110   31.0830   40.9850 H   0  0  0  0  0  0  0  0  0  0  0  0
   45.7400   28.4950   38.6950 H   0  0  0  0  0  0  0  0  0  0  0  0
   45.0730   29.9000   37.9430 H   0  0  0  0  0  0  0  0  0  0  0  0
  1  7  1  1  0  0  0
  1 21  1  0  0  0  0
  2  1  1  0  0  0  0
  2  8  1  0  0  0  0
  3 11  1  0  0  0  0
  3  2  1  0  0  0  0
  4  5  1  0  0  0  0
  4  3  1  0  0  0  0
  5 15  1  0  0  0  0
  5  6  1  0  0  0  0
  6 16  1  6  0  0  0
  6 36  1  0  0  0  0
  6  1  1  0  0  0  0
  9  2  1  0  0  0  0
 10  3  1  0  0  0  0
 12  4  1  0  0  0  0
 13  4  1  0  0  0  0
 14  5  1  0  0  0  0
 17 30  1  0  0  0  0
 18 17  1  0  0  0  0
 18 23  1  0  0  0  0
 19 18  2  0  0  0  0
 20 21  2  0  0  0  0
 20 19  1  0  0  0  0
 21 22  1  0  0  0  0
 22 17  2  0  0  0  0
 24 19  1  0  0  0  0
 25 20  1  0  0  0  0
 26 27  1  0  0  0  0
 26 32  1  0  0  0  0
 27 33  1  0  0  0  0
 28 34  1  0  0  0  0
 28 27  2  0  0  0  0
 29 28  1  0  0  0  0
 30 29  2  0  0  0  0
 30 31  1  0  0  0  0
 31 26  2  0  0  0  0
 35 44  1  0  0  0  0
 35 42  1  0  0  0  0
 36 35  2  0  0  0  0
 37 36  1  0  0  0  0
 37 39  2  0  0  0  0
 38 37  1  0  0  0  0
 39 41  1  0  0  0  0
 40 39  1  0  0  0  0
 41 42  2  0  0  0  0
 43 46  1  0  0  0  0
 44 43  2  0  0  0  0
 45 47  1  0  0  0  0
 45 44  1  0  0  0  0
 48 45  1  0  0  0  0
M  END
>  <minimizedAffinity>
-5.33335257

>  <minimizedRMSD>
0.81197238

$$$$
