
 OpenBabel03252502083D

 53 57  0  0  0  0  0  0  0  0999 V2000
   45.3800   33.3510   44.4160 C   0  0  0  0  0  0  0  0  0  0  0  0
   45.2470   34.3200   45.3290 N   0  0  0  0  0  0  0  0  0  0  0  0
   44.7530   35.5290   45.0960 C   0  0  0  0  0  0  0  0  0  0  0  0
   44.3360   35.8570   43.8540 N   0  0  0  0  0  0  0  0  0  0  0  0
   44.4130   34.9800   42.8390 C   0  0  0  0  0  0  0  0  0  0  0  0
   44.0000   35.2960   41.5600 C   0  0  0  0  0  0  0  0  0  0  0  0
   44.0860   34.4120   40.5320 C   0  0  0  0  0  0  0  0  0  0  0  0
   44.6040   33.1740   40.8100 C   0  0  0  0  0  0  0  0  0  0  0  0
   45.0110   32.8840   42.1150 C   0  0  0  0  0  0  0  0  0  0  0  0
   44.9390   33.7400   43.1560 C   0  0  0  0  0  0  0  0  0  0  0  0
   44.6780   36.2640   45.8970 H   0  0  0  0  0  0  0  0  0  0  0  0
   43.5950   36.2850   41.3780 H   0  0  0  0  0  0  0  0  0  0  0  0
   43.7430   34.7280   39.5570 H   0  0  0  0  0  0  0  0  0  0  0  0
   47.9930   30.8680   44.7090 C   0  0  0  0  0  0  0  0  0  0  0  0
   47.3660   29.6770   45.0930 C   0  0  0  0  0  0  0  0  0  0  0  0
   46.0110   29.7290   45.2740 C   0  0  0  0  0  0  0  0  0  0  0  0
   45.3520   30.8740   45.0800 N   0  0  0  0  0  0  0  0  0  0  0  0
   45.9340   32.0090   44.7130 C   0  0  0  0  0  0  0  0  0  0  0  0
   47.2630   31.9790   44.5340 N   0  0  0  0  0  0  0  0  0  0  0  0
   45.3320   28.6020   45.6800 N   0  0  0  0  0  0  0  0  0  0  0  0
   43.8950   28.5790   46.0700 C   0  0  0  0  0  0  0  0  0  0  0  0
   43.5130   27.1250   46.1390 C   0  0  0  0  0  0  0  0  0  0  0  0
   44.8050   26.4620   46.4960 C   0  0  0  0  0  0  0  0  0  0  0  0
   45.8520   27.2730   45.8130 C   0  0  0  0  0  0  0  0  0  0  0  0
   49.0760   30.8760   44.5550 H   0  0  0  0  0  0  0  0  0  0  0  0
   43.2900   29.0760   45.2820 H   0  0  0  0  0  0  0  0  0  0  0  0
   43.7870   29.0840   47.0680 H   0  0  0  0  0  0  0  0  0  0  0  0
   42.7100   26.9590   46.8700 H   0  0  0  0  0  0  0  0  0  0  0  0
   43.2310   26.7950   45.1090 H   0  0  0  0  0  0  0  0  0  0  0  0
   44.8870   26.5070   47.6020 H   0  0  0  0  0  0  0  0  0  0  0  0
   44.8130   25.3890   46.1870 H   0  0  0  0  0  0  0  0  0  0  0  0
   46.7230   27.2270   46.5350 H   0  0  0  0  0  0  0  0  0  0  0  0
   46.0760   26.7850   44.8460 H   0  0  0  0  0  0  0  0  0  0  0  0
   48.1350   28.5550   45.1980 N   0  0  0  0  0  0  0  0  0  0  0  0
   48.2610   27.7340   44.5650 H   0  0  0  0  0  0  0  0  0  0  0  0
   48.7400   28.4370   46.0630 H   0  0  0  0  0  0  0  0  0  0  0  0
   45.8190   32.0170   38.9040 C   0  0  0  0  0  0  0  0  0  0  0  0
   44.6870   32.2410   39.6860 C   0  0  0  0  0  0  0  0  0  0  0  0
   43.4990   31.5620   39.4440 C   0  0  0  0  0  0  0  0  0  0  0  0
   42.5950   31.7030   40.0250 H   0  0  0  0  0  0  0  0  0  0  0  0
   43.4300   30.6390   38.4020 C   0  0  0  0  0  0  0  0  0  0  0  0
   42.4810   30.1100   38.2240 H   0  0  0  0  0  0  0  0  0  0  0  0
   44.5510   30.4160   37.6260 C   0  0  0  0  0  3  0  0  0  0  0  0
   45.7210   31.0970   37.8790 C   0  0  0  0  0  3  0  0  0  0  0  0
   47.8200   32.3320   40.1340 N   0  0  0  0  0  0  0  0  0  0  0  0
   47.0120   32.7840   39.2470 C   0  0  0  0  0  0  0  0  0  0  0  0
   47.0910   33.9970   38.4850 N   0  0  0  0  0  0  0  0  0  0  0  0
   48.6820   32.8530   40.4050 H   0  0  0  0  0  0  0  0  0  0  0  0
   47.0950   34.9900   38.8040 H   0  0  0  0  0  0  0  0  0  0  0  0
   47.1620   33.9980   37.4330 H   0  0  0  0  0  0  0  0  0  0  0  0
   45.5030   31.5430   42.2000 N   0  0  0  0  0  0  0  0  0  0  0  0
   46.4400   31.0970   42.1260 H   0  0  0  0  0  0  0  0  0  0  0  0
   44.6350   30.9760   42.3690 H   0  0  0  0  0  0  0  0  0  0  0  0
  1 18  1  0  0  0  0
  1  2  1  0  0  0  0
  3  2  2  0  0  0  0
  3 11  1  0  0  0  0
  4  3  1  0  0  0  0
  5 10  1  0  0  0  0
  5  4  2  0  0  0  0
  6  5  1  0  0  0  0
  7  8  1  0  0  0  0
  7  6  2  0  0  0  0
  8  9  2  0  0  0  0
  9 51  1  0  0  0  0
  9 10  1  0  0  0  0
 10  1  2  0  0  0  0
 12  6  1  0  0  0  0
 13  7  1  0  0  0  0
 14 15  1  0  0  0  0
 15 34  1  0  0  0  0
 15 16  2  0  0  0  0
 16 20  1  0  0  0  0
 17 16  1  0  0  0  0
 18 17  2  0  0  0  0
 19 14  2  0  0  0  0
 19 18  1  0  0  0  0
 20 24  1  0  0  0  0
 20 21  1  0  0  0  0
 21 22  1  0  0  0  0
 21 27  1  0  0  0  0
 22 23  1  0  0  0  0
 22 28  1  0  0  0  0
 23 30  1  0  0  0  0
 24 23  1  0  0  0  0
 24 32  1  0  0  0  0
 25 14  1  0  0  0  0
 26 21  1  0  0  0  0
 29 22  1  0  0  0  0
 31 23  1  0  0  0  0
 33 24  1  0  0  0  0
 34 36  1  0  0  0  0
 35 34  1  0  0  0  0
 37 46  1  0  0  0  0
 37 38  1  0  0  0  0
 38  8  1  0  0  0  0
 39 38  2  0  0  0  0
 39 40  1  0  0  0  0
 41 39  1  0  0  0  0
 42 41  1  0  0  0  0
 43 44  1  0  0  0  0
 43 41  2  0  0  0  0
 44 37  2  0  0  0  0
 45 48  1  0  0  0  0
 46 45  2  0  0  0  0
 47 49  1  0  0  0  0
 47 46  1  0  0  0  0
 50 47  1  0  0  0  0
 51 53  1  0  0  0  0
 52 51  1  0  0  0  0
M  END
>  <minimizedAffinity>
-5.22912931

>  <minimizedRMSD>
3.63788843

$$$$
