
 OpenBabel03252501563D

 26 27  0  0  0  0  0  0  0  0999 V2000
   37.0280   30.2680   39.4610 C   0  0  0  0  0  0  0  0  0  0  0  0
   37.5230   29.0140   39.7010 C   0  0  0  0  0  0  0  0  0  0  0  0
   37.9840   28.2890   38.6050 C   0  0  0  0  0  0  0  0  0  0  0  0
   38.3860   27.2920   38.7420 H   0  0  0  0  0  0  0  0  0  0  0  0
   37.9720   28.7580   37.2990 C   0  0  0  0  0  0  0  0  0  0  0  0
   38.3360   28.1690   36.4740 H   0  0  0  0  0  0  0  0  0  0  0  0
   37.4660   30.0290   37.0800 C   0  0  0  0  0  3  0  0  0  0  0  0
   37.0100   30.7450   38.1670 C   0  0  0  0  0  3  0  0  0  0  0  0
   38.9380   28.2690   42.9980 C   0  0  0  0  0  0  0  0  0  0  0  0
   38.7850   28.7200   41.6790 C   0  0  0  0  0  0  0  0  0  0  0  0
   37.5500   28.5130   41.0360 C   0  0  0  0  0  0  0  0  0  0  0  0
   36.6080   27.8920   41.7500 N   0  0  0  0  0  0  0  0  0  0  0  0
   36.7650   27.4660   43.0090 C   0  0  0  0  0  0  0  0  0  0  0  0
   37.9380   27.6390   43.6800 N   0  0  0  0  0  0  0  0  0  0  0  0
   39.8330   28.3670   43.5980 H   0  0  0  0  0  0  0  0  0  0  0  0
   35.8340   26.9960   43.3400 H   0  0  0  0  0  0  0  0  0  0  0  0
   39.9880   29.3720   41.1240 C   0  0  0  0  0  0  0  0  0  0  0  0
   39.9480   29.2970   40.0040 H   0  0  0  0  0  0  0  0  0  0  0  0
   40.8810   28.8050   41.4510 H   0  0  0  0  0  0  0  0  0  0  0  0
   40.0450   30.4480   41.3990 H   0  0  0  0  0  0  0  0  0  0  0  0
   35.6380   30.9680   41.3360 N   0  0  0  0  0  0  0  0  0  0  0  0
   36.4980   31.1980   40.4370 C   0  0  0  0  0  0  0  0  0  0  0  0
   36.9330   32.5740   40.4750 N   0  0  0  0  0  0  0  0  0  0  0  0
   35.2580   31.6160   42.0240 H   0  0  0  0  0  0  0  0  0  0  0  0
   37.7150   32.8390   41.1030 H   0  0  0  0  0  0  0  0  0  0  0  0
   36.4130   33.2240   39.8490 H   0  0  0  0  0  0  0  0  0  0  0  0
  1  2  1  0  0  0  0
  1 22  1  0  0  0  0
  2 11  1  0  0  0  0
  3  4  1  0  0  0  0
  3  2  2  0  0  0  0
  5  3  1  0  0  0  0
  6  5  1  0  0  0  0
  7  5  2  0  0  0  0
  7  8  1  0  0  0  0
  8  1  2  0  0  0  0
  9 15  1  0  0  0  0
  9 14  1  0  0  0  0
 10  9  2  0  0  0  0
 11 10  1  0  0  0  0
 11 12  2  0  0  0  0
 12 13  1  0  0  0  0
 13 16  1  0  0  0  0
 13 14  2  0  0  0  0
 17 20  1  0  0  0  0
 17 19  1  0  0  0  0
 17 10  1  0  0  0  0
 18 17  1  0  0  0  0
 21 24  1  0  0  0  0
 22 23  1  0  0  0  0
 22 21  2  0  0  0  0
 23 25  1  0  0  0  0
 26 23  1  0  0  0  0
M  END
>  <minimizedAffinity>
-5.2533226

$$$$

 OpenBabel03252501563D

 26 27  0  0  0  0  0  0  0  0999 V2000
   36.1660   29.9610   39.2440 C   0  0  0  0  0  0  0  0  0  0  0  0
   37.0050   30.7560   38.5100 C   0  0  0  0  0  0  0  0  0  0  0  0
   37.0750   30.5170   37.1400 C   0  0  0  0  0  0  0  0  0  0  0  0
   37.7230   31.1200   36.5150 H   0  0  0  0  0  0  0  0  0  0  0  0
   36.3520   29.5320   36.4830 C   0  0  0  0  0  0  0  0  0  0  0  0
   36.4310   29.3740   35.4200 H   0  0  0  0  0  0  0  0  0  0  0  0
   35.5100   28.7390   37.2450 C   0  0  0  0  0  3  0  0  0  0  0  0
   35.4430   28.9770   38.6020 C   0  0  0  0  0  3  0  0  0  0  0  0
   39.8840   32.2850   40.1840 C   0  0  0  0  0  0  0  0  0  0  0  0
   39.0490   31.3680   39.5290 C   0  0  0  0  0  0  0  0  0  0  0  0
   37.7530   31.7790   39.1640 C   0  0  0  0  0  0  0  0  0  0  0  0
   37.4210   33.0330   39.4770 N   0  0  0  0  0  0  0  0  0  0  0  0
   38.2260   33.9000   40.1010 C   0  0  0  0  0  0  0  0  0  0  0  0
   39.4890   33.5570   40.4780 N   0  0  0  0  0  0  0  0  0  0  0  0
   40.8960   32.0920   40.5150 H   0  0  0  0  0  0  0  0  0  0  0  0
   37.6940   34.8490   40.2270 H   0  0  0  0  0  0  0  0  0  0  0  0
   39.6660   30.0450   39.3090 C   0  0  0  0  0  0  0  0  0  0  0  0
   38.8470   29.2830   39.2070 H   0  0  0  0  0  0  0  0  0  0  0  0
   40.2480   29.7700   40.2100 H   0  0  0  0  0  0  0  0  0  0  0  0
   40.2820   30.0190   38.3840 H   0  0  0  0  0  0  0  0  0  0  0  0
   35.6490   31.0430   41.3650 N   0  0  0  0  0  0  0  0  0  0  0  0
   35.9320   30.0240   40.6720 C   0  0  0  0  0  0  0  0  0  0  0  0
   36.0070   28.8410   41.4970 N   0  0  0  0  0  0  0  0  0  0  0  0
   35.4840   31.0970   42.3690 H   0  0  0  0  0  0  0  0  0  0  0  0
   35.1410   28.3040   41.6900 H   0  0  0  0  0  0  0  0  0  0  0  0
   36.9580   28.6040   41.8520 H   0  0  0  0  0  0  0  0  0  0  0  0
  1 22  1  0  0  0  0
  2 11  1  0  0  0  0
  2  1  2  0  0  0  0
  3  2  1  0  0  0  0
  4  3  1  0  0  0  0
  5  3  2  0  0  0  0
  5  7  1  0  0  0  0
  6  5  1  0  0  0  0
  7  8  2  0  0  0  0
  8  1  1  0  0  0  0
  9 14  1  0  0  0  0
  9 15  1  0  0  0  0
 10  9  2  0  0  0  0
 11 12  2  0  0  0  0
 11 10  1  0  0  0  0
 12 13  1  0  0  0  0
 13 16  1  0  0  0  0
 13 14  2  0  0  0  0
 17 10  1  0  0  0  0
 17 19  1  0  0  0  0
 18 17  1  0  0  0  0
 20 17  1  0  0  0  0
 21 24  1  0  0  0  0
 22 21  2  0  0  0  0
 22 23  1  0  0  0  0
 23 25  1  0  0  0  0
 23 26  1  0  0  0  0
M  END
>  <minimizedAffinity>
-5.14841843

$$$$

 OpenBabel03252501563D

 26 27  0  0  0  0  0  0  0  0999 V2000
   37.1110   29.1590   41.9030 C   0  0  0  0  0  0  0  0  0  0  0  0
   38.4390   29.4840   41.8260 C   0  0  0  0  0  0  0  0  0  0  0  0
   39.3320   28.6940   42.5460 C   0  0  0  0  0  0  0  0  0  0  0  0
   40.3930   28.9090   42.5180 H   0  0  0  0  0  0  0  0  0  0  0  0
   38.9590   27.6100   43.3280 C   0  0  0  0  0  0  0  0  0  0  0  0
   39.6770   27.0200   43.8720 H   0  0  0  0  0  0  0  0  0  0  0  0
   37.6100   27.3000   43.3900 C   0  0  0  0  0  3  0  0  0  0  0  0
   36.7280   28.0830   42.6770 C   0  0  0  0  0  3  0  0  0  0  0  0
   39.6230   31.2260   38.8280 C   0  0  0  0  0  0  0  0  0  0  0  0
   39.2010   30.2240   39.7140 C   0  0  0  0  0  0  0  0  0  0  0  0
   38.8460   30.5910   41.0260 C   0  0  0  0  0  0  0  0  0  0  0  0
   38.9400   31.8900   41.3220 N   0  0  0  0  0  0  0  0  0  0  0  0
   39.3430   32.8380   40.4680 C   0  0  0  0  0  0  0  0  0  0  0  0
   39.7000   32.5400   39.1880 N   0  0  0  0  0  0  0  0  0  0  0  0
   39.9210   31.0740   37.8000 H   0  0  0  0  0  0  0  0  0  0  0  0
   39.3230   33.8050   40.9810 H   0  0  0  0  0  0  0  0  0  0  0  0
   39.1930   28.8690   39.1280 C   0  0  0  0  0  0  0  0  0  0  0  0
   39.2840   28.1210   39.9610 H   0  0  0  0  0  0  0  0  0  0  0  0
   40.0920   28.7520   38.4930 H   0  0  0  0  0  0  0  0  0  0  0  0
   38.2520   28.6590   38.5730 H   0  0  0  0  0  0  0  0  0  0  0  0
   35.7480   31.0690   41.2470 N   0  0  0  0  0  0  0  0  0  0  0  0
   36.0090   29.8320   41.2460 C   0  0  0  0  0  0  0  0  0  0  0  0
   35.0360   29.0970   40.4740 N   0  0  0  0  0  0  0  0  0  0  0  0
   34.9750   31.5500   40.7900 H   0  0  0  0  0  0  0  0  0  0  0  0
   35.1770   28.9910   39.4510 H   0  0  0  0  0  0  0  0  0  0  0  0
   34.2330   28.7120   41.0160 H   0  0  0  0  0  0  0  0  0  0  0  0
  1  8  1  0  0  0  0
  2  1  2  0  0  0  0
  2  3  1  0  0  0  0
  3  5  2  0  0  0  0
  4  3  1  0  0  0  0
  5  7  1  0  0  0  0
  5  6  1  0  0  0  0
  8  7  2  0  0  0  0
  9 14  2  0  0  0  0
  9 10  1  0  0  0  0
 10 11  2  0  0  0  0
 11 12  1  0  0  0  0
 11  2  1  0  0  0  0
 13 16  1  0  0  0  0
 13 12  2  0  0  0  0
 14 13  1  0  0  0  0
 15  9  1  0  0  0  0
 17 10  1  0  0  0  0
 17 18  1  0  0  0  0
 19 17  1  0  0  0  0
 20 17  1  0  0  0  0
 22 21  2  0  0  0  0
 22  1  1  0  0  0  0
 23 26  1  0  0  0  0
 23 22  1  0  0  0  0
 24 21  1  0  0  0  0
 25 23  1  0  0  0  0
M  END
>  <minimizedAffinity>
-5.07635069

$$$$

 OpenBabel03252501563D

 26 27  0  0  0  0  0  0  0  0999 V2000
   36.8140   28.7380   41.3560 C   0  0  0  0  0  0  0  0  0  0  0  0
   38.1030   28.7130   40.8940 C   0  0  0  0  0  0  0  0  0  0  0  0
   38.9680   27.7830   41.4650 C   0  0  0  0  0  0  0  0  0  0  0  0
   39.9970   27.7220   41.1330 H   0  0  0  0  0  0  0  0  0  0  0  0
   38.6040   26.8900   42.4630 C   0  0  0  0  0  0  0  0  0  0  0  0
   39.3000   26.1830   42.8830 H   0  0  0  0  0  0  0  0  0  0  0  0
   37.2950   26.9340   42.9150 C   0  0  0  0  0  3  0  0  0  0  0  0
   36.4410   27.8560   42.3490 C   0  0  0  0  0  3  0  0  0  0  0  0
   39.5740   31.7390   39.4420 C   0  0  0  0  0  0  0  0  0  0  0  0
   39.1400   30.7690   40.3570 C   0  0  0  0  0  0  0  0  0  0  0  0
   38.4980   29.6180   39.8650 C   0  0  0  0  0  0  0  0  0  0  0  0
   38.3520   29.5430   38.5400 N   0  0  0  0  0  0  0  0  0  0  0  0
   38.7710   30.4750   37.6750 C   0  0  0  0  0  0  0  0  0  0  0  0
   39.3980   31.6090   38.0960 N   0  0  0  0  0  0  0  0  0  0  0  0
   40.0770   32.6630   39.6940 H   0  0  0  0  0  0  0  0  0  0  0  0
   38.5200   30.1510   36.6600 H   0  0  0  0  0  0  0  0  0  0  0  0
   39.4240   31.1050   41.7670 C   0  0  0  0  0  0  0  0  0  0  0  0
   38.6950   30.5510   42.4180 H   0  0  0  0  0  0  0  0  0  0  0  0
   39.2320   32.1840   41.9200 H   0  0  0  0  0  0  0  0  0  0  0  0
   40.4520   30.8100   42.0680 H   0  0  0  0  0  0  0  0  0  0  0  0
   34.7750   29.3260   40.1600 N   0  0  0  0  0  0  0  0  0  0  0  0
   35.7470   29.6130   40.9160 C   0  0  0  0  0  0  0  0  0  0  0  0
   35.6910   30.9950   41.3300 N   0  0  0  0  0  0  0  0  0  0  0  0
   34.0210   29.9350   39.8440 H   0  0  0  0  0  0  0  0  0  0  0  0
   35.1370   31.2490   42.1700 H   0  0  0  0  0  0  0  0  0  0  0  0
   36.2290   31.6620   40.7370 H   0  0  0  0  0  0  0  0  0  0  0  0
  1  8  1  0  0  0  0
  2  1  2  0  0  0  0
  2  3  1  0  0  0  0
  3  5  2  0  0  0  0
  4  3  1  0  0  0  0
  5  6  1  0  0  0  0
  5  7  1  0  0  0  0
  8  7  2  0  0  0  0
  9 15  1  0  0  0  0
  9 10  1  0  0  0  0
 10 17  1  0  0  0  0
 11 10  2  0  0  0  0
 11  2  1  0  0  0  0
 12 11  1  0  0  0  0
 13 14  1  0  0  0  0
 13 12  2  0  0  0  0
 14  9  2  0  0  0  0
 16 13  1  0  0  0  0
 17 19  1  0  0  0  0
 17 20  1  0  0  0  0
 17 18  1  0  0  0  0
 21 22  2  0  0  0  0
 22 23  1  0  0  0  0
 22  1  1  0  0  0  0
 23 25  1  0  0  0  0
 24 21  1  0  0  0  0
 26 23  1  0  0  0  0
M  END
>  <minimizedAffinity>
-4.94646454

$$$$

 OpenBabel03252501563D

 26 27  0  0  0  0  0  0  0  0999 V2000
   36.6940   27.9570   41.2590 C   0  0  0  0  0  0  0  0  0  0  0  0
   37.4890   27.0470   40.6140 C   0  0  0  0  0  0  0  0  0  0  0  0
   37.2510   26.8390   39.2580 C   0  0  0  0  0  0  0  0  0  0  0  0
   37.8530   26.1300   38.7030 H   0  0  0  0  0  0  0  0  0  0  0  0
   36.2660   27.4910   38.5310 C   0  0  0  0  0  0  0  0  0  0  0  0
   36.1080   27.3050   37.4820 H   0  0  0  0  0  0  0  0  0  0  0  0
   35.4730   28.4070   39.2040 C   0  0  0  0  0  3  0  0  0  0  0  0
   35.7110   28.6120   40.5470 C   0  0  0  0  0  3  0  0  0  0  0  0
   39.0220   24.3420   42.5540 C   0  0  0  0  0  0  0  0  0  0  0  0
   38.1060   25.1080   41.8190 C   0  0  0  0  0  0  0  0  0  0  0  0
   38.5110   26.3680   41.3410 C   0  0  0  0  0  0  0  0  0  0  0  0
   39.7610   26.7370   41.6330 N   0  0  0  0  0  0  0  0  0  0  0  0
   40.6280   25.9970   42.3340 C   0  0  0  0  0  0  0  0  0  0  0  0
   40.2890   24.7710   42.8210 N   0  0  0  0  0  0  0  0  0  0  0  0
   38.8330   23.3630   42.9730 H   0  0  0  0  0  0  0  0  0  0  0  0
   41.5720   26.5460   42.4190 H   0  0  0  0  0  0  0  0  0  0  0  0
   36.7880   24.4640   41.6450 C   0  0  0  0  0  0  0  0  0  0  0  0
   36.0220   25.2650   41.4640 H   0  0  0  0  0  0  0  0  0  0  0  0
   36.5100   23.9640   42.5930 H   0  0  0  0  0  0  0  0  0  0  0  0
   36.7750   23.7670   40.7790 H   0  0  0  0  0  0  0  0  0  0  0  0
   37.3400   29.3370   43.1610 N   0  0  0  0  0  0  0  0  0  0  0  0
   36.7570   28.3340   42.6570 C   0  0  0  0  0  0  0  0  0  0  0  0
   36.1130   27.5420   43.6770 N   0  0  0  0  0  0  0  0  0  0  0  0
   37.3910   29.6090   44.1410 H   0  0  0  0  0  0  0  0  0  0  0  0
   35.1480   27.7860   43.9720 H   0  0  0  0  0  0  0  0  0  0  0  0
   36.6810   26.7550   44.0570 H   0  0  0  0  0  0  0  0  0  0  0  0
  1 22  1  0  0  0  0
  2  1  1  0  0  0  0
  2 11  1  0  0  0  0
  3  2  2  0  0  0  0
  4  3  1  0  0  0  0
  5  7  2  0  0  0  0
  5  3  1  0  0  0  0
  6  5  1  0  0  0  0
  7  8  1  0  0  0  0
  8  1  2  0  0  0  0
  9 14  1  0  0  0  0
  9 15  1  0  0  0  0
 10  9  2  0  0  0  0
 11 12  2  0  0  0  0
 11 10  1  0  0  0  0
 12 13  1  0  0  0  0
 13 16  1  0  0  0  0
 13 14  2  0  0  0  0
 17 10  1  0  0  0  0
 17 19  1  0  0  0  0
 18 17  1  0  0  0  0
 20 17  1  0  0  0  0
 21 24  1  0  0  0  0
 22 21  2  0  0  0  0
 22 23  1  0  0  0  0
 23 25  1  0  0  0  0
 23 26  1  0  0  0  0
M  END
>  <minimizedAffinity>
-4.93429232

$$$$

 OpenBabel03252501563D

 26 27  0  0  0  0  0  0  0  0999 V2000
   36.7720   29.7480   39.4730 C   0  0  0  0  0  0  0  0  0  0  0  0
   37.8710   28.9510   39.6550 C   0  0  0  0  0  0  0  0  0  0  0  0
   38.7090   28.7610   38.5590 C   0  0  0  0  0  0  0  0  0  0  0  0
   39.5920   28.1400   38.6510 H   0  0  0  0  0  0  0  0  0  0  0  0
   38.4980   29.3250   37.3090 C   0  0  0  0  0  0  0  0  0  0  0  0
   39.1670   29.1560   36.4820 H   0  0  0  0  0  0  0  0  0  0  0  0
   37.3800   30.1270   37.1490 C   0  0  0  0  0  3  0  0  0  0  0  0
   36.5510   30.3140   38.2350 C   0  0  0  0  0  3  0  0  0  0  0  0
   37.7070   26.4030   42.2830 C   0  0  0  0  0  0  0  0  0  0  0  0
   37.5430   27.0840   41.0680 C   0  0  0  0  0  0  0  0  0  0  0  0
   38.1100   28.3660   40.9320 C   0  0  0  0  0  0  0  0  0  0  0  0
   38.7700   28.8360   41.9940 N   0  0  0  0  0  0  0  0  0  0  0  0
   38.9200   28.1760   43.1490 C   0  0  0  0  0  0  0  0  0  0  0  0
   38.3930   26.9340   43.3360 N   0  0  0  0  0  0  0  0  0  0  0  0
   37.3220   25.4190   42.5110 H   0  0  0  0  0  0  0  0  0  0  0  0
   39.5020   28.7990   43.8370 H   0  0  0  0  0  0  0  0  0  0  0  0
   36.7650   26.3350   40.0600 C   0  0  0  0  0  0  0  0  0  0  0  0
   36.3160   27.0710   39.3400 H   0  0  0  0  0  0  0  0  0  0  0  0
   35.9220   25.8290   40.5680 H   0  0  0  0  0  0  0  0  0  0  0  0
   37.4000   25.6280   39.4840 H   0  0  0  0  0  0  0  0  0  0  0  0
   35.7800   31.0510   41.2780 N   0  0  0  0  0  0  0  0  0  0  0  0
   35.7670   30.0860   40.4610 C   0  0  0  0  0  0  0  0  0  0  0  0
   34.5700   29.2930   40.6140 N   0  0  0  0  0  0  0  0  0  0  0  0
   35.0790   31.2950   41.9760 H   0  0  0  0  0  0  0  0  0  0  0  0
   33.7130   29.5670   40.0980 H   0  0  0  0  0  0  0  0  0  0  0  0
   34.6550   28.4750   41.2540 H   0  0  0  0  0  0  0  0  0  0  0  0
  1  2  1  0  0  0  0
  1 22  1  0  0  0  0
  2 11  1  0  0  0  0
  3  4  1  0  0  0  0
  3  2  2  0  0  0  0
  5  3  1  0  0  0  0
  6  5  1  0  0  0  0
  7  5  2  0  0  0  0
  7  8  1  0  0  0  0
  8  1  2  0  0  0  0
  9 15  1  0  0  0  0
  9 14  1  0  0  0  0
 10  9  2  0  0  0  0
 11 10  1  0  0  0  0
 11 12  2  0  0  0  0
 12 13  1  0  0  0  0
 13 14  2  0  0  0  0
 13 16  1  0  0  0  0
 17 19  1  0  0  0  0
 17 10  1  0  0  0  0
 18 17  1  0  0  0  0
 20 17  1  0  0  0  0
 21 24  1  0  0  0  0
 22 23  1  0  0  0  0
 22 21  2  0  0  0  0
 23 26  1  0  0  0  0
 25 23  1  0  0  0  0
M  END
>  <minimizedAffinity>
-4.88841343

$$$$

 OpenBabel03252501563D

 26 27  0  0  0  0  0  0  0  0999 V2000
   36.8750   30.2260   38.2930 C   0  0  0  0  0  0  0  0  0  0  0  0
   36.6780   30.8160   39.5130 C   0  0  0  0  0  0  0  0  0  0  0  0
   35.6700   30.2930   40.3190 C   0  0  0  0  0  0  0  0  0  0  0  0
   35.4750   30.7240   41.2940 H   0  0  0  0  0  0  0  0  0  0  0  0
   34.8630   29.2220   39.9630 C   0  0  0  0  0  0  0  0  0  0  0  0
   34.0910   28.8430   40.6120 H   0  0  0  0  0  0  0  0  0  0  0  0
   35.0800   28.6420   38.7240 C   0  0  0  0  0  3  0  0  0  0  0  0
   36.0780   29.1610   37.9270 C   0  0  0  0  0  3  0  0  0  0  0  0
   39.4920   32.5220   41.1240 C   0  0  0  0  0  0  0  0  0  0  0  0
   38.6090   31.5290   40.6760 C   0  0  0  0  0  0  0  0  0  0  0  0
   37.4990   31.9150   39.9020 C   0  0  0  0  0  0  0  0  0  0  0  0
   37.3770   33.2210   39.6520 N   0  0  0  0  0  0  0  0  0  0  0  0
   38.2270   34.1600   40.0840 C   0  0  0  0  0  0  0  0  0  0  0  0
   39.3180   33.8440   40.8370 N   0  0  0  0  0  0  0  0  0  0  0  0
   40.3770   32.3550   41.7240 H   0  0  0  0  0  0  0  0  0  0  0  0
   37.8820   35.1370   39.7310 H   0  0  0  0  0  0  0  0  0  0  0  0
   38.9770   30.1630   41.1000 C   0  0  0  0  0  0  0  0  0  0  0  0
   38.0490   29.5290   41.0980 H   0  0  0  0  0  0  0  0  0  0  0  0
   39.3370   30.2000   42.1450 H   0  0  0  0  0  0  0  0  0  0  0  0
   39.7170   29.6980   40.4130 H   0  0  0  0  0  0  0  0  0  0  0  0
   38.8560   29.9260   36.9060 N   0  0  0  0  0  0  0  0  0  0  0  0
   37.8560   30.5960   37.2930 C   0  0  0  0  0  0  0  0  0  0  0  0
   37.7770   31.8580   36.5960 N   0  0  0  0  0  0  0  0  0  0  0  0
   39.5510   30.1790   36.2060 H   0  0  0  0  0  0  0  0  0  0  0  0
   37.2840   31.9020   35.6840 H   0  0  0  0  0  0  0  0  0  0  0  0
   38.2360   32.6630   37.0740 H   0  0  0  0  0  0  0  0  0  0  0  0
  1  2  1  0  0  0  0
  2 11  1  0  0  0  0
  2  3  2  0  0  0  0
  3  4  1  0  0  0  0
  5  3  1  0  0  0  0
  5  6  1  0  0  0  0
  7  5  2  0  0  0  0
  8  1  2  0  0  0  0
  8  7  1  0  0  0  0
  9 15  1  0  0  0  0
 10 17  1  0  0  0  0
 10  9  2  0  0  0  0
 11 10  1  0  0  0  0
 12 11  2  0  0  0  0
 12 13  1  0  0  0  0
 13 14  2  0  0  0  0
 14  9  1  0  0  0  0
 16 13  1  0  0  0  0
 17 19  1  0  0  0  0
 18 17  1  0  0  0  0
 20 17  1  0  0  0  0
 21 22  2  0  0  0  0
 22  1  1  0  0  0  0
 23 26  1  0  0  0  0
 23 22  1  0  0  0  0
 24 21  1  0  0  0  0
 25 23  1  0  0  0  0
M  END
>  <minimizedAffinity>
-4.88556767

$$$$

 OpenBabel03252501563D

 26 27  0  0  0  0  0  0  0  0999 V2000
   35.7570   29.5470   39.3680 C   0  0  0  0  0  0  0  0  0  0  0  0
   36.7790   29.6770   38.4660 C   0  0  0  0  0  0  0  0  0  0  0  0
   36.4880   29.4150   37.1290 C   0  0  0  0  0  0  0  0  0  0  0  0
   37.2620   29.5060   36.3770 H   0  0  0  0  0  0  0  0  0  0  0  0
   35.2380   29.0340   36.6640 C   0  0  0  0  0  0  0  0  0  0  0  0
   35.0480   28.8390   35.6220 H   0  0  0  0  0  0  0  0  0  0  0  0
   34.2190   28.9080   37.5940 C   0  0  0  0  0  3  0  0  0  0  0  0
   34.5100   29.1680   38.9170 C   0  0  0  0  0  3  0  0  0  0  0  0
   39.4780   31.9840   39.3720 C   0  0  0  0  0  0  0  0  0  0  0  0
   38.2460   31.4690   38.9450 C   0  0  0  0  0  0  0  0  0  0  0  0
   38.0710   30.0730   38.9210 C   0  0  0  0  0  0  0  0  0  0  0  0
   39.1150   29.3400   39.3160 N   0  0  0  0  0  0  0  0  0  0  0  0
   40.2870   29.8420   39.7230 C   0  0  0  0  0  0  0  0  0  0  0  0
   40.5110   31.1850   39.7650 N   0  0  0  0  0  0  0  0  0  0  0  0
   39.7360   33.0330   39.4350 H   0  0  0  0  0  0  0  0  0  0  0  0
   40.9530   29.0140   39.9850 H   0  0  0  0  0  0  0  0  0  0  0  0
   37.2650   32.5030   38.5590 C   0  0  0  0  0  0  0  0  0  0  0  0
   36.5270   32.0450   37.8470 H   0  0  0  0  0  0  0  0  0  0  0  0
   37.7910   33.3030   38.0040 H   0  0  0  0  0  0  0  0  0  0  0  0
   36.7040   32.8950   39.4360 H   0  0  0  0  0  0  0  0  0  0  0  0
   35.6650   30.8540   41.4230 N   0  0  0  0  0  0  0  0  0  0  0  0
   35.8240   29.7650   40.7980 C   0  0  0  0  0  0  0  0  0  0  0  0
   36.0980   28.6800   41.7100 N   0  0  0  0  0  0  0  0  0  0  0  0
   35.7110   31.0160   42.4270 H   0  0  0  0  0  0  0  0  0  0  0  0
   35.3050   28.1650   42.1360 H   0  0  0  0  0  0  0  0  0  0  0  0
   37.1070   28.4850   41.8820 H   0  0  0  0  0  0  0  0  0  0  0  0
  1 22  1  0  0  0  0
  2 11  1  0  0  0  0
  2  1  2  0  0  0  0
  3  2  1  0  0  0  0
  4  3  1  0  0  0  0
  5  3  2  0  0  0  0
  5  7  1  0  0  0  0
  6  5  1  0  0  0  0
  7  8  2  0  0  0  0
  8  1  1  0  0  0  0
  9 15  1  0  0  0  0
  9 14  1  0  0  0  0
 10  9  2  0  0  0  0
 11 10  1  0  0  0  0
 11 12  2  0  0  0  0
 12 13  1  0  0  0  0
 13 14  2  0  0  0  0
 13 16  1  0  0  0  0
 17 10  1  0  0  0  0
 17 20  1  0  0  0  0
 18 17  1  0  0  0  0
 19 17  1  0  0  0  0
 21 24  1  0  0  0  0
 22 21  2  0  0  0  0
 22 23  1  0  0  0  0
 23 26  1  0  0  0  0
 23 25  1  0  0  0  0
M  END
>  <minimizedAffinity>
-4.87018061

$$$$

 OpenBabel03252501563D

 26 27  0  0  0  0  0  0  0  0999 V2000
   36.2880   28.2090   41.2510 C   0  0  0  0  0  0  0  0  0  0  0  0
   36.6650   27.1520   40.4660 C   0  0  0  0  0  0  0  0  0  0  0  0
   36.2210   27.1460   39.1470 C   0  0  0  0  0  0  0  0  0  0  0  0
   36.4940   26.3320   38.4850 H   0  0  0  0  0  0  0  0  0  0  0  0
   35.4290   28.1370   38.5860 C   0  0  0  0  0  0  0  0  0  0  0  0
   35.1020   28.1000   37.5600 H   0  0  0  0  0  0  0  0  0  0  0  0
   35.0590   29.1970   39.3980 C   0  0  0  0  0  3  0  0  0  0  0  0
   35.4990   29.2010   40.7050 C   0  0  0  0  0  3  0  0  0  0  0  0
   39.7650   25.3620   41.2510 C   0  0  0  0  0  0  0  0  0  0  0  0
   38.8550   26.3090   40.7610 C   0  0  0  0  0  0  0  0  0  0  0  0
   37.4840   26.1240   41.0200 C   0  0  0  0  0  0  0  0  0  0  0  0
   37.1580   25.0400   41.7270 N   0  0  0  0  0  0  0  0  0  0  0  0
   38.0350   24.1420   42.1910 C   0  0  0  0  0  0  0  0  0  0  0  0
   39.3730   24.2710   41.9700 N   0  0  0  0  0  0  0  0  0  0  0  0
   40.8380   25.3910   41.1200 H   0  0  0  0  0  0  0  0  0  0  0  0
   37.4880   23.3620   42.7320 H   0  0  0  0  0  0  0  0  0  0  0  0
   39.4850   27.4120   40.0060 C   0  0  0  0  0  0  0  0  0  0  0  0
   38.7210   27.8450   39.3060 H   0  0  0  0  0  0  0  0  0  0  0  0
   40.2940   26.9940   39.3770 H   0  0  0  0  0  0  0  0  0  0  0  0
   39.8440   28.2240   40.6740 H   0  0  0  0  0  0  0  0  0  0  0  0
   37.3490   29.3460   43.1270 N   0  0  0  0  0  0  0  0  0  0  0  0
   36.6270   28.4280   42.6420 C   0  0  0  0  0  0  0  0  0  0  0  0
   36.1350   27.5530   43.6800 N   0  0  0  0  0  0  0  0  0  0  0  0
   37.5940   29.5060   44.1030 H   0  0  0  0  0  0  0  0  0  0  0  0
   35.2570   27.7980   44.1740 H   0  0  0  0  0  0  0  0  0  0  0  0
   36.7170   26.7080   43.8650 H   0  0  0  0  0  0  0  0  0  0  0  0
  1 22  1  0  0  0  0
  2 11  1  0  0  0  0
  2  1  2  0  0  0  0
  3  2  1  0  0  0  0
  4  3  1  0  0  0  0
  5  3  2  0  0  0  0
  5  7  1  0  0  0  0
  6  5  1  0  0  0  0
  7  8  2  0  0  0  0
  8  1  1  0  0  0  0
  9 14  1  0  0  0  0
 10 11  1  0  0  0  0
 10  9  2  0  0  0  0
 11 12  2  0  0  0  0
 12 13  1  0  0  0  0
 13 16  1  0  0  0  0
 14 13  2  0  0  0  0
 15  9  1  0  0  0  0
 17 20  1  0  0  0  0
 17 10  1  0  0  0  0
 18 17  1  0  0  0  0
 19 17  1  0  0  0  0
 21 24  1  0  0  0  0
 22 21  2  0  0  0  0
 22 23  1  0  0  0  0
 23 26  1  0  0  0  0
 23 25  1  0  0  0  0
M  END
>  <minimizedAffinity>
-4.81823921

$$$$
