
 OpenBabel03252501553D

 26 27  0  0  0  0  0  0  0  0999 V2000
   47.6600   34.4260   41.2330 C   0  0  0  0  0  0  0  0  0  0  0  0
   46.4260   33.9910   41.6390 C   0  0  0  0  0  0  0  0  0  0  0  0
   45.6030   33.4150   40.6740 C   0  0  0  0  0  0  0  0  0  0  0  0
   44.6190   33.0550   40.9430 H   0  0  0  0  0  0  0  0  0  0  0  0
   45.9580   33.2560   39.3420 C   0  0  0  0  0  0  0  0  0  0  0  0
   45.2960   32.8050   38.6210 H   0  0  0  0  0  0  0  0  0  0  0  0
   47.2110   33.7030   38.9550 C   0  0  0  0  0  3  0  0  0  0  0  0
   48.0240   34.2720   39.9120 C   0  0  0  0  0  3  0  0  0  0  0  0
   44.6680   35.4340   44.5120 C   0  0  0  0  0  0  0  0  0  0  0  0
   45.1200   35.1840   43.2080 C   0  0  0  0  0  0  0  0  0  0  0  0
   46.0420   34.1410   43.0040 C   0  0  0  0  0  0  0  0  0  0  0  0
   46.4160   33.4610   44.0910 N   0  0  0  0  0  0  0  0  0  0  0  0
   45.9770   33.7080   45.3300 C   0  0  0  0  0  0  0  0  0  0  0  0
   45.0860   34.7060   45.5860 N   0  0  0  0  0  0  0  0  0  0  0  0
   43.9630   36.2040   44.7980 H   0  0  0  0  0  0  0  0  0  0  0  0
   46.4500   33.0000   46.0190 H   0  0  0  0  0  0  0  0  0  0  0  0
   44.5480   36.0890   42.1900 C   0  0  0  0  0  0  0  0  0  0  0  0
   45.2510   36.1280   41.3150 H   0  0  0  0  0  0  0  0  0  0  0  0
   44.5030   37.1120   42.6100 H   0  0  0  0  0  0  0  0  0  0  0  0
   43.5590   35.7360   41.8260 H   0  0  0  0  0  0  0  0  0  0  0  0
   49.2060   34.5990   43.1090 N   0  0  0  0  0  0  0  0  0  0  0  0
   48.6770   35.0520   42.0540 C   0  0  0  0  0  0  0  0  0  0  0  0
   49.2190   36.3470   41.7170 N   0  0  0  0  0  0  0  0  0  0  0  0
   49.9190   35.0330   43.6940 H   0  0  0  0  0  0  0  0  0  0  0  0
   50.0840   36.4000   41.1460 H   0  0  0  0  0  0  0  0  0  0  0  0
   48.6860   37.1630   42.0840 H   0  0  0  0  0  0  0  0  0  0  0  0
  1  2  1  0  0  0  0
  1 22  1  0  0  0  0
  2 11  1  0  0  0  0
  3  4  1  0  0  0  0
  3  2  2  0  0  0  0
  5  3  1  0  0  0  0
  6  5  1  0  0  0  0
  7  5  2  0  0  0  0
  7  8  1  0  0  0  0
  8  1  2  0  0  0  0
  9 15  1  0  0  0  0
  9 14  1  0  0  0  0
 10  9  2  0  0  0  0
 11 10  1  0  0  0  0
 11 12  2  0  0  0  0
 12 13  1  0  0  0  0
 13 14  2  0  0  0  0
 13 16  1  0  0  0  0
 17 19  1  0  0  0  0
 17 10  1  0  0  0  0
 18 17  1  0  0  0  0
 20 17  1  0  0  0  0
 21 24  1  0  0  0  0
 22 21  2  0  0  0  0
 23 22  1  0  0  0  0
 23 26  1  0  0  0  0
 25 23  1  0  0  0  0
M  END
>  <minimizedAffinity>
-5.04705954

>  <minimizedRMSD>
1.37178659

$$$$
