
     RDKit          3D

 43 46  0  0  0  0  0  0  0  0999 V2000
   39.9737   34.8788   40.2374 C   0  0  0  0  0  0  0  0  0  0  0  0
   40.9813   34.3972   41.0544 C   0  0  0  0  0  0  0  0  0  0  0  0
   40.9129   33.1270   41.5818 C   0  0  0  0  0  0  0  0  0  0  0  0
   39.8502   32.2851   41.3240 C   0  0  0  0  0  0  0  0  0  0  0  0
   38.8252   32.7775   40.4917 C   0  0  0  0  0  0  0  0  0  0  0  0
   38.8705   34.0564   39.9466 C   0  0  0  0  0  0  0  0  0  0  0  0
   37.8611   31.7550   40.3735 O   0  0  0  0  0  0  0  0  0  0  0  0
   38.1540   30.8107   41.3786 C   0  0  0  0  0  0  0  0  0  0  0  0
   39.5153   30.9869   41.7048 O   0  0  0  0  0  0  0  0  0  0  0  0
   42.3268   35.5162   41.3572 S   0  0  0  0  0  0  0  0  0  0  0  0
   43.9088   34.7551   40.9441 C   0  0  0  0  0  0  0  0  0  0  0  0
   43.8745   33.8005   39.9550 C   0  0  0  0  0  0  0  0  0  0  0  0
   45.0686   33.1824   39.5951 C   0  0  0  0  0  0  0  0  0  0  0  0
   46.1950   33.5564   40.2431 N   0  0  0  0  0  0  0  0  0  0  0  0
   46.1999   34.4975   41.2124 C   0  0  0  0  0  0  0  0  0  0  0  0
   45.0571   35.0765   41.5415 N   0  0  0  0  0  0  0  0  0  0  0  0
   47.3206   34.9064   41.8943 O   0  0  0  0  0  0  0  0  0  0  0  0
   48.5381   35.0401   41.2249 C   0  0  0  0  0  0  0  0  0  0  0  0
   49.3581   33.9680   41.3812 F   0  0  0  0  0  0  0  0  0  0  0  0
   48.1892   35.2904   39.8828 F   0  0  0  0  0  0  0  0  0  0  0  0
   49.1800   36.1530   41.7667 F   0  0  0  0  0  0  0  0  0  0  0  0
   39.9546   35.8680   39.7834 H   0  0  0  0  0  0  0  0  0  0  0  0
   41.7032   32.7750   42.2110 H   0  0  0  0  0  0  0  0  0  0  0  0
   38.0588   34.3929   39.3114 H   0  0  0  0  0  0  0  0  0  0  0  0
   38.0456   29.7934   40.9346 H   0  0  0  0  0  0  0  0  0  0  0  0
   37.4841   30.8845   42.2525 H   0  0  0  0  0  0  0  0  0  0  0  0
   42.9566   33.5081   39.4877 H   0  0  0  0  0  0  0  0  0  0  0  0
   42.7682   30.8181   40.2089 N   0  0  0  0  0  0  0  0  0  0  0  0
   43.9069   30.3882   39.7583 C   0  0  0  0  0  0  0  0  0  0  0  0
   44.1451   29.2519   40.5719 N   0  0  0  0  0  0  0  0  0  0  0  0
   44.7814   30.8677   38.7097 C   0  0  0  0  0  0  0  0  0  0  0  0
   45.2550   32.1290   38.6254 C   0  0  0  0  0  0  0  0  0  0  0  0
   45.9685   32.3770   37.4726 C   0  0  0  0  0  0  0  0  0  0  0  0
   46.4003   33.3544   37.2830 H   0  0  0  0  0  0  0  0  0  0  0  0
   46.2033   31.4567   36.4781 C   0  0  0  0  0  0  0  0  0  0  0  0
   46.7724   31.7025   35.5888 H   0  0  0  0  0  0  0  0  0  0  0  0
   45.7065   30.1798   36.6028 C   0  0  0  0  0  0  0  0  0  0  0  0
   44.9752   29.8804   37.7524 C   0  0  0  0  0  0  0  0  0  0  0  0
   42.3205   30.2999   40.9824 H   0  0  0  0  0  0  0  0  0  0  0  0
   43.6858   28.3694   40.2147 H   0  0  0  0  0  0  0  0  0  0  0  0
   44.6060   28.8716   41.4291 H   0  0  0  0  0  0  0  0  0  0  0  0
   45.9003   29.4709   35.8158 H   0  0  0  0  0  0  0  0  0  0  0  0
   44.6201   28.8730   37.7834 H   0  0  0  0  0  0  0  0  0  0  0  0
  1  2  2  0
  2 10  1  0
  2  3  1  0
  4  3  2  0
  4  9  1  0
  5  4  1  0
  6  1  1  0
  6  5  2  0
  7  5  1  0
  7  8  1  0
  8  9  1  0
 11 10  1  0
 11 16  1  0
 12 11  2  0
 13 12  1  0
 13 14  2  0
 14 15  1  0
 15 16  2  0
 15 17  1  0
 18 19  1  0
 18 21  1  0
 18 17  1  0
 20 18  1  0
  1 22  1  0
  3 23  1  0
  6 24  1  0
  8 25  1  0
  8 26  1  0
 12 27  1  0
 28 29  2  3
 29 30  1  0
 29 31  1  0
 31 32  2  0
 32 33  1  0
 33 34  1  0
 33 35  2  0
 35 36  1  0
 35 37  1  0
 37 38  2  0
 38 31  1  0
 28 39  1  0
 30 40  1  0
 30 41  1  0
 37 42  1  0
 38 43  1  0
 13 32  1  0
M  ISO  8  22  14  23  14  24  14  25  13  26  13  27  14  34  15  36  16
M  END
>  <DihAtoms>  (1) 
11,12,31,30

>  <DihDeg>  (1) 
24.422202337537563

$$$$
