
 OpenBabel03252502043D

 51 55  0  0  0  0  0  0  0  0999 V2000
   45.4200   33.6020   45.0010 C   0  0  0  0  0  0  0  0  0  0  0  0
   44.9540   34.6530   45.7320 N   0  0  0  0  0  0  0  0  0  0  0  0
   44.4590   35.7790   45.2220 C   0  0  0  0  0  0  0  0  0  0  0  0
   44.4020   35.9250   43.8810 N   0  0  0  0  0  0  0  0  0  0  0  0
   44.8340   34.9560   43.0540 C   0  0  0  0  0  0  0  0  0  0  0  0
   44.7520   35.1250   41.7030 C   0  0  0  0  0  0  0  0  0  0  0  0
   45.1790   34.1240   40.8530 C   0  0  0  0  0  0  0  0  0  0  0  0
   45.6880   32.9610   41.4200 C   0  0  0  0  0  0  0  0  0  0  0  0
   45.7430   32.8600   42.8000 C   0  0  0  0  0  0  0  0  0  0  0  0
   45.3290   33.8260   43.6580 C   0  0  0  0  0  0  0  0  0  0  0  0
   44.1230   36.5330   45.9280 H   0  0  0  0  0  0  0  0  0  0  0  0
   44.3370   36.0770   41.3520 H   0  0  0  0  0  0  0  0  0  0  0  0
   45.0540   34.3870   39.8030 H   0  0  0  0  0  0  0  0  0  0  0  0
   45.9650   32.3080   40.6070 H   0  0  0  0  0  0  0  0  0  0  0  0
   47.8940   31.6080   46.6790 C   0  0  0  0  0  0  0  0  0  0  0  0
   47.3430   30.3450   46.8510 C   0  0  0  0  0  0  0  0  0  0  0  0
   46.0830   30.1650   46.3910 C   0  0  0  0  0  0  0  0  0  0  0  0
   45.4240   31.1700   45.8010 N   0  0  0  0  0  0  0  0  0  0  0  0
   45.9450   32.3890   45.6250 C   0  0  0  0  0  0  0  0  0  0  0  0
   47.1940   32.5610   46.0890 N   0  0  0  0  0  0  0  0  0  0  0  0
   45.4330   28.9480   46.5340 N   0  0  0  0  0  0  0  0  0  0  0  0
   43.9890   28.7180   46.3090 C   0  0  0  0  0  0  0  0  0  0  0  0
   43.8010   27.2280   46.3420 C   0  0  0  0  0  0  0  0  0  0  0  0
   44.9390   26.7470   47.1950 C   0  0  0  0  0  0  0  0  0  0  0  0
   46.0420   27.7070   46.9300 C   0  0  0  0  0  0  0  0  0  0  0  0
   48.9140   31.7650   47.0520 H   0  0  0  0  0  0  0  0  0  0  0  0
   43.7850   29.0570   45.2760 H   0  0  0  0  0  0  0  0  0  0  0  0
   43.3940   29.2720   47.0580 H   0  0  0  0  0  0  0  0  0  0  0  0
   43.7990   26.7590   45.3520 H   0  0  0  0  0  0  0  0  0  0  0  0
   42.8010   27.0270   46.8250 H   0  0  0  0  0  0  0  0  0  0  0  0
   45.1960   25.7120   46.8770 H   0  0  0  0  0  0  0  0  0  0  0  0
   44.5720   26.6810   48.2210 H   0  0  0  0  0  0  0  0  0  0  0  0
   46.7180   27.3290   46.1610 H   0  0  0  0  0  0  0  0  0  0  0  0
   46.5100   27.7510   47.9630 H   0  0  0  0  0  0  0  0  0  0  0  0
   48.1210   29.3320   47.4130 N   0  0  0  0  0  0  0  0  0  0  0  0
   48.6330   28.5360   46.9610 H   0  0  0  0  0  0  0  0  0  0  0  0
   48.2100   29.3740   48.4610 H   0  0  0  0  0  0  0  0  0  0  0  0
   47.6860   31.2890   43.0880 C   0  0  0  0  0  0  0  0  0  0  0  0
   46.3240   31.5400   42.9900 C   0  0  0  0  0  0  0  0  0  0  0  0
   45.5640   30.3520   43.0260 C   0  0  0  0  0  0  0  0  0  0  0  0
   44.4760   30.5090   42.9490 H   0  0  0  0  0  0  0  0  0  0  0  0
   46.1500   29.1120   43.1460 C   0  0  0  0  0  0  0  0  0  0  0  0
   45.4210   28.3150   43.1580 H   0  0  0  0  0  0  0  0  0  0  0  0
   47.5170   28.9810   43.2390 C   0  0  0  0  0  3  0  0  0  0  0  0
   48.3380   30.0860   43.2110 C   0  0  0  0  0  3  0  0  0  0  0  0
   48.8970   33.6280   43.4100 N   0  0  0  0  0  0  0  0  0  0  0  0
   48.5590   32.4530   43.0340 C   0  0  0  0  0  0  0  0  0  0  0  0
   49.6690   32.5030   42.1670 N   0  0  0  0  0  0  0  0  0  0  0  0
   48.3480   34.1140   44.1200 H   0  0  0  0  0  0  0  0  0  0  0  0
   50.0220   31.8810   41.4090 H   0  0  0  0  0  0  0  0  0  0  0  0
   50.4890   32.5540   41.5380 H   0  0  0  0  0  0  0  0  0  0  0  0
  1 19  1  0  0  0  0
  1  2  1  0  0  0  0
  3  2  2  0  0  0  0
  3 11  1  0  0  0  0
  4  3  1  0  0  0  0
  5 10  1  0  0  0  0
  5  4  2  0  0  0  0
  6  5  1  0  0  0  0
  7  8  1  0  0  0  0
  7  6  2  0  0  0  0
  8  9  2  0  0  0  0
  9 39  1  0  0  0  0
  9 10  1  0  0  0  0
 10  1  2  0  0  0  0
 12  6  1  0  0  0  0
 13  7  1  0  0  0  0
 14  8  1  0  0  0  0
 15 16  1  0  0  0  0
 15 26  1  0  0  0  0
 16 35  1  0  0  0  0
 17 21  1  0  0  0  0
 17 16  2  0  0  0  0
 18 17  1  0  0  0  0
 19 18  2  0  0  0  0
 19 20  1  0  0  0  0
 20 15  2  0  0  0  0
 21 25  1  0  0  0  0
 22 23  1  0  0  0  0
 22 21  1  0  0  0  0
 22 28  1  0  0  0  0
 23 30  1  0  0  0  0
 23 24  1  0  0  0  0
 24 32  1  0  0  0  0
 25 24  1  0  0  0  0
 25 34  1  0  0  0  0
 27 22  1  0  0  0  0
 29 23  1  0  0  0  0
 31 24  1  0  0  0  0
 33 25  1  0  0  0  0
 35 37  1  0  0  0  0
 36 35  1  0  0  0  0
 38 45  1  0  0  0  0
 39 40  1  0  0  0  0
 39 38  2  0  0  0  0
 40 42  2  0  0  0  0
 41 40  1  0  0  0  0
 42 43  1  0  0  0  0
 42 44  1  0  0  0  0
 45 44  2  0  0  0  0
 46 49  1  0  0  0  0
 47 38  1  0  0  0  0
 47 46  2  0  0  0  0
 48 47  1  0  0  0  0
 50 48  1  0  0  0  0
 51 48  1  0  0  0  0
M  END
>  <minimizedAffinity>
-5.14299297

>  <minimizedRMSD>
1.74014294

$$$$
