REMARK  Name = 
REMARK  2 active torsions:
REMARK  status: ('A' for Active; 'I' for Inactive)
REMARK    1  A    between atoms: C_5  and  C_16
REMARK    2  A    between atoms: C_13  and  C_15
REMARK                            x       y       z     vdW  Elec       q    Type
REMARK                         _______ _______ _______ _____ _____    ______ ____
ROOT
ATOM      1  C   UNL     1      44.703  32.042  47.358  0.00  0.00    +0.000 A 
ATOM      2  C   UNL     1      45.335  33.252  47.217  0.00  0.00    +0.000 A 
ATOM      3  C   UNL     1      45.786  33.895  48.348  0.00  0.00    +0.000 A 
ATOM      4  H   UNL     1      46.294  34.850  48.329  0.00  0.00    +0.000 HD
ATOM      5  C   UNL     1      45.555  33.247  49.546  0.00  0.00    +0.000 A 
ATOM      6  H   UNL     1      45.910  33.755  50.430  0.00  0.00    +0.000 HD
ATOM      7  C   UNL     1      44.927  32.035  49.736  0.00  0.00    +0.000 A 
ATOM      8  C   UNL     1      44.486  31.414  48.591  0.00  0.00    +0.000 A 
ENDROOT
BRANCH   2  13
ATOM      9  C   UNL     1      45.109  35.354  44.167  0.00  0.00    +0.000 A 
ATOM     10  C   UNL     1      46.127  34.789  43.384  0.00  0.00    +0.000 A 
ATOM     11  C   UNL     1      46.864  33.710  43.918  0.00  0.00    +0.000 A 
ATOM     12  N   UNL     1      46.514  33.305  45.172  0.00  0.00    +0.000 NA
ATOM     13  C   UNL     1      45.542  33.852  45.905  0.00  0.00    +0.000 A 
ATOM     14  N   UNL     1      44.870  34.863  45.374  0.00  0.00    +0.000 NA
ATOM     15  N   UNL     1      44.339  36.449  43.663  0.00  0.00    +0.000 N 
ATOM     16  H   UNL     1      46.321  35.184  42.410  0.00  0.00    +0.000 HD
ATOM     17  H   UNL     1      47.641  33.267  43.339  0.00  0.00    +0.000 HD
ATOM     18  H   UNL     1      44.539  36.870  42.749  0.00  0.00    +0.000 HD
ATOM     19  H   UNL     1      43.569  36.829  44.218  0.00  0.00    +0.000 HD
ENDBRANCH   2  13
BRANCH   1  21
ATOM     20  N   UNL     1      43.572  30.992  45.162  0.00  0.00    +0.000 NA
ATOM     21  C   UNL     1      44.159  31.284  46.248  0.00  0.00    +0.000 C 
ATOM     22  N   UNL     1      44.373  29.855  46.240  0.00  0.00    +0.000 N 
ATOM     23  H   UNL     1      43.092  31.590  44.497  0.00  0.00    +0.000 HD
ATOM     24  H   UNL     1      44.009  29.105  46.887  0.00  0.00    +0.000 HD
ATOM     25  H   UNL     1      44.621  28.842  46.105  0.00  0.00    +0.000 HD
ENDBRANCH   1  21
TORSDOF 2
