
     RDKit          3D

 26 27  0  0  0  0  0  0  0  0999 V2000
   44.5586   35.6213   45.0634 C   0  0  0  0  0  0  0  0  0  0  0  0
   45.0254   35.8862   43.7731 C   0  0  0  0  0  0  0  0  0  0  0  0
   45.9740   34.9821   43.2377 C   0  0  0  0  0  0  0  0  0  0  0  0
   46.3739   33.9166   44.0053 N   0  0  0  0  0  0  0  0  0  0  0  0
   45.8885   33.7113   45.2436 C   0  0  0  0  0  0  0  0  0  0  0  0
   44.9916   34.5601   45.7578 N   0  0  0  0  0  0  0  0  0  0  0  0
   44.6340   36.9595   42.9872 O   0  0  0  0  0  0  0  0  0  0  0  0
   43.8380   36.3103   45.4641 H   0  0  0  0  0  0  0  0  0  0  0  0
   46.2169   32.8647   45.8276 H   0  0  0  0  0  0  0  0  0  0  0  0
   45.1997   37.7821   42.9607 H   0  0  0  0  0  0  0  0  0  0  0  0
   46.3384   31.8950   40.5231 N   0  0  0  0  0  0  0  0  0  0  0  0
   45.8510   32.9533   41.1418 C   0  0  0  0  0  0  0  0  0  0  0  0
   44.8082   32.2916   41.8232 N   0  0  0  0  0  0  0  0  0  0  0  0
   46.5127   34.2174   40.8932 C   0  0  0  0  0  0  0  0  0  0  0  0
   46.5708   35.1078   41.9159 C   0  0  0  0  0  0  0  0  0  0  0  0
   47.2342   36.3269   41.7212 C   0  0  0  0  0  0  0  0  0  0  0  0
   47.3834   37.1453   42.4050 H   0  0  0  0  0  0  0  0  0  0  0  0
   47.7957   36.5470   40.4719 C   0  0  0  0  0  0  0  0  0  0  0  0
   48.3375   37.4504   40.1777 H   0  0  0  0  0  0  0  0  0  0  0  0
   47.7097   35.6037   39.4449 C   0  0  0  0  0  0  0  0  0  0  0  0
   47.0585   34.4075   39.6451 C   0  0  0  0  0  0  0  0  0  0  0  0
   47.1478   31.9169   39.8880 H   0  0  0  0  0  0  0  0  0  0  0  0
   43.9028   31.9630   41.3626 H   0  0  0  0  0  0  0  0  0  0  0  0
   44.9973   32.1348   42.8447 H   0  0  0  0  0  0  0  0  0  0  0  0
   48.1459   35.7738   38.4727 H   0  0  0  0  0  0  0  0  0  0  0  0
   46.9722   33.6574   38.8745 H   0  0  0  0  0  0  0  0  0  0  0  0
  1  6  2  0
  2  1  1  0
  3  2  2  0
  3  4  1  0
  4  5  2  0
  5  6  1  0
  7  2  1  0
  1  8  1  0
  5  9  1  0
  7 10  1  0
 11 12  2  3
 12 13  1  0
 12 14  1  0
 14 15  2  0
 15 16  1  0
 16 17  1  0
 16 18  2  0
 18 19  1  0
 18 20  1  0
 20 21  2  0
 21 14  1  0
 11 22  1  0
 13 23  1  0
 13 24  1  0
 20 25  1  0
 21 26  1  0
  3 15  1  0
M  ISO  5   8  14   9  14  10   3  17  15  19  16
M  END
>  <DihAtoms>  (1) 
1,2,14,13

>  <DihDeg>  (1) 
119.55260996944297

$$$$
