REMARK  Name = 
REMARK  4 active torsions:
REMARK  status: ('A' for Active; 'I' for Inactive)
REMARK    1  A    between atoms: C_1  and  C_11
REMARK    2  A    between atoms: C_5  and  C_13
REMARK    3  A    between atoms: C_18  and  C_39
REMARK    4  A    between atoms: C_36  and  C_38
REMARK                            x       y       z     vdW  Elec       q    Type
REMARK                         _______ _______ _______ _____ _____    ______ ____
ROOT
ATOM      1  C   UNL     1      46.615  33.094  38.807  0.00  0.00    +0.000 C 
ATOM      2  C   UNL     1      45.086  33.238  38.617  0.00  0.00    +0.000 C 
ATOM      3  C   UNL     1      44.713  32.031  37.733  0.00  0.00    +0.000 C 
ATOM      4  C   UNL     1      45.275  32.369  36.354  0.00  0.00    +0.000 C 
ATOM      5  C   UNL     1      46.746  32.493  36.407  0.00  0.00    +0.000 C 
ATOM      6  C   UNL     1      47.346  33.240  37.550  0.00  0.00    +0.000 C 
ATOM      7  H   UNL     1      46.677  32.032  39.199  0.00  0.00    +0.000 HD
ATOM      8  H   UNL     1      44.542  33.224  39.555  0.00  0.00    +0.000 HD
ATOM      9  H   UNL     1      44.926  34.150  38.014  0.00  0.00    +0.000 HD
ATOM     10  H   UNL     1      43.626  31.974  37.666  0.00  0.00    +0.000 HD
ATOM     11  H   UNL     1      45.222  31.172  38.179  0.00  0.00    +0.000 HD
ATOM     12  H   UNL     1      45.009  31.586  35.635  0.00  0.00    +0.000 HD
ATOM     13  H   UNL     1      44.834  33.349  36.071  0.00  0.00    +0.000 HD
ATOM     14  H   UNL     1      47.099  32.867  35.416  0.00  0.00    +0.000 HD
ATOM     15  H   UNL     1      47.149  31.437  36.439  0.00  0.00    +0.000 HD
ATOM     16  H   UNL     1      47.441  34.306  37.252  0.00  0.00    +0.000 HD
ENDROOT
BRANCH   1  21
ATOM     17  C   UNL     1      46.879  34.741  42.081  0.00  0.00    +0.000 A 
ATOM     18  C   UNL     1      48.013  35.500  41.908  0.00  0.00    +0.000 A 
ATOM     19  C   UNL     1      48.754  35.540  40.748  0.00  0.00    +0.000 A 
ATOM     20  C   UNL     1      48.250  34.721  39.726  0.00  0.00    +0.000 A 
ATOM     21  C   UNL     1      47.102  33.943  39.891  0.00  0.00    +0.000 A 
ATOM     22  N   UNL     1      46.428  33.961  41.066  0.00  0.00    +0.000 NA
ATOM     23  H   UNL     1      48.318  36.099  42.761  0.00  0.00    +0.000 HD
ATOM     24  H   UNL     1      49.629  36.143  40.651  0.00  0.00    +0.000 HD
ATOM     25  H   UNL     1      48.851  34.791  38.835  0.00  0.00    +0.000 HD
BRANCH  17  30
ATOM     26  C   UNL     1      45.639  33.944  45.429  0.00  0.00    +0.000 A 
ATOM     27  C   UNL     1      44.711  34.937  45.697  0.00  0.00    +0.000 A 
ATOM     28  C   UNL     1      44.521  35.888  44.700  0.00  0.00    +0.000 A 
ATOM     29  N   UNL     1      45.246  35.790  43.537  0.00  0.00    +0.000 NA
ATOM     30  C   UNL     1      46.142  34.787  43.339  0.00  0.00    +0.000 A 
ATOM     31  N   UNL     1      46.333  33.883  44.268  0.00  0.00    +0.000 NA
ATOM     32  H   UNL     1      45.795  33.188  46.209  0.00  0.00    +0.000 HD
ATOM     33  H   UNL     1      44.170  34.963  46.631  0.00  0.00    +0.000 HD
ATOM     34  H   UNL     1      43.817  36.691  44.836  0.00  0.00    +0.000 HD
ENDBRANCH  17  30
ENDBRANCH   1  21
BRANCH   6  36
ATOM     35  C   UNL     1      49.041  32.016  38.858  0.00  0.00    +0.000 A 
ATOM     36  C   UNL     1      48.746  32.676  37.654  0.00  0.00    +0.000 A 
ATOM     37  C   UNL     1      49.769  32.719  36.737  0.00  0.00    +0.000 A 
ATOM     38  H   UNL     1      49.546  33.224  35.813  0.00  0.00    +0.000 HD
ATOM     39  C   UNL     1      50.986  32.143  37.014  0.00  0.00    +0.000 A 
ATOM     40  H   UNL     1      51.709  32.241  36.219  0.00  0.00    +0.000 HD
ATOM     41  C   UNL     1      51.259  31.501  38.198  0.00  0.00    +0.000 A 
ATOM     42  C   UNL     1      50.260  31.442  39.132  0.00  0.00    +0.000 A 
BRANCH  35  44
ATOM     43  N   UNL     1      48.463  31.775  41.245  0.00  0.00    +0.000 NA
ATOM     44  C   UNL     1      48.108  31.837  39.992  0.00  0.00    +0.000 C 
ATOM     45  N   UNL     1      46.730  31.677  40.264  0.00  0.00    +0.000 N 
ATOM     46  H   UNL     1      49.447  31.850  41.562  0.00  0.00    +0.000 HD
ATOM     47  H   UNL     1      46.268  30.731  40.323  0.00  0.00    +0.000 HD
ATOM     48  H   UNL     1      46.024  32.438  40.433  0.00  0.00    +0.000 HD
ENDBRANCH  35  44
ENDBRANCH   6  36
TORSDOF 4
