
 OpenBabel03242511303D

 39 43  0  0  1  0  0  0  0  0999 V2000
   37.5320   30.6130   39.3310 C   0  0  0  0  0  0  0  0  0  0  0  0
   36.5770   30.5020   38.3320 C   0  0  0  0  0  0  0  0  0  0  0  0
   35.9460   28.7750   38.5740 S   0  0  0  0  0  0  0  0  0  0  0  0
   37.1350   28.5310   40.0290 C   0  0  0  0  0  0  0  0  0  0  0  0
   37.6340   29.5300   40.0370 N   0  0  0  0  0  0  0  0  0  0  0  0
   36.2570   31.2180   37.5840 H   0  0  0  0  0  0  0  0  0  0  0  0
   40.5700   30.8230   38.6180 Cl  0  0  0  0  0  0  0  0  0  0  0  0
   39.5870   32.1080   39.2010 C   0  0  0  0  0  0  0  0  0  0  0  0
   40.1290   33.3570   39.3890 C   0  0  0  0  0  0  0  0  0  0  0  0
   39.3660   34.4320   39.8610 C   0  0  0  0  0  0  0  0  0  0  0  0
   38.0490   34.1640   40.1220 C   0  0  0  0  0  0  0  0  0  0  0  0
   37.5110   32.9290   39.9370 C   0  0  0  0  0  0  0  0  0  0  0  0
   38.2740   31.8660   39.4690 C   0  0  0  0  0  0  0  0  0  0  0  0
   39.7950   35.4140   40.0080 H   0  0  0  0  0  0  0  0  0  0  0  0
   37.4610   35.0010   40.4880 H   0  0  0  0  0  0  0  0  0  0  0  0
   36.4510   32.8380   40.1810 H   0  0  0  0  0  0  0  0  0  0  0  0
   43.2400   34.1420   37.5560 C   0  0  0  0  0  0  0  0  0  0  0  0
   44.2080   33.9950   38.5360 C   0  0  0  0  0  0  0  0  0  0  0  0
   43.8030   33.6300   39.8120 C   0  0  0  0  0  0  0  0  0  0  0  0
   42.4860   33.4310   40.0580 N   0  0  0  0  0  0  0  0  0  0  0  0
   41.5420   33.5780   39.0920 C   0  0  0  0  0  0  0  0  0  0  0  0
   41.9430   33.9330   37.8540 N   0  0  0  0  0  0  0  0  0  0  0  0
   43.5060   34.4260   36.5460 H   0  0  0  0  0  0  0  0  0  0  0  0
   45.2460   34.1490   38.3500 H   0  0  0  0  0  0  0  0  0  0  0  0
   44.4900   33.4870   40.6550 H   0  0  0  0  0  0  0  0  0  0  0  0
   37.0300   27.1470   42.0430 C   0  0  0  0  0  0  0  0  0  0  0  0
   37.0610   27.2260   40.6700 C   0  0  0  0  0  0  0  0  0  0  0  0
   36.9960   26.0130   40.0170 C   0  0  0  0  0  0  0  0  0  0  0  0
   37.0150   26.0100   38.9440 H   0  0  0  0  0  0  0  0  0  0  0  0
   36.9070   24.8580   40.7440 C   0  0  0  0  0  0  0  0  0  0  0  0
   36.8600   23.9480   40.1570 H   0  0  0  0  0  0  0  0  0  0  0  0
   36.8760   24.7980   42.1220 C   0  0  0  0  0  3  0  0  0  0  0  0
   36.9410   26.0010   42.7860 C   0  0  0  0  0  3  0  0  0  0  0  0
   37.3860   29.5820   43.1080 N   0  0  0  0  0  0  0  0  0  0  0  0
   37.1330   28.3720   42.8090 C   0  0  1  0  0  3  0  0  0  0  0  0
   36.6490   28.3550   44.1460 N   0  0  0  0  0  4  0  0  0  0  0  0
   37.8210   30.2720   42.4690 H   0  0  0  0  0  0  0  0  0  0  0  0
   35.8920   27.7110   44.4770 H   0  0  0  0  0  0  0  0  0  0  0  0
   36.3190   28.3710   45.1330 H   0  0  0  0  0  0  0  0  0  0  0  0
  1 13  1  0  0  0  0
  1  5  1  0  0  0  0
  2  3  1  0  0  0  0
  2  1  2  0  0  0  0
  3  4  1  0  0  0  0
  4  5  2  0  0  0  0
  4 27  1  0  0  0  0
  6  2  1  0  0  0  0
  7  8  1  0  0  0  0
  8  9  2  0  0  0  0
  8 13  1  0  0  0  0
  9 10  1  0  0  0  0
 10 14  1  0  0  0  0
 10 11  2  0  0  0  0
 11 15  1  0  0  0  0
 12 11  1  0  0  0  0
 12 16  1  0  0  0  0
 13 12  2  0  0  0  0
 17 22  2  0  0  0  0
 17 18  1  0  0  0  0
 18 19  2  0  0  0  0
 19 20  1  0  0  0  0
 19 25  1  0  0  0  0
 21  9  1  0  0  0  0
 21 20  2  0  0  0  0
 22 21  1  0  0  0  0
 23 17  1  0  0  0  0
 24 18  1  0  0  0  0
 26 33  1  0  0  0  0
 27 26  2  0  0  0  0
 28 27  1  0  0  0  0
 28 30  2  0  0  0  0
 29 28  1  0  0  0  0
 30 32  1  0  0  0  0
 31 30  1  0  0  0  0
 32 33  2  0  0  0  0
 34 36  1  0  0  0  0
 35 26  1  6  0  0  0
 35 34  1  0  0  0  0
 35 36  1  0  0  0  0
 36 38  1  0  0  0  0
 36 39  1  0  0  0  0
 37 34  1  0  0  0  0
M  END
>  <minimizedAffinity>
-7.04362345

$$$$

 OpenBabel03242511303D

 39 43  0  0  1  0  0  0  0  0999 V2000
   39.0720   32.5650   39.8770 C   0  0  0  0  0  0  0  0  0  0  0  0
   38.4950   33.8150   40.0470 C   0  0  0  0  0  0  0  0  0  0  0  0
   39.9750   34.9110   40.2660 S   0  0  0  0  0  0  0  0  0  0  0  0
   41.1250   33.4170   40.0770 C   0  0  0  0  0  0  0  0  0  0  0  0
   40.3680   32.6100   39.9280 N   0  0  0  0  0  0  0  0  0  0  0  0
   37.4530   34.1110   40.0570 H   0  0  0  0  0  0  0  0  0  0  0  0
   39.0890   30.1230   41.8290 Cl  0  0  0  0  0  0  0  0  0  0  0  0
   38.1050   30.2780   40.4280 C   0  0  0  0  0  0  0  0  0  0  0  0
   37.2310   29.2730   40.0870 C   0  0  0  0  0  0  0  0  0  0  0  0
   36.4100   29.3570   38.9540 C   0  0  0  0  0  0  0  0  0  0  0  0
   36.5320   30.5000   38.2100 C   0  0  0  0  0  0  0  0  0  0  0  0
   37.3950   31.4940   38.5460 C   0  0  0  0  0  0  0  0  0  0  0  0
   38.2070   31.4050   39.6700 C   0  0  0  0  0  0  0  0  0  0  0  0
   35.7240   28.5640   38.6880 H   0  0  0  0  0  0  0  0  0  0  0  0
   35.8930   30.5600   37.3330 H   0  0  0  0  0  0  0  0  0  0  0  0
   37.4020   32.3550   37.8750 H   0  0  0  0  0  0  0  0  0  0  0  0
   36.6220   27.0610   42.9840 C   0  0  0  0  0  0  0  0  0  0  0  0
   37.0000   25.8210   42.4950 C   0  0  0  0  0  0  0  0  0  0  0  0
   37.4590   25.7390   41.1890 C   0  0  0  0  0  0  0  0  0  0  0  0
   37.5230   26.8640   40.4370 N   0  0  0  0  0  0  0  0  0  0  0  0
   37.1500   28.0770   40.9220 C   0  0  0  0  0  0  0  0  0  0  0  0
   36.7040   28.1500   42.1930 N   0  0  0  0  0  0  0  0  0  0  0  0
   36.2570   27.1760   43.9960 H   0  0  0  0  0  0  0  0  0  0  0  0
   36.9520   24.9320   43.0800 H   0  0  0  0  0  0  0  0  0  0  0  0
   37.7820   24.8070   40.7100 H   0  0  0  0  0  0  0  0  0  0  0  0
   43.2990   33.7830   39.0170 C   0  0  0  0  0  0  0  0  0  0  0  0
   42.5460   33.7210   40.1660 C   0  0  0  0  0  0  0  0  0  0  0  0
   43.2390   33.9840   41.3290 C   0  0  0  0  0  0  0  0  0  0  0  0
   42.7060   33.9520   42.2590 H   0  0  0  0  0  0  0  0  0  0  0  0
   44.5740   34.2780   41.2690 C   0  0  0  0  0  0  0  0  0  0  0  0
   45.0450   34.4730   42.2260 H   0  0  0  0  0  0  0  0  0  0  0  0
   45.3130   34.3370   40.1060 C   0  0  0  0  0  3  0  0  0  0  0  0
   44.6340   34.0760   38.9380 C   0  0  0  0  0  3  0  0  0  0  0  0
   41.9910   32.8640   36.8630 N   0  0  0  0  0  0  0  0  0  0  0  0
   42.6580   33.4830   37.7530 C   0  0  1  0  0  3  0  0  0  0  0  0
   42.7450   34.4580   36.7220 N   0  0  0  0  0  4  0  0  0  0  0  0
   41.5640   31.9290   36.9850 H   0  0  0  0  0  0  0  0  0  0  0  0
   42.8580   35.4830   36.9060 H   0  0  0  0  0  0  0  0  0  0  0  0
   42.8050   35.1440   35.9420 H   0  0  0  0  0  0  0  0  0  0  0  0
  1  5  1  0  0  0  0
  1  2  2  0  0  0  0
  2  6  1  0  0  0  0
  2  3  1  0  0  0  0
  4 27  1  0  0  0  0
  4  3  1  0  0  0  0
  5  4  2  0  0  0  0
  8  7  1  0  0  0  0
  9  8  1  0  0  0  0
  9 21  1  0  0  0  0
 10  9  2  0  0  0  0
 11 12  2  0  0  0  0
 11 10  1  0  0  0  0
 12 13  1  0  0  0  0
 13  1  1  0  0  0  0
 13  8  2  0  0  0  0
 14 10  1  0  0  0  0
 15 11  1  0  0  0  0
 16 12  1  0  0  0  0
 17 23  1  0  0  0  0
 18 17  1  0  0  0  0
 18 24  1  0  0  0  0
 19 18  2  0  0  0  0
 20 21  2  0  0  0  0
 20 19  1  0  0  0  0
 21 22  1  0  0  0  0
 22 17  2  0  0  0  0
 25 19  1  0  0  0  0
 26 27  1  0  0  0  0
 27 28  2  0  0  0  0
 28 29  1  0  0  0  0
 30 28  1  0  0  0  0
 30 31  1  0  0  0  0
 32 30  2  0  0  0  0
 33 26  2  0  0  0  0
 33 32  1  0  0  0  0
 34 37  1  0  0  0  0
 34 35  1  0  0  0  0
 35 26  1  1  0  0  0
 36 34  1  0  0  0  0
 36 38  1  0  0  0  0
 36 35  1  0  0  0  0
 39 36  1  0  0  0  0
M  END
>  <minimizedAffinity>
-6.94271278

$$$$

 OpenBabel03242511303D

 39 43  0  0  1  0  0  0  0  0999 V2000
   38.2310   32.6050   39.8410 C   0  0  0  0  0  0  0  0  0  0  0  0
   37.7110   33.8830   39.9790 C   0  0  0  0  0  0  0  0  0  0  0  0
   39.2340   34.9050   40.2520 S   0  0  0  0  0  0  0  0  0  0  0  0
   40.3140   33.3540   40.1210 C   0  0  0  0  0  0  0  0  0  0  0  0
   39.5240   32.5850   39.9460 N   0  0  0  0  0  0  0  0  0  0  0  0
   36.6850   34.2310   39.9430 H   0  0  0  0  0  0  0  0  0  0  0  0
   37.8720   31.3320   37.0070 Cl  0  0  0  0  0  0  0  0  0  0  0  0
   37.0580   30.8360   38.4380 C   0  0  0  0  0  0  0  0  0  0  0  0
   36.1610   29.7950   38.3920 C   0  0  0  0  0  0  0  0  0  0  0  0
   35.4760   29.3570   39.5330 C   0  0  0  0  0  0  0  0  0  0  0  0
   35.7550   30.0280   40.6940 C   0  0  0  0  0  0  0  0  0  0  0  0
   36.6410   31.0570   40.7410 C   0  0  0  0  0  0  0  0  0  0  0  0
   37.3170   31.4870   39.6050 C   0  0  0  0  0  0  0  0  0  0  0  0
   34.7700   28.5380   39.4950 H   0  0  0  0  0  0  0  0  0  0  0  0
   35.2210   29.6840   41.5760 H   0  0  0  0  0  0  0  0  0  0  0  0
   36.7790   31.5130   41.7230 H   0  0  0  0  0  0  0  0  0  0  0  0
   36.5680   27.5840   35.4600 C   0  0  0  0  0  0  0  0  0  0  0  0
   35.4240   27.8530   34.7250 C   0  0  0  0  0  0  0  0  0  0  0  0
   34.5220   28.7810   35.2240 C   0  0  0  0  0  0  0  0  0  0  0  0
   34.7840   29.3900   36.4050 N   0  0  0  0  0  0  0  0  0  0  0  0
   35.9070   29.1210   37.1220 C   0  0  0  0  0  0  0  0  0  0  0  0
   36.7800   28.2180   36.6300 N   0  0  0  0  0  0  0  0  0  0  0  0
   37.3010   26.8680   35.1120 H   0  0  0  0  0  0  0  0  0  0  0  0
   35.2110   27.3780   33.7950 H   0  0  0  0  0  0  0  0  0  0  0  0
   33.5910   29.0630   34.7200 H   0  0  0  0  0  0  0  0  0  0  0  0
   42.5360   33.6670   39.1470 C   0  0  0  0  0  0  0  0  0  0  0  0
   41.7440   33.5860   40.2690 C   0  0  0  0  0  0  0  0  0  0  0  0
   42.4100   33.7630   41.4630 C   0  0  0  0  0  0  0  0  0  0  0  0
   41.8450   33.7120   42.3740 H   0  0  0  0  0  0  0  0  0  0  0  0
   43.7570   33.9970   41.4580 C   0  0  0  0  0  0  0  0  0  0  0  0
   44.2060   34.1250   42.4370 H   0  0  0  0  0  0  0  0  0  0  0  0
   44.5360   34.0750   40.3220 C   0  0  0  0  0  3  0  0  0  0  0  0
   43.8840   33.9010   39.1230 C   0  0  0  0  0  3  0  0  0  0  0  0
   41.1250   33.0310   36.9570 N   0  0  0  0  0  0  0  0  0  0  0  0
   41.9240   33.4560   37.8510 C   0  0  1  0  0  3  0  0  0  0  0  0
   42.4940   34.1290   36.7360 N   0  0  0  0  0  4  0  0  0  0  0  0
   40.3330   32.3860   37.1270 H   0  0  0  0  0  0  0  0  0  0  0  0
   43.0180   35.0320   36.8140 H   0  0  0  0  0  0  0  0  0  0  0  0
   42.8980   34.5940   35.8970 H   0  0  0  0  0  0  0  0  0  0  0  0
  1  5  1  0  0  0  0
  1  2  2  0  0  0  0
  2  3  1  0  0  0  0
  4  3  1  0  0  0  0
  4 27  1  0  0  0  0
  5  4  2  0  0  0  0
  6  2  1  0  0  0  0
  7  8  1  0  0  0  0
  8 13  1  0  0  0  0
  9  8  2  0  0  0  0
  9 10  1  0  0  0  0
 10 11  2  0  0  0  0
 11 12  1  0  0  0  0
 11 15  1  0  0  0  0
 12 16  1  0  0  0  0
 13  1  1  0  0  0  0
 13 12  2  0  0  0  0
 14 10  1  0  0  0  0
 17 22  1  0  0  0  0
 18 19  1  0  0  0  0
 18 17  2  0  0  0  0
 19 20  2  0  0  0  0
 20 21  1  0  0  0  0
 21  9  1  0  0  0  0
 22 21  2  0  0  0  0
 23 17  1  0  0  0  0
 24 18  1  0  0  0  0
 25 19  1  0  0  0  0
 26 27  1  0  0  0  0
 27 28  2  0  0  0  0
 28 29  1  0  0  0  0
 30 28  1  0  0  0  0
 30 31  1  0  0  0  0
 32 30  2  0  0  0  0
 33 26  2  0  0  0  0
 33 32  1  0  0  0  0
 34 37  1  0  0  0  0
 34 35  1  0  0  0  0
 35 26  1  1  0  0  0
 36 38  1  0  0  0  0
 36 34  1  0  0  0  0
 36 35  1  0  0  0  0
 39 36  1  0  0  0  0
M  END
>  <minimizedAffinity>
-6.74546099

$$$$

 OpenBabel03242511303D

 39 43  0  0  1  0  0  0  0  0999 V2000
   37.9040   30.4790   40.9840 C   0  0  0  0  0  0  0  0  0  0  0  0
   36.7520   31.1750   40.6510 C   0  0  0  0  0  0  0  0  0  0  0  0
   37.4280   32.7330   39.9070 S   0  0  0  0  0  0  0  0  0  0  0  0
   39.1970   32.1200   40.1990 C   0  0  0  0  0  0  0  0  0  0  0  0
   38.9810   31.1320   40.6710 N   0  0  0  0  0  0  0  0  0  0  0  0
   35.7090   30.9090   40.7790 H   0  0  0  0  0  0  0  0  0  0  0  0
   37.9870   27.8360   39.3160 Cl  0  0  0  0  0  0  0  0  0  0  0  0
   37.8020   27.9380   41.0220 C   0  0  0  0  0  0  0  0  0  0  0  0
   37.6750   26.7910   41.7690 C   0  0  0  0  0  0  0  0  0  0  0  0
   37.5230   26.8270   43.1620 C   0  0  0  0  0  0  0  0  0  0  0  0
   37.5090   28.0720   43.7310 C   0  0  0  0  0  0  0  0  0  0  0  0
   37.6340   29.2070   42.9940 C   0  0  0  0  0  0  0  0  0  0  0  0
   37.7840   29.1650   41.6130 C   0  0  0  0  0  0  0  0  0  0  0  0
   37.4240   25.9220   43.7470 H   0  0  0  0  0  0  0  0  0  0  0  0
   37.3910   28.0940   44.8110 H   0  0  0  0  0  0  0  0  0  0  0  0
   37.6070   30.1390   43.5600 H   0  0  0  0  0  0  0  0  0  0  0  0
   38.9050   23.6420   40.2780 C   0  0  0  0  0  0  0  0  0  0  0  0
   37.7340   23.0440   39.8390 C   0  0  0  0  0  0  0  0  0  0  0  0
   36.5360   23.7090   40.0500 C   0  0  0  0  0  0  0  0  0  0  0  0
   36.5450   24.9120   40.6730 N   0  0  0  0  0  0  0  0  0  0  0  0
   37.6970   25.4920   41.1010 C   0  0  0  0  0  0  0  0  0  0  0  0
   38.8590   24.8400   40.8930 N   0  0  0  0  0  0  0  0  0  0  0  0
   39.8650   23.1620   40.1370 H   0  0  0  0  0  0  0  0  0  0  0  0
   37.7180   22.0980   39.3490 H   0  0  0  0  0  0  0  0  0  0  0  0
   35.5580   23.3220   39.7410 H   0  0  0  0  0  0  0  0  0  0  0  0
   40.7320   32.9300   38.4750 C   0  0  0  0  0  0  0  0  0  0  0  0
   40.2440   33.0310   39.7570 C   0  0  0  0  0  0  0  0  0  0  0  0
   40.8040   34.0380   40.5140 C   0  0  0  0  0  0  0  0  0  0  0  0
   40.4630   34.1670   41.5230 H   0  0  0  0  0  0  0  0  0  0  0  0
   41.7680   34.8390   39.9660 C   0  0  0  0  0  0  0  0  0  0  0  0
   42.1570   35.6060   40.6270 H   0  0  0  0  0  0  0  0  0  0  0  0
   42.2450   34.7240   38.6780 C   0  0  0  0  0  3  0  0  0  0  0  0
   41.6950   33.7230   37.9110 C   0  0  0  0  0  3  0  0  0  0  0  0
   40.0320   30.7160   37.1340 N   0  0  0  0  0  0  0  0  0  0  0  0
   40.2250   31.8750   37.6220 C   0  0  1  0  0  3  0  0  0  0  0  0
   39.2980   32.2360   36.6060 N   0  0  0  0  0  4  0  0  0  0  0  0
   40.4820   29.8470   37.4730 H   0  0  0  0  0  0  0  0  0  0  0  0
   38.6630   33.0670   36.6740 H   0  0  0  0  0  0  0  0  0  0  0  0
   38.6310   32.4710   35.8430 H   0  0  0  0  0  0  0  0  0  0  0  0
  1 13  1  0  0  0  0
  2  6  1  0  0  0  0
  2  1  2  0  0  0  0
  3  4  1  0  0  0  0
  3  2  1  0  0  0  0
  4  5  2  0  0  0  0
  5  1  1  0  0  0  0
  7  8  1  0  0  0  0
  8 13  2  0  0  0  0
  8  9  1  0  0  0  0
  9 10  2  0  0  0  0
 10 11  1  0  0  0  0
 10 14  1  0  0  0  0
 11 15  1  0  0  0  0
 12 16  1  0  0  0  0
 12 11  2  0  0  0  0
 13 12  1  0  0  0  0
 17 22  1  0  0  0  0
 18 19  1  0  0  0  0
 18 17  2  0  0  0  0
 19 20  2  0  0  0  0
 20 21  1  0  0  0  0
 21  9  1  0  0  0  0
 22 21  2  0  0  0  0
 23 17  1  0  0  0  0
 24 18  1  0  0  0  0
 25 19  1  0  0  0  0
 26 27  1  0  0  0  0
 27  4  1  0  0  0  0
 27 28  2  0  0  0  0
 28 29  1  0  0  0  0
 30 28  1  0  0  0  0
 30 31  1  0  0  0  0
 32 30  2  0  0  0  0
 33 26  2  0  0  0  0
 33 32  1  0  0  0  0
 34 37  1  0  0  0  0
 34 35  1  0  0  0  0
 35 26  1  1  0  0  0
 36 38  1  0  0  0  0
 36 34  1  0  0  0  0
 36 35  1  0  0  0  0
 39 36  1  0  0  0  0
M  END
>  <minimizedAffinity>
-6.743752

$$$$

 OpenBabel03242511303D

 39 43  0  0  1  0  0  0  0  0999 V2000
   37.8160   29.9910   39.5630 C   0  0  0  0  0  0  0  0  0  0  0  0
   36.7920   30.4440   38.7460 C   0  0  0  0  0  0  0  0  0  0  0  0
   37.5910   31.8630   37.8570 S   0  0  0  0  0  0  0  0  0  0  0  0
   39.2090   31.5560   38.7940 C   0  0  0  0  0  0  0  0  0  0  0  0
   38.9050   30.6830   39.4190 N   0  0  0  0  0  0  0  0  0  0  0  0
   35.7760   30.0880   38.6310 H   0  0  0  0  0  0  0  0  0  0  0  0
   37.9730   27.0430   38.5320 Cl  0  0  0  0  0  0  0  0  0  0  0  0
   37.6020   27.5220   40.1410 C   0  0  0  0  0  0  0  0  0  0  0  0
   37.3430   26.5720   41.0990 C   0  0  0  0  0  0  0  0  0  0  0  0
   37.0370   26.9170   42.4220 C   0  0  0  0  0  0  0  0  0  0  0  0
   37.0130   28.2570   42.7010 C   0  0  0  0  0  0  0  0  0  0  0  0
   37.2680   29.1990   41.7550 C   0  0  0  0  0  0  0  0  0  0  0  0
   37.5700   28.8500   40.4440 C   0  0  0  0  0  0  0  0  0  0  0  0
   36.8340   26.1660   43.1740 H   0  0  0  0  0  0  0  0  0  0  0  0
   36.7750   28.5200   43.7290 H   0  0  0  0  0  0  0  0  0  0  0  0
   37.2180   30.2330   42.0980 H   0  0  0  0  0  0  0  0  0  0  0  0
   38.5530   23.1120   40.6290 C   0  0  0  0  0  0  0  0  0  0  0  0
   37.4580   22.4900   40.0510 C   0  0  0  0  0  0  0  0  0  0  0  0
   36.3160   23.2440   39.8230 C   0  0  0  0  0  0  0  0  0  0  0  0
   36.3060   24.5540   40.1700 N   0  0  0  0  0  0  0  0  0  0  0  0
   37.3840   25.1570   40.7370 C   0  0  0  0  0  0  0  0  0  0  0  0
   38.4910   24.4180   40.9560 N   0  0  0  0  0  0  0  0  0  0  0  0
   39.4660   22.5650   40.8270 H   0  0  0  0  0  0  0  0  0  0  0  0
   37.4570   21.4610   39.7760 H   0  0  0  0  0  0  0  0  0  0  0  0
   35.4000   22.8470   39.3720 H   0  0  0  0  0  0  0  0  0  0  0  0
   40.4450   33.6340   39.1630 C   0  0  0  0  0  0  0  0  0  0  0  0
   40.2960   32.4630   38.4560 C   0  0  0  0  0  0  0  0  0  0  0  0
   41.2420   32.2530   37.4750 C   0  0  0  0  0  0  0  0  0  0  0  0
   41.1790   31.3560   36.8900 H   0  0  0  0  0  0  0  0  0  0  0  0
   42.2280   33.1810   37.2760 C   0  0  0  0  0  0  0  0  0  0  0  0
   42.9320   32.9410   36.4870 H   0  0  0  0  0  0  0  0  0  0  0  0
   42.3620   34.3490   37.9960 C   0  0  0  0  0  3  0  0  0  0  0  0
   41.4240   34.5720   38.9770 C   0  0  0  0  0  3  0  0  0  0  0  0
   38.8630   33.9530   41.3040 N   0  0  0  0  0  0  0  0  0  0  0  0
   39.4720   33.9520   40.1870 C   0  0  1  0  0  3  0  0  0  0  0  0
   38.4630   34.9010   39.8660 N   0  0  0  0  0  4  0  0  0  0  0  0
   39.1290   33.3810   42.1250 H   0  0  0  0  0  0  0  0  0  0  0  0
   38.5900   35.6590   39.1530 H   0  0  0  0  0  0  0  0  0  0  0  0
   37.7020   35.5800   39.6560 H   0  0  0  0  0  0  0  0  0  0  0  0
  1 13  1  0  0  0  0
  2  1  2  0  0  0  0
  3  2  1  0  0  0  0
  3  4  1  0  0  0  0
  4  5  2  0  0  0  0
  5  1  1  0  0  0  0
  6  2  1  0  0  0  0
  7  8  1  0  0  0  0
  8 13  2  0  0  0  0
  8  9  1  0  0  0  0
  9 10  2  0  0  0  0
 10 11  1  0  0  0  0
 10 14  1  0  0  0  0
 11 15  1  0  0  0  0
 12 16  1  0  0  0  0
 12 11  2  0  0  0  0
 13 12  1  0  0  0  0
 17 23  1  0  0  0  0
 17 22  1  0  0  0  0
 18 17  2  0  0  0  0
 19 18  1  0  0  0  0
 19 20  2  0  0  0  0
 20 21  1  0  0  0  0
 21 22  2  0  0  0  0
 21  9  1  0  0  0  0
 24 18  1  0  0  0  0
 25 19  1  0  0  0  0
 27  4  1  0  0  0  0
 27 26  2  0  0  0  0
 28 27  1  0  0  0  0
 29 28  1  0  0  0  0
 30 28  2  0  0  0  0
 30 32  1  0  0  0  0
 31 30  1  0  0  0  0
 32 33  2  0  0  0  0
 33 26  1  0  0  0  0
 34 37  1  0  0  0  0
 35 26  1  1  0  0  0
 35 34  1  0  0  0  0
 36 35  1  0  0  0  0
 36 34  1  0  0  0  0
 38 36  1  0  0  0  0
 39 36  1  0  0  0  0
M  END
>  <minimizedAffinity>
-6.60781765

$$$$

 OpenBabel03242511303D

 39 43  0  0  1  0  0  0  0  0999 V2000
   40.2530   29.5550   42.0950 C   0  0  0  0  0  0  0  0  0  0  0  0
   41.3980   29.3830   42.8580 C   0  0  0  0  0  0  0  0  0  0  0  0
   42.5030   30.7320   42.2270 S   0  0  0  0  0  0  0  0  0  0  0  0
   41.1560   31.2860   41.0150 C   0  0  0  0  0  0  0  0  0  0  0  0
   40.3600   30.5440   41.2620 N   0  0  0  0  0  0  0  0  0  0  0  0
   41.6250   28.6570   43.6300 H   0  0  0  0  0  0  0  0  0  0  0  0
   39.7960   27.0290   40.3080 Cl  0  0  0  0  0  0  0  0  0  0  0  0
   38.7920   27.5290   41.6120 C   0  0  0  0  0  0  0  0  0  0  0  0
   37.6790   26.7940   41.9430 C   0  0  0  0  0  0  0  0  0  0  0  0
   36.8330   27.1630   42.9970 C   0  0  0  0  0  0  0  0  0  0  0  0
   37.1840   28.2990   43.6760 C   0  0  0  0  0  0  0  0  0  0  0  0
   38.2840   29.0280   43.3500 C   0  0  0  0  0  0  0  0  0  0  0  0
   39.1190   28.6560   42.3030 C   0  0  0  0  0  0  0  0  0  0  0  0
   35.9580   26.5830   43.2550 H   0  0  0  0  0  0  0  0  0  0  0  0
   36.5250   28.5810   44.4930 H   0  0  0  0  0  0  0  0  0  0  0  0
   38.4590   29.9120   43.9640 H   0  0  0  0  0  0  0  0  0  0  0  0
   37.5230   23.2580   40.8810 C   0  0  0  0  0  0  0  0  0  0  0  0
   36.7530   23.3270   39.7310 C   0  0  0  0  0  0  0  0  0  0  0  0
   36.2910   24.5680   39.3210 C   0  0  0  0  0  0  0  0  0  0  0  0
   36.6030   25.6660   40.0500 N   0  0  0  0  0  0  0  0  0  0  0  0
   37.3580   25.5910   41.1770 C   0  0  0  0  0  0  0  0  0  0  0  0
   37.8040   24.3810   41.5710 N   0  0  0  0  0  0  0  0  0  0  0  0
   37.9060   22.3120   41.2420 H   0  0  0  0  0  0  0  0  0  0  0  0
   36.5030   22.4680   39.1520 H   0  0  0  0  0  0  0  0  0  0  0  0
   35.6770   24.7290   38.4270 H   0  0  0  0  0  0  0  0  0  0  0  0
   40.6010   33.4440   40.0060 C   0  0  0  0  0  0  0  0  0  0  0  0
   41.5100   32.4280   40.1830 C   0  0  0  0  0  0  0  0  0  0  0  0
   42.7190   32.6120   39.5460 C   0  0  0  0  0  0  0  0  0  0  0  0
   43.4710   31.8530   39.6480 H   0  0  0  0  0  0  0  0  0  0  0  0
   42.9290   33.7460   38.8100 C   0  0  0  0  0  0  0  0  0  0  0  0
   43.9050   33.8160   38.3410 H   0  0  0  0  0  0  0  0  0  0  0  0
   42.0050   34.7560   38.6440 C   0  0  0  0  0  3  0  0  0  0  0  0
   40.7950   34.5850   39.2740 C   0  0  0  0  0  3  0  0  0  0  0  0
   38.1520   32.8360   40.9120 N   0  0  0  0  0  0  0  0  0  0  0  0
   39.2910   33.3140   40.6100 C   0  0  1  0  0  3  0  0  0  0  0  0
   38.8700   34.3420   41.4980 N   0  0  0  0  0  4  0  0  0  0  0  0
   37.7660   31.9470   40.5460 H   0  0  0  0  0  0  0  0  0  0  0  0
   39.5340   34.9330   42.0520 H   0  0  0  0  0  0  0  0  0  0  0  0
   38.5260   35.0860   42.1400 H   0  0  0  0  0  0  0  0  0  0  0  0
  1 13  1  0  0  0  0
  1  2  2  0  0  0  0
  2  6  1  0  0  0  0
  3  2  1  0  0  0  0
  4  5  2  0  0  0  0
  4  3  1  0  0  0  0
  5  1  1  0  0  0  0
  7  8  1  0  0  0  0
  8  9  2  0  0  0  0
  8 13  1  0  0  0  0
  9 10  1  0  0  0  0
 10 14  1  0  0  0  0
 10 11  2  0  0  0  0
 11 15  1  0  0  0  0
 12 11  1  0  0  0  0
 12 16  1  0  0  0  0
 13 12  2  0  0  0  0
 17 23  1  0  0  0  0
 17 22  1  0  0  0  0
 18 17  2  0  0  0  0
 19 18  1  0  0  0  0
 19 20  2  0  0  0  0
 20 21  1  0  0  0  0
 21 22  2  0  0  0  0
 21  9  1  0  0  0  0
 24 18  1  0  0  0  0
 25 19  1  0  0  0  0
 26 27  1  0  0  0  0
 27  4  1  0  0  0  0
 28 29  1  0  0  0  0
 28 27  2  0  0  0  0
 30 28  1  0  0  0  0
 31 30  1  0  0  0  0
 32 30  2  0  0  0  0
 32 33  1  0  0  0  0
 33 26  2  0  0  0  0
 34 36  1  0  0  0  0
 35 26  1  1  0  0  0
 35 34  1  0  0  0  0
 35 36  1  0  0  0  0
 36 38  1  0  0  0  0
 36 39  1  0  0  0  0
 37 34  1  0  0  0  0
M  END
>  <minimizedAffinity>
-6.36185217

$$$$

 OpenBabel03242511303D

 39 43  0  0  1  0  0  0  0  0999 V2000
   38.6630   30.6440   39.4100 C   0  0  0  0  0  0  0  0  0  0  0  0
   37.4190   31.1000   39.0020 C   0  0  0  0  0  0  0  0  0  0  0  0
   36.3010   29.7060   39.4980 S   0  0  0  0  0  0  0  0  0  0  0  0
   37.7830   28.7460   40.1860 C   0  0  0  0  0  0  0  0  0  0  0  0
   38.6010   29.4720   39.9630 N   0  0  0  0  0  0  0  0  0  0  0  0
   37.1350   32.0250   38.5140 H   0  0  0  0  0  0  0  0  0  0  0  0
   40.5190   31.5500   41.7590 Cl  0  0  0  0  0  0  0  0  0  0  0  0
   40.7300   31.9560   40.1010 C   0  0  0  0  0  0  0  0  0  0  0  0
   41.7880   32.7440   39.7160 C   0  0  0  0  0  0  0  0  0  0  0  0
   42.0000   33.0990   38.3780 C   0  0  0  0  0  0  0  0  0  0  0  0
   41.0890   32.6140   37.4780 C   0  0  0  0  0  0  0  0  0  0  0  0
   40.0410   31.8350   37.8570 C   0  0  0  0  0  0  0  0  0  0  0  0
   39.8370   31.4860   39.1870 C   0  0  0  0  0  0  0  0  0  0  0  0
   42.8340   33.7200   38.0780 H   0  0  0  0  0  0  0  0  0  0  0  0
   41.2570   32.8920   36.4410 H   0  0  0  0  0  0  0  0  0  0  0  0
   39.3840   31.5090   37.0500 H   0  0  0  0  0  0  0  0  0  0  0  0
   43.4040   34.9110   42.2360 C   0  0  0  0  0  0  0  0  0  0  0  0
   44.4930   34.1490   42.6290 C   0  0  0  0  0  0  0  0  0  0  0  0
   44.6750   32.9070   42.0390 C   0  0  0  0  0  0  0  0  0  0  0  0
   43.7910   32.4800   41.1060 N   0  0  0  0  0  0  0  0  0  0  0  0
   42.7250   33.2320   40.7260 C   0  0  0  0  0  0  0  0  0  0  0  0
   42.5540   34.4390   41.3040 N   0  0  0  0  0  0  0  0  0  0  0  0
   43.2200   35.8860   42.6680 H   0  0  0  0  0  0  0  0  0  0  0  0
   45.1930   34.4780   43.3620 H   0  0  0  0  0  0  0  0  0  0  0  0
   45.5030   32.2300   42.2790 H   0  0  0  0  0  0  0  0  0  0  0  0
   37.3070   27.3340   42.1260 C   0  0  0  0  0  0  0  0  0  0  0  0
   37.4600   27.4490   40.7640 C   0  0  0  0  0  0  0  0  0  0  0  0
   37.2620   26.2820   40.0580 C   0  0  0  0  0  0  0  0  0  0  0  0
   37.3660   26.3080   38.9900 H   0  0  0  0  0  0  0  0  0  0  0  0
   36.9400   25.1320   40.7270 C   0  0  0  0  0  0  0  0  0  0  0  0
   36.8020   24.2590   40.0990 H   0  0  0  0  0  0  0  0  0  0  0  0
   36.7910   25.0360   42.0940 C   0  0  0  0  0  3  0  0  0  0  0  0
   36.9850   26.1940   42.8120 C   0  0  0  0  0  3  0  0  0  0  0  0
   37.9460   29.6510   43.3170 N   0  0  0  0  0  0  0  0  0  0  0  0
   37.5330   28.5050   42.9490 C   0  0  1  0  0  3  0  0  0  0  0  0
   36.9420   28.5260   44.2420 N   0  0  0  0  0  4  0  0  0  0  0  0
   38.5350   30.2810   42.7440 H   0  0  0  0  0  0  0  0  0  0  0  0
   36.0690   28.0010   44.4850 H   0  0  0  0  0  0  0  0  0  0  0  0
   36.5360   28.5650   45.2000 H   0  0  0  0  0  0  0  0  0  0  0  0
  1  5  1  0  0  0  0
  2  1  2  0  0  0  0
  2  3  1  0  0  0  0
  3  4  1  0  0  0  0
  4 27  1  0  0  0  0
  5  4  2  0  0  0  0
  6  2  1  0  0  0  0
  8  7  1  0  0  0  0
  9  8  1  0  0  0  0
  9 21  1  0  0  0  0
 10  9  2  0  0  0  0
 11 12  2  0  0  0  0
 11 10  1  0  0  0  0
 12 13  1  0  0  0  0
 13  1  1  0  0  0  0
 13  8  2  0  0  0  0
 14 10  1  0  0  0  0
 15 11  1  0  0  0  0
 16 12  1  0  0  0  0
 17 18  1  0  0  0  0
 17 23  1  0  0  0  0
 18 24  1  0  0  0  0
 19 25  1  0  0  0  0
 19 18  2  0  0  0  0
 20 19  1  0  0  0  0
 21 20  2  0  0  0  0
 21 22  1  0  0  0  0
 22 17  2  0  0  0  0
 26 33  1  0  0  0  0
 27 26  2  0  0  0  0
 28 30  2  0  0  0  0
 28 27  1  0  0  0  0
 29 28  1  0  0  0  0
 30 32  1  0  0  0  0
 31 30  1  0  0  0  0
 32 33  2  0  0  0  0
 34 36  1  0  0  0  0
 35 26  1  6  0  0  0
 35 34  1  0  0  0  0
 35 36  1  0  0  0  0
 36 38  1  0  0  0  0
 36 39  1  0  0  0  0
 37 34  1  0  0  0  0
M  END
>  <minimizedAffinity>
-6.28211689

$$$$

 OpenBabel03242511303D

 39 43  0  0  1  0  0  0  0  0999 V2000
   38.3570   30.4930   40.9090 C   0  0  0  0  0  0  0  0  0  0  0  0
   37.3470   31.4380   40.8090 C   0  0  0  0  0  0  0  0  0  0  0  0
   38.2010   32.8450   39.9550 S   0  0  0  0  0  0  0  0  0  0  0  0
   39.8120   31.8480   39.8950 C   0  0  0  0  0  0  0  0  0  0  0  0
   39.4740   30.9100   40.3960 N   0  0  0  0  0  0  0  0  0  0  0  0
   36.3150   31.4000   41.1360 H   0  0  0  0  0  0  0  0  0  0  0  0
   38.3300   27.8190   39.2880 Cl  0  0  0  0  0  0  0  0  0  0  0  0
   38.0200   27.9720   40.9720 C   0  0  0  0  0  0  0  0  0  0  0  0
   37.7300   26.8570   41.7220 C   0  0  0  0  0  0  0  0  0  0  0  0
   37.4710   26.9350   43.0960 C   0  0  0  0  0  0  0  0  0  0  0  0
   37.5250   28.1880   43.6460 C   0  0  0  0  0  0  0  0  0  0  0  0
   37.8120   29.2920   42.9070 C   0  0  0  0  0  0  0  0  0  0  0  0
   38.0670   29.2080   41.5430 C   0  0  0  0  0  0  0  0  0  0  0  0
   37.2420   26.0560   43.6840 H   0  0  0  0  0  0  0  0  0  0  0  0
   37.3240   28.2430   44.7130 H   0  0  0  0  0  0  0  0  0  0  0  0
   37.8260   30.2340   43.4570 H   0  0  0  0  0  0  0  0  0  0  0  0
   38.7660   23.5540   40.4300 C   0  0  0  0  0  0  0  0  0  0  0  0
   37.5990   23.0810   39.8520 C   0  0  0  0  0  0  0  0  0  0  0  0
   36.4680   23.8830   39.9020 C   0  0  0  0  0  0  0  0  0  0  0  0
   36.5370   25.0910   40.5090 N   0  0  0  0  0  0  0  0  0  0  0  0
   37.6860   25.5480   41.0740 C   0  0  0  0  0  0  0  0  0  0  0  0
   38.7820   24.7640   41.0220 N   0  0  0  0  0  0  0  0  0  0  0  0
   39.6740   22.9660   40.4170 H   0  0  0  0  0  0  0  0  0  0  0  0
   37.5360   22.1320   39.3730 H   0  0  0  0  0  0  0  0  0  0  0  0
   35.4980   23.6010   39.4750 H   0  0  0  0  0  0  0  0  0  0  0  0
   42.0390   32.8520   40.0130 C   0  0  0  0  0  0  0  0  0  0  0  0
   40.9330   32.5290   39.2630 C   0  0  0  0  0  0  0  0  0  0  0  0
   41.0120   32.8790   37.9320 C   0  0  0  0  0  0  0  0  0  0  0  0
   40.1790   32.6520   37.2940 H   0  0  0  0  0  0  0  0  0  0  0  0
   42.1370   33.4980   37.4600 C   0  0  0  0  0  0  0  0  0  0  0  0
   42.1200   33.7400   36.4030 H   0  0  0  0  0  0  0  0  0  0  0  0
   43.2390   33.8130   38.2280 C   0  0  0  0  0  3  0  0  0  0  0  0
   43.1730   33.4700   39.5580 C   0  0  0  0  0  3  0  0  0  0  0  0
   41.7910   31.9540   42.5280 N   0  0  0  0  0  0  0  0  0  0  0  0
   42.0260   32.5530   41.4300 C   0  0  1  0  0  3  0  0  0  0  0  0
   42.7090   33.4480   42.2990 N   0  0  0  0  0  4  0  0  0  0  0  0
   41.2460   31.0780   42.6200 H   0  0  0  0  0  0  0  0  0  0  0  0
   43.5240   34.0330   41.9980 H   0  0  0  0  0  0  0  0  0  0  0  0
   43.1870   34.0920   42.9620 H   0  0  0  0  0  0  0  0  0  0  0  0
  1 13  1  0  0  0  0
  2  1  2  0  0  0  0
  2  6  1  0  0  0  0
  3  2  1  0  0  0  0
  4  3  1  0  0  0  0
  4  5  2  0  0  0  0
  5  1  1  0  0  0  0
  7  8  1  0  0  0  0
  8 13  2  0  0  0  0
  8  9  1  0  0  0  0
  9 10  2  0  0  0  0
 10 11  1  0  0  0  0
 10 14  1  0  0  0  0
 11 15  1  0  0  0  0
 12 16  1  0  0  0  0
 12 11  2  0  0  0  0
 13 12  1  0  0  0  0
 17 22  1  0  0  0  0
 18 19  1  0  0  0  0
 18 17  2  0  0  0  0
 19 20  2  0  0  0  0
 20 21  1  0  0  0  0
 21  9  1  0  0  0  0
 22 21  2  0  0  0  0
 23 17  1  0  0  0  0
 24 18  1  0  0  0  0
 25 19  1  0  0  0  0
 27  4  1  0  0  0  0
 27 26  2  0  0  0  0
 28 27  1  0  0  0  0
 29 28  1  0  0  0  0
 30 28  2  0  0  0  0
 30 32  1  0  0  0  0
 31 30  1  0  0  0  0
 32 33  2  0  0  0  0
 33 26  1  0  0  0  0
 34 37  1  0  0  0  0
 35 26  1  6  0  0  0
 35 36  1  0  0  0  0
 35 34  1  0  0  0  0
 36 34  1  0  0  0  0
 36 39  1  0  0  0  0
 38 36  1  0  0  0  0
M  END
>  <minimizedAffinity>
-6.17508984

$$$$

 OpenBabel03242511303D

 39 43  0  0  1  0  0  0  0  0999 V2000
   39.3550   28.6170   41.5390 C   0  0  0  0  0  0  0  0  0  0  0  0
   40.7240   28.4820   41.7170 C   0  0  0  0  0  0  0  0  0  0  0  0
   41.3410   30.1960   41.3710 S   0  0  0  0  0  0  0  0  0  0  0  0
   39.5690   30.7820   41.0440 C   0  0  0  0  0  0  0  0  0  0  0  0
   39.0180   29.8270   41.2140 N   0  0  0  0  0  0  0  0  0  0  0  0
   41.3150   27.6140   41.9870 H   0  0  0  0  0  0  0  0  0  0  0  0
   39.4780   26.1480   39.6240 Cl  0  0  0  0  0  0  0  0  0  0  0  0
   38.4360   26.3110   40.9820 C   0  0  0  0  0  0  0  0  0  0  0  0
   37.5600   25.3010   41.3020 C   0  0  0  0  0  0  0  0  0  0  0  0
   36.6940   25.3910   42.3990 C   0  0  0  0  0  0  0  0  0  0  0  0
   36.7740   26.5440   43.1330 C   0  0  0  0  0  0  0  0  0  0  0  0
   37.6390   27.5440   42.8180 C   0  0  0  0  0  0  0  0  0  0  0  0
   38.4950   27.4490   41.7270 C   0  0  0  0  0  0  0  0  0  0  0  0
   36.0060   24.5940   42.6490 H   0  0  0  0  0  0  0  0  0  0  0  0
   36.1000   26.6090   43.9830 H   0  0  0  0  0  0  0  0  0  0  0  0
   37.6100   28.4140   43.4760 H   0  0  0  0  0  0  0  0  0  0  0  0
   36.6470   22.9070   38.6400 C   0  0  0  0  0  0  0  0  0  0  0  0
   37.4560   21.8190   38.9270 C   0  0  0  0  0  0  0  0  0  0  0  0
   38.3050   21.9010   40.0200 C   0  0  0  0  0  0  0  0  0  0  0  0
   38.3190   23.0320   40.7660 N   0  0  0  0  0  0  0  0  0  0  0  0
   37.5230   24.0950   40.4780 C   0  0  0  0  0  0  0  0  0  0  0  0
   36.6990   24.0090   39.4140 N   0  0  0  0  0  0  0  0  0  0  0  0
   35.9670   22.8910   37.7970 H   0  0  0  0  0  0  0  0  0  0  0  0
   37.4510   20.9270   38.3450 H   0  0  0  0  0  0  0  0  0  0  0  0
   38.9830   21.0970   40.3310 H   0  0  0  0  0  0  0  0  0  0  0  0
   38.1960   32.7180   40.4530 C   0  0  0  0  0  0  0  0  0  0  0  0
   39.4420   32.1910   40.6990 C   0  0  0  0  0  0  0  0  0  0  0  0
   40.4810   33.0930   40.6100 C   0  0  0  0  0  0  0  0  0  0  0  0
   41.4790   32.7410   40.7920 H   0  0  0  0  0  0  0  0  0  0  0  0
   40.2190   34.3980   40.2970 C   0  0  0  0  0  0  0  0  0  0  0  0
   41.0900   35.0430   40.2470 H   0  0  0  0  0  0  0  0  0  0  0  0
   38.9610   34.9100   40.0550 C   0  0  0  0  0  3  0  0  0  0  0  0
   37.9150   34.0210   40.1400 C   0  0  0  0  0  3  0  0  0  0  0  0
   36.0420   31.1920   40.9280 N   0  0  0  0  0  0  0  0  0  0  0  0
   37.0500   31.8320   40.4890 C   0  0  1  0  0  3  0  0  0  0  0  0
   36.6880   31.1750   39.2820 N   0  0  0  0  0  4  0  0  0  0  0  0
   35.6950   31.2290   41.9030 H   0  0  0  0  0  0  0  0  0  0  0  0
   36.8930   31.5620   38.3300 H   0  0  0  0  0  0  0  0  0  0  0  0
   36.4070   30.6660   38.4180 H   0  0  0  0  0  0  0  0  0  0  0  0
  1  2  2  0  0  0  0
  1 13  1  0  0  0  0
  2  6  1  0  0  0  0
  3  2  1  0  0  0  0
  4  5  2  0  0  0  0
  4  3  1  0  0  0  0
  5  1  1  0  0  0  0
  7  8  1  0  0  0  0
  8  9  2  0  0  0  0
  8 13  1  0  0  0  0
  9 10  1  0  0  0  0
 10 14  1  0  0  0  0
 10 11  2  0  0  0  0
 11 15  1  0  0  0  0
 12 11  1  0  0  0  0
 12 16  1  0  0  0  0
 13 12  2  0  0  0  0
 17 18  2  0  0  0  0
 17 22  1  0  0  0  0
 18 19  1  0  0  0  0
 19 25  1  0  0  0  0
 19 20  2  0  0  0  0
 21 20  1  0  0  0  0
 21  9  1  0  0  0  0
 22 21  2  0  0  0  0
 23 17  1  0  0  0  0
 24 18  1  0  0  0  0
 26 27  1  0  0  0  0
 27  4  1  0  0  0  0
 28 27  2  0  0  0  0
 28 29  1  0  0  0  0
 30 28  1  0  0  0  0
 31 30  1  0  0  0  0
 32 33  1  0  0  0  0
 32 30  2  0  0  0  0
 33 26  2  0  0  0  0
 34 37  1  0  0  0  0
 35 26  1  6  0  0  0
 35 34  1  0  0  0  0
 36 35  1  0  0  0  0
 36 34  1  0  0  0  0
 38 36  1  0  0  0  0
 39 36  1  0  0  0  0
M  END
>  <minimizedAffinity>
-6.132442

$$$$
