
     RDKit          3D

 50 53  0  0  0  0  0  0  0  0999 V2000
   47.3389   33.3981   43.6349 N   0  0  0  0  0  0  0  0  0  0  0  0
   48.1346   34.0220   42.6004 C   0  0  0  0  0  0  0  0  0  0  0  0
   48.0192   32.9661   41.5409 C   0  0  2  0  0  0  0  0  0  0  0  0
   48.3839   31.7296   42.3437 C   0  0  0  0  0  0  0  0  0  0  0  0
   47.7371   31.9991   43.6786 C   0  0  0  0  0  0  0  0  0  0  0  0
   44.5949   35.4537   45.0798 C   0  0  0  0  0  0  0  0  0  0  0  0
   45.5346   35.0058   44.1523 C   0  0  0  0  0  0  0  0  0  0  0  0
   46.3616   33.9362   44.4774 C   0  0  0  0  0  0  0  0  0  0  0  0
   46.1913   33.3847   45.7146 N   0  0  0  0  0  0  0  0  0  0  0  0
   45.2891   33.8092   46.6144 C   0  0  0  0  0  0  0  0  0  0  0  0
   44.4839   34.8548   46.2909 N   0  0  0  0  0  0  0  0  0  0  0  0
   49.0223   33.1031   40.5057 N   0  0  0  0  0  0  0  0  0  0  0  0
   49.4321   32.1873   38.2164 C   0  0  0  0  0  0  0  0  0  0  0  0
   48.8901   33.1380   39.0956 C   0  0  0  0  0  0  0  0  0  0  0  0
   48.2029   34.1304   38.4530 C   0  0  0  0  0  0  0  0  0  0  0  0
   48.0218   34.2490   37.1055 C   0  0  0  0  0  0  0  0  0  0  0  0
   48.5735   33.2895   36.2795 C   0  0  0  0  0  0  0  0  0  0  0  0
   49.2833   32.2551   36.8651 C   0  0  0  0  0  0  0  0  0  0  0  0
   50.7633   30.2126   39.3115 N   0  0  0  0  0  0  0  0  0  0  0  0
   50.1827   31.0927   38.8306 C   0  0  0  0  0  0  0  0  0  0  0  0
   47.7379   35.0104   42.3093 H   0  0  0  0  0  0  0  0  0  0  0  0
   49.1804   34.0637   42.9723 H   0  0  0  0  0  0  0  0  0  0  0  0
   46.9955   32.9142   41.1676 H   0  0  0  0  0  0  0  0  0  0  0  0
   49.4790   31.6743   42.4892 H   0  0  0  0  0  0  0  0  0  0  0  0
   48.0429   30.7912   41.8706 H   0  0  0  0  0  0  0  0  0  0  0  0
   46.8076   31.4015   43.7435 H   0  0  0  0  0  0  0  0  0  0  0  0
   48.4417   31.7927   44.5088 H   0  0  0  0  0  0  0  0  0  0  0  0
   43.9812   36.2890   44.7686 H   0  0  0  0  0  0  0  0  0  0  0  0
   45.6964   35.4169   43.1677 H   0  0  0  0  0  0  0  0  0  0  0  0
   45.2557   33.2916   47.5488 H   0  0  0  0  0  0  0  0  0  0  0  0
   49.9949   33.1873   40.9251 H   0  0  0  0  0  0  0  0  0  0  0  0
   47.7406   34.9211   39.0357 H   0  0  0  0  0  0  0  0  0  0  0  0
   47.4606   35.0680   36.6523 H   0  0  0  0  0  0  0  0  0  0  0  0
   48.4892   33.2902   35.2016 H   0  0  0  0  0  0  0  0  0  0  0  0
   48.5384   30.3174   38.5596 N   0  0  0  0  0  0  0  0  0  0  0  0
   49.5115   29.6934   37.9935 C   0  0  0  0  0  0  0  0  0  0  0  0
   50.1727   28.6748   38.7347 N   0  0  0  0  0  0  0  0  0  0  0  0
   49.9531   29.9918   36.6357 C   0  0  0  0  0  0  0  0  0  0  0  0
   49.8743   31.2307   36.0074 C   0  0  0  0  0  0  0  0  0  0  0  0
   50.3233   31.3993   34.7175 C   0  0  0  0  0  0  0  0  0  0  0  0
   50.2205   32.3960   34.3156 H   0  0  0  0  0  0  0  0  0  0  0  0
   50.8643   30.3620   33.9996 C   0  0  0  0  0  0  0  0  0  0  0  0
   51.2137   30.5059   32.9877 H   0  0  0  0  0  0  0  0  0  0  0  0
   50.9440   29.1349   34.6179 C   0  0  0  0  0  0  0  0  0  0  0  0
   50.5043   28.9371   35.9028 C   0  0  0  0  0  0  0  0  0  0  0  0
   48.2936   30.0353   39.5331 H   0  0  0  0  0  0  0  0  0  0  0  0
   50.2058   27.6845   38.3538 H   0  0  0  0  0  0  0  0  0  0  0  0
   50.7091   28.3179   39.5449 H   0  0  0  0  0  0  0  0  0  0  0  0
   51.3582   28.2782   34.1101 H   0  0  0  0  0  0  0  0  0  0  0  0
   50.5805   27.9633   36.3594 H   0  0  0  0  0  0  0  0  0  0  0  0
  1  5  1  0
  1  8  1  0
  2  1  1  0
  3  4  1  0
  3  2  1  0
  4  5  1  0
  6 11  2  0
  7  8  2  0
  7  6  1  0
  8  9  1  0
  9 10  2  0
 11 10  1  0
 12  3  1  0
 13 20  1  0
 13 14  2  0
 14 12  1  0
 15 14  1  0
 16 15  2  0
 17 18  2  0
 17 16  1  0
 18 13  1  0
 20 19  3  0
  2 21  1  0
  2 22  1  0
  3 23  1  6
  4 24  1  0
  4 25  1  0
  5 26  1  0
  5 27  1  0
  6 28  1  0
  7 29  1  0
 10 30  1  0
 12 31  1  0
 15 32  1  0
 16 33  1  0
 17 34  1  0
 35 36  2  3
 36 37  1  0
 36 38  1  0
 38 39  2  0
 39 40  1  0
 40 41  1  0
 40 42  2  0
 42 43  1  0
 42 44  1  0
 44 45  2  0
 45 38  1  0
 35 46  1  0
 37 47  1  0
 37 48  1  0
 44 49  1  0
 45 50  1  0
 18 39  1  0
M  ISO  8  21  13  22  13  23  13  24  13  25  13  26  13  27  13  28  14
M  ISO  7  29  14  30  14  32  14  33  14  34  14  41  15  43  16
M  END
>  <DihAtoms>  (1) 
16,17,38,37

>  <DihDeg>  (1) 
-90.00172009131876

$$$$
