
 OpenBabel03252502083D

 53 57  0  0  0  0  0  0  0  0999 V2000
   45.6830   33.7800   45.2730 C   0  0  0  0  0  0  0  0  0  0  0  0
   44.9060   34.7990   45.6560 N   0  0  0  0  0  0  0  0  0  0  0  0
   44.5980   35.8500   44.9070 C   0  0  0  0  0  0  0  0  0  0  0  0
   45.0820   35.9450   43.6500 N   0  0  0  0  0  0  0  0  0  0  0  0
   45.8780   34.9920   43.1350 C   0  0  0  0  0  0  0  0  0  0  0  0
   46.3900   35.0710   41.8560 C   0  0  0  0  0  0  0  0  0  0  0  0
   47.2010   34.1110   41.3400 C   0  0  0  0  0  0  0  0  0  0  0  0
   47.4990   33.0420   42.1440 C   0  0  0  0  0  0  0  0  0  0  0  0
   46.9640   32.9900   43.4330 C   0  0  0  0  0  0  0  0  0  0  0  0
   46.1560   33.9260   43.9740 C   0  0  0  0  0  0  0  0  0  0  0  0
   43.9560   36.6410   45.2930 H   0  0  0  0  0  0  0  0  0  0  0  0
   46.1310   35.9320   41.2490 H   0  0  0  0  0  0  0  0  0  0  0  0
   47.5650   34.2390   40.3300 H   0  0  0  0  0  0  0  0  0  0  0  0
   47.5120   31.9960   47.8320 C   0  0  0  0  0  0  0  0  0  0  0  0
   46.9710   30.7060   47.8810 C   0  0  0  0  0  0  0  0  0  0  0  0
   45.9360   30.4440   47.0240 C   0  0  0  0  0  0  0  0  0  0  0  0
   45.4960   31.3930   46.1950 N   0  0  0  0  0  0  0  0  0  0  0  0
   46.0040   32.6180   46.1360 C   0  0  0  0  0  0  0  0  0  0  0  0
   47.0160   32.8950   46.9720 N   0  0  0  0  0  0  0  0  0  0  0  0
   45.3350   29.2060   47.0370 N   0  0  0  0  0  0  0  0  0  0  0  0
   44.1020   28.8590   46.2780 C   0  0  0  0  0  0  0  0  0  0  0  0
   43.9890   27.3600   46.3420 C   0  0  0  0  0  0  0  0  0  0  0  0
   44.6620   27.0350   47.6370 C   0  0  0  0  0  0  0  0  0  0  0  0
   45.7530   28.0430   47.7640 C   0  0  0  0  0  0  0  0  0  0  0  0
   48.3400   32.2520   48.5000 H   0  0  0  0  0  0  0  0  0  0  0  0
   44.2220   29.1690   45.2170 H   0  0  0  0  0  0  0  0  0  0  0  0
   43.2260   29.3630   46.7680 H   0  0  0  0  0  0  0  0  0  0  0  0
   42.9400   27.0380   46.2920 H   0  0  0  0  0  0  0  0  0  0  0  0
   44.6080   26.9330   45.5160 H   0  0  0  0  0  0  0  0  0  0  0  0
   43.8920   27.1410   48.4290 H   0  0  0  0  0  0  0  0  0  0  0  0
   45.0370   25.9830   47.6500 H   0  0  0  0  0  0  0  0  0  0  0  0
   45.7990   28.2310   48.8790 H   0  0  0  0  0  0  0  0  0  0  0  0
   46.6800   27.5840   47.3720 H   0  0  0  0  0  0  0  0  0  0  0  0
   47.5460   29.8020   48.7240 N   0  0  0  0  0  0  0  0  0  0  0  0
   48.2050   29.0100   48.5540 H   0  0  0  0  0  0  0  0  0  0  0  0
   47.3190   29.8630   49.7600 H   0  0  0  0  0  0  0  0  0  0  0  0
   49.7690   32.0350   41.6140 C   0  0  0  0  0  0  0  0  0  0  0  0
   48.3750   32.0240   41.5650 C   0  0  0  0  0  0  0  0  0  0  0  0
   47.6850   30.9960   40.9350 C   0  0  0  0  0  0  0  0  0  0  0  0
   46.6040   30.9450   40.8720 H   0  0  0  0  0  0  0  0  0  0  0  0
   48.3910   29.9540   40.3360 C   0  0  0  0  0  0  0  0  0  0  0  0
   47.8280   29.1460   39.8410 H   0  0  0  0  0  0  0  0  0  0  0  0
   49.7720   29.9620   40.3830 C   0  0  0  0  0  3  0  0  0  0  0  0
   50.4410   30.9890   41.0140 C   0  0  0  0  0  3  0  0  0  0  0  0
   49.7300   33.7920   43.2030 N   0  0  0  0  0  0  0  0  0  0  0  0
   50.3900   33.1610   42.3020 C   0  0  0  0  0  0  0  0  0  0  0  0
   51.7240   33.3950   41.8260 N   0  0  0  0  0  0  0  0  0  0  0  0
   50.1410   34.6020   43.7150 H   0  0  0  0  0  0  0  0  0  0  0  0
   52.1300   34.2320   41.3570 H   0  0  0  0  0  0  0  0  0  0  0  0
   52.4880   32.6740   41.9160 H   0  0  0  0  0  0  0  0  0  0  0  0
   47.3780   31.7930   44.0990 N   0  0  0  0  0  0  0  0  0  0  0  0
   48.1610   31.5390   44.7360 H   0  0  0  0  0  0  0  0  0  0  0  0
   46.6610   31.0860   43.7980 H   0  0  0  0  0  0  0  0  0  0  0  0
  1  2  1  0  0  0  0
  1 18  1  0  0  0  0
  3 11  1  0  0  0  0
  3  2  2  0  0  0  0
  4  3  1  0  0  0  0
  5  4  2  0  0  0  0
  5 10  1  0  0  0  0
  6  5  1  0  0  0  0
  7  6  2  0  0  0  0
  7  8  1  0  0  0  0
  8  9  2  0  0  0  0
  9 10  1  0  0  0  0
  9 51  1  0  0  0  0
 10  1  2  0  0  0  0
 12  6  1  0  0  0  0
 13  7  1  0  0  0  0
 14 15  1  0  0  0  0
 14 25  1  0  0  0  0
 15 34  1  0  0  0  0
 16 20  1  0  0  0  0
 16 15  2  0  0  0  0
 17 16  1  0  0  0  0
 18 17  2  0  0  0  0
 18 19  1  0  0  0  0
 19 14  2  0  0  0  0
 20 24  1  0  0  0  0
 21 22  1  0  0  0  0
 21 27  1  0  0  0  0
 21 20  1  0  0  0  0
 22 23  1  0  0  0  0
 23 31  1  0  0  0  0
 23 24  1  0  0  0  0
 23 30  1  0  0  0  0
 24 32  1  0  0  0  0
 26 21  1  0  0  0  0
 28 22  1  0  0  0  0
 29 22  1  0  0  0  0
 33 24  1  0  0  0  0
 34 36  1  0  0  0  0
 35 34  1  0  0  0  0
 37 46  1  0  0  0  0
 38 37  1  0  0  0  0
 38  8  1  0  0  0  0
 39 38  2  0  0  0  0
 40 39  1  0  0  0  0
 41 43  2  0  0  0  0
 41 39  1  0  0  0  0
 42 41  1  0  0  0  0
 43 44  1  0  0  0  0
 44 37  2  0  0  0  0
 45 48  1  0  0  0  0
 46 45  2  0  0  0  0
 47 50  1  0  0  0  0
 47 46  1  0  0  0  0
 49 47  1  0  0  0  0
 51 52  1  0  0  0  0
 53 51  1  0  0  0  0
M  END
>  <minimizedAffinity>
-7.26553822

>  <minimizedRMSD>
0.461777151

$$$$
