
 OpenBabel03242522323D

 44 47  0  0  0  0  0  0  0  0999 V2000
   40.6860   31.3650   38.5260 F   0  0  0  0  0  0  0  0  0  0  0  0
   39.9940   32.4080   39.0590 C   0  0  0  0  0  0  0  0  0  0  0  0
   38.6530   32.3410   39.2110 C   0  0  0  0  0  0  0  0  0  0  0  0
   38.0290   33.4510   39.7620 C   0  0  0  0  0  0  0  0  0  0  0  0
   38.7220   34.5710   40.1420 C   0  0  0  0  0  0  0  0  0  0  0  0
   40.0770   34.5560   39.9540 C   0  0  0  0  0  0  0  0  0  0  0  0
   40.7490   33.4960   39.4170 C   0  0  0  0  0  0  0  0  0  0  0  0
   36.9490   33.4130   39.8920 H   0  0  0  0  0  0  0  0  0  0  0  0
   38.1940   35.4100   40.5680 H   0  0  0  0  0  0  0  0  0  0  0  0
   40.6140   35.4560   40.2620 H   0  0  0  0  0  0  0  0  0  0  0  0
   42.1740   33.6120   39.2740 C   0  0  0  0  0  0  0  0  0  0  0  0
   42.9790   33.4740   40.3900 C   0  0  0  0  0  0  0  0  0  0  0  0
   44.3280   33.5840   40.2460 C   0  0  0  0  0  0  0  0  0  0  0  0
   44.9020   33.8330   38.9990 C   0  0  0  0  0  0  0  0  0  0  0  0
   44.0470   33.9650   37.9010 C   0  0  0  0  0  0  0  0  0  0  0  0
   42.6850   33.8540   38.0430 C   0  0  0  0  0  0  0  0  0  0  0  0
   42.5020   33.2800   41.3450 H   0  0  0  0  0  0  0  0  0  0  0  0
   44.9170   33.4680   41.1450 H   0  0  0  0  0  0  0  0  0  0  0  0
   45.9790   33.9100   38.9530 H   0  0  0  0  0  0  0  0  0  0  0  0
   44.6060   34.1530   37.0030 H   0  0  0  0  0  0  0  0  0  0  0  0
   42.0640   34.0210   36.8280 O   0  0  0  0  0  0  0  0  0  0  0  0
   41.8700   33.2010   36.2660 H   0  0  0  0  0  0  0  0  0  0  0  0
   36.6250   29.8440   37.2430 C   0  0  0  0  0  0  0  0  0  0  0  0
   37.2730   31.0220   37.5970 C   0  0  0  0  0  0  0  0  0  0  0  0
   37.9540   31.1260   38.7900 C   0  0  0  0  0  0  0  0  0  0  0  0
   37.9230   30.0220   39.5320 N   0  0  0  0  0  0  0  0  0  0  0  0
   37.3170   28.8830   39.2310 C   0  0  0  0  0  0  0  0  0  0  0  0
   36.6600   28.8120   38.0570 N   0  0  0  0  0  0  0  0  0  0  0  0
   36.1000   29.8120   36.2890 H   0  0  0  0  0  0  0  0  0  0  0  0
   37.2410   31.8690   36.9210 H   0  0  0  0  0  0  0  0  0  0  0  0
   37.0810   27.6900   41.4130 C   0  0  0  0  0  0  0  0  0  0  0  0
   37.2960   27.6850   40.0620 C   0  0  0  0  0  0  0  0  0  0  0  0
   37.5020   26.4340   39.5230 C   0  0  0  0  0  0  0  0  0  0  0  0
   37.6800   26.3670   38.4410 H   0  0  0  0  0  0  0  0  0  0  0  0
   37.4830   25.3050   40.3080 C   0  0  0  0  0  0  0  0  0  0  0  0
   37.6540   24.3800   39.7870 H   0  0  0  0  0  0  0  0  0  0  0  0
   37.2630   25.3500   41.6650 C   0  0  0  0  0  3  0  0  0  0  0  0
   37.0550   26.5870   42.2320 C   0  0  0  0  0  3  0  0  0  0  0  0
   36.4840   30.1570   42.1870 N   0  0  0  0  0  0  0  0  0  0  0  0
   36.8380   28.9300   42.1140 C   0  0  0  0  0  0  0  0  0  0  0  0
   37.0670   29.0480   43.5250 N   0  0  0  0  0  0  0  0  0  0  0  0
   36.5440   30.5690   43.1620 H   0  0  0  0  0  0  0  0  0  0  0  0
   36.4380   28.5840   44.2440 H   0  0  0  0  0  0  0  0  0  0  0  0
   37.5070   29.3300   44.4240 H   0  0  0  0  0  0  0  0  0  0  0  0
  1  2  1  0  0  0  0
  2  3  2  0  0  0  0
  2  7  1  0  0  0  0
  3  4  1  0  0  0  0
  4  8  1  0  0  0  0
  4  5  2  0  0  0  0
  5  9  1  0  0  0  0
  6  5  1  0  0  0  0
  6 10  1  0  0  0  0
  7  6  2  0  0  0  0
 11  7  1  0  0  0  0
 11 12  1  0  0  0  0
 12 17  1  0  0  0  0
 13 12  2  0  0  0  0
 13 18  1  0  0  0  0
 14 13  1  0  0  0  0
 15 16  1  0  0  0  0
 15 14  2  0  0  0  0
 16 11  2  0  0  0  0
 19 14  1  0  0  0  0
 20 15  1  0  0  0  0
 21 16  1  0  0  0  0
 22 21  1  0  0  0  0
 23 24  2  0  0  0  0
 23 28  1  0  0  0  0
 24 25  1  0  0  0  0
 25  3  1  0  0  0  0
 25 26  2  0  0  0  0
 27 26  1  0  0  0  0
 27 32  1  0  0  0  0
 28 27  2  0  0  0  0
 29 23  1  0  0  0  0
 30 24  1  0  0  0  0
 31 40  1  0  0  0  0
 31 38  1  0  0  0  0
 32 31  2  0  0  0  0
 33 32  1  0  0  0  0
 33 35  2  0  0  0  0
 34 33  1  0  0  0  0
 35 37  1  0  0  0  0
 36 35  1  0  0  0  0
 37 38  2  0  0  0  0
 39 42  1  0  0  0  0
 40 39  2  0  0  0  0
 40 41  1  0  0  0  0
 41 43  1  0  0  0  0
 41 44  1  0  0  0  0
M  END
>  <minimizedAffinity>
-7.65717459

$$$$

 OpenBabel03242522323D

 44 47  0  0  0  0  0  0  0  0999 V2000
   38.9060   30.1140   41.2980 F   0  0  0  0  0  0  0  0  0  0  0  0
   38.1550   30.0630   40.1660 C   0  0  0  0  0  0  0  0  0  0  0  0
   38.0010   31.1590   39.3900 C   0  0  0  0  0  0  0  0  0  0  0  0
   37.2170   31.0170   38.2540 C   0  0  0  0  0  0  0  0  0  0  0  0
   36.6190   29.8310   37.9170 C   0  0  0  0  0  0  0  0  0  0  0  0
   36.8260   28.7700   38.7560 C   0  0  0  0  0  0  0  0  0  0  0  0
   37.5860   28.8460   39.8880 C   0  0  0  0  0  0  0  0  0  0  0  0
   37.0830   31.8910   37.6190 H   0  0  0  0  0  0  0  0  0  0  0  0
   36.0190   29.7670   37.0220 H   0  0  0  0  0  0  0  0  0  0  0  0
   36.3430   27.8320   38.4730 H   0  0  0  0  0  0  0  0  0  0  0  0
   37.7210   27.6570   40.6820 C   0  0  0  0  0  0  0  0  0  0  0  0
   38.6150   26.6780   40.2860 C   0  0  0  0  0  0  0  0  0  0  0  0
   38.7380   25.5540   41.0440 C   0  0  0  0  0  0  0  0  0  0  0  0
   37.9810   25.3790   42.2030 C   0  0  0  0  0  0  0  0  0  0  0  0
   37.0920   26.3960   42.5620 C   0  0  0  0  0  0  0  0  0  0  0  0
   36.9650   27.5320   41.7990 C   0  0  0  0  0  0  0  0  0  0  0  0
   39.1890   26.8440   39.3810 H   0  0  0  0  0  0  0  0  0  0  0  0
   39.4490   24.8170   40.6970 H   0  0  0  0  0  0  0  0  0  0  0  0
   38.1260   24.4640   42.7600 H   0  0  0  0  0  0  0  0  0  0  0  0
   36.5710   26.1450   43.4670 H   0  0  0  0  0  0  0  0  0  0  0  0
   36.0340   28.3780   42.3540 O   0  0  0  0  0  0  0  0  0  0  0  0
   36.3520   29.0900   43.0010 H   0  0  0  0  0  0  0  0  0  0  0  0
   38.6330   34.6960   40.5360 C   0  0  0  0  0  0  0  0  0  0  0  0
   37.9630   33.5350   40.1650 C   0  0  0  0  0  0  0  0  0  0  0  0
   38.6560   32.4050   39.7900 C   0  0  0  0  0  0  0  0  0  0  0  0
   39.9790   32.5430   39.8220 N   0  0  0  0  0  0  0  0  0  0  0  0
   40.6540   33.6290   40.1690 C   0  0  0  0  0  0  0  0  0  0  0  0
   39.9480   34.7180   40.5310 N   0  0  0  0  0  0  0  0  0  0  0  0
   38.0400   35.5630   40.8250 H   0  0  0  0  0  0  0  0  0  0  0  0
   36.8790   33.5240   40.1720 H   0  0  0  0  0  0  0  0  0  0  0  0
   42.8970   33.7700   39.0800 C   0  0  0  0  0  0  0  0  0  0  0  0
   42.1060   33.7560   40.1960 C   0  0  0  0  0  0  0  0  0  0  0  0
   42.7950   33.8700   41.3830 C   0  0  0  0  0  0  0  0  0  0  0  0
   42.2120   33.8640   42.3140 H   0  0  0  0  0  0  0  0  0  0  0  0
   44.1650   33.9880   41.4070 C   0  0  0  0  0  0  0  0  0  0  0  0
   44.6010   34.0710   42.3860 H   0  0  0  0  0  0  0  0  0  0  0  0
   44.9280   33.9990   40.2620 C   0  0  0  0  0  3  0  0  0  0  0  0
   44.2660   33.8860   39.0600 C   0  0  0  0  0  3  0  0  0  0  0  0
   41.4720   33.2170   36.9100 N   0  0  0  0  0  0  0  0  0  0  0  0
   42.3120   33.6720   37.7630 C   0  0  0  0  0  0  0  0  0  0  0  0
   42.8230   34.4320   36.6590 N   0  0  0  0  0  0  0  0  0  0  0  0
   41.5930   33.6090   35.9320 H   0  0  0  0  0  0  0  0  0  0  0  0
   42.6860   35.4820   36.5790 H   0  0  0  0  0  0  0  0  0  0  0  0
   43.3060   34.6530   35.7650 H   0  0  0  0  0  0  0  0  0  0  0  0
  2  1  1  0  0  0  0
  3 25  1  0  0  0  0
  3  2  2  0  0  0  0
  4  3  1  0  0  0  0
  5  4  2  0  0  0  0
  5  6  1  0  0  0  0
  6  7  2  0  0  0  0
  7  2  1  0  0  0  0
  7 11  1  0  0  0  0
  8  4  1  0  0  0  0
  9  5  1  0  0  0  0
 10  6  1  0  0  0  0
 11 16  1  0  0  0  0
 12 11  2  0  0  0  0
 12 13  1  0  0  0  0
 13 14  2  0  0  0  0
 14 15  1  0  0  0  0
 14 19  1  0  0  0  0
 15 20  1  0  0  0  0
 16 21  1  0  0  0  0
 16 15  2  0  0  0  0
 17 12  1  0  0  0  0
 18 13  1  0  0  0  0
 21 22  1  0  0  0  0
 23 29  1  0  0  0  0
 24 30  1  0  0  0  0
 24 23  2  0  0  0  0
 25 26  2  0  0  0  0
 25 24  1  0  0  0  0
 26 27  1  0  0  0  0
 27 32  1  0  0  0  0
 27 28  2  0  0  0  0
 28 23  1  0  0  0  0
 31 32  1  0  0  0  0
 32 33  2  0  0  0  0
 33 35  1  0  0  0  0
 33 34  1  0  0  0  0
 35 36  1  0  0  0  0
 37 35  2  0  0  0  0
 38 31  2  0  0  0  0
 38 37  1  0  0  0  0
 39 40  2  0  0  0  0
 40 31  1  0  0  0  0
 41 40  1  0  0  0  0
 42 39  1  0  0  0  0
 43 41  1  0  0  0  0
 44 41  1  0  0  0  0
M  END
>  <minimizedAffinity>
-7.60564995

$$$$

 OpenBabel03242522323D

 44 47  0  0  0  0  0  0  0  0999 V2000
   34.0150   29.7220   37.6230 F   0  0  0  0  0  0  0  0  0  0  0  0
   33.4730   28.6000   37.0750 C   0  0  0  0  0  0  0  0  0  0  0  0
   34.1540   27.4330   37.0780 C   0  0  0  0  0  0  0  0  0  0  0  0
   33.5260   26.3400   36.4970 C   0  0  0  0  0  0  0  0  0  0  0  0
   32.2750   26.4200   35.9420 C   0  0  0  0  0  0  0  0  0  0  0  0
   31.6560   27.6400   35.9810 C   0  0  0  0  0  0  0  0  0  0  0  0
   32.2200   28.7520   36.5370 C   0  0  0  0  0  0  0  0  0  0  0  0
   34.0610   25.3930   36.4930 H   0  0  0  0  0  0  0  0  0  0  0  0
   31.8260   25.5440   35.5020 H   0  0  0  0  0  0  0  0  0  0  0  0
   30.6600   27.6870   35.5340 H   0  0  0  0  0  0  0  0  0  0  0  0
   31.4610   29.9700   36.5100 C   0  0  0  0  0  0  0  0  0  0  0  0
   31.4590   30.7410   35.3620 C   0  0  0  0  0  0  0  0  0  0  0  0
   30.7350   31.8940   35.3440 C   0  0  0  0  0  0  0  0  0  0  0  0
   30.0040   32.3040   36.4590 C   0  0  0  0  0  0  0  0  0  0  0  0
   30.0370   31.4910   37.5960 C   0  0  0  0  0  0  0  0  0  0  0  0
   30.7660   30.3270   37.6170 C   0  0  0  0  0  0  0  0  0  0  0  0
   32.0370   30.3950   34.5120 H   0  0  0  0  0  0  0  0  0  0  0  0
   30.7630   32.4630   34.4250 H   0  0  0  0  0  0  0  0  0  0  0  0
   29.4510   33.2290   36.3800 H   0  0  0  0  0  0  0  0  0  0  0  0
   29.4380   31.9120   38.3820 H   0  0  0  0  0  0  0  0  0  0  0  0
   30.6410   29.7080   38.8390 O   0  0  0  0  0  0  0  0  0  0  0  0
   29.9100   29.0170   38.9590 H   0  0  0  0  0  0  0  0  0  0  0  0
   37.8860   27.2120   37.5680 C   0  0  0  0  0  0  0  0  0  0  0  0
   36.6430   27.2430   36.9460 C   0  0  0  0  0  0  0  0  0  0  0  0
   35.4870   27.3940   37.6810 C   0  0  0  0  0  0  0  0  0  0  0  0
   35.6870   27.5030   38.9920 N   0  0  0  0  0  0  0  0  0  0  0  0
   36.8520   27.4780   39.6200 C   0  0  0  0  0  0  0  0  0  0  0  0
   37.9640   27.3290   38.8740 N   0  0  0  0  0  0  0  0  0  0  0  0
   38.7710   27.0900   36.9430 H   0  0  0  0  0  0  0  0  0  0  0  0
   36.5860   27.1460   35.8680 H   0  0  0  0  0  0  0  0  0  0  0  0
   37.0740   28.7880   41.7350 C   0  0  0  0  0  0  0  0  0  0  0  0
   37.0450   27.5990   41.0610 C   0  0  0  0  0  0  0  0  0  0  0  0
   37.2200   26.4880   41.8570 C   0  0  0  0  0  0  0  0  0  0  0  0
   37.2060   25.5030   41.3710 H   0  0  0  0  0  0  0  0  0  0  0  0
   37.4040   26.6040   43.2150 C   0  0  0  0  0  0  0  0  0  0  0  0
   37.5300   25.6750   43.7420 H   0  0  0  0  0  0  0  0  0  0  0  0
   37.4260   27.8190   43.8590 C   0  0  0  0  0  3  0  0  0  0  0  0
   37.2550   28.9470   43.0880 C   0  0  0  0  0  3  0  0  0  0  0  0
   37.2340   30.9460   40.1990 N   0  0  0  0  0  0  0  0  0  0  0  0
   36.8920   30.0370   41.0310 C   0  0  0  0  0  0  0  0  0  0  0  0
   35.7440   30.8650   41.2640 N   0  0  0  0  0  0  0  0  0  0  0  0
   36.5490   31.7530   40.1320 H   0  0  0  0  0  0  0  0  0  0  0  0
   34.7720   30.5990   40.9270 H   0  0  0  0  0  0  0  0  0  0  0  0
   35.1660   31.6650   41.5920 H   0  0  0  0  0  0  0  0  0  0  0  0
  2  3  1  0  0  0  0
  2  1  1  0  0  0  0
  3 25  1  0  0  0  0
  4  3  2  0  0  0  0
  5  6  2  0  0  0  0
  5  4  1  0  0  0  0
  6  7  1  0  0  0  0
  7  2  2  0  0  0  0
  8  4  1  0  0  0  0
  9  5  1  0  0  0  0
 10  6  1  0  0  0  0
 11  7  1  0  0  0  0
 11 16  1  0  0  0  0
 12 11  2  0  0  0  0
 13 12  1  0  0  0  0
 13 14  2  0  0  0  0
 14 15  1  0  0  0  0
 15 16  2  0  0  0  0
 15 20  1  0  0  0  0
 16 21  1  0  0  0  0
 17 12  1  0  0  0  0
 18 13  1  0  0  0  0
 19 14  1  0  0  0  0
 21 22  1  0  0  0  0
 23 28  1  0  0  0  0
 24 23  2  0  0  0  0
 24 25  1  0  0  0  0
 25 26  2  0  0  0  0
 26 27  1  0  0  0  0
 27 32  1  0  0  0  0
 28 27  2  0  0  0  0
 29 23  1  0  0  0  0
 30 24  1  0  0  0  0
 31 38  1  0  0  0  0
 32 31  2  0  0  0  0
 32 33  1  0  0  0  0
 33 35  2  0  0  0  0
 34 33  1  0  0  0  0
 35 36  1  0  0  0  0
 35 37  1  0  0  0  0
 38 37  2  0  0  0  0
 39 40  2  0  0  0  0
 40 41  1  0  0  0  0
 40 31  1  0  0  0  0
 41 44  1  0  0  0  0
 42 39  1  0  0  0  0
 43 41  1  0  0  0  0
M  END
>  <minimizedAffinity>
-7.32226944

$$$$

 OpenBabel03242522323D

 44 47  0  0  0  0  0  0  0  0999 V2000
   36.8100   31.3920   38.1720 F   0  0  0  0  0  0  0  0  0  0  0  0
   36.8790   30.6460   39.3080 C   0  0  0  0  0  0  0  0  0  0  0  0
   37.6170   31.0600   40.3610 C   0  0  0  0  0  0  0  0  0  0  0  0
   37.6300   30.2360   41.4780 C   0  0  0  0  0  0  0  0  0  0  0  0
   36.9350   29.0570   41.5300 C   0  0  0  0  0  0  0  0  0  0  0  0
   36.2120   28.7120   40.4210 C   0  0  0  0  0  0  0  0  0  0  0  0
   36.1590   29.4790   39.2920 C   0  0  0  0  0  0  0  0  0  0  0  0
   38.2200   30.5550   42.3350 H   0  0  0  0  0  0  0  0  0  0  0  0
   36.9740   28.4490   42.4210 H   0  0  0  0  0  0  0  0  0  0  0  0
   35.6630   27.7690   40.4780 H   0  0  0  0  0  0  0  0  0  0  0  0
   35.3620   28.9990   38.1970 C   0  0  0  0  0  0  0  0  0  0  0  0
   33.9840   29.1020   38.2680 C   0  0  0  0  0  0  0  0  0  0  0  0
   33.2360   28.6470   37.2260 C   0  0  0  0  0  0  0  0  0  0  0  0
   33.8360   28.0820   36.0990 C   0  0  0  0  0  0  0  0  0  0  0  0
   35.2310   28.0000   36.0750 C   0  0  0  0  0  0  0  0  0  0  0  0
   35.9890   28.4590   37.1250 C   0  0  0  0  0  0  0  0  0  0  0  0
   33.5480   29.5460   39.1560 H   0  0  0  0  0  0  0  0  0  0  0  0
   32.1640   28.7490   37.3250 H   0  0  0  0  0  0  0  0  0  0  0  0
   33.1850   27.7400   35.3070 H   0  0  0  0  0  0  0  0  0  0  0  0
   35.5700   27.5500   35.1600 H   0  0  0  0  0  0  0  0  0  0  0  0
   37.3260   28.2690   36.8660 O   0  0  0  0  0  0  0  0  0  0  0  0
   37.8450   29.0190   36.4260 H   0  0  0  0  0  0  0  0  0  0  0  0
   38.4580   34.7210   40.0300 C   0  0  0  0  0  0  0  0  0  0  0  0
   37.7200   33.5460   40.1230 C   0  0  0  0  0  0  0  0  0  0  0  0
   38.3450   32.3260   40.2600 C   0  0  0  0  0  0  0  0  0  0  0  0
   39.6730   32.3950   40.2920 N   0  0  0  0  0  0  0  0  0  0  0  0
   40.4100   33.4920   40.2070 C   0  0  0  0  0  0  0  0  0  0  0  0
   39.7700   34.6700   40.0740 N   0  0  0  0  0  0  0  0  0  0  0  0
   37.9170   35.6610   39.9230 H   0  0  0  0  0  0  0  0  0  0  0  0
   36.6380   33.5950   40.0870 H   0  0  0  0  0  0  0  0  0  0  0  0
   42.6650   33.5440   39.1330 C   0  0  0  0  0  0  0  0  0  0  0  0
   41.8670   33.5430   40.2440 C   0  0  0  0  0  0  0  0  0  0  0  0
   42.5530   33.5910   41.4370 C   0  0  0  0  0  0  0  0  0  0  0  0
   41.9650   33.5930   42.3650 H   0  0  0  0  0  0  0  0  0  0  0  0
   43.9280   33.6380   41.4710 C   0  0  0  0  0  0  0  0  0  0  0  0
   44.3620   33.6740   42.4540 H   0  0  0  0  0  0  0  0  0  0  0  0
   44.6970   33.6380   40.3310 C   0  0  0  0  0  3  0  0  0  0  0  0
   44.0380   33.5890   39.1230 C   0  0  0  0  0  3  0  0  0  0  0  0
   41.2560   33.0860   36.9310 N   0  0  0  0  0  0  0  0  0  0  0  0
   42.0830   33.5090   37.8110 C   0  0  0  0  0  0  0  0  0  0  0  0
   42.5780   34.3430   36.7540 N   0  0  0  0  0  0  0  0  0  0  0  0
   41.3680   33.5360   35.9780 H   0  0  0  0  0  0  0  0  0  0  0  0
   42.4180   35.3930   36.7350 H   0  0  0  0  0  0  0  0  0  0  0  0
   43.0570   34.6280   35.8760 H   0  0  0  0  0  0  0  0  0  0  0  0
  1  2  1  0  0  0  0
  2  3  1  0  0  0  0
  3  4  2  0  0  0  0
  4  5  1  0  0  0  0
  4  8  1  0  0  0  0
  5  9  1  0  0  0  0
  6 10  1  0  0  0  0
  6  5  2  0  0  0  0
  7  2  2  0  0  0  0
  7  6  1  0  0  0  0
 11 12  1  0  0  0  0
 11  7  1  0  0  0  0
 12 17  1  0  0  0  0
 13 18  1  0  0  0  0
 13 12  2  0  0  0  0
 14 13  1  0  0  0  0
 15 14  2  0  0  0  0
 15 16  1  0  0  0  0
 16 11  2  0  0  0  0
 19 14  1  0  0  0  0
 20 15  1  0  0  0  0
 21 16  1  0  0  0  0
 22 21  1  0  0  0  0
 23 28  2  0  0  0  0
 23 24  1  0  0  0  0
 24 25  2  0  0  0  0
 25 26  1  0  0  0  0
 25  3  1  0  0  0  0
 27 32  1  0  0  0  0
 27 26  2  0  0  0  0
 28 27  1  0  0  0  0
 29 23  1  0  0  0  0
 30 24  1  0  0  0  0
 31 32  1  0  0  0  0
 32 33  2  0  0  0  0
 33 35  1  0  0  0  0
 33 34  1  0  0  0  0
 35 36  1  0  0  0  0
 37 35  2  0  0  0  0
 38 31  2  0  0  0  0
 38 37  1  0  0  0  0
 39 40  2  0  0  0  0
 40 31  1  0  0  0  0
 41 40  1  0  0  0  0
 42 39  1  0  0  0  0
 43 41  1  0  0  0  0
 44 41  1  0  0  0  0
M  END
>  <minimizedAffinity>
-7.21857643

$$$$

 OpenBabel03242522323D

 44 47  0  0  0  0  0  0  0  0999 V2000
   35.0890   27.7950   39.6990 F   0  0  0  0  0  0  0  0  0  0  0  0
   36.0670   28.3820   38.9570 C   0  0  0  0  0  0  0  0  0  0  0  0
   35.8410   28.7360   37.6730 C   0  0  0  0  0  0  0  0  0  0  0  0
   36.8950   29.3280   36.9920 C   0  0  0  0  0  0  0  0  0  0  0  0
   38.1140   29.5520   37.5750 C   0  0  0  0  0  0  0  0  0  0  0  0
   38.2600   29.1630   38.8790 C   0  0  0  0  0  0  0  0  0  0  0  0
   37.2620   28.5760   39.6030 C   0  0  0  0  0  0  0  0  0  0  0  0
   36.7280   29.6190   35.9560 H   0  0  0  0  0  0  0  0  0  0  0  0
   38.9050   30.0160   37.0060 H   0  0  0  0  0  0  0  0  0  0  0  0
   39.2370   29.3490   39.3290 H   0  0  0  0  0  0  0  0  0  0  0  0
   37.5480   28.2160   40.9640 C   0  0  0  0  0  0  0  0  0  0  0  0
   38.2140   27.0320   41.2250 C   0  0  0  0  0  0  0  0  0  0  0  0
   38.4820   26.6990   42.5170 C   0  0  0  0  0  0  0  0  0  0  0  0
   38.0970   27.5280   43.5710 C   0  0  0  0  0  0  0  0  0  0  0  0
   37.4260   28.7140   43.2570 C   0  0  0  0  0  0  0  0  0  0  0  0
   37.1550   29.0540   41.9540 C   0  0  0  0  0  0  0  0  0  0  0  0
   38.5000   26.4100   40.3840 H   0  0  0  0  0  0  0  0  0  0  0  0
   39.0040   25.7650   42.6720 H   0  0  0  0  0  0  0  0  0  0  0  0
   38.3400   27.2060   44.5730 H   0  0  0  0  0  0  0  0  0  0  0  0
   37.1850   29.2630   44.1480 H   0  0  0  0  0  0  0  0  0  0  0  0
   36.4920   30.2570   41.9030 O   0  0  0  0  0  0  0  0  0  0  0  0
   37.0360   31.1050   41.7990 H   0  0  0  0  0  0  0  0  0  0  0  0
   32.8410   27.0280   36.1560 C   0  0  0  0  0  0  0  0  0  0  0  0
   34.1030   27.2220   36.7050 C   0  0  0  0  0  0  0  0  0  0  0  0
   34.5230   28.4760   37.0910 C   0  0  0  0  0  0  0  0  0  0  0  0
   33.6250   29.4370   36.8880 N   0  0  0  0  0  0  0  0  0  0  0  0
   32.4160   29.2930   36.3680 C   0  0  0  0  0  0  0  0  0  0  0  0
   32.0340   28.0540   36.0010 N   0  0  0  0  0  0  0  0  0  0  0  0
   32.5550   26.0170   35.8660 H   0  0  0  0  0  0  0  0  0  0  0  0
   34.7640   26.3720   36.8300 H   0  0  0  0  0  0  0  0  0  0  0  0
   30.5060   30.7420   37.0710 C   0  0  0  0  0  0  0  0  0  0  0  0
   31.4480   30.3630   36.1550 C   0  0  0  0  0  0  0  0  0  0  0  0
   31.4190   31.0800   34.9790 C   0  0  0  0  0  0  0  0  0  0  0  0
   32.1530   30.8210   34.2040 H   0  0  0  0  0  0  0  0  0  0  0  0
   30.5040   32.0880   34.7780 C   0  0  0  0  0  0  0  0  0  0  0  0
   30.5680   32.5830   33.8260 H   0  0  0  0  0  0  0  0  0  0  0  0
   29.5710   32.4400   35.7250 C   0  0  0  0  0  3  0  0  0  0  0  0
   29.5770   31.7400   36.9110 C   0  0  0  0  0  3  0  0  0  0  0  0
   30.8260   29.8400   39.5470 N   0  0  0  0  0  0  0  0  0  0  0  0
   30.4260   30.0860   38.3570 C   0  0  0  0  0  0  0  0  0  0  0  0
   29.3830   29.1470   38.6530 N   0  0  0  0  0  0  0  0  0  0  0  0
   30.2280   29.1370   40.0690 H   0  0  0  0  0  0  0  0  0  0  0  0
   28.3750   29.4460   38.8070 H   0  0  0  0  0  0  0  0  0  0  0  0
   28.9070   28.2420   38.8420 H   0  0  0  0  0  0  0  0  0  0  0  0
  2  7  1  0  0  0  0
  2  1  1  0  0  0  0
  3  2  2  0  0  0  0
  4  5  2  0  0  0  0
  4  3  1  0  0  0  0
  5  6  1  0  0  0  0
  6 10  1  0  0  0  0
  6  7  2  0  0  0  0
  7 11  1  0  0  0  0
  8  4  1  0  0  0  0
  9  5  1  0  0  0  0
 11 12  2  0  0  0  0
 11 16  1  0  0  0  0
 12 13  1  0  0  0  0
 13 18  1  0  0  0  0
 13 14  2  0  0  0  0
 14 19  1  0  0  0  0
 15 14  1  0  0  0  0
 15 20  1  0  0  0  0
 16 15  2  0  0  0  0
 17 12  1  0  0  0  0
 21 16  1  0  0  0  0
 22 21  1  0  0  0  0
 23 24  1  0  0  0  0
 24 30  1  0  0  0  0
 24 25  2  0  0  0  0
 25  3  1  0  0  0  0
 26 25  1  0  0  0  0
 27 26  2  0  0  0  0
 28 23  2  0  0  0  0
 28 27  1  0  0  0  0
 29 23  1  0  0  0  0
 31 40  1  0  0  0  0
 32 27  1  0  0  0  0
 32 31  2  0  0  0  0
 33 32  1  0  0  0  0
 34 33  1  0  0  0  0
 35 33  2  0  0  0  0
 35 37  1  0  0  0  0
 36 35  1  0  0  0  0
 37 38  2  0  0  0  0
 38 31  1  0  0  0  0
 39 42  1  0  0  0  0
 40 41  1  0  0  0  0
 40 39  2  0  0  0  0
 41 43  1  0  0  0  0
 41 44  1  0  0  0  0
M  END
>  <minimizedAffinity>
-7.16793871

$$$$

 OpenBabel03242522323D

 44 47  0  0  0  0  0  0  0  0999 V2000
   36.1250   30.4810   37.6170 F   0  0  0  0  0  0  0  0  0  0  0  0
   36.3440   29.5710   38.6050 C   0  0  0  0  0  0  0  0  0  0  0  0
   35.5740   28.4650   38.7080 C   0  0  0  0  0  0  0  0  0  0  0  0
   35.8680   27.5920   39.7450 C   0  0  0  0  0  0  0  0  0  0  0  0
   36.8870   27.8210   40.6320 C   0  0  0  0  0  0  0  0  0  0  0  0
   37.6190   28.9630   40.4570 C   0  0  0  0  0  0  0  0  0  0  0  0
   37.3790   29.8620   39.4570 C   0  0  0  0  0  0  0  0  0  0  0  0
   35.2570   26.6970   39.8410 H   0  0  0  0  0  0  0  0  0  0  0  0
   37.0790   27.1120   41.4230 H   0  0  0  0  0  0  0  0  0  0  0  0
   38.4270   29.1310   41.1720 H   0  0  0  0  0  0  0  0  0  0  0  0
   38.2230   31.0220   39.3860 C   0  0  0  0  0  0  0  0  0  0  0  0
   39.4550   30.9260   38.7670 C   0  0  0  0  0  0  0  0  0  0  0  0
   40.2490   32.0300   38.7030 C   0  0  0  0  0  0  0  0  0  0  0  0
   39.8370   33.2460   39.2500 C   0  0  0  0  0  0  0  0  0  0  0  0
   38.5830   33.2940   39.8660 C   0  0  0  0  0  0  0  0  0  0  0  0
   37.7800   32.1810   39.9320 C   0  0  0  0  0  0  0  0  0  0  0  0
   39.7460   29.9670   38.3500 H   0  0  0  0  0  0  0  0  0  0  0  0
   41.2020   31.9070   38.2090 H   0  0  0  0  0  0  0  0  0  0  0  0
   40.5140   34.0840   39.1670 H   0  0  0  0  0  0  0  0  0  0  0  0
   38.3830   34.2780   40.2460 H   0  0  0  0  0  0  0  0  0  0  0  0
   36.6060   32.4780   40.5820 O   0  0  0  0  0  0  0  0  0  0  0  0
   35.8090   32.7740   40.0310 H   0  0  0  0  0  0  0  0  0  0  0  0
   33.2580   26.9340   36.1560 C   0  0  0  0  0  0  0  0  0  0  0  0
   34.2980   27.0760   37.0690 C   0  0  0  0  0  0  0  0  0  0  0  0
   34.4960   28.2630   37.7390 C   0  0  0  0  0  0  0  0  0  0  0  0
   33.6210   29.2160   37.4280 N   0  0  0  0  0  0  0  0  0  0  0  0
   32.6200   29.1210   36.5660 C   0  0  0  0  0  0  0  0  0  0  0  0
   32.4510   27.9460   35.9270 N   0  0  0  0  0  0  0  0  0  0  0  0
   33.1420   25.9750   35.6520 H   0  0  0  0  0  0  0  0  0  0  0  0
   34.9590   26.2370   37.2530 H   0  0  0  0  0  0  0  0  0  0  0  0
   30.6960   30.6250   37.0900 C   0  0  0  0  0  0  0  0  0  0  0  0
   31.6720   30.1810   36.2420 C   0  0  0  0  0  0  0  0  0  0  0  0
   31.6990   30.8180   35.0210 C   0  0  0  0  0  0  0  0  0  0  0  0
   32.4630   30.5040   34.2970 H   0  0  0  0  0  0  0  0  0  0  0  0
   30.8040   31.8170   34.7160 C   0  0  0  0  0  0  0  0  0  0  0  0
   30.9130   32.2470   33.7370 H   0  0  0  0  0  0  0  0  0  0  0  0
   29.8340   32.2370   35.5970 C   0  0  0  0  0  3  0  0  0  0  0  0
   29.7840   31.6170   36.8250 C   0  0  0  0  0  3  0  0  0  0  0  0
   30.9660   29.7770   39.5910 N   0  0  0  0  0  0  0  0  0  0  0  0
   30.5550   30.0560   38.4110 C   0  0  0  0  0  0  0  0  0  0  0  0
   29.3530   29.3840   38.8120 N   0  0  0  0  0  0  0  0  0  0  0  0
   30.2620   29.2450   40.1800 H   0  0  0  0  0  0  0  0  0  0  0  0
   28.4460   29.9040   39.0010 H   0  0  0  0  0  0  0  0  0  0  0  0
   28.7030   28.6150   39.0730 H   0  0  0  0  0  0  0  0  0  0  0  0
  1  2  1  0  0  0  0
  2  3  2  0  0  0  0
  2  7  1  0  0  0  0
  3  4  1  0  0  0  0
  4  8  1  0  0  0  0
  4  5  2  0  0  0  0
  5  9  1  0  0  0  0
  6  5  1  0  0  0  0
  6 10  1  0  0  0  0
  7  6  2  0  0  0  0
 11  7  1  0  0  0  0
 11 16  1  0  0  0  0
 12 11  2  0  0  0  0
 13 12  1  0  0  0  0
 13 14  2  0  0  0  0
 14 15  1  0  0  0  0
 15 16  2  0  0  0  0
 15 20  1  0  0  0  0
 16 21  1  0  0  0  0
 17 12  1  0  0  0  0
 18 13  1  0  0  0  0
 19 14  1  0  0  0  0
 22 21  1  0  0  0  0
 23 24  1  0  0  0  0
 24 30  1  0  0  0  0
 24 25  2  0  0  0  0
 25  3  1  0  0  0  0
 26 25  1  0  0  0  0
 27 26  2  0  0  0  0
 28 23  2  0  0  0  0
 28 27  1  0  0  0  0
 29 23  1  0  0  0  0
 31 40  1  0  0  0  0
 32 27  1  0  0  0  0
 32 31  2  0  0  0  0
 33 32  1  0  0  0  0
 34 33  1  0  0  0  0
 35 33  2  0  0  0  0
 35 37  1  0  0  0  0
 36 35  1  0  0  0  0
 37 38  2  0  0  0  0
 38 31  1  0  0  0  0
 39 42  1  0  0  0  0
 40 41  1  0  0  0  0
 40 39  2  0  0  0  0
 41 43  1  0  0  0  0
 41 44  1  0  0  0  0
M  END
>  <minimizedAffinity>
-7.15698242

$$$$

 OpenBabel03242522323D

 44 47  0  0  0  0  0  0  0  0999 V2000
   38.8310   30.2610   41.2890 F   0  0  0  0  0  0  0  0  0  0  0  0
   37.9900   30.2110   40.2210 C   0  0  0  0  0  0  0  0  0  0  0  0
   37.8640   31.2710   39.3920 C   0  0  0  0  0  0  0  0  0  0  0  0
   36.9830   31.1330   38.3290 C   0  0  0  0  0  0  0  0  0  0  0  0
   36.2660   29.9860   38.1120 C   0  0  0  0  0  0  0  0  0  0  0  0
   36.4530   28.9600   38.9980 C   0  0  0  0  0  0  0  0  0  0  0  0
   37.3040   29.0340   40.0630 C   0  0  0  0  0  0  0  0  0  0  0  0
   36.8700   31.9780   37.6520 H   0  0  0  0  0  0  0  0  0  0  0  0
   35.5930   29.9240   37.2710 H   0  0  0  0  0  0  0  0  0  0  0  0
   35.8740   28.0530   38.8110 H   0  0  0  0  0  0  0  0  0  0  0  0
   37.4060   27.8830   40.9170 C   0  0  0  0  0  0  0  0  0  0  0  0
   36.6100   27.8070   42.0460 C   0  0  0  0  0  0  0  0  0  0  0  0
   36.7110   26.7130   42.8500 C   0  0  0  0  0  0  0  0  0  0  0  0
   37.5990   25.6790   42.5520 C   0  0  0  0  0  0  0  0  0  0  0  0
   38.3820   25.8020   41.4000 C   0  0  0  0  0  0  0  0  0  0  0  0
   38.2820   26.9040   40.5870 C   0  0  0  0  0  0  0  0  0  0  0  0
   35.9290   28.6270   42.2500 H   0  0  0  0  0  0  0  0  0  0  0  0
   36.0700   26.6960   43.7200 H   0  0  0  0  0  0  0  0  0  0  0  0
   37.6310   24.8390   43.2310 H   0  0  0  0  0  0  0  0  0  0  0  0
   39.0210   24.9470   41.2810 H   0  0  0  0  0  0  0  0  0  0  0  0
   39.1480   26.7940   39.5250 O   0  0  0  0  0  0  0  0  0  0  0  0
   38.8100   26.3780   38.6660 H   0  0  0  0  0  0  0  0  0  0  0  0
   38.9080   34.7220   40.4960 C   0  0  0  0  0  0  0  0  0  0  0  0
   38.1200   33.6010   40.2600 C   0  0  0  0  0  0  0  0  0  0  0  0
   38.6480   32.4770   39.6640 C   0  0  0  0  0  0  0  0  0  0  0  0
   39.9370   32.5810   39.3530 N   0  0  0  0  0  0  0  0  0  0  0  0
   40.7200   33.6290   39.5600 C   0  0  0  0  0  0  0  0  0  0  0  0
   40.1750   34.7130   40.1460 N   0  0  0  0  0  0  0  0  0  0  0  0
   38.4450   35.5870   40.9720 H   0  0  0  0  0  0  0  0  0  0  0  0
   37.0770   33.6150   40.5530 H   0  0  0  0  0  0  0  0  0  0  0  0
   43.1560   33.6420   40.1130 C   0  0  0  0  0  0  0  0  0  0  0  0
   42.1320   33.7190   39.2090 C   0  0  0  0  0  0  0  0  0  0  0  0
   42.5380   33.8960   37.9040 C   0  0  0  0  0  0  0  0  0  0  0  0
   41.7600   33.9650   37.1320 H   0  0  0  0  0  0  0  0  0  0  0  0
   43.8710   33.9830   37.5750 C   0  0  0  0  0  0  0  0  0  0  0  0
   44.0770   34.1210   36.5290 H   0  0  0  0  0  0  0  0  0  0  0  0
   44.8730   33.9010   38.5140 C   0  0  0  0  0  3  0  0  0  0  0  0
   44.4960   33.7240   39.8270 C   0  0  0  0  0  3  0  0  0  0  0  0
   42.5570   32.7410   42.5370 N   0  0  0  0  0  0  0  0  0  0  0  0
   42.8810   33.4440   41.5180 C   0  0  0  0  0  0  0  0  0  0  0  0
   42.9640   34.5270   42.4560 N   0  0  0  0  0  0  0  0  0  0  0  0
   42.5250   33.2840   43.4470 H   0  0  0  0  0  0  0  0  0  0  0  0
   43.8900   34.9520   42.7550 H   0  0  0  0  0  0  0  0  0  0  0  0
   42.6660   35.2660   43.1230 H   0  0  0  0  0  0  0  0  0  0  0  0
  2  1  1  0  0  0  0
  3 25  1  0  0  0  0
  3  2  2  0  0  0  0
  4  3  1  0  0  0  0
  5  4  2  0  0  0  0
  5  6  1  0  0  0  0
  6  7  2  0  0  0  0
  7  2  1  0  0  0  0
  7 11  1  0  0  0  0
  8  4  1  0  0  0  0
  9  5  1  0  0  0  0
 10  6  1  0  0  0  0
 11 12  1  0  0  0  0
 12 17  1  0  0  0  0
 12 13  2  0  0  0  0
 13 18  1  0  0  0  0
 14 13  1  0  0  0  0
 14 19  1  0  0  0  0
 15 14  2  0  0  0  0
 16 11  2  0  0  0  0
 16 15  1  0  0  0  0
 20 15  1  0  0  0  0
 21 16  1  0  0  0  0
 22 21  1  0  0  0  0
 23 29  1  0  0  0  0
 24 23  1  0  0  0  0
 24 30  1  0  0  0  0
 25 24  2  0  0  0  0
 26 27  2  0  0  0  0
 26 25  1  0  0  0  0
 27 28  1  0  0  0  0
 28 23  2  0  0  0  0
 31 40  1  0  0  0  0
 32 27  1  0  0  0  0
 32 31  2  0  0  0  0
 33 32  1  0  0  0  0
 34 33  1  0  0  0  0
 35 33  2  0  0  0  0
 35 37  1  0  0  0  0
 36 35  1  0  0  0  0
 37 38  2  0  0  0  0
 38 31  1  0  0  0  0
 39 42  1  0  0  0  0
 40 41  1  0  0  0  0
 40 39  2  0  0  0  0
 41 43  1  0  0  0  0
 41 44  1  0  0  0  0
M  END
>  <minimizedAffinity>
-7.06923056

$$$$

 OpenBabel03242522323D

 44 47  0  0  0  0  0  0  0  0999 V2000
   38.1310   28.0280   39.8620 F   0  0  0  0  0  0  0  0  0  0  0  0
   37.9270   28.0610   41.2070 C   0  0  0  0  0  0  0  0  0  0  0  0
   37.8780   29.2390   41.8680 C   0  0  0  0  0  0  0  0  0  0  0  0
   37.6670   29.1790   43.2380 C   0  0  0  0  0  0  0  0  0  0  0  0
   37.5120   27.9930   43.9070 C   0  0  0  0  0  0  0  0  0  0  0  0
   37.5740   26.8470   43.1620 C   0  0  0  0  0  0  0  0  0  0  0  0
   37.7800   26.8390   41.8120 C   0  0  0  0  0  0  0  0  0  0  0  0
   37.6240   30.1190   43.7850 H   0  0  0  0  0  0  0  0  0  0  0  0
   37.3490   27.9950   44.9740 H   0  0  0  0  0  0  0  0  0  0  0  0
   37.4490   25.9100   43.7100 H   0  0  0  0  0  0  0  0  0  0  0  0
   37.8250   25.5650   41.1510 C   0  0  0  0  0  0  0  0  0  0  0  0
   36.6430   24.9700   40.7480 C   0  0  0  0  0  0  0  0  0  0  0  0
   36.6940   23.7630   40.1210 C   0  0  0  0  0  0  0  0  0  0  0  0
   37.9120   23.1240   39.8840 C   0  0  0  0  0  0  0  0  0  0  0  0
   39.0790   23.7650   40.3110 C   0  0  0  0  0  0  0  0  0  0  0  0
   39.0310   24.9830   40.9430 C   0  0  0  0  0  0  0  0  0  0  0  0
   35.7130   25.4930   40.9460 H   0  0  0  0  0  0  0  0  0  0  0  0
   35.7460   23.3370   39.8230 H   0  0  0  0  0  0  0  0  0  0  0  0
   37.8830   22.1670   39.3830 H   0  0  0  0  0  0  0  0  0  0  0  0
   39.9450   23.1760   40.0720 H   0  0  0  0  0  0  0  0  0  0  0  0
   40.2990   25.4040   41.2630 O   0  0  0  0  0  0  0  0  0  0  0  0
   40.7950   25.9920   40.6040 H   0  0  0  0  0  0  0  0  0  0  0  0
   37.2120   32.3830   39.8950 C   0  0  0  0  0  0  0  0  0  0  0  0
   36.9950   31.2080   40.6070 C   0  0  0  0  0  0  0  0  0  0  0  0
   38.0500   30.4810   41.1130 C   0  0  0  0  0  0  0  0  0  0  0  0
   39.2450   31.0050   40.8540 N   0  0  0  0  0  0  0  0  0  0  0  0
   39.4930   32.1180   40.1810 C   0  0  0  0  0  0  0  0  0  0  0  0
   38.4400   32.8080   39.7000 N   0  0  0  0  0  0  0  0  0  0  0  0
   36.3440   32.9230   39.5160 H   0  0  0  0  0  0  0  0  0  0  0  0
   35.9790   30.8640   40.7660 H   0  0  0  0  0  0  0  0  0  0  0  0
   41.4950   32.4980   38.7370 C   0  0  0  0  0  0  0  0  0  0  0  0
   40.8140   32.6730   39.9100 C   0  0  0  0  0  0  0  0  0  0  0  0
   41.4810   33.4290   40.8480 C   0  0  0  0  0  0  0  0  0  0  0  0
   40.9840   33.6040   41.8120 H   0  0  0  0  0  0  0  0  0  0  0  0
   42.7280   33.9500   40.5920 C   0  0  0  0  0  0  0  0  0  0  0  0
   43.1590   34.5240   41.3910 H   0  0  0  0  0  0  0  0  0  0  0  0
   43.3820   33.7520   39.3970 C   0  0  0  0  0  3  0  0  0  0  0  0
   42.7380   33.0000   38.4410 C   0  0  0  0  0  3  0  0  0  0  0  0
   40.7670   30.6870   36.9370 N   0  0  0  0  0  0  0  0  0  0  0  0
   40.9120   31.7370   37.6550 C   0  0  0  0  0  0  0  0  0  0  0  0
   39.9260   32.3090   36.7850 N   0  0  0  0  0  0  0  0  0  0  0  0
   40.0600   30.7920   36.1540 H   0  0  0  0  0  0  0  0  0  0  0  0
   38.9320   32.5090   37.1040 H   0  0  0  0  0  0  0  0  0  0  0  0
   39.4910   32.7100   35.9300 H   0  0  0  0  0  0  0  0  0  0  0  0
  1  2  1  0  0  0  0
  2  7  2  0  0  0  0
  2  3  1  0  0  0  0
  3  4  2  0  0  0  0
  4  8  1  0  0  0  0
  4  5  1  0  0  0  0
  5  9  1  0  0  0  0
  6 10  1  0  0  0  0
  6  5  2  0  0  0  0
  7  6  1  0  0  0  0
 11  7  1  0  0  0  0
 12 17  1  0  0  0  0
 12 11  2  0  0  0  0
 13 12  1  0  0  0  0
 14 13  2  0  0  0  0
 14 15  1  0  0  0  0
 15 16  2  0  0  0  0
 16 11  1  0  0  0  0
 16 21  1  0  0  0  0
 18 13  1  0  0  0  0
 19 14  1  0  0  0  0
 20 15  1  0  0  0  0
 22 21  1  0  0  0  0
 23 24  1  0  0  0  0
 24 30  1  0  0  0  0
 24 25  2  0  0  0  0
 25  3  1  0  0  0  0
 26 25  1  0  0  0  0
 27 26  2  0  0  0  0
 28 23  2  0  0  0  0
 28 27  1  0  0  0  0
 29 23  1  0  0  0  0
 31 32  1  0  0  0  0
 32 27  1  0  0  0  0
 32 33  2  0  0  0  0
 33 34  1  0  0  0  0
 35 33  1  0  0  0  0
 35 36  1  0  0  0  0
 37 35  2  0  0  0  0
 38 31  2  0  0  0  0
 38 37  1  0  0  0  0
 39 40  2  0  0  0  0
 40 31  1  0  0  0  0
 41 43  1  0  0  0  0
 41 40  1  0  0  0  0
 42 39  1  0  0  0  0
 44 41  1  0  0  0  0
M  END
>  <minimizedAffinity>
-7.01618576

$$$$

 OpenBabel03242522323D

 44 47  0  0  0  0  0  0  0  0999 V2000
   38.9560   28.5870   40.0910 F   0  0  0  0  0  0  0  0  0  0  0  0
   37.7860   28.8890   39.4670 C   0  0  0  0  0  0  0  0  0  0  0  0
   37.6630   30.0220   38.7400 C   0  0  0  0  0  0  0  0  0  0  0  0
   36.4340   30.2500   38.1390 C   0  0  0  0  0  0  0  0  0  0  0  0
   35.3820   29.3800   38.2630 C   0  0  0  0  0  0  0  0  0  0  0  0
   35.5900   28.2570   39.0160 C   0  0  0  0  0  0  0  0  0  0  0  0
   36.7760   27.9750   39.6320 C   0  0  0  0  0  0  0  0  0  0  0  0
   36.3190   31.1580   37.5500 H   0  0  0  0  0  0  0  0  0  0  0  0
   34.4440   29.5990   37.7770 H   0  0  0  0  0  0  0  0  0  0  0  0
   34.7420   27.5740   39.1050 H   0  0  0  0  0  0  0  0  0  0  0  0
   36.8600   26.7610   40.3940 C   0  0  0  0  0  0  0  0  0  0  0  0
   36.9360   25.5500   39.7290 C   0  0  0  0  0  0  0  0  0  0  0  0
   37.0170   24.4030   40.4580 C   0  0  0  0  0  0  0  0  0  0  0  0
   37.0220   24.4340   41.8530 C   0  0  0  0  0  0  0  0  0  0  0  0
   36.9440   25.6810   42.4790 C   0  0  0  0  0  0  0  0  0  0  0  0
   36.8630   26.8410   41.7460 C   0  0  0  0  0  0  0  0  0  0  0  0
   36.9300   25.5590   38.6450 H   0  0  0  0  0  0  0  0  0  0  0  0
   37.0750   23.4810   39.8960 H   0  0  0  0  0  0  0  0  0  0  0  0
   37.0880   23.4880   42.3720 H   0  0  0  0  0  0  0  0  0  0  0  0
   36.9570   25.5720   43.5470 H   0  0  0  0  0  0  0  0  0  0  0  0
   36.7950   27.9290   42.5830 O   0  0  0  0  0  0  0  0  0  0  0  0
   37.6570   28.3920   42.8450 H   0  0  0  0  0  0  0  0  0  0  0  0
   39.9640   32.9890   39.0900 C   0  0  0  0  0  0  0  0  0  0  0  0
   38.8470   32.1710   39.2180 C   0  0  0  0  0  0  0  0  0  0  0  0
   38.8120   30.9220   38.6370 C   0  0  0  0  0  0  0  0  0  0  0  0
   39.9180   30.6030   37.9690 N   0  0  0  0  0  0  0  0  0  0  0  0
   41.0000   31.3520   37.8240 C   0  0  0  0  0  0  0  0  0  0  0  0
   41.0030   32.5680   38.4050 N   0  0  0  0  0  0  0  0  0  0  0  0
   39.9430   33.9680   39.5690 H   0  0  0  0  0  0  0  0  0  0  0  0
   37.9930   32.5240   39.7850 H   0  0  0  0  0  0  0  0  0  0  0  0
   43.2860   31.7950   36.9220 C   0  0  0  0  0  0  0  0  0  0  0  0
   42.2010   30.9790   37.0860 C   0  0  0  0  0  0  0  0  0  0  0  0
   42.3200   29.7460   36.4850 C   0  0  0  0  0  0  0  0  0  0  0  0
   41.4790   29.0460   36.5820 H   0  0  0  0  0  0  0  0  0  0  0  0
   43.4530   29.3960   35.7870 C   0  0  0  0  0  0  0  0  0  0  0  0
   43.4420   28.4100   35.3590 H   0  0  0  0  0  0  0  0  0  0  0  0
   44.5260   30.2450   35.6450 C   0  0  0  0  0  3  0  0  0  0  0  0
   44.4340   31.4850   36.2350 C   0  0  0  0  0  3  0  0  0  0  0  0
   43.5500   33.9520   38.4470 N   0  0  0  0  0  0  0  0  0  0  0  0
   43.3080   33.1160   37.5090 C   0  0  0  0  0  0  0  0  0  0  0  0
   42.8280   34.2600   36.7900 N   0  0  0  0  0  0  0  0  0  0  0  0
   43.2890   34.9530   38.2130 H   0  0  0  0  0  0  0  0  0  0  0  0
   43.3550   34.6790   35.9680 H   0  0  0  0  0  0  0  0  0  0  0  0
   42.2170   35.0550   36.5130 H   0  0  0  0  0  0  0  0  0  0  0  0
  2  7  1  0  0  0  0
  2  1  1  0  0  0  0
  3  2  2  0  0  0  0
  4  5  2  0  0  0  0
  4  3  1  0  0  0  0
  5  6  1  0  0  0  0
  6 10  1  0  0  0  0
  6  7  2  0  0  0  0
  7 11  1  0  0  0  0
  8  4  1  0  0  0  0
  9  5  1  0  0  0  0
 11 16  1  0  0  0  0
 12 11  2  0  0  0  0
 12 13  1  0  0  0  0
 13 14  2  0  0  0  0
 14 19  1  0  0  0  0
 14 15  1  0  0  0  0
 15 20  1  0  0  0  0
 16 15  2  0  0  0  0
 16 21  1  0  0  0  0
 17 12  1  0  0  0  0
 18 13  1  0  0  0  0
 21 22  1  0  0  0  0
 23 24  1  0  0  0  0
 23 29  1  0  0  0  0
 24 30  1  0  0  0  0
 25  3  1  0  0  0  0
 25 24  2  0  0  0  0
 26 25  1  0  0  0  0
 27 26  2  0  0  0  0
 27 28  1  0  0  0  0
 28 23  2  0  0  0  0
 31 32  1  0  0  0  0
 31 40  1  0  0  0  0
 32 27  1  0  0  0  0
 33 34  1  0  0  0  0
 33 32  2  0  0  0  0
 35 33  1  0  0  0  0
 36 35  1  0  0  0  0
 37 35  2  0  0  0  0
 37 38  1  0  0  0  0
 38 31  2  0  0  0  0
 40 39  2  0  0  0  0
 41 40  1  0  0  0  0
 42 39  1  0  0  0  0
 43 41  1  0  0  0  0
 44 41  1  0  0  0  0
M  END
>  <minimizedAffinity>
-6.95358324

$$$$
