REMARK  Name = 
REMARK  4 active torsions:
REMARK  status: ('A' for Active; 'I' for Inactive)
REMARK    1  A    between atoms: C_3  and  C_7
REMARK    2  A    between atoms: C_7  and  N_8
REMARK    3  A    between atoms: C_12  and  C_27
REMARK    4  A    between atoms: C_24  and  C_26
REMARK                            x       y       z     vdW  Elec       q    Type
REMARK                         _______ _______ _______ _____ _____    ______ ____
ROOT
ATOM      1  N   UNL     1      47.047  34.418  41.387  0.00  0.00    +0.000 N 
ATOM      2  C   UNL     1      47.463  33.876  40.132  0.00  0.00    +0.000 C 
ATOM      3  C   UNL     1      48.601  34.771  39.763  0.00  0.00    +0.000 C 
ATOM      4  C   UNL     1      48.821  35.757  40.876  0.00  0.00    +0.000 C 
ATOM      5  C   UNL     1      48.054  35.071  42.050  0.00  0.00    +0.000 C 
ATOM      6  H   UNL     1      47.187  33.094  39.489  0.00  0.00    +0.000 HD
ATOM      7  H   UNL     1      49.208  34.702  38.852  0.00  0.00    +0.000 HD
ATOM      8  H   UNL     1      49.872  35.884  41.096  0.00  0.00    +0.000 HD
ATOM      9  H   UNL     1      48.323  36.688  40.567  0.00  0.00    +0.000 HD
ATOM     10  H   UNL     1      47.738  35.976  42.660  0.00  0.00    +0.000 HD
ENDROOT
BRANCH   5  12
ATOM     11  C   UNL     1      49.160  33.180  43.391  0.00  0.00    +0.000 A 
ATOM     12  C   UNL     1      49.090  34.406  42.814  0.00  0.00    +0.000 A 
ATOM     13  C   UNL     1      50.277  35.142  42.948  0.00  0.00    +0.000 A 
ATOM     14  H   UNL     1      50.373  36.153  42.533  0.00  0.00    +0.000 HD
ATOM     15  C   UNL     1      51.417  34.715  43.583  0.00  0.00    +0.000 A 
ATOM     16  H   UNL     1      52.305  35.316  43.660  0.00  0.00    +0.000 HD
ATOM     17  C   UNL     1      51.419  33.459  44.145  0.00  0.00    +0.000 A 
ATOM     18  C   UNL     1      50.265  32.681  44.045  0.00  0.00    +0.000 A 
BRANCH  11  20
ATOM     19  N   UNL     1      48.227  30.995  43.110  0.00  0.00    +0.000 NA
ATOM     20  C   UNL     1      48.064  32.251  43.441  0.00  0.00    +0.000 C 
ATOM     21  N   UNL     1      46.708  32.268  43.819  0.00  0.00    +0.000 N 
ATOM     22  H   UNL     1      47.416  30.320  43.181  0.00  0.00    +0.000 HD
ATOM     23  H   UNL     1      46.077  32.357  44.648  0.00  0.00    +0.000 HD
ATOM     24  H   UNL     1      45.735  32.277  44.067  0.00  0.00    +0.000 HD
ENDBRANCH  11  20
ENDBRANCH   5  12
BRANCH   1  25
ATOM     25  C   UNL     1      45.721  34.352  41.733  0.00  0.00    +0.000 C 
ATOM     26  H   UNL     1      44.990  34.928  41.100  0.00  0.00    +0.000 HD
ATOM     27  H   UNL     1      45.336  33.296  41.580  0.00  0.00    +0.000 HD
BRANCH  25  30
ATOM     28  C   UNL     1      44.481  35.987  44.901  0.00  0.00    +0.000 A 
ATOM     29  C   UNL     1      44.770  35.847  43.518  0.00  0.00    +0.000 A 
ATOM     30  C   UNL     1      45.391  34.668  43.115  0.00  0.00    +0.000 A 
ATOM     31  N   UNL     1      45.681  33.736  44.047  0.00  0.00    +0.000 NA
ATOM     32  C   UNL     1      45.393  33.891  45.381  0.00  0.00    +0.000 A 
ATOM     33  N   UNL     1      44.792  35.022  45.797  0.00  0.00    +0.000 NA
ATOM     34  H   UNL     1      43.999  36.915  45.173  0.00  0.00    +0.000 HD
ATOM     35  H   UNL     1      44.536  36.594  42.791  0.00  0.00    +0.000 HD
ATOM     36  H   UNL     1      45.678  33.070  46.020  0.00  0.00    +0.000 HD
ENDBRANCH  25  30
ENDBRANCH   1  25
TORSDOF 4
