
 OpenBabel03252504563D

 36 36  0  0  1  0  0  0  0  0999 V2000
   37.9790   30.7940   40.0550 N   0  0  0  0  0  0  0  0  0  0  0  0
   37.3760   32.0140   40.4910 C   0  0  0  0  0  0  0  0  0  0  0  0
   37.2170   32.7620   39.2070 C   0  0  0  0  0  0  0  0  0  0  0  0
   37.6860   31.8900   38.0770 C   0  0  0  0  0  0  0  0  0  0  0  0
   37.6820   30.4830   38.7530 C   0  0  2  0  0  0  0  0  0  0  0  0
   37.0620   32.4520   41.3910 H   0  0  0  0  0  0  0  0  0  0  0  0
   36.7900   33.7670   39.0940 H   0  0  0  0  0  0  0  0  0  0  0  0
   37.0160   31.9360   37.2300 H   0  0  0  0  0  0  0  0  0  0  0  0
   38.7110   32.2140   37.8420 H   0  0  0  0  0  0  0  0  0  0  0  0
   38.5060   29.9600   38.1700 H   0  0  0  0  0  0  0  0  0  0  0  0
   35.9900   29.4600   37.1140 C   0  0  0  0  0  0  0  0  0  0  0  0
   36.4350   29.8830   38.3240 C   0  0  0  0  0  0  0  0  0  0  0  0
   35.5200   29.6400   39.3590 C   0  0  0  0  0  0  0  0  0  0  0  0
   35.7390   29.9270   40.3950 H   0  0  0  0  0  0  0  0  0  0  0  0
   34.2920   29.0410   39.2190 C   0  0  0  0  0  0  0  0  0  0  0  0
   33.6240   28.8750   40.0440 H   0  0  0  0  0  0  0  0  0  0  0  0
   33.9050   28.6350   37.9620 C   0  0  0  0  0  3  0  0  0  0  0  0
   34.7740   28.8520   36.8930 C   0  0  0  0  0  3  0  0  0  0  0  0
   37.6290   28.7820   35.5090 N   0  0  0  0  0  0  0  0  0  0  0  0
   36.7130   29.6380   35.8840 C   0  0  0  0  0  3  0  0  0  0  0  0
   36.7140   30.5420   34.8040 N   0  0  0  0  0  1  0  0  0  0  0  0
   38.1290   28.9140   34.5860 H   0  0  0  0  0  0  0  0  0  0  0  0
   36.1450   30.8620   33.9880 H   0  0  0  0  0 15  0  0  0  0  0  0
   36.7350   31.1930   34.0410 H   0  0  0  0  0  0  0  0  0  0  0  0
   38.8550   30.1490   40.8920 C   0  0  0  0  0  0  0  0  0  0  0  0
   39.8060   29.7510   40.4410 H   0  0  0  0  0  0  0  0  0  0  0  0
   39.2790   30.8840   41.6450 H   0  0  0  0  0  0  0  0  0  0  0  0
   37.2950   28.0800   43.6360 C   0  0  0  0  0  0  0  0  0  0  0  0
   37.8310   29.2290   42.9960 C   0  0  0  0  0  0  0  0  0  0  0  0
   38.3100   29.0680   41.6990 C   0  0  0  0  0  0  0  0  0  0  0  0
   38.2410   27.8460   41.1290 N   0  0  0  0  0  0  0  0  0  0  0  0
   37.7190   26.7470   41.7660 C   0  0  0  0  0  0  0  0  0  0  0  0
   37.2480   26.8760   43.0210 N   0  0  0  0  0  0  0  0  0  0  0  0
   36.9330   28.2460   44.6410 H   0  0  0  0  0  0  0  0  0  0  0  0
   37.8800   30.1890   43.4610 H   0  0  0  0  0  0  0  0  0  0  0  0
   37.7240   25.8300   41.1970 H   0  0  0  0  0  0  0  0  0  0  0  0
  1  2  1  0  0  0  0
  1 25  1  0  0  0  0
  2  6  1  0  0  0  0
  3  2  2  0  0  0  0
  4  5  1  0  0  0  0
  4  3  1  0  0  0  0
  5 10  1  6  0  0  0
  5  1  1  0  0  0  0
  7  3  1  0  0  0  0
  8  4  1  0  0  0  0
  9  4  1  0  0  0  0
 11 12  1  0  0  0  0
 12  5  1  0  0  0  0
 12 13  2  0  0  0  0
 13 14  1  0  0  0  0
 15 13  1  0  0  0  0
 15 16  1  0  0  0  0
 17 15  2  0  0  0  0
 18 11  2  0  0  0  0
 18 17  1  0  0  0  0
 19 20  2  0  0  0  0
 20 11  1  0  0  0  0
 22 19  1  0  0  0  0
 24 21  1  0  0  0  0
 25 27  1  0  0  0  0
 25 30  1  0  0  0  0
 26 25  1  0  0  0  0
 28 34  1  0  0  0  0
 29 35  1  0  0  0  0
 29 28  2  0  0  0  0
 30 29  1  0  0  0  0
 31 30  2  0  0  0  0
 31 32  1  0  0  0  0
 32 33  2  0  0  0  0
 33 28  1  0  0  0  0
 36 32  1  0  0  0  0
M  END
>  <minimizedAffinity>
-5.69274712

$$$$

 OpenBabel03252504563D

 36 36  0  0  1  0  0  0  0  0999 V2000
   35.9190   29.5410   40.2170 N   0  0  0  0  0  0  0  0  0  0  0  0
   34.5900   29.2870   39.7570 C   0  0  0  0  0  0  0  0  0  0  0  0
   34.8290   28.4060   38.5740 C   0  0  0  0  0  0  0  0  0  0  0  0
   36.3050   28.1470   38.4540 C   0  0  0  0  0  0  0  0  0  0  0  0
   36.8040   28.5510   39.8770 C   0  0  2  0  0  0  0  0  0  0  0  0
   33.6090   29.5450   40.0240 H   0  0  0  0  0  0  0  0  0  0  0  0
   34.0580   27.9810   37.9200 H   0  0  0  0  0  0  0  0  0  0  0  0
   36.5120   27.1100   38.2290 H   0  0  0  0  0  0  0  0  0  0  0  0
   36.6790   28.8440   37.6890 H   0  0  0  0  0  0  0  0  0  0  0  0
   37.8630   28.8920   39.6460 H   0  0  0  0  0  0  0  0  0  0  0  0
   37.2170   26.9890   41.8740 C   0  0  0  0  0  0  0  0  0  0  0  0
   36.9270   27.2920   40.5830 C   0  0  0  0  0  0  0  0  0  0  0  0
   36.6440   26.1580   39.8060 C   0  0  0  0  0  0  0  0  0  0  0  0
   36.3920   26.2430   38.7410 H   0  0  0  0  0  0  0  0  0  0  0  0
   36.6450   24.8600   40.2520 C   0  0  0  0  0  0  0  0  0  0  0  0
   36.4200   24.0220   39.6180 H   0  0  0  0  0  0  0  0  0  0  0  0
   36.9460   24.6250   41.5740 C   0  0  0  0  0  3  0  0  0  0  0  0
   37.2380   25.7140   42.3960 C   0  0  0  0  0  3  0  0  0  0  0  0
   38.8500   28.1620   43.1700 N   0  0  0  0  0  0  0  0  0  0  0  0
   37.5930   27.9620   42.8630 C   0  0  0  0  0  3  0  0  0  0  0  0
   36.9500   28.9110   43.6790 N   0  0  0  0  0  1  0  0  0  0  0  0
   39.1090   28.9020   43.8790 H   0  0  0  0  0  0  0  0  0  0  0  0
   36.4240   29.8140   43.6480 H   0  0  0  0  0 15  0  0  0  0  0  0
   36.4960   29.5760   44.2800 H   0  0  0  0  0  0  0  0  0  0  0  0
   36.1980   30.7470   40.8090 C   0  0  0  0  0  0  0  0  0  0  0  0
   35.4860   31.5970   40.6170 H   0  0  0  0  0  0  0  0  0  0  0  0
   36.1050   30.6530   41.9360 H   0  0  0  0  0  0  0  0  0  0  0  0
   39.2250   32.5500   39.4550 C   0  0  0  0  0  0  0  0  0  0  0  0
   37.8900   32.0690   39.4990 C   0  0  0  0  0  0  0  0  0  0  0  0
   37.5330   31.2860   40.5930 C   0  0  0  0  0  0  0  0  0  0  0  0
   38.4620   31.0300   41.5390 N   0  0  0  0  0  0  0  0  0  0  0  0
   39.7490   31.5050   41.4770 C   0  0  0  0  0  0  0  0  0  0  0  0
   40.1200   32.2650   40.4290 N   0  0  0  0  0  0  0  0  0  0  0  0
   39.4620   33.1540   38.5910 H   0  0  0  0  0  0  0  0  0  0  0  0
   37.1650   32.2790   38.7430 H   0  0  0  0  0  0  0  0  0  0  0  0
   40.3910   31.2260   42.2980 H   0  0  0  0  0  0  0  0  0  0  0  0
  1 25  1  0  0  0  0
  2  6  1  0  0  0  0
  2  1  1  0  0  0  0
  3  2  2  0  0  0  0
  4  3  1  0  0  0  0
  4  5  1  0  0  0  0
  5 10  1  6  0  0  0
  5  1  1  0  0  0  0
  5 12  1  0  0  0  0
  7  3  1  0  0  0  0
  8  4  1  0  0  0  0
  9  4  1  0  0  0  0
 11 18  1  0  0  0  0
 11 20  1  0  0  0  0
 12 11  2  0  0  0  0
 13 15  2  0  0  0  0
 13 12  1  0  0  0  0
 14 13  1  0  0  0  0
 15 17  1  0  0  0  0
 16 15  1  0  0  0  0
 17 18  2  0  0  0  0
 19 22  1  0  0  0  0
 20 19  2  0  0  0  0
 21 24  1  0  0  0  0
 25 27  1  0  0  0  0
 26 25  1  0  0  0  0
 28 29  2  0  0  0  0
 28 33  1  0  0  0  0
 29 30  1  0  0  0  0
 30 25  1  0  0  0  0
 30 31  2  0  0  0  0
 32 31  1  0  0  0  0
 32 36  1  0  0  0  0
 33 32  2  0  0  0  0
 34 28  1  0  0  0  0
 35 29  1  0  0  0  0
M  END
>  <minimizedAffinity>
-5.62817049

$$$$

 OpenBabel03252504563D

 36 36  0  0  1  0  0  0  0  0999 V2000
   39.7180   30.7060   40.5430 N   0  0  0  0  0  0  0  0  0  0  0  0
   40.9870   30.0640   40.6870 C   0  0  0  0  0  0  0  0  0  0  0  0
   41.2490   30.2070   42.1510 C   0  0  0  0  0  0  0  0  0  0  0  0
   40.0670   30.8800   42.7900 C   0  0  0  0  0  0  0  0  0  0  0  0
   38.9730   30.6850   41.6940 C   0  0  2  0  0  0  0  0  0  0  0  0
   41.6900   29.5780   40.0780 H   0  0  0  0  0  0  0  0  0  0  0  0
   42.1360   29.8480   42.6870 H   0  0  0  0  0  0  0  0  0  0  0  0
   39.7950   30.4090   43.7240 H   0  0  0  0  0  0  0  0  0  0  0  0
   40.3360   31.9410   42.8980 H   0  0  0  0  0  0  0  0  0  0  0  0
   38.3200   31.5970   41.8750 H   0  0  0  0  0  0  0  0  0  0  0  0
   36.9800   29.0700   41.8220 C   0  0  0  0  0  0  0  0  0  0  0  0
   38.2100   29.5410   42.1490 C   0  0  0  0  0  0  0  0  0  0  0  0
   38.8820   28.7230   43.0690 C   0  0  0  0  0  0  0  0  0  0  0  0
   39.8870   28.9740   43.4300 H   0  0  0  0  0  0  0  0  0  0  0  0
   38.3950   27.5590   43.6120 C   0  0  0  0  0  0  0  0  0  0  0  0
   38.9490   26.9640   44.3150 H   0  0  0  0  0  0  0  0  0  0  0  0
   37.1400   27.1390   43.2350 C   0  0  0  0  0  3  0  0  0  0  0  0
   36.4230   27.9130   42.3220 C   0  0  0  0  0  3  0  0  0  0  0  0
   35.6090   30.9390   41.2290 N   0  0  0  0  0  0  0  0  0  0  0  0
   36.0680   29.7470   40.9410 C   0  0  0  0  0  3  0  0  0  0  0  0
   35.4680   29.5100   39.6900 N   0  0  0  0  0  1  0  0  0  0  0  0
   34.9620   31.4330   40.5550 H   0  0  0  0  0  0  0  0  0  0  0  0
   35.6790   29.4280   38.6690 H   0  0  0  0  0 15  0  0  0  0  0  0
   35.0200   29.3400   38.8070 H   0  0  0  0  0  0  0  0  0  0  0  0
   39.4340   31.3610   39.3720 C   0  0  0  0  0  0  0  0  0  0  0  0
   39.0140   32.4020   39.4480 H   0  0  0  0  0  0  0  0  0  0  0  0
   40.3940   31.5690   38.8040 H   0  0  0  0  0  0  0  0  0  0  0  0
   37.0380   30.4560   36.5990 C   0  0  0  0  0  0  0  0  0  0  0  0
   37.7730   31.2880   37.4840 C   0  0  0  0  0  0  0  0  0  0  0  0
   38.5880   30.6560   38.4190 C   0  0  0  0  0  0  0  0  0  0  0  0
   38.6340   29.3070   38.4340 N   0  0  0  0  0  0  0  0  0  0  0  0
   37.9140   28.5200   37.5690 C   0  0  0  0  0  0  0  0  0  0  0  0
   37.1180   29.1070   36.6540 N   0  0  0  0  0  0  0  0  0  0  0  0
   36.4180   30.9840   35.8890 H   0  0  0  0  0  0  0  0  0  0  0  0
   37.7260   32.3550   37.4620 H   0  0  0  0  0  0  0  0  0  0  0  0
   38.0410   27.4560   37.6880 H   0  0  0  0  0  0  0  0  0  0  0  0
  1  2  1  0  0  0  0
  1  5  1  0  0  0  0
  2  3  2  0  0  0  0
  3  7  1  0  0  0  0
  3  4  1  0  0  0  0
  4  9  1  0  0  0  0
  4  8  1  0  0  0  0
  5 10  1  1  0  0  0
  5 12  1  0  0  0  0
  5  4  1  0  0  0  0
  6  2  1  0  0  0  0
 11 12  2  0  0  0  0
 11 18  1  0  0  0  0
 12 13  1  0  0  0  0
 13 14  1  0  0  0  0
 13 15  2  0  0  0  0
 15 16  1  0  0  0  0
 17 15  1  0  0  0  0
 18 17  2  0  0  0  0
 20 19  2  0  0  0  0
 20 11  1  0  0  0  0
 22 19  1  0  0  0  0
 24 21  1  0  0  0  0
 25 26  1  0  0  0  0
 25  1  1  0  0  0  0
 27 25  1  0  0  0  0
 28 33  2  0  0  0  0
 28 29  1  0  0  0  0
 29 30  2  0  0  0  0
 30 31  1  0  0  0  0
 30 25  1  0  0  0  0
 32 36  1  0  0  0  0
 32 31  2  0  0  0  0
 33 32  1  0  0  0  0
 34 28  1  0  0  0  0
 35 29  1  0  0  0  0
M  END
>  <minimizedAffinity>
-5.52624798

$$$$

 OpenBabel03252504563D

 36 36  0  0  1  0  0  0  0  0999 V2000
   39.0100   29.6070   42.3530 N   0  0  0  0  0  0  0  0  0  0  0  0
   39.6090   30.8120   42.8350 C   0  0  0  0  0  0  0  0  0  0  0  0
   40.7730   30.9770   41.9130 C   0  0  0  0  0  0  0  0  0  0  0  0
   40.7440   29.8720   40.8950 C   0  0  0  0  0  0  0  0  0  0  0  0
   39.2710   29.3710   41.0280 C   0  0  2  0  0  0  0  0  0  0  0  0
   39.4410   31.5190   43.5930 H   0  0  0  0  0  0  0  0  0  0  0  0
   41.5100   31.7890   41.9420 H   0  0  0  0  0  0  0  0  0  0  0  0
   40.9610   30.2380   39.9010 H   0  0  0  0  0  0  0  0  0  0  0  0
   41.4550   29.1100   41.2450 H   0  0  0  0  0  0  0  0  0  0  0  0
   39.3870   28.2800   40.7340 H   0  0  0  0  0  0  0  0  0  0  0  0
   37.2770   30.3710   39.7550 C   0  0  0  0  0  0  0  0  0  0  0  0
   38.5740   30.0160   39.9330 C   0  0  0  0  0  0  0  0  0  0  0  0
   39.3980   30.4000   38.8640 C   0  0  0  0  0  0  0  0  0  0  0  0
   40.4730   30.1810   38.8640 H   0  0  0  0  0  0  0  0  0  0  0  0
   38.9880   31.0660   37.7360 C   0  0  0  0  0  0  0  0  0  0  0  0
   39.6580   31.3400   36.9410 H   0  0  0  0  0  0  0  0  0  0  0  0
   37.6570   31.3970   37.6210 C   0  0  0  0  0  3  0  0  0  0  0  0
   36.7890   31.0390   38.6530 C   0  0  0  0  0  3  0  0  0  0  0  0
   35.6500   30.9780   41.4010 N   0  0  0  0  0  0  0  0  0  0  0  0
   36.2210   30.0490   40.6760 C   0  0  0  0  0  3  0  0  0  0  0  0
   35.4950   28.9070   41.0620 N   0  0  0  0  0  1  0  0  0  0  0  0
   34.8550   30.7270   42.0520 H   0  0  0  0  0  0  0  0  0  0  0  0
   34.7900   28.2140   40.7190 H   0  0  0  0  0 15  0  0  0  0  0  0
   34.9870   28.0930   41.3580 H   0  0  0  0  0  0  0  0  0  0  0  0
   38.3750   28.7780   43.2430 C   0  0  0  0  0  0  0  0  0  0  0  0
   38.6130   28.9090   44.3350 H   0  0  0  0  0  0  0  0  0  0  0  0
   37.2630   29.0000   43.2480 H   0  0  0  0  0  0  0  0  0  0  0  0
   39.4750   25.1730   43.0380 C   0  0  0  0  0  0  0  0  0  0  0  0
   39.5580   26.5610   43.3280 C   0  0  0  0  0  0  0  0  0  0  0  0
   38.4650   27.3490   42.9810 C   0  0  0  0  0  0  0  0  0  0  0  0
   37.4010   26.7610   42.3950 N   0  0  0  0  0  0  0  0  0  0  0  0
   37.3400   25.4170   42.1230 C   0  0  0  0  0  0  0  0  0  0  0  0
   38.3840   24.6310   42.4490 N   0  0  0  0  0  0  0  0  0  0  0  0
   40.3430   24.5960   43.3230 H   0  0  0  0  0  0  0  0  0  0  0  0
   40.4080   27.0130   43.7910 H   0  0  0  0  0  0  0  0  0  0  0  0
   36.4310   25.0750   41.6520 H   0  0  0  0  0  0  0  0  0  0  0  0
  1  2  1  0  0  0  0
  1 25  1  0  0  0  0
  2  6  1  0  0  0  0
  3  7  1  0  0  0  0
  3  2  2  0  0  0  0
  4  5  1  0  0  0  0
  4  9  1  0  0  0  0
  4  3  1  0  0  0  0
  5 10  1  6  0  0  0
  5  1  1  0  0  0  0
  8  4  1  0  0  0  0
 11 12  1  0  0  0  0
 11 20  1  0  0  0  0
 12  5  1  0  0  0  0
 13 14  1  0  0  0  0
 13 12  2  0  0  0  0
 15 13  1  0  0  0  0
 16 15  1  0  0  0  0
 17 15  2  0  0  0  0
 17 18  1  0  0  0  0
 18 11  2  0  0  0  0
 19 22  1  0  0  0  0
 20 19  2  0  0  0  0
 21 24  1  0  0  0  0
 25 27  1  0  0  0  0
 25 26  1  0  0  0  0
 28 34  1  0  0  0  0
 28 29  1  0  0  0  0
 29 35  1  0  0  0  0
 30 25  1  0  0  0  0
 30 29  2  0  0  0  0
 31 30  1  0  0  0  0
 32 31  2  0  0  0  0
 32 33  1  0  0  0  0
 33 28  2  0  0  0  0
 36 32  1  0  0  0  0
M  END
>  <minimizedAffinity>
-5.52366734

$$$$

 OpenBabel03252504563D

 36 36  0  0  1  0  0  0  0  0999 V2000
   39.8260   30.6990   40.7310 N   0  0  0  0  0  0  0  0  0  0  0  0
   40.6480   29.7520   40.0470 C   0  0  0  0  0  0  0  0  0  0  0  0
   41.3270   29.0490   41.1770 C   0  0  0  0  0  0  0  0  0  0  0  0
   40.8010   29.5970   42.4730 C   0  0  0  0  0  0  0  0  0  0  0  0
   39.4900   30.3010   42.0000 C   0  0  2  0  0  0  0  0  0  0  0  0
   40.8610   29.4730   39.0580 H   0  0  0  0  0  0  0  0  0  0  0  0
   42.0590   28.2370   41.0860 H   0  0  0  0  0  0  0  0  0  0  0  0
   40.6040   28.8110   43.1900 H   0  0  0  0  0  0  0  0  0  0  0  0
   41.5420   30.3310   42.8220 H   0  0  0  0  0  0  0  0  0  0  0  0
   39.4000   31.1310   42.7700 H   0  0  0  0  0  0  0  0  0  0  0  0
   37.1920   29.1720   41.8080 C   0  0  0  0  0  0  0  0  0  0  0  0
   38.4420   29.3480   42.3030 C   0  0  0  0  0  0  0  0  0  0  0  0
   38.7940   28.3810   43.2570 C   0  0  0  0  0  0  0  0  0  0  0  0
   39.7750   28.3920   43.7480 H   0  0  0  0  0  0  0  0  0  0  0  0
   37.9970   27.3460   43.6800 C   0  0  0  0  0  0  0  0  0  0  0  0
   38.3110   26.6270   44.4150 H   0  0  0  0  0  0  0  0  0  0  0  0
   36.7400   27.2260   43.1340 C   0  0  0  0  0  3  0  0  0  0  0  0
   36.3340   28.1600   42.1800 C   0  0  0  0  0  3  0  0  0  0  0  0
   35.7730   31.0150   41.2490 N   0  0  0  0  0  0  0  0  0  0  0  0
   36.5710   30.0540   40.8580 C   0  0  0  0  0  3  0  0  0  0  0  0
   36.5880   30.2530   39.4640 N   0  0  0  0  0  1  0  0  0  0  0  0
   35.3490   31.6730   40.5380 H   0  0  0  0  0  0  0  0  0  0  0  0
   37.1980   30.5720   38.6770 H   0  0  0  0  0 15  0  0  0  0  0  0
   36.5790   30.3890   38.4690 H   0  0  0  0  0  0  0  0  0  0  0  0
   39.5700   31.9090   40.1370 C   0  0  0  0  0  0  0  0  0  0  0  0
   38.8250   31.9270   39.2940 H   0  0  0  0  0  0  0  0  0  0  0  0
   39.0570   32.6000   40.8770 H   0  0  0  0  0  0  0  0  0  0  0  0
   42.0730   33.8230   38.0590 C   0  0  0  0  0  0  0  0  0  0  0  0
   40.9110   33.0590   38.3480 C   0  0  0  0  0  0  0  0  0  0  0  0
   40.7230   32.6630   39.6690 C   0  0  0  0  0  0  0  0  0  0  0  0
   41.6420   33.0210   40.5900 N   0  0  0  0  0  0  0  0  0  0  0  0
   42.7600   33.7610   40.2910 C   0  0  0  0  0  0  0  0  0  0  0  0
   42.9650   34.1570   39.0200 N   0  0  0  0  0  0  0  0  0  0  0  0
   42.1820   34.1110   37.0240 H   0  0  0  0  0  0  0  0  0  0  0  0
   40.1930   32.7820   37.6070 H   0  0  0  0  0  0  0  0  0  0  0  0
   43.4140   33.9780   41.1200 H   0  0  0  0  0  0  0  0  0  0  0  0
  1  5  1  0  0  0  0
  2  1  1  0  0  0  0
  2  3  2  0  0  0  0
  3  4  1  0  0  0  0
  4  9  1  0  0  0  0
  4  8  1  0  0  0  0
  5 12  1  0  0  0  0
  5  4  1  0  0  0  0
  5 10  1  1  0  0  0
  6  2  1  0  0  0  0
  7  3  1  0  0  0  0
 11 18  2  0  0  0  0
 11 12  1  0  0  0  0
 12 13  2  0  0  0  0
 13 15  1  0  0  0  0
 13 14  1  0  0  0  0
 15 16  1  0  0  0  0
 17 15  2  0  0  0  0
 18 17  1  0  0  0  0
 20 19  2  0  0  0  0
 20 11  1  0  0  0  0
 22 19  1  0  0  0  0
 24 21  1  0  0  0  0
 25  1  1  0  0  0  0
 25 27  1  0  0  0  0
 26 25  1  0  0  0  0
 28 29  2  0  0  0  0
 28 33  1  0  0  0  0
 29 30  1  0  0  0  0
 30 25  1  0  0  0  0
 30 31  2  0  0  0  0
 32 31  1  0  0  0  0
 32 36  1  0  0  0  0
 33 32  2  0  0  0  0
 34 28  1  0  0  0  0
 35 29  1  0  0  0  0
M  END
>  <minimizedAffinity>
-5.44425344

$$$$

 OpenBabel03252504563D

 36 36  0  0  1  0  0  0  0  0999 V2000
   37.8530   29.6230   38.5890 N   0  0  0  0  0  0  0  0  0  0  0  0
   37.4130   28.5650   37.7360 C   0  0  0  0  0  0  0  0  0  0  0  0
   38.4570   27.5200   37.9640 C   0  0  0  0  0  0  0  0  0  0  0  0
   39.4220   28.0200   39.0020 C   0  0  0  0  0  0  0  0  0  0  0  0
   38.6040   29.1820   39.6480 C   0  0  2  0  0  0  0  0  0  0  0  0
   36.6260   28.3760   37.0680 H   0  0  0  0  0  0  0  0  0  0  0  0
   38.4970   26.5330   37.4890 H   0  0  0  0  0  0  0  0  0  0  0  0
   39.6730   27.2510   39.7190 H   0  0  0  0  0  0  0  0  0  0  0  0
   40.2940   28.4070   38.4530 H   0  0  0  0  0  0  0  0  0  0  0  0
   39.4400   29.8750   39.9840 H   0  0  0  0  0  0  0  0  0  0  0  0
   36.8250   28.6890   41.4350 C   0  0  0  0  0  0  0  0  0  0  0  0
   38.0480   28.6000   40.8530 C   0  0  0  0  0  0  0  0  0  0  0  0
   38.9160   27.7340   41.5350 C   0  0  0  0  0  0  0  0  0  0  0  0
   39.9410   27.5590   41.1850 H   0  0  0  0  0  0  0  0  0  0  0  0
   38.6110   27.0250   42.6710 C   0  0  0  0  0  0  0  0  0  0  0  0
   39.3110   26.3710   43.1590 H   0  0  0  0  0  0  0  0  0  0  0  0
   37.3510   27.1620   43.2070 C   0  0  0  0  0  3  0  0  0  0  0  0
   36.4450   28.0120   42.5730 C   0  0  0  0  0  3  0  0  0  0  0  0
   35.7370   30.8150   41.2920 N   0  0  0  0  0  0  0  0  0  0  0  0
   35.7720   29.5480   40.9660 C   0  0  0  0  0  3  0  0  0  0  0  0
   34.6460   29.4430   40.1280 N   0  0  0  0  0  1  0  0  0  0  0  0
   34.9710   31.4380   40.9140 H   0  0  0  0  0  0  0  0  0  0  0  0
   34.3610   29.3070   39.1310 H   0  0  0  0  0 15  0  0  0  0  0  0
   33.8290   29.3720   39.5480 H   0  0  0  0  0  0  0  0  0  0  0  0
   37.6090   30.9210   38.2190 C   0  0  0  0  0  0  0  0  0  0  0  0
   37.6130   31.1560   37.1180 H   0  0  0  0  0  0  0  0  0  0  0  0
   36.5420   31.2020   38.4830 H   0  0  0  0  0  0  0  0  0  0  0  0
   40.3900   33.2870   39.1740 C   0  0  0  0  0  0  0  0  0  0  0  0
   39.7390   32.2310   38.4840 C   0  0  0  0  0  0  0  0  0  0  0  0
   38.4270   31.9450   38.8510 C   0  0  0  0  0  0  0  0  0  0  0  0
   37.8530   32.6770   39.8290 N   0  0  0  0  0  0  0  0  0  0  0  0
   38.5000   33.6960   40.4850 C   0  0  0  0  0  0  0  0  0  0  0  0
   39.7700   33.9930   40.1480 N   0  0  0  0  0  0  0  0  0  0  0  0
   41.4060   33.4780   38.8600 H   0  0  0  0  0  0  0  0  0  0  0  0
   40.2070   31.6580   37.7130 H   0  0  0  0  0  0  0  0  0  0  0  0
   37.9270   34.2010   41.2460 H   0  0  0  0  0  0  0  0  0  0  0  0
  1  5  1  0  0  0  0
  2  3  2  0  0  0  0
  2  1  1  0  0  0  0
  3  4  1  0  0  0  0
  4  5  1  0  0  0  0
  4  8  1  0  0  0  0
  5 10  1  1  0  0  0
  5 12  1  0  0  0  0
  6  2  1  0  0  0  0
  7  3  1  0  0  0  0
  9  4  1  0  0  0  0
 11 18  1  0  0  0  0
 12 11  2  0  0  0  0
 12 13  1  0  0  0  0
 13 15  2  0  0  0  0
 14 13  1  0  0  0  0
 15 16  1  0  0  0  0
 15 17  1  0  0  0  0
 18 17  2  0  0  0  0
 20 19  2  0  0  0  0
 20 11  1  0  0  0  0
 22 19  1  0  0  0  0
 24 21  1  0  0  0  0
 25 27  1  0  0  0  0
 25  1  1  0  0  0  0
 25 30  1  0  0  0  0
 26 25  1  0  0  0  0
 28 33  1  0  0  0  0
 29 30  1  0  0  0  0
 29 28  2  0  0  0  0
 30 31  2  0  0  0  0
 31 32  1  0  0  0  0
 32 36  1  0  0  0  0
 33 32  2  0  0  0  0
 34 28  1  0  0  0  0
 35 29  1  0  0  0  0
M  END
>  <minimizedAffinity>
-5.38954401

$$$$

 OpenBabel03252504563D

 36 36  0  0  1  0  0  0  0  0999 V2000
   39.1690   30.9210   40.8090 N   0  0  0  0  0  0  0  0  0  0  0  0
   39.4200   32.2270   40.2870 C   0  0  0  0  0  0  0  0  0  0  0  0
   40.1370   31.9240   39.0110 C   0  0  0  0  0  0  0  0  0  0  0  0
   40.2040   30.4320   38.8370 C   0  0  0  0  0  0  0  0  0  0  0  0
   39.1040   29.9560   39.8370 C   0  0  2  0  0  0  0  0  0  0  0  0
   39.2420   33.2240   40.5590 H   0  0  0  0  0  0  0  0  0  0  0  0
   40.5180   32.6610   38.2940 H   0  0  0  0  0  0  0  0  0  0  0  0
   39.9840   30.1380   37.8200 H   0  0  0  0  0  0  0  0  0  0  0  0
   41.2060   30.1270   39.1740 H   0  0  0  0  0  0  0  0  0  0  0  0
   39.5040   28.9340   40.1280 H   0  0  0  0  0  0  0  0  0  0  0  0
   36.6100   29.7430   39.2590 C   0  0  0  0  0  0  0  0  0  0  0  0
   37.9430   29.7180   39.0040 C   0  0  0  0  0  0  0  0  0  0  0  0
   38.2360   29.4600   37.6570 C   0  0  0  0  0  0  0  0  0  0  0  0
   39.2710   29.4080   37.2970 H   0  0  0  0  0  0  0  0  0  0  0  0
   37.3140   29.2490   36.6620 C   0  0  0  0  0  0  0  0  0  0  0  0
   37.5870   29.0550   35.6400 H   0  0  0  0  0  0  0  0  0  0  0  0
   35.9780   29.2900   36.9910 C   0  0  0  0  0  3  0  0  0  0  0  0
   35.6250   29.5410   38.3170 C   0  0  0  0  0  3  0  0  0  0  0  0
   35.8090   28.9170   41.3570 N   0  0  0  0  0  0  0  0  0  0  0  0
   36.0460   29.9350   40.5680 C   0  0  0  0  0  3  0  0  0  0  0  0
   35.6540   31.0170   41.3790 N   0  0  0  0  0  1  0  0  0  0  0  0
   35.4200   29.0800   42.3270 H   0  0  0  0  0  0  0  0  0  0  0  0
   36.0300   31.8290   41.9190 H   0  0  0  0  0 15  0  0  0  0  0  0
   35.3540   31.7820   41.9550 H   0  0  0  0  0  0  0  0  0  0  0  0
   39.1480   30.7420   42.1700 C   0  0  0  0  0  0  0  0  0  0  0  0
   39.8140   31.4030   42.7910 H   0  0  0  0  0  0  0  0  0  0  0  0
   38.1310   31.0330   42.5800 H   0  0  0  0  0  0  0  0  0  0  0  0
   40.6620   27.4550   43.2440 C   0  0  0  0  0  0  0  0  0  0  0  0
   40.6130   28.7700   42.7110 C   0  0  0  0  0  0  0  0  0  0  0  0
   39.3660   29.3860   42.6530 C   0  0  0  0  0  0  0  0  0  0  0  0
   38.2860   28.7090   43.0990 N   0  0  0  0  0  0  0  0  0  0  0  0
   38.3550   27.4370   43.6120 C   0  0  0  0  0  0  0  0  0  0  0  0
   39.5500   26.8190   43.6800 N   0  0  0  0  0  0  0  0  0  0  0  0
   41.6470   27.0130   43.2730 H   0  0  0  0  0  0  0  0  0  0  0  0
   41.4750   29.2940   42.3600 H   0  0  0  0  0  0  0  0  0  0  0  0
   37.4180   27.0100   43.9330 H   0  0  0  0  0  0  0  0  0  0  0  0
  1 25  1  0  0  0  0
  2  6  1  0  0  0  0
  2  1  1  0  0  0  0
  3  2  2  0  0  0  0
  4  3  1  0  0  0  0
  4  9  1  0  0  0  0
  4  5  1  0  0  0  0
  5 10  1  1  0  0  0
  5  1  1  0  0  0  0
  7  3  1  0  0  0  0
  8  4  1  0  0  0  0
 11 20  1  0  0  0  0
 12 11  1  0  0  0  0
 12  5  1  0  0  0  0
 13 12  2  0  0  0  0
 14 13  1  0  0  0  0
 15 17  2  0  0  0  0
 15 13  1  0  0  0  0
 16 15  1  0  0  0  0
 17 18  1  0  0  0  0
 18 11  2  0  0  0  0
 19 22  1  0  0  0  0
 20 19  2  0  0  0  0
 21 24  1  0  0  0  0
 25 27  1  0  0  0  0
 25 30  1  0  0  0  0
 25 26  1  0  0  0  0
 28 34  1  0  0  0  0
 28 33  1  0  0  0  0
 29 28  2  0  0  0  0
 30 29  1  0  0  0  0
 30 31  2  0  0  0  0
 31 32  1  0  0  0  0
 32 33  2  0  0  0  0
 32 36  1  0  0  0  0
 35 29  1  0  0  0  0
M  END
>  <minimizedAffinity>
-5.34603882

$$$$

 OpenBabel03252504563D

 36 36  0  0  1  0  0  0  0  0999 V2000
   37.3160   29.2080   38.4500 N   0  0  0  0  0  0  0  0  0  0  0  0
   36.0250   29.8140   38.3700 C   0  0  0  0  0  0  0  0  0  0  0  0
   35.1160   28.6530   38.6070 C   0  0  0  0  0  0  0  0  0  0  0  0
   35.9510   27.4330   38.8780 C   0  0  0  0  0  0  0  0  0  0  0  0
   37.3310   28.0750   39.2230 C   0  0  2  0  0  0  0  0  0  0  0  0
   35.6180   30.7670   38.2020 H   0  0  0  0  0  0  0  0  0  0  0  0
   34.0190   28.6840   38.6240 H   0  0  0  0  0  0  0  0  0  0  0  0
   35.5560   26.8520   39.7000 H   0  0  0  0  0  0  0  0  0  0  0  0
   35.9980   26.8740   37.9310 H   0  0  0  0  0  0  0  0  0  0  0  0
   38.0420   27.2560   38.8840 H   0  0  0  0  0  0  0  0  0  0  0  0
   37.1640   29.0530   41.5920 C   0  0  0  0  0  0  0  0  0  0  0  0
   37.3720   28.0790   40.6710 C   0  0  0  0  0  0  0  0  0  0  0  0
   37.6280   26.8260   41.2480 C   0  0  0  0  0  0  0  0  0  0  0  0
   37.8170   25.9390   40.6310 H   0  0  0  0  0  0  0  0  0  0  0  0
   37.6710   26.5580   42.5940 C   0  0  0  0  0  0  0  0  0  0  0  0
   37.8700   25.5790   42.9910 H   0  0  0  0  0  0  0  0  0  0  0  0
   37.4480   27.5940   43.4730 C   0  0  0  0  0  3  0  0  0  0  0  0
   37.1910   28.8640   42.9560 C   0  0  0  0  0  3  0  0  0  0  0  0
   35.7300   30.9460   41.2990 N   0  0  0  0  0  0  0  0  0  0  0  0
   36.9340   30.4340   41.2640 C   0  0  0  0  0  3  0  0  0  0  0  0
   37.7070   31.5560   40.9080 N   0  0  0  0  0  1  0  0  0  0  0  0
   35.5850   31.9710   41.0830 H   0  0  0  0  0  0  0  0  0  0  0  0
   38.4110   32.2330   41.2810 H   0  0  0  0  0 15  0  0  0  0  0  0
   38.2480   32.3560   40.6340 H   0  0  0  0  0  0  0  0  0  0  0  0
   38.3360   29.7130   37.6840 C   0  0  0  0  0  0  0  0  0  0  0  0
   38.8800   28.9970   37.0070 H   0  0  0  0  0  0  0  0  0  0  0  0
   37.9190   30.4400   36.9190 H   0  0  0  0  0  0  0  0  0  0  0  0
   41.3150   30.7540   39.7550 C   0  0  0  0  0  0  0  0  0  0  0  0
   40.3590   29.8830   39.1690 C   0  0  0  0  0  0  0  0  0  0  0  0
   39.3670   30.4650   38.3840 C   0  0  0  0  0  0  0  0  0  0  0  0
   39.3690   31.8050   38.2240 N   0  0  0  0  0  0  0  0  0  0  0  0
   40.3040   32.6300   38.8000 C   0  0  0  0  0  0  0  0  0  0  0  0
   41.2740   32.0930   39.5640 N   0  0  0  0  0  0  0  0  0  0  0  0
   42.0680   30.2640   40.3560 H   0  0  0  0  0  0  0  0  0  0  0  0
   40.3690   28.8240   39.3050 H   0  0  0  0  0  0  0  0  0  0  0  0
   40.1910   33.6830   38.5920 H   0  0  0  0  0  0  0  0  0  0  0  0
  1  5  1  0  0  0  0
  2  1  1  0  0  0  0
  2  3  2  0  0  0  0
  3  7  1  0  0  0  0
  3  4  1  0  0  0  0
  4  5  1  0  0  0  0
  4  8  1  0  0  0  0
  5 10  1  6  0  0  0
  5 12  1  0  0  0  0
  6  2  1  0  0  0  0
  9  4  1  0  0  0  0
 11 18  1  0  0  0  0
 12 13  1  0  0  0  0
 12 11  2  0  0  0  0
 13 15  2  0  0  0  0
 14 13  1  0  0  0  0
 15 16  1  0  0  0  0
 15 17  1  0  0  0  0
 18 17  2  0  0  0  0
 20 19  2  0  0  0  0
 20 11  1  0  0  0  0
 22 19  1  0  0  0  0
 24 21  1  0  0  0  0
 25 30  1  0  0  0  0
 25  1  1  0  0  0  0
 26 25  1  0  0  0  0
 27 25  1  0  0  0  0
 28 34  1  0  0  0  0
 29 35  1  0  0  0  0
 29 28  2  0  0  0  0
 30 29  1  0  0  0  0
 31 30  2  0  0  0  0
 31 32  1  0  0  0  0
 32 33  2  0  0  0  0
 33 28  1  0  0  0  0
 36 32  1  0  0  0  0
M  END
>  <minimizedAffinity>
-5.28410959

$$$$

 OpenBabel03252504563D

 36 36  0  0  1  0  0  0  0  0999 V2000
   38.4560   31.3750   39.7820 N   0  0  0  0  0  0  0  0  0  0  0  0
   37.4820   32.2050   39.1470 C   0  0  0  0  0  0  0  0  0  0  0  0
   37.5510   33.4550   39.9630 C   0  0  0  0  0  0  0  0  0  0  0  0
   38.6250   33.2950   41.0020 C   0  0  0  0  0  0  0  0  0  0  0  0
   39.4340   32.0900   40.4250 C   0  0  2  0  0  0  0  0  0  0  0  0
   36.8120   32.1460   38.3410 H   0  0  0  0  0  0  0  0  0  0  0  0
   36.9510   34.3600   39.8100 H   0  0  0  0  0  0  0  0  0  0  0  0
   39.2310   34.1860   41.0920 H   0  0  0  0  0  0  0  0  0  0  0  0
   38.1130   33.0180   41.9360 H   0  0  0  0  0  0  0  0  0  0  0  0
   39.8390   31.6250   41.3790 H   0  0  0  0  0  0  0  0  0  0  0  0
   40.9390   32.7630   38.4560 C   0  0  0  0  0  0  0  0  0  0  0  0
   40.5640   32.7040   39.7590 C   0  0  0  0  0  0  0  0  0  0  0  0
   41.4180   33.4250   40.6070 C   0  0  0  0  0  0  0  0  0  0  0  0
   41.2440   33.4710   41.6890 H   0  0  0  0  0  0  0  0  0  0  0  0
   42.5270   34.1330   40.2140 C   0  0  0  0  0  0  0  0  0  0  0  0
   43.1520   34.6720   40.9030 H   0  0  0  0  0  0  0  0  0  0  0  0
   42.8490   34.1520   38.8770 C   0  0  0  0  0  3  0  0  0  0  0  0
   42.0360   33.4510   37.9850 C   0  0  0  0  0  3  0  0  0  0  0  0
   40.5950   30.8440   37.0710 N   0  0  0  0  0  0  0  0  0  0  0  0
   40.2660   32.0690   37.3930 C   0  0  0  0  0  3  0  0  0  0  0  0
   39.2030   32.3170   36.5040 N   0  0  0  0  0  1  0  0  0  0  0  0
   40.0690   30.3390   36.3050 H   0  0  0  0  0  0  0  0  0  0  0  0
   38.1660   32.4480   36.4640 H   0  0  0  0  0 15  0  0  0  0  0  0
   38.4590   32.4940   35.8530 H   0  0  0  0  0  0  0  0  0  0  0  0
   38.2630   30.0170   39.8000 C   0  0  0  0  0  0  0  0  0  0  0  0
   37.3200   29.6210   39.3310 H   0  0  0  0  0  0  0  0  0  0  0  0
   39.0430   29.5090   39.1530 H   0  0  0  0  0  0  0  0  0  0  0  0
   37.6920   28.7850   43.3220 C   0  0  0  0  0  0  0  0  0  0  0  0
   37.4630   29.5280   42.1340 C   0  0  0  0  0  0  0  0  0  0  0  0
   38.3730   29.3590   41.0940 C   0  0  0  0  0  0  0  0  0  0  0  0
   39.4080   28.5120   41.2690 N   0  0  0  0  0  0  0  0  0  0  0  0
   39.6120   27.8020   42.4270 C   0  0  0  0  0  0  0  0  0  0  0  0
   38.7460   27.9460   43.4480 N   0  0  0  0  0  0  0  0  0  0  0  0
   36.9640   28.9430   44.1050 H   0  0  0  0  0  0  0  0  0  0  0  0
   36.6400   30.1970   42.0100 H   0  0  0  0  0  0  0  0  0  0  0  0
   40.4790   27.1590   42.4360 H   0  0  0  0  0  0  0  0  0  0  0  0
  1 25  1  0  0  0  0
  1  5  1  0  0  0  0
  2  1  1  0  0  0  0
  2  3  2  0  0  0  0
  3  4  1  0  0  0  0
  4  8  1  0  0  0  0
  4  9  1  0  0  0  0
  5  4  1  0  0  0  0
  5 10  1  1  0  0  0
  6  2  1  0  0  0  0
  7  3  1  0  0  0  0
 11 12  1  0  0  0  0
 12  5  1  0  0  0  0
 12 13  2  0  0  0  0
 13 14  1  0  0  0  0
 15 13  1  0  0  0  0
 15 16  1  0  0  0  0
 17 15  2  0  0  0  0
 18 11  2  0  0  0  0
 18 17  1  0  0  0  0
 19 20  2  0  0  0  0
 20 11  1  0  0  0  0
 22 19  1  0  0  0  0
 24 21  1  0  0  0  0
 25 30  1  0  0  0  0
 26 25  1  0  0  0  0
 27 25  1  0  0  0  0
 28 33  1  0  0  0  0
 28 34  1  0  0  0  0
 29 28  2  0  0  0  0
 30 31  2  0  0  0  0
 30 29  1  0  0  0  0
 31 32  1  0  0  0  0
 32 36  1  0  0  0  0
 32 33  2  0  0  0  0
 35 29  1  0  0  0  0
M  END
>  <minimizedAffinity>
-5.28230667

$$$$
