
 OpenBabel03242512263D

 25 27  0  0  1  0  0  0  0  0999 V2000
   38.0820   30.3310   41.6080 C   0  0  0  0  0  0  0  0  0  0  0  0
   39.4220   30.4070   41.3210 C   0  0  0  0  0  0  0  0  0  0  0  0
   40.2770   29.5190   41.9330 C   0  0  0  0  0  0  0  0  0  0  0  0
   41.3460   29.5080   41.7650 H   0  0  0  0  0  0  0  0  0  0  0  0
   39.6940   28.6150   42.7990 C   0  0  0  0  0  0  0  0  0  0  0  0
   40.3680   27.9210   43.2770 H   0  0  0  0  0  0  0  0  0  0  0  0
   38.3580   28.5010   43.1170 C   0  0  0  0  0  3  0  0  0  0  0  0
   37.5250   29.3990   42.4920 C   0  0  0  0  0  3  0  0  0  0  0  0
   40.2450   32.3660   38.2780 C   0  0  0  0  0  0  0  0  0  0  0  0
   41.0640   33.3650   38.8240 C   0  0  0  0  0  0  0  0  0  0  0  0
   41.3110   33.3460   40.2140 C   0  0  0  0  0  0  0  0  0  0  0  0
   40.7190   32.3380   40.9150 N   0  0  0  0  0  0  0  0  0  0  0  0
   39.9420   31.3930   40.3820 C   0  0  0  0  0  0  0  0  0  0  0  0
   39.7310   31.4400   39.0740 N   0  0  0  0  0  0  0  0  0  0  0  0
   39.9700   32.3500   36.8740 N   0  0  0  0  0  0  0  0  0  0  0  0
   41.4800   34.1120   38.1820 H   0  0  0  0  0  0  0  0  0  0  0  0
   41.9310   34.0960   40.6470 H   0  0  0  0  0  0  0  0  0  0  0  0
   40.3230   33.0830   36.2500 H   0  0  0  0  0  0  0  0  0  0  0  0
   39.4090   31.5950   36.4730 H   0  0  0  0  0  0  0  0  0  0  0  0
   36.5510   32.1870   40.4160 N   0  0  0  0  0  0  0  0  0  0  0  0
   37.0870   31.2270   41.0490 C   0  0  1  0  0  3  0  0  0  0  0  0
   35.6960   30.9310   41.3060 N   0  0  0  0  0  4  0  0  0  0  0  0
   36.9770   32.9390   39.8860 H   0  0  0  0  0  0  0  0  0  0  0  0
   35.1500   30.9410   42.2100 H   0  0  0  0  0  0  0  0  0  0  0  0
   34.6730   30.6880   41.3350 H   0  0  0  0  0  0  0  0  0  0  0  0
  1  8  1  0  0  0  0
  2  1  2  0  0  0  0
  2  3  1  0  0  0  0
  3  5  2  0  0  0  0
  4  3  1  0  0  0  0
  5  7  1  0  0  0  0
  5  6  1  0  0  0  0
  8  7  2  0  0  0  0
  9 10  2  0  0  0  0
  9 14  1  0  0  0  0
 10 11  1  0  0  0  0
 11 17  1  0  0  0  0
 11 12  2  0  0  0  0
 13 12  1  0  0  0  0
 13  2  1  0  0  0  0
 14 13  2  0  0  0  0
 15  9  1  0  0  0  0
 16 10  1  0  0  0  0
 18 15  1  0  0  0  0
 19 15  1  0  0  0  0
 20 21  1  0  0  0  0
 20 22  1  0  0  0  0
 21 22  1  0  0  0  0
 21  1  1  6  0  0  0
 22 25  1  0  0  0  0
 22 24  1  0  0  0  0
 23 20  1  0  0  0  0
M  END
>  <minimizedAffinity>
-5.76535034

$$$$

 OpenBabel03242512263D

 25 27  0  0  1  0  0  0  0  0999 V2000
   37.0520   28.8910   41.8210 C   0  0  0  0  0  0  0  0  0  0  0  0
   38.3420   29.3570   41.8910 C   0  0  0  0  0  0  0  0  0  0  0  0
   39.2410   28.6850   42.6880 C   0  0  0  0  0  0  0  0  0  0  0  0
   40.2750   28.9820   42.8020 H   0  0  0  0  0  0  0  0  0  0  0  0
   38.7500   27.5820   43.3580 C   0  0  0  0  0  0  0  0  0  0  0  0
   39.4590   27.0580   43.9830 H   0  0  0  0  0  0  0  0  0  0  0  0
   37.4690   27.0790   43.3190 C   0  0  0  0  0  3  0  0  0  0  0  0
   36.5900   27.7670   42.5150 C   0  0  0  0  0  3  0  0  0  0  0  0
   39.0500   32.8160   40.7480 C   0  0  0  0  0  0  0  0  0  0  0  0
   39.6500   32.5630   39.5060 C   0  0  0  0  0  0  0  0  0  0  0  0
   39.8000   31.2210   39.0930 C   0  0  0  0  0  0  0  0  0  0  0  0
   39.3390   30.2720   39.9560 N   0  0  0  0  0  0  0  0  0  0  0  0
   38.7690   30.5280   41.1350 C   0  0  0  0  0  0  0  0  0  0  0  0
   38.6440   31.7980   41.4920 N   0  0  0  0  0  0  0  0  0  0  0  0
   38.8800   34.1610   41.2030 N   0  0  0  0  0  0  0  0  0  0  0  0
   39.9790   33.3830   38.9040 H   0  0  0  0  0  0  0  0  0  0  0  0
   40.2530   31.0080   38.1530 H   0  0  0  0  0  0  0  0  0  0  0  0
   39.2280   34.9590   40.6610 H   0  0  0  0  0  0  0  0  0  0  0  0
   38.4020   34.3430   42.0890 H   0  0  0  0  0  0  0  0  0  0  0  0
   35.1000   29.7250   40.1780 N   0  0  0  0  0  0  0  0  0  0  0  0
   36.0090   29.5280   41.0400 C   0  0  1  0  0  3  0  0  0  0  0  0
   35.6370   30.8790   41.3930 N   0  0  0  0  0  4  0  0  0  0  0  0
   34.7420   29.1100   39.4550 H   0  0  0  0  0  0  0  0  0  0  0  0
   36.1870   31.7790   41.3300 H   0  0  0  0  0  0  0  0  0  0  0  0
   35.2250   31.8000   41.6910 H   0  0  0  0  0  0  0  0  0  0  0  0
  1  2  2  0  0  0  0
  1  8  1  0  0  0  0
  2  3  1  0  0  0  0
  3  4  1  0  0  0  0
  3  5  2  0  0  0  0
  5  6  1  0  0  0  0
  7  5  1  0  0  0  0
  8  7  2  0  0  0  0
  9 15  1  0  0  0  0
  9 14  1  0  0  0  0
 10  9  2  0  0  0  0
 11 10  1  0  0  0  0
 11 12  2  0  0  0  0
 12 13  1  0  0  0  0
 13 14  2  0  0  0  0
 13  2  1  0  0  0  0
 15 19  1  0  0  0  0
 16 10  1  0  0  0  0
 17 11  1  0  0  0  0
 18 15  1  0  0  0  0
 20 21  1  0  0  0  0
 20 22  1  0  0  0  0
 21 22  1  0  0  0  0
 21  1  1  1  0  0  0
 22 25  1  0  0  0  0
 23 20  1  0  0  0  0
 24 22  1  0  0  0  0
M  END
>  <minimizedAffinity>
-5.75720215

$$$$

 OpenBabel03242512263D

 25 27  0  0  1  0  0  0  0  0999 V2000
   35.5560   29.5150   39.3700 C   0  0  0  0  0  0  0  0  0  0  0  0
   36.3370   29.6180   38.2460 C   0  0  0  0  0  0  0  0  0  0  0  0
   35.7790   29.3100   37.0260 C   0  0  0  0  0  0  0  0  0  0  0  0
   36.3200   29.3640   36.0900 H   0  0  0  0  0  0  0  0  0  0  0  0
   34.4560   28.9160   37.0480 C   0  0  0  0  0  0  0  0  0  0  0  0
   34.0220   28.6740   36.0890 H   0  0  0  0  0  0  0  0  0  0  0  0
   33.6340   28.7970   38.1480 C   0  0  0  0  0  3  0  0  0  0  0  0
   34.2160   29.1110   39.3540 C   0  0  0  0  0  3  0  0  0  0  0  0
   39.5690   31.3750   37.7540 C   0  0  0  0  0  0  0  0  0  0  0  0
   40.3890   30.6700   38.6490 C   0  0  0  0  0  0  0  0  0  0  0  0
   39.8170   29.6180   39.3970 C   0  0  0  0  0  0  0  0  0  0  0  0
   38.4930   29.3760   39.1790 N   0  0  0  0  0  0  0  0  0  0  0  0
   37.7260   30.0550   38.3230 C   0  0  0  0  0  0  0  0  0  0  0  0
   38.2940   31.0360   37.6370 N   0  0  0  0  0  0  0  0  0  0  0  0
   40.1100   32.4470   36.9770 N   0  0  0  0  0  0  0  0  0  0  0  0
   41.4180   30.9420   38.7440 H   0  0  0  0  0  0  0  0  0  0  0  0
   40.4230   29.0700   40.0810 H   0  0  0  0  0  0  0  0  0  0  0  0
   41.0840   32.7510   37.0870 H   0  0  0  0  0  0  0  0  0  0  0  0
   39.5210   32.9290   36.2940 H   0  0  0  0  0  0  0  0  0  0  0  0
   36.6190   29.6520   41.8310 N   0  0  0  0  0  0  0  0  0  0  0  0
   36.0380   29.7830   40.7110 C   0  0  1  0  0  3  0  0  0  0  0  0
   35.7110   31.0630   41.2990 N   0  0  0  0  0  4  0  0  0  0  0  0
   37.1550   28.8750   42.2020 H   0  0  0  0  0  0  0  0  0  0  0  0
   34.7780   31.4630   41.5890 H   0  0  0  0  0  0  0  0  0  0  0  0
   35.6300   32.0230   41.7190 H   0  0  0  0  0  0  0  0  0  0  0  0
  2 13  1  0  0  0  0
  2  1  2  0  0  0  0
  3  5  2  0  0  0  0
  3  2  1  0  0  0  0
  4  3  1  0  0  0  0
  5  7  1  0  0  0  0
  6  5  1  0  0  0  0
  7  8  2  0  0  0  0
  8  1  1  0  0  0  0
  9 10  1  0  0  0  0
 10 16  1  0  0  0  0
 10 11  2  0  0  0  0
 11 17  1  0  0  0  0
 12 11  1  0  0  0  0
 13 12  2  0  0  0  0
 14  9  2  0  0  0  0
 14 13  1  0  0  0  0
 15 18  1  0  0  0  0
 15  9  1  0  0  0  0
 19 15  1  0  0  0  0
 20 23  1  0  0  0  0
 21  1  1  6  0  0  0
 21 22  1  0  0  0  0
 21 20  1  0  0  0  0
 22 24  1  0  0  0  0
 22 25  1  0  0  0  0
 22 20  1  0  0  0  0
M  END
>  <minimizedAffinity>
-5.52052355

$$$$

 OpenBabel03242512263D

 25 27  0  0  1  0  0  0  0  0999 V2000
   37.7520   31.5800   38.6480 C   0  0  0  0  0  0  0  0  0  0  0  0
   39.0500   31.2340   38.3660 C   0  0  0  0  0  0  0  0  0  0  0  0
   39.3060   29.9630   37.9010 C   0  0  0  0  0  0  0  0  0  0  0  0
   40.2970   29.6060   37.6540 H   0  0  0  0  0  0  0  0  0  0  0  0
   38.2080   29.1380   37.7600 C   0  0  0  0  0  0  0  0  0  0  0  0
   38.4130   28.1420   37.3960 H   0  0  0  0  0  0  0  0  0  0  0  0
   36.8910   29.4400   38.0300 C   0  0  0  0  0  3  0  0  0  0  0  0
   36.6630   30.7150   38.4930 C   0  0  0  0  0  3  0  0  0  0  0  0
   41.8590   33.5960   37.8140 C   0  0  0  0  0  0  0  0  0  0  0  0
   42.1750   33.9390   39.1370 C   0  0  0  0  0  0  0  0  0  0  0  0
   41.4210   33.3600   40.1800 C   0  0  0  0  0  0  0  0  0  0  0  0
   40.4330   32.5000   39.8010 N   0  0  0  0  0  0  0  0  0  0  0  0
   40.1440   32.1820   38.5380 C   0  0  0  0  0  0  0  0  0  0  0  0
   40.8710   32.7440   37.5830 N   0  0  0  0  0  0  0  0  0  0  0  0
   42.5990   34.1610   36.7280 N   0  0  0  0  0  0  0  0  0  0  0  0
   42.9720   34.6260   39.3250 H   0  0  0  0  0  0  0  0  0  0  0  0
   41.6460   33.6080   41.1910 H   0  0  0  0  0  0  0  0  0  0  0  0
   43.3380   34.8550   36.8860 H   0  0  0  0  0  0  0  0  0  0  0  0
   42.3950   33.8740   35.7680 H   0  0  0  0  0  0  0  0  0  0  0  0
   36.9700   34.0810   39.2320 N   0  0  0  0  0  0  0  0  0  0  0  0
   37.3610   32.8760   39.1700 C   0  0  1  0  0  3  0  0  0  0  0  0
   37.3560   33.0480   40.6050 N   0  0  0  0  0  4  0  0  0  0  0  0
   36.7320   34.7290   38.4900 H   0  0  0  0  0  0  0  0  0  0  0  0
   38.1540   33.0470   41.2960 H   0  0  0  0  0  0  0  0  0  0  0  0
   37.1940   33.1890   41.6340 H   0  0  0  0  0  0  0  0  0  0  0  0
  2 13  1  0  0  0  0
  2  1  2  0  0  0  0
  3  2  1  0  0  0  0
  4  3  1  0  0  0  0
  5  3  2  0  0  0  0
  5  7  1  0  0  0  0
  6  5  1  0  0  0  0
  7  8  2  0  0  0  0
  8  1  1  0  0  0  0
  9 10  1  0  0  0  0
 10 16  1  0  0  0  0
 10 11  2  0  0  0  0
 11 17  1  0  0  0  0
 12 11  1  0  0  0  0
 13 12  2  0  0  0  0
 14  9  2  0  0  0  0
 14 13  1  0  0  0  0
 15 18  1  0  0  0  0
 15  9  1  0  0  0  0
 19 15  1  0  0  0  0
 20 22  1  0  0  0  0
 21  1  1  1  0  0  0
 21 20  1  0  0  0  0
 21 22  1  0  0  0  0
 22 24  1  0  0  0  0
 22 25  1  0  0  0  0
 23 20  1  0  0  0  0
M  END
>  <minimizedAffinity>
-5.42963696

$$$$

 OpenBabel03242512263D

 25 27  0  0  1  0  0  0  0  0999 V2000
   36.5390   30.4430   38.2560 C   0  0  0  0  0  0  0  0  0  0  0  0
   36.6500   30.8030   39.5760 C   0  0  0  0  0  0  0  0  0  0  0  0
   35.8390   30.1800   40.4980 C   0  0  0  0  0  0  0  0  0  0  0  0
   35.8590   30.4010   41.5570 H   0  0  0  0  0  0  0  0  0  0  0  0
   34.9700   29.2320   39.9960 C   0  0  0  0  0  0  0  0  0  0  0  0
   34.3350   28.7460   40.7220 H   0  0  0  0  0  0  0  0  0  0  0  0
   34.8230   28.8390   38.6840 C   0  0  0  0  0  3  0  0  0  0  0  0
   35.6450   29.4750   37.7830 C   0  0  0  0  0  3  0  0  0  0  0  0
   39.5520   32.5790   41.0580 C   0  0  0  0  0  0  0  0  0  0  0  0
   39.2440   33.9070   40.7250 C   0  0  0  0  0  0  0  0  0  0  0  0
   38.0580   34.1600   40.0030 C   0  0  0  0  0  0  0  0  0  0  0  0
   37.3020   33.0690   39.6860 N   0  0  0  0  0  0  0  0  0  0  0  0
   37.6080   31.8110   40.0100 C   0  0  0  0  0  0  0  0  0  0  0  0
   38.7280   31.6090   40.6880 N   0  0  0  0  0  0  0  0  0  0  0  0
   40.7440   32.2800   41.7890 N   0  0  0  0  0  0  0  0  0  0  0  0
   39.9070   34.6900   41.0230 H   0  0  0  0  0  0  0  0  0  0  0  0
   37.8060   35.1610   39.7410 H   0  0  0  0  0  0  0  0  0  0  0  0
   41.4150   33.0130   42.0450 H   0  0  0  0  0  0  0  0  0  0  0  0
   40.9430   31.3170   42.0680 H   0  0  0  0  0  0  0  0  0  0  0  0
   38.1170   31.8060   36.5650 N   0  0  0  0  0  0  0  0  0  0  0  0
   37.3160   31.0470   37.1900 C   0  0  1  0  0  3  0  0  0  0  0  0
   37.2010   30.4740   35.8680 N   0  0  0  0  0  4  0  0  0  0  0  0
   38.6740   32.5850   36.8990 H   0  0  0  0  0  0  0  0  0  0  0  0
   36.3800   30.4410   35.2060 H   0  0  0  0  0  0  0  0  0  0  0  0
   37.2710   30.0150   34.9240 H   0  0  0  0  0  0  0  0  0  0  0  0
  1  2  1  0  0  0  0
  2 13  1  0  0  0  0
  2  3  2  0  0  0  0
  3  4  1  0  0  0  0
  5  3  1  0  0  0  0
  5  6  1  0  0  0  0
  7  5  2  0  0  0  0
  8  1  2  0  0  0  0
  8  7  1  0  0  0  0
  9 15  1  0  0  0  0
 10 16  1  0  0  0  0
 10  9  1  0  0  0  0
 11 10  2  0  0  0  0
 12 11  1  0  0  0  0
 12 13  2  0  0  0  0
 13 14  1  0  0  0  0
 14  9  2  0  0  0  0
 15 18  1  0  0  0  0
 15 19  1  0  0  0  0
 17 11  1  0  0  0  0
 20 23  1  0  0  0  0
 20 21  1  0  0  0  0
 21  1  1  1  0  0  0
 22 20  1  0  0  0  0
 22 21  1  0  0  0  0
 24 22  1  0  0  0  0
 25 22  1  0  0  0  0
M  END
>  <minimizedAffinity>
-5.38702297

$$$$

 OpenBabel03242512263D

 25 27  0  0  1  0  0  0  0  0999 V2000
   37.4370   27.4080   41.8620 C   0  0  0  0  0  0  0  0  0  0  0  0
   37.0620   27.5370   40.5480 C   0  0  0  0  0  0  0  0  0  0  0  0
   36.6780   26.4080   39.8590 C   0  0  0  0  0  0  0  0  0  0  0  0
   36.3690   26.4180   38.8230 H   0  0  0  0  0  0  0  0  0  0  0  0
   36.7070   25.2260   40.5720 C   0  0  0  0  0  0  0  0  0  0  0  0
   36.4060   24.3430   40.0280 H   0  0  0  0  0  0  0  0  0  0  0  0
   37.0740   25.0480   41.8880 C   0  0  0  0  0  3  0  0  0  0  0  0
   37.4530   26.1910   42.5530 C   0  0  0  0  0  3  0  0  0  0  0  0
   36.8650   31.1620   39.7770 C   0  0  0  0  0  0  0  0  0  0  0  0
   37.0720   31.1460   38.3900 C   0  0  0  0  0  0  0  0  0  0  0  0
   37.2770   29.9010   37.7560 C   0  0  0  0  0  0  0  0  0  0  0  0
   37.2540   28.8040   38.5640 N   0  0  0  0  0  0  0  0  0  0  0  0
   37.0550   28.8350   39.8840 C   0  0  0  0  0  0  0  0  0  0  0  0
   36.8660   30.0190   40.4470 N   0  0  0  0  0  0  0  0  0  0  0  0
   36.6540   32.4020   40.4580 N   0  0  0  0  0  0  0  0  0  0  0  0
   37.0720   32.0670   37.8480 H   0  0  0  0  0  0  0  0  0  0  0  0
   37.4360   29.8680   36.7030 H   0  0  0  0  0  0  0  0  0  0  0  0
   36.6930   33.3000   39.9620 H   0  0  0  0  0  0  0  0  0  0  0  0
   36.4590   32.4060   41.4610 H   0  0  0  0  0  0  0  0  0  0  0  0
   38.6070   29.4440   43.1630 N   0  0  0  0  0  0  0  0  0  0  0  0
   37.8880   28.5170   42.6820 C   0  0  1  0  0  3  0  0  0  0  0  0
   36.9750   29.0300   43.6770 N   0  0  0  0  0  4  0  0  0  0  0  0
   39.5460   29.7360   42.9180 H   0  0  0  0  0  0  0  0  0  0  0  0
   36.5940   28.5800   44.5530 H   0  0  0  0  0  0  0  0  0  0  0  0
   36.3080   29.5380   44.3140 H   0  0  0  0  0  0  0  0  0  0  0  0
  1  8  1  0  0  0  0
  2  1  2  0  0  0  0
  3  2  1  0  0  0  0
  3  5  2  0  0  0  0
  4  3  1  0  0  0  0
  5  7  1  0  0  0  0
  6  5  1  0  0  0  0
  7  8  2  0  0  0  0
  9 14  1  0  0  0  0
  9 15  1  0  0  0  0
 10  9  2  0  0  0  0
 11 10  1  0  0  0  0
 11 12  2  0  0  0  0
 12 13  1  0  0  0  0
 13 14  2  0  0  0  0
 13  2  1  0  0  0  0
 15 19  1  0  0  0  0
 16 10  1  0  0  0  0
 17 11  1  0  0  0  0
 18 15  1  0  0  0  0
 20 22  1  0  0  0  0
 21  1  1  6  0  0  0
 21 20  1  0  0  0  0
 21 22  1  0  0  0  0
 22 25  1  0  0  0  0
 22 24  1  0  0  0  0
 23 20  1  0  0  0  0
M  END
>  <minimizedAffinity>
-5.31236458

$$$$

 OpenBabel03242512263D

 25 27  0  0  1  0  0  0  0  0999 V2000
   36.4100   29.9110   39.3120 C   0  0  0  0  0  0  0  0  0  0  0  0
   37.1740   30.7610   38.5520 C   0  0  0  0  0  0  0  0  0  0  0  0
   37.1540   30.6170   37.1830 C   0  0  0  0  0  0  0  0  0  0  0  0
   37.7240   31.2420   36.5090 H   0  0  0  0  0  0  0  0  0  0  0  0
   36.3500   29.6070   36.6920 C   0  0  0  0  0  0  0  0  0  0  0  0
   36.3370   29.4970   35.6180 H   0  0  0  0  0  0  0  0  0  0  0  0
   35.5680   28.7320   37.4140 C   0  0  0  0  0  3  0  0  0  0  0  0
   35.6050   28.8970   38.7790 C   0  0  0  0  0  3  0  0  0  0  0  0
   39.9280   32.7110   40.0970 C   0  0  0  0  0  0  0  0  0  0  0  0
   39.2860   33.9390   40.3190 C   0  0  0  0  0  0  0  0  0  0  0  0
   37.9350   34.0700   39.9320 C   0  0  0  0  0  0  0  0  0  0  0  0
   37.3620   32.9690   39.3680 N   0  0  0  0  0  0  0  0  0  0  0  0
   37.9850   31.8060   39.1640 C   0  0  0  0  0  0  0  0  0  0  0  0
   39.2530   31.7170   39.5380 N   0  0  0  0  0  0  0  0  0  0  0  0
   41.2960   32.5370   40.4740 N   0  0  0  0  0  0  0  0  0  0  0  0
   39.8300   34.7410   40.7700 H   0  0  0  0  0  0  0  0  0  0  0  0
   37.4300   34.9940   40.0920 H   0  0  0  0  0  0  0  0  0  0  0  0
   41.8470   33.3080   40.8680 H   0  0  0  0  0  0  0  0  0  0  0  0
   41.7470   31.6270   40.3520 H   0  0  0  0  0  0  0  0  0  0  0  0
   36.5650   29.6460   41.9790 N   0  0  0  0  0  0  0  0  0  0  0  0
   36.3700   29.9440   40.7620 C   0  0  1  0  0  3  0  0  0  0  0  0
   35.6520   31.0300   41.3890 N   0  0  0  0  0  4  0  0  0  0  0  0
   37.0760   28.8710   42.3880 H   0  0  0  0  0  0  0  0  0  0  0  0
   34.6210   31.2590   41.3890 H   0  0  0  0  0  0  0  0  0  0  0  0
   35.2720   31.8680   41.9000 H   0  0  0  0  0  0  0  0  0  0  0  0
  2 13  1  0  0  0  0
  2  1  2  0  0  0  0
  3  2  1  0  0  0  0
  4  3  1  0  0  0  0
  5  3  2  0  0  0  0
  5  7  1  0  0  0  0
  6  5  1  0  0  0  0
  7  8  2  0  0  0  0
  8  1  1  0  0  0  0
  9 10  1  0  0  0  0
  9 15  1  0  0  0  0
 10 16  1  0  0  0  0
 11 17  1  0  0  0  0
 11 10  2  0  0  0  0
 12 11  1  0  0  0  0
 13 12  2  0  0  0  0
 13 14  1  0  0  0  0
 14  9  2  0  0  0  0
 15 18  1  0  0  0  0
 19 15  1  0  0  0  0
 20 23  1  0  0  0  0
 21  1  1  1  0  0  0
 21 22  1  0  0  0  0
 21 20  1  0  0  0  0
 22 24  1  0  0  0  0
 22 25  1  0  0  0  0
 22 20  1  0  0  0  0
M  END
>  <minimizedAffinity>
-5.17748451

$$$$

 OpenBabel03242512263D

 25 27  0  0  1  0  0  0  0  0999 V2000
   36.9240   27.3880   41.6790 C   0  0  0  0  0  0  0  0  0  0  0  0
   36.9240   27.0720   40.3430 C   0  0  0  0  0  0  0  0  0  0  0  0
   36.9510   25.7430   39.9810 C   0  0  0  0  0  0  0  0  0  0  0  0
   36.9530   25.4050   38.9540 H   0  0  0  0  0  0  0  0  0  0  0  0
   36.9780   24.8340   41.0200 C   0  0  0  0  0  0  0  0  0  0  0  0
   37.0000   23.7930   40.7320 H   0  0  0  0  0  0  0  0  0  0  0  0
   36.9790   25.1030   42.3710 C   0  0  0  0  0  3  0  0  0  0  0  0
   36.9510   26.4370   42.7060 C   0  0  0  0  0  3  0  0  0  0  0  0
   37.8030   29.6890   37.8640 C   0  0  0  0  0  0  0  0  0  0  0  0
   36.5290   30.0420   37.3940 C   0  0  0  0  0  0  0  0  0  0  0  0
   35.4070   29.3770   37.9320 C   0  0  0  0  0  0  0  0  0  0  0  0
   35.6650   28.4320   38.8800 N   0  0  0  0  0  0  0  0  0  0  0  0
   36.8830   28.1070   39.3180 C   0  0  0  0  0  0  0  0  0  0  0  0
   37.9150   28.7500   38.7920 N   0  0  0  0  0  0  0  0  0  0  0  0
   38.9660   30.3390   37.3440 N   0  0  0  0  0  0  0  0  0  0  0  0
   36.4370   30.8000   36.6450 H   0  0  0  0  0  0  0  0  0  0  0  0
   34.4310   29.6310   37.5880 H   0  0  0  0  0  0  0  0  0  0  0  0
   38.9020   31.0360   36.5940 H   0  0  0  0  0  0  0  0  0  0  0  0
   39.8890   30.1110   37.7200 H   0  0  0  0  0  0  0  0  0  0  0  0
   36.8630   30.0140   42.2340 N   0  0  0  0  0  0  0  0  0  0  0  0
   36.9260   28.7480   42.1840 C   0  0  1  0  0  3  0  0  0  0  0  0
   37.0950   28.9360   43.6060 N   0  0  0  0  0  4  0  0  0  0  0  0
   36.7320   30.6910   41.4910 H   0  0  0  0  0  0  0  0  0  0  0  0
   37.9260   28.7390   44.2280 H   0  0  0  0  0  0  0  0  0  0  0  0
   37.0690   29.1290   44.6400 H   0  0  0  0  0  0  0  0  0  0  0  0
  1  8  1  0  0  0  0
  2  1  2  0  0  0  0
  3  2  1  0  0  0  0
  3  5  2  0  0  0  0
  4  3  1  0  0  0  0
  5  7  1  0  0  0  0
  6  5  1  0  0  0  0
  7  8  2  0  0  0  0
  9 14  1  0  0  0  0
 10  9  2  0  0  0  0
 10 11  1  0  0  0  0
 11 12  2  0  0  0  0
 12 13  1  0  0  0  0
 13  2  1  0  0  0  0
 14 13  2  0  0  0  0
 15 19  1  0  0  0  0
 15  9  1  0  0  0  0
 16 10  1  0  0  0  0
 17 11  1  0  0  0  0
 18 15  1  0  0  0  0
 20 22  1  0  0  0  0
 21  1  1  1  0  0  0
 21 20  1  0  0  0  0
 21 22  1  0  0  0  0
 22 24  1  0  0  0  0
 22 25  1  0  0  0  0
 23 20  1  0  0  0  0
M  END
>  <minimizedAffinity>
-5.17033768

$$$$

 OpenBabel03242512263D

 25 27  0  0  1  0  0  0  0  0999 V2000
   37.1300   29.0920   41.7130 C   0  0  0  0  0  0  0  0  0  0  0  0
   36.7800   27.9890   40.9750 C   0  0  0  0  0  0  0  0  0  0  0  0
   37.0040   26.7410   41.5110 C   0  0  0  0  0  0  0  0  0  0  0  0
   36.7600   25.8190   41.0000 H   0  0  0  0  0  0  0  0  0  0  0  0
   37.5750   26.7160   42.7680 C   0  0  0  0  0  0  0  0  0  0  0  0
   37.7510   25.7350   43.1840 H   0  0  0  0  0  0  0  0  0  0  0  0
   37.9430   27.7930   43.5440 C   0  0  0  0  0  3  0  0  0  0  0  0
   37.7070   29.0280   42.9870 C   0  0  0  0  0  3  0  0  0  0  0  0
   34.4270   28.5380   38.1580 C   0  0  0  0  0  0  0  0  0  0  0  0
   35.2660   28.2790   37.0630 C   0  0  0  0  0  0  0  0  0  0  0  0
   36.6100   27.9290   37.3150 C   0  0  0  0  0  0  0  0  0  0  0  0
   36.9810   27.8710   38.6260 N   0  0  0  0  0  0  0  0  0  0  0  0
   36.1710   28.1190   39.6580 C   0  0  0  0  0  0  0  0  0  0  0  0
   34.9160   28.4460   39.3860 N   0  0  0  0  0  0  0  0  0  0  0  0
   33.0590   28.8970   37.9460 N   0  0  0  0  0  0  0  0  0  0  0  0
   34.8730   28.3530   36.0720 H   0  0  0  0  0  0  0  0  0  0  0  0
   37.2630   27.7280   36.4970 H   0  0  0  0  0  0  0  0  0  0  0  0
   32.6750   29.0150   37.0020 H   0  0  0  0  0  0  0  0  0  0  0  0
   32.4400   29.0410   38.7470 H   0  0  0  0  0  0  0  0  0  0  0  0
   37.2240   31.6010   40.7630 N   0  0  0  0  0  0  0  0  0  0  0  0
   36.9700   30.4560   41.2460 C   0  0  1  0  0  3  0  0  0  0  0  0
   35.6470   31.0340   41.3020 N   0  0  0  0  0  4  0  0  0  0  0  0
   38.1000   31.9930   40.4350 H   0  0  0  0  0  0  0  0  0  0  0  0
   35.0430   31.2820   42.1310 H   0  0  0  0  0  0  0  0  0  0  0  0
   34.6900   31.4550   41.1820 H   0  0  0  0  0  0  0  0  0  0  0  0
  1  8  1  0  0  0  0
  2  3  1  0  0  0  0
  2  1  2  0  0  0  0
  3  5  2  0  0  0  0
  4  3  1  0  0  0  0
  5  6  1  0  0  0  0
  5  7  1  0  0  0  0
  8  7  2  0  0  0  0
  9 14  1  0  0  0  0
 10 11  1  0  0  0  0
 10  9  2  0  0  0  0
 11 12  2  0  0  0  0
 12 13  1  0  0  0  0
 13  2  1  0  0  0  0
 14 13  2  0  0  0  0
 15  9  1  0  0  0  0
 15 19  1  0  0  0  0
 16 10  1  0  0  0  0
 17 11  1  0  0  0  0
 18 15  1  0  0  0  0
 20 21  1  0  0  0  0
 20 22  1  0  0  0  0
 21 22  1  0  0  0  0
 21  1  1  6  0  0  0
 22 24  1  0  0  0  0
 23 20  1  0  0  0  0
 25 22  1  0  0  0  0
M  END
>  <minimizedAffinity>
-5.16499138

$$$$
