
     RDKit          3D

 49 52  0  0  0  0  0  0  0  0999 V2000
   45.3821   33.8191   45.5756 C   0  0  0  0  0  0  0  0  0  0  0  0
   44.8088   35.0328   45.8205 C   0  0  0  0  0  0  0  0  0  0  0  0
   44.3375   35.8720   44.8352 C   0  0  0  0  0  0  0  0  0  0  0  0
   44.4763   35.4162   43.5643 N   0  0  0  0  0  0  0  0  0  0  0  0
   45.0383   34.2258   43.3181 C   0  0  0  0  0  0  0  0  0  0  0  0
   45.4903   33.4244   44.2903 N   0  0  0  0  0  0  0  0  0  0  0  0
   45.1740   33.7549   41.9217 C   0  0  0  0  0  0  0  0  0  0  0  0
   44.2017   32.9720   41.3668 C   0  0  0  0  0  0  0  0  0  0  0  0
   44.2241   32.4788   40.0790 C   0  0  0  0  0  0  0  0  0  0  0  0
   45.3360   32.8219   39.3084 C   0  0  0  0  0  0  0  0  0  0  0  0
   46.3135   33.6029   39.8505 C   0  0  0  0  0  0  0  0  0  0  0  0
   46.2639   34.0813   41.1412 C   0  0  0  0  0  0  0  0  0  0  0  0
   47.2358   34.8732   41.7201 O   0  0  0  0  0  0  0  0  0  0  0  0
   49.6476   35.5134   42.4889 O   0  0  0  0  0  0  0  0  0  0  0  0
   48.8814   34.8822   41.3351 P   0  0  0  0  0  0  0  0  0  0  0  0
   49.5110   33.3683   40.9638 O   0  0  0  0  0  0  0  0  0  0  0  0
   49.1128   35.8832   39.9871 O   0  0  0  0  0  0  0  0  0  0  0  0
   45.5805   32.0899   48.7907 C   0  0  0  0  0  0  0  0  0  0  0  0
   46.7864   31.3767   48.6527 C   0  0  0  0  0  0  0  0  0  0  0  0
   47.5139   31.4863   47.4870 C   0  0  0  0  0  0  0  0  0  0  0  0
   47.0147   32.3007   46.5036 N   0  0  0  0  0  0  0  0  0  0  0  0
   45.8623   32.9737   46.6525 C   0  0  0  0  0  0  0  0  0  0  0  0
   45.1630   32.8643   47.7809 N   0  0  0  0  0  0  0  0  0  0  0  0
   44.7149   35.3643   46.8460 H   0  0  0  0  0  0  0  0  0  0  0  0
   43.8869   36.8264   45.0321 H   0  0  0  0  0  0  0  0  0  0  0  0
   43.3348   32.7070   41.9737 H   0  0  0  0  0  0  0  0  0  0  0  0
   43.4131   31.8628   39.7110 H   0  0  0  0  0  0  0  0  0  0  0  0
   45.3760   32.4476   38.2979 H   0  0  0  0  0  0  0  0  0  0  0  0
   47.1934   33.8910   39.2817 H   0  0  0  0  0  0  0  0  0  0  0  0
   50.2539   33.4040   40.3318 H   0  0  0  0  0  0  0  0  0  0  0  0
   49.9212   35.5805   39.5305 H   0  0  0  0  0  0  0  0  0  0  0  0
   44.9664   32.0390   49.6906 H   0  0  0  0  0  0  0  0  0  0  0  0
   47.0178   30.7919   49.5238 H   0  0  0  0  0  0  0  0  0  0  0  0
   46.4396   28.2728   47.4302 N   0  0  0  0  0  0  0  0  0  0  0  0
   47.6313   28.5854   47.0927 C   0  0  0  0  0  0  0  0  0  0  0  0
   47.5588   27.4799   46.1748 N   0  0  0  0  0  0  0  0  0  0  0  0
   48.8250   29.3853   47.1674 C   0  0  0  0  0  0  0  0  0  0  0  0
   48.7507   30.7416   47.3624 C   0  0  0  0  0  0  0  0  0  0  0  0
   49.9780   31.3509   47.4293 C   0  0  0  0  0  0  0  0  0  0  0  0
   50.1023   32.4096   47.5787 H   0  0  0  0  0  0  0  0  0  0  0  0
   51.1639   30.6604   47.3107 C   0  0  0  0  0  0  0  0  0  0  0  0
   52.1199   31.1548   47.3662 H   0  0  0  0  0  0  0  0  0  0  0  0
   51.1980   29.3037   47.1158 C   0  0  0  0  0  0  0  0  0  0  0  0
   49.9863   28.6528   47.0430 C   0  0  0  0  0  0  0  0  0  0  0  0
   45.9691   27.4701   46.9766 H   0  0  0  0  0  0  0  0  0  0  0  0
   48.0019   26.5439   46.3375 H   0  0  0  0  0  0  0  0  0  0  0  0
   47.3692   26.8482   45.3690 H   0  0  0  0  0  0  0  0  0  0  0  0
   52.1302   28.7871   47.0263 H   0  0  0  0  0  0  0  0  0  0  0  0
   50.0163   27.5812   46.8888 H   0  0  0  0  0  0  0  0  0  0  0  0
  1  2  2  0
  1 22  1  0
  3  2  1  0
  4  3  2  0
  5  4  1  0
  5  6  2  0
  6  1  1  0
  7  5  1  0
  8  7  2  0
  9  8  1  0
 10 11  1  0
 10  9  2  0
 11 12  2  0
 12 13  1  0
 12  7  1  0
 15 13  1  0
 15 14  2  0
 16 15  1  0
 17 15  1  0
 19 18  2  0
 20 19  1  0
 21 22  1  0
 21 20  2  0
 22 23  2  0
 23 18  1  0
  2 24  1  0
  3 25  1  0
  8 26  1  0
  9 27  1  0
 10 28  1  0
 11 29  1  0
 16 30  1  0
 17 31  1  0
 18 32  1  0
 19 33  1  0
 34 35  2  3
 35 36  1  0
 35 37  1  0
 37 38  2  0
 38 39  1  0
 39 40  1  0
 39 41  2  0
 41 42  1  0
 41 43  1  0
 43 44  2  0
 44 37  1  0
 34 45  1  0
 36 46  1  0
 36 47  1  0
 43 48  1  0
 44 49  1  0
 20 38  1  0
M  ISO  8  24  14  25  14  26  14  27  14  28  14  29  14  30   3  31   3
M  ISO  4  32  14  33  14  40  15  42  16
M  END
>  <DihAtoms>  (1) 
18,19,37,36

>  <DihDeg>  (1) 
178.66993403883015

$$$$
