
 OpenBabel03242515343D

 45 48  0  0  1  0  0  0  0  0999 V2000
   38.3410   27.2150   39.6550 F   0  0  0  0  0  0  0  0  0  0  0  0
   37.8580   27.3880   40.9370 C   0  0  0  0  0  0  0  0  0  0  0  0
   37.8950   28.6600   41.4420 C   0  0  0  0  0  0  0  0  0  0  0  0
   37.3880   28.7920   42.7280 C   0  0  0  0  0  0  0  0  0  0  0  0
   36.8920   27.7000   43.4110 C   0  0  0  0  0  0  0  0  0  0  0  0
   36.8830   26.4180   42.8350 C   0  0  0  0  0  0  0  0  0  0  0  0
   37.3910   26.2710   41.5380 C   0  0  0  0  0  0  0  0  0  0  0  0
   37.3520   29.7280   43.2520 H   0  0  0  0  0  0  0  0  0  0  0  0
   36.4850   27.7530   44.4190 H   0  0  0  0  0  0  0  0  0  0  0  0
   36.5030   25.5360   43.3360 H   0  0  0  0  0  0  0  0  0  0  0  0
   37.4480   30.5740   39.9790 N   0  0  0  0  0  0  0  0  0  0  0  0
   37.2980   31.8400   40.6350 C   0  0  0  0  0  0  0  0  0  0  0  0
   38.7560   32.1410   40.8900 C   0  0  0  0  0  0  0  0  0  0  0  0
   39.1360   30.8360   41.6060 C   0  0  0  0  0  0  0  0  0  0  0  0
   38.4430   29.8280   40.7580 C   0  0  1  0  0  0  0  0  0  0  0  0
   36.7160   31.8130   41.5610 H   0  0  0  0  0  0  0  0  0  0  0  0
   36.9300   32.5970   39.9000 H   0  0  0  0  0  0  0  0  0  0  0  0
   39.2980   32.2410   39.9440 H   0  0  0  0  0  0  0  0  0  0  0  0
   38.8730   33.0100   41.5710 H   0  0  0  0  0  0  0  0  0  0  0  0
   40.2310   30.7130   41.6850 H   0  0  0  0  0  0  0  0  0  0  0  0
   38.6290   30.9040   42.5960 H   0  0  0  0  0  0  0  0  0  0  0  0
   39.1580   29.4700   39.9640 H   0  0  0  0  0  0  0  0  0  0  0  0
   35.0260   28.9680   37.6520 C   0  0  0  0  0  0  0  0  0  0  0  0
   35.5560   29.4720   38.8320 C   0  0  0  0  0  0  0  0  0  0  0  0
   36.8340   30.0420   38.8200 C   0  0  0  0  0  0  0  0  0  0  0  0
   37.4830   30.0690   37.6440 N   0  0  0  0  0  0  0  0  0  0  0  0
   36.9670   29.5810   36.5030 C   0  0  0  0  0  0  0  0  0  0  0  0
   35.7230   29.0240   36.5110 N   0  0  0  0  0  0  0  0  0  0  0  0
   34.0280   28.5450   37.7610 H   0  0  0  0  0  0  0  0  0  0  0  0
   35.0280   29.4470   39.7810 H   0  0  0  0  0  0  0  0  0  0  0  0
   37.5260   29.6220   35.5660 H   0  0  0  0  0  0  0  0  0  0  0  0
   38.4450   24.0670   41.1180 C   0  0  0  0  0  0  0  0  0  0  0  0
   37.3840   24.9460   40.9340 C   0  0  0  0  0  0  0  0  0  0  0  0
   36.3110   24.5210   40.1540 C   0  0  0  0  0  0  0  0  0  0  0  0
   35.4850   25.1990   40.0080 H   0  0  0  0  0  0  0  0  0  0  0  0
   36.2500   23.2700   39.5540 C   0  0  0  0  0  0  0  0  0  0  0  0
   35.3860   22.9970   38.9580 H   0  0  0  0  0  0  0  0  0  0  0  0
   37.3030   22.4020   39.7390 C   0  0  0  0  0  3  0  0  0  0  0  0
   38.3680   22.8340   40.5170 C   0  0  0  0  0  3  0  0  0  0  0  0
   40.5540   25.1870   41.4550 N   0  0  0  0  0  0  0  0  0  0  0  0
   39.6000   24.4460   41.9220 C   0  0  0  0  0  0  0  0  0  0  0  0
   39.6330   23.9640   43.2580 N   0  0  0  0  0  0  0  0  0  0  0  0
   41.3300   25.3920   42.1310 H   0  0  0  0  0  0  0  0  0  0  0  0
   39.6600   22.9180   43.3520 H   0  0  0  0  0  0  0  0  0  0  0  0
   39.6470   24.0540   44.3040 H   0  0  0  0  0  0  0  0  0  0  0  0
  1  2  1  0  0  0  0
  2  3  2  0  0  0  0
  2  7  1  0  0  0  0
  3  4  1  0  0  0  0
  4  8  1  0  0  0  0
  4  5  2  0  0  0  0
  5  9  1  0  0  0  0
  6 10  1  0  0  0  0
  6  5  1  0  0  0  0
  7  6  2  0  0  0  0
 11 12  1  0  0  0  0
 11 15  1  0  0  0  0
 12 13  1  0  0  0  0
 12 16  1  0  0  0  0
 13 19  1  0  0  0  0
 13 14  1  0  0  0  0
 14 20  1  0  0  0  0
 14 21  1  0  0  0  0
 15 22  1  6  0  0  0
 15  3  1  0  0  0  0
 15 14  1  0  0  0  0
 17 12  1  0  0  0  0
 18 13  1  0  0  0  0
 23 29  1  0  0  0  0
 23 24  1  0  0  0  0
 24 30  1  0  0  0  0
 25 24  2  0  0  0  0
 25 11  1  0  0  0  0
 26 25  1  0  0  0  0
 27 28  1  0  0  0  0
 27 26  2  0  0  0  0
 28 23  2  0  0  0  0
 31 27  1  0  0  0  0
 32 41  1  0  0  0  0
 33 32  1  0  0  0  0
 33  7  1  0  0  0  0
 34 33  2  0  0  0  0
 35 34  1  0  0  0  0
 36 38  2  0  0  0  0
 36 34  1  0  0  0  0
 37 36  1  0  0  0  0
 38 39  1  0  0  0  0
 39 32  2  0  0  0  0
 40 41  2  0  0  0  0
 40 43  1  0  0  0  0
 41 42  1  0  0  0  0
 42 44  1  0  0  0  0
 42 45  1  0  0  0  0
M  END
>  <minimizedAffinity>
-6.45759106

$$$$

 OpenBabel03242515343D

 45 48  0  0  1  0  0  0  0  0999 V2000
   38.8890   27.9690   39.9750 F   0  0  0  0  0  0  0  0  0  0  0  0
   38.2030   27.8080   41.1630 C   0  0  0  0  0  0  0  0  0  0  0  0
   37.6750   26.5680   41.4050 C   0  0  0  0  0  0  0  0  0  0  0  0
   37.0070   26.4450   42.6160 C   0  0  0  0  0  0  0  0  0  0  0  0
   36.9030   27.5150   43.4820 C   0  0  0  0  0  0  0  0  0  0  0  0
   37.4680   28.7640   43.1730 C   0  0  0  0  0  0  0  0  0  0  0  0
   38.1470   28.9020   41.9550 C   0  0  0  0  0  0  0  0  0  0  0  0
   36.5420   25.5330   42.9400 H   0  0  0  0  0  0  0  0  0  0  0  0
   36.3900   27.4680   44.4400 H   0  0  0  0  0  0  0  0  0  0  0  0
   37.4110   29.6280   43.8240 H   0  0  0  0  0  0  0  0  0  0  0  0
   38.8170   24.4830   40.8090 N   0  0  0  0  0  0  0  0  0  0  0  0
   38.1750   23.2750   41.2380 C   0  0  0  0  0  0  0  0  0  0  0  0
   37.0970   23.2010   40.1830 C   0  0  0  0  0  0  0  0  0  0  0  0
   36.5030   24.6060   40.3650 C   0  0  0  0  0  0  0  0  0  0  0  0
   37.7390   25.4280   40.4960 C   0  0  1  0  0  0  0  0  0  0  0  0
   37.7590   23.3080   42.2490 H   0  0  0  0  0  0  0  0  0  0  0  0
   38.8620   22.4100   41.0670 H   0  0  0  0  0  0  0  0  0  0  0  0
   37.5400   23.0890   39.1880 H   0  0  0  0  0  0  0  0  0  0  0  0
   36.3450   22.4240   40.4320 H   0  0  0  0  0  0  0  0  0  0  0  0
   35.8380   24.8860   39.5280 H   0  0  0  0  0  0  0  0  0  0  0  0
   35.9790   24.5620   41.3470 H   0  0  0  0  0  0  0  0  0  0  0  0
   38.0320   25.8050   39.4750 H   0  0  0  0  0  0  0  0  0  0  0  0
   42.1660   25.2380   39.3690 C   0  0  0  0  0  0  0  0  0  0  0  0
   40.8180   24.9090   39.4220 C   0  0  0  0  0  0  0  0  0  0  0  0
   40.1850   24.8170   40.6670 C   0  0  0  0  0  0  0  0  0  0  0  0
   40.9340   25.0570   41.7560 N   0  0  0  0  0  0  0  0  0  0  0  0
   42.2390   25.3760   41.7010 C   0  0  0  0  0  0  0  0  0  0  0  0
   42.8590   25.4660   40.4910 N   0  0  0  0  0  0  0  0  0  0  0  0
   42.5700   25.2870   38.3580 H   0  0  0  0  0  0  0  0  0  0  0  0
   40.2170   24.7150   38.5390 H   0  0  0  0  0  0  0  0  0  0  0  0
   42.8140   25.5650   42.6100 H   0  0  0  0  0  0  0  0  0  0  0  0
   38.0180   31.1530   40.9240 C   0  0  0  0  0  0  0  0  0  0  0  0
   38.7360   30.1930   41.6280 C   0  0  0  0  0  0  0  0  0  0  0  0
   40.0380   30.5030   42.0150 C   0  0  0  0  0  0  0  0  0  0  0  0
   40.6000   29.7630   42.5610 H   0  0  0  0  0  0  0  0  0  0  0  0
   40.6500   31.7170   41.7310 C   0  0  0  0  0  0  0  0  0  0  0  0
   41.6670   31.9010   42.0580 H   0  0  0  0  0  0  0  0  0  0  0  0
   39.9350   32.6650   41.0330 C   0  0  0  0  0  3  0  0  0  0  0  0
   38.6390   32.3470   40.6520 C   0  0  0  0  0  3  0  0  0  0  0  0
   35.6340   31.0510   41.2760 N   0  0  0  0  0  0  0  0  0  0  0  0
   36.6510   30.8940   40.4890 C   0  0  0  0  0  0  0  0  0  0  0  0
   36.4800   30.4580   39.1490 N   0  0  0  0  0  0  0  0  0  0  0  0
   34.7010   30.8330   40.8480 H   0  0  0  0  0  0  0  0  0  0  0  0
   36.9380   29.5420   38.9170 H   0  0  0  0  0  0  0  0  0  0  0  0
   36.1280   30.5250   38.1620 H   0  0  0  0  0  0  0  0  0  0  0  0
  1  2  1  0  0  0  0
  2  3  2  0  0  0  0
  2  7  1  0  0  0  0
  3  4  1  0  0  0  0
  4  8  1  0  0  0  0
  4  5  2  0  0  0  0
  5  9  1  0  0  0  0
  6  5  1  0  0  0  0
  6 10  1  0  0  0  0
  7  6  2  0  0  0  0
 11 12  1  0  0  0  0
 12 16  1  0  0  0  0
 13 14  1  0  0  0  0
 13 19  1  0  0  0  0
 13 12  1  0  0  0  0
 14 15  1  0  0  0  0
 14 21  1  0  0  0  0
 15 22  1  6  0  0  0
 15 11  1  0  0  0  0
 15  3  1  0  0  0  0
 17 12  1  0  0  0  0
 18 13  1  0  0  0  0
 20 14  1  0  0  0  0
 23 24  2  0  0  0  0
 23 28  1  0  0  0  0
 24 25  1  0  0  0  0
 25 11  1  0  0  0  0
 25 26  2  0  0  0  0
 27 26  1  0  0  0  0
 27 31  1  0  0  0  0
 28 27  2  0  0  0  0
 29 23  1  0  0  0  0
 30 24  1  0  0  0  0
 32 33  1  0  0  0  0
 33  7  1  0  0  0  0
 33 34  2  0  0  0  0
 34 35  1  0  0  0  0
 36 34  1  0  0  0  0
 36 37  1  0  0  0  0
 38 36  2  0  0  0  0
 39 32  2  0  0  0  0
 39 38  1  0  0  0  0
 41 32  1  0  0  0  0
 41 40  2  0  0  0  0
 42 41  1  0  0  0  0
 43 40  1  0  0  0  0
 44 42  1  0  0  0  0
 45 42  1  0  0  0  0
M  END
>  <minimizedAffinity>
-6.30707264

$$$$

 OpenBabel03242515343D

 45 48  0  0  1  0  0  0  0  0999 V2000
   39.6130   29.6800   39.5980 F   0  0  0  0  0  0  0  0  0  0  0  0
   38.9240   30.8760   39.5870 C   0  0  0  0  0  0  0  0  0  0  0  0
   37.5770   30.8090   39.3520 C   0  0  0  0  0  0  0  0  0  0  0  0
   36.9200   32.0320   39.3630 C   0  0  0  0  0  0  0  0  0  0  0  0
   37.6090   33.2050   39.5970 C   0  0  0  0  0  0  0  0  0  0  0  0
   38.9940   33.2060   39.8310 C   0  0  0  0  0  0  0  0  0  0  0  0
   39.6690   31.9790   39.8240 C   0  0  0  0  0  0  0  0  0  0  0  0
   35.8650   32.1340   39.1940 H   0  0  0  0  0  0  0  0  0  0  0  0
   37.1400   34.1870   39.6150 H   0  0  0  0  0  0  0  0  0  0  0  0
   39.5720   34.1030   40.0190 H   0  0  0  0  0  0  0  0  0  0  0  0
   36.1370   29.0350   40.2400 N   0  0  0  0  0  0  0  0  0  0  0  0
   34.7350   29.1820   39.9800 C   0  0  0  0  0  0  0  0  0  0  0  0
   34.7180   28.7260   38.5410 C   0  0  0  0  0  0  0  0  0  0  0  0
   35.8010   29.6680   37.9920 C   0  0  0  0  0  0  0  0  0  0  0  0
   36.8270   29.5880   39.0690 C   0  0  1  0  0  0  0  0  0  0  0  0
   34.3480   30.1980   40.0940 H   0  0  0  0  0  0  0  0  0  0  0  0
   34.1670   28.4220   40.5720 H   0  0  0  0  0  0  0  0  0  0  0  0
   35.0340   27.6810   38.4650 H   0  0  0  0  0  0  0  0  0  0  0  0
   33.7380   28.9370   38.0640 H   0  0  0  0  0  0  0  0  0  0  0  0
   36.1460   29.3610   36.9890 H   0  0  0  0  0  0  0  0  0  0  0  0
   35.3250   30.6760   38.0040 H   0  0  0  0  0  0  0  0  0  0  0  0
   37.5610   28.7730   38.8090 H   0  0  0  0  0  0  0  0  0  0  0  0
   37.9180   28.6380   43.4850 C   0  0  0  0  0  0  0  0  0  0  0  0
   37.2350   29.2520   42.4440 C   0  0  0  0  0  0  0  0  0  0  0  0
   36.8330   28.4860   41.3430 C   0  0  0  0  0  0  0  0  0  0  0  0
   37.1370   27.1780   41.3620 N   0  0  0  0  0  0  0  0  0  0  0  0
   37.7970   26.5860   42.3720 C   0  0  0  0  0  0  0  0  0  0  0  0
   38.1910   27.3280   43.4450 N   0  0  0  0  0  0  0  0  0  0  0  0
   38.1880   29.3130   44.2960 H   0  0  0  0  0  0  0  0  0  0  0  0
   36.9920   30.3100   42.4330 H   0  0  0  0  0  0  0  0  0  0  0  0
   38.0250   25.5190   42.3510 H   0  0  0  0  0  0  0  0  0  0  0  0
   42.0120   32.0040   39.0140 C   0  0  0  0  0  0  0  0  0  0  0  0
   41.1050   31.9720   40.0670 C   0  0  0  0  0  0  0  0  0  0  0  0
   41.6110   31.9350   41.3640 C   0  0  0  0  0  0  0  0  0  0  0  0
   40.9120   31.9100   42.1850 H   0  0  0  0  0  0  0  0  0  0  0  0
   42.9690   31.9270   41.6550 C   0  0  0  0  0  0  0  0  0  0  0  0
   43.3020   31.8980   42.6860 H   0  0  0  0  0  0  0  0  0  0  0  0
   43.8640   31.9590   40.6090 C   0  0  0  0  0  3  0  0  0  0  0  0
   43.3510   31.9960   39.3200 C   0  0  0  0  0  3  0  0  0  0  0  0
   41.3520   30.9690   36.9380 N   0  0  0  0  0  0  0  0  0  0  0  0
   41.5520   32.0440   37.6310 C   0  0  0  0  0  0  0  0  0  0  0  0
   41.3270   33.3300   37.0710 N   0  0  0  0  0  0  0  0  0  0  0  0
   41.0210   31.1270   35.9550 H   0  0  0  0  0  0  0  0  0  0  0  0
   42.1760   33.9450   37.0150 H   0  0  0  0  0  0  0  0  0  0  0  0
   40.7510   34.0940   36.6390 H   0  0  0  0  0  0  0  0  0  0  0  0
  2  1  1  0  0  0  0
  2  7  1  0  0  0  0
  3  4  1  0  0  0  0
  3  2  2  0  0  0  0
  4  5  2  0  0  0  0
  5  9  1  0  0  0  0
  5  6  1  0  0  0  0
  6 10  1  0  0  0  0
  7  6  2  0  0  0  0
  7 33  1  0  0  0  0
  8  4  1  0  0  0  0
 11 25  1  0  0  0  0
 12 16  1  0  0  0  0
 12 11  1  0  0  0  0
 12 17  1  0  0  0  0
 13 12  1  0  0  0  0
 14 21  1  0  0  0  0
 14 13  1  0  0  0  0
 14 15  1  0  0  0  0
 15 22  1  6  0  0  0
 15  3  1  0  0  0  0
 15 11  1  0  0  0  0
 18 13  1  0  0  0  0
 19 13  1  0  0  0  0
 20 14  1  0  0  0  0
 23 29  1  0  0  0  0
 24 23  2  0  0  0  0
 25 26  2  0  0  0  0
 25 24  1  0  0  0  0
 26 27  1  0  0  0  0
 27 28  2  0  0  0  0
 28 23  1  0  0  0  0
 30 24  1  0  0  0  0
 31 27  1  0  0  0  0
 32 39  2  0  0  0  0
 32 33  1  0  0  0  0
 33 34  2  0  0  0  0
 34 36  1  0  0  0  0
 34 35  1  0  0  0  0
 36 37  1  0  0  0  0
 38 36  2  0  0  0  0
 39 38  1  0  0  0  0
 40 41  2  0  0  0  0
 41 32  1  0  0  0  0
 42 41  1  0  0  0  0
 43 40  1  0  0  0  0
 44 42  1  0  0  0  0
 45 42  1  0  0  0  0
M  END
>  <minimizedAffinity>
-6.27638865

$$$$

 OpenBabel03242515343D

 45 48  0  0  1  0  0  0  0  0999 V2000
   39.2980   29.7580   40.9390 F   0  0  0  0  0  0  0  0  0  0  0  0
   38.1250   29.7400   40.2110 C   0  0  0  0  0  0  0  0  0  0  0  0
   37.1370   28.9030   40.6550 C   0  0  0  0  0  0  0  0  0  0  0  0
   35.9710   28.9260   39.9030 C   0  0  0  0  0  0  0  0  0  0  0  0
   35.8550   29.7440   38.7970 C   0  0  0  0  0  0  0  0  0  0  0  0
   36.9090   30.5810   38.3920 C   0  0  0  0  0  0  0  0  0  0  0  0
   38.0910   30.5690   39.1430 C   0  0  0  0  0  0  0  0  0  0  0  0
   35.1120   28.3240   40.1320 H   0  0  0  0  0  0  0  0  0  0  0  0
   34.9630   29.7970   38.1770 H   0  0  0  0  0  0  0  0  0  0  0  0
   36.8590   31.2380   37.5330 H   0  0  0  0  0  0  0  0  0  0  0  0
   38.1120   26.8460   41.5630 N   0  0  0  0  0  0  0  0  0  0  0  0
   39.2450   27.0190   42.4240 C   0  0  0  0  0  0  0  0  0  0  0  0
   38.5190   27.4460   43.6770 C   0  0  0  0  0  0  0  0  0  0  0  0
   37.7010   28.6020   43.0830 C   0  0  0  0  0  0  0  0  0  0  0  0
   37.2410   28.0030   41.8000 C   0  0  1  0  0  0  0  0  0  0  0  0
   39.9660   27.7700   42.0910 H   0  0  0  0  0  0  0  0  0  0  0  0
   39.7060   26.0220   42.6340 H   0  0  0  0  0  0  0  0  0  0  0  0
   37.8630   26.6450   44.0320 H   0  0  0  0  0  0  0  0  0  0  0  0
   39.2280   27.8220   44.4440 H   0  0  0  0  0  0  0  0  0  0  0  0
   36.8960   28.9310   43.7640 H   0  0  0  0  0  0  0  0  0  0  0  0
   38.4530   29.3980   42.8750 H   0  0  0  0  0  0  0  0  0  0  0  0
   36.2340   27.5230   41.9650 H   0  0  0  0  0  0  0  0  0  0  0  0
   36.6090   23.8270   39.9860 C   0  0  0  0  0  0  0  0  0  0  0  0
   36.8760   24.7970   40.9420 C   0  0  0  0  0  0  0  0  0  0  0  0
   37.7820   25.8210   40.6440 C   0  0  0  0  0  0  0  0  0  0  0  0
   38.3490   25.8030   39.4260 N   0  0  0  0  0  0  0  0  0  0  0  0
   38.0890   24.8630   38.5020 C   0  0  0  0  0  0  0  0  0  0  0  0
   37.2080   23.8640   38.7890 N   0  0  0  0  0  0  0  0  0  0  0  0
   35.8920   23.0730   40.3090 H   0  0  0  0  0  0  0  0  0  0  0  0
   36.4150   24.8070   41.9260 H   0  0  0  0  0  0  0  0  0  0  0  0
   38.5700   24.8830   37.5230 H   0  0  0  0  0  0  0  0  0  0  0  0
   39.3800   32.6800   39.3170 C   0  0  0  0  0  0  0  0  0  0  0  0
   39.1870   31.4340   38.7300 C   0  0  0  0  0  0  0  0  0  0  0  0
   40.0760   31.0360   37.7340 C   0  0  0  0  0  0  0  0  0  0  0  0
   39.9310   30.0710   37.2750 H   0  0  0  0  0  0  0  0  0  0  0  0
   41.1380   31.8190   37.3000 C   0  0  0  0  0  0  0  0  0  0  0  0
   41.7960   31.4550   36.5200 H   0  0  0  0  0  0  0  0  0  0  0  0
   41.3250   33.0530   37.8840 C   0  0  0  0  0  3  0  0  0  0  0  0
   40.4350   33.4400   38.8760 C   0  0  0  0  0  3  0  0  0  0  0  0
   38.7850   33.0630   41.6230 N   0  0  0  0  0  0  0  0  0  0  0  0
   38.4870   33.1580   40.3660 C   0  0  0  0  0  0  0  0  0  0  0  0
   37.2630   33.7420   39.9440 N   0  0  0  0  0  0  0  0  0  0  0  0
   38.0620   33.4430   42.2820 H   0  0  0  0  0  0  0  0  0  0  0  0
   36.6230   33.0990   39.4160 H   0  0  0  0  0  0  0  0  0  0  0  0
   36.5610   34.5160   39.8440 H   0  0  0  0  0  0  0  0  0  0  0  0
  2  3  1  0  0  0  0
  2  1  1  0  0  0  0
  3 15  1  0  0  0  0
  4  8  1  0  0  0  0
  4  3  2  0  0  0  0
  5  4  1  0  0  0  0
  6  5  2  0  0  0  0
  6  7  1  0  0  0  0
  7  2  2  0  0  0  0
  9  5  1  0  0  0  0
 10  6  1  0  0  0  0
 11 15  1  0  0  0  0
 11 12  1  0  0  0  0
 12 17  1  0  0  0  0
 12 13  1  0  0  0  0
 13 18  1  0  0  0  0
 13 19  1  0  0  0  0
 14 13  1  0  0  0  0
 14 20  1  0  0  0  0
 15 22  1  1  0  0  0
 15 14  1  0  0  0  0
 16 12  1  0  0  0  0
 21 14  1  0  0  0  0
 23 29  1  0  0  0  0
 23 24  1  0  0  0  0
 24 30  1  0  0  0  0
 25 24  2  0  0  0  0
 25 11  1  0  0  0  0
 26 25  1  0  0  0  0
 27 28  1  0  0  0  0
 27 26  2  0  0  0  0
 28 23  2  0  0  0  0
 31 27  1  0  0  0  0
 32 41  1  0  0  0  0
 33  7  1  0  0  0  0
 33 32  2  0  0  0  0
 34 33  1  0  0  0  0
 35 34  1  0  0  0  0
 36 34  2  0  0  0  0
 36 38  1  0  0  0  0
 37 36  1  0  0  0  0
 38 39  2  0  0  0  0
 39 32  1  0  0  0  0
 40 43  1  0  0  0  0
 41 40  2  0  0  0  0
 42 41  1  0  0  0  0
 44 42  1  0  0  0  0
 45 42  1  0  0  0  0
M  END
>  <minimizedAffinity>
-6.24256325

$$$$

 OpenBabel03242515343D

 45 48  0  0  1  0  0  0  0  0999 V2000
   39.1470   28.9930   39.6670 F   0  0  0  0  0  0  0  0  0  0  0  0
   38.7590   28.5460   40.9150 C   0  0  0  0  0  0  0  0  0  0  0  0
   39.6930   28.6220   41.9130 C   0  0  0  0  0  0  0  0  0  0  0  0
   39.2590   28.1760   43.1540 C   0  0  0  0  0  0  0  0  0  0  0  0
   37.9750   27.6990   43.3280 C   0  0  0  0  0  0  0  0  0  0  0  0
   37.0630   27.6470   42.2600 C   0  0  0  0  0  0  0  0  0  0  0  0
   37.4880   28.0950   41.0030 C   0  0  0  0  0  0  0  0  0  0  0  0
   39.8810   28.1760   44.0290 H   0  0  0  0  0  0  0  0  0  0  0  0
   37.5890   27.3390   44.2790 H   0  0  0  0  0  0  0  0  0  0  0  0
   36.0480   27.2800   42.3540 H   0  0  0  0  0  0  0  0  0  0  0  0
   41.2280   30.5320   41.9770 N   0  0  0  0  0  0  0  0  0  0  0  0
   42.0110   30.6640   43.1710 C   0  0  0  0  0  0  0  0  0  0  0  0
   43.0490   29.6050   42.8840 C   0  0  0  0  0  0  0  0  0  0  0  0
   42.1010   28.4300   42.5980 C   0  0  0  0  0  0  0  0  0  0  0  0
   41.0670   29.0900   41.7540 C   0  0  1  0  0  0  0  0  0  0  0  0
   41.4700   30.4680   44.1010 H   0  0  0  0  0  0  0  0  0  0  0  0
   42.5370   31.6500   43.1620 H   0  0  0  0  0  0  0  0  0  0  0  0
   43.6280   29.8660   41.9930 H   0  0  0  0  0  0  0  0  0  0  0  0
   43.6690   29.3980   43.7810 H   0  0  0  0  0  0  0  0  0  0  0  0
   42.6260   27.5820   42.1220 H   0  0  0  0  0  0  0  0  0  0  0  0
   41.6660   28.1750   43.5910 H   0  0  0  0  0  0  0  0  0  0  0  0
   41.3570   28.9760   40.6710 H   0  0  0  0  0  0  0  0  0  0  0  0
   40.5550   32.6840   39.0150 C   0  0  0  0  0  0  0  0  0  0  0  0
   41.1480   31.7080   39.8050 C   0  0  0  0  0  0  0  0  0  0  0  0
   40.6770   31.5020   41.1070 C   0  0  0  0  0  0  0  0  0  0  0  0
   39.6600   32.2750   41.5210 N   0  0  0  0  0  0  0  0  0  0  0  0
   39.0870   33.2190   40.7530 C   0  0  0  0  0  0  0  0  0  0  0  0
   39.5430   33.4230   39.4860 N   0  0  0  0  0  0  0  0  0  0  0  0
   40.9880   32.7710   38.0190 H   0  0  0  0  0  0  0  0  0  0  0  0
   41.9710   31.0860   39.4650 H   0  0  0  0  0  0  0  0  0  0  0  0
   38.2610   33.8270   41.1260 H   0  0  0  0  0  0  0  0  0  0  0  0
   35.8890   29.1870   39.4560 C   0  0  0  0  0  0  0  0  0  0  0  0
   36.5480   28.0440   39.8910 C   0  0  0  0  0  0  0  0  0  0  0  0
   36.2850   26.8460   39.2320 C   0  0  0  0  0  0  0  0  0  0  0  0
   36.7940   25.9550   39.5660 H   0  0  0  0  0  0  0  0  0  0  0  0
   35.3990   26.7380   38.1680 C   0  0  0  0  0  0  0  0  0  0  0  0
   35.2350   25.7760   37.6940 H   0  0  0  0  0  0  0  0  0  0  0  0
   34.7470   27.8730   37.7390 C   0  0  0  0  0  3  0  0  0  0  0  0
   35.0170   29.0620   38.4020 C   0  0  0  0  0  3  0  0  0  0  0  0
   35.5780   30.7850   41.2360 N   0  0  0  0  0  0  0  0  0  0  0  0
   36.1180   30.4750   40.1000 C   0  0  0  0  0  0  0  0  0  0  0  0
   36.9710   31.3850   39.4210 N   0  0  0  0  0  0  0  0  0  0  0  0
   35.8190   31.7390   41.5990 H   0  0  0  0  0  0  0  0  0  0  0  0
   36.6300   31.6930   38.4770 H   0  0  0  0  0  0  0  0  0  0  0  0
   37.8240   31.9850   39.3040 H   0  0  0  0  0  0  0  0  0  0  0  0
  1  2  1  0  0  0  0
  2  7  2  0  0  0  0
  2  3  1  0  0  0  0
  3  4  2  0  0  0  0
  4  5  1  0  0  0  0
  4  8  1  0  0  0  0
  5  9  1  0  0  0  0
  6 10  1  0  0  0  0
  6  5  2  0  0  0  0
  7  6  1  0  0  0  0
 11 12  1  0  0  0  0
 12 16  1  0  0  0  0
 13 12  1  0  0  0  0
 13 19  1  0  0  0  0
 14 13  1  0  0  0  0
 14 21  1  0  0  0  0
 15 22  1  6  0  0  0
 15  3  1  0  0  0  0
 15 11  1  0  0  0  0
 15 14  1  0  0  0  0
 17 12  1  0  0  0  0
 18 13  1  0  0  0  0
 20 14  1  0  0  0  0
 23 28  2  0  0  0  0
 23 24  1  0  0  0  0
 24 25  2  0  0  0  0
 25 26  1  0  0  0  0
 25 11  1  0  0  0  0
 27 31  1  0  0  0  0
 27 26  2  0  0  0  0
 28 27  1  0  0  0  0
 29 23  1  0  0  0  0
 30 24  1  0  0  0  0
 32 33  1  0  0  0  0
 32 41  1  0  0  0  0
 33  7  1  0  0  0  0
 34 35  1  0  0  0  0
 34 33  2  0  0  0  0
 36 34  1  0  0  0  0
 37 36  1  0  0  0  0
 38 36  2  0  0  0  0
 38 39  1  0  0  0  0
 39 32  2  0  0  0  0
 40 43  1  0  0  0  0
 41 40  2  0  0  0  0
 42 41  1  0  0  0  0
 44 42  1  0  0  0  0
 45 42  1  0  0  0  0
M  END
>  <minimizedAffinity>
-6.19922781

$$$$

 OpenBabel03242515343D

 45 48  0  0  1  0  0  0  0  0999 V2000
   39.5530   29.7510   39.7440 F   0  0  0  0  0  0  0  0  0  0  0  0
   39.2750   31.0950   39.8970 C   0  0  0  0  0  0  0  0  0  0  0  0
   40.1830   31.8350   40.6060 C   0  0  0  0  0  0  0  0  0  0  0  0
   39.8720   33.1830   40.7240 C   0  0  0  0  0  0  0  0  0  0  0  0
   38.7260   33.7000   40.1550 C   0  0  0  0  0  0  0  0  0  0  0  0
   37.8330   32.8850   39.4380 C   0  0  0  0  0  0  0  0  0  0  0  0
   38.1350   31.5230   39.3110 C   0  0  0  0  0  0  0  0  0  0  0  0
   40.4910   33.8840   41.2510 H   0  0  0  0  0  0  0  0  0  0  0  0
   38.4400   34.7480   40.2200 H   0  0  0  0  0  0  0  0  0  0  0  0
   36.9240   33.2510   38.9760 H   0  0  0  0  0  0  0  0  0  0  0  0
   42.6050   32.0550   40.9080 N   0  0  0  0  0  0  0  0  0  0  0  0
   43.0280   32.6980   42.1180 C   0  0  0  0  0  0  0  0  0  0  0  0
   42.8280   31.5450   43.0730 C   0  0  0  0  0  0  0  0  0  0  0  0
   41.3660   31.2200   42.7330 C   0  0  0  0  0  0  0  0  0  0  0  0
   41.3860   31.3120   41.2470 C   0  0  1  0  0  0  0  0  0  0  0  0
   42.4400   33.5750   42.4030 H   0  0  0  0  0  0  0  0  0  0  0  0
   44.1260   32.8960   42.0670 H   0  0  0  0  0  0  0  0  0  0  0  0
   43.4860   30.7110   42.8110 H   0  0  0  0  0  0  0  0  0  0  0  0
   42.9200   31.8780   44.1280 H   0  0  0  0  0  0  0  0  0  0  0  0
   41.0560   30.2400   43.1400 H   0  0  0  0  0  0  0  0  0  0  0  0
   40.7850   32.0730   43.1530 H   0  0  0  0  0  0  0  0  0  0  0  0
   41.5960   30.2880   40.8240 H   0  0  0  0  0  0  0  0  0  0  0  0
   43.8480   30.9670   37.5720 C   0  0  0  0  0  0  0  0  0  0  0  0
   43.2880   30.8860   38.8400 C   0  0  0  0  0  0  0  0  0  0  0  0
   43.1610   32.0510   39.6060 C   0  0  0  0  0  0  0  0  0  0  0  0
   43.5950   33.1970   39.0580 N   0  0  0  0  0  0  0  0  0  0  0  0
   44.1360   33.2720   37.8300 C   0  0  0  0  0  0  0  0  0  0  0  0
   44.2630   32.1410   37.0810 N   0  0  0  0  0  0  0  0  0  0  0  0
   43.9050   30.0110   37.0520 H   0  0  0  0  0  0  0  0  0  0  0  0
   42.9380   29.9570   39.2790 H   0  0  0  0  0  0  0  0  0  0  0  0
   44.4770   34.2240   37.4190 H   0  0  0  0  0  0  0  0  0  0  0  0
   36.2610   29.9020   39.2240 C   0  0  0  0  0  0  0  0  0  0  0  0
   37.2140   30.6730   38.5680 C   0  0  0  0  0  0  0  0  0  0  0  0
   37.2630   30.6090   37.1780 C   0  0  0  0  0  0  0  0  0  0  0  0
   38.0010   31.2050   36.6640 H   0  0  0  0  0  0  0  0  0  0  0  0
   36.4120   29.8160   36.4190 C   0  0  0  0  0  0  0  0  0  0  0  0
   36.4990   29.8090   35.3380 H   0  0  0  0  0  0  0  0  0  0  0  0
   35.4690   29.0540   37.0720 C   0  0  0  0  0  3  0  0  0  0  0  0
   35.4280   29.1250   38.4580 C   0  0  0  0  0  3  0  0  0  0  0  0
   35.6180   30.9110   41.3180 N   0  0  0  0  0  0  0  0  0  0  0  0
   36.1540   29.9220   40.6780 C   0  0  0  0  0  0  0  0  0  0  0  0
   36.6690   28.7940   41.3700 N   0  0  0  0  0  0  0  0  0  0  0  0
   35.5990   30.8090   42.3620 H   0  0  0  0  0  0  0  0  0  0  0  0
   37.6990   28.6300   41.2480 H   0  0  0  0  0  0  0  0  0  0  0  0
   36.6130   27.9490   41.9910 H   0  0  0  0  0  0  0  0  0  0  0  0
  1  2  1  0  0  0  0
  2  3  1  0  0  0  0
  3  4  2  0  0  0  0
  3 15  1  0  0  0  0
  4  8  1  0  0  0  0
  5  9  1  0  0  0  0
  5  4  1  0  0  0  0
  6  5  2  0  0  0  0
  7  6  1  0  0  0  0
  7  2  2  0  0  0  0
 10  6  1  0  0  0  0
 11 15  1  0  0  0  0
 11 12  1  0  0  0  0
 12 16  1  0  0  0  0
 12 13  1  0  0  0  0
 13 19  1  0  0  0  0
 14 13  1  0  0  0  0
 14 20  1  0  0  0  0
 14 21  1  0  0  0  0
 15 22  1  6  0  0  0
 15 14  1  0  0  0  0
 17 12  1  0  0  0  0
 18 13  1  0  0  0  0
 23 24  1  0  0  0  0
 24 30  1  0  0  0  0
 24 25  2  0  0  0  0
 25 11  1  0  0  0  0
 26 25  1  0  0  0  0
 27 26  2  0  0  0  0
 28 23  2  0  0  0  0
 28 27  1  0  0  0  0
 29 23  1  0  0  0  0
 31 27  1  0  0  0  0
 32 41  1  0  0  0  0
 33 32  1  0  0  0  0
 33  7  1  0  0  0  0
 34 33  2  0  0  0  0
 35 34  1  0  0  0  0
 36 38  2  0  0  0  0
 36 34  1  0  0  0  0
 37 36  1  0  0  0  0
 38 39  1  0  0  0  0
 39 32  2  0  0  0  0
 40 43  1  0  0  0  0
 41 40  2  0  0  0  0
 41 42  1  0  0  0  0
 42 45  1  0  0  0  0
 44 42  1  0  0  0  0
M  END
>  <minimizedAffinity>
-6.19389296

$$$$

 OpenBabel03242515343D

 45 48  0  0  1  0  0  0  0  0999 V2000
   39.6190   27.8330   40.0700 F   0  0  0  0  0  0  0  0  0  0  0  0
   38.5720   27.8840   40.9690 C   0  0  0  0  0  0  0  0  0  0  0  0
   37.3850   28.3840   40.5030 C   0  0  0  0  0  0  0  0  0  0  0  0
   36.3550   28.4040   41.4340 C   0  0  0  0  0  0  0  0  0  0  0  0
   36.5530   27.9480   42.7220 C   0  0  0  0  0  0  0  0  0  0  0  0
   37.7980   27.4470   43.1380 C   0  0  0  0  0  0  0  0  0  0  0  0
   38.8460   27.4190   42.2080 C   0  0  0  0  0  0  0  0  0  0  0  0
   35.3700   28.7680   41.2120 H   0  0  0  0  0  0  0  0  0  0  0  0
   35.7780   27.9440   43.4860 H   0  0  0  0  0  0  0  0  0  0  0  0
   37.9950   27.0790   44.1370 H   0  0  0  0  0  0  0  0  0  0  0  0
   38.1310   29.9160   38.7420 N   0  0  0  0  0  0  0  0  0  0  0  0
   38.8870   29.3230   37.6780 C   0  0  0  0  0  0  0  0  0  0  0  0
   37.7490   28.6990   36.9070 C   0  0  0  0  0  0  0  0  0  0  0  0
   37.1050   27.9060   38.0540 C   0  0  0  0  0  0  0  0  0  0  0  0
   37.1540   28.9040   39.1590 C   0  0  1  0  0  0  0  0  0  0  0  0
   39.6250   28.5810   37.9950 H   0  0  0  0  0  0  0  0  0  0  0  0
   39.3170   30.1300   37.0340 H   0  0  0  0  0  0  0  0  0  0  0  0
   37.0690   29.4710   36.5340 H   0  0  0  0  0  0  0  0  0  0  0  0
   38.1260   28.0120   36.1200 H   0  0  0  0  0  0  0  0  0  0  0  0
   36.0950   27.5450   37.7900 H   0  0  0  0  0  0  0  0  0  0  0  0
   37.8260   27.0830   38.2630 H   0  0  0  0  0  0  0  0  0  0  0  0
   36.1870   29.4840   39.1650 H   0  0  0  0  0  0  0  0  0  0  0  0
   37.4660   33.4590   39.6710 C   0  0  0  0  0  0  0  0  0  0  0  0
   37.3220   32.2330   39.0360 C   0  0  0  0  0  0  0  0  0  0  0  0
   38.2070   31.1940   39.3460 C   0  0  0  0  0  0  0  0  0  0  0  0
   39.1610   31.4510   40.2550 N   0  0  0  0  0  0  0  0  0  0  0  0
   39.2980   32.6400   40.8690 C   0  0  0  0  0  0  0  0  0  0  0  0
   38.4390   33.6530   40.5700 N   0  0  0  0  0  0  0  0  0  0  0  0
   36.7310   34.2040   39.3660 H   0  0  0  0  0  0  0  0  0  0  0  0
   36.5490   32.0300   38.3010 H   0  0  0  0  0  0  0  0  0  0  0  0
   40.0870   32.8100   41.6030 H   0  0  0  0  0  0  0  0  0  0  0  0
   40.4800   25.5680   42.4290 C   0  0  0  0  0  0  0  0  0  0  0  0
   40.1390   26.9000   42.6310 C   0  0  0  0  0  0  0  0  0  0  0  0
   41.0720   27.7280   43.2510 C   0  0  0  0  0  0  0  0  0  0  0  0
   40.8130   28.7620   43.4110 H   0  0  0  0  0  0  0  0  0  0  0  0
   42.3200   27.2880   43.6760 C   0  0  0  0  0  0  0  0  0  0  0  0
   43.0040   27.9800   44.1540 H   0  0  0  0  0  0  0  0  0  0  0  0
   42.6540   25.9670   43.4740 C   0  0  0  0  0  3  0  0  0  0  0  0
   41.7170   25.1510   42.8550 C   0  0  0  0  0  3  0  0  0  0  0  0
   39.5610   24.4360   40.5080 N   0  0  0  0  0  0  0  0  0  0  0  0
   39.5510   24.6480   41.7860 C   0  0  0  0  0  0  0  0  0  0  0  0
   38.6230   23.9840   42.6310 N   0  0  0  0  0  0  0  0  0  0  0  0
   38.8440   23.7520   40.1640 H   0  0  0  0  0  0  0  0  0  0  0  0
   37.9560   24.6150   43.1420 H   0  0  0  0  0  0  0  0  0  0  0  0
   38.1740   23.1500   43.0850 H   0  0  0  0  0  0  0  0  0  0  0  0
  1  2  1  0  0  0  0
  2  7  1  0  0  0  0
  3  2  2  0  0  0  0
  3  4  1  0  0  0  0
  4  5  2  0  0  0  0
  5  6  1  0  0  0  0
  5  9  1  0  0  0  0
  6 10  1  0  0  0  0
  7 33  1  0  0  0  0
  7  6  2  0  0  0  0
  8  4  1  0  0  0  0
 11 15  1  0  0  0  0
 11 25  1  0  0  0  0
 12 16  1  0  0  0  0
 12 11  1  0  0  0  0
 13 12  1  0  0  0  0
 13 14  1  0  0  0  0
 14 21  1  0  0  0  0
 14 15  1  0  0  0  0
 15 22  1  1  0  0  0
 15  3  1  0  0  0  0
 17 12  1  0  0  0  0
 18 13  1  0  0  0  0
 19 13  1  0  0  0  0
 20 14  1  0  0  0  0
 23 28  1  0  0  0  0
 24 25  1  0  0  0  0
 24 23  2  0  0  0  0
 25 26  2  0  0  0  0
 26 27  1  0  0  0  0
 27 31  1  0  0  0  0
 28 27  2  0  0  0  0
 29 23  1  0  0  0  0
 30 24  1  0  0  0  0
 32 33  2  0  0  0  0
 32 39  1  0  0  0  0
 33 34  1  0  0  0  0
 34 35  1  0  0  0  0
 34 36  2  0  0  0  0
 36 37  1  0  0  0  0
 38 36  1  0  0  0  0
 39 38  2  0  0  0  0
 40 41  2  0  0  0  0
 41 32  1  0  0  0  0
 41 42  1  0  0  0  0
 42 45  1  0  0  0  0
 42 44  1  0  0  0  0
 43 40  1  0  0  0  0
M  END
>  <minimizedAffinity>
-6.10713863

$$$$

 OpenBabel03242515343D

 45 48  0  0  1  0  0  0  0  0999 V2000
   38.1850   29.3120   39.7620 F   0  0  0  0  0  0  0  0  0  0  0  0
   39.0970   29.8220   40.6660 C   0  0  0  0  0  0  0  0  0  0  0  0
   39.4500   31.1360   40.5090 C   0  0  0  0  0  0  0  0  0  0  0  0
   40.3560   31.6120   41.4460 C   0  0  0  0  0  0  0  0  0  0  0  0
   40.8420   30.7920   42.4440 C   0  0  0  0  0  0  0  0  0  0  0  0
   40.4400   29.4500   42.5500 C   0  0  0  0  0  0  0  0  0  0  0  0
   39.5240   28.9570   41.6110 C   0  0  0  0  0  0  0  0  0  0  0  0
   40.7240   32.6210   41.4480 H   0  0  0  0  0  0  0  0  0  0  0  0
   41.5540   31.1190   43.2000 H   0  0  0  0  0  0  0  0  0  0  0  0
   40.7960   28.7740   43.3170 H   0  0  0  0  0  0  0  0  0  0  0  0
   39.4160   31.6120   38.1050 N   0  0  0  0  0  0  0  0  0  0  0  0
   38.2300   31.2110   37.4060 C   0  0  0  0  0  0  0  0  0  0  0  0
   37.3210   32.3390   37.8280 C   0  0  0  0  0  0  0  0  0  0  0  0
   37.5070   32.2240   39.3490 C   0  0  0  0  0  0  0  0  0  0  0  0
   38.9790   32.0190   39.4450 C   0  0  1  0  0  0  0  0  0  0  0  0
   37.8330   30.2330   37.6940 H   0  0  0  0  0  0  0  0  0  0  0  0
   38.3960   31.3160   36.3050 H   0  0  0  0  0  0  0  0  0  0  0  0
   37.7010   33.2970   37.4580 H   0  0  0  0  0  0  0  0  0  0  0  0
   36.2670   32.1330   37.5470 H   0  0  0  0  0  0  0  0  0  0  0  0
   37.1200   33.1120   39.8810 H   0  0  0  0  0  0  0  0  0  0  0  0
   36.9800   31.2830   39.6240 H   0  0  0  0  0  0  0  0  0  0  0  0
   39.4770   33.0220   39.5720 H   0  0  0  0  0  0  0  0  0  0  0  0
   42.8140   30.6540   36.9230 C   0  0  0  0  0  0  0  0  0  0  0  0
   41.4850   30.5220   37.3030 C   0  0  0  0  0  0  0  0  0  0  0  0
   40.7710   31.6600   37.6990 C   0  0  0  0  0  0  0  0  0  0  0  0
   41.4270   32.8320   37.6860 N   0  0  0  0  0  0  0  0  0  0  0  0
   42.7140   32.9560   37.3160 C   0  0  0  0  0  0  0  0  0  0  0  0
   43.4120   31.8510   36.9310 N   0  0  0  0  0  0  0  0  0  0  0  0
   43.2850   29.7150   36.6320 H   0  0  0  0  0  0  0  0  0  0  0  0
   40.9590   29.5720   37.3130 H   0  0  0  0  0  0  0  0  0  0  0  0
   43.2120   33.9260   37.3190 H   0  0  0  0  0  0  0  0  0  0  0  0
   37.8320   27.2340   42.1710 C   0  0  0  0  0  0  0  0  0  0  0  0
   39.1020   27.5670   41.7150 C   0  0  0  0  0  0  0  0  0  0  0  0
   39.9610   26.5300   41.3570 C   0  0  0  0  0  0  0  0  0  0  0  0
   40.9480   26.7820   41.0030 H   0  0  0  0  0  0  0  0  0  0  0  0
   39.6130   25.1880   41.4360 C   0  0  0  0  0  0  0  0  0  0  0  0
   40.3260   24.4250   41.1430 H   0  0  0  0  0  0  0  0  0  0  0  0
   38.3530   24.8620   41.8880 C   0  0  0  0  0  3  0  0  0  0  0  0
   37.5040   25.9020   42.2420 C   0  0  0  0  0  3  0  0  0  0  0  0
   36.9840   28.9140   43.6800 N   0  0  0  0  0  0  0  0  0  0  0  0
   36.8820   28.2690   42.5610 C   0  0  0  0  0  0  0  0  0  0  0  0
   35.8290   28.5440   41.6490 N   0  0  0  0  0  0  0  0  0  0  0  0
   36.2400   29.6350   43.8480 H   0  0  0  0  0  0  0  0  0  0  0  0
   35.1800   27.7390   41.4640 H   0  0  0  0  0  0  0  0  0  0  0  0
   35.2690   29.1410   40.9910 H   0  0  0  0  0  0  0  0  0  0  0  0
  1  2  1  0  0  0  0
  2  7  1  0  0  0  0
  3  2  2  0  0  0  0
  3  4  1  0  0  0  0
  4  8  1  0  0  0  0
  4  5  2  0  0  0  0
  5  6  1  0  0  0  0
  5  9  1  0  0  0  0
  6 10  1  0  0  0  0
  7 33  1  0  0  0  0
  7  6  2  0  0  0  0
 11 15  1  0  0  0  0
 12 16  1  0  0  0  0
 12 13  1  0  0  0  0
 12 11  1  0  0  0  0
 13 14  1  0  0  0  0
 14 15  1  0  0  0  0
 14 21  1  0  0  0  0
 14 20  1  0  0  0  0
 15 22  1  1  0  0  0
 15  3  1  0  0  0  0
 17 12  1  0  0  0  0
 18 13  1  0  0  0  0
 19 13  1  0  0  0  0
 23 28  2  0  0  0  0
 23 24  1  0  0  0  0
 24 30  1  0  0  0  0
 24 25  2  0  0  0  0
 25 11  1  0  0  0  0
 26 25  1  0  0  0  0
 27 31  1  0  0  0  0
 27 26  2  0  0  0  0
 28 27  1  0  0  0  0
 29 23  1  0  0  0  0
 32 39  1  0  0  0  0
 32 41  1  0  0  0  0
 33 32  2  0  0  0  0
 34 36  2  0  0  0  0
 34 33  1  0  0  0  0
 35 34  1  0  0  0  0
 36 38  1  0  0  0  0
 37 36  1  0  0  0  0
 38 39  2  0  0  0  0
 40 43  1  0  0  0  0
 41 40  2  0  0  0  0
 42 41  1  0  0  0  0
 44 42  1  0  0  0  0
 45 42  1  0  0  0  0
M  END
>  <minimizedAffinity>
-6.09480095

$$$$

 OpenBabel03242515343D

 45 48  0  0  1  0  0  0  0  0999 V2000
   40.1940   30.3450   41.1020 F   0  0  0  0  0  0  0  0  0  0  0  0
   39.0500   31.0410   40.7640 C   0  0  0  0  0  0  0  0  0  0  0  0
   37.8570   30.4870   41.1440 C   0  0  0  0  0  0  0  0  0  0  0  0
   36.7340   31.2250   40.7980 C   0  0  0  0  0  0  0  0  0  0  0  0
   36.8520   32.4220   40.1210 C   0  0  0  0  0  0  0  0  0  0  0  0
   38.1080   32.9370   39.7580 C   0  0  0  0  0  0  0  0  0  0  0  0
   39.2500   32.2030   40.1030 C   0  0  0  0  0  0  0  0  0  0  0  0
   35.7320   30.9150   41.0300 H   0  0  0  0  0  0  0  0  0  0  0  0
   36.0020   33.0350   39.8270 H   0  0  0  0  0  0  0  0  0  0  0  0
   38.2450   33.8720   39.2280 H   0  0  0  0  0  0  0  0  0  0  0  0
   38.2990   28.0760   41.1170 N   0  0  0  0  0  0  0  0  0  0  0  0
   39.3970   27.6330   41.9260 C   0  0  0  0  0  0  0  0  0  0  0  0
   38.7210   27.6790   43.2750 C   0  0  0  0  0  0  0  0  0  0  0  0
   38.2130   29.1290   43.2260 C   0  0  0  0  0  0  0  0  0  0  0  0
   37.6980   29.2080   41.8310 C   0  0  1  0  0  0  0  0  0  0  0  0
   40.2840   28.2710   41.8890 H   0  0  0  0  0  0  0  0  0  0  0  0
   39.6120   26.5590   41.7030 H   0  0  0  0  0  0  0  0  0  0  0  0
   37.8850   26.9740   43.3100 H   0  0  0  0  0  0  0  0  0  0  0  0
   39.4560   27.5500   44.0970 H   0  0  0  0  0  0  0  0  0  0  0  0
   37.4680   29.3330   44.0150 H   0  0  0  0  0  0  0  0  0  0  0  0
   39.1340   29.7490   43.3190 H   0  0  0  0  0  0  0  0  0  0  0  0
   36.6020   28.9420   41.8340 H   0  0  0  0  0  0  0  0  0  0  0  0
   36.2180   26.3890   38.5310 C   0  0  0  0  0  0  0  0  0  0  0  0
   36.6430   26.8160   39.7820 C   0  0  0  0  0  0  0  0  0  0  0  0
   37.7970   27.6030   39.8810 C   0  0  0  0  0  0  0  0  0  0  0  0
   38.4340   27.9040   38.7370 N   0  0  0  0  0  0  0  0  0  0  0  0
   38.0200   27.4900   37.5270 C   0  0  0  0  0  0  0  0  0  0  0  0
   36.8980   26.7230   37.4270 N   0  0  0  0  0  0  0  0  0  0  0  0
   35.3130   25.7830   38.5550 H   0  0  0  0  0  0  0  0  0  0  0  0
   36.1250   26.5700   40.7040 H   0  0  0  0  0  0  0  0  0  0  0  0
   38.5650   27.7560   36.6210 H   0  0  0  0  0  0  0  0  0  0  0  0
   41.0830   32.5170   38.4630 C   0  0  0  0  0  0  0  0  0  0  0  0
   40.5560   32.7310   39.7310 C   0  0  0  0  0  0  0  0  0  0  0  0
   41.3130   33.4680   40.6380 C   0  0  0  0  0  0  0  0  0  0  0  0
   40.9100   33.6370   41.6240 H   0  0  0  0  0  0  0  0  0  0  0  0
   42.5630   33.9950   40.3400 C   0  0  0  0  0  0  0  0  0  0  0  0
   43.1060   34.5610   41.0880 H   0  0  0  0  0  0  0  0  0  0  0  0
   43.0820   33.7810   39.0810 C   0  0  0  0  0  3  0  0  0  0  0  0
   42.3190   33.0450   38.1850 C   0  0  0  0  0  3  0  0  0  0  0  0
   39.5820   32.3240   36.5850 N   0  0  0  0  0  0  0  0  0  0  0  0
   40.3430   31.7550   37.4650 C   0  0  0  0  0  0  0  0  0  0  0  0
   40.4950   30.3430   37.4990 N   0  0  0  0  0  0  0  0  0  0  0  0
   39.1020   31.6690   35.9200 H   0  0  0  0  0  0  0  0  0  0  0  0
   40.1680   29.8820   38.3830 H   0  0  0  0  0  0  0  0  0  0  0  0
   40.7710   29.4040   37.1170 H   0  0  0  0  0  0  0  0  0  0  0  0
  2  1  1  0  0  0  0
  2  3  1  0  0  0  0
  3 15  1  0  0  0  0
  4  8  1  0  0  0  0
  4  3  2  0  0  0  0
  5  4  1  0  0  0  0
  6  7  1  0  0  0  0
  6  5  2  0  0  0  0
  7  2  2  0  0  0  0
  9  5  1  0  0  0  0
 10  6  1  0  0  0  0
 11 15  1  0  0  0  0
 11 12  1  0  0  0  0
 12 13  1  0  0  0  0
 13 18  1  0  0  0  0
 13 19  1  0  0  0  0
 14 13  1  0  0  0  0
 14 21  1  0  0  0  0
 14 20  1  0  0  0  0
 15 22  1  1  0  0  0
 15 14  1  0  0  0  0
 16 12  1  0  0  0  0
 17 12  1  0  0  0  0
 23 29  1  0  0  0  0
 23 24  1  0  0  0  0
 24 25  2  0  0  0  0
 24 30  1  0  0  0  0
 25 11  1  0  0  0  0
 26 25  1  0  0  0  0
 27 26  2  0  0  0  0
 28 27  1  0  0  0  0
 28 23  2  0  0  0  0
 31 27  1  0  0  0  0
 32 33  1  0  0  0  0
 33  7  1  0  0  0  0
 33 34  2  0  0  0  0
 34 35  1  0  0  0  0
 36 34  1  0  0  0  0
 36 37  1  0  0  0  0
 38 36  2  0  0  0  0
 39 32  2  0  0  0  0
 39 38  1  0  0  0  0
 40 41  2  0  0  0  0
 41 42  1  0  0  0  0
 41 32  1  0  0  0  0
 42 44  1  0  0  0  0
 43 40  1  0  0  0  0
 45 42  1  0  0  0  0
M  END
>  <minimizedAffinity>
-6.06461859

$$$$
