
 OpenBabel03242513573D

 39 43  0  0  1  0  0  0  0  0999 V2000
   45.4720   34.4210   44.8210 C   0  0  0  0  0  0  0  0  0  0  0  0
   44.8030   34.1810   43.6190 C   0  0  0  0  0  0  0  0  0  0  0  0
   44.8170   32.8690   43.1500 C   0  0  0  0  0  0  0  0  0  0  0  0
   45.4560   31.9330   43.8600 N   0  0  0  0  0  0  0  0  0  0  0  0
   46.0940   32.1650   45.0090 C   0  0  0  0  0  0  0  0  0  0  0  0
   46.0770   33.4410   45.4570 N   0  0  0  0  0  0  0  0  0  0  0  0
   45.4440   35.4540   45.1610 H   0  0  0  0  0  0  0  0  0  0  0  0
   44.3340   32.5570   42.2290 H   0  0  0  0  0  0  0  0  0  0  0  0
   46.5000   31.1860   47.2180 C   0  0  0  0  0  0  0  0  0  0  0  0
   46.8250   31.2590   45.8840 C   0  0  0  0  0  0  0  0  0  0  0  0
   47.8620   30.4460   45.4770 C   0  0  0  0  0  0  0  0  0  0  0  0
   48.1380   30.4840   44.4280 H   0  0  0  0  0  0  0  0  0  0  0  0
   48.4890   29.6440   46.3800 C   0  0  0  0  0  0  0  0  0  0  0  0
   49.2760   29.0500   45.9800 H   0  0  0  0  0  0  0  0  0  0  0  0
   48.1810   29.5570   47.7100 C   0  0  0  0  0  0  0  0  0  0  0  0
   47.1490   30.3580   48.1440 C   0  0  0  0  0  0  0  0  0  0  0  0
   44.2630   32.3090   48.2060 N   0  0  0  0  0  0  0  0  0  0  0  0
   45.4200   31.9260   47.8450 C   0  0  2  0  0  0  0  0  0  0  0  0
   45.7670   33.0820   48.6280 N   0  0  0  0  0  0  0  0  0  0  0  0
   43.4250   31.7780   47.9040 H   0  0  0  0  0  0  0  0  0  0  0  0
   46.4130   33.8910   48.3800 H   0  0  0  0  0  0  0  0  0  0  0  0
   45.9780   33.9090   49.2610 H   0  0  0  0  0  0  0  0  0  0  0  0
   44.1380   35.1330   42.8700 O   0  0  0  0  0  0  0  0  0  0  0  0
   43.4830   34.8820   41.6720 C   0  0  0  0  0  0  0  0  0  0  0  0
   44.0520   34.4640   40.4760 C   0  0  0  0  0  0  0  0  0  0  0  0
   43.2510   34.2630   39.3790 C   0  0  0  0  0  0  0  0  0  0  0  0
   41.8810   34.4620   39.4180 C   0  0  0  0  0  0  0  0  0  0  0  0
   41.1840   34.2380   38.2920 N   0  0  0  0  0  0  0  0  0  0  0  0
   39.8390   34.4250   38.2960 C   0  0  0  0  0  0  0  0  0  0  0  0
   39.2330   34.8370   39.4550 C   0  0  0  0  0  0  0  0  0  0  0  0
   39.9670   35.0710   40.6320 C   0  0  0  0  0  0  0  0  0  0  0  0
   41.3240   34.8800   40.6190 C   0  0  0  0  0  0  0  0  0  0  0  0
   42.1010   35.0960   41.7520 C   0  0  0  0  0  0  0  0  0  0  0  0
   45.1240   34.3250   40.5030 H   0  0  0  0  0  0  0  0  0  0  0  0
   43.7300   33.9380   38.4680 H   0  0  0  0  0  0  0  0  0  0  0  0
   39.2280   34.2600   37.4210 H   0  0  0  0  0  0  0  0  0  0  0  0
   38.1650   34.9990   39.5070 H   0  0  0  0  0  0  0  0  0  0  0  0
   39.4860   35.3950   41.5400 H   0  0  0  0  0  0  0  0  0  0  0  0
   41.5680   35.4200   42.6350 H   0  0  0  0  0  0  0  0  0  0  0  0
  1  7  1  0  0  0  0
  1  6  1  0  0  0  0
  2  1  2  0  0  0  0
  3  2  1  0  0  0  0
  3  4  2  0  0  0  0
  4  5  1  0  0  0  0
  5  6  2  0  0  0  0
  5 10  1  0  0  0  0
  8  3  1  0  0  0  0
  9 16  1  0  0  0  0
 10  9  2  0  0  0  0
 11 10  1  0  0  0  0
 11 13  2  0  0  0  0
 12 11  1  0  0  0  0
 13 15  1  0  0  0  0
 14 13  1  0  0  0  0
 15 16  2  0  0  0  0
 17 19  1  0  0  0  0
 18  9  1  6  0  0  0
 18 17  1  0  0  0  0
 18 19  1  0  0  0  0
 19 22  1  0  0  0  0
 20 17  1  0  0  0  0
 21 19  1  0  0  0  0
 23  2  1  0  0  0  0
 24 33  1  0  0  0  0
 24 23  1  0  0  0  0
 25 34  1  0  0  0  0
 25 24  2  0  0  0  0
 26 27  2  0  0  0  0
 26 25  1  0  0  0  0
 27 32  1  0  0  0  0
 28 29  2  0  0  0  0
 28 27  1  0  0  0  0
 29 30  1  0  0  0  0
 30 37  1  0  0  0  0
 30 31  2  0  0  0  0
 31 38  1  0  0  0  0
 32 31  1  0  0  0  0
 32 33  2  0  0  0  0
 33 39  1  0  0  0  0
 35 26  1  0  0  0  0
 36 29  1  0  0  0  0
M  END
>  <minimizedAffinity>
-6.82985973

>  <minimizedRMSD>
1.79816568

$$$$
