
 OpenBabel03242513253D

 50 53  0  0  1  0  0  0  0  0999 V2000
   31.7410   29.0880   36.3470 C   0  0  0  0  0  0  0  0  0  0  0  0
   31.5150   28.7750   35.3120 H   0  0  0  0  0  0  0  0  0  0  0  0
   31.2410   28.3620   37.0200 H   0  0  0  0  0  0  0  0  0  0  0  0
   31.1570   30.4380   36.5900 C   0  0  2  0  0  0  0  0  0  0  0  0
   30.4990   30.5550   37.9660 C   0  0  0  0  0  0  0  0  0  0  0  0
   29.7130   31.8260   37.6950 C   0  0  0  0  0  0  0  0  0  0  0  0
   29.2090   31.6590   36.4320 O   0  0  0  0  0  0  0  0  0  0  0  0
   29.9920   30.7750   35.7280 C   0  0  1  0  0  0  0  0  0  0  0  0
   31.9750   31.1570   36.5720 H   0  0  0  0  0  0  0  0  0  0  0  0
   29.7870   29.7180   38.0780 H   0  0  0  0  0  0  0  0  0  0  0  0
   31.2220   30.6740   38.7800 H   0  0  0  0  0  0  0  0  0  0  0  0
   28.9300   31.9930   38.4570 H   0  0  0  0  0  0  0  0  0  0  0  0
   30.4450   32.6540   37.6920 H   0  0  0  0  0  0  0  0  0  0  0  0
   29.3780   29.8670   35.5410 H   0  0  0  0  0  0  0  0  0  0  0  0
   30.4230   31.4020   34.4480 C   0  0  1  0  0  0  0  0  0  0  0  0
   30.2910   30.4300   33.2820 C   0  0  0  0  0  0  0  0  0  0  0  0
   29.7160   31.3260   32.2040 C   0  0  0  0  0  0  0  0  0  0  0  0
   29.8390   32.6370   32.6680 O   0  0  0  0  0  0  0  0  0  0  0  0
   29.4530   32.4910   34.0050 C   0  0  0  0  0  0  0  0  0  0  0  0
   31.4340   31.8400   34.4720 H   0  0  0  0  0  0  0  0  0  0  0  0
   31.2710   30.0190   32.9740 H   0  0  0  0  0  0  0  0  0  0  0  0
   29.5350   29.6840   33.5400 H   0  0  0  0  0  0  0  0  0  0  0  0
   30.3600   31.2400   31.3090 H   0  0  0  0  0  0  0  0  0  0  0  0
   28.6860   31.0620   31.9280 H   0  0  0  0  0  0  0  0  0  0  0  0
   29.5410   33.4170   34.5790 H   0  0  0  0  0  0  0  0  0  0  0  0
   28.4150   32.0890   33.9390 H   0  0  0  0  0  0  0  0  0  0  0  0
   33.6720   28.4270   37.6640 C   0  0  0  0  0  3  0  0  0  0  0  0
   33.2020   29.0190   36.6140 C   0  0  0  0  0  3  0  0  0  0  0  0
   37.2840   28.4060   37.1570 C   0  0  0  0  0  0  0  0  0  0  0  0
   37.7820   28.2580   38.4900 C   0  0  0  0  0  0  0  0  0  0  0  0
   36.8390   28.1720   39.5050 C   0  0  0  0  0  0  0  0  0  0  0  0
   35.5300   28.2340   39.1720 N   0  0  0  0  0  0  0  0  0  0  0  0
   35.0900   28.3750   37.9080 C   0  0  0  0  0  0  0  0  0  0  0  0
   35.9570   28.4600   36.9060 N   0  0  0  0  0  0  0  0  0  0  0  0
   38.0320   28.4720   36.3760 H   0  0  0  0  0  0  0  0  0  0  0  0
   38.8140   28.2490   38.6610 H   0  0  0  0  0  0  0  0  0  0  0  0
   37.1850   29.0740   41.8510 C   0  0  0  0  0  0  0  0  0  0  0  0
   37.1190   28.0720   40.9220 C   0  0  0  0  0  0  0  0  0  0  0  0
   37.3630   26.8140   41.4650 C   0  0  0  0  0  0  0  0  0  0  0  0
   37.3430   25.9200   40.8250 H   0  0  0  0  0  0  0  0  0  0  0  0
   37.6380   26.6050   42.7960 C   0  0  0  0  0  0  0  0  0  0  0  0
   37.8190   25.6080   43.1530 H   0  0  0  0  0  0  0  0  0  0  0  0
   37.6880   27.6610   43.6800 C   0  0  0  0  0  3  0  0  0  0  0  0
   37.4540   28.9280   43.1910 C   0  0  0  0  0  3  0  0  0  0  0  0
   38.2620   30.9680   41.2420 N   0  0  0  0  0  0  0  0  0  0  0  0
   37.0610   30.4470   41.4000 C   0  0  0  0  0  0  0  0  0  0  0  0
   35.7090   30.8820   41.2420 N   0  0  0  0  0  0  0  0  0  0  0  0
   38.3310   31.9650   40.9150 H   0  0  0  0  0  0  0  0  0  0  0  0
   35.0980   31.0320   42.0880 H   0  0  0  0  0  0  0  0  0  0  0  0
   35.2760   31.0670   40.3160 H   0  0  0  0  0  0  0  0  0  0  0  0
  1  4  1  0  0  0  0
  1 28  1  0  0  0  0
  1  3  1  0  0  0  0
  2  1  1  0  0  0  0
  4  9  1  6  0  0  0
  4  5  1  0  0  0  0
  5 10  1  0  0  0  0
  5 11  1  0  0  0  0
  6  5  1  0  0  0  0
  6 12  1  0  0  0  0
  7  6  1  0  0  0  0
  8 14  1  6  0  0  0
  8  7  1  0  0  0  0
  8  4  1  0  0  0  0
 13  6  1  0  0  0  0
 15 20  1  1  0  0  0
 15  8  1  0  0  0  0
 16 22  1  0  0  0  0
 16 15  1  0  0  0  0
 17 18  1  0  0  0  0
 17 16  1  0  0  0  0
 18 19  1  0  0  0  0
 19 15  1  0  0  0  0
 19 25  1  0  0  0  0
 21 16  1  0  0  0  0
 23 17  1  0  0  0  0
 24 17  1  0  0  0  0
 26 19  1  0  0  0  0
 27 33  1  0  0  0  0
 28 27  2  0  0  0  0
 29 30  1  0  0  0  0
 30 36  1  0  0  0  0
 30 31  2  0  0  0  0
 31 38  1  0  0  0  0
 32 31  1  0  0  0  0
 33 32  2  0  0  0  0
 34 29  2  0  0  0  0
 34 33  1  0  0  0  0
 35 29  1  0  0  0  0
 37 44  1  0  0  0  0
 38 39  1  0  0  0  0
 38 37  2  0  0  0  0
 39 41  2  0  0  0  0
 40 39  1  0  0  0  0
 41 42  1  0  0  0  0
 41 43  1  0  0  0  0
 44 43  2  0  0  0  0
 45 46  2  0  0  0  0
 46 37  1  0  0  0  0
 47 46  1  0  0  0  0
 47 49  1  0  0  0  0
 48 45  1  0  0  0  0
 50 47  1  0  0  0  0
M  END
>  <minimizedAffinity>
-6.60314465

$$$$

 OpenBabel03242513253D

 50 53  0  0  1  0  0  0  0  0999 V2000
   36.5770   27.3550   42.5430 C   0  0  0  0  0  0  0  0  0  0  0  0
   36.2710   27.9920   43.3910 H   0  0  0  0  0  0  0  0  0  0  0  0
   35.7010   26.7280   42.2780 H   0  0  0  0  0  0  0  0  0  0  0  0
   37.6860   26.4570   42.9780 C   0  0  2  0  0  0  0  0  0  0  0  0
   38.8960   27.2310   43.5020 C   0  0  0  0  0  0  0  0  0  0  0  0
   39.8920   26.0850   43.4500 C   0  0  0  0  0  0  0  0  0  0  0  0
   39.6320   25.4530   42.2630 O   0  0  0  0  0  0  0  0  0  0  0  0
   38.3350   25.6950   41.8780 C   0  0  1  0  0  0  0  0  0  0  0  0
   37.3140   25.8570   43.8080 H   0  0  0  0  0  0  0  0  0  0  0  0
   39.1820   27.9790   42.7410 H   0  0  0  0  0  0  0  0  0  0  0  0
   38.7550   27.6180   44.5160 H   0  0  0  0  0  0  0  0  0  0  0  0
   40.9340   26.4440   43.5320 H   0  0  0  0  0  0  0  0  0  0  0  0
   39.6390   25.4110   44.2890 H   0  0  0  0  0  0  0  0  0  0  0  0
   38.3740   26.3120   40.9540 H   0  0  0  0  0  0  0  0  0  0  0  0
   37.6410   24.4010   41.6280 C   0  0  1  0  0  0  0  0  0  0  0  0
   36.6310   24.5230   40.4940 C   0  0  0  0  0  0  0  0  0  0  0  0
   36.8690   23.2330   39.7350 C   0  0  0  0  0  0  0  0  0  0  0  0
   37.6650   22.4310   40.5550 O   0  0  0  0  0  0  0  0  0  0  0  0
   38.5890   23.3640   41.0360 C   0  0  0  0  0  0  0  0  0  0  0  0
   37.1690   23.9560   42.5190 H   0  0  0  0  0  0  0  0  0  0  0  0
   35.5920   24.5750   40.8700 H   0  0  0  0  0  0  0  0  0  0  0  0
   36.9330   25.3540   39.8510 H   0  0  0  0  0  0  0  0  0  0  0  0
   35.8960   22.7160   39.6270 H   0  0  0  0  0  0  0  0  0  0  0  0
   37.3000   23.3930   38.7380 H   0  0  0  0  0  0  0  0  0  0  0  0
   39.2850   22.9400   41.7640 H   0  0  0  0  0  0  0  0  0  0  0  0
   39.0750   23.7580   40.1120 H   0  0  0  0  0  0  0  0  0  0  0  0
   36.2210   28.1210   40.2650 C   0  0  0  0  0  3  0  0  0  0  0  0
   36.9160   28.1810   41.3550 C   0  0  0  0  0  3  0  0  0  0  0  0
   36.3300   29.4940   36.8880 C   0  0  0  0  0  0  0  0  0  0  0  0
   37.3140   30.5260   37.0060 C   0  0  0  0  0  0  0  0  0  0  0  0
   37.8960   30.6970   38.2550 C   0  0  0  0  0  0  0  0  0  0  0  0
   37.4980   29.8890   39.2640 N   0  0  0  0  0  0  0  0  0  0  0  0
   36.5680   28.9260   39.1240 C   0  0  0  0  0  0  0  0  0  0  0  0
   35.9880   28.7260   37.9470 N   0  0  0  0  0  0  0  0  0  0  0  0
   35.8860   29.3720   35.9070 H   0  0  0  0  0  0  0  0  0  0  0  0
   37.5400   31.1250   36.1780 H   0  0  0  0  0  0  0  0  0  0  0  0
   38.6790   32.8610   39.3210 C   0  0  0  0  0  0  0  0  0  0  0  0
   38.8680   31.7080   38.6100 C   0  0  0  0  0  0  0  0  0  0  0  0
   40.1870   31.5380   38.1970 C   0  0  0  0  0  0  0  0  0  0  0  0
   40.4750   30.6520   37.6130 H   0  0  0  0  0  0  0  0  0  0  0  0
   41.1900   32.4350   38.4800 C   0  0  0  0  0  0  0  0  0  0  0  0
   42.1880   32.2460   38.1320 H   0  0  0  0  0  0  0  0  0  0  0  0
   40.9300   33.5780   39.2040 C   0  0  0  0  0  3  0  0  0  0  0  0
   39.6390   33.7940   39.6350 C   0  0  0  0  0  3  0  0  0  0  0  0
   36.9370   34.2760   39.0330 N   0  0  0  0  0  0  0  0  0  0  0  0
   37.3300   33.2190   39.7160 C   0  0  0  0  0  0  0  0  0  0  0  0
   36.7760   32.3620   40.7170 N   0  0  0  0  0  0  0  0  0  0  0  0
   35.9720   34.6530   39.2130 H   0  0  0  0  0  0  0  0  0  0  0  0
   37.1460   32.3900   41.7040 H   0  0  0  0  0  0  0  0  0  0  0  0
   36.0060   31.6910   40.5280 H   0  0  0  0  0  0  0  0  0  0  0  0
  1  4  1  0  0  0  0
  1  2  1  0  0  0  0
  3  1  1  0  0  0  0
  4  5  1  0  0  0  0
  4  9  1  1  0  0  0
  5 11  1  0  0  0  0
  6  5  1  0  0  0  0
  6 12  1  0  0  0  0
  6 13  1  0  0  0  0
  7  6  1  0  0  0  0
  8 14  1  6  0  0  0
  8  7  1  0  0  0  0
  8  4  1  0  0  0  0
 10  5  1  0  0  0  0
 15  8  1  0  0  0  0
 15 20  1  1  0  0  0
 16 21  1  0  0  0  0
 16 15  1  0  0  0  0
 17 16  1  0  0  0  0
 17 18  1  0  0  0  0
 18 19  1  0  0  0  0
 19 15  1  0  0  0  0
 19 25  1  0  0  0  0
 22 16  1  0  0  0  0
 23 17  1  0  0  0  0
 24 17  1  0  0  0  0
 26 19  1  0  0  0  0
 27 28  2  0  0  0  0
 28  1  1  0  0  0  0
 29 30  2  0  0  0  0
 29 34  1  0  0  0  0
 30 31  1  0  0  0  0
 31 38  1  0  0  0  0
 31 32  2  0  0  0  0
 33 32  1  0  0  0  0
 33 27  1  0  0  0  0
 34 33  2  0  0  0  0
 35 29  1  0  0  0  0
 36 30  1  0  0  0  0
 37 44  1  0  0  0  0
 37 46  1  0  0  0  0
 38 37  2  0  0  0  0
 39 41  2  0  0  0  0
 39 38  1  0  0  0  0
 40 39  1  0  0  0  0
 41 43  1  0  0  0  0
 42 41  1  0  0  0  0
 43 44  2  0  0  0  0
 45 48  1  0  0  0  0
 45 46  2  0  0  0  0
 46 47  1  0  0  0  0
 47 49  1  0  0  0  0
 50 47  1  0  0  0  0
M  END
>  <minimizedAffinity>
-6.43942118

$$$$

 OpenBabel03242513253D

 50 53  0  0  1  0  0  0  0  0999 V2000
   37.3940   29.7910   37.9720 C   0  0  0  0  0  0  0  0  0  0  0  0
   37.9660   28.8630   38.1500 H   0  0  0  0  0  0  0  0  0  0  0  0
   37.9770   30.3950   37.2470 H   0  0  0  0  0  0  0  0  0  0  0  0
   37.2910   30.5570   39.2490 C   0  0  2  0  0  0  0  0  0  0  0  0
   37.4250   32.0660   39.0410 C   0  0  0  0  0  0  0  0  0  0  0  0
   37.6750   32.4370   40.4920 C   0  0  0  0  0  0  0  0  0  0  0  0
   38.5390   31.4780   40.9520 O   0  0  0  0  0  0  0  0  0  0  0  0
   38.4140   30.3350   40.1980 C   0  0  1  0  0  0  0  0  0  0  0  0
   36.2940   30.3840   39.6540 H   0  0  0  0  0  0  0  0  0  0  0  0
   38.3500   32.2520   38.4670 H   0  0  0  0  0  0  0  0  0  0  0  0
   36.5180   32.5290   38.6400 H   0  0  0  0  0  0  0  0  0  0  0  0
   38.0730   33.4630   40.5900 H   0  0  0  0  0  0  0  0  0  0  0  0
   36.7060   32.3380   41.0140 H   0  0  0  0  0  0  0  0  0  0  0  0
   39.3670   30.2000   39.6410 H   0  0  0  0  0  0  0  0  0  0  0  0
   38.1500   29.1750   41.0940 C   0  0  1  0  0  0  0  0  0  0  0  0
   38.7390   29.3990   42.4810 C   0  0  0  0  0  0  0  0  0  0  0  0
   37.6290   28.8800   43.3710 C   0  0  0  0  0  0  0  0  0  0  0  0
   36.7390   28.1970   42.5390 O   0  0  0  0  0  0  0  0  0  0  0  0
   36.6690   29.0640   41.4430 C   0  0  0  0  0  0  0  0  0  0  0  0
   38.4740   28.2020   40.6900 H   0  0  0  0  0  0  0  0  0  0  0  0
   39.6710   28.8220   42.6320 H   0  0  0  0  0  0  0  0  0  0  0  0
   38.8290   30.4760   42.6470 H   0  0  0  0  0  0  0  0  0  0  0  0
   38.0640   28.1300   44.0580 H   0  0  0  0  0  0  0  0  0  0  0  0
   37.1460   29.6680   43.9630 H   0  0  0  0  0  0  0  0  0  0  0  0
   36.0540   28.6750   40.6280 H   0  0  0  0  0  0  0  0  0  0  0  0
   36.2980   30.0190   41.8830 H   0  0  0  0  0  0  0  0  0  0  0  0
   35.3670   28.4760   37.7280 C   0  0  0  0  0  3  0  0  0  0  0  0
   36.0760   29.4920   37.3540 C   0  0  0  0  0  3  0  0  0  0  0  0
   32.6010   26.7480   36.0950 C   0  0  0  0  0  0  0  0  0  0  0  0
   31.6280   27.7880   35.9530 C   0  0  0  0  0  0  0  0  0  0  0  0
   31.9790   29.0430   36.4310 C   0  0  0  0  0  0  0  0  0  0  0  0
   33.1990   29.1980   36.9930 N   0  0  0  0  0  0  0  0  0  0  0  0
   34.0940   28.2000   37.1140 C   0  0  0  0  0  0  0  0  0  0  0  0
   33.8020   26.9840   36.6700 N   0  0  0  0  0  0  0  0  0  0  0  0
   32.3130   25.7740   35.7170 H   0  0  0  0  0  0  0  0  0  0  0  0
   30.6950   27.5720   35.5310 H   0  0  0  0  0  0  0  0  0  0  0  0
   30.2570   30.6330   37.4010 C   0  0  0  0  0  0  0  0  0  0  0  0
   31.1340   30.2180   36.4370 C   0  0  0  0  0  0  0  0  0  0  0  0
   31.1780   31.0750   35.3410 C   0  0  0  0  0  0  0  0  0  0  0  0
   31.8410   30.8560   34.4920 H   0  0  0  0  0  0  0  0  0  0  0  0
   30.4190   32.2180   35.2430 C   0  0  0  0  0  0  0  0  0  0  0  0
   30.4990   32.8380   34.3690 H   0  0  0  0  0  0  0  0  0  0  0  0
   29.5550   32.5790   36.2540 C   0  0  0  0  0  3  0  0  0  0  0  0
   29.4750   31.7630   37.3620 C   0  0  0  0  0  3  0  0  0  0  0  0
   31.0370   29.8890   39.3890 N   0  0  0  0  0  0  0  0  0  0  0  0
   30.0300   29.7740   38.5480 C   0  0  0  0  0  0  0  0  0  0  0  0
   28.8060   29.0380   38.4830 N   0  0  0  0  0  0  0  0  0  0  0  0
   31.0120   29.3220   40.2750 H   0  0  0  0  0  0  0  0  0  0  0  0
   28.6940   28.2540   37.7870 H   0  0  0  0  0  0  0  0  0  0  0  0
   27.9930   29.2330   39.1000 H   0  0  0  0  0  0  0  0  0  0  0  0
  1  2  1  0  0  0  0
  1  4  1  0  0  0  0
  3  1  1  0  0  0  0
  4  9  1  1  0  0  0
  4  8  1  0  0  0  0
  5  4  1  0  0  0  0
  5  6  1  0  0  0  0
  6 12  1  0  0  0  0
  6  7  1  0  0  0  0
  6 13  1  0  0  0  0
  8 14  1  6  0  0  0
  8  7  1  0  0  0  0
  8 15  1  0  0  0  0
 10  5  1  0  0  0  0
 11  5  1  0  0  0  0
 15 20  1  6  0  0  0
 15 19  1  0  0  0  0
 15 16  1  0  0  0  0
 16 21  1  0  0  0  0
 16 22  1  0  0  0  0
 16 17  1  0  0  0  0
 17 24  1  0  0  0  0
 17 23  1  0  0  0  0
 18 17  1  0  0  0  0
 19 26  1  0  0  0  0
 19 18  1  0  0  0  0
 25 19  1  0  0  0  0
 28 27  2  0  0  0  0
 28  1  1  0  0  0  0
 29 34  1  0  0  0  0
 30 29  2  0  0  0  0
 30 31  1  0  0  0  0
 31 38  1  0  0  0  0
 31 32  2  0  0  0  0
 32 33  1  0  0  0  0
 33 27  1  0  0  0  0
 34 33  2  0  0  0  0
 35 29  1  0  0  0  0
 36 30  1  0  0  0  0
 37 46  1  0  0  0  0
 38 37  2  0  0  0  0
 39 38  1  0  0  0  0
 40 39  1  0  0  0  0
 41 39  2  0  0  0  0
 41 43  1  0  0  0  0
 42 41  1  0  0  0  0
 43 44  2  0  0  0  0
 44 37  1  0  0  0  0
 45 48  1  0  0  0  0
 46 45  2  0  0  0  0
 47 46  1  0  0  0  0
 47 50  1  0  0  0  0
 49 47  1  0  0  0  0
M  END
>  <minimizedAffinity>
-6.41031742

$$$$

 OpenBabel03242513253D

 50 53  0  0  1  0  0  0  0  0999 V2000
   36.5170   28.9250   39.9330 C   0  0  0  0  0  0  0  0  0  0  0  0
   37.4000   28.6300   39.3380 H   0  0  0  0  0  0  0  0  0  0  0  0
   36.6290   30.0050   40.1630 H   0  0  0  0  0  0  0  0  0  0  0  0
   36.5160   28.1670   41.2180 C   0  0  2  0  0  0  0  0  0  0  0  0
   37.0390   28.9980   42.3910 C   0  0  0  0  0  0  0  0  0  0  0  0
   37.2670   27.8460   43.3540 C   0  0  0  0  0  0  0  0  0  0  0  0
   37.8280   26.8590   42.5880 O   0  0  0  0  0  0  0  0  0  0  0  0
   37.4750   27.0320   41.2700 C   0  0  1  0  0  0  0  0  0  0  0  0
   35.4810   27.9170   41.4490 H   0  0  0  0  0  0  0  0  0  0  0  0
   38.0210   29.4160   42.1040 H   0  0  0  0  0  0  0  0  0  0  0  0
   36.3080   29.7220   42.7670 H   0  0  0  0  0  0  0  0  0  0  0  0
   37.9020   28.1460   44.2080 H   0  0  0  0  0  0  0  0  0  0  0  0
   36.2680   27.5220   43.6980 H   0  0  0  0  0  0  0  0  0  0  0  0
   38.4020   27.2860   40.7110 H   0  0  0  0  0  0  0  0  0  0  0  0
   36.8640   25.7770   40.7500 C   0  0  1  0  0  0  0  0  0  0  0  0
   37.5800   25.2890   39.4970 C   0  0  0  0  0  0  0  0  0  0  0  0
   37.6540   23.7980   39.7510 C   0  0  0  0  0  0  0  0  0  0  0  0
   36.8110   23.5360   40.8330 O   0  0  0  0  0  0  0  0  0  0  0  0
   37.1210   24.6010   41.6850 C   0  0  0  0  0  0  0  0  0  0  0  0
   35.7770   25.8370   40.5750 H   0  0  0  0  0  0  0  0  0  0  0  0
   37.0010   25.5060   38.5800 H   0  0  0  0  0  0  0  0  0  0  0  0
   38.5990   25.6840   39.5060 H   0  0  0  0  0  0  0  0  0  0  0  0
   37.2220   23.2790   38.8750 H   0  0  0  0  0  0  0  0  0  0  0  0
   38.6800   23.4370   39.9080 H   0  0  0  0  0  0  0  0  0  0  0  0
   36.5080   24.6170   42.5900 H   0  0  0  0  0  0  0  0  0  0  0  0
   38.2140   24.4810   41.8730 H   0  0  0  0  0  0  0  0  0  0  0  0
   35.2190   27.9930   38.1040 C   0  0  0  0  0  3  0  0  0  0  0  0
   35.2670   28.7580   39.1470 C   0  0  0  0  0  3  0  0  0  0  0  0
   32.5190   26.5680   36.1090 C   0  0  0  0  0  0  0  0  0  0  0  0
   31.6420   27.6840   35.9330 C   0  0  0  0  0  0  0  0  0  0  0  0
   32.0300   28.8830   36.5160 C   0  0  0  0  0  0  0  0  0  0  0  0
   33.1940   28.9150   37.2040 N   0  0  0  0  0  0  0  0  0  0  0  0
   33.9990   27.8470   37.3540 C   0  0  0  0  0  0  0  0  0  0  0  0
   33.6690   26.6810   36.8110 N   0  0  0  0  0  0  0  0  0  0  0  0
   32.2040   25.6390   35.6480 H   0  0  0  0  0  0  0  0  0  0  0  0
   30.7440   27.5620   35.4100 H   0  0  0  0  0  0  0  0  0  0  0  0
   30.4180   30.6000   37.4610 C   0  0  0  0  0  0  0  0  0  0  0  0
   31.2740   30.1170   36.5090 C   0  0  0  0  0  0  0  0  0  0  0  0
   31.3930   30.9640   35.4100 C   0  0  0  0  0  0  0  0  0  0  0  0
   32.0480   30.6930   34.5700 H   0  0  0  0  0  0  0  0  0  0  0  0
   30.7220   32.1590   35.3000 C   0  0  0  0  0  0  0  0  0  0  0  0
   30.8560   32.7670   34.4250 H   0  0  0  0  0  0  0  0  0  0  0  0
   29.8750   32.5870   36.2990 C   0  0  0  0  0  3  0  0  0  0  0  0
   29.7220   31.7830   37.4090 C   0  0  0  0  0  3  0  0  0  0  0  0
   31.1010   29.8420   39.4800 N   0  0  0  0  0  0  0  0  0  0  0  0
   30.1160   29.7640   38.6080 C   0  0  0  0  0  0  0  0  0  0  0  0
   28.8610   29.0850   38.5120 N   0  0  0  0  0  0  0  0  0  0  0  0
   31.0220   29.2860   40.3690 H   0  0  0  0  0  0  0  0  0  0  0  0
   28.7350   28.3000   37.8190 H   0  0  0  0  0  0  0  0  0  0  0  0
   28.0400   29.3230   39.1010 H   0  0  0  0  0  0  0  0  0  0  0  0
  1  3  1  0  0  0  0
  1  4  1  0  0  0  0
  2  1  1  0  0  0  0
  4  8  1  0  0  0  0
  4  9  1  1  0  0  0
  4  5  1  0  0  0  0
  5 11  1  0  0  0  0
  5  6  1  0  0  0  0
  6 13  1  0  0  0  0
  6 12  1  0  0  0  0
  7  6  1  0  0  0  0
  8 14  1  6  0  0  0
  8  7  1  0  0  0  0
 10  5  1  0  0  0  0
 15 20  1  6  0  0  0
 15  8  1  0  0  0  0
 15 19  1  0  0  0  0
 16 22  1  0  0  0  0
 16 17  1  0  0  0  0
 16 15  1  0  0  0  0
 17 24  1  0  0  0  0
 17 18  1  0  0  0  0
 18 19  1  0  0  0  0
 19 26  1  0  0  0  0
 19 25  1  0  0  0  0
 21 16  1  0  0  0  0
 23 17  1  0  0  0  0
 27 28  2  0  0  0  0
 28  1  1  0  0  0  0
 29 34  1  0  0  0  0
 30 29  2  0  0  0  0
 30 31  1  0  0  0  0
 31 32  2  0  0  0  0
 32 33  1  0  0  0  0
 33 27  1  0  0  0  0
 34 33  2  0  0  0  0
 35 29  1  0  0  0  0
 36 30  1  0  0  0  0
 37 46  1  0  0  0  0
 38 31  1  0  0  0  0
 38 37  2  0  0  0  0
 39 38  1  0  0  0  0
 40 39  1  0  0  0  0
 41 39  2  0  0  0  0
 41 43  1  0  0  0  0
 42 41  1  0  0  0  0
 43 44  2  0  0  0  0
 44 37  1  0  0  0  0
 45 48  1  0  0  0  0
 46 45  2  0  0  0  0
 47 46  1  0  0  0  0
 47 50  1  0  0  0  0
 49 47  1  0  0  0  0
M  END
>  <minimizedAffinity>
-6.36852551

$$$$

 OpenBabel03242513253D

 50 53  0  0  1  0  0  0  0  0999 V2000
   37.1510   29.1420   37.9490 C   0  0  0  0  0  0  0  0  0  0  0  0
   37.6510   28.1570   37.9710 H   0  0  0  0  0  0  0  0  0  0  0  0
   37.6900   29.7610   37.2020 H   0  0  0  0  0  0  0  0  0  0  0  0
   37.2850   29.7900   39.2850 C   0  0  2  0  0  0  0  0  0  0  0  0
   36.4710   29.0800   40.3670 C   0  0  0  0  0  0  0  0  0  0  0  0
   36.5190   30.1900   41.4030 C   0  0  0  0  0  0  0  0  0  0  0  0
   36.3160   31.3400   40.6870 O   0  0  0  0  0  0  0  0  0  0  0  0
   36.6900   31.1500   39.3780 C   0  0  1  0  0  0  0  0  0  0  0  0
   38.3310   29.7170   39.5810 H   0  0  0  0  0  0  0  0  0  0  0  0
   35.4320   28.9810   40.0060 H   0  0  0  0  0  0  0  0  0  0  0  0
   36.9380   28.1550   40.7210 H   0  0  0  0  0  0  0  0  0  0  0  0
   35.7720   30.0380   42.2020 H   0  0  0  0  0  0  0  0  0  0  0  0
   37.5450   30.1900   41.8150 H   0  0  0  0  0  0  0  0  0  0  0  0
   35.7670   31.2080   38.7590 H   0  0  0  0  0  0  0  0  0  0  0  0
   37.6660   32.2020   38.9810 C   0  0  1  0  0  0  0  0  0  0  0  0
   37.3470   33.5350   39.6460 C   0  0  0  0  0  0  0  0  0  0  0  0
   38.7280   34.0130   40.0460 C   0  0  0  0  0  0  0  0  0  0  0  0
   39.6410   33.1850   39.3900 O   0  0  0  0  0  0  0  0  0  0  0  0
   39.0480   31.9300   39.5660 C   0  0  0  0  0  0  0  0  0  0  0  0
   37.7810   32.3310   37.8930 H   0  0  0  0  0  0  0  0  0  0  0  0
   36.8710   34.2440   38.9430 H   0  0  0  0  0  0  0  0  0  0  0  0
   36.7810   33.3370   40.5600 H   0  0  0  0  0  0  0  0  0  0  0  0
   38.8680   35.0320   39.6370 H   0  0  0  0  0  0  0  0  0  0  0  0
   38.8770   34.0410   41.1330 H   0  0  0  0  0  0  0  0  0  0  0  0
   39.5890   31.1270   39.0600 H   0  0  0  0  0  0  0  0  0  0  0  0
   38.9900   31.8170   40.6740 H   0  0  0  0  0  0  0  0  0  0  0  0
   35.2460   27.8680   37.1440 C   0  0  0  0  0  3  0  0  0  0  0  0
   35.7420   29.0100   37.4940 C   0  0  0  0  0  3  0  0  0  0  0  0
   32.0900   26.5180   35.9100 C   0  0  0  0  0  0  0  0  0  0  0  0
   31.2520   27.6770   35.8730 C   0  0  0  0  0  0  0  0  0  0  0  0
   31.8230   28.8760   36.2780 C   0  0  0  0  0  0  0  0  0  0  0  0
   33.1150   28.8690   36.6770 N   0  0  0  0  0  0  0  0  0  0  0  0
   33.8800   27.7620   36.7030 C   0  0  0  0  0  0  0  0  0  0  0  0
   33.3750   26.5940   36.3230 N   0  0  0  0  0  0  0  0  0  0  0  0
   31.6310   25.5900   35.5910 H   0  0  0  0  0  0  0  0  0  0  0  0
   30.2520   27.5860   35.5780 H   0  0  0  0  0  0  0  0  0  0  0  0
   30.4320   30.6670   37.4150 C   0  0  0  0  0  0  0  0  0  0  0  0
   31.1480   30.1530   36.3690 C   0  0  0  0  0  0  0  0  0  0  0  0
   31.1980   31.0120   35.2740 C   0  0  0  0  0  0  0  0  0  0  0  0
   31.7390   30.7190   34.3640 H   0  0  0  0  0  0  0  0  0  0  0  0
   30.5930   32.2470   35.2540 C   0  0  0  0  0  0  0  0  0  0  0  0
   30.6680   32.8630   34.3770 H   0  0  0  0  0  0  0  0  0  0  0  0
   29.8880   32.7050   36.3450 C   0  0  0  0  0  3  0  0  0  0  0  0
   29.8080   31.8910   37.4550 C   0  0  0  0  0  3  0  0  0  0  0  0
   28.9830   29.3400   38.5360 N   0  0  0  0  0  0  0  0  0  0  0  0
   30.2060   29.8300   38.5780 C   0  0  0  0  0  0  0  0  0  0  0  0
   31.3320   29.7450   39.4560 N   0  0  0  0  0  0  0  0  0  0  0  0
   28.6740   28.7090   39.3190 H   0  0  0  0  0  0  0  0  0  0  0  0
   31.6220   30.5820   40.0280 H   0  0  0  0  0  0  0  0  0  0  0  0
   31.9000   28.8830   39.5690 H   0  0  0  0  0  0  0  0  0  0  0  0
  1  2  1  0  0  0  0
  1  4  1  0  0  0  0
  3  1  1  0  0  0  0
  4  8  1  0  0  0  0
  4  9  1  1  0  0  0
  4  5  1  0  0  0  0
  5 11  1  0  0  0  0
  5  6  1  0  0  0  0
  6 13  1  0  0  0  0
  6 12  1  0  0  0  0
  7  6  1  0  0  0  0
  8 14  1  6  0  0  0
  8  7  1  0  0  0  0
 10  5  1  0  0  0  0
 15 20  1  6  0  0  0
 15  8  1  0  0  0  0
 15 19  1  0  0  0  0
 15 16  1  0  0  0  0
 16 17  1  0  0  0  0
 16 22  1  0  0  0  0
 17 24  1  0  0  0  0
 18 19  1  0  0  0  0
 18 17  1  0  0  0  0
 19 26  1  0  0  0  0
 21 16  1  0  0  0  0
 23 17  1  0  0  0  0
 25 19  1  0  0  0  0
 27 28  2  0  0  0  0
 28  1  1  0  0  0  0
 29 34  1  0  0  0  0
 30 29  2  0  0  0  0
 30 31  1  0  0  0  0
 31 38  1  0  0  0  0
 31 32  2  0  0  0  0
 32 33  1  0  0  0  0
 33 27  1  0  0  0  0
 34 33  2  0  0  0  0
 35 29  1  0  0  0  0
 36 30  1  0  0  0  0
 37 44  1  0  0  0  0
 37 46  1  0  0  0  0
 38 37  2  0  0  0  0
 39 38  1  0  0  0  0
 40 39  1  0  0  0  0
 41 39  2  0  0  0  0
 41 43  1  0  0  0  0
 42 41  1  0  0  0  0
 43 44  2  0  0  0  0
 45 46  2  0  0  0  0
 45 48  1  0  0  0  0
 46 47  1  0  0  0  0
 47 50  1  0  0  0  0
 47 49  1  0  0  0  0
M  END
>  <minimizedAffinity>
-6.33949518

$$$$

 OpenBabel03242513253D

 50 53  0  0  1  0  0  0  0  0999 V2000
   36.5240   28.6010   39.7120 C   0  0  0  0  0  0  0  0  0  0  0  0
   35.4570   28.8500   39.5750 H   0  0  0  0  0  0  0  0  0  0  0  0
   36.8790   28.1650   38.7560 H   0  0  0  0  0  0  0  0  0  0  0  0
   36.6540   27.5660   40.7790 C   0  0  2  0  0  0  0  0  0  0  0  0
   36.5780   28.1610   42.1860 C   0  0  0  0  0  0  0  0  0  0  0  0
   37.1310   26.9580   42.9320 C   0  0  0  0  0  0  0  0  0  0  0  0
   38.1740   26.5220   42.1590 O   0  0  0  0  0  0  0  0  0  0  0  0
   37.9890   26.9160   40.8550 C   0  0  1  0  0  0  0  0  0  0  0  0
   35.8080   26.8870   40.6800 H   0  0  0  0  0  0  0  0  0  0  0  0
   37.3120   28.9830   42.2520 H   0  0  0  0  0  0  0  0  0  0  0  0
   35.5570   28.4120   42.4940 H   0  0  0  0  0  0  0  0  0  0  0  0
   37.4330   27.2190   43.9620 H   0  0  0  0  0  0  0  0  0  0  0  0
   36.3310   26.1950   42.9350 H   0  0  0  0  0  0  0  0  0  0  0  0
   38.7880   27.6520   40.6160 H   0  0  0  0  0  0  0  0  0  0  0  0
   38.0710   25.7300   39.9590 C   0  0  1  0  0  0  0  0  0  0  0  0
   39.0540   24.6960   40.4940 C   0  0  0  0  0  0  0  0  0  0  0  0
   38.3020   23.4050   40.2480 C   0  0  0  0  0  0  0  0  0  0  0  0
   37.2270   23.7230   39.4150 O   0  0  0  0  0  0  0  0  0  0  0  0
   36.7800   24.9170   39.9900 C   0  0  0  0  0  0  0  0  0  0  0  0
   38.2940   25.9660   38.9060 H   0  0  0  0  0  0  0  0  0  0  0  0
   40.0100   24.7100   39.9380 H   0  0  0  0  0  0  0  0  0  0  0  0
   39.1430   24.8330   41.5750 H   0  0  0  0  0  0  0  0  0  0  0  0
   38.9630   22.7290   39.6730 H   0  0  0  0  0  0  0  0  0  0  0  0
   37.9950   22.9010   41.1730 H   0  0  0  0  0  0  0  0  0  0  0  0
   35.9590   25.3780   39.4350 H   0  0  0  0  0  0  0  0  0  0  0  0
   36.5230   24.6290   41.0360 H   0  0  0  0  0  0  0  0  0  0  0  0
   37.2000   30.8870   39.2470 C   0  0  0  0  0  3  0  0  0  0  0  0
   37.3250   29.8250   39.9760 C   0  0  0  0  0  3  0  0  0  0  0  0
   38.1650   34.3070   40.0680 C   0  0  0  0  0  0  0  0  0  0  0  0
   39.5940   34.2480   40.0090 C   0  0  0  0  0  0  0  0  0  0  0  0
   40.1560   33.0210   39.6850 C   0  0  0  0  0  0  0  0  0  0  0  0
   39.3290   31.9760   39.4520 N   0  0  0  0  0  0  0  0  0  0  0  0
   37.9870   32.0620   39.5170 C   0  0  0  0  0  0  0  0  0  0  0  0
   37.4060   33.2160   39.8210 N   0  0  0  0  0  0  0  0  0  0  0  0
   37.7410   35.2710   40.3220 H   0  0  0  0  0  0  0  0  0  0  0  0
   40.1590   35.0990   40.2340 H   0  0  0  0  0  0  0  0  0  0  0  0
   42.4270   32.8710   38.5640 C   0  0  0  0  0  0  0  0  0  0  0  0
   41.5710   32.7230   39.6200 C   0  0  0  0  0  0  0  0  0  0  0  0
   42.1960   32.2120   40.7550 C   0  0  0  0  0  0  0  0  0  0  0  0
   41.6200   32.0400   41.6760 H   0  0  0  0  0  0  0  0  0  0  0  0
   43.5340   31.8960   40.8040 C   0  0  0  0  0  0  0  0  0  0  0  0
   43.9560   31.5040   41.7110 H   0  0  0  0  0  0  0  0  0  0  0  0
   44.3410   32.0720   39.7020 C   0  0  0  0  0  3  0  0  0  0  0  0
   43.7690   32.5750   38.5520 C   0  0  0  0  0  3  0  0  0  0  0  0
   42.5410   34.3470   36.8530 N   0  0  0  0  0  0  0  0  0  0  0  0
   41.8840   33.2890   37.2850 C   0  0  0  0  0  0  0  0  0  0  0  0
   40.8040   32.4730   36.8240 N   0  0  0  0  0  0  0  0  0  0  0  0
   42.2560   34.7650   35.9310 H   0  0  0  0  0  0  0  0  0  0  0  0
   39.8690   32.5060   37.3100 H   0  0  0  0  0  0  0  0  0  0  0  0
   40.8850   31.8300   36.0120 H   0  0  0  0  0  0  0  0  0  0  0  0
  1 28  1  0  0  0  0
  1  4  1  0  0  0  0
  2  1  1  0  0  0  0
  3  1  1  0  0  0  0
  4  9  1  6  0  0  0
  4  8  1  0  0  0  0
  4  5  1  0  0  0  0
  5 10  1  0  0  0  0
  5 11  1  0  0  0  0
  5  6  1  0  0  0  0
  6 13  1  0  0  0  0
  6 12  1  0  0  0  0
  7  6  1  0  0  0  0
  8 14  1  6  0  0  0
  8  7  1  0  0  0  0
 15 20  1  6  0  0  0
 15 19  1  0  0  0  0
 15 16  1  0  0  0  0
 15  8  1  0  0  0  0
 16 22  1  0  0  0  0
 17 16  1  0  0  0  0
 17 24  1  0  0  0  0
 18 19  1  0  0  0  0
 18 17  1  0  0  0  0
 19 26  1  0  0  0  0
 21 16  1  0  0  0  0
 23 17  1  0  0  0  0
 25 19  1  0  0  0  0
 27 33  1  0  0  0  0
 27 28  2  0  0  0  0
 29 35  1  0  0  0  0
 30 29  1  0  0  0  0
 30 36  1  0  0  0  0
 31 30  2  0  0  0  0
 32 33  2  0  0  0  0
 32 31  1  0  0  0  0
 33 34  1  0  0  0  0
 34 29  2  0  0  0  0
 37 38  1  0  0  0  0
 38 31  1  0  0  0  0
 38 39  2  0  0  0  0
 39 41  1  0  0  0  0
 39 40  1  0  0  0  0
 41 42  1  0  0  0  0
 43 41  2  0  0  0  0
 44 37  2  0  0  0  0
 44 43  1  0  0  0  0
 45 46  2  0  0  0  0
 46 37  1  0  0  0  0
 47 46  1  0  0  0  0
 47 49  1  0  0  0  0
 48 45  1  0  0  0  0
 50 47  1  0  0  0  0
M  END
>  <minimizedAffinity>
-6.19494152

$$$$

 OpenBabel03242513253D

 50 53  0  0  1  0  0  0  0  0999 V2000
   36.4850   27.3990   42.8260 C   0  0  0  0  0  0  0  0  0  0  0  0
   36.1320   27.8670   43.7620 H   0  0  0  0  0  0  0  0  0  0  0  0
   35.7170   26.6560   42.5280 H   0  0  0  0  0  0  0  0  0  0  0  0
   37.7640   26.6780   43.0890 C   0  0  2  0  0  0  0  0  0  0  0  0
   38.9250   27.6300   43.3810 C   0  0  0  0  0  0  0  0  0  0  0  0
   40.0480   26.6250   43.1900 C   0  0  0  0  0  0  0  0  0  0  0  0
   39.6870   25.9070   42.0810 O   0  0  0  0  0  0  0  0  0  0  0  0
   38.3220   25.9560   41.9150 C   0  0  1  0  0  0  0  0  0  0  0  0
   37.6210   26.0750   43.9850 H   0  0  0  0  0  0  0  0  0  0  0  0
   38.9750   28.3710   42.5640 H   0  0  0  0  0  0  0  0  0  0  0  0
   38.9000   28.0430   44.3950 H   0  0  0  0  0  0  0  0  0  0  0  0
   41.0300   27.1220   43.0850 H   0  0  0  0  0  0  0  0  0  0  0  0
   40.0320   25.9640   44.0760 H   0  0  0  0  0  0  0  0  0  0  0  0
   38.1230   26.5280   40.9820 H   0  0  0  0  0  0  0  0  0  0  0  0
   37.7830   24.5710   41.8190 C   0  0  1  0  0  0  0  0  0  0  0  0
   36.6490   24.4870   40.8050 C   0  0  0  0  0  0  0  0  0  0  0  0
   36.9720   23.1870   40.0960 C   0  0  0  0  0  0  0  0  0  0  0  0
   37.9510   22.5500   40.8600 O   0  0  0  0  0  0  0  0  0  0  0  0
   38.7910   23.6230   41.1790 C   0  0  0  0  0  0  0  0  0  0  0  0
   37.4730   24.1340   42.7820 H   0  0  0  0  0  0  0  0  0  0  0  0
   35.6590   24.4340   41.2960 H   0  0  0  0  0  0  0  0  0  0  0  0
   36.7670   25.3020   40.0870 H   0  0  0  0  0  0  0  0  0  0  0  0
   36.0710   22.5460   40.1300 H   0  0  0  0  0  0  0  0  0  0  0  0
   37.2680   23.3300   39.0490 H   0  0  0  0  0  0  0  0  0  0  0  0
   39.6110   23.3410   41.8430 H   0  0  0  0  0  0  0  0  0  0  0  0
   39.1170   24.0090   40.1850 H   0  0  0  0  0  0  0  0  0  0  0  0
   36.7380   28.0530   40.5010 C   0  0  0  0  0  3  0  0  0  0  0  0
   36.5870   28.4050   41.7360 C   0  0  0  0  0  3  0  0  0  0  0  0
   36.2420   29.8690   37.3770 C   0  0  0  0  0  0  0  0  0  0  0  0
   37.1120   30.9940   37.5320 C   0  0  0  0  0  0  0  0  0  0  0  0
   37.8330   31.0690   38.7160 C   0  0  0  0  0  0  0  0  0  0  0  0
   37.6660   30.0890   39.6330 N   0  0  0  0  0  0  0  0  0  0  0  0
   36.8380   29.0420   39.4600 C   0  0  0  0  0  0  0  0  0  0  0  0
   36.1310   28.9290   38.3420 N   0  0  0  0  0  0  0  0  0  0  0  0
   35.6860   29.8240   36.4470 H   0  0  0  0  0  0  0  0  0  0  0  0
   37.1580   31.7230   36.7820 H   0  0  0  0  0  0  0  0  0  0  0  0
   40.0760   32.2410   38.9010 C   0  0  0  0  0  0  0  0  0  0  0  0
   38.7270   32.1400   39.1020 C   0  0  0  0  0  0  0  0  0  0  0  0
   38.1970   33.2380   39.7750 C   0  0  0  0  0  0  0  0  0  0  0  0
   37.1230   33.2830   40.0040 H   0  0  0  0  0  0  0  0  0  0  0  0
   38.9540   34.3100   40.1870 C   0  0  0  0  0  0  0  0  0  0  0  0
   38.4850   35.1270   40.7020 H   0  0  0  0  0  0  0  0  0  0  0  0
   40.3100   34.3480   39.9480 C   0  0  0  0  0  3  0  0  0  0  0  0
   40.8830   33.2840   39.2860 C   0  0  0  0  0  3  0  0  0  0  0  0
   41.0900   30.2500   39.2540 N   0  0  0  0  0  0  0  0  0  0  0  0
   40.7740   31.1150   38.3110 C   0  0  0  0  0  0  0  0  0  0  0  0
   40.9420   31.2170   36.8940 N   0  0  0  0  0  0  0  0  0  0  0  0
   41.6040   29.3760   38.9750 H   0  0  0  0  0  0  0  0  0  0  0  0
   41.6050   31.9300   36.4890 H   0  0  0  0  0  0  0  0  0  0  0  0
   40.4350   30.6140   36.2180 H   0  0  0  0  0  0  0  0  0  0  0  0
  1  4  1  0  0  0  0
  1  2  1  0  0  0  0
  3  1  1  0  0  0  0
  4  5  1  0  0  0  0
  4  9  1  1  0  0  0
  5 11  1  0  0  0  0
  6  5  1  0  0  0  0
  6 13  1  0  0  0  0
  7  6  1  0  0  0  0
  8 14  1  6  0  0  0
  8  7  1  0  0  0  0
  8  4  1  0  0  0  0
 10  5  1  0  0  0  0
 12  6  1  0  0  0  0
 15  8  1  0  0  0  0
 15 20  1  1  0  0  0
 16 21  1  0  0  0  0
 16 15  1  0  0  0  0
 17 23  1  0  0  0  0
 17 16  1  0  0  0  0
 17 18  1  0  0  0  0
 18 19  1  0  0  0  0
 19 15  1  0  0  0  0
 19 25  1  0  0  0  0
 22 16  1  0  0  0  0
 24 17  1  0  0  0  0
 26 19  1  0  0  0  0
 27 28  2  0  0  0  0
 28  1  1  0  0  0  0
 29 30  2  0  0  0  0
 29 34  1  0  0  0  0
 30 31  1  0  0  0  0
 31 38  1  0  0  0  0
 31 32  2  0  0  0  0
 33 32  1  0  0  0  0
 33 27  1  0  0  0  0
 34 33  2  0  0  0  0
 35 29  1  0  0  0  0
 36 30  1  0  0  0  0
 37 38  2  0  0  0  0
 37 44  1  0  0  0  0
 38 39  1  0  0  0  0
 39 40  1  0  0  0  0
 39 41  2  0  0  0  0
 41 42  1  0  0  0  0
 43 41  1  0  0  0  0
 44 43  2  0  0  0  0
 46 37  1  0  0  0  0
 46 45  2  0  0  0  0
 47 46  1  0  0  0  0
 48 45  1  0  0  0  0
 49 47  1  0  0  0  0
 50 47  1  0  0  0  0
M  END
>  <minimizedAffinity>
-6.07151413

$$$$

 OpenBabel03242513253D

 50 53  0  0  1  0  0  0  0  0999 V2000
   36.9950   26.9100   42.9250 C   0  0  0  0  0  0  0  0  0  0  0  0
   37.3160   26.7860   43.9750 H   0  0  0  0  0  0  0  0  0  0  0  0
   35.9020   26.7200   42.8980 H   0  0  0  0  0  0  0  0  0  0  0  0
   37.6740   25.8850   42.0810 C   0  0  2  0  0  0  0  0  0  0  0  0
   36.8040   24.6490   41.8440 C   0  0  0  0  0  0  0  0  0  0  0  0
   37.9070   23.7320   41.3450 C   0  0  0  0  0  0  0  0  0  0  0  0
   38.9670   23.9800   42.1760 O   0  0  0  0  0  0  0  0  0  0  0  0
   38.8540   25.2400   42.7150 C   0  0  1  0  0  0  0  0  0  0  0  0
   37.8530   26.3320   41.1040 H   0  0  0  0  0  0  0  0  0  0  0  0
   36.4570   24.2800   42.8260 H   0  0  0  0  0  0  0  0  0  0  0  0
   36.0210   24.8090   41.0960 H   0  0  0  0  0  0  0  0  0  0  0  0
   37.5920   22.6720   41.3480 H   0  0  0  0  0  0  0  0  0  0  0  0
   38.1550   24.0670   40.3220 H   0  0  0  0  0  0  0  0  0  0  0  0
   38.6840   25.1180   43.8080 H   0  0  0  0  0  0  0  0  0  0  0  0
   40.1020   26.0080   42.4510 C   0  0  1  0  0  0  0  0  0  0  0  0
   40.5290   26.8110   43.6730 C   0  0  0  0  0  0  0  0  0  0  0  0
   42.0270   26.5830   43.6790 C   0  0  0  0  0  0  0  0  0  0  0  0
   42.3460   26.0070   42.4480 O   0  0  0  0  0  0  0  0  0  0  0  0
   41.3060   25.0830   42.3010 C   0  0  0  0  0  0  0  0  0  0  0  0
   40.0610   26.6550   41.5600 H   0  0  0  0  0  0  0  0  0  0  0  0
   40.2930   27.8860   43.5640 H   0  0  0  0  0  0  0  0  0  0  0  0
   40.1120   26.3330   44.5630 H   0  0  0  0  0  0  0  0  0  0  0  0
   42.5230   27.5720   43.7080 H   0  0  0  0  0  0  0  0  0  0  0  0
   42.3690   25.9880   44.5350 H   0  0  0  0  0  0  0  0  0  0  0  0
   41.3360   24.5540   41.3450 H   0  0  0  0  0  0  0  0  0  0  0  0
   41.4080   24.4240   43.1940 H   0  0  0  0  0  0  0  0  0  0  0  0
   37.3120   28.5930   41.2040 C   0  0  0  0  0  3  0  0  0  0  0  0
   37.2230   28.3030   42.4610 C   0  0  0  0  0  3  0  0  0  0  0  0
   36.7610   32.0690   40.2450 C   0  0  0  0  0  0  0  0  0  0  0  0
   38.0840   32.5190   39.9400 C   0  0  0  0  0  0  0  0  0  0  0  0
   39.1090   31.5930   40.0810 C   0  0  0  0  0  0  0  0  0  0  0  0
   38.7930   30.3440   40.4940 N   0  0  0  0  0  0  0  0  0  0  0  0
   37.5370   29.9490   40.7740 C   0  0  0  0  0  0  0  0  0  0  0  0
   36.5260   30.8010   40.6520 N   0  0  0  0  0  0  0  0  0  0  0  0
   35.9720   32.8030   40.1310 H   0  0  0  0  0  0  0  0  0  0  0  0
   38.2420   33.5140   39.6560 H   0  0  0  0  0  0  0  0  0  0  0  0
   41.2320   31.8210   38.7110 C   0  0  0  0  0  0  0  0  0  0  0  0
   40.5190   31.8450   39.8780 C   0  0  0  0  0  0  0  0  0  0  0  0
   41.3050   32.1570   40.9850 C   0  0  0  0  0  0  0  0  0  0  0  0
   40.8560   32.2070   41.9870 H   0  0  0  0  0  0  0  0  0  0  0  0
   42.6530   32.4160   40.9060 C   0  0  0  0  0  0  0  0  0  0  0  0
   43.2040   32.6500   41.7980 H   0  0  0  0  0  0  0  0  0  0  0  0
   43.3090   32.3760   39.6950 C   0  0  0  0  0  3  0  0  0  0  0  0
   42.5750   32.0700   38.5690 C   0  0  0  0  0  3  0  0  0  0  0  0
   40.7740   30.1150   37.2980 N   0  0  0  0  0  0  0  0  0  0  0  0
   40.5580   31.4000   37.4970 C   0  0  0  0  0  0  0  0  0  0  0  0
   39.8470   32.4510   36.8380 N   0  0  0  0  0  0  0  0  0  0  0  0
   40.3450   29.6650   36.4490 H   0  0  0  0  0  0  0  0  0  0  0  0
   40.3740   33.2280   36.3580 H   0  0  0  0  0  0  0  0  0  0  0  0
   38.8100   32.4980   36.7990 H   0  0  0  0  0  0  0  0  0  0  0  0
  1  2  1  0  0  0  0
  3  1  1  0  0  0  0
  4  9  1  6  0  0  0
  4  8  1  0  0  0  0
  4  1  1  0  0  0  0
  5  4  1  0  0  0  0
  5 10  1  0  0  0  0
  6 12  1  0  0  0  0
  6  5  1  0  0  0  0
  6  7  1  0  0  0  0
  7  8  1  0  0  0  0
  8 14  1  1  0  0  0
 11  5  1  0  0  0  0
 13  6  1  0  0  0  0
 15 20  1  6  0  0  0
 15  8  1  0  0  0  0
 15 16  1  0  0  0  0
 16 17  1  0  0  0  0
 16 22  1  0  0  0  0
 17 23  1  0  0  0  0
 17 24  1  0  0  0  0
 18 17  1  0  0  0  0
 19 18  1  0  0  0  0
 19 15  1  0  0  0  0
 19 26  1  0  0  0  0
 21 16  1  0  0  0  0
 25 19  1  0  0  0  0
 27 28  2  0  0  0  0
 28  1  1  0  0  0  0
 29 34  1  0  0  0  0
 30 31  1  0  0  0  0
 30 29  2  0  0  0  0
 31 32  2  0  0  0  0
 32 33  1  0  0  0  0
 33 27  1  0  0  0  0
 34 33  2  0  0  0  0
 35 29  1  0  0  0  0
 36 30  1  0  0  0  0
 37 38  1  0  0  0  0
 38 31  1  0  0  0  0
 38 39  2  0  0  0  0
 39 40  1  0  0  0  0
 41 39  1  0  0  0  0
 41 42  1  0  0  0  0
 43 41  2  0  0  0  0
 44 37  2  0  0  0  0
 44 43  1  0  0  0  0
 45 46  2  0  0  0  0
 46 37  1  0  0  0  0
 47 46  1  0  0  0  0
 48 45  1  0  0  0  0
 49 47  1  0  0  0  0
 50 47  1  0  0  0  0
M  END
>  <minimizedAffinity>
-5.96236038

$$$$

 OpenBabel03242513253D

 50 53  0  0  1  0  0  0  0  0999 V2000
   33.9820   28.9110   38.6940 C   0  0  0  0  0  0  0  0  0  0  0  0
   33.4680   28.0790   39.2090 H   0  0  0  0  0  0  0  0  0  0  0  0
   33.3390   29.8080   38.8090 H   0  0  0  0  0  0  0  0  0  0  0  0
   34.0950   28.5940   37.2410 C   0  0  2  0  0  0  0  0  0  0  0  0
   35.4080   29.0900   36.6320 C   0  0  0  0  0  0  0  0  0  0  0  0
   35.0000   28.9700   35.1740 C   0  0  0  0  0  0  0  0  0  0  0  0
   33.7150   29.4440   35.1340 O   0  0  0  0  0  0  0  0  0  0  0  0
   33.1290   29.3150   36.3710 C   0  0  1  0  0  0  0  0  0  0  0  0
   34.0940   27.5090   37.1420 H   0  0  0  0  0  0  0  0  0  0  0  0
   35.5180   30.1600   36.8790 H   0  0  0  0  0  0  0  0  0  0  0  0
   36.2650   28.4560   36.8810 H   0  0  0  0  0  0  0  0  0  0  0  0
   35.6880   29.5220   34.5090 H   0  0  0  0  0  0  0  0  0  0  0  0
   35.0000   27.8900   34.9350 H   0  0  0  0  0  0  0  0  0  0  0  0
   32.9530   30.3420   36.7610 H   0  0  0  0  0  0  0  0  0  0  0  0
   31.8480   28.5670   36.2400 C   0  0  1  0  0  0  0  0  0  0  0  0
   30.9910   29.1270   35.1120 C   0  0  0  0  0  0  0  0  0  0  0  0
   30.4770   27.8590   34.4620 C   0  0  0  0  0  0  0  0  0  0  0  0
   30.7790   26.8130   35.3370 O   0  0  0  0  0  0  0  0  0  0  0  0
   32.0800   27.1500   35.7270 C   0  0  0  0  0  0  0  0  0  0  0  0
   31.2630   28.4960   37.1710 H   0  0  0  0  0  0  0  0  0  0  0  0
   30.1550   29.7420   35.4950 H   0  0  0  0  0  0  0  0  0  0  0  0
   31.6480   29.6300   34.3970 H   0  0  0  0  0  0  0  0  0  0  0  0
   29.3740   27.9250   34.4100 H   0  0  0  0  0  0  0  0  0  0  0  0
   30.8730   27.7010   33.4500 H   0  0  0  0  0  0  0  0  0  0  0  0
   32.4900   26.4720   36.4790 H   0  0  0  0  0  0  0  0  0  0  0  0
   32.6480   27.1680   34.7670 H   0  0  0  0  0  0  0  0  0  0  0  0
   35.4150   29.2560   40.6250 C   0  0  0  0  0  3  0  0  0  0  0  0
   35.2880   29.2060   39.3380 C   0  0  0  0  0  3  0  0  0  0  0  0
   38.2130   29.3280   42.9630 C   0  0  0  0  0  0  0  0  0  0  0  0
   39.1520   30.1760   42.2950 C   0  0  0  0  0  0  0  0  0  0  0  0
   38.7690   30.6850   41.0620 C   0  0  0  0  0  0  0  0  0  0  0  0
   37.5510   30.3490   40.5790 N   0  0  0  0  0  0  0  0  0  0  0  0
   36.6880   29.5470   41.2300 C   0  0  0  0  0  0  0  0  0  0  0  0
   37.0120   29.0400   42.4130 N   0  0  0  0  0  0  0  0  0  0  0  0
   38.5260   28.9390   43.9250 H   0  0  0  0  0  0  0  0  0  0  0  0
   40.0860   30.3600   42.7290 H   0  0  0  0  0  0  0  0  0  0  0  0
   39.4710   32.8580   39.9560 C   0  0  0  0  0  0  0  0  0  0  0  0
   39.5770   31.5150   40.1940 C   0  0  0  0  0  0  0  0  0  0  0  0
   40.6140   30.9200   39.4810 C   0  0  0  0  0  0  0  0  0  0  0  0
   40.8070   29.8420   39.5790 H   0  0  0  0  0  0  0  0  0  0  0  0
   41.4430   31.6130   38.6300 C   0  0  0  0  0  0  0  0  0  0  0  0
   42.2250   31.0950   38.1080 H   0  0  0  0  0  0  0  0  0  0  0  0
   41.2810   32.9680   38.4380 C   0  0  0  0  0  3  0  0  0  0  0  0
   40.2670   33.6050   39.1210 C   0  0  0  0  0  3  0  0  0  0  0  0
   38.8090   34.3490   41.5230 N   0  0  0  0  0  0  0  0  0  0  0  0
   38.3620   33.5810   40.5490 C   0  0  0  0  0  0  0  0  0  0  0  0
   37.0970   33.2920   39.9480 N   0  0  0  0  0  0  0  0  0  0  0  0
   38.1140   34.9370   42.0490 H   0  0  0  0  0  0  0  0  0  0  0  0
   36.6470   32.3490   40.0870 H   0  0  0  0  0  0  0  0  0  0  0  0
   36.5770   33.9750   39.3640 H   0  0  0  0  0  0  0  0  0  0  0  0
  1  3  1  0  0  0  0
  1  2  1  0  0  0  0
  1 28  1  0  0  0  0
  4  9  1  6  0  0  0
  4  1  1  0  0  0  0
  5 10  1  0  0  0  0
  5 11  1  0  0  0  0
  5  4  1  0  0  0  0
  6  5  1  0  0  0  0
  7  6  1  0  0  0  0
  7  8  1  0  0  0  0
  8 14  1  1  0  0  0
  8  4  1  0  0  0  0
 12  6  1  0  0  0  0
 13  6  1  0  0  0  0
 15  8  1  0  0  0  0
 15 20  1  1  0  0  0
 16 21  1  0  0  0  0
 16 15  1  0  0  0  0
 17 16  1  0  0  0  0
 17 18  1  0  0  0  0
 18 19  1  0  0  0  0
 19 15  1  0  0  0  0
 19 25  1  0  0  0  0
 22 16  1  0  0  0  0
 23 17  1  0  0  0  0
 24 17  1  0  0  0  0
 26 19  1  0  0  0  0
 27 33  1  0  0  0  0
 28 27  2  0  0  0  0
 29 35  1  0  0  0  0
 30 36  1  0  0  0  0
 30 29  2  0  0  0  0
 31 30  1  0  0  0  0
 32 31  2  0  0  0  0
 32 33  1  0  0  0  0
 33 34  2  0  0  0  0
 34 29  1  0  0  0  0
 37 38  1  0  0  0  0
 37 46  1  0  0  0  0
 38 31  1  0  0  0  0
 39 40  1  0  0  0  0
 39 38  2  0  0  0  0
 41 39  1  0  0  0  0
 42 41  1  0  0  0  0
 43 41  2  0  0  0  0
 43 44  1  0  0  0  0
 44 37  2  0  0  0  0
 45 48  1  0  0  0  0
 46 45  2  0  0  0  0
 47 49  1  0  0  0  0
 47 46  1  0  0  0  0
 50 47  1  0  0  0  0
M  END
>  <minimizedAffinity>
-5.87424135

$$$$
