
 OpenBabel03242519063D

 48 51  0  0  1  0  0  0  0  0999 V2000
   48.6540   31.5470   37.6260 C   0  0  0  0  0  0  0  0  0  0  0  0
   48.7170   32.7530   38.3420 C   0  0  0  0  0  0  0  0  0  0  0  0
   48.4110   33.8450   37.5780 C   0  0  0  0  0  0  0  0  0  0  0  0
   48.0720   33.8390   36.2550 C   0  0  0  0  0  0  0  0  0  0  0  0
   48.0230   32.6280   35.5930 C   0  0  0  0  0  0  0  0  0  0  0  0
   48.3210   31.4820   36.3080 C   0  0  0  0  0  0  0  0  0  0  0  0
   48.4290   34.8320   38.0290 H   0  0  0  0  0  0  0  0  0  0  0  0
   47.8380   34.7490   35.7000 H   0  0  0  0  0  0  0  0  0  0  0  0
   47.7660   32.5150   34.5490 H   0  0  0  0  0  0  0  0  0  0  0  0
   49.4240   29.9430   34.8800 C   0  0  0  0  0  0  0  0  0  0  0  0
   48.2750   30.1920   35.6230 C   0  0  0  0  0  0  0  0  0  0  0  0
   47.2470   29.2770   35.6640 C   0  0  0  0  0  0  0  0  0  0  0  0
   46.3980   29.5590   36.2680 H   0  0  0  0  0  0  0  0  0  0  0  0
   47.3100   28.0900   34.9790 C   0  0  0  0  0  0  0  0  0  0  0  0
   46.4960   27.3800   35.0180 H   0  0  0  0  0  0  0  0  0  0  0  0
   48.4450   27.8410   34.2410 C   0  0  0  0  0  3  0  0  0  0  0  0
   49.4860   28.7340   34.1830 C   0  0  0  0  0  3  0  0  0  0  0  0
   50.7500   31.6090   33.7500 N   0  0  0  0  0  0  0  0  0  0  0  0
   50.5740   30.8330   34.7620 C   0  0  0  0  0  0  0  0  0  0  0  0
   51.5490   30.8560   35.7980 N   0  0  0  0  0  0  0  0  0  0  0  0
   51.6020   32.2100   33.7540 H   0  0  0  0  0  0  0  0  0  0  0  0
   51.2560   31.0990   36.7890 H   0  0  0  0  0  0  0  0  0  0  0  0
   52.5090   30.7530   36.1710 H   0  0  0  0  0  0  0  0  0  0  0  0
   49.0580   32.8630   39.7130 N   0  0  0  0  0  0  0  0  0  0  0  0
   50.0850   32.9410   39.9740 H   0  0  0  0  0  0  0  0  0  0  0  0
   47.5700   33.9250   42.7730 N   0  0  0  0  0  0  0  0  0  0  0  0
   48.0600   34.2700   41.4560 C   0  0  0  0  0  0  0  0  0  0  0  0
   48.2180   32.8900   40.8910 C   0  0  2  0  0  0  0  0  0  0  0  0
   49.0060   32.2250   42.0070 C   0  0  0  0  0  0  0  0  0  0  0  0
   48.3920   32.8230   43.2470 C   0  0  0  0  0  0  0  0  0  0  0  0
   47.3520   34.9140   40.9050 H   0  0  0  0  0  0  0  0  0  0  0  0
   49.0590   34.7350   41.5900 H   0  0  0  0  0  0  0  0  0  0  0  0
   47.2420   32.4210   40.7560 H   0  0  0  0  0  0  0  0  0  0  0  0
   50.0690   32.5260   41.9600 H   0  0  0  0  0  0  0  0  0  0  0  0
   48.9510   31.1220   41.9760 H   0  0  0  0  0  0  0  0  0  0  0  0
   47.7070   32.0760   43.6920 H   0  0  0  0  0  0  0  0  0  0  0  0
   49.1770   33.1630   43.9520 H   0  0  0  0  0  0  0  0  0  0  0  0
   44.7400   36.0190   43.9790 C   0  0  0  0  0  0  0  0  0  0  0  0
   45.7550   35.5630   43.1380 C   0  0  0  0  0  0  0  0  0  0  0  0
   46.5280   34.4730   43.5260 C   0  0  0  0  0  0  0  0  0  0  0  0
   46.2310   33.9130   44.7360 N   0  0  0  0  0  0  0  0  0  0  0  0
   45.2560   34.3450   45.5510 C   0  0  0  0  0  0  0  0  0  0  0  0
   44.5040   35.4100   45.1670 N   0  0  0  0  0  0  0  0  0  0  0  0
   44.1730   36.8690   43.6220 H   0  0  0  0  0  0  0  0  0  0  0  0
   46.0150   35.9810   42.1790 H   0  0  0  0  0  0  0  0  0  0  0  0
   45.1260   33.8190   46.4730 H   0  0  0  0  0  0  0  0  0  0  0  0
   49.2230   29.3820   38.9900 N   0  0  0  0  0  0  0  0  0  0  0  0
   48.9690   30.3320   38.3780 C   0  0  0  0  0  0  0  0  0  0  0  0
  1  2  1  0  0  0  0
  1 48  1  0  0  0  0
  2 24  1  0  0  0  0
  3  7  1  0  0  0  0
  3  2  2  0  0  0  0
  4  3  1  0  0  0  0
  5  4  2  0  0  0  0
  5  6  1  0  0  0  0
  6  1  2  0  0  0  0
  8  4  1  0  0  0  0
  9  5  1  0  0  0  0
 10 11  1  0  0  0  0
 11 12  2  0  0  0  0
 11  6  1  0  0  0  0
 12 13  1  0  0  0  0
 14 15  1  0  0  0  0
 14 12  1  0  0  0  0
 16 14  2  0  0  0  0
 17 16  1  0  0  0  0
 17 10  2  0  0  0  0
 18 21  1  0  0  0  0
 18 19  2  0  0  0  0
 19 10  1  0  0  0  0
 19 20  1  0  0  0  0
 20 23  1  0  0  0  0
 20 22  1  0  0  0  0
 24 25  1  0  0  0  0
 24 28  1  0  0  0  0
 26 30  1  0  0  0  0
 26 40  1  0  0  0  0
 27 32  1  0  0  0  0
 27 26  1  0  0  0  0
 28 33  1  6  0  0  0
 28 27  1  0  0  0  0
 28 29  1  0  0  0  0
 29 30  1  0  0  0  0
 30 36  1  0  0  0  0
 30 37  1  0  0  0  0
 31 27  1  0  0  0  0
 34 29  1  0  0  0  0
 35 29  1  0  0  0  0
 38 43  1  0  0  0  0
 39 40  1  0  0  0  0
 39 38  2  0  0  0  0
 40 41  2  0  0  0  0
 41 42  1  0  0  0  0
 42 46  1  0  0  0  0
 43 42  2  0  0  0  0
 44 38  1  0  0  0  0
 45 39  1  0  0  0  0
 48 47  3  0  0  0  0
M  END
>  <minimizedAffinity>
-4.79726028

>  <minimizedRMSD>
1.91325939

$$$$
