
     RDKit          3D

 48 51  0  0  0  0  0  0  0  0999 V2000
   43.7633   34.6068   40.5380 C   0  0  0  0  0  0  0  0  0  0  0  0
   43.7665   33.7861   39.4696 C   0  0  0  0  0  0  0  0  0  0  0  0
   44.9900   33.1668   39.1902 C   0  0  0  0  0  0  0  0  0  0  0  0
   46.0732   33.4039   39.9619 N   0  0  0  0  0  0  0  0  0  0  0  0
   46.0282   34.2234   41.0075 C   0  0  0  0  0  0  0  0  0  0  0  0
   44.8626   34.7995   41.2587 N   0  0  0  0  0  0  0  0  0  0  0  0
   45.0889   32.2531   38.0772 N   0  0  0  0  0  0  0  0  0  0  0  0
   42.7358   33.3813   38.4564 C   0  0  0  0  0  0  0  0  0  0  0  0
   42.1729   35.4033   40.9375 S   0  0  0  0  0  0  0  0  0  0  0  0
   39.7264   34.6036   40.2551 C   0  0  0  0  0  0  0  0  0  0  0  0
   40.8689   34.1779   40.9360 C   0  0  0  0  0  0  0  0  0  0  0  0
   40.9259   32.9283   41.5157 C   0  0  0  0  0  0  0  0  0  0  0  0
   39.8611   32.0687   41.4384 C   0  0  0  0  0  0  0  0  0  0  0  0
   38.7257   32.4790   40.7671 C   0  0  0  0  0  0  0  0  0  0  0  0
   38.6335   33.7105   40.1809 C   0  0  0  0  0  0  0  0  0  0  0  0
   37.8029   31.4090   40.8437 O   0  0  0  0  0  0  0  0  0  0  0  0
   38.3016   30.4770   41.7458 C   0  0  2  0  0  0  0  0  0  0  0  0
   39.6464   30.7782   41.9181 O   0  0  0  0  0  0  0  0  0  0  0  0
   47.0897   34.5091   41.8298 O   0  0  0  0  0  0  0  0  0  0  0  0
   48.3032   34.9141   41.2296 C   0  0  0  0  0  0  0  0  0  0  0  0
   49.2998   34.0115   41.4284 F   0  0  0  0  0  0  0  0  0  0  0  0
   48.0203   35.1127   39.8608 F   0  0  0  0  0  0  0  0  0  0  0  0
   48.6842   36.1231   41.8117 F   0  0  0  0  0  0  0  0  0  0  0  0
   45.1313   32.5292   37.0732 H   0  0  0  0  0  0  0  0  0  0  0  0
   45.1353   31.2116   38.0313 H   0  0  0  0  0  0  0  0  0  0  0  0
   42.3642   32.3819   38.7577 H   0  0  0  0  0  0  0  0  0  0  0  0
   41.9202   34.1450   38.4180 H   0  0  0  0  0  0  0  0  0  0  0  0
   43.1634   33.3910   37.4270 H   0  0  0  0  0  0  0  0  0  0  0  0
   39.6049   35.5485   39.7837 H   0  0  0  0  0  0  0  0  0  0  0  0
   41.8488   32.6862   42.0213 H   0  0  0  0  0  0  0  0  0  0  0  0
   37.7412   34.0399   39.6493 H   0  0  0  0  0  0  0  0  0  0  0  0
   37.7473   30.4771   42.7233 H   0  0  0  0  0  0  0  0  0  0  0  0
   39.1550   30.6286   38.1690 N   0  0  0  0  0  0  0  0  0  0  0  0
   38.9353   29.6348   38.9230 C   0  0  0  0  0  0  0  0  0  0  0  0
   40.0656   29.1444   38.1579 N   0  0  0  0  0  0  0  0  0  0  0  0
   38.4446   28.6972   39.9133 C   0  0  0  0  0  0  0  0  0  0  0  0
   38.1557   29.1243   41.1718 C   0  0  0  0  0  0  0  0  0  0  0  0
   37.6604   28.1733   42.0726 C   0  0  0  0  0  0  0  0  0  0  0  0
   37.3897   28.3886   43.1122 H   0  0  0  0  0  0  0  0  0  0  0  0
   37.5162   26.8978   41.5894 C   0  0  0  0  0  0  0  0  0  0  0  0
   37.1318   26.1435   42.2766 H   0  0  0  0  0  0  0  0  0  0  0  0
   37.8042   26.4480   40.3187 C   0  0  0  0  0  0  0  0  0  0  0  0
   38.2840   27.3995   39.4679 C   0  0  0  0  0  0  0  0  0  0  0  0
   38.7010   31.5294   38.0846 H   0  0  0  0  0  0  0  0  0  0  0  0
   40.1110   28.3191   37.5014 H   0  0  0  0  0  0  0  0  0  0  0  0
   40.9518   28.8894   37.6605 H   0  0  0  0  0  0  0  0  0  0  0  0
   37.6659   25.4293   40.0116 H   0  0  0  0  0  0  0  0  0  0  0  0
   38.5284   27.1118   38.4558 H   0  0  0  0  0  0  0  0  0  0  0  0
  1  9  1  0
  1  6  1  0
  2  1  2  0
  3  2  1  0
  3  4  2  0
  4  5  1  0
  5  6  2  0
  5 19  1  0
  7  3  1  0
  8  2  1  0
  9 11  1  0
 10 11  2  0
 11 12  1  0
 13 12  2  0
 13 18  1  0
 14 16  1  0
 14 13  1  0
 15 10  1  0
 15 14  2  0
 16 17  1  0
 17 18  1  0
 20 21  1  0
 20 23  1  0
 20 19  1  0
 22 20  1  0
  7 24  1  0
  7 25  1  0
  8 26  1  0
  8 27  1  0
  8 28  1  0
 10 29  1  0
 12 30  1  0
 15 31  1  0
 17 32  1  1
 33 34  2  3
 34 35  1  0
 34 36  1  0
 36 37  2  0
 37 38  1  0
 38 39  1  0
 38 40  2  0
 40 41  1  0
 40 42  1  0
 42 43  2  0
 43 36  1  0
 33 44  1  0
 35 45  1  0
 35 46  1  0
 42 47  1  0
 43 48  1  0
 17 37  1  0
M  ISO  8  26   8  27   8  28   8  29  14  30  14  31  14  32  13  39  15
M  ISO  1  41  16
M  END
>  <DihAtoms>  (1) 
15,16,36,35

>  <DihDeg>  (1) 
135.2842310253111

$$$$
