
 OpenBabel03252506323D

 37 39  0  0  1  0  0  0  0  0999 V2000
   44.5630   35.7200   44.8890 C   0  0  0  0  0  0  0  0  0  0  0  0
   44.6590   35.3820   43.5190 C   0  0  0  0  0  0  0  0  0  0  0  0
   45.1070   34.1090   43.1610 C   0  0  0  0  0  0  0  0  0  0  0  0
   45.4270   33.2690   44.1760 N   0  0  0  0  0  0  0  0  0  0  0  0
   45.3250   33.6240   45.4730 C   0  0  0  0  0  0  0  0  0  0  0  0
   44.9000   34.8310   45.8440 N   0  0  0  0  0  0  0  0  0  0  0  0
   45.7080   32.6380   46.4250 N   0  0  0  0  0  0  0  0  0  0  0  0
   45.3790   32.7360   47.8590 C   0  0  0  0  0  0  0  0  0  0  0  0
   46.5670   32.0880   48.4860 C   0  0  0  0  0  0  0  0  0  0  0  0
   47.4590   31.5620   47.3540 C   0  0  0  0  0  0  0  0  0  0  0  0
   46.4300   31.4230   46.2970 C   0  0  2  0  0  0  0  0  0  0  0  0
   44.2210   36.6920   45.2150 H   0  0  0  0  0  0  0  0  0  0  0  0
   45.1650   33.8910   42.1110 H   0  0  0  0  0  0  0  0  0  0  0  0
   45.3750   33.8130   48.1280 H   0  0  0  0  0  0  0  0  0  0  0  0
   44.4170   32.2350   48.0760 H   0  0  0  0  0  0  0  0  0  0  0  0
   47.1210   32.7240   49.2000 H   0  0  0  0  0  0  0  0  0  0  0  0
   46.2500   31.2000   49.1080 H   0  0  0  0  0  0  0  0  0  0  0  0
   48.1870   32.3810   47.2500 H   0  0  0  0  0  0  0  0  0  0  0  0
   47.9260   30.6040   47.6630 H   0  0  0  0  0  0  0  0  0  0  0  0
   45.7000   30.6500   46.7610 H   0  0  0  0  0  0  0  0  0  0  0  0
   46.1020   29.9460   44.2880 C   0  0  0  0  0  0  0  0  0  0  0  0
   46.7960   30.8760   45.0340 C   0  0  0  0  0  0  0  0  0  0  0  0
   47.9880   31.2350   44.3790 C   0  0  0  0  0  0  0  0  0  0  0  0
   48.6440   31.9750   44.8640 H   0  0  0  0  0  0  0  0  0  0  0  0
   48.4040   30.7370   43.1760 C   0  0  0  0  0  0  0  0  0  0  0  0
   49.3380   31.0780   42.7590 H   0  0  0  0  0  0  0  0  0  0  0  0
   47.6540   29.8100   42.4950 C   0  0  0  0  0  3  0  0  0  0  0  0
   46.4880   29.4150   43.0660 C   0  0  0  0  0  3  0  0  0  0  0  0
   44.1520   28.6670   45.5200 N   0  0  0  0  0  0  0  0  0  0  0  0
   44.8340   29.4170   44.7350 C   0  0  0  0  0  0  0  0  0  0  0  0
   43.5990   29.7920   44.1300 N   0  0  0  0  0  0  0  0  0  0  0  0
   43.1080   28.6820   45.3630 H   0  0  0  0  0  0  0  0  0  0  0  0
   42.6630   30.2360   44.0930 H   0  0  0  0  0  0  0  0  0  0  0  0
   43.4880   29.4780   43.1380 H   0  0  0  0  0  0  0  0  0  0  0  0
   44.2750   36.4050   42.5900 N   0  0  0  0  0  0  0  0  0  0  0  0
   44.9740   36.9310   42.0210 H   0  0  0  0  0  0  0  0  0  0  0  0
   43.2410   36.5650   42.5470 H   0  0  0  0  0  0  0  0  0  0  0  0
  1 12  1  0  0  0  0
  1  6  1  0  0  0  0
  2  1  2  0  0  0  0
  3  2  1  0  0  0  0
  3  4  2  0  0  0  0
  4  5  1  0  0  0  0
  5  6  2  0  0  0  0
  5  7  1  0  0  0  0
  7  8  1  0  0  0  0
  8 15  1  0  0  0  0
  8 14  1  0  0  0  0
  8  9  1  0  0  0  0
  9 17  1  0  0  0  0
  9 16  1  0  0  0  0
 10 19  1  0  0  0  0
 10  9  1  0  0  0  0
 11  7  1  0  0  0  0
 11 20  1  1  0  0  0
 11 10  1  0  0  0  0
 13  3  1  0  0  0  0
 18 10  1  0  0  0  0
 21 30  1  0  0  0  0
 21 22  1  0  0  0  0
 22 11  1  0  0  0  0
 23 24  1  0  0  0  0
 23 22  2  0  0  0  0
 25 23  1  0  0  0  0
 26 25  1  0  0  0  0
 27 28  1  0  0  0  0
 27 25  2  0  0  0  0
 28 21  2  0  0  0  0
 30 29  2  0  0  0  0
 31 30  1  0  0  0  0
 32 29  1  0  0  0  0
 33 31  1  0  0  0  0
 34 31  1  0  0  0  0
 35  2  1  0  0  0  0
 36 35  1  0  0  0  0
 37 35  1  0  0  0  0
M  END
>  <minimizedAffinity>
-4.8287797

>  <minimizedRMSD>
3.06897211

$$$$
