REMARK  Name = 
REMARK  8 active torsions:
REMARK  status: ('A' for Active; 'I' for Inactive)
REMARK    1  A    between atoms: C_1  and  C_22
REMARK    2  A    between atoms: C_5  and  C_7
REMARK    3  A    between atoms: C_12  and  O_13
REMARK    4  A    between atoms: O_13  and  P_15
REMARK    5  A    between atoms: P_15  and  O_16
REMARK    6  A    between atoms: P_15  and  O_17
REMARK    7  A    between atoms: C_20  and  C_38
REMARK    8  A    between atoms: C_35  and  C_37
REMARK                            x       y       z     vdW  Elec       q    Type
REMARK                         _______ _______ _______ _____ _____    ______ ____
ROOT
ATOM      1  C   UNL     1      45.382  33.819  45.576  0.00  0.00    +0.000 A 
ATOM      2  C   UNL     1      44.809  35.033  45.821  0.00  0.00    +0.000 A 
ATOM      3  C   UNL     1      44.337  35.872  44.835  0.00  0.00    +0.000 A 
ATOM      4  N   UNL     1      44.476  35.416  43.564  0.00  0.00    +0.000 NA
ATOM      5  C   UNL     1      45.038  34.226  43.318  0.00  0.00    +0.000 A 
ATOM      6  N   UNL     1      45.490  33.424  44.290  0.00  0.00    +0.000 NA
ATOM      7  H   UNL     1      44.715  35.364  46.846  0.00  0.00    +0.000 HD
ATOM      8  H   UNL     1      43.887  36.826  45.032  0.00  0.00    +0.000 HD
ENDROOT
BRANCH   5   9
ATOM      9  C   UNL     1      45.174  33.755  41.922  0.00  0.00    +0.000 A 
ATOM     10  C   UNL     1      44.202  32.972  41.367  0.00  0.00    +0.000 A 
ATOM     11  C   UNL     1      44.224  32.479  40.079  0.00  0.00    +0.000 A 
ATOM     12  C   UNL     1      45.336  32.822  39.308  0.00  0.00    +0.000 A 
ATOM     13  C   UNL     1      46.313  33.603  39.850  0.00  0.00    +0.000 A 
ATOM     14  C   UNL     1      46.264  34.081  41.141  0.00  0.00    +0.000 A 
ATOM     15  H   UNL     1      43.335  32.707  41.974  0.00  0.00    +0.000 HD
ATOM     16  H   UNL     1      43.413  31.863  39.711  0.00  0.00    +0.000 HD
ATOM     17  H   UNL     1      45.376  32.448  38.298  0.00  0.00    +0.000 HD
ATOM     18  H   UNL     1      47.193  33.891  39.282  0.00  0.00    +0.000 HD
BRANCH  14  19
ATOM     19  O   UNL     1      47.236  34.873  41.720  0.00  0.00    +0.000 OA
BRANCH  19  21
ATOM     20  O   UNL     1      49.648  35.513  42.489  0.00  0.00    +0.000 OA
ATOM     21  P   UNL     1      48.881  34.882  41.335  0.00  0.00    +0.000 P 
BRANCH  21  22
ATOM     22  O   UNL     1      49.511  33.368  40.964  0.00  0.00    +0.000 OA
ATOM     23  H   UNL     1      50.254  33.404  40.332  0.00  0.00    +0.000 HD
ENDBRANCH  21  22
BRANCH  21  24
ATOM     24  O   UNL     1      49.113  35.883  39.987  0.00  0.00    +0.000 OA
ATOM     25  H   UNL     1      49.921  35.581  39.531  0.00  0.00    +0.000 HD
ENDBRANCH  21  24
ENDBRANCH  19  21
ENDBRANCH  14  19
ENDBRANCH   5   9
BRANCH   1  30
ATOM     26  C   UNL     1      45.581  32.090  48.791  0.00  0.00    +0.000 A 
ATOM     27  C   UNL     1      46.786  31.377  48.653  0.00  0.00    +0.000 A 
ATOM     28  C   UNL     1      47.514  31.486  47.487  0.00  0.00    +0.000 A 
ATOM     29  N   UNL     1      47.015  32.301  46.504  0.00  0.00    +0.000 NA
ATOM     30  C   UNL     1      45.862  32.974  46.653  0.00  0.00    +0.000 A 
ATOM     31  N   UNL     1      45.163  32.864  47.781  0.00  0.00    +0.000 NA
ATOM     32  H   UNL     1      44.966  32.039  49.691  0.00  0.00    +0.000 HD
ATOM     33  H   UNL     1      47.018  30.792  49.524  0.00  0.00    +0.000 HD
BRANCH  28  35
ATOM     34  C   UNL     1      48.825  29.385  47.167  0.00  0.00    +0.000 A 
ATOM     35  C   UNL     1      48.751  30.742  47.362  0.00  0.00    +0.000 A 
ATOM     36  C   UNL     1      49.978  31.351  47.429  0.00  0.00    +0.000 A 
ATOM     37  H   UNL     1      50.102  32.410  47.579  0.00  0.00    +0.000 HD
ATOM     38  C   UNL     1      51.164  30.660  47.311  0.00  0.00    +0.000 A 
ATOM     39  H   UNL     1      52.120  31.155  47.366  0.00  0.00    +0.000 HD
ATOM     40  C   UNL     1      51.198  29.304  47.116  0.00  0.00    +0.000 A 
ATOM     41  C   UNL     1      49.986  28.653  47.043  0.00  0.00    +0.000 A 
BRANCH  34  43
ATOM     42  N   UNL     1      46.440  28.273  47.430  0.00  0.00    +0.000 NA
ATOM     43  C   UNL     1      47.631  28.585  47.093  0.00  0.00    +0.000 C 
ATOM     44  N   UNL     1      47.559  27.480  46.175  0.00  0.00    +0.000 N 
ATOM     45  H   UNL     1      45.969  27.470  46.977  0.00  0.00    +0.000 HD
ATOM     46  H   UNL     1      48.002  26.544  46.337  0.00  0.00    +0.000 HD
ATOM     47  H   UNL     1      47.369  26.848  45.369  0.00  0.00    +0.000 HD
ENDBRANCH  34  43
ENDBRANCH  28  35
ENDBRANCH   1  30
TORSDOF 8
