REMARK  Name = 
REMARK  3 active torsions:
REMARK  status: ('A' for Active; 'I' for Inactive)
REMARK    1  A    between atoms: C_2  and  C_7
REMARK    2  A    between atoms: C_3  and  C_17
REMARK    3  A    between atoms: C_14  and  C_16
REMARK                            x       y       z     vdW  Elec       q    Type
REMARK                         _______ _______ _______ _____ _____    ______ ____
ROOT
ATOM      1  C   UNL     1      46.402  33.752  41.234  0.00  0.00    +0.000 A 
ATOM      2  C   UNL     1      45.543  33.170  42.129  0.00  0.00    +0.000 A 
ATOM      3  C   UNL     1      44.945  31.971  41.751  0.00  0.00    +0.000 A 
ATOM      4  H   UNL     1      44.258  31.471  42.423  0.00  0.00    +0.000 HD
ATOM      5  C   UNL     1      45.166  31.338  40.536  0.00  0.00    +0.000 A 
ATOM      6  H   UNL     1      44.686  30.409  40.277  0.00  0.00    +0.000 HD
ATOM      7  C   UNL     1      46.039  31.945  39.648  0.00  0.00    +0.000 A 
ATOM      8  C   UNL     1      46.630  33.133  40.024  0.00  0.00    +0.000 A 
ENDROOT
BRANCH   2  11
ATOM      9  C   UNL     1      44.384  35.775  44.431  0.00  0.00    +0.000 A 
ATOM     10  C   UNL     1      44.671  35.052  43.264  0.00  0.00    +0.000 A 
ATOM     11  C   UNL     1      45.304  33.801  43.385  0.00  0.00    +0.000 A 
ATOM     12  N   UNL     1      45.584  33.398  44.627  0.00  0.00    +0.000 NA
ATOM     13  C   UNL     1      45.305  34.096  45.734  0.00  0.00    +0.000 A 
ATOM     14  N   UNL     1      44.694  35.312  45.676  0.00  0.00    +0.000 NA
ATOM     15  H   UNL     1      43.903  36.743  44.471  0.00  0.00    +0.000 HD
ATOM     16  H   UNL     1      45.645  33.526  46.605  0.00  0.00    +0.000 HD
BRANCH  10  17
ATOM     17  C   UNL     1      44.257  35.732  42.020  0.00  0.00    +0.000 C 
ATOM     18  H   UNL     1      44.885  35.340  41.175  0.00  0.00    +0.000 HD
ATOM     19  H   UNL     1      44.484  36.811  42.113  0.00  0.00    +0.000 HD
ATOM     20  H   UNL     1      43.189  35.543  41.776  0.00  0.00    +0.000 HD
ENDBRANCH  10  17
ENDBRANCH   2  11
BRANCH   1  22
ATOM     21  N   UNL     1      47.601  35.470  42.480  0.00  0.00    +0.000 NA
ATOM     22  C   UNL     1      47.133  34.991  41.407  0.00  0.00    +0.000 C 
ATOM     23  N   UNL     1      47.416  35.857  40.288  0.00  0.00    +0.000 N 
ATOM     24  H   UNL     1      48.114  36.340  42.611  0.00  0.00    +0.000 HD
ATOM     25  H   UNL     1      48.317  35.754  39.783  0.00  0.00    +0.000 HD
ATOM     26  H   UNL     1      46.670  36.547  40.057  0.00  0.00    +0.000 HD
ENDBRANCH   1  22
TORSDOF 3
