
 OpenBabel03252501503D

 50 53  0  0  1  0  0  0  0  0999 V2000
   48.9120   33.8930   41.7660 N   0  0  0  0  0  0  0  0  0  0  0  0
   50.2340   34.2490   42.2210 C   0  0  0  0  0  0  0  0  0  0  0  0
   50.9880   32.9820   42.4660 C   0  0  0  0  0  0  0  0  0  0  0  0
   49.9040   31.9860   42.7310 C   0  0  0  0  0  0  0  0  0  0  0  0
   48.6140   32.5780   42.2080 C   0  0  2  0  0  0  0  0  0  0  0  0
   50.1340   34.8490   43.1660 H   0  0  0  0  0  0  0  0  0  0  0  0
   50.7540   34.8680   41.4480 H   0  0  0  0  0  0  0  0  0  0  0  0
   51.6640   32.7220   41.6380 H   0  0  0  0  0  0  0  0  0  0  0  0
   51.5820   33.1040   43.4020 H   0  0  0  0  0  0  0  0  0  0  0  0
   50.1420   31.0750   42.1100 H   0  0  0  0  0  0  0  0  0  0  0  0
   49.8450   31.6160   43.7640 H   0  0  0  0  0  0  0  0  0  0  0  0
   47.9750   32.6970   43.1330 H   0  0  0  0  0  0  0  0  0  0  0  0
   47.9700   31.6610   39.9270 C   0  0  0  0  0  0  0  0  0  0  0  0
   47.9120   31.6940   41.2880 C   0  0  0  0  0  0  0  0  0  0  0  0
   47.0610   30.7200   41.8310 C   0  0  0  0  0  0  0  0  0  0  0  0
   46.9550   30.6760   42.9250 H   0  0  0  0  0  0  0  0  0  0  0  0
   46.3720   29.8380   41.0280 C   0  0  0  0  0  0  0  0  0  0  0  0
   45.7440   29.1290   41.5480 H   0  0  0  0  0  0  0  0  0  0  0  0
   46.4710   29.8540   39.6560 C   0  0  0  0  0  3  0  0  0  0  0  0
   47.2970   30.7950   39.0930 C   0  0  0  0  0  3  0  0  0  0  0  0
   48.9870   33.7280   38.6280 N   0  0  0  0  0  0  0  0  0  0  0  0
   48.8020   32.6150   39.2320 C   0  0  0  0  0  0  0  0  0  0  0  0
   50.2000   32.3560   38.9970 N   0  0  0  0  0  0  0  0  0  0  0  0
   49.9720   33.8860   38.2930 H   0  0  0  0  0  0  0  0  0  0  0  0
   50.4460   31.6140   38.2780 H   0  0  0  0  0  0  0  0  0  0  0  0
   51.2220   32.5480   39.1980 H   0  0  0  0  0  0  0  0  0  0  0  0
   47.9650   34.8580   42.2800 C   0  0  0  0  0  0  0  0  0  0  0  0
   47.7380   34.5650   43.3270 H   0  0  0  0  0  0  0  0  0  0  0  0
   48.3500   35.8820   42.3000 H   0  0  0  0  0  0  0  0  0  0  0  0
   45.5580   34.3260   42.1970 C   0  0  0  0  0  3  0  0  0  0  0  0
   46.6460   34.7840   41.5500 C   0  0  0  0  0  3  0  0  0  0  0  0
   43.6630   32.9930   41.1600 C   0  0  0  0  0  0  0  0  0  0  0  0
   44.2510   34.2350   41.5310 C   0  0  0  0  0  0  0  0  0  0  0  0
   43.5480   35.4110   41.2500 C   0  0  0  0  0  0  0  0  0  0  0  0
   42.3390   35.3160   40.6360 N   0  0  0  0  0  0  0  0  0  0  0  0
   41.8170   34.1220   40.3020 C   0  0  0  0  0  0  0  0  0  0  0  0
   42.4820   32.9850   40.5660 N   0  0  0  0  0  0  0  0  0  0  0  0
   44.2390   32.0910   41.3940 H   0  0  0  0  0  0  0  0  0  0  0  0
   43.9560   36.3770   41.5140 H   0  0  0  0  0  0  0  0  0  0  0  0
   39.5040   33.5460   41.7280 F   0  0  0  0  0  0  0  0  0  0  0  0
   39.3710   33.7740   40.3940 C   0  0  0  0  0  0  0  0  0  0  0  0
   40.5160   34.0670   39.6460 C   0  0  0  0  0  0  0  0  0  0  0  0
   40.4650   34.3100   38.2930 C   0  0  0  0  0  0  0  0  0  0  0  0
   39.2110   34.2520   37.6870 C   0  0  0  0  0  0  0  0  0  0  0  0
   38.0460   33.9600   38.4130 C   0  0  0  0  0  0  0  0  0  0  0  0
   38.1360   33.7220   39.7710 C   0  0  0  0  0  0  0  0  0  0  0  0
   41.3510   34.5310   37.7470 H   0  0  0  0  0  0  0  0  0  0  0  0
   39.2110   34.4510   36.6140 H   0  0  0  0  0  0  0  0  0  0  0  0
   37.1250   33.9370   37.8660 H   0  0  0  0  0  0  0  0  0  0  0  0
   37.2390   33.4950   40.3420 H   0  0  0  0  0  0  0  0  0  0  0  0
  1  5  1  0  0  0  0
  1  2  1  0  0  0  0
  1 27  1  0  0  0  0
  2  3  1  0  0  0  0
  2  6  1  0  0  0  0
  3  4  1  0  0  0  0
  3  9  1  0  0  0  0
  4 11  1  0  0  0  0
  5  4  1  0  0  0  0
  5 12  1  1  0  0  0
  7  2  1  0  0  0  0
  8  3  1  0  0  0  0
 10  4  1  0  0  0  0
 13 14  1  0  0  0  0
 14 15  2  0  0  0  0
 14  5  1  0  0  0  0
 15 16  1  0  0  0  0
 17 18  1  0  0  0  0
 17 15  1  0  0  0  0
 19 17  2  0  0  0  0
 20 19  1  0  0  0  0
 20 13  2  0  0  0  0
 21 22  2  0  0  0  0
 22 13  1  0  0  0  0
 23 26  1  0  0  0  0
 23 22  1  0  0  0  0
 24 21  1  0  0  0  0
 25 23  1  0  0  0  0
 27 29  1  0  0  0  0
 27 28  1  0  0  0  0
 31 30  2  0  0  0  0
 31 27  1  0  0  0  0
 32 38  1  0  0  0  0
 32 33  1  0  0  0  0
 33 30  1  0  0  0  0
 34 39  1  0  0  0  0
 34 33  2  0  0  0  0
 35 34  1  0  0  0  0
 36 37  1  0  0  0  0
 36 35  2  0  0  0  0
 37 32  2  0  0  0  0
 41 40  1  0  0  0  0
 42 36  1  0  0  0  0
 42 41  2  0  0  0  0
 43 42  1  0  0  0  0
 44 43  2  0  0  0  0
 44 45  1  0  0  0  0
 45 46  2  0  0  0  0
 46 50  1  0  0  0  0
 46 41  1  0  0  0  0
 47 43  1  0  0  0  0
 48 44  1  0  0  0  0
 49 45  1  0  0  0  0
M  END
>  <minimizedAffinity>
-5.99638033

>  <minimizedRMSD>
1.98892748

$$$$
