
     RDKit          3D

 26 27  0  0  0  0  0  0  0  0999 V2000
   45.0023   35.4858   44.1850 C   0  0  0  0  0  0  0  0  0  0  0  0
   45.9842   34.9127   43.3617 C   0  0  0  0  0  0  0  0  0  0  0  0
   46.7192   33.8273   43.8368 C   0  0  0  0  0  0  0  0  0  0  0  0
   46.4332   33.3931   45.0766 N   0  0  0  0  0  0  0  0  0  0  0  0
   45.4960   33.9429   45.8579 C   0  0  0  0  0  0  0  0  0  0  0  0
   44.7816   34.9948   45.4009 N   0  0  0  0  0  0  0  0  0  0  0  0
   44.2815   36.5464   43.7250 O   0  0  0  0  0  0  0  0  0  0  0  0
   46.0787   35.3853   42.4066 H   0  0  0  0  0  0  0  0  0  0  0  0
   45.3456   33.5168   46.8382 H   0  0  0  0  0  0  0  0  0  0  0  0
   44.3743   37.4875   44.0635 H   0  0  0  0  0  0  0  0  0  0  0  0
   47.8728   29.9188   44.4537 N   0  0  0  0  0  0  0  0  0  0  0  0
   47.9819   31.2040   44.4492 C   0  0  0  0  0  0  0  0  0  0  0  0
   47.8250   31.3779   45.8366 N   0  0  0  0  0  0  0  0  0  0  0  0
   48.2158   32.0609   43.3246 C   0  0  0  0  0  0  0  0  0  0  0  0
   47.7136   33.2742   42.9594 C   0  0  0  0  0  0  0  0  0  0  0  0
   48.1889   33.8461   41.8007 C   0  0  0  0  0  0  0  0  0  0  0  0
   47.8089   34.7976   41.4957 H   0  0  0  0  0  0  0  0  0  0  0  0
   49.1392   33.2610   40.9939 C   0  0  0  0  0  0  0  0  0  0  0  0
   49.4642   33.7778   40.0914 H   0  0  0  0  0  0  0  0  0  0  0  0
   49.6676   32.0328   41.3344 C   0  0  0  0  0  0  0  0  0  0  0  0
   49.1831   31.4523   42.5142 C   0  0  0  0  0  0  0  0  0  0  0  0
   47.7200   29.4501   45.3691 H   0  0  0  0  0  0  0  0  0  0  0  0
   48.4943   31.8457   46.4781 H   0  0  0  0  0  0  0  0  0  0  0  0
   47.7087   31.5010   46.8335 H   0  0  0  0  0  0  0  0  0  0  0  0
   50.3949   31.6306   40.6761 H   0  0  0  0  0  0  0  0  0  0  0  0
   49.6934   30.4824   42.6535 H   0  0  0  0  0  0  0  0  0  0  0  0
  1  6  2  0
  2  3  2  0
  2  1  1  0
  3  4  1  0
  4  5  2  0
  6  5  1  0
  7  1  1  0
  2  8  1  0
  5  9  1  0
  7 10  1  0
 11 12  2  3
 12 13  1  0
 12 14  1  0
 14 15  2  0
 15 16  1  0
 16 17  1  0
 16 18  2  0
 18 19  1  0
 18 20  1  0
 20 21  2  0
 21 14  1  0
 11 22  1  0
 13 23  1  0
 13 24  1  0
 20 25  1  0
 21 26  1  0
  3 15  1  0
M  ISO  5   8  14   9  14  10   3  17  15  19  16
M  END
>  <DihAtoms>  (1) 
1,2,14,13

>  <DihDeg>  (1) 
178.19790618630904

$$$$
