REMARK  Name = 
REMARK  7 active torsions:
REMARK  status: ('A' for Active; 'I' for Inactive)
REMARK    1  A    between atoms: C_1  and  S_9
REMARK    2  A    between atoms: C_2  and  C_8
REMARK    3  A    between atoms: C_5  and  O_19
REMARK    4  A    between atoms: S_9  and  C_11
REMARK    5  A    between atoms: C_17  and  C_37
REMARK    6  A    between atoms: O_19  and  C_20
REMARK    7  A    between atoms: C_34  and  C_36
REMARK                            x       y       z     vdW  Elec       q    Type
REMARK                         _______ _______ _______ _____ _____    ______ ____
ROOT
ATOM      1  C   UNL     1      39.726  34.604  40.255  0.00  0.00    +0.000 A 
ATOM      2  C   UNL     1      40.869  34.178  40.936  0.00  0.00    +0.000 A 
ATOM      3  C   UNL     1      40.926  32.928  41.516  0.00  0.00    +0.000 A 
ATOM      4  C   UNL     1      39.861  32.069  41.438  0.00  0.00    +0.000 A 
ATOM      5  C   UNL     1      38.726  32.479  40.767  0.00  0.00    +0.000 A 
ATOM      6  C   UNL     1      38.633  33.711  40.181  0.00  0.00    +0.000 A 
ATOM      7  O   UNL     1      37.803  31.409  40.844  0.00  0.00    +0.000 OA
ATOM      8  C   UNL     1      38.302  30.477  41.746  0.00  0.00    +0.000 C 
ATOM      9  O   UNL     1      39.646  30.778  41.918  0.00  0.00    +0.000 OA
ATOM     10  H   UNL     1      39.605  35.548  39.784  0.00  0.00    +0.000 HD
ATOM     11  H   UNL     1      41.849  32.686  42.021  0.00  0.00    +0.000 HD
ATOM     12  H   UNL     1      37.741  34.040  39.649  0.00  0.00    +0.000 HD
ATOM     13  H   UNL     1      37.747  30.477  42.723  0.00  0.00    +0.000 HD
ENDROOT
BRANCH   8  15
ATOM     14  C   UNL     1      38.445  28.697  39.913  0.00  0.00    +0.000 A 
ATOM     15  C   UNL     1      38.156  29.124  41.172  0.00  0.00    +0.000 A 
ATOM     16  C   UNL     1      37.660  28.173  42.073  0.00  0.00    +0.000 A 
ATOM     17  H   UNL     1      37.390  28.389  43.112  0.00  0.00    +0.000 HD
ATOM     18  C   UNL     1      37.516  26.898  41.589  0.00  0.00    +0.000 A 
ATOM     19  H   UNL     1      37.132  26.143  42.277  0.00  0.00    +0.000 HD
ATOM     20  C   UNL     1      37.804  26.448  40.319  0.00  0.00    +0.000 A 
ATOM     21  C   UNL     1      38.284  27.399  39.468  0.00  0.00    +0.000 A 
BRANCH  14  23
ATOM     22  N   UNL     1      39.155  30.629  38.169  0.00  0.00    +0.000 NA
ATOM     23  C   UNL     1      38.935  29.635  38.923  0.00  0.00    +0.000 C 
ATOM     24  N   UNL     1      40.066  29.144  38.158  0.00  0.00    +0.000 N 
ATOM     25  H   UNL     1      38.701  31.529  38.085  0.00  0.00    +0.000 HD
ATOM     26  H   UNL     1      40.111  28.319  37.501  0.00  0.00    +0.000 HD
ATOM     27  H   UNL     1      40.952  28.889  37.660  0.00  0.00    +0.000 HD
ENDBRANCH  14  23
ENDBRANCH   8  15
BRANCH   2  28
ATOM     28  S   UNL     1      42.173  35.403  40.938  0.00  0.00    +0.000 S 
BRANCH  28  29
ATOM     29  C   UNL     1      43.763  34.607  40.538  0.00  0.00    +0.000 A 
ATOM     30  C   UNL     1      43.767  33.786  39.470  0.00  0.00    +0.000 A 
ATOM     31  C   UNL     1      44.990  33.167  39.190  0.00  0.00    +0.000 A 
ATOM     32  N   UNL     1      46.073  33.404  39.962  0.00  0.00    +0.000 NA
ATOM     33  C   UNL     1      46.028  34.223  41.008  0.00  0.00    +0.000 A 
ATOM     34  N   UNL     1      44.863  34.800  41.259  0.00  0.00    +0.000 NA
ATOM     35  N   UNL     1      45.089  32.253  38.077  0.00  0.00    +0.000 N 
ATOM     36  H   UNL     1      45.131  32.529  37.073  0.00  0.00    +0.000 HD
ATOM     37  H   UNL     1      45.135  31.212  38.031  0.00  0.00    +0.000 HD
BRANCH  30  38
ATOM     38  C   UNL     1      42.736  33.381  38.456  0.00  0.00    +0.000 C 
ATOM     39  H   UNL     1      42.364  32.382  38.758  0.00  0.00    +0.000 HD
ATOM     40  H   UNL     1      41.920  34.145  38.418  0.00  0.00    +0.000 HD
ATOM     41  H   UNL     1      43.163  33.391  37.427  0.00  0.00    +0.000 HD
ENDBRANCH  30  38
BRANCH  33  42
ATOM     42  O   UNL     1      47.090  34.509  41.830  0.00  0.00    +0.000 OA
BRANCH  42  43
ATOM     43  C   UNL     1      48.303  34.914  41.230  0.00  0.00    +0.000 C 
ATOM     44  F   UNL     1      49.300  34.011  41.428  0.00  0.00    +0.000 F 
ATOM     45  F   UNL     1      48.020  35.113  39.861  0.00  0.00    +0.000 F 
ATOM     46  F   UNL     1      48.684  36.123  41.812  0.00  0.00    +0.000 F 
ENDBRANCH  42  43
ENDBRANCH  33  42
ENDBRANCH  28  29
ENDBRANCH   2  28
TORSDOF 7
