
 OpenBabel03242519063D

 48 51  0  0  1  0  0  0  0  0999 V2000
   48.8130   33.0450   40.6740 C   0  0  0  0  0  0  0  0  0  0  0  0
   47.6480   33.8110   40.8420 C   0  0  0  0  0  0  0  0  0  0  0  0
   46.6760   33.5140   39.9280 C   0  0  0  0  0  0  0  0  0  0  0  0
   46.7570   32.5850   38.9310 C   0  0  0  0  0  0  0  0  0  0  0  0
   47.9230   31.8550   38.8040 C   0  0  0  0  0  0  0  0  0  0  0  0
   48.9500   32.1060   39.6980 C   0  0  0  0  0  0  0  0  0  0  0  0
   45.7310   34.0470   39.9650 H   0  0  0  0  0  0  0  0  0  0  0  0
   45.9430   32.3940   38.2310 H   0  0  0  0  0  0  0  0  0  0  0  0
   48.0890   31.0980   38.0510 H   0  0  0  0  0  0  0  0  0  0  0  0
   50.1600   30.1610   40.3130 C   0  0  0  0  0  0  0  0  0  0  0  0
   50.1900   31.3440   39.5790 C   0  0  0  0  0  0  0  0  0  0  0  0
   51.3000   31.6920   38.8450 C   0  0  0  0  0  0  0  0  0  0  0  0
   51.2300   32.6270   38.3100 H   0  0  0  0  0  0  0  0  0  0  0  0
   52.4180   30.8960   38.8040 C   0  0  0  0  0  0  0  0  0  0  0  0
   53.2840   31.1800   38.2240 H   0  0  0  0  0  0  0  0  0  0  0  0
   52.3920   29.7260   39.5280 C   0  0  0  0  0  3  0  0  0  0  0  0
   51.2990   29.3530   40.2690 C   0  0  0  0  0  3  0  0  0  0  0  0
   48.0940   28.9650   40.6440 N   0  0  0  0  0  0  0  0  0  0  0  0
   49.0450   29.6880   41.1240 C   0  0  0  0  0  0  0  0  0  0  0  0
   48.9890   30.0320   42.5040 N   0  0  0  0  0  0  0  0  0  0  0  0
   47.3380   28.6750   41.3000 H   0  0  0  0  0  0  0  0  0  0  0  0
   49.7870   29.7540   43.1480 H   0  0  0  0  0  0  0  0  0  0  0  0
   48.5450   30.4580   43.3360 H   0  0  0  0  0  0  0  0  0  0  0  0
   47.4670   34.7970   41.8440 N   0  0  0  0  0  0  0  0  0  0  0  0
   47.6350   35.8140   41.5880 H   0  0  0  0  0  0  0  0  0  0  0  0
   46.0860   33.4650   44.8490 N   0  0  0  0  0  0  0  0  0  0  0  0
   46.8340   33.2400   43.6310 C   0  0  0  0  0  0  0  0  0  0  0  0
   47.0720   34.6660   43.2310 C   0  0  2  0  0  0  0  0  0  0  0  0
   45.6620   35.2200   43.3390 C   0  0  0  0  0  0  0  0  0  0  0  0
   45.1210   34.5140   44.5560 C   0  0  0  0  0  0  0  0  0  0  0  0
   47.7530   32.6540   43.8100 H   0  0  0  0  0  0  0  0  0  0  0  0
   46.1440   32.7590   42.9070 H   0  0  0  0  0  0  0  0  0  0  0  0
   47.7480   35.1500   43.9360 H   0  0  0  0  0  0  0  0  0  0  0  0
   45.0610   34.9190   42.4610 H   0  0  0  0  0  0  0  0  0  0  0  0
   45.6360   36.3220   43.4210 H   0  0  0  0  0  0  0  0  0  0  0  0
   45.1440   35.2210   45.4080 H   0  0  0  0  0  0  0  0  0  0  0  0
   44.1090   34.1060   44.3590 H   0  0  0  0  0  0  0  0  0  0  0  0
   45.5420   32.4290   48.3810 C   0  0  0  0  0  0  0  0  0  0  0  0
   45.3380   33.1010   47.1760 C   0  0  0  0  0  0  0  0  0  0  0  0
   46.1870   32.8560   46.1020 C   0  0  0  0  0  0  0  0  0  0  0  0
   47.1880   31.9500   46.3090 N   0  0  0  0  0  0  0  0  0  0  0  0
   47.3920   31.2970   47.4640 C   0  0  0  0  0  0  0  0  0  0  0  0
   46.5590   31.5420   48.5100 N   0  0  0  0  0  0  0  0  0  0  0  0
   44.8490   32.6620   49.1780 H   0  0  0  0  0  0  0  0  0  0  0  0
   44.5590   33.8210   46.9790 H   0  0  0  0  0  0  0  0  0  0  0  0
   48.2120   30.6130   47.4970 H   0  0  0  0  0  0  0  0  0  0  0  0
   50.7500   33.5300   42.3710 N   0  0  0  0  0  0  0  0  0  0  0  0
   49.9000   33.3070   41.6160 C   0  0  0  0  0  0  0  0  0  0  0  0
  1  2  1  0  0  0  0
  1 48  1  0  0  0  0
  2 24  1  0  0  0  0
  3  7  1  0  0  0  0
  3  2  2  0  0  0  0
  4  3  1  0  0  0  0
  5  4  2  0  0  0  0
  5  6  1  0  0  0  0
  6  1  2  0  0  0  0
  8  4  1  0  0  0  0
  9  5  1  0  0  0  0
 10 19  1  0  0  0  0
 11  6  1  0  0  0  0
 11 10  2  0  0  0  0
 12 11  1  0  0  0  0
 13 12  1  0  0  0  0
 14 12  2  0  0  0  0
 14 16  1  0  0  0  0
 15 14  1  0  0  0  0
 16 17  2  0  0  0  0
 17 10  1  0  0  0  0
 18 19  2  0  0  0  0
 18 21  1  0  0  0  0
 19 20  1  0  0  0  0
 20 22  1  0  0  0  0
 20 23  1  0  0  0  0
 24 28  1  0  0  0  0
 25 24  1  0  0  0  0
 26 40  1  0  0  0  0
 27 31  1  0  0  0  0
 27 26  1  0  0  0  0
 28 29  1  0  0  0  0
 28 27  1  0  0  0  0
 28 33  1  1  0  0  0
 29 35  1  0  0  0  0
 29 30  1  0  0  0  0
 30 26  1  0  0  0  0
 30 36  1  0  0  0  0
 32 27  1  0  0  0  0
 34 29  1  0  0  0  0
 37 30  1  0  0  0  0
 38 43  1  0  0  0  0
 38 44  1  0  0  0  0
 39 38  2  0  0  0  0
 40 41  2  0  0  0  0
 40 39  1  0  0  0  0
 41 42  1  0  0  0  0
 42 46  1  0  0  0  0
 42 43  2  0  0  0  0
 45 39  1  0  0  0  0
 48 47  3  0  0  0  0
M  END
>  <minimizedAffinity>
-4.69439173

>  <minimizedRMSD>
3.48786187

$$$$
