
     RDKit          3D

 26 27  0  0  0  0  0  0  0  0999 V2000
   44.5586   35.6213   45.0634 C   0  0  0  0  0  0  0  0  0  0  0  0
   45.0254   35.8862   43.7731 C   0  0  0  0  0  0  0  0  0  0  0  0
   45.9740   34.9821   43.2377 C   0  0  0  0  0  0  0  0  0  0  0  0
   46.3739   33.9166   44.0053 N   0  0  0  0  0  0  0  0  0  0  0  0
   45.8885   33.7113   45.2436 C   0  0  0  0  0  0  0  0  0  0  0  0
   44.9916   34.5601   45.7578 N   0  0  0  0  0  0  0  0  0  0  0  0
   44.6340   36.9595   42.9872 O   0  0  0  0  0  0  0  0  0  0  0  0
   43.8380   36.3103   45.4641 H   0  0  0  0  0  0  0  0  0  0  0  0
   46.2169   32.8647   45.8276 H   0  0  0  0  0  0  0  0  0  0  0  0
   45.1997   37.7821   42.9607 H   0  0  0  0  0  0  0  0  0  0  0  0
   44.0069   34.2172   39.6912 N   0  0  0  0  0  0  0  0  0  0  0  0
   44.5043   34.8810   40.7170 C   0  0  0  0  0  0  0  0  0  0  0  0
   43.2873   35.0806   41.4018 N   0  0  0  0  0  0  0  0  0  0  0  0
   45.9348   35.1072   40.7169 C   0  0  0  0  0  0  0  0  0  0  0  0
   46.5708   35.1078   41.9159 C   0  0  0  0  0  0  0  0  0  0  0  0
   47.9602   35.2887   41.9502 C   0  0  0  0  0  0  0  0  0  0  0  0
   48.6292   35.3167   42.7935 H   0  0  0  0  0  0  0  0  0  0  0  0
   48.6042   35.4605   40.7336 C   0  0  0  0  0  0  0  0  0  0  0  0
   49.6797   35.6151   40.6092 H   0  0  0  0  0  0  0  0  0  0  0  0
   47.9099   35.4564   39.5212 C   0  0  0  0  0  0  0  0  0  0  0  0
   46.5454   35.2755   39.4959 C   0  0  0  0  0  0  0  0  0  0  0  0
   44.5679   33.8564   38.9076 H   0  0  0  0  0  0  0  0  0  0  0  0
   42.5456   35.7926   41.1140 H   0  0  0  0  0  0  0  0  0  0  0  0
   43.1580   34.4535   42.2348 H   0  0  0  0  0  0  0  0  0  0  0  0
   48.4096   35.5900   38.5743 H   0  0  0  0  0  0  0  0  0  0  0  0
   45.9777   35.2678   38.5786 H   0  0  0  0  0  0  0  0  0  0  0  0
  1  6  2  0
  2  1  1  0
  3  2  2  0
  3  4  1  0
  4  5  2  0
  5  6  1  0
  7  2  1  0
  1  8  1  0
  5  9  1  0
  7 10  1  0
 11 12  2  3
 12 13  1  0
 12 14  1  0
 14 15  2  0
 15 16  1  0
 16 17  1  0
 16 18  2  0
 18 19  1  0
 18 20  1  0
 20 21  2  0
 21 14  1  0
 11 22  1  0
 13 23  1  0
 13 24  1  0
 20 25  1  0
 21 26  1  0
  3 15  1  0
M  ISO  5   8  14   9  14  10   3  17  15  19  16
M  END
>  <DihAtoms>  (1) 
1,2,14,13

>  <DihDeg>  (1) 
119.55260996944297

$$$$
