REMARK  Name = 
REMARK  2 active torsions:
REMARK  status: ('A' for Active; 'I' for Inactive)
REMARK    1  A    between atoms: C_5  and  C_16
REMARK    2  A    between atoms: C_13  and  C_15
REMARK                            x       y       z     vdW  Elec       q    Type
REMARK                         _______ _______ _______ _____ _____    ______ ____
ROOT
ATOM      1  C   UNL     1      44.988  31.931  47.353  0.00  0.00    +0.000 A 
ATOM      2  C   UNL     1      45.335  33.252  47.217  0.00  0.00    +0.000 A 
ATOM      3  C   UNL     1      45.498  34.010  48.355  0.00  0.00    +0.000 A 
ATOM      4  H   UNL     1      45.770  35.057  48.341  0.00  0.00    +0.000 HD
ATOM      5  C   UNL     1      45.291  33.355  49.553  0.00  0.00    +0.000 A 
ATOM      6  H   UNL     1      45.419  33.953  50.443  0.00  0.00    +0.000 HD
ATOM      7  C   UNL     1      44.943  32.035  49.738  0.00  0.00    +0.000 A 
ATOM      8  C   UNL     1      44.787  31.300  48.586  0.00  0.00    +0.000 A 
ENDROOT
BRANCH   2  13
ATOM      9  C   UNL     1      45.109  35.354  44.167  0.00  0.00    +0.000 A 
ATOM     10  C   UNL     1      46.127  34.789  43.384  0.00  0.00    +0.000 A 
ATOM     11  C   UNL     1      46.864  33.710  43.918  0.00  0.00    +0.000 A 
ATOM     12  N   UNL     1      46.514  33.305  45.172  0.00  0.00    +0.000 NA
ATOM     13  C   UNL     1      45.542  33.852  45.905  0.00  0.00    +0.000 A 
ATOM     14  N   UNL     1      44.870  34.863  45.374  0.00  0.00    +0.000 NA
ATOM     15  N   UNL     1      44.339  36.449  43.663  0.00  0.00    +0.000 N 
ATOM     16  H   UNL     1      46.321  35.184  42.410  0.00  0.00    +0.000 HD
ATOM     17  H   UNL     1      47.641  33.267  43.339  0.00  0.00    +0.000 HD
ATOM     18  H   UNL     1      44.539  36.870  42.749  0.00  0.00    +0.000 HD
ATOM     19  H   UNL     1      43.569  36.829  44.218  0.00  0.00    +0.000 HD
ENDBRANCH   2  13
BRANCH   1  21
ATOM     20  N   UNL     1      44.380  30.592  45.107  0.00  0.00    +0.000 NA
ATOM     21  C   UNL     1      44.760  31.040  46.231  0.00  0.00    +0.000 C 
ATOM     22  N   UNL     1      45.299  29.702  46.316  0.00  0.00    +0.000 N 
ATOM     23  H   UNL     1      43.853  31.044  44.368  0.00  0.00    +0.000 HD
ATOM     24  H   UNL     1      45.048  28.903  46.959  0.00  0.00    +0.000 HD
ATOM     25  H   UNL     1      45.787  28.772  46.257  0.00  0.00    +0.000 HD
ENDBRANCH   1  21
TORSDOF 2
