
     RDKit          3D

 39 41  0  0  0  0  0  0  0  0999 V2000
   44.4800   35.7450   45.0181 C   0  0  0  0  0  0  0  0  0  0  0  0
   45.1178   35.7045   43.7557 C   0  0  0  0  0  0  0  0  0  0  0  0
   46.0297   34.6831   43.4873 C   0  0  0  0  0  0  0  0  0  0  0  0
   46.2447   33.7821   44.4768 N   0  0  0  0  0  0  0  0  0  0  0  0
   45.6200   33.8498   45.6702 C   0  0  0  0  0  0  0  0  0  0  0  0
   44.7440   34.8139   45.9546 N   0  0  0  0  0  0  0  0  0  0  0  0
   45.9572   32.8404   46.6133 N   0  0  0  0  0  0  0  0  0  0  0  0
   45.1641   32.5804   47.8287 C   0  0  0  0  0  0  0  0  0  0  0  0
   46.2211   32.1604   48.7939 C   0  0  0  0  0  0  0  0  0  0  0  0
   47.5502   32.1046   48.0304 C   0  0  0  0  0  0  0  0  0  0  0  0
   47.0203   31.9006   46.6615 C   0  0  2  0  0  0  0  0  0  0  0  0
   44.7610   36.7472   42.8375 N   0  0  0  0  0  0  0  0  0  0  0  0
   43.7658   36.5163   45.2733 H   0  0  0  0  0  0  0  0  0  0  0  0
   46.4931   34.6866   42.5168 H   0  0  0  0  0  0  0  0  0  0  0  0
   44.7379   33.5492   48.1629 H   0  0  0  0  0  0  0  0  0  0  0  0
   44.3901   31.8131   47.6358 H   0  0  0  0  0  0  0  0  0  0  0  0
   46.2845   32.7743   49.7102 H   0  0  0  0  0  0  0  0  0  0  0  0
   46.0101   31.1200   49.1821 H   0  0  0  0  0  0  0  0  0  0  0  0
   47.9804   33.0902   48.2673 H   0  0  0  0  0  0  0  0  0  0  0  0
   48.1639   31.2624   48.4101 H   0  0  0  0  0  0  0  0  0  0  0  0
   46.4570   30.8924   46.7611 H   0  0  0  0  0  0  0  0  0  0  0  0
   45.4085   37.5333   42.6086 H   0  0  0  0  0  0  0  0  0  0  0  0
   43.8028   36.6365   42.4312 H   0  0  0  0  0  0  0  0  0  0  0  0
   45.0264   31.1378   43.9670 N   0  0  0  0  0  0  0  0  0  0  0  0
   46.2550   31.4601   43.7925 C   0  0  0  0  0  0  0  0  0  0  0  0
   45.8632   32.0083   42.5370 N   0  0  0  0  0  0  0  0  0  0  0  0
   47.6239   31.4955   44.2544 C   0  0  0  0  0  0  0  0  0  0  0  0
   47.9290   31.7126   45.5812 C   0  0  0  0  0  0  0  0  0  0  0  0
   49.3231   31.7102   45.7661 C   0  0  0  0  0  0  0  0  0  0  0  0
   49.7127   31.8733   46.7847 H   0  0  0  0  0  0  0  0  0  0  0  0
   50.2483   31.5204   44.7781 C   0  0  0  0  0  0  0  0  0  0  0  0
   51.2973   31.5363   45.0269 H   0  0  0  0  0  0  0  0  0  0  0  0
   49.8600   31.3094   43.4774 C   0  0  0  0  0  0  0  0  0  0  0  0
   48.5279   31.2984   43.2205 C   0  0  0  0  0  0  0  0  0  0  0  0
   44.3745   31.4037   43.1798 H   0  0  0  0  0  0  0  0  0  0  0  0
   45.3741   32.6712   41.9086 H   0  0  0  0  0  0  0  0  0  0  0  0
   46.2555   31.5103   41.7043 H   0  0  0  0  0  0  0  0  0  0  0  0
   50.6305   31.1684   42.7569 H   0  0  0  0  0  0  0  0  0  0  0  0
   48.2560   31.1304   42.1895 H   0  0  0  0  0  0  0  0  0  0  0  0
  1  6  2  0
  2  1  1  0
  3  2  2  0
  3  4  1  0
  4  5  2  0
  5  6  1  0
  5  7  1  0
  7 11  1  0
  7  8  1  0
  8  9  1  0
 10  9  1  0
 11 10  1  0
 12  2  1  0
  1 13  1  0
  3 14  1  0
  8 15  1  0
  8 16  1  0
  9 17  1  0
  9 18  1  0
 10 19  1  0
 10 20  1  0
 11 21  1  1
 12 22  1  0
 12 23  1  0
 24 25  2  3
 25 26  1  0
 25 27  1  0
 27 28  2  0
 28 29  1  0
 29 30  1  0
 29 31  2  0
 31 32  1  0
 31 33  1  0
 33 34  2  0
 34 27  1  0
 24 35  1  0
 26 36  1  0
 26 37  1  0
 33 38  1  0
 34 39  1  0
 11 28  1  0
M  ISO  8  13  14  14  14  15  13  16  13  17  13  18  13  19  13  20  13
M  ISO  3  21  13  30  15  32  16
M  END
>  <DihAtoms>  (1) 
6,10,27,26

>  <DihDeg>  (1) 
69.32716548019523

$$$$
