REMARK  Name = 
REMARK  3 active torsions:
REMARK  status: ('A' for Active; 'I' for Inactive)
REMARK    1  A    between atoms: C_2  and  O_7
REMARK    2  A    between atoms: C_3  and  C_15
REMARK    3  A    between atoms: C_12  and  C_14
REMARK                            x       y       z     vdW  Elec       q    Type
REMARK                         _______ _______ _______ _____ _____    ______ ____
ROOT
ATOM      1  C   UNL     1      45.941  35.386  40.746  0.00  0.00    +0.000 A 
ATOM      2  C   UNL     1      46.571  35.108  41.916  0.00  0.00    +0.000 A 
ATOM      3  C   UNL     1      47.964  34.954  41.920  0.00  0.00    +0.000 A 
ATOM      4  H   UNL     1      48.629  34.733  42.738  0.00  0.00    +0.000 HD
ATOM      5  C   UNL     1      48.618  35.102  40.706  0.00  0.00    +0.000 A 
ATOM      6  H   UNL     1      49.699  35.013  40.561  0.00  0.00    +0.000 HD
ATOM      7  C   UNL     1      47.931  35.392  39.525  0.00  0.00    +0.000 A 
ATOM      8  C   UNL     1      46.562  35.539  39.529  0.00  0.00    +0.000 A 
ENDROOT
BRANCH   2  11
ATOM      9  C   UNL     1      44.559  35.621  45.063  0.00  0.00    +0.000 A 
ATOM     10  C   UNL     1      45.025  35.886  43.773  0.00  0.00    +0.000 A 
ATOM     11  C   UNL     1      45.974  34.982  43.238  0.00  0.00    +0.000 A 
ATOM     12  N   UNL     1      46.374  33.917  44.005  0.00  0.00    +0.000 NA
ATOM     13  C   UNL     1      45.889  33.711  45.244  0.00  0.00    +0.000 A 
ATOM     14  N   UNL     1      44.992  34.560  45.758  0.00  0.00    +0.000 NA
ATOM     15  H   UNL     1      43.838  36.310  45.464  0.00  0.00    +0.000 HD
ATOM     16  H   UNL     1      46.217  32.865  45.828  0.00  0.00    +0.000 HD
BRANCH  10  17
ATOM     17  O   UNL     1      44.634  36.959  42.987  0.00  0.00    +0.000 OA
ATOM     18  H   UNL     1      45.200  37.782  42.961  0.00  0.00    +0.000 HD
ENDBRANCH  10  17
ENDBRANCH   2  11
BRANCH   1  20
ATOM     19  N   UNL     1      43.848  35.089  39.702  0.00  0.00    +0.000 NA
ATOM     20  C   UNL     1      44.498  35.502  40.773  0.00  0.00    +0.000 C 
ATOM     21  N   UNL     1      43.369  35.905  41.517  0.00  0.00    +0.000 N 
ATOM     22  H   UNL     1      44.300  34.694  38.866  0.00  0.00    +0.000 HD
ATOM     23  H   UNL     1      42.814  36.798  41.331  0.00  0.00    +0.000 HD
ATOM     24  H   UNL     1      43.103  35.239  42.285  0.00  0.00    +0.000 HD
ENDBRANCH   1  20
TORSDOF 3
