REMARK  Name = 
REMARK  3 active torsions:
REMARK  status: ('A' for Active; 'I' for Inactive)
REMARK    1  A    between atoms: C_2  and  O_7
REMARK    2  A    between atoms: C_3  and  C_15
REMARK    3  A    between atoms: C_12  and  C_14
REMARK                            x       y       z     vdW  Elec       q    Type
REMARK                         _______ _______ _______ _____ _____    ______ ____
ROOT
ATOM      1  C   UNL     1      47.886  35.251  41.611  0.00  0.00    +0.000 A 
ATOM      2  C   UNL     1      46.571  35.108  41.916  0.00  0.00    +0.000 A 
ATOM      3  C   UNL     1      45.636  35.023  40.875  0.00  0.00    +0.000 A 
ATOM      4  H   UNL     1      44.566  34.910  40.920  0.00  0.00    +0.000 HD
ATOM      5  C   UNL     1      46.126  35.090  39.580  0.00  0.00    +0.000 A 
ATOM      6  H   UNL     1      45.516  35.033  38.674  0.00  0.00    +0.000 HD
ATOM      7  C   UNL     1      47.489  35.235  39.310  0.00  0.00    +0.000 A 
ATOM      8  C   UNL     1      48.401  35.320  40.338  0.00  0.00    +0.000 A 
ENDROOT
BRANCH   2  11
ATOM      9  C   UNL     1      44.559  35.621  45.063  0.00  0.00    +0.000 A 
ATOM     10  C   UNL     1      45.025  35.886  43.773  0.00  0.00    +0.000 A 
ATOM     11  C   UNL     1      45.974  34.982  43.238  0.00  0.00    +0.000 A 
ATOM     12  N   UNL     1      46.374  33.917  44.005  0.00  0.00    +0.000 NA
ATOM     13  C   UNL     1      45.889  33.711  45.244  0.00  0.00    +0.000 A 
ATOM     14  N   UNL     1      44.992  34.560  45.758  0.00  0.00    +0.000 NA
ATOM     15  H   UNL     1      43.838  36.310  45.464  0.00  0.00    +0.000 HD
ATOM     16  H   UNL     1      46.217  32.865  45.828  0.00  0.00    +0.000 HD
BRANCH  10  17
ATOM     17  O   UNL     1      44.634  36.959  42.987  0.00  0.00    +0.000 OA
ATOM     18  H   UNL     1      45.200  37.782  42.961  0.00  0.00    +0.000 HD
ENDBRANCH  10  17
ENDBRANCH   2  11
BRANCH   1  20
ATOM     19  N   UNL     1      49.866  36.153  42.521  0.00  0.00    +0.000 NA
ATOM     20  C   UNL     1      48.819  35.373  42.712  0.00  0.00    +0.000 C 
ATOM     21  N   UNL     1      49.131  34.983  44.031  0.00  0.00    +0.000 N 
ATOM     22  H   UNL     1      50.051  36.670  41.651  0.00  0.00    +0.000 HD
ATOM     23  H   UNL     1      49.888  34.274  44.285  0.00  0.00    +0.000 HD
ATOM     24  H   UNL     1      48.553  35.461  44.766  0.00  0.00    +0.000 HD
ENDBRANCH   1  20
TORSDOF 3
