
 OpenBabel03242512253D

 25 27  0  0  1  0  0  0  0  0999 V2000
   45.5690   30.9720   46.9370 C   0  0  0  0  0  0  0  0  0  0  0  0
   45.7350   32.3280   47.0610 C   0  0  0  0  0  0  0  0  0  0  0  0
   45.8400   32.8660   48.3250 C   0  0  0  0  0  0  0  0  0  0  0  0
   45.9720   33.9230   48.5140 H   0  0  0  0  0  0  0  0  0  0  0  0
   45.7670   31.9690   49.3730 C   0  0  0  0  0  0  0  0  0  0  0  0
   45.8500   32.3950   50.3610 H   0  0  0  0  0  0  0  0  0  0  0  0
   45.6020   30.6030   49.2970 C   0  0  0  0  0  3  0  0  0  0  0  0
   45.5000   30.0910   48.0250 C   0  0  0  0  0  3  0  0  0  0  0  0
   45.1050   34.9160   44.4770 C   0  0  0  0  0  0  0  0  0  0  0  0
   46.1750   34.6770   43.6020 C   0  0  0  0  0  0  0  0  0  0  0  0
   47.0830   33.6440   43.9180 C   0  0  0  0  0  0  0  0  0  0  0  0
   46.8340   32.9560   45.0680 N   0  0  0  0  0  0  0  0  0  0  0  0
   45.8110   33.1940   45.8910 C   0  0  0  0  0  0  0  0  0  0  0  0
   44.9780   34.1710   45.5650 N   0  0  0  0  0  0  0  0  0  0  0  0
   44.1630   35.9540   44.1930 N   0  0  0  0  0  0  0  0  0  0  0  0
   46.2790   35.2770   42.7230 H   0  0  0  0  0  0  0  0  0  0  0  0
   47.9020   33.4460   43.2650 H   0  0  0  0  0  0  0  0  0  0  0  0
   44.2700   36.5690   43.3790 H   0  0  0  0  0  0  0  0  0  0  0  0
   43.3600   36.0960   44.8100 H   0  0  0  0  0  0  0  0  0  0  0  0
   45.0640   30.0290   44.4760 N   0  0  0  0  0  0  0  0  0  0  0  0
   45.4170   30.2920   45.6650 C   0  0  1  0  0  3  0  0  0  0  0  0
   46.1040   29.0330   45.4890 N   0  0  0  0  0  4  0  0  0  0  0  0
   44.4710   30.5510   43.8390 H   0  0  0  0  0  0  0  0  0  0  0  0
   45.9600   28.1030   45.9650 H   0  0  0  0  0  0  0  0  0  0  0  0
   46.6920   28.1950   45.2500 H   0  0  0  0  0  0  0  0  0  0  0  0
  1  2  2  0  0  0  0
  1  8  1  0  0  0  0
  2  3  1  0  0  0  0
  3  4  1  0  0  0  0
  3  5  2  0  0  0  0
  5  6  1  0  0  0  0
  7  5  1  0  0  0  0
  8  7  2  0  0  0  0
  9 14  1  0  0  0  0
 10 11  1  0  0  0  0
 10  9  2  0  0  0  0
 11 12  2  0  0  0  0
 12 13  1  0  0  0  0
 13  2  1  0  0  0  0
 14 13  2  0  0  0  0
 15  9  1  0  0  0  0
 15 19  1  0  0  0  0
 16 10  1  0  0  0  0
 17 11  1  0  0  0  0
 18 15  1  0  0  0  0
 20 22  1  0  0  0  0
 20 21  1  0  0  0  0
 21  1  1  6  0  0  0
 22 21  1  0  0  0  0
 22 24  1  0  0  0  0
 23 20  1  0  0  0  0
 25 22  1  0  0  0  0
M  END
>  <minimizedAffinity>
-4.73393059

>  <minimizedRMSD>
1.24179351

$$$$
