REMARK  Name = 
REMARK  4 active torsions:
REMARK  status: ('A' for Active; 'I' for Inactive)
REMARK    1  A    between atoms: N_1  and  C_8
REMARK    2  A    between atoms: C_5  and  C_14
REMARK    3  A    between atoms: C_18  and  C_36
REMARK    4  A    between atoms: C_33  and  C_35
REMARK                            x       y       z     vdW  Elec       q    Type
REMARK                         _______ _______ _______ _____ _____    ______ ____
ROOT
ATOM      1  F   UNL     1      44.162  35.082  40.648  0.00  0.00    +0.000 F 
ATOM      2  C   UNL     1      44.694  33.830  40.409  0.00  0.00    +0.000 A 
ATOM      3  C   UNL     1      46.023  33.662  40.692  0.00  0.00    +0.000 A 
ATOM      4  C   UNL     1      46.514  32.386  40.451  0.00  0.00    +0.000 A 
ATOM      5  C   UNL     1      45.693  31.390  39.962  0.00  0.00    +0.000 A 
ATOM      6  C   UNL     1      44.335  31.628  39.691  0.00  0.00    +0.000 A 
ATOM      7  C   UNL     1      43.826  32.911  39.931  0.00  0.00    +0.000 A 
ATOM      8  H   UNL     1      47.536  32.107  40.626  0.00  0.00    +0.000 HD
ATOM      9  H   UNL     1      46.031  30.376  39.757  0.00  0.00    +0.000 HD
ATOM     10  H   UNL     1      43.657  30.875  39.308  0.00  0.00    +0.000 HD
ENDROOT
BRANCH   3  15
ATOM     11  N   UNL     1      47.284  34.558  42.593  0.00  0.00    +0.000 N 
ATOM     12  C   UNL     1      48.683  34.246  42.617  0.00  0.00    +0.000 C 
ATOM     13  C   UNL     1      49.160  35.248  41.593  0.00  0.00    +0.000 C 
ATOM     14  C   UNL     1      48.210  34.870  40.446  0.00  0.00    +0.000 C 
ATOM     15  C   UNL     1      46.924  34.703  41.178  0.00  0.00    +0.000 C 
ATOM     16  H   UNL     1      48.931  33.219  42.334  0.00  0.00    +0.000 HD
ATOM     17  H   UNL     1      49.114  34.552  43.602  0.00  0.00    +0.000 HD
ATOM     18  H   UNL     1      48.970  36.269  41.938  0.00  0.00    +0.000 HD
ATOM     19  H   UNL     1      50.215  35.057  41.306  0.00  0.00    +0.000 HD
ATOM     20  H   UNL     1      48.202  35.634  39.648  0.00  0.00    +0.000 HD
ATOM     21  H   UNL     1      48.574  33.876  40.099  0.00  0.00    +0.000 HD
ATOM     22  H   UNL     1      46.370  35.685  41.165  0.00  0.00    +0.000 HD
BRANCH  11  25
ATOM     23  C   UNL     1      44.497  35.841  44.702  0.00  0.00    +0.000 A 
ATOM     24  C   UNL     1      45.381  35.742  43.636  0.00  0.00    +0.000 A 
ATOM     25  C   UNL     1      46.344  34.726  43.638  0.00  0.00    +0.000 A 
ATOM     26  N   UNL     1      46.354  33.892  44.691  0.00  0.00    +0.000 NA
ATOM     27  C   UNL     1      45.496  33.990  45.721  0.00  0.00    +0.000 A 
ATOM     28  N   UNL     1      44.558  34.978  45.723  0.00  0.00    +0.000 NA
ATOM     29  H   UNL     1      43.785  36.661  44.611  0.00  0.00    +0.000 HD
ATOM     30  H   UNL     1      45.369  36.419  42.787  0.00  0.00    +0.000 HD
ATOM     31  H   UNL     1      45.536  33.292  46.559  0.00  0.00    +0.000 HD
ENDBRANCH  11  25
ENDBRANCH   3  15
BRANCH   7  33
ATOM     32  C   UNL     1      41.899  33.002  38.374  0.00  0.00    +0.000 A 
ATOM     33  C   UNL     1      42.419  33.165  39.653  0.00  0.00    +0.000 A 
ATOM     34  C   UNL     1      41.554  33.581  40.662  0.00  0.00    +0.000 A 
ATOM     35  H   UNL     1      41.953  33.709  41.656  0.00  0.00    +0.000 HD
ATOM     36  C   UNL     1      40.205  33.837  40.455  0.00  0.00    +0.000 A 
ATOM     37  H   UNL     1      39.582  34.158  41.282  0.00  0.00    +0.000 HD
ATOM     38  C   UNL     1      39.694  33.674  39.186  0.00  0.00    +0.000 A 
ATOM     39  C   UNL     1      40.563  33.260  38.187  0.00  0.00    +0.000 A 
BRANCH  32  41
ATOM     40  N   UNL     1      44.012  32.849  37.220  0.00  0.00    +0.000 NA
ATOM     41  C   UNL     1      42.749  32.569  37.271  0.00  0.00    +0.000 C 
ATOM     42  N   UNL     1      42.123  31.818  36.240  0.00  0.00    +0.000 N 
ATOM     43  H   UNL     1      44.517  32.483  36.377  0.00  0.00    +0.000 HD
ATOM     44  H   UNL     1      41.363  32.324  35.721  0.00  0.00    +0.000 HD
ATOM     45  H   UNL     1      41.963  30.972  35.640  0.00  0.00    +0.000 HD
ENDBRANCH  32  41
ENDBRANCH   7  33
TORSDOF 4
