
 OpenBabel03242521253D

 47 50  0  0  0  0  0  0  0  0999 V2000
   45.3150   33.7530   45.6280 C   0  0  0  0  0  0  0  0  0  0  0  0
   44.8050   34.9840   45.9220 C   0  0  0  0  0  0  0  0  0  0  0  0
   44.4050   35.8960   44.9700 C   0  0  0  0  0  0  0  0  0  0  0  0
   44.5480   35.4960   43.6810 N   0  0  0  0  0  0  0  0  0  0  0  0
   45.0480   34.2890   43.3870 C   0  0  0  0  0  0  0  0  0  0  0  0
   45.4310   33.4160   44.3260 N   0  0  0  0  0  0  0  0  0  0  0  0
   44.7060   35.2690   46.9600 H   0  0  0  0  0  0  0  0  0  0  0  0
   44.0040   36.8630   45.2050 H   0  0  0  0  0  0  0  0  0  0  0  0
   45.1900   33.8810   41.9720 C   0  0  0  0  0  0  0  0  0  0  0  0
   44.1660   33.2330   41.3410 C   0  0  0  0  0  0  0  0  0  0  0  0
   44.1890   32.8090   40.0290 C   0  0  0  0  0  0  0  0  0  0  0  0
   45.3600   33.0750   39.3160 C   0  0  0  0  0  0  0  0  0  0  0  0
   46.3890   33.7200   39.9340 C   0  0  0  0  0  0  0  0  0  0  0  0
   46.3380   34.1320   41.2480 C   0  0  0  0  0  0  0  0  0  0  0  0
   43.2530   33.0290   41.9020 H   0  0  0  0  0  0  0  0  0  0  0  0
   43.3340   32.3010   39.5990 H   0  0  0  0  0  0  0  0  0  0  0  0
   45.4010   32.7520   38.2890 H   0  0  0  0  0  0  0  0  0  0  0  0
   47.3150   33.9450   39.4140 H   0  0  0  0  0  0  0  0  0  0  0  0
   47.3620   34.7870   41.9030 O   0  0  0  0  0  0  0  0  0  0  0  0
   49.8030   35.4350   42.5650 O   0  0  0  0  0  0  0  0  0  0  0  0
   48.9830   34.8380   41.4300 P   0  0  0  0  0  0  0  0  0  0  0  0
   49.6130   33.3500   40.9640 O   0  0  0  0  0  0  0  0  0  0  0  0
   50.3190   33.4230   40.2950 H   0  0  0  0  0  0  0  0  0  0  0  0
   49.1270   35.8950   40.1130 O   0  0  0  0  0  0  0  0  0  0  0  0
   49.9130   35.6240   39.6020 H   0  0  0  0  0  0  0  0  0  0  0  0
   45.7260   32.2120   48.9180 C   0  0  0  0  0  0  0  0  0  0  0  0
   46.4940   31.0770   48.6030 C   0  0  0  0  0  0  0  0  0  0  0  0
   46.8640   30.8440   47.2950 C   0  0  0  0  0  0  0  0  0  0  0  0
   46.4550   31.7510   46.3520 N   0  0  0  0  0  0  0  0  0  0  0  0
   45.7210   32.8300   46.6700 C   0  0  0  0  0  0  0  0  0  0  0  0
   45.3670   33.0490   47.9350 N   0  0  0  0  0  0  0  0  0  0  0  0
   45.4060   32.4440   49.9350 H   0  0  0  0  0  0  0  0  0  0  0  0
   46.7210   30.4820   49.4690 H   0  0  0  0  0  0  0  0  0  0  0  0
   47.1290   28.4620   46.5930 C   0  0  0  0  0  0  0  0  0  0  0  0
   47.6530   29.6680   46.9900 C   0  0  0  0  0  0  0  0  0  0  0  0
   49.0220   29.6660   47.0740 C   0  0  0  0  0  0  0  0  0  0  0  0
   49.5940   30.5280   47.3710 H   0  0  0  0  0  0  0  0  0  0  0  0
   49.7880   28.5580   46.7860 C   0  0  0  0  0  0  0  0  0  0  0  0
   50.8630   28.5740   46.8580 H   0  0  0  0  0  0  0  0  0  0  0  0
   49.2280   27.3710   46.3920 C   0  0  0  0  0  3  0  0  0  0  0  0
   47.8550   27.3300   46.2940 C   0  0  0  0  0  3  0  0  0  0  0  0
   44.5430   28.0210   46.9280 N   0  0  0  0  0  0  0  0  0  0  0  0
   45.7060   28.2810   46.4710 C   0  0  0  0  0  0  0  0  0  0  0  0
   45.0630   28.4600   45.1980 N   0  0  0  0  0  0  0  0  0  0  0  0
   43.7240   28.0400   46.2940 H   0  0  0  0  0  0  0  0  0  0  0  0
   45.0720   27.7540   44.4230 H   0  0  0  0  0  0  0  0  0  0  0  0
   44.5300   28.8190   44.3770 H   0  0  0  0  0  0  0  0  0  0  0  0
  1  2  1  0  0  0  0
  1 30  1  0  0  0  0
  2  7  1  0  0  0  0
  3  8  1  0  0  0  0
  3  2  2  0  0  0  0
  4  3  1  0  0  0  0
  5  4  2  0  0  0  0
  5  6  1  0  0  0  0
  6  1  2  0  0  0  0
  9  5  1  0  0  0  0
 10 15  1  0  0  0  0
 10  9  1  0  0  0  0
 11 10  2  0  0  0  0
 12 13  2  0  0  0  0
 12 11  1  0  0  0  0
 13 14  1  0  0  0  0
 14 19  1  0  0  0  0
 14  9  2  0  0  0  0
 16 11  1  0  0  0  0
 17 12  1  0  0  0  0
 18 13  1  0  0  0  0
 21 19  1  0  0  0  0
 21 20  2  0  0  0  0
 22 21  1  0  0  0  0
 23 22  1  0  0  0  0
 24 21  1  0  0  0  0
 25 24  1  0  0  0  0
 26 32  1  0  0  0  0
 27 26  1  0  0  0  0
 27 33  1  0  0  0  0
 28 27  2  0  0  0  0
 29 30  2  0  0  0  0
 29 28  1  0  0  0  0
 30 31  1  0  0  0  0
 31 26  2  0  0  0  0
 34 35  1  0  0  0  0
 35 36  2  0  0  0  0
 35 28  1  0  0  0  0
 36 37  1  0  0  0  0
 38 39  1  0  0  0  0
 38 36  1  0  0  0  0
 40 38  2  0  0  0  0
 41 40  1  0  0  0  0
 41 34  2  0  0  0  0
 43 34  1  0  0  0  0
 43 42  2  0  0  0  0
 44 43  1  0  0  0  0
 45 42  1  0  0  0  0
 46 44  1  0  0  0  0
 47 44  1  0  0  0  0
M  END
>  <minimizedAffinity>
-6.24867439

>  <minimizedRMSD>
1.25859201

$$$$
