
 OpenBabel03252506323D

 37 39  0  0  1  0  0  0  0  0999 V2000
   44.5910   35.6960   44.8670 C   0  0  0  0  0  0  0  0  0  0  0  0
   44.6770   35.3270   43.5040 C   0  0  0  0  0  0  0  0  0  0  0  0
   45.1080   34.0410   43.1740 C   0  0  0  0  0  0  0  0  0  0  0  0
   45.4220   33.2190   44.2050 N   0  0  0  0  0  0  0  0  0  0  0  0
   45.3290   33.6040   45.4950 C   0  0  0  0  0  0  0  0  0  0  0  0
   44.9200   34.8250   45.8400 N   0  0  0  0  0  0  0  0  0  0  0  0
   45.7040   32.6350   46.4660 N   0  0  0  0  0  0  0  0  0  0  0  0
   45.3820   32.7690   47.8990 C   0  0  0  0  0  0  0  0  0  0  0  0
   46.5650   32.1200   48.5360 C   0  0  0  0  0  0  0  0  0  0  0  0
   47.4450   31.5580   47.4130 C   0  0  0  0  0  0  0  0  0  0  0  0
   46.4100   31.4080   46.3620 C   0  0  2  0  0  0  0  0  0  0  0  0
   44.2620   36.6800   45.1730 H   0  0  0  0  0  0  0  0  0  0  0  0
   45.1590   33.7990   42.1280 H   0  0  0  0  0  0  0  0  0  0  0  0
   45.3920   33.8520   48.1440 H   0  0  0  0  0  0  0  0  0  0  0  0
   44.4150   32.2840   48.1310 H   0  0  0  0  0  0  0  0  0  0  0  0
   47.1290   32.7640   49.2330 H   0  0  0  0  0  0  0  0  0  0  0  0
   46.2390   31.2500   49.1790 H   0  0  0  0  0  0  0  0  0  0  0  0
   48.1830   32.3650   47.2870 H   0  0  0  0  0  0  0  0  0  0  0  0
   47.9010   30.6010   47.7400 H   0  0  0  0  0  0  0  0  0  0  0  0
   45.6720   30.6550   46.8470 H   0  0  0  0  0  0  0  0  0  0  0  0
   46.0060   29.9760   44.3350 C   0  0  0  0  0  0  0  0  0  0  0  0
   46.7630   30.8290   45.1110 C   0  0  0  0  0  0  0  0  0  0  0  0
   48.0070   31.0640   44.5010 C   0  0  0  0  0  0  0  0  0  0  0  0
   48.7200   31.7330   45.0140 H   0  0  0  0  0  0  0  0  0  0  0  0
   48.4160   30.5290   43.3110 C   0  0  0  0  0  0  0  0  0  0  0  0
   49.3950   30.7740   42.9300 H   0  0  0  0  0  0  0  0  0  0  0  0
   47.5990   29.6860   42.5990 C   0  0  0  0  0  3  0  0  0  0  0  0
   46.3800   29.4100   43.1250 C   0  0  0  0  0  3  0  0  0  0  0  0
   43.8750   29.0520   45.5870 N   0  0  0  0  0  0  0  0  0  0  0  0
   44.6750   29.5780   44.7330 C   0  0  0  0  0  0  0  0  0  0  0  0
   43.5390   29.7910   43.9000 N   0  0  0  0  0  0  0  0  0  0  0  0
   42.8600   29.0290   45.2980 H   0  0  0  0  0  0  0  0  0  0  0  0
   42.6300   30.2110   43.6340 H   0  0  0  0  0  0  0  0  0  0  0  0
   43.5410   29.2360   43.0130 H   0  0  0  0  0  0  0  0  0  0  0  0
   44.3020   36.3340   42.5540 N   0  0  0  0  0  0  0  0  0  0  0  0
   45.0050   36.8380   41.9710 H   0  0  0  0  0  0  0  0  0  0  0  0
   43.2710   36.5060   42.5120 H   0  0  0  0  0  0  0  0  0  0  0  0
  1 12  1  0  0  0  0
  1  6  1  0  0  0  0
  2  1  2  0  0  0  0
  3  2  1  0  0  0  0
  3  4  2  0  0  0  0
  4  5  1  0  0  0  0
  5  6  2  0  0  0  0
  5  7  1  0  0  0  0
  7  8  1  0  0  0  0
  8 15  1  0  0  0  0
  8 14  1  0  0  0  0
  8  9  1  0  0  0  0
  9 17  1  0  0  0  0
  9 16  1  0  0  0  0
 10 19  1  0  0  0  0
 10  9  1  0  0  0  0
 11  7  1  0  0  0  0
 11 20  1  1  0  0  0
 11 10  1  0  0  0  0
 13  3  1  0  0  0  0
 18 10  1  0  0  0  0
 21 30  1  0  0  0  0
 21 22  1  0  0  0  0
 22 11  1  0  0  0  0
 23 24  1  0  0  0  0
 23 22  2  0  0  0  0
 25 23  1  0  0  0  0
 26 25  1  0  0  0  0
 27 28  1  0  0  0  0
 27 25  2  0  0  0  0
 28 21  2  0  0  0  0
 30 29  2  0  0  0  0
 31 30  1  0  0  0  0
 32 29  1  0  0  0  0
 33 31  1  0  0  0  0
 34 31  1  0  0  0  0
 35  2  1  0  0  0  0
 36 35  1  0  0  0  0
 37 35  1  0  0  0  0
M  END
>  <minimizedAffinity>
-4.98512173

>  <minimizedRMSD>
2.58390141

$$$$
