
 OpenBabel03252506323D

 37 39  0  0  1  0  0  0  0  0999 V2000
   44.5910   35.6960   44.8660 C   0  0  0  0  0  0  0  0  0  0  0  0
   44.6770   35.3260   43.5040 C   0  0  0  0  0  0  0  0  0  0  0  0
   45.1080   34.0400   43.1730 C   0  0  0  0  0  0  0  0  0  0  0  0
   45.4220   33.2190   44.2050 N   0  0  0  0  0  0  0  0  0  0  0  0
   45.3290   33.6040   45.4940 C   0  0  0  0  0  0  0  0  0  0  0  0
   44.9210   34.8250   45.8400 N   0  0  0  0  0  0  0  0  0  0  0  0
   45.7040   32.6350   46.4660 N   0  0  0  0  0  0  0  0  0  0  0  0
   45.3830   32.7690   47.8990 C   0  0  0  0  0  0  0  0  0  0  0  0
   46.5650   32.1200   48.5350 C   0  0  0  0  0  0  0  0  0  0  0  0
   47.4450   31.5580   47.4120 C   0  0  0  0  0  0  0  0  0  0  0  0
   46.4100   31.4080   46.3620 C   0  0  2  0  0  0  0  0  0  0  0  0
   44.2630   36.6800   45.1720 H   0  0  0  0  0  0  0  0  0  0  0  0
   45.1590   33.7980   42.1270 H   0  0  0  0  0  0  0  0  0  0  0  0
   45.3930   33.8520   48.1430 H   0  0  0  0  0  0  0  0  0  0  0  0
   44.4150   32.2850   48.1310 H   0  0  0  0  0  0  0  0  0  0  0  0
   47.1300   32.7650   49.2330 H   0  0  0  0  0  0  0  0  0  0  0  0
   46.2390   31.2500   49.1780 H   0  0  0  0  0  0  0  0  0  0  0  0
   48.1830   32.3650   47.2870 H   0  0  0  0  0  0  0  0  0  0  0  0
   47.9020   30.6010   47.7400 H   0  0  0  0  0  0  0  0  0  0  0  0
   45.6730   30.6550   46.8460 H   0  0  0  0  0  0  0  0  0  0  0  0
   46.0060   29.9750   44.3360 C   0  0  0  0  0  0  0  0  0  0  0  0
   46.7630   30.8280   45.1100 C   0  0  0  0  0  0  0  0  0  0  0  0
   48.0070   31.0630   44.5000 C   0  0  0  0  0  0  0  0  0  0  0  0
   48.7200   31.7310   45.0120 H   0  0  0  0  0  0  0  0  0  0  0  0
   48.4150   30.5280   43.3110 C   0  0  0  0  0  0  0  0  0  0  0  0
   49.3930   30.7720   42.9280 H   0  0  0  0  0  0  0  0  0  0  0  0
   47.5980   29.6840   42.5980 C   0  0  0  0  0  3  0  0  0  0  0  0
   46.3790   29.4090   43.1250 C   0  0  0  0  0  3  0  0  0  0  0  0
   43.8750   29.0520   45.5880 N   0  0  0  0  0  0  0  0  0  0  0  0
   44.6750   29.5780   44.7340 C   0  0  0  0  0  0  0  0  0  0  0  0
   43.5380   29.7890   43.9010 N   0  0  0  0  0  0  0  0  0  0  0  0
   42.8600   29.0290   45.2990 H   0  0  0  0  0  0  0  0  0  0  0  0
   42.6300   30.2090   43.6340 H   0  0  0  0  0  0  0  0  0  0  0  0
   43.5400   29.2330   43.0140 H   0  0  0  0  0  0  0  0  0  0  0  0
   44.3020   36.3340   42.5540 N   0  0  0  0  0  0  0  0  0  0  0  0
   45.0050   36.8370   41.9710 H   0  0  0  0  0  0  0  0  0  0  0  0
   43.2710   36.5050   42.5120 H   0  0  0  0  0  0  0  0  0  0  0  0
  1 12  1  0  0  0  0
  1  6  1  0  0  0  0
  2  1  2  0  0  0  0
  3  2  1  0  0  0  0
  3  4  2  0  0  0  0
  4  5  1  0  0  0  0
  5  6  2  0  0  0  0
  5  7  1  0  0  0  0
  7  8  1  0  0  0  0
  8 15  1  0  0  0  0
  8 14  1  0  0  0  0
  8  9  1  0  0  0  0
  9 17  1  0  0  0  0
  9 16  1  0  0  0  0
 10 19  1  0  0  0  0
 10  9  1  0  0  0  0
 11  7  1  0  0  0  0
 11 20  1  1  0  0  0
 11 10  1  0  0  0  0
 13  3  1  0  0  0  0
 18 10  1  0  0  0  0
 21 30  1  0  0  0  0
 21 22  1  0  0  0  0
 22 11  1  0  0  0  0
 23 24  1  0  0  0  0
 23 22  2  0  0  0  0
 25 23  1  0  0  0  0
 26 25  1  0  0  0  0
 27 28  1  0  0  0  0
 27 25  2  0  0  0  0
 28 21  2  0  0  0  0
 30 29  2  0  0  0  0
 31 30  1  0  0  0  0
 32 29  1  0  0  0  0
 33 31  1  0  0  0  0
 34 31  1  0  0  0  0
 35  2  1  0  0  0  0
 36 35  1  0  0  0  0
 37 35  1  0  0  0  0
M  END
>  <minimizedAffinity>
-4.98545742

>  <minimizedRMSD>
1.62925875

$$$$
