
 OpenBabel03252502053D

 51 55  0  0  0  0  0  0  0  0999 V2000
   45.4200   33.6030   45.0000 C   0  0  0  0  0  0  0  0  0  0  0  0
   44.9540   34.6530   45.7300 N   0  0  0  0  0  0  0  0  0  0  0  0
   44.4590   35.7800   45.2200 C   0  0  0  0  0  0  0  0  0  0  0  0
   44.4020   35.9250   43.8790 N   0  0  0  0  0  0  0  0  0  0  0  0
   44.8340   34.9560   43.0530 C   0  0  0  0  0  0  0  0  0  0  0  0
   44.7520   35.1240   41.7010 C   0  0  0  0  0  0  0  0  0  0  0  0
   45.1790   34.1230   40.8510 C   0  0  0  0  0  0  0  0  0  0  0  0
   45.6880   32.9600   41.4190 C   0  0  0  0  0  0  0  0  0  0  0  0
   45.7430   32.8590   42.7990 C   0  0  0  0  0  0  0  0  0  0  0  0
   45.3290   33.8260   43.6570 C   0  0  0  0  0  0  0  0  0  0  0  0
   44.1230   36.5340   45.9260 H   0  0  0  0  0  0  0  0  0  0  0  0
   44.3380   36.0760   41.3500 H   0  0  0  0  0  0  0  0  0  0  0  0
   45.0550   34.3850   39.8010 H   0  0  0  0  0  0  0  0  0  0  0  0
   45.9650   32.3070   40.6070 H   0  0  0  0  0  0  0  0  0  0  0  0
   47.8940   31.6090   46.6790 C   0  0  0  0  0  0  0  0  0  0  0  0
   47.3430   30.3450   46.8510 C   0  0  0  0  0  0  0  0  0  0  0  0
   46.0820   30.1660   46.3920 C   0  0  0  0  0  0  0  0  0  0  0  0
   45.4230   31.1700   45.8010 N   0  0  0  0  0  0  0  0  0  0  0  0
   45.9450   32.3890   45.6240 C   0  0  0  0  0  0  0  0  0  0  0  0
   47.1940   32.5620   46.0890 N   0  0  0  0  0  0  0  0  0  0  0  0
   45.4330   28.9490   46.5340 N   0  0  0  0  0  0  0  0  0  0  0  0
   43.9890   28.7190   46.3090 C   0  0  0  0  0  0  0  0  0  0  0  0
   43.8010   27.2280   46.3430 C   0  0  0  0  0  0  0  0  0  0  0  0
   44.9380   26.7480   47.1960 C   0  0  0  0  0  0  0  0  0  0  0  0
   46.0410   27.7080   46.9310 C   0  0  0  0  0  0  0  0  0  0  0  0
   48.9130   31.7660   47.0520 H   0  0  0  0  0  0  0  0  0  0  0  0
   43.7850   29.0580   45.2760 H   0  0  0  0  0  0  0  0  0  0  0  0
   43.3930   29.2730   47.0580 H   0  0  0  0  0  0  0  0  0  0  0  0
   43.7980   26.7590   45.3530 H   0  0  0  0  0  0  0  0  0  0  0  0
   42.8000   27.0280   46.8260 H   0  0  0  0  0  0  0  0  0  0  0  0
   45.1950   25.7130   46.8780 H   0  0  0  0  0  0  0  0  0  0  0  0
   44.5710   26.6820   48.2210 H   0  0  0  0  0  0  0  0  0  0  0  0
   46.7170   27.3290   46.1620 H   0  0  0  0  0  0  0  0  0  0  0  0
   46.5090   27.7520   47.9630 H   0  0  0  0  0  0  0  0  0  0  0  0
   48.1210   29.3330   47.4130 N   0  0  0  0  0  0  0  0  0  0  0  0
   48.6330   28.5360   46.9620 H   0  0  0  0  0  0  0  0  0  0  0  0
   48.2090   29.3750   48.4620 H   0  0  0  0  0  0  0  0  0  0  0  0
   47.6860   31.2880   43.0880 C   0  0  0  0  0  0  0  0  0  0  0  0
   46.3240   31.5390   42.9900 C   0  0  0  0  0  0  0  0  0  0  0  0
   45.5630   30.3520   43.0260 C   0  0  0  0  0  0  0  0  0  0  0  0
   44.4760   30.5090   42.9490 H   0  0  0  0  0  0  0  0  0  0  0  0
   46.1500   29.1130   43.1480 C   0  0  0  0  0  0  0  0  0  0  0  0
   45.4200   28.3150   43.1590 H   0  0  0  0  0  0  0  0  0  0  0  0
   47.5170   28.9800   43.2390 C   0  0  0  0  0  3  0  0  0  0  0  0
   48.3380   30.0850   43.2120 C   0  0  0  0  0  3  0  0  0  0  0  0
   48.8970   33.6270   43.4100 N   0  0  0  0  0  0  0  0  0  0  0  0
   48.5590   32.4530   43.0340 C   0  0  0  0  0  0  0  0  0  0  0  0
   49.6680   32.5030   42.1660 N   0  0  0  0  0  0  0  0  0  0  0  0
   48.3500   34.1120   44.1220 H   0  0  0  0  0  0  0  0  0  0  0  0
   50.0200   31.8800   41.4070 H   0  0  0  0  0  0  0  0  0  0  0  0
   50.4870   32.5550   41.5360 H   0  0  0  0  0  0  0  0  0  0  0  0
  1 19  1  0  0  0  0
  1  2  1  0  0  0  0
  3  2  2  0  0  0  0
  3 11  1  0  0  0  0
  4  3  1  0  0  0  0
  5 10  1  0  0  0  0
  5  4  2  0  0  0  0
  6  5  1  0  0  0  0
  7  8  1  0  0  0  0
  7  6  2  0  0  0  0
  8  9  2  0  0  0  0
  9 39  1  0  0  0  0
  9 10  1  0  0  0  0
 10  1  2  0  0  0  0
 12  6  1  0  0  0  0
 13  7  1  0  0  0  0
 14  8  1  0  0  0  0
 15 16  1  0  0  0  0
 15 26  1  0  0  0  0
 16 35  1  0  0  0  0
 17 21  1  0  0  0  0
 17 16  2  0  0  0  0
 18 17  1  0  0  0  0
 19 18  2  0  0  0  0
 19 20  1  0  0  0  0
 20 15  2  0  0  0  0
 21 25  1  0  0  0  0
 22 23  1  0  0  0  0
 22 21  1  0  0  0  0
 22 28  1  0  0  0  0
 23 30  1  0  0  0  0
 23 24  1  0  0  0  0
 24 32  1  0  0  0  0
 25 24  1  0  0  0  0
 25 34  1  0  0  0  0
 27 22  1  0  0  0  0
 29 23  1  0  0  0  0
 31 24  1  0  0  0  0
 33 25  1  0  0  0  0
 35 37  1  0  0  0  0
 36 35  1  0  0  0  0
 38 45  1  0  0  0  0
 39 40  1  0  0  0  0
 39 38  2  0  0  0  0
 40 42  2  0  0  0  0
 41 40  1  0  0  0  0
 42 43  1  0  0  0  0
 42 44  1  0  0  0  0
 45 44  2  0  0  0  0
 46 49  1  0  0  0  0
 47 38  1  0  0  0  0
 47 46  2  0  0  0  0
 48 47  1  0  0  0  0
 50 48  1  0  0  0  0
 51 48  1  0  0  0  0
M  END
>  <minimizedAffinity>
-5.14295673

>  <minimizedRMSD>
1.75417614

$$$$
