
 OpenBabel03252504053D

 24 25  0  0  0  0  0  0  0  0999 V2000
   36.7130   30.3070   39.3260 C   0  0  0  0  0  0  0  0  0  0  0  0
   37.6150   31.1380   38.7440 C   0  0  0  0  0  0  0  0  0  0  0  0
   37.7330   31.1440   37.3470 C   0  0  0  0  0  0  0  0  0  0  0  0
   38.3840   31.7240   36.7150 H   0  0  0  0  0  0  0  0  0  0  0  0
   36.9030   30.2870   36.6410 C   0  0  0  0  0  0  0  0  0  0  0  0
   36.8840   30.1890   35.5510 H   0  0  0  0  0  0  0  0  0  0  0  0
   35.9850   29.4510   37.2800 C   0  0  0  0  0  3  0  0  0  0  0  0
   35.8770   29.4490   38.6530 C   0  0  0  0  0  3  0  0  0  0  0  0
   39.0350   34.1570   40.5010 C   0  0  0  0  0  0  0  0  0  0  0  0
   38.0610   33.3500   39.9070 C   0  0  0  0  0  0  0  0  0  0  0  0
   38.4900   32.0990   39.4000 C   0  0  0  0  0  0  0  0  0  0  0  0
   39.8140   31.7590   39.5190 N   0  0  0  0  0  0  0  0  0  0  0  0
   40.7090   32.5780   40.1030 C   0  0  0  0  0  0  0  0  0  0  0  0
   40.3130   33.7620   40.5860 N   0  0  0  0  0  0  0  0  0  0  0  0
   38.7040   35.1040   40.8850 H   0  0  0  0  0  0  0  0  0  0  0  0
   41.7440   32.2880   40.1880 H   0  0  0  0  0  0  0  0  0  0  0  0
   36.7210   33.6800   39.7760 O   0  0  0  0  0  0  0  0  0  0  0  0
   36.3930   34.0710   38.9170 H   0  0  0  0  0  0  0  0  0  0  0  0
   35.6650   30.9930   41.3240 N   0  0  0  0  0  0  0  0  0  0  0  0
   36.6440   30.3010   40.7730 C   0  0  0  0  0  0  0  0  0  0  0  0
   37.2230   29.8340   41.9710 N   0  0  0  0  0  0  0  0  0  0  0  0
   34.9600   31.5240   40.7940 H   0  0  0  0  0  0  0  0  0  0  0  0
   37.8190   30.4330   42.6240 H   0  0  0  0  0  0  0  0  0  0  0  0
   37.0130   28.8270   42.1830 H   0  0  0  0  0  0  0  0  0  0  0  0
  1 20  1  0  0  0  0
  2  1  1  0  0  0  0
  2 11  1  0  0  0  0
  3  2  2  0  0  0  0
  4  3  1  0  0  0  0
  5  7  2  0  0  0  0
  5  3  1  0  0  0  0
  6  5  1  0  0  0  0
  7  8  1  0  0  0  0
  8  1  2  0  0  0  0
  9 14  1  0  0  0  0
  9 15  1  0  0  0  0
 10  9  2  0  0  0  0
 11 12  2  0  0  0  0
 11 10  1  0  0  0  0
 12 13  1  0  0  0  0
 13 16  1  0  0  0  0
 13 14  2  0  0  0  0
 17 10  1  0  0  0  0
 18 17  1  0  0  0  0
 20 19  2  0  0  0  0
 20 21  1  0  0  0  0
 21 24  1  0  0  0  0
 21 23  1  0  0  0  0
 22 19  1  0  0  0  0
M  END
>  <minimizedAffinity>
-5.582829

$$$$

 OpenBabel03252504053D

 24 25  0  0  0  0  0  0  0  0999 V2000
   36.7930   30.4860   38.3910 C   0  0  0  0  0  0  0  0  0  0  0  0
   37.0550   30.9770   39.6290 C   0  0  0  0  0  0  0  0  0  0  0  0
   36.2700   30.5540   40.7100 C   0  0  0  0  0  0  0  0  0  0  0  0
   36.3250   30.8300   41.7500 H   0  0  0  0  0  0  0  0  0  0  0  0
   35.2610   29.6420   40.4380 C   0  0  0  0  0  0  0  0  0  0  0  0
   34.5760   29.2230   41.1810 H   0  0  0  0  0  0  0  0  0  0  0  0
   35.0280   29.1590   39.1480 C   0  0  0  0  0  3  0  0  0  0  0  0
   35.8020   29.5820   38.0910 C   0  0  0  0  0  3  0  0  0  0  0  0
   39.1050   34.0410   40.4200 C   0  0  0  0  0  0  0  0  0  0  0  0
   37.9820   33.3060   40.0330 C   0  0  0  0  0  0  0  0  0  0  0  0
   38.1170   31.8960   40.0140 C   0  0  0  0  0  0  0  0  0  0  0  0
   39.3220   31.3450   40.3700 N   0  0  0  0  0  0  0  0  0  0  0  0
   40.3710   32.1050   40.7370 C   0  0  0  0  0  0  0  0  0  0  0  0
   40.2530   33.4380   40.7580 N   0  0  0  0  0  0  0  0  0  0  0  0
   38.9970   35.1100   40.4340 H   0  0  0  0  0  0  0  0  0  0  0  0
   41.3080   31.6490   41.0150 H   0  0  0  0  0  0  0  0  0  0  0  0
   36.7600   33.8470   39.6660 O   0  0  0  0  0  0  0  0  0  0  0  0
   36.5500   33.9770   38.6980 H   0  0  0  0  0  0  0  0  0  0  0  0
   38.5230   30.1560   36.8240 N   0  0  0  0  0  0  0  0  0  0  0  0
   37.6000   30.9740   37.2920 C   0  0  0  0  0  0  0  0  0  0  0  0
   37.8590   32.0490   36.4160 N   0  0  0  0  0  0  0  0  0  0  0  0
   38.6970   29.2090   37.1860 H   0  0  0  0  0  0  0  0  0  0  0  0
   38.6950   32.7080   36.5030 H   0  0  0  0  0  0  0  0  0  0  0  0
   37.1530   32.1520   35.6450 H   0  0  0  0  0  0  0  0  0  0  0  0
  1  2  1  0  0  0  0
  2 11  1  0  0  0  0
  2  3  2  0  0  0  0
  3  4  1  0  0  0  0
  5  3  1  0  0  0  0
  5  6  1  0  0  0  0
  7  5  2  0  0  0  0
  8  1  2  0  0  0  0
  8  7  1  0  0  0  0
  9 15  1  0  0  0  0
  9 14  1  0  0  0  0
 10  9  2  0  0  0  0
 11 10  1  0  0  0  0
 11 12  2  0  0  0  0
 12 13  1  0  0  0  0
 13 14  2  0  0  0  0
 13 16  1  0  0  0  0
 17 10  1  0  0  0  0
 18 17  1  0  0  0  0
 19 22  1  0  0  0  0
 19 20  2  0  0  0  0
 20  1  1  0  0  0  0
 21 23  1  0  0  0  0
 21 20  1  0  0  0  0
 24 21  1  0  0  0  0
M  END
>  <minimizedAffinity>
-5.44977617

$$$$

 OpenBabel03252504053D

 24 25  0  0  0  0  0  0  0  0999 V2000
   36.0680   30.0030   38.9220 C   0  0  0  0  0  0  0  0  0  0  0  0
   37.0600   30.7910   38.4330 C   0  0  0  0  0  0  0  0  0  0  0  0
   37.3920   30.7030   37.0740 C   0  0  0  0  0  0  0  0  0  0  0  0
   38.1400   31.2380   36.5130 H   0  0  0  0  0  0  0  0  0  0  0  0
   36.6690   29.8030   36.3050 C   0  0  0  0  0  0  0  0  0  0  0  0
   36.8170   29.6330   35.2340 H   0  0  0  0  0  0  0  0  0  0  0  0
   35.6530   29.0140   36.8480 C   0  0  0  0  0  3  0  0  0  0  0  0
   35.3340   29.1040   38.1850 C   0  0  0  0  0  3  0  0  0  0  0  0
   39.7100   32.6210   40.3930 C   0  0  0  0  0  0  0  0  0  0  0  0
   39.1050   31.5500   39.7300 C   0  0  0  0  0  0  0  0  0  0  0  0
   37.8350   31.7910   39.1520 C   0  0  0  0  0  0  0  0  0  0  0  0
   37.2820   33.0410   39.2750 N   0  0  0  0  0  0  0  0  0  0  0  0
   37.9130   34.0360   39.9260 C   0  0  0  0  0  0  0  0  0  0  0  0
   39.1130   33.8180   40.4750 N   0  0  0  0  0  0  0  0  0  0  0  0
   40.6740   32.4330   40.8290 H   0  0  0  0  0  0  0  0  0  0  0  0
   37.4590   35.0120   40.0080 H   0  0  0  0  0  0  0  0  0  0  0  0
   39.6490   30.2820   39.6000 O   0  0  0  0  0  0  0  0  0  0  0  0
   39.3750   29.5610   40.2360 H   0  0  0  0  0  0  0  0  0  0  0  0
   35.4620   28.9700   40.9530 N   0  0  0  0  0  0  0  0  0  0  0  0
   35.7770   30.0940   40.3370 C   0  0  0  0  0  0  0  0  0  0  0  0
   35.6700   30.9420   41.4590 N   0  0  0  0  0  0  0  0  0  0  0  0
   35.4150   28.0510   40.4930 H   0  0  0  0  0  0  0  0  0  0  0  0
   34.7450   31.2640   41.8840 H   0  0  0  0  0  0  0  0  0  0  0  0
   36.5950   31.2370   41.8620 H   0  0  0  0  0  0  0  0  0  0  0  0
  1 20  1  0  0  0  0
  2  1  1  0  0  0  0
  2 11  1  0  0  0  0
  3  2  2  0  0  0  0
  4  3  1  0  0  0  0
  5  7  2  0  0  0  0
  5  3  1  0  0  0  0
  6  5  1  0  0  0  0
  7  8  1  0  0  0  0
  8  1  2  0  0  0  0
  9 14  1  0  0  0  0
  9 15  1  0  0  0  0
 10  9  2  0  0  0  0
 11 12  2  0  0  0  0
 11 10  1  0  0  0  0
 12 13  1  0  0  0  0
 13 16  1  0  0  0  0
 13 14  2  0  0  0  0
 17 10  1  0  0  0  0
 17 18  1  0  0  0  0
 20 19  2  0  0  0  0
 20 21  1  0  0  0  0
 21 24  1  0  0  0  0
 21 23  1  0  0  0  0
 22 19  1  0  0  0  0
M  END
>  <minimizedAffinity>
-5.16222858

$$$$

 OpenBabel03252504053D

 24 25  0  0  0  0  0  0  0  0999 V2000
   37.4690   29.1650   42.1010 C   0  0  0  0  0  0  0  0  0  0  0  0
   38.7080   29.3980   41.5970 C   0  0  0  0  0  0  0  0  0  0  0  0
   39.8060   28.7250   42.1490 C   0  0  0  0  0  0  0  0  0  0  0  0
   40.8490   28.7810   41.8870 H   0  0  0  0  0  0  0  0  0  0  0  0
   39.5480   27.8480   43.1920 C   0  0  0  0  0  0  0  0  0  0  0  0
   40.3050   27.2550   43.7140 H   0  0  0  0  0  0  0  0  0  0  0  0
   38.2560   27.6350   43.6780 C   0  0  0  0  0  3  0  0  0  0  0  0
   37.1830   28.3010   43.1320 C   0  0  0  0  0  3  0  0  0  0  0  0
   39.7580   32.3030   39.4360 C   0  0  0  0  0  0  0  0  0  0  0  0
   39.4580   31.6150   40.6140 C   0  0  0  0  0  0  0  0  0  0  0  0
   39.0640   30.2620   40.4800 C   0  0  0  0  0  0  0  0  0  0  0  0
   39.0000   29.7160   39.2230 N   0  0  0  0  0  0  0  0  0  0  0  0
   39.3020   30.4290   38.1220 C   0  0  0  0  0  0  0  0  0  0  0  0
   39.6760   31.7080   38.2380 N   0  0  0  0  0  0  0  0  0  0  0  0
   40.0580   33.3300   39.5430 H   0  0  0  0  0  0  0  0  0  0  0  0
   39.2470   29.9770   37.1430 H   0  0  0  0  0  0  0  0  0  0  0  0
   39.5140   32.1530   41.8900 O   0  0  0  0  0  0  0  0  0  0  0  0
   38.6780   32.4970   42.3160 H   0  0  0  0  0  0  0  0  0  0  0  0
   35.3710   29.1970   41.0250 N   0  0  0  0  0  0  0  0  0  0  0  0
   36.3630   29.9050   41.5300 C   0  0  0  0  0  0  0  0  0  0  0  0
   35.8280   31.1800   41.2480 N   0  0  0  0  0  0  0  0  0  0  0  0
   35.3390   28.1680   41.0160 H   0  0  0  0  0  0  0  0  0  0  0  0
   35.8130   31.6240   40.2770 H   0  0  0  0  0  0  0  0  0  0  0  0
   35.4270   31.6700   42.0860 H   0  0  0  0  0  0  0  0  0  0  0  0
  1  8  1  0  0  0  0
  2  1  2  0  0  0  0
  2  3  1  0  0  0  0
  3  5  2  0  0  0  0
  4  3  1  0  0  0  0
  5  7  1  0  0  0  0
  5  6  1  0  0  0  0
  8  7  2  0  0  0  0
  9 15  1  0  0  0  0
  9 10  1  0  0  0  0
 10 17  1  0  0  0  0
 11 10  2  0  0  0  0
 11  2  1  0  0  0  0
 12 11  1  0  0  0  0
 13 14  1  0  0  0  0
 13 12  2  0  0  0  0
 14  9  2  0  0  0  0
 16 13  1  0  0  0  0
 17 18  1  0  0  0  0
 19 20  2  0  0  0  0
 20  1  1  0  0  0  0
 21 20  1  0  0  0  0
 21 24  1  0  0  0  0
 22 19  1  0  0  0  0
 23 21  1  0  0  0  0
M  END
>  <minimizedAffinity>
-5.15896463

$$$$

 OpenBabel03252504053D

 24 25  0  0  0  0  0  0  0  0999 V2000
   36.5690   30.3200   38.2260 C   0  0  0  0  0  0  0  0  0  0  0  0
   36.7720   30.8270   39.4690 C   0  0  0  0  0  0  0  0  0  0  0  0
   36.0170   30.3300   40.5390 C   0  0  0  0  0  0  0  0  0  0  0  0
   36.0350   30.6050   41.5800 H   0  0  0  0  0  0  0  0  0  0  0  0
   35.0980   29.3310   40.2520 C   0  0  0  0  0  0  0  0  0  0  0  0
   34.4460   28.8490   40.9870 H   0  0  0  0  0  0  0  0  0  0  0  0
   34.9240   28.8340   38.9590 C   0  0  0  0  0  3  0  0  0  0  0  0
   35.6670   29.3310   37.9120 C   0  0  0  0  0  3  0  0  0  0  0  0
   39.8440   32.6390   40.6910 C   0  0  0  0  0  0  0  0  0  0  0  0
   39.0430   31.5490   40.3420 C   0  0  0  0  0  0  0  0  0  0  0  0
   37.7410   31.8380   39.8680 C   0  0  0  0  0  0  0  0  0  0  0  0
   37.3480   33.1490   39.7810 N   0  0  0  0  0  0  0  0  0  0  0  0
   38.1650   34.1610   40.1310 C   0  0  0  0  0  0  0  0  0  0  0  0
   39.3970   33.8980   40.5800 N   0  0  0  0  0  0  0  0  0  0  0  0
   40.8320   32.4140   41.0490 H   0  0  0  0  0  0  0  0  0  0  0  0
   37.8340   35.1850   40.0520 H   0  0  0  0  0  0  0  0  0  0  0  0
   39.4240   30.2180   40.4280 O   0  0  0  0  0  0  0  0  0  0  0  0
   39.1610   29.6820   41.2290 H   0  0  0  0  0  0  0  0  0  0  0  0
   37.4010   30.1790   36.0240 N   0  0  0  0  0  0  0  0  0  0  0  0
   37.3400   30.8840   37.1380 C   0  0  0  0  0  0  0  0  0  0  0  0
   38.1370   31.9640   36.7040 N   0  0  0  0  0  0  0  0  0  0  0  0
   36.9370   29.2710   35.8870 H   0  0  0  0  0  0  0  0  0  0  0  0
   39.2000   31.9280   36.6120 H   0  0  0  0  0  0  0  0  0  0  0  0
   37.5910   32.8290   36.4630 H   0  0  0  0  0  0  0  0  0  0  0  0
  1  2  1  0  0  0  0
  2 11  1  0  0  0  0
  2  3  2  0  0  0  0
  3  4  1  0  0  0  0
  5  3  1  0  0  0  0
  5  6  1  0  0  0  0
  7  5  2  0  0  0  0
  8  1  2  0  0  0  0
  8  7  1  0  0  0  0
  9 15  1  0  0  0  0
 10 17  1  0  0  0  0
 10  9  2  0  0  0  0
 11 10  1  0  0  0  0
 12 11  2  0  0  0  0
 12 13  1  0  0  0  0
 13 14  2  0  0  0  0
 14  9  1  0  0  0  0
 16 13  1  0  0  0  0
 17 18  1  0  0  0  0
 19 20  2  0  0  0  0
 20  1  1  0  0  0  0
 21 20  1  0  0  0  0
 22 19  1  0  0  0  0
 23 21  1  0  0  0  0
 24 21  1  0  0  0  0
M  END
>  <minimizedAffinity>
-5.12001991

$$$$

 OpenBabel03252504053D

 24 25  0  0  0  0  0  0  0  0999 V2000
   38.3310   29.3140   42.5330 C   0  0  0  0  0  0  0  0  0  0  0  0
   37.5470   29.2660   41.4260 C   0  0  0  0  0  0  0  0  0  0  0  0
   36.4820   28.3560   41.3840 C   0  0  0  0  0  0  0  0  0  0  0  0
   35.7630   28.1740   40.6030 H   0  0  0  0  0  0  0  0  0  0  0  0
   36.2960   27.5520   42.4990 C   0  0  0  0  0  0  0  0  0  0  0  0
   35.5060   26.8030   42.6070 H   0  0  0  0  0  0  0  0  0  0  0  0
   37.1240   27.6370   43.6200 C   0  0  0  0  0  3  0  0  0  0  0  0
   38.1700   28.5320   43.6520 C   0  0  0  0  0  3  0  0  0  0  0  0
   37.1080   31.9660   38.8310 C   0  0  0  0  0  0  0  0  0  0  0  0
   36.9050   31.2920   40.0380 C   0  0  0  0  0  0  0  0  0  0  0  0
   37.6400   30.0980   40.2350 C   0  0  0  0  0  0  0  0  0  0  0  0
   38.4930   29.6800   39.2450 N   0  0  0  0  0  0  0  0  0  0  0  0
   38.6490   30.3720   38.1010 C   0  0  0  0  0  0  0  0  0  0  0  0
   37.9590   31.5010   37.9060 N   0  0  0  0  0  0  0  0  0  0  0  0
   36.5480   32.8720   38.6870 H   0  0  0  0  0  0  0  0  0  0  0  0
   39.3280   30.0250   37.3380 H   0  0  0  0  0  0  0  0  0  0  0  0
   36.0430   31.6990   41.0450 O   0  0  0  0  0  0  0  0  0  0  0  0
   35.1270   31.3050   41.0980 H   0  0  0  0  0  0  0  0  0  0  0  0
   40.6500   29.7210   42.4060 N   0  0  0  0  0  0  0  0  0  0  0  0
   39.4440   30.2410   42.5260 C   0  0  0  0  0  0  0  0  0  0  0  0
   39.8430   31.5920   42.6000 N   0  0  0  0  0  0  0  0  0  0  0  0
   40.8410   28.7130   42.3160 H   0  0  0  0  0  0  0  0  0  0  0  0
   40.2820   32.0430   43.4630 H   0  0  0  0  0  0  0  0  0  0  0  0
   39.6790   32.1360   41.7160 H   0  0  0  0  0  0  0  0  0  0  0  0
  1  8  1  0  0  0  0
  2  1  2  0  0  0  0
  3  2  1  0  0  0  0
  3  5  2  0  0  0  0
  4  3  1  0  0  0  0
  5  6  1  0  0  0  0
  5  7  1  0  0  0  0
  7  8  2  0  0  0  0
  9 10  1  0  0  0  0
 10 11  2  0  0  0  0
 10 17  1  0  0  0  0
 11  2  1  0  0  0  0
 12 11  1  0  0  0  0
 13 12  2  0  0  0  0
 14 13  1  0  0  0  0
 14  9  2  0  0  0  0
 15  9  1  0  0  0  0
 16 13  1  0  0  0  0
 17 18  1  0  0  0  0
 19 20  2  0  0  0  0
 20  1  1  0  0  0  0
 20 21  1  0  0  0  0
 21 23  1  0  0  0  0
 22 19  1  0  0  0  0
 24 21  1  0  0  0  0
M  END
>  <minimizedAffinity>
-5.10662174

$$$$

 OpenBabel03252504053D

 24 25  0  0  0  0  0  0  0  0999 V2000
   37.8290   30.2180   41.6910 C   0  0  0  0  0  0  0  0  0  0  0  0
   39.1320   30.3960   41.3530 C   0  0  0  0  0  0  0  0  0  0  0  0
   40.1020   29.5540   41.9130 C   0  0  0  0  0  0  0  0  0  0  0  0
   41.1690   29.5430   41.7680 H   0  0  0  0  0  0  0  0  0  0  0  0
   39.6570   28.5750   42.7890 C   0  0  0  0  0  0  0  0  0  0  0  0
   40.2990   27.8480   43.2960 H   0  0  0  0  0  0  0  0  0  0  0  0
   38.3060   28.4240   43.1070 C   0  0  0  0  0  3  0  0  0  0  0  0
   37.3590   29.2580   42.5550 C   0  0  0  0  0  3  0  0  0  0  0  0
   40.4390   32.1370   38.2750 C   0  0  0  0  0  0  0  0  0  0  0  0
   39.8950   31.1000   39.0360 C   0  0  0  0  0  0  0  0  0  0  0  0
   39.6810   31.3610   40.4110 C   0  0  0  0  0  0  0  0  0  0  0  0
   40.0160   32.5960   40.9070 N   0  0  0  0  0  0  0  0  0  0  0  0
   40.5370   33.5590   40.1230 C   0  0  0  0  0  0  0  0  0  0  0  0
   40.7430   33.3220   38.8230 N   0  0  0  0  0  0  0  0  0  0  0  0
   40.5980   31.9340   37.2310 H   0  0  0  0  0  0  0  0  0  0  0  0
   40.7910   34.5240   40.5350 H   0  0  0  0  0  0  0  0  0  0  0  0
   39.5550   29.8460   38.5520 O   0  0  0  0  0  0  0  0  0  0  0  0
   40.1970   29.0880   38.6550 H   0  0  0  0  0  0  0  0  0  0  0  0
   35.5890   30.7890   41.2290 N   0  0  0  0  0  0  0  0  0  0  0  0
   36.8590   31.1300   41.1220 C   0  0  0  0  0  0  0  0  0  0  0  0
   36.6560   32.3440   40.4330 N   0  0  0  0  0  0  0  0  0  0  0  0
   35.2560   29.9300   41.6870 H   0  0  0  0  0  0  0  0  0  0  0  0
   36.4000   32.4130   39.3990 H   0  0  0  0  0  0  0  0  0  0  0  0
   36.7720   33.2000   41.0320 H   0  0  0  0  0  0  0  0  0  0  0  0
  1  8  1  0  0  0  0
  2  1  2  0  0  0  0
  2  3  1  0  0  0  0
  3  5  2  0  0  0  0
  4  3  1  0  0  0  0
  5  7  1  0  0  0  0
  5  6  1  0  0  0  0
  8  7  2  0  0  0  0
  9 14  2  0  0  0  0
  9 10  1  0  0  0  0
 10 11  2  0  0  0  0
 11 12  1  0  0  0  0
 11  2  1  0  0  0  0
 13 16  1  0  0  0  0
 13 12  2  0  0  0  0
 14 13  1  0  0  0  0
 15  9  1  0  0  0  0
 17 18  1  0  0  0  0
 17 10  1  0  0  0  0
 19 22  1  0  0  0  0
 20 19  2  0  0  0  0
 20  1  1  0  0  0  0
 21 24  1  0  0  0  0
 21 20  1  0  0  0  0
 23 21  1  0  0  0  0
M  END
>  <minimizedAffinity>
-5.09646368

$$$$

 OpenBabel03252504053D

 24 25  0  0  0  0  0  0  0  0999 V2000
   36.9760   29.1540   41.6260 C   0  0  0  0  0  0  0  0  0  0  0  0
   36.6560   28.2180   40.6960 C   0  0  0  0  0  0  0  0  0  0  0  0
   36.7290   26.8620   41.0400 C   0  0  0  0  0  0  0  0  0  0  0  0
   36.5200   25.9890   40.4450 H   0  0  0  0  0  0  0  0  0  0  0  0
   37.1280   26.5600   42.3340 C   0  0  0  0  0  0  0  0  0  0  0  0
   37.2250   25.5490   42.7410 H   0  0  0  0  0  0  0  0  0  0  0  0
   37.4440   27.5550   43.2620 C   0  0  0  0  0  3  0  0  0  0  0  0
   37.3720   28.8850   42.9150 C   0  0  0  0  0  3  0  0  0  0  0  0
   34.5960   29.0460   37.6490 C   0  0  0  0  0  0  0  0  0  0  0  0
   34.8850   28.8910   39.0070 C   0  0  0  0  0  0  0  0  0  0  0  0
   36.1860   28.4420   39.3360 C   0  0  0  0  0  0  0  0  0  0  0  0
   37.0730   28.1910   38.3190 N   0  0  0  0  0  0  0  0  0  0  0  0
   36.7380   28.3590   37.0260 C   0  0  0  0  0  0  0  0  0  0  0  0
   35.5100   28.7820   36.7050 N   0  0  0  0  0  0  0  0  0  0  0  0
   33.6060   29.3870   37.4050 H   0  0  0  0  0  0  0  0  0  0  0  0
   37.4530   28.1570   36.2440 H   0  0  0  0  0  0  0  0  0  0  0  0
   34.0000   29.1370   40.0450 O   0  0  0  0  0  0  0  0  0  0  0  0
   33.4890   28.3780   40.4470 H   0  0  0  0  0  0  0  0  0  0  0  0
   35.7790   31.1730   41.4060 N   0  0  0  0  0  0  0  0  0  0  0  0
   36.9240   30.5440   41.2240 C   0  0  0  0  0  0  0  0  0  0  0  0
   37.6330   31.6290   40.6660 N   0  0  0  0  0  0  0  0  0  0  0  0
   34.9380   30.7410   41.8120 H   0  0  0  0  0  0  0  0  0  0  0  0
   37.5010   31.9820   39.6670 H   0  0  0  0  0  0  0  0  0  0  0  0
   38.3130   32.0800   41.3270 H   0  0  0  0  0  0  0  0  0  0  0  0
  1  8  1  0  0  0  0
  2  3  1  0  0  0  0
  2  1  2  0  0  0  0
  3  5  2  0  0  0  0
  4  3  1  0  0  0  0
  5  6  1  0  0  0  0
  5  7  1  0  0  0  0
  8  7  2  0  0  0  0
  9 10  1  0  0  0  0
 10 11  2  0  0  0  0
 10 17  1  0  0  0  0
 11  2  1  0  0  0  0
 12 11  1  0  0  0  0
 13 12  2  0  0  0  0
 14 13  1  0  0  0  0
 14  9  2  0  0  0  0
 15  9  1  0  0  0  0
 16 13  1  0  0  0  0
 17 18  1  0  0  0  0
 19 22  1  0  0  0  0
 20 19  2  0  0  0  0
 20  1  1  0  0  0  0
 21 20  1  0  0  0  0
 21 24  1  0  0  0  0
 23 21  1  0  0  0  0
M  END
>  <minimizedAffinity>
-5.09317684

$$$$

 OpenBabel03252504053D

 24 25  0  0  0  0  0  0  0  0999 V2000
   36.5910   29.9390   38.2020 C   0  0  0  0  0  0  0  0  0  0  0  0
   36.7080   30.2770   39.5120 C   0  0  0  0  0  0  0  0  0  0  0  0
   35.6900   29.9120   40.4030 C   0  0  0  0  0  0  0  0  0  0  0  0
   35.6070   30.0910   41.4620 H   0  0  0  0  0  0  0  0  0  0  0  0
   34.6120   29.2160   39.8780 C   0  0  0  0  0  0  0  0  0  0  0  0
   33.7500   28.8660   40.4550 H   0  0  0  0  0  0  0  0  0  0  0  0
   34.5320   28.8850   38.5240 C   0  0  0  0  0  3  0  0  0  0  0  0
   35.5360   29.2490   37.6540 C   0  0  0  0  0  3  0  0  0  0  0  0
   38.9980   32.8480   41.0470 C   0  0  0  0  0  0  0  0  0  0  0  0
   37.8480   32.3510   40.4300 C   0  0  0  0  0  0  0  0  0  0  0  0
   37.8200   30.9620   40.1560 C   0  0  0  0  0  0  0  0  0  0  0  0
   38.9050   30.2000   40.5070 N   0  0  0  0  0  0  0  0  0  0  0  0
   39.9880   30.7350   41.1020 C   0  0  0  0  0  0  0  0  0  0  0  0
   40.0240   32.0460   41.3640 N   0  0  0  0  0  0  0  0  0  0  0  0
   39.0140   33.9030   41.2530 H   0  0  0  0  0  0  0  0  0  0  0  0
   40.8290   30.1150   41.3700 H   0  0  0  0  0  0  0  0  0  0  0  0
   36.7460   33.1080   40.0650 O   0  0  0  0  0  0  0  0  0  0  0  0
   36.6610   33.4340   39.1250 H   0  0  0  0  0  0  0  0  0  0  0  0
   37.2730   30.7840   36.1100 N   0  0  0  0  0  0  0  0  0  0  0  0
   37.6440   30.3640   37.3040 C   0  0  0  0  0  0  0  0  0  0  0  0
   39.0320   30.5410   37.1270 N   0  0  0  0  0  0  0  0  0  0  0  0
   36.2970   30.8300   35.7880 H   0  0  0  0  0  0  0  0  0  0  0  0
   39.6520   29.8930   36.5470 H   0  0  0  0  0  0  0  0  0  0  0  0
   39.4220   31.3850   37.6180 H   0  0  0  0  0  0  0  0  0  0  0  0
  1  2  1  0  0  0  0
  2 11  1  0  0  0  0
  2  3  2  0  0  0  0
  3  4  1  0  0  0  0
  5  3  1  0  0  0  0
  5  6  1  0  0  0  0
  7  5  2  0  0  0  0
  8  1  2  0  0  0  0
  8  7  1  0  0  0  0
  9 15  1  0  0  0  0
  9 14  1  0  0  0  0
 10  9  2  0  0  0  0
 11 10  1  0  0  0  0
 11 12  2  0  0  0  0
 12 13  1  0  0  0  0
 13 14  2  0  0  0  0
 13 16  1  0  0  0  0
 17 10  1  0  0  0  0
 18 17  1  0  0  0  0
 19 20  2  0  0  0  0
 20  1  1  0  0  0  0
 21 20  1  0  0  0  0
 21 24  1  0  0  0  0
 22 19  1  0  0  0  0
 23 21  1  0  0  0  0
M  END
>  <minimizedAffinity>
-5.04921532

$$$$
