
 OpenBabel03252501533D

 50 53  0  0  1  0  0  0  0  0999 V2000
   33.2770   28.5540   36.2810 N   0  0  0  0  0  0  0  0  0  0  0  0
   33.6290   27.4140   35.4680 C   0  0  0  0  0  0  0  0  0  0  0  0
   32.4820   27.1380   34.5500 C   0  0  0  0  0  0  0  0  0  0  0  0
   31.3130   27.7190   35.2790 C   0  0  0  0  0  0  0  0  0  0  0  0
   31.8630   28.6650   36.3240 C   0  0  2  0  0  0  0  0  0  0  0  0
   33.8220   26.5410   36.1480 H   0  0  0  0  0  0  0  0  0  0  0  0
   34.5550   27.6320   34.8800 H   0  0  0  0  0  0  0  0  0  0  0  0
   32.6420   27.5370   33.5370 H   0  0  0  0  0  0  0  0  0  0  0  0
   32.3390   26.0330   34.4920 H   0  0  0  0  0  0  0  0  0  0  0  0
   30.7350   28.3330   34.5290 H   0  0  0  0  0  0  0  0  0  0  0  0
   30.5880   26.9910   35.6670 H   0  0  0  0  0  0  0  0  0  0  0  0
   31.5430   28.2030   37.3050 H   0  0  0  0  0  0  0  0  0  0  0  0
   30.5920   30.6830   37.2050 C   0  0  0  0  0  0  0  0  0  0  0  0
   31.2830   29.9990   36.2490 C   0  0  0  0  0  0  0  0  0  0  0  0
   31.4420   30.7210   35.0560 C   0  0  0  0  0  0  0  0  0  0  0  0
   31.9880   30.2430   34.2300 H   0  0  0  0  0  0  0  0  0  0  0  0
   30.9320   31.9930   34.9110 C   0  0  0  0  0  0  0  0  0  0  0  0
   31.1100   32.4580   33.9540 H   0  0  0  0  0  0  0  0  0  0  0  0
   30.2420   32.6320   35.9160 C   0  0  0  0  0  3  0  0  0  0  0  0
   30.0700   31.9520   37.0960 C   0  0  0  0  0  3  0  0  0  0  0  0
   30.6840   29.7460   39.6770 N   0  0  0  0  0  0  0  0  0  0  0  0
   30.3460   30.0550   38.4800 C   0  0  0  0  0  0  0  0  0  0  0  0
   29.1140   29.3500   38.7420 N   0  0  0  0  0  0  0  0  0  0  0  0
   29.9660   29.1860   40.2040 H   0  0  0  0  0  0  0  0  0  0  0  0
   28.9720   28.4180   38.2530 H   0  0  0  0  0  0  0  0  0  0  0  0
   28.1760   29.2790   39.2250 H   0  0  0  0  0  0  0  0  0  0  0  0
   33.8400   28.3790   37.6010 C   0  0  0  0  0  0  0  0  0  0  0  0
   33.0430   28.6310   38.3310 H   0  0  0  0  0  0  0  0  0  0  0  0
   34.1640   27.3530   37.8060 H   0  0  0  0  0  0  0  0  0  0  0  0
   35.4980   29.4310   39.0940 C   0  0  0  0  0  3  0  0  0  0  0  0
   34.9510   29.3650   37.8650 C   0  0  0  0  0  3  0  0  0  0  0  0
   36.6220   31.1320   40.6060 C   0  0  0  0  0  0  0  0  0  0  0  0
   36.5830   30.3740   39.4020 C   0  0  0  0  0  0  0  0  0  0  0  0
   37.6240   30.5350   38.4830 C   0  0  0  0  0  0  0  0  0  0  0  0
   38.6240   31.4080   38.7790 N   0  0  0  0  0  0  0  0  0  0  0  0
   38.6240   32.1060   39.9290 C   0  0  0  0  0  0  0  0  0  0  0  0
   37.6290   31.9590   40.8200 N   0  0  0  0  0  0  0  0  0  0  0  0
   35.7910   30.9820   41.3050 H   0  0  0  0  0  0  0  0  0  0  0  0
   37.6360   29.9800   37.5550 H   0  0  0  0  0  0  0  0  0  0  0  0
   38.2720   34.8550   39.7490 F   0  0  0  0  0  0  0  0  0  0  0  0
   39.5060   34.4090   40.1050 C   0  0  0  0  0  0  0  0  0  0  0  0
   39.7170   33.0300   40.2050 C   0  0  0  0  0  0  0  0  0  0  0  0
   40.9360   32.4990   40.5600 C   0  0  0  0  0  0  0  0  0  0  0  0
   41.9660   33.4010   40.8210 C   0  0  0  0  0  0  0  0  0  0  0  0
   41.7830   34.7890   40.7280 C   0  0  0  0  0  0  0  0  0  0  0  0
   40.5440   35.2860   40.3690 C   0  0  0  0  0  0  0  0  0  0  0  0
   41.0700   31.4460   40.6300 H   0  0  0  0  0  0  0  0  0  0  0  0
   42.9170   32.9430   41.1000 H   0  0  0  0  0  0  0  0  0  0  0  0
   42.6300   35.4080   40.9460 H   0  0  0  0  0  0  0  0  0  0  0  0
   40.3920   36.3600   40.2940 H   0  0  0  0  0  0  0  0  0  0  0  0
  1  5  1  0  0  0  0
  1 27  1  0  0  0  0
  2  6  1  0  0  0  0
  2  1  1  0  0  0  0
  3  4  1  0  0  0  0
  3  2  1  0  0  0  0
  4 11  1  0  0  0  0
  4  5  1  0  0  0  0
  5 12  1  1  0  0  0
  7  2  1  0  0  0  0
  8  3  1  0  0  0  0
  9  3  1  0  0  0  0
 10  4  1  0  0  0  0
 13 22  1  0  0  0  0
 14  5  1  0  0  0  0
 14 13  2  0  0  0  0
 15 14  1  0  0  0  0
 16 15  1  0  0  0  0
 17 15  2  0  0  0  0
 17 19  1  0  0  0  0
 18 17  1  0  0  0  0
 19 20  2  0  0  0  0
 20 13  1  0  0  0  0
 21 24  1  0  0  0  0
 22 23  1  0  0  0  0
 22 21  2  0  0  0  0
 23 26  1  0  0  0  0
 25 23  1  0  0  0  0
 27 29  1  0  0  0  0
 27 31  1  0  0  0  0
 27 28  1  0  0  0  0
 30 33  1  0  0  0  0
 31 30  2  0  0  0  0
 32 37  1  0  0  0  0
 32 38  1  0  0  0  0
 33 32  2  0  0  0  0
 34 35  2  0  0  0  0
 34 33  1  0  0  0  0
 35 36  1  0  0  0  0
 36 42  1  0  0  0  0
 36 37  2  0  0  0  0
 39 34  1  0  0  0  0
 40 41  1  0  0  0  0
 41 42  2  0  0  0  0
 41 46  1  0  0  0  0
 42 43  1  0  0  0  0
 43 47  1  0  0  0  0
 43 44  2  0  0  0  0
 44 48  1  0  0  0  0
 45 44  1  0  0  0  0
 45 49  1  0  0  0  0
 46 45  2  0  0  0  0
 50 46  1  0  0  0  0
M  END
>  <minimizedAffinity>
-6.9616251

$$$$

 OpenBabel03252501533D

 50 53  0  0  1  0  0  0  0  0999 V2000
   37.5170   28.6450   39.6030 N   0  0  0  0  0  0  0  0  0  0  0  0
   37.6280   29.8120   38.7610 C   0  0  0  0  0  0  0  0  0  0  0  0
   38.6020   30.7450   39.4040 C   0  0  0  0  0  0  0  0  0  0  0  0
   38.5360   30.3650   40.8490 C   0  0  0  0  0  0  0  0  0  0  0  0
   37.9030   28.9940   40.9230 C   0  0  2  0  0  0  0  0  0  0  0  0
   36.6120   30.2840   38.6750 H   0  0  0  0  0  0  0  0  0  0  0  0
   37.9840   29.5200   37.7420 H   0  0  0  0  0  0  0  0  0  0  0  0
   39.6050   30.6900   38.9550 H   0  0  0  0  0  0  0  0  0  0  0  0
   38.2100   31.7850   39.3020 H   0  0  0  0  0  0  0  0  0  0  0  0
   39.6020   30.2720   41.2090 H   0  0  0  0  0  0  0  0  0  0  0  0
   38.0780   31.1110   41.5130 H   0  0  0  0  0  0  0  0  0  0  0  0
   36.9420   29.1690   41.4930 H   0  0  0  0  0  0  0  0  0  0  0  0
   38.5210   27.5940   42.9520 C   0  0  0  0  0  0  0  0  0  0  0  0
   38.7010   28.0360   41.6750 C   0  0  0  0  0  0  0  0  0  0  0  0
   39.8050   27.4520   41.0360 C   0  0  0  0  0  0  0  0  0  0  0  0
   40.0240   27.7530   40.0010 H   0  0  0  0  0  0  0  0  0  0  0  0
   40.6030   26.5280   41.6760 C   0  0  0  0  0  0  0  0  0  0  0  0
   41.4250   26.1430   41.0950 H   0  0  0  0  0  0  0  0  0  0  0  0
   40.3700   26.1210   42.9700 C   0  0  0  0  0  3  0  0  0  0  0  0
   39.2940   26.6740   43.6220 C   0  0  0  0  0  3  0  0  0  0  0  0
   36.9280   28.9410   44.5780 N   0  0  0  0  0  0  0  0  0  0  0  0
   37.4260   28.1180   43.7320 C   0  0  0  0  0  0  0  0  0  0  0  0
   36.1060   27.5420   43.6500 N   0  0  0  0  0  0  0  0  0  0  0  0
   35.9040   28.8010   44.7740 H   0  0  0  0  0  0  0  0  0  0  0  0
   35.9630   26.5850   44.0880 H   0  0  0  0  0  0  0  0  0  0  0  0
   35.0950   27.5900   43.3420 H   0  0  0  0  0  0  0  0  0  0  0  0
   36.1550   28.1610   39.5530 C   0  0  0  0  0  0  0  0  0  0  0  0
   36.2010   27.0840   39.2880 H   0  0  0  0  0  0  0  0  0  0  0  0
   35.6260   28.2430   40.5090 H   0  0  0  0  0  0  0  0  0  0  0  0
   34.1540   28.3420   38.1230 C   0  0  0  0  0  3  0  0  0  0  0  0
   35.3750   28.8140   38.4390 C   0  0  0  0  0  3  0  0  0  0  0  0
   33.8000   28.9990   35.6960 C   0  0  0  0  0  0  0  0  0  0  0  0
   33.3530   28.9430   37.0470 C   0  0  0  0  0  0  0  0  0  0  0  0
   32.1000   29.4810   37.3530 C   0  0  0  0  0  0  0  0  0  0  0  0
   31.3660   30.0320   36.3500 N   0  0  0  0  0  0  0  0  0  0  0  0
   31.8230   30.0650   35.0850 C   0  0  0  0  0  0  0  0  0  0  0  0
   33.0270   29.5510   34.7790 N   0  0  0  0  0  0  0  0  0  0  0  0
   34.7870   28.5690   35.4910 H   0  0  0  0  0  0  0  0  0  0  0  0
   31.7190   29.4600   38.3650 H   0  0  0  0  0  0  0  0  0  0  0  0
   31.4390   32.8130   34.9510 F   0  0  0  0  0  0  0  0  0  0  0  0
   30.8290   32.0530   34.0030 C   0  0  0  0  0  0  0  0  0  0  0  0
   31.0020   30.6650   34.0420 C   0  0  0  0  0  0  0  0  0  0  0  0
   30.4190   29.8280   33.1180 C   0  0  0  0  0  0  0  0  0  0  0  0
   29.6380   30.4240   32.1290 C   0  0  0  0  0  0  0  0  0  0  0  0
   29.4480   31.8120   32.0660 C   0  0  0  0  0  0  0  0  0  0  0  0
   30.0490   32.6230   33.0110 C   0  0  0  0  0  0  0  0  0  0  0  0
   30.5670   28.7760   33.1700 H   0  0  0  0  0  0  0  0  0  0  0  0
   29.1940   29.7280   31.4150 H   0  0  0  0  0  0  0  0  0  0  0  0
   28.8320   32.1840   31.2720 H   0  0  0  0  0  0  0  0  0  0  0  0
   29.9070   33.7000   32.9710 H   0  0  0  0  0  0  0  0  0  0  0  0
  1  5  1  0  0  0  0
  2  3  1  0  0  0  0
  2  1  1  0  0  0  0
  3  4  1  0  0  0  0
  4  5  1  0  0  0  0
  4 10  1  0  0  0  0
  4 11  1  0  0  0  0
  5 12  1  1  0  0  0
  5 14  1  0  0  0  0
  6  2  1  0  0  0  0
  7  2  1  0  0  0  0
  8  3  1  0  0  0  0
  9  3  1  0  0  0  0
 13 20  1  0  0  0  0
 13 22  1  0  0  0  0
 14 13  2  0  0  0  0
 15 14  1  0  0  0  0
 15 17  2  0  0  0  0
 16 15  1  0  0  0  0
 17 19  1  0  0  0  0
 18 17  1  0  0  0  0
 19 20  2  0  0  0  0
 21 24  1  0  0  0  0
 22 21  2  0  0  0  0
 23 22  1  0  0  0  0
 23 25  1  0  0  0  0
 26 23  1  0  0  0  0
 27  1  1  0  0  0  0
 27 29  1  0  0  0  0
 28 27  1  0  0  0  0
 30 31  2  0  0  0  0
 31 27  1  0  0  0  0
 32 33  1  0  0  0  0
 33 34  2  0  0  0  0
 33 30  1  0  0  0  0
 34 39  1  0  0  0  0
 35 34  1  0  0  0  0
 36 35  2  0  0  0  0
 37 36  1  0  0  0  0
 37 32  2  0  0  0  0
 38 32  1  0  0  0  0
 41 42  1  0  0  0  0
 41 40  1  0  0  0  0
 42 36  1  0  0  0  0
 43 47  1  0  0  0  0
 43 42  2  0  0  0  0
 44 43  1  0  0  0  0
 45 44  2  0  0  0  0
 45 46  1  0  0  0  0
 46 41  2  0  0  0  0
 48 44  1  0  0  0  0
 49 45  1  0  0  0  0
 50 46  1  0  0  0  0
M  END
>  <minimizedAffinity>
-6.79087496

$$$$

 OpenBabel03252501533D

 50 53  0  0  1  0  0  0  0  0999 V2000
   41.0790   27.7810   42.2110 N   0  0  0  0  0  0  0  0  0  0  0  0
   42.4150   27.6740   42.7450 C   0  0  0  0  0  0  0  0  0  0  0  0
   42.3890   26.6500   43.8340 C   0  0  0  0  0  0  0  0  0  0  0  0
   40.9630   26.6670   44.2840 C   0  0  0  0  0  0  0  0  0  0  0  0
   40.1560   27.3330   43.1920 C   0  0  2  0  0  0  0  0  0  0  0  0
   42.7200   28.6800   43.1430 H   0  0  0  0  0  0  0  0  0  0  0  0
   43.1280   27.3680   41.9400 H   0  0  0  0  0  0  0  0  0  0  0  0
   42.7600   25.6690   43.5040 H   0  0  0  0  0  0  0  0  0  0  0  0
   43.0220   27.0190   44.6760 H   0  0  0  0  0  0  0  0  0  0  0  0
   40.6310   25.5910   44.3500 H   0  0  0  0  0  0  0  0  0  0  0  0
   40.7900   27.0780   45.2880 H   0  0  0  0  0  0  0  0  0  0  0  0
   39.7480   28.2650   43.6850 H   0  0  0  0  0  0  0  0  0  0  0  0
   37.6940   26.7770   42.9010 C   0  0  0  0  0  0  0  0  0  0  0  0
   39.0260   26.5310   42.7470 C   0  0  0  0  0  0  0  0  0  0  0  0
   39.2940   25.3430   42.0500 C   0  0  0  0  0  0  0  0  0  0  0  0
   40.3450   25.0670   41.8810 H   0  0  0  0  0  0  0  0  0  0  0  0
   38.2780   24.5350   41.5860 C   0  0  0  0  0  0  0  0  0  0  0  0
   38.5950   23.6460   41.0640 H   0  0  0  0  0  0  0  0  0  0  0  0
   36.9490   24.8380   41.7730 C   0  0  0  0  0  3  0  0  0  0  0  0
   36.6540   25.9950   42.4510 C   0  0  0  0  0  3  0  0  0  0  0  0
   37.3340   29.2170   43.8550 N   0  0  0  0  0  0  0  0  0  0  0  0
   37.2730   27.9610   43.6080 C   0  0  0  0  0  0  0  0  0  0  0  0
   36.2410   27.9050   44.6140 N   0  0  0  0  0  0  0  0  0  0  0  0
   36.6670   29.5510   44.5970 H   0  0  0  0  0  0  0  0  0  0  0  0
   36.4820   27.4370   45.5370 H   0  0  0  0  0  0  0  0  0  0  0  0
   35.2550   28.1140   44.9400 H   0  0  0  0  0  0  0  0  0  0  0  0
   40.8340   29.1570   41.8360 C   0  0  0  0  0  0  0  0  0  0  0  0
   40.7100   29.7330   42.7760 H   0  0  0  0  0  0  0  0  0  0  0  0
   41.6590   29.6110   41.2760 H   0  0  0  0  0  0  0  0  0  0  0  0
   39.3580   28.6800   39.9180 C   0  0  0  0  0  3  0  0  0  0  0  0
   39.5260   29.3060   41.0990 C   0  0  0  0  0  3  0  0  0  0  0  0
   37.6580   30.0190   38.5910 C   0  0  0  0  0  0  0  0  0  0  0  0
   38.1030   28.7930   39.1610 C   0  0  0  0  0  0  0  0  0  0  0  0
   37.3110   27.6540   38.9860 C   0  0  0  0  0  0  0  0  0  0  0  0
   36.1540   27.7680   38.2820 N   0  0  0  0  0  0  0  0  0  0  0  0
   35.7680   28.9450   37.7580 C   0  0  0  0  0  0  0  0  0  0  0  0
   36.5210   30.0470   37.9200 N   0  0  0  0  0  0  0  0  0  0  0  0
   38.3020   30.8920   38.7470 H   0  0  0  0  0  0  0  0  0  0  0  0
   37.6110   26.7010   39.4010 H   0  0  0  0  0  0  0  0  0  0  0  0
   33.3130   29.0730   39.0520 F   0  0  0  0  0  0  0  0  0  0  0  0
   33.3010   29.0850   37.6920 C   0  0  0  0  0  0  0  0  0  0  0  0
   34.5200   29.0220   37.0090 C   0  0  0  0  0  0  0  0  0  0  0  0
   34.5910   29.0290   35.6360 C   0  0  0  0  0  0  0  0  0  0  0  0
   33.3850   29.1030   34.9400 C   0  0  0  0  0  0  0  0  0  0  0  0
   32.1480   29.1670   35.5990 C   0  0  0  0  0  0  0  0  0  0  0  0
   32.1150   29.1580   36.9810 C   0  0  0  0  0  0  0  0  0  0  0  0
   35.5320   28.9810   35.1400 H   0  0  0  0  0  0  0  0  0  0  0  0
   33.4830   29.1070   33.8530 H   0  0  0  0  0  0  0  0  0  0  0  0
   31.2720   29.2220   34.9850 H   0  0  0  0  0  0  0  0  0  0  0  0
   31.1610   29.2070   37.5010 H   0  0  0  0  0  0  0  0  0  0  0  0
  1  2  1  0  0  0  0
  1  5  1  0  0  0  0
  2  6  1  0  0  0  0
  2  3  1  0  0  0  0
  3  4  1  0  0  0  0
  3  9  1  0  0  0  0
  4 10  1  0  0  0  0
  4 11  1  0  0  0  0
  5 12  1  1  0  0  0
  5  4  1  0  0  0  0
  7  2  1  0  0  0  0
  8  3  1  0  0  0  0
 13 22  1  0  0  0  0
 14 13  1  0  0  0  0
 14  5  1  0  0  0  0
 15 14  2  0  0  0  0
 16 15  1  0  0  0  0
 17 19  2  0  0  0  0
 17 15  1  0  0  0  0
 18 17  1  0  0  0  0
 19 20  1  0  0  0  0
 20 13  2  0  0  0  0
 21 24  1  0  0  0  0
 22 21  2  0  0  0  0
 22 23  1  0  0  0  0
 23 26  1  0  0  0  0
 23 25  1  0  0  0  0
 27  1  1  0  0  0  0
 27 28  1  0  0  0  0
 29 27  1  0  0  0  0
 30 31  2  0  0  0  0
 31 27  1  0  0  0  0
 32 38  1  0  0  0  0
 32 33  1  0  0  0  0
 33 30  1  0  0  0  0
 34 33  2  0  0  0  0
 34 39  1  0  0  0  0
 35 34  1  0  0  0  0
 36 37  1  0  0  0  0
 36 35  2  0  0  0  0
 37 32  2  0  0  0  0
 41 40  1  0  0  0  0
 42 41  1  0  0  0  0
 42 36  1  0  0  0  0
 43 42  2  0  0  0  0
 44 45  2  0  0  0  0
 44 43  1  0  0  0  0
 45 46  1  0  0  0  0
 46 50  1  0  0  0  0
 46 41  2  0  0  0  0
 47 43  1  0  0  0  0
 48 44  1  0  0  0  0
 49 45  1  0  0  0  0
M  END
>  <minimizedAffinity>
-6.53684807

$$$$

 OpenBabel03252501533D

 50 53  0  0  1  0  0  0  0  0999 V2000
   37.3920   27.8520   38.8820 N   0  0  0  0  0  0  0  0  0  0  0  0
   37.5890   27.2930   37.5660 C   0  0  0  0  0  0  0  0  0  0  0  0
   38.7800   27.9640   36.9610 C   0  0  0  0  0  0  0  0  0  0  0  0
   38.8360   29.2740   37.6790 C   0  0  0  0  0  0  0  0  0  0  0  0
   37.9960   29.1360   38.9290 C   0  0  2  0  0  0  0  0  0  0  0  0
   36.6640   27.4850   36.9570 H   0  0  0  0  0  0  0  0  0  0  0  0
   37.7580   26.1900   37.6370 H   0  0  0  0  0  0  0  0  0  0  0  0
   39.6940   27.3550   37.0340 H   0  0  0  0  0  0  0  0  0  0  0  0
   38.5580   28.1680   35.8860 H   0  0  0  0  0  0  0  0  0  0  0  0
   39.9080   29.4220   38.0000 H   0  0  0  0  0  0  0  0  0  0  0  0
   38.5980   30.1570   37.0710 H   0  0  0  0  0  0  0  0  0  0  0  0
   37.1580   29.8800   38.7770 H   0  0  0  0  0  0  0  0  0  0  0  0
   38.2930   30.3050   41.1660 C   0  0  0  0  0  0  0  0  0  0  0  0
   38.7110   29.5070   40.1420 C   0  0  0  0  0  0  0  0  0  0  0  0
   39.9990   28.9870   40.3330 C   0  0  0  0  0  0  0  0  0  0  0  0
   40.4150   28.3320   39.5540 H   0  0  0  0  0  0  0  0  0  0  0  0
   40.7350   29.2820   41.4610 C   0  0  0  0  0  0  0  0  0  0  0  0
   41.7140   28.8310   41.5080 H   0  0  0  0  0  0  0  0  0  0  0  0
   40.2590   30.0970   42.4630 C   0  0  0  0  0  3  0  0  0  0  0  0
   38.9990   30.6200   42.3050 C   0  0  0  0  0  3  0  0  0  0  0  0
   35.7230   30.9150   41.2990 N   0  0  0  0  0  0  0  0  0  0  0  0
   36.9880   30.9160   41.0970 C   0  0  0  0  0  0  0  0  0  0  0  0
   36.8070   32.2310   40.5310 N   0  0  0  0  0  0  0  0  0  0  0  0
   35.2290   31.7880   40.9830 H   0  0  0  0  0  0  0  0  0  0  0  0
   36.9110   32.3290   39.4790 H   0  0  0  0  0  0  0  0  0  0  0  0
   36.6000   33.2630   40.6410 H   0  0  0  0  0  0  0  0  0  0  0  0
   35.9720   27.9190   39.1530 C   0  0  0  0  0  0  0  0  0  0  0  0
   35.6000   26.8740   39.1940 H   0  0  0  0  0  0  0  0  0  0  0  0
   35.7310   28.3930   40.1100 H   0  0  0  0  0  0  0  0  0  0  0  0
   33.8860   28.4110   37.9350 C   0  0  0  0  0  3  0  0  0  0  0  0
   35.2210   28.5670   38.0170 C   0  0  0  0  0  3  0  0  0  0  0  0
   33.6310   29.2080   35.5380 C   0  0  0  0  0  0  0  0  0  0  0  0
   33.1070   29.0230   36.8480 C   0  0  0  0  0  0  0  0  0  0  0  0
   31.7960   29.4380   37.1020 C   0  0  0  0  0  0  0  0  0  0  0  0
   31.0830   29.9990   36.0900 N   0  0  0  0  0  0  0  0  0  0  0  0
   31.6150   30.1570   34.8650 C   0  0  0  0  0  0  0  0  0  0  0  0
   32.8740   29.7620   34.6080 N   0  0  0  0  0  0  0  0  0  0  0  0
   34.6610   28.8730   35.3720 H   0  0  0  0  0  0  0  0  0  0  0  0
   31.3560   29.3160   38.0830 H   0  0  0  0  0  0  0  0  0  0  0  0
   31.1200   32.8900   34.8160 F   0  0  0  0  0  0  0  0  0  0  0  0
   30.5840   32.1430   33.8140 C   0  0  0  0  0  0  0  0  0  0  0  0
   30.8140   30.7640   33.8090 C   0  0  0  0  0  0  0  0  0  0  0  0
   30.3070   29.9400   32.8300 C   0  0  0  0  0  0  0  0  0  0  0  0
   29.5440   30.5410   31.8300 C   0  0  0  0  0  0  0  0  0  0  0  0
   29.2970   31.9220   31.8110 C   0  0  0  0  0  0  0  0  0  0  0  0
   29.8230   32.7190   32.8110 C   0  0  0  0  0  0  0  0  0  0  0  0
   30.4980   28.8930   32.8480 H   0  0  0  0  0  0  0  0  0  0  0  0
   29.1610   29.8560   31.0710 H   0  0  0  0  0  0  0  0  0  0  0  0
   28.7010   32.2990   31.0040 H   0  0  0  0  0  0  0  0  0  0  0  0
   29.6370   33.7900   32.8050 H   0  0  0  0  0  0  0  0  0  0  0  0
  1  5  1  0  0  0  0
  1 27  1  0  0  0  0
  2  7  1  0  0  0  0
  2  1  1  0  0  0  0
  3  8  1  0  0  0  0
  3  2  1  0  0  0  0
  3  4  1  0  0  0  0
  4 10  1  0  0  0  0
  4  5  1  0  0  0  0
  5 12  1  6  0  0  0
  5 14  1  0  0  0  0
  6  2  1  0  0  0  0
  9  3  1  0  0  0  0
 11  4  1  0  0  0  0
 13 20  1  0  0  0  0
 14 15  1  0  0  0  0
 14 13  2  0  0  0  0
 15 17  2  0  0  0  0
 16 15  1  0  0  0  0
 17 18  1  0  0  0  0
 17 19  1  0  0  0  0
 20 19  2  0  0  0  0
 22 13  1  0  0  0  0
 22 21  2  0  0  0  0
 23 26  1  0  0  0  0
 23 22  1  0  0  0  0
 24 21  1  0  0  0  0
 25 23  1  0  0  0  0
 27 28  1  0  0  0  0
 27 29  1  0  0  0  0
 30 31  2  0  0  0  0
 31 27  1  0  0  0  0
 32 33  1  0  0  0  0
 33 34  2  0  0  0  0
 33 30  1  0  0  0  0
 34 39  1  0  0  0  0
 35 34  1  0  0  0  0
 36 35  2  0  0  0  0
 37 36  1  0  0  0  0
 37 32  2  0  0  0  0
 38 32  1  0  0  0  0
 41 40  1  0  0  0  0
 42 41  1  0  0  0  0
 42 36  1  0  0  0  0
 43 47  1  0  0  0  0
 43 42  2  0  0  0  0
 44 43  1  0  0  0  0
 45 44  2  0  0  0  0
 45 46  1  0  0  0  0
 46 41  2  0  0  0  0
 48 44  1  0  0  0  0
 49 45  1  0  0  0  0
 50 46  1  0  0  0  0
M  END
>  <minimizedAffinity>
-6.5199337

$$$$

 OpenBabel03252501533D

 50 53  0  0  1  0  0  0  0  0999 V2000
   33.2500   28.6370   36.3450 N   0  0  0  0  0  0  0  0  0  0  0  0
   33.5370   27.4290   35.6090 C   0  0  0  0  0  0  0  0  0  0  0  0
   32.2870   27.0210   34.9000 C   0  0  0  0  0  0  0  0  0  0  0  0
   31.2060   27.6400   35.7280 C   0  0  0  0  0  0  0  0  0  0  0  0
   31.8520   28.7090   36.5810 C   0  0  2  0  0  0  0  0  0  0  0  0
   33.8640   26.6400   36.3390 H   0  0  0  0  0  0  0  0  0  0  0  0
   34.3600   27.6120   34.8750 H   0  0  0  0  0  0  0  0  0  0  0  0
   32.2840   27.3140   33.8400 H   0  0  0  0  0  0  0  0  0  0  0  0
   32.1880   25.9110   34.9760 H   0  0  0  0  0  0  0  0  0  0  0  0
   30.5010   28.1510   35.0110 H   0  0  0  0  0  0  0  0  0  0  0  0
   30.5770   26.9340   36.2880 H   0  0  0  0  0  0  0  0  0  0  0  0
   31.6960   28.3440   37.6390 H   0  0  0  0  0  0  0  0  0  0  0  0
   30.3870   30.6410   37.3420 C   0  0  0  0  0  0  0  0  0  0  0  0
   31.2060   30.0080   36.4550 C   0  0  0  0  0  0  0  0  0  0  0  0
   31.4390   30.7500   35.2870 C   0  0  0  0  0  0  0  0  0  0  0  0
   32.0900   30.3120   34.5160 H   0  0  0  0  0  0  0  0  0  0  0  0
   30.8740   31.9920   35.0980 C   0  0  0  0  0  0  0  0  0  0  0  0
   31.1170   32.4760   34.1660 H   0  0  0  0  0  0  0  0  0  0  0  0
   30.0530   32.5810   36.0340 C   0  0  0  0  0  3  0  0  0  0  0  0
   29.8060   31.8790   37.1880 C   0  0  0  0  0  3  0  0  0  0  0  0
   30.2710   29.7180   39.8180 N   0  0  0  0  0  0  0  0  0  0  0  0
   30.0540   29.9870   38.5840 C   0  0  0  0  0  0  0  0  0  0  0  0
   28.8890   29.1440   38.6970 N   0  0  0  0  0  0  0  0  0  0  0  0
   29.5610   29.0770   40.2570 H   0  0  0  0  0  0  0  0  0  0  0  0
   28.9180   28.2020   38.2060 H   0  0  0  0  0  0  0  0  0  0  0  0
   27.9110   28.9630   39.0580 H   0  0  0  0  0  0  0  0  0  0  0  0
   34.0010   28.6220   37.5810 C   0  0  0  0  0  0  0  0  0  0  0  0
   33.4670   29.2840   38.2940 H   0  0  0  0  0  0  0  0  0  0  0  0
   34.0700   27.6300   38.0390 H   0  0  0  0  0  0  0  0  0  0  0  0
   35.9560   29.8450   38.4550 C   0  0  0  0  0  3  0  0  0  0  0  0
   35.3670   29.2390   37.4070 C   0  0  0  0  0  3  0  0  0  0  0  0
   38.3590   30.1440   39.2190 C   0  0  0  0  0  0  0  0  0  0  0  0
   37.2860   30.4610   38.3390 C   0  0  0  0  0  0  0  0  0  0  0  0
   37.5150   31.3930   37.3230 C   0  0  0  0  0  0  0  0  0  0  0  0
   38.7490   31.9550   37.2220 N   0  0  0  0  0  0  0  0  0  0  0  0
   39.7380   31.6290   38.0740 C   0  0  0  0  0  0  0  0  0  0  0  0
   39.5290   30.7330   39.0540 N   0  0  0  0  0  0  0  0  0  0  0  0
   38.1450   29.4100   40.0040 H   0  0  0  0  0  0  0  0  0  0  0  0
   36.7300   31.6640   36.6310 H   0  0  0  0  0  0  0  0  0  0  0  0
   41.8000   30.3630   36.7100 F   0  0  0  0  0  0  0  0  0  0  0  0
   42.0630   31.5900   37.2350 C   0  0  0  0  0  0  0  0  0  0  0  0
   41.0460   32.2550   37.9280 C   0  0  0  0  0  0  0  0  0  0  0  0
   41.2320   33.4980   38.4870 C   0  0  0  0  0  0  0  0  0  0  0  0
   42.4900   34.0780   38.3350 C   0  0  0  0  0  0  0  0  0  0  0  0
   43.5280   33.4340   37.6450 C   0  0  0  0  0  0  0  0  0  0  0  0
   43.3050   32.1860   37.0960 C   0  0  0  0  0  0  0  0  0  0  0  0
   40.4410   33.9830   39.0090 H   0  0  0  0  0  0  0  0  0  0  0  0
   42.5990   35.0640   38.7910 H   0  0  0  0  0  0  0  0  0  0  0  0
   44.4630   33.9540   37.5760 H   0  0  0  0  0  0  0  0  0  0  0  0
   44.1030   31.6780   36.5600 H   0  0  0  0  0  0  0  0  0  0  0  0
  1  5  1  0  0  0  0
  1 27  1  0  0  0  0
  2  6  1  0  0  0  0
  2  1  1  0  0  0  0
  3  9  1  0  0  0  0
  3  2  1  0  0  0  0
  3  4  1  0  0  0  0
  4 11  1  0  0  0  0
  4  5  1  0  0  0  0
  5 12  1  1  0  0  0
  7  2  1  0  0  0  0
  8  3  1  0  0  0  0
 10  4  1  0  0  0  0
 13 22  1  0  0  0  0
 14  5  1  0  0  0  0
 14 13  2  0  0  0  0
 15 14  1  0  0  0  0
 16 15  1  0  0  0  0
 17 15  2  0  0  0  0
 17 19  1  0  0  0  0
 18 17  1  0  0  0  0
 19 20  2  0  0  0  0
 20 13  1  0  0  0  0
 21 24  1  0  0  0  0
 22 23  1  0  0  0  0
 22 21  2  0  0  0  0
 23 26  1  0  0  0  0
 25 23  1  0  0  0  0
 27 29  1  0  0  0  0
 27 28  1  0  0  0  0
 31 27  1  0  0  0  0
 31 30  2  0  0  0  0
 32 38  1  0  0  0  0
 33 30  1  0  0  0  0
 33 32  2  0  0  0  0
 34 33  1  0  0  0  0
 35 34  2  0  0  0  0
 35 36  1  0  0  0  0
 36 37  2  0  0  0  0
 37 32  1  0  0  0  0
 39 34  1  0  0  0  0
 40 41  1  0  0  0  0
 41 42  1  0  0  0  0
 42 36  1  0  0  0  0
 42 43  2  0  0  0  0
 43 47  1  0  0  0  0
 44 43  1  0  0  0  0
 44 48  1  0  0  0  0
 45 44  2  0  0  0  0
 46 41  2  0  0  0  0
 46 45  1  0  0  0  0
 49 45  1  0  0  0  0
 50 46  1  0  0  0  0
M  END
>  <minimizedAffinity>
-6.47244835

$$$$

 OpenBabel03252501533D

 50 53  0  0  1  0  0  0  0  0999 V2000
   39.4320   32.9080   40.3810 N   0  0  0  0  0  0  0  0  0  0  0  0
   38.0670   33.3690   40.3020 C   0  0  0  0  0  0  0  0  0  0  0  0
   38.0920   34.7840   39.8230 C   0  0  0  0  0  0  0  0  0  0  0  0
   39.4490   35.2600   40.2330 C   0  0  0  0  0  0  0  0  0  0  0  0
   40.2880   34.0320   40.5110 C   0  0  2  0  0  0  0  0  0  0  0  0
   37.6090   33.2960   41.3250 H   0  0  0  0  0  0  0  0  0  0  0  0
   37.4850   32.7290   39.5940 H   0  0  0  0  0  0  0  0  0  0  0  0
   37.8730   34.8740   38.7490 H   0  0  0  0  0  0  0  0  0  0  0  0
   37.3330   35.3630   40.4030 H   0  0  0  0  0  0  0  0  0  0  0  0
   39.8930   35.7840   39.3380 H   0  0  0  0  0  0  0  0  0  0  0  0
   39.4650   36.0090   41.0360 H   0  0  0  0  0  0  0  0  0  0  0  0
   40.5320   34.1130   41.6120 H   0  0  0  0  0  0  0  0  0  0  0  0
   42.8150   34.1280   40.2560 C   0  0  0  0  0  0  0  0  0  0  0  0
   41.5440   34.0200   39.7740 C   0  0  0  0  0  0  0  0  0  0  0  0
   41.4900   33.8660   38.3810 C   0  0  0  0  0  0  0  0  0  0  0  0
   40.5020   33.7720   37.9080 H   0  0  0  0  0  0  0  0  0  0  0  0
   42.6360   33.8320   37.6150 C   0  0  0  0  0  0  0  0  0  0  0  0
   42.4810   33.7100   36.5540 H   0  0  0  0  0  0  0  0  0  0  0  0
   43.8940   33.9470   38.1610 C   0  0  0  0  0  3  0  0  0  0  0  0
   43.9800   34.0980   39.5240 C   0  0  0  0  0  3  0  0  0  0  0  0
   43.2070   35.0270   42.7130 N   0  0  0  0  0  0  0  0  0  0  0  0
   43.0190   34.3010   41.6740 C   0  0  0  0  0  0  0  0  0  0  0  0
   43.0630   33.1690   42.5670 N   0  0  0  0  0  0  0  0  0  0  0  0
   43.2930   34.4900   43.6130 H   0  0  0  0  0  0  0  0  0  0  0  0
   43.9180   32.5410   42.5190 H   0  0  0  0  0  0  0  0  0  0  0  0
   42.6300   32.5780   43.3310 H   0  0  0  0  0  0  0  0  0  0  0  0
   39.5570   32.0080   41.5060 C   0  0  0  0  0  0  0  0  0  0  0  0
   40.6180   32.0390   41.8310 H   0  0  0  0  0  0  0  0  0  0  0  0
   38.9400   32.2910   42.3650 H   0  0  0  0  0  0  0  0  0  0  0  0
   38.3650   29.8630   41.7490 C   0  0  0  0  0  3  0  0  0  0  0  0
   39.3050   30.5760   41.1010 C   0  0  0  0  0  3  0  0  0  0  0  0
   37.2510   27.6240   42.1880 C   0  0  0  0  0  0  0  0  0  0  0  0
   38.0800   28.4650   41.3930 C   0  0  0  0  0  0  0  0  0  0  0  0
   38.6380   27.9350   40.2260 C   0  0  0  0  0  0  0  0  0  0  0  0
   38.3660   26.6420   39.9040 N   0  0  0  0  0  0  0  0  0  0  0  0
   37.5770   25.8790   40.6820 C   0  0  0  0  0  0  0  0  0  0  0  0
   37.0350   26.3780   41.8060 N   0  0  0  0  0  0  0  0  0  0  0  0
   36.8310   28.0700   43.0960 H   0  0  0  0  0  0  0  0  0  0  0  0
   39.2720   28.5370   39.5910 H   0  0  0  0  0  0  0  0  0  0  0  0
   39.3780   23.8460   41.2640 F   0  0  0  0  0  0  0  0  0  0  0  0
   38.2400   23.4980   40.6060 C   0  0  0  0  0  0  0  0  0  0  0  0
   37.3120   24.4980   40.2980 C   0  0  0  0  0  0  0  0  0  0  0  0
   36.1370   24.2280   39.6350 C   0  0  0  0  0  0  0  0  0  0  0  0
   35.9040   22.9010   39.2770 C   0  0  0  0  0  0  0  0  0  0  0  0
   36.8170   21.8780   39.5740 C   0  0  0  0  0  0  0  0  0  0  0  0
   37.9870   22.1870   40.2420 C   0  0  0  0  0  0  0  0  0  0  0  0
   35.4470   25.0070   39.4120 H   0  0  0  0  0  0  0  0  0  0  0  0
   34.9610   22.7260   38.7540 H   0  0  0  0  0  0  0  0  0  0  0  0
   36.5560   20.8870   39.2620 H   0  0  0  0  0  0  0  0  0  0  0  0
   38.7010   21.4010   40.4760 H   0  0  0  0  0  0  0  0  0  0  0  0
  1  5  1  0  0  0  0
  1 27  1  0  0  0  0
  2  1  1  0  0  0  0
  2  6  1  0  0  0  0
  3  4  1  0  0  0  0
  3  2  1  0  0  0  0
  3  9  1  0  0  0  0
  4  5  1  0  0  0  0
  4 11  1  0  0  0  0
  5 12  1  1  0  0  0
  7  2  1  0  0  0  0
  8  3  1  0  0  0  0
 10  4  1  0  0  0  0
 13 22  1  0  0  0  0
 14 13  1  0  0  0  0
 14  5  1  0  0  0  0
 15 14  2  0  0  0  0
 16 15  1  0  0  0  0
 17 19  2  0  0  0  0
 17 15  1  0  0  0  0
 18 17  1  0  0  0  0
 19 20  1  0  0  0  0
 20 13  2  0  0  0  0
 21 24  1  0  0  0  0
 22 23  1  0  0  0  0
 22 21  2  0  0  0  0
 23 26  1  0  0  0  0
 25 23  1  0  0  0  0
 27 28  1  0  0  0  0
 27 29  1  0  0  0  0
 31 27  1  0  0  0  0
 31 30  2  0  0  0  0
 32 38  1  0  0  0  0
 33 30  1  0  0  0  0
 33 32  2  0  0  0  0
 34 33  1  0  0  0  0
 35 34  2  0  0  0  0
 35 36  1  0  0  0  0
 36 37  2  0  0  0  0
 37 32  1  0  0  0  0
 39 34  1  0  0  0  0
 41 40  1  0  0  0  0
 42 41  1  0  0  0  0
 42 36  1  0  0  0  0
 43 42  2  0  0  0  0
 44 45  2  0  0  0  0
 44 43  1  0  0  0  0
 45 46  1  0  0  0  0
 46 50  1  0  0  0  0
 46 41  2  0  0  0  0
 47 43  1  0  0  0  0
 48 44  1  0  0  0  0
 49 45  1  0  0  0  0
M  END
>  <minimizedAffinity>
-6.42725897

$$$$

 OpenBabel03252501533D

 50 53  0  0  1  0  0  0  0  0999 V2000
   36.7660   29.2070   39.6400 N   0  0  0  0  0  0  0  0  0  0  0  0
   36.6010   30.4970   39.0140 C   0  0  0  0  0  0  0  0  0  0  0  0
   36.8600   31.5420   40.0510 C   0  0  0  0  0  0  0  0  0  0  0  0
   36.5590   30.8340   41.3330 C   0  0  0  0  0  0  0  0  0  0  0  0
   36.5770   29.3500   41.0390 C   0  0  2  0  0  0  0  0  0  0  0  0
   35.5510   30.5680   38.6210 H   0  0  0  0  0  0  0  0  0  0  0  0
   37.3190   30.6060   38.1630 H   0  0  0  0  0  0  0  0  0  0  0  0
   37.8730   31.9670   39.9830 H   0  0  0  0  0  0  0  0  0  0  0  0
   36.1090   32.3570   39.9210 H   0  0  0  0  0  0  0  0  0  0  0  0
   37.4130   31.0560   42.0350 H   0  0  0  0  0  0  0  0  0  0  0  0
   35.6600   31.1780   41.8630 H   0  0  0  0  0  0  0  0  0  0  0  0
   35.5160   29.0190   41.2460 H   0  0  0  0  0  0  0  0  0  0  0  0
   38.7630   28.2540   41.7310 C   0  0  0  0  0  0  0  0  0  0  0  0
   37.4600   28.6030   41.9250 C   0  0  0  0  0  0  0  0  0  0  0  0
   36.9490   28.1770   43.1600 C   0  0  0  0  0  0  0  0  0  0  0  0
   35.9020   28.4160   43.3980 H   0  0  0  0  0  0  0  0  0  0  0  0
   37.7240   27.4760   44.0570 C   0  0  0  0  0  0  0  0  0  0  0  0
   37.2330   27.1950   44.9760 H   0  0  0  0  0  0  0  0  0  0  0  0
   39.0380   27.1520   43.8040 C   0  0  0  0  0  3  0  0  0  0  0  0
   39.5680   27.5570   42.6030 C   0  0  0  0  0  3  0  0  0  0  0  0
   39.7790   28.3830   39.2920 N   0  0  0  0  0  0  0  0  0  0  0  0
   39.4150   28.6210   40.4980 C   0  0  0  0  0  0  0  0  0  0  0  0
   40.0600   29.9020   40.3440 N   0  0  0  0  0  0  0  0  0  0  0  0
   40.3150   29.1640   38.8340 H   0  0  0  0  0  0  0  0  0  0  0  0
   40.9670   30.0600   40.8740 H   0  0  0  0  0  0  0  0  0  0  0  0
   40.0940   30.8750   39.9280 H   0  0  0  0  0  0  0  0  0  0  0  0
   35.8140   28.2830   39.0640 C   0  0  0  0  0  0  0  0  0  0  0  0
   36.3990   27.4920   38.5490 H   0  0  0  0  0  0  0  0  0  0  0  0
   35.1760   27.7910   39.8050 H   0  0  0  0  0  0  0  0  0  0  0  0
   33.7950   28.4130   37.6540 C   0  0  0  0  0  3  0  0  0  0  0  0
   34.9900   28.9380   37.9830 C   0  0  0  0  0  3  0  0  0  0  0  0
   31.6030   29.4000   36.8390 C   0  0  0  0  0  0  0  0  0  0  0  0
   32.9530   29.0140   36.6090 C   0  0  0  0  0  0  0  0  0  0  0  0
   33.4950   29.2200   35.3370 C   0  0  0  0  0  0  0  0  0  0  0  0
   32.7090   29.7790   34.3780 N   0  0  0  0  0  0  0  0  0  0  0  0
   31.4360   30.1310   34.6350 C   0  0  0  0  0  0  0  0  0  0  0  0
   30.9050   29.9380   35.8540 N   0  0  0  0  0  0  0  0  0  0  0  0
   31.2090   29.2240   37.8460 H   0  0  0  0  0  0  0  0  0  0  0  0
   34.5160   28.9420   35.1170 H   0  0  0  0  0  0  0  0  0  0  0  0
   30.9200   32.8590   34.5800 F   0  0  0  0  0  0  0  0  0  0  0  0
   30.3890   32.1060   33.5800 C   0  0  0  0  0  0  0  0  0  0  0  0
   30.6300   30.7280   33.5780 C   0  0  0  0  0  0  0  0  0  0  0  0
   30.1300   29.8980   32.6020 C   0  0  0  0  0  0  0  0  0  0  0  0
   29.3620   30.4910   31.6000 C   0  0  0  0  0  0  0  0  0  0  0  0
   29.1040   31.8700   31.5770 C   0  0  0  0  0  0  0  0  0  0  0  0
   29.6240   32.6730   32.5750 C   0  0  0  0  0  0  0  0  0  0  0  0
   30.3280   28.8530   32.6230 H   0  0  0  0  0  0  0  0  0  0  0  0
   28.9830   29.8010   30.8440 H   0  0  0  0  0  0  0  0  0  0  0  0
   28.5050   32.2400   30.7700 H   0  0  0  0  0  0  0  0  0  0  0  0
   29.4300   33.7430   32.5660 H   0  0  0  0  0  0  0  0  0  0  0  0
  1  5  1  0  0  0  0
  2  1  1  0  0  0  0
  2  3  1  0  0  0  0
  3  4  1  0  0  0  0
  4 11  1  0  0  0  0
  4 10  1  0  0  0  0
  5 12  1  1  0  0  0
  5  4  1  0  0  0  0
  5 14  1  0  0  0  0
  6  2  1  0  0  0  0
  7  2  1  0  0  0  0
  8  3  1  0  0  0  0
  9  3  1  0  0  0  0
 13 14  2  0  0  0  0
 13 20  1  0  0  0  0
 14 15  1  0  0  0  0
 15 16  1  0  0  0  0
 15 17  2  0  0  0  0
 17 18  1  0  0  0  0
 19 17  1  0  0  0  0
 20 19  2  0  0  0  0
 21 22  2  0  0  0  0
 22 13  1  0  0  0  0
 23 22  1  0  0  0  0
 23 25  1  0  0  0  0
 24 21  1  0  0  0  0
 26 23  1  0  0  0  0
 27  1  1  0  0  0  0
 27 29  1  0  0  0  0
 28 27  1  0  0  0  0
 30 31  2  0  0  0  0
 31 27  1  0  0  0  0
 32 38  1  0  0  0  0
 33 32  1  0  0  0  0
 33 30  1  0  0  0  0
 34 33  2  0  0  0  0
 35 36  2  0  0  0  0
 35 34  1  0  0  0  0
 36 37  1  0  0  0  0
 37 32  2  0  0  0  0
 39 34  1  0  0  0  0
 41 40  1  0  0  0  0
 42 41  1  0  0  0  0
 42 36  1  0  0  0  0
 43 47  1  0  0  0  0
 43 42  2  0  0  0  0
 44 43  1  0  0  0  0
 45 44  2  0  0  0  0
 45 46  1  0  0  0  0
 46 41  2  0  0  0  0
 48 44  1  0  0  0  0
 49 45  1  0  0  0  0
 50 46  1  0  0  0  0
M  END
>  <minimizedAffinity>
-6.32499266

$$$$

 OpenBabel03252501533D

 50 53  0  0  1  0  0  0  0  0999 V2000
   37.4770   29.2260   38.5610 N   0  0  0  0  0  0  0  0  0  0  0  0
   36.5940   29.7580   37.5500 C   0  0  0  0  0  0  0  0  0  0  0  0
   35.2180   29.2460   37.8340 C   0  0  0  0  0  0  0  0  0  0  0  0
   35.4730   27.9870   38.5980 C   0  0  0  0  0  0  0  0  0  0  0  0
   36.8990   28.0480   39.1000 C   0  0  2  0  0  0  0  0  0  0  0  0
   36.9560   29.4090   36.5450 H   0  0  0  0  0  0  0  0  0  0  0  0
   36.6070   30.8750   37.5770 H   0  0  0  0  0  0  0  0  0  0  0  0
   34.5890   29.9840   38.3530 H   0  0  0  0  0  0  0  0  0  0  0  0
   34.7410   28.9710   36.8630 H   0  0  0  0  0  0  0  0  0  0  0  0
   34.7910   28.0090   39.4970 H   0  0  0  0  0  0  0  0  0  0  0  0
   35.2190   27.0560   38.0730 H   0  0  0  0  0  0  0  0  0  0  0  0
   37.4080   27.1830   38.5790 H   0  0  0  0  0  0  0  0  0  0  0  0
   36.9900   28.7540   41.5400 C   0  0  0  0  0  0  0  0  0  0  0  0
   37.0080   27.8320   40.5360 C   0  0  0  0  0  0  0  0  0  0  0  0
   37.1400   26.5130   40.9970 C   0  0  0  0  0  0  0  0  0  0  0  0
   37.1640   25.7040   40.2520 H   0  0  0  0  0  0  0  0  0  0  0  0
   37.2370   26.2260   42.3410 C   0  0  0  0  0  0  0  0  0  0  0  0
   37.3350   25.1800   42.5870 H   0  0  0  0  0  0  0  0  0  0  0  0
   37.2120   27.2040   43.3100 C   0  0  0  0  0  3  0  0  0  0  0  0
   37.0830   28.5050   42.8900 C   0  0  0  0  0  3  0  0  0  0  0  0
   37.3580   31.2790   40.8410 N   0  0  0  0  0  0  0  0  0  0  0  0
   36.8690   30.1530   41.2090 C   0  0  0  0  0  0  0  0  0  0  0  0
   35.5930   30.8260   41.2580 N   0  0  0  0  0  0  0  0  0  0  0  0
   36.6560   32.0580   40.7650 H   0  0  0  0  0  0  0  0  0  0  0  0
   35.1770   31.0140   42.2170 H   0  0  0  0  0  0  0  0  0  0  0  0
   34.7680   31.2780   40.7740 H   0  0  0  0  0  0  0  0  0  0  0  0
   38.7670   28.9630   37.9630 C   0  0  0  0  0  0  0  0  0  0  0  0
   38.9830   27.8850   38.1150 H   0  0  0  0  0  0  0  0  0  0  0  0
   38.7980   29.1570   36.8850 H   0  0  0  0  0  0  0  0  0  0  0  0
   39.8330   31.0420   38.7540 C   0  0  0  0  0  3  0  0  0  0  0  0
   39.8720   29.6980   38.6820 C   0  0  0  0  0  3  0  0  0  0  0  0
   40.6640   33.1080   39.9720 C   0  0  0  0  0  0  0  0  0  0  0  0
   40.8830   31.8050   39.4430 C   0  0  0  0  0  0  0  0  0  0  0  0
   42.1510   31.2330   39.5930 C   0  0  0  0  0  0  0  0  0  0  0  0
   43.1140   31.9460   40.2350 N   0  0  0  0  0  0  0  0  0  0  0  0
   42.8670   33.1750   40.7210 C   0  0  0  0  0  0  0  0  0  0  0  0
   41.6530   33.7350   40.5830 N   0  0  0  0  0  0  0  0  0  0  0  0
   39.6610   33.5270   39.8370 H   0  0  0  0  0  0  0  0  0  0  0  0
   42.3620   30.2450   39.2070 H   0  0  0  0  0  0  0  0  0  0  0  0
   44.8540   34.4970   39.3000 F   0  0  0  0  0  0  0  0  0  0  0  0
   44.9150   34.5580   40.6570 C   0  0  0  0  0  0  0  0  0  0  0  0
   43.9300   33.9030   41.4030 C   0  0  0  0  0  0  0  0  0  0  0  0
   43.9220   33.9170   42.7780 C   0  0  0  0  0  0  0  0  0  0  0  0
   44.9480   34.6200   43.4100 C   0  0  0  0  0  0  0  0  0  0  0  0
   45.9490   35.2850   42.6860 C   0  0  0  0  0  0  0  0  0  0  0  0
   45.9250   35.2490   41.3050 C   0  0  0  0  0  0  0  0  0  0  0  0
   43.1600   33.4110   43.3230 H   0  0  0  0  0  0  0  0  0  0  0  0
   44.9070   34.6090   44.5010 H   0  0  0  0  0  0  0  0  0  0  0  0
   46.6980   35.8010   43.2540 H   0  0  0  0  0  0  0  0  0  0  0  0
   46.6960   35.7620   40.7360 H   0  0  0  0  0  0  0  0  0  0  0  0
  1  5  1  0  0  0  0
  2  7  1  0  0  0  0
  2  3  1  0  0  0  0
  2  1  1  0  0  0  0
  3  8  1  0  0  0  0
  3  4  1  0  0  0  0
  4  5  1  0  0  0  0
  4 10  1  0  0  0  0
  5 12  1  6  0  0  0
  5 14  1  0  0  0  0
  6  2  1  0  0  0  0
  9  3  1  0  0  0  0
 11  4  1  0  0  0  0
 13 20  1  0  0  0  0
 14 15  1  0  0  0  0
 14 13  2  0  0  0  0
 15 17  2  0  0  0  0
 16 15  1  0  0  0  0
 17 18  1  0  0  0  0
 17 19  1  0  0  0  0
 20 19  2  0  0  0  0
 21 22  2  0  0  0  0
 22 23  1  0  0  0  0
 22 13  1  0  0  0  0
 23 25  1  0  0  0  0
 24 21  1  0  0  0  0
 26 23  1  0  0  0  0
 27 28  1  0  0  0  0
 27  1  1  0  0  0  0
 27 31  1  0  0  0  0
 29 27  1  0  0  0  0
 30 33  1  0  0  0  0
 31 30  2  0  0  0  0
 32 37  1  0  0  0  0
 33 34  1  0  0  0  0
 33 32  2  0  0  0  0
 34 35  2  0  0  0  0
 35 36  1  0  0  0  0
 36 42  1  0  0  0  0
 37 36  2  0  0  0  0
 38 32  1  0  0  0  0
 39 34  1  0  0  0  0
 40 41  1  0  0  0  0
 41 46  2  0  0  0  0
 41 42  1  0  0  0  0
 42 43  2  0  0  0  0
 43 47  1  0  0  0  0
 43 44  1  0  0  0  0
 44 48  1  0  0  0  0
 45 49  1  0  0  0  0
 45 44  2  0  0  0  0
 46 45  1  0  0  0  0
 50 46  1  0  0  0  0
M  END
>  <minimizedAffinity>
-6.30711508

$$$$

 OpenBabel03252501533D

 50 53  0  0  1  0  0  0  0  0999 V2000
   37.2660   24.6840   39.6460 N   0  0  0  0  0  0  0  0  0  0  0  0
   37.0210   23.3010   39.3100 C   0  0  0  0  0  0  0  0  0  0  0  0
   37.5880   22.4600   40.4080 C   0  0  0  0  0  0  0  0  0  0  0  0
   38.6480   23.3350   40.9970 C   0  0  0  0  0  0  0  0  0  0  0  0
   38.3640   24.7500   40.5420 C   0  0  2  0  0  0  0  0  0  0  0  0
   37.5240   23.0800   38.3300 H   0  0  0  0  0  0  0  0  0  0  0  0
   35.9230   23.1190   39.2070 H   0  0  0  0  0  0  0  0  0  0  0  0
   36.8220   22.1160   41.1190 H   0  0  0  0  0  0  0  0  0  0  0  0
   38.0870   21.5750   39.9470 H   0  0  0  0  0  0  0  0  0  0  0  0
   38.5120   23.3000   42.1160 H   0  0  0  0  0  0  0  0  0  0  0  0
   39.6820   23.0050   40.8270 H   0  0  0  0  0  0  0  0  0  0  0  0
   39.2650   25.0190   39.9140 H   0  0  0  0  0  0  0  0  0  0  0  0
   39.3010   26.2200   42.3920 C   0  0  0  0  0  0  0  0  0  0  0  0
   38.2870   25.6990   41.6440 C   0  0  0  0  0  0  0  0  0  0  0  0
   37.0220   26.1810   42.0120 C   0  0  0  0  0  0  0  0  0  0  0  0
   36.1460   25.8120   41.4590 H   0  0  0  0  0  0  0  0  0  0  0  0
   36.8670   27.0900   43.0360 C   0  0  0  0  0  0  0  0  0  0  0  0
   35.8520   27.3940   43.2370 H   0  0  0  0  0  0  0  0  0  0  0  0
   37.9320   27.5800   43.7570 C   0  0  0  0  0  3  0  0  0  0  0  0
   39.1840   27.1280   43.4200 C   0  0  0  0  0  3  0  0  0  0  0  0
   41.7370   25.8280   41.4410 N   0  0  0  0  0  0  0  0  0  0  0  0
   40.6570   25.8040   42.1280 C   0  0  0  0  0  0  0  0  0  0  0  0
   41.3310   24.8620   42.9890 N   0  0  0  0  0  0  0  0  0  0  0  0
   42.5050   25.2090   41.8090 H   0  0  0  0  0  0  0  0  0  0  0  0
   41.0110   23.8500   42.9520 H   0  0  0  0  0  0  0  0  0  0  0  0
   42.0630   24.6390   43.7200 H   0  0  0  0  0  0  0  0  0  0  0  0
   37.5250   25.4210   38.4280 C   0  0  0  0  0  0  0  0  0  0  0  0
   38.5000   25.9340   38.5590 H   0  0  0  0  0  0  0  0  0  0  0  0
   37.6020   24.7860   37.5400 H   0  0  0  0  0  0  0  0  0  0  0  0
   35.3470   26.2480   37.6170 C   0  0  0  0  0  3  0  0  0  0  0  0
   36.5160   26.5260   38.2250 C   0  0  0  0  0  3  0  0  0  0  0  0
   34.3490   28.5360   38.0780 C   0  0  0  0  0  0  0  0  0  0  0  0
   34.3320   27.2870   37.3950 C   0  0  0  0  0  0  0  0  0  0  0  0
   33.3060   27.0490   36.4750 C   0  0  0  0  0  0  0  0  0  0  0  0
   32.3730   28.0180   36.2750 N   0  0  0  0  0  0  0  0  0  0  0  0
   32.4250   29.1860   36.9410 C   0  0  0  0  0  0  0  0  0  0  0  0
   33.4060   29.4260   37.8280 N   0  0  0  0  0  0  0  0  0  0  0  0
   35.1660   28.6910   38.7920 H   0  0  0  0  0  0  0  0  0  0  0  0
   33.2530   26.1150   35.9330 H   0  0  0  0  0  0  0  0  0  0  0  0
   30.5680   29.8680   38.8900 F   0  0  0  0  0  0  0  0  0  0  0  0
   30.4840   30.5160   37.6980 C   0  0  0  0  0  0  0  0  0  0  0  0
   31.4040   30.1970   36.6950 C   0  0  0  0  0  0  0  0  0  0  0  0
   31.3860   30.8080   35.4620 C   0  0  0  0  0  0  0  0  0  0  0  0
   30.4010   31.7720   35.2490 C   0  0  0  0  0  0  0  0  0  0  0  0
   29.4660   32.1120   36.2370 C   0  0  0  0  0  0  0  0  0  0  0  0
   29.5150   31.4770   37.4640 C   0  0  0  0  0  0  0  0  0  0  0  0
   32.0980   30.5470   34.7160 H   0  0  0  0  0  0  0  0  0  0  0  0
   30.4200   32.2350   34.2600 H   0  0  0  0  0  0  0  0  0  0  0  0
   28.7450   32.8640   35.9870 H   0  0  0  0  0  0  0  0  0  0  0  0
   28.7940   31.7330   38.2370 H   0  0  0  0  0  0  0  0  0  0  0  0
  1  5  1  0  0  0  0
  2  1  1  0  0  0  0
  2  3  1  0  0  0  0
  3  4  1  0  0  0  0
  3  8  1  0  0  0  0
  4 10  1  0  0  0  0
  5 12  1  6  0  0  0
  5  4  1  0  0  0  0
  5 14  1  0  0  0  0
  6  2  1  0  0  0  0
  7  2  1  0  0  0  0
  9  3  1  0  0  0  0
 11  4  1  0  0  0  0
 13 20  1  0  0  0  0
 14 15  1  0  0  0  0
 14 13  2  0  0  0  0
 15 17  2  0  0  0  0
 16 15  1  0  0  0  0
 17 18  1  0  0  0  0
 17 19  1  0  0  0  0
 20 19  2  0  0  0  0
 21 24  1  0  0  0  0
 21 22  2  0  0  0  0
 22 13  1  0  0  0  0
 22 23  1  0  0  0  0
 23 26  1  0  0  0  0
 25 23  1  0  0  0  0
 27 28  1  0  0  0  0
 27  1  1  0  0  0  0
 29 27  1  0  0  0  0
 30 31  2  0  0  0  0
 31 27  1  0  0  0  0
 32 38  1  0  0  0  0
 33 30  1  0  0  0  0
 33 32  2  0  0  0  0
 34 33  1  0  0  0  0
 35 34  2  0  0  0  0
 35 36  1  0  0  0  0
 36 37  2  0  0  0  0
 37 32  1  0  0  0  0
 39 34  1  0  0  0  0
 41 40  1  0  0  0  0
 42 36  1  0  0  0  0
 42 41  2  0  0  0  0
 43 42  1  0  0  0  0
 44 43  2  0  0  0  0
 44 45  1  0  0  0  0
 45 46  2  0  0  0  0
 46 41  1  0  0  0  0
 46 50  1  0  0  0  0
 47 43  1  0  0  0  0
 48 44  1  0  0  0  0
 49 45  1  0  0  0  0
M  END
>  <minimizedAffinity>
-6.23504257

$$$$
