
     RDKit          3D

 26 27  0  0  0  0  0  0  0  0999 V2000
   44.5586   35.6213   45.0634 C   0  0  0  0  0  0  0  0  0  0  0  0
   45.0254   35.8862   43.7731 C   0  0  0  0  0  0  0  0  0  0  0  0
   45.9740   34.9821   43.2377 C   0  0  0  0  0  0  0  0  0  0  0  0
   46.3739   33.9166   44.0053 N   0  0  0  0  0  0  0  0  0  0  0  0
   45.8885   33.7113   45.2436 C   0  0  0  0  0  0  0  0  0  0  0  0
   44.9916   34.5601   45.7578 N   0  0  0  0  0  0  0  0  0  0  0  0
   44.6340   36.9595   42.9872 O   0  0  0  0  0  0  0  0  0  0  0  0
   43.8380   36.3103   45.4641 H   0  0  0  0  0  0  0  0  0  0  0  0
   46.2169   32.8647   45.8276 H   0  0  0  0  0  0  0  0  0  0  0  0
   45.1997   37.7821   42.9607 H   0  0  0  0  0  0  0  0  0  0  0  0
   45.5726   32.2095   40.2072 N   0  0  0  0  0  0  0  0  0  0  0  0
   45.3550   33.2786   40.9487 C   0  0  0  0  0  0  0  0  0  0  0  0
   44.1920   32.8090   41.5942 N   0  0  0  0  0  0  0  0  0  0  0  0
   46.2941   34.3724   40.8093 C   0  0  0  0  0  0  0  0  0  0  0  0
   46.5708   35.1078   41.9159 C   0  0  0  0  0  0  0  0  0  0  0  0
   47.5015   36.1518   41.8252 C   0  0  0  0  0  0  0  0  0  0  0  0
   47.8464   36.8332   42.5843 H   0  0  0  0  0  0  0  0  0  0  0  0
   48.0870   36.3691   40.5865 C   0  0  0  0  0  0  0  0  0  0  0  0
   48.8239   37.1472   40.3685 H   0  0  0  0  0  0  0  0  0  0  0  0
   47.7707   35.5895   39.4710 C   0  0  0  0  0  0  0  0  0  0  0  0
   46.8573   34.5642   39.5691 C   0  0  0  0  0  0  0  0  0  0  0  0
   46.3581   32.1105   39.5499 H   0  0  0  0  0  0  0  0  0  0  0  0
   43.2302   32.7533   41.1341 H   0  0  0  0  0  0  0  0  0  0  0  0
   44.3486   32.5022   42.5868 H   0  0  0  0  0  0  0  0  0  0  0  0
   48.2253   35.7575   38.5070 H   0  0  0  0  0  0  0  0  0  0  0  0
   46.5888   33.9435   38.7286 H   0  0  0  0  0  0  0  0  0  0  0  0
  1  6  2  0
  2  1  1  0
  3  2  2  0
  3  4  1  0
  4  5  2  0
  5  6  1  0
  7  2  1  0
  1  8  1  0
  5  9  1  0
  7 10  1  0
 11 12  2  3
 12 13  1  0
 12 14  1  0
 14 15  2  0
 15 16  1  0
 16 17  1  0
 16 18  2  0
 18 19  1  0
 18 20  1  0
 20 21  2  0
 21 14  1  0
 11 22  1  0
 13 23  1  0
 13 24  1  0
 20 25  1  0
 21 26  1  0
  3 15  1  0
M  ISO  5   8  14   9  14  10   3  17  15  19  16
M  END
>  <DihAtoms>  (1) 
1,2,14,13

>  <DihDeg>  (1) 
119.55260996944297

$$$$
