
     RDKit          3D

 50 53  0  0  0  0  0  0  0  0999 V2000
   46.8792   34.7408   42.0811 C   0  0  0  0  0  0  0  0  0  0  0  0
   48.0126   35.5004   41.9076 C   0  0  0  0  0  0  0  0  0  0  0  0
   48.7542   35.5401   40.7477 C   0  0  0  0  0  0  0  0  0  0  0  0
   48.2497   34.7209   39.7259 C   0  0  0  0  0  0  0  0  0  0  0  0
   47.1018   33.9432   39.8908 C   0  0  0  0  0  0  0  0  0  0  0  0
   46.4281   33.9611   41.0658 N   0  0  0  0  0  0  0  0  0  0  0  0
   45.6385   33.9435   45.4288 C   0  0  0  0  0  0  0  0  0  0  0  0
   44.7113   34.9366   45.6969 C   0  0  0  0  0  0  0  0  0  0  0  0
   44.5214   35.8879   44.7004 C   0  0  0  0  0  0  0  0  0  0  0  0
   45.2456   35.7899   43.5371 N   0  0  0  0  0  0  0  0  0  0  0  0
   46.1418   34.7871   43.3390 C   0  0  0  0  0  0  0  0  0  0  0  0
   46.3330   33.8829   44.2679 N   0  0  0  0  0  0  0  0  0  0  0  0
   46.6148   33.0936   38.8074 C   0  0  1  0  0  0  0  0  0  0  0  0
   45.0859   33.2377   38.6165 C   0  0  0  0  0  0  0  0  0  0  0  0
   44.7130   32.0308   37.7335 C   0  0  0  0  0  0  0  0  0  0  0  0
   45.2749   32.3694   36.3540 C   0  0  0  0  0  0  0  0  0  0  0  0
   46.7464   32.4931   36.4067 C   0  0  0  0  0  0  0  0  0  0  0  0
   47.3458   33.2400   37.5497 C   0  0  2  0  0  0  0  0  0  0  0  0
   48.3176   36.0986   42.7615 H   0  0  0  0  0  0  0  0  0  0  0  0
   49.6289   36.1428   40.6507 H   0  0  0  0  0  0  0  0  0  0  0  0
   48.8511   34.7912   38.8347 H   0  0  0  0  0  0  0  0  0  0  0  0
   45.7949   33.1885   46.2085 H   0  0  0  0  0  0  0  0  0  0  0  0
   44.1700   34.9631   46.6314 H   0  0  0  0  0  0  0  0  0  0  0  0
   43.8171   36.6906   44.8363 H   0  0  0  0  0  0  0  0  0  0  0  0
   46.6773   32.0323   39.1992 H   0  0  0  0  0  0  0  0  0  0  0  0
   44.5423   33.2235   39.5549 H   0  0  0  0  0  0  0  0  0  0  0  0
   44.9263   34.1502   38.0142 H   0  0  0  0  0  0  0  0  0  0  0  0
   43.6255   31.9743   37.6656 H   0  0  0  0  0  0  0  0  0  0  0  0
   45.2220   31.1724   38.1794 H   0  0  0  0  0  0  0  0  0  0  0  0
   45.0093   31.5860   35.6349 H   0  0  0  0  0  0  0  0  0  0  0  0
   44.8340   33.3492   36.0709 H   0  0  0  0  0  0  0  0  0  0  0  0
   47.0991   32.8675   35.4160 H   0  0  0  0  0  0  0  0  0  0  0  0
   47.1494   31.4369   36.4389 H   0  0  0  0  0  0  0  0  0  0  0  0
   47.4410   34.3061   37.2523 H   0  0  0  0  0  0  0  0  0  0  0  0
   47.9026   30.2087   40.2979 N   0  0  0  0  0  0  0  0  0  0  0  0
   47.7729   30.8516   39.1704 C   0  0  0  0  0  0  0  0  0  0  0  0
   46.3854   30.5990   39.0638 N   0  0  0  0  0  0  0  0  0  0  0  0
   48.8744   31.5280   38.4520 C   0  0  0  0  0  0  0  0  0  0  0  0
   48.7458   32.6760   37.6544 C   0  0  0  0  0  0  0  0  0  0  0  0
   49.9094   33.1296   37.0783 C   0  0  0  0  0  0  0  0  0  0  0  0
   49.8136   34.0098   36.4659 H   0  0  0  0  0  0  0  0  0  0  0  0
   51.1001   32.4775   37.2914 C   0  0  0  0  0  0  0  0  0  0  0  0
   51.9421   32.9254   36.7882 H   0  0  0  0  0  0  0  0  0  0  0  0
   51.2084   31.3536   38.0760 C   0  0  0  0  0  0  0  0  0  0  0  0
   50.0682   30.8778   38.6631 C   0  0  0  0  0  0  0  0  0  0  0  0
   48.8053   30.1158   40.7989 H   0  0  0  0  0  0  0  0  0  0  0  0
   45.9983   29.7406   38.5909 H   0  0  0  0  0  0  0  0  0  0  0  0
   45.6019   31.2018   39.4229 H   0  0  0  0  0  0  0  0  0  0  0  0
   52.2099   30.9613   38.1431 H   0  0  0  0  0  0  0  0  0  0  0  0
   50.2180   29.9964   39.2645 H   0  0  0  0  0  0  0  0  0  0  0  0
  1 11  1  0
  2  1  2  0
  3  2  1  0
  4  5  1  0
  4  3  2  0
  5  6  2  0
  6  1  1  0
  7  8  2  0
  9  8  1  0
 10  9  2  0
 11 10  1  0
 11 12  2  0
 12  7  1  0
 13  5  1  0
 14 13  1  0
 15 14  1  0
 16 15  1  0
 17 16  1  0
 17 18  1  0
 18 13  1  0
  2 19  1  0
  3 20  1  0
  4 21  1  0
  7 22  1  0
  8 23  1  0
  9 24  1  0
 13 25  1  1
 14 26  1  0
 14 27  1  0
 15 28  1  0
 15 29  1  0
 16 30  1  0
 16 31  1  0
 17 32  1  0
 17 33  1  0
 18 34  1  6
 35 36  2  3
 36 37  1  0
 36 38  1  0
 38 39  2  0
 39 40  1  0
 40 41  1  0
 40 42  2  0
 42 43  1  0
 42 44  1  0
 44 45  2  0
 45 38  1  0
 35 46  1  0
 37 47  1  0
 37 48  1  0
 44 49  1  0
 45 50  1  0
 18 39  1  0
M  ISO  8  19  14  20  14  21  14  22  14  23  14  24  14  25  13  26  13
M  ISO  8  27  13  28  13  29  13  30  13  31  13  32  13  33  13  34  13
M  ISO  2  41  15  43  16
M  END
>  <DihAtoms>  (1) 
16,17,38,37

>  <DihDeg>  (1) 
77.58063260202296

$$$$
