REMARK  Name = 
REMARK  3 active torsions:
REMARK  status: ('A' for Active; 'I' for Inactive)
REMARK    1  A    between atoms: C_2  and  C_7
REMARK    2  A    between atoms: C_3  and  C_17
REMARK    3  A    between atoms: C_14  and  C_16
REMARK                            x       y       z     vdW  Elec       q    Type
REMARK                         _______ _______ _______ _____ _____    ______ ____
ROOT
ATOM      1  C   UNL     1      45.770  31.820  42.085  0.00  0.00    +0.000 A 
ATOM      2  C   UNL     1      45.543  33.170  42.129  0.00  0.00    +0.000 A 
ATOM      3  C   UNL     1      45.554  33.859  40.919  0.00  0.00    +0.000 A 
ATOM      4  H   UNL     1      45.379  34.927  40.900  0.00  0.00    +0.000 HD
ATOM      5  C   UNL     1      45.780  33.264  39.685  0.00  0.00    +0.000 A 
ATOM      6  H   UNL     1      45.782  33.828  38.768  0.00  0.00    +0.000 HD
ATOM      7  C   UNL     1      46.008  31.897  39.666  0.00  0.00    +0.000 A 
ATOM      8  C   UNL     1      45.996  31.218  40.865  0.00  0.00    +0.000 A 
ENDROOT
BRANCH   2  11
ATOM      9  C   UNL     1      44.384  35.775  44.431  0.00  0.00    +0.000 A 
ATOM     10  C   UNL     1      44.671  35.052  43.264  0.00  0.00    +0.000 A 
ATOM     11  C   UNL     1      45.304  33.801  43.385  0.00  0.00    +0.000 A 
ATOM     12  N   UNL     1      45.584  33.398  44.627  0.00  0.00    +0.000 NA
ATOM     13  C   UNL     1      45.305  34.096  45.734  0.00  0.00    +0.000 A 
ATOM     14  N   UNL     1      44.694  35.312  45.676  0.00  0.00    +0.000 NA
ATOM     15  H   UNL     1      43.903  36.743  44.471  0.00  0.00    +0.000 HD
ATOM     16  H   UNL     1      45.645  33.526  46.605  0.00  0.00    +0.000 HD
BRANCH  10  17
ATOM     17  C   UNL     1      44.257  35.732  42.020  0.00  0.00    +0.000 C 
ATOM     18  H   UNL     1      44.885  35.340  41.175  0.00  0.00    +0.000 HD
ATOM     19  H   UNL     1      44.484  36.811  42.113  0.00  0.00    +0.000 HD
ATOM     20  H   UNL     1      43.189  35.543  41.776  0.00  0.00    +0.000 HD
ENDBRANCH  10  17
ENDBRANCH   2  11
BRANCH   1  22
ATOM     21  N   UNL     1      45.129  30.963  44.274  0.00  0.00    +0.000 NA
ATOM     22  C   UNL     1      45.805  30.905  43.208  0.00  0.00    +0.000 C 
ATOM     23  N   UNL     1      46.681  29.758  43.212  0.00  0.00    +0.000 N 
ATOM     24  H   UNL     1      45.148  30.326  45.069  0.00  0.00    +0.000 HD
ATOM     25  H   UNL     1      46.321  28.844  42.875  0.00  0.00    +0.000 HD
ATOM     26  H   UNL     1      47.646  29.933  43.566  0.00  0.00    +0.000 HD
ENDBRANCH   1  22
TORSDOF 3
