
 OpenBabel03242511293D

 39 43  0  0  1  0  0  0  0  0999 V2000
   47.0950   33.1870   38.5900 C   0  0  0  0  0  0  0  0  0  0  0  0
   47.3170   33.7560   37.3450 C   0  0  0  0  0  0  0  0  0  0  0  0
   46.8410   32.3860   36.1890 S   0  0  0  0  0  0  0  0  0  0  0  0
   46.4180   31.2730   37.6640 C   0  0  0  0  0  0  0  0  0  0  0  0
   46.6570   31.9690   38.5030 N   0  0  0  0  0  0  0  0  0  0  0  0
   47.6770   34.7430   37.0780 H   0  0  0  0  0  0  0  0  0  0  0  0
   45.1800   33.1400   41.0610 Cl  0  0  0  0  0  0  0  0  0  0  0  0
   46.6280   34.0580   40.9340 C   0  0  0  0  0  0  0  0  0  0  0  0
   47.0280   34.8580   41.9770 C   0  0  0  0  0  0  0  0  0  0  0  0
   48.2010   35.6230   41.9180 C   0  0  0  0  0  0  0  0  0  0  0  0
   48.9220   35.5230   40.7580 C   0  0  0  0  0  0  0  0  0  0  0  0
   48.5280   34.7330   39.7250 C   0  0  0  0  0  0  0  0  0  0  0  0
   47.3630   33.9770   39.7900 C   0  0  0  0  0  0  0  0  0  0  0  0
   48.5130   36.2520   42.7400 H   0  0  0  0  0  0  0  0  0  0  0  0
   49.8310   36.1180   40.7170 H   0  0  0  0  0  0  0  0  0  0  0  0
   49.1850   34.7370   38.8540 H   0  0  0  0  0  0  0  0  0  0  0  0
   45.6050   34.0350   45.2860 C   0  0  0  0  0  0  0  0  0  0  0  0
   44.6720   35.0430   45.4680 C   0  0  0  0  0  0  0  0  0  0  0  0
   44.5290   35.9950   44.4700 C   0  0  0  0  0  0  0  0  0  0  0  0
   45.2990   35.9130   43.3590 N   0  0  0  0  0  0  0  0  0  0  0  0
   46.2120   34.9210   43.1880 C   0  0  0  0  0  0  0  0  0  0  0  0
   46.3460   33.9980   44.1620 N   0  0  0  0  0  0  0  0  0  0  0  0
   45.7530   33.2690   46.0370 H   0  0  0  0  0  0  0  0  0  0  0  0
   44.0630   35.1150   46.3390 H   0  0  0  0  0  0  0  0  0  0  0  0
   43.8200   36.8310   44.5170 H   0  0  0  0  0  0  0  0  0  0  0  0
   44.6380   29.7830   36.8960 C   0  0  0  0  0  0  0  0  0  0  0  0
   45.9380   29.9440   37.3120 C   0  0  0  0  0  0  0  0  0  0  0  0
   46.6880   28.7880   37.3360 C   0  0  0  0  0  0  0  0  0  0  0  0
   47.7120   28.8480   37.6520 H   0  0  0  0  0  0  0  0  0  0  0  0
   46.1160   27.6020   36.9590 C   0  0  0  0  0  0  0  0  0  0  0  0
   46.7720   26.7400   37.0050 H   0  0  0  0  0  0  0  0  0  0  0  0
   44.8100   27.4600   36.5420 C   0  0  0  0  0  3  0  0  0  0  0  0
   44.0500   28.6070   36.5140 C   0  0  0  0  0  3  0  0  0  0  0  0
   43.0820   31.9330   37.2820 N   0  0  0  0  0  0  0  0  0  0  0  0
   43.7680   30.9420   36.8760 C   0  0  1  0  0  3  0  0  0  0  0  0
   43.2970   31.3900   35.6130 N   0  0  0  0  0  4  0  0  0  0  0  0
   42.9800   32.2170   38.2720 H   0  0  0  0  0  0  0  0  0  0  0  0
   43.8160   31.2370   34.7150 H   0  0  0  0  0  0  0  0  0  0  0  0
   42.9220   31.7340   34.7040 H   0  0  0  0  0  0  0  0  0  0  0  0
  1 13  1  0  0  0  0
  2  1  2  0  0  0  0
  3  2  1  0  0  0  0
  3  4  1  0  0  0  0
  4  5  2  0  0  0  0
  5  1  1  0  0  0  0
  6  2  1  0  0  0  0
  8  7  1  0  0  0  0
  8  9  1  0  0  0  0
  9 21  1  0  0  0  0
 10  9  2  0  0  0  0
 10 14  1  0  0  0  0
 11 10  1  0  0  0  0
 12 13  1  0  0  0  0
 12 11  2  0  0  0  0
 13  8  2  0  0  0  0
 15 11  1  0  0  0  0
 16 12  1  0  0  0  0
 17 18  1  0  0  0  0
 17 23  1  0  0  0  0
 18 24  1  0  0  0  0
 19 25  1  0  0  0  0
 19 18  2  0  0  0  0
 20 19  1  0  0  0  0
 21 20  2  0  0  0  0
 21 22  1  0  0  0  0
 22 17  2  0  0  0  0
 26 27  1  0  0  0  0
 27 28  2  0  0  0  0
 27  4  1  0  0  0  0
 28 29  1  0  0  0  0
 30 31  1  0  0  0  0
 30 28  1  0  0  0  0
 32 30  2  0  0  0  0
 33 32  1  0  0  0  0
 33 26  2  0  0  0  0
 34 37  1  0  0  0  0
 35 26  1  6  0  0  0
 35 34  1  0  0  0  0
 36 35  1  0  0  0  0
 36 34  1  0  0  0  0
 38 36  1  0  0  0  0
 39 36  1  0  0  0  0
M  END
>  <minimizedAffinity>
-5.81167841

>  <minimizedRMSD>
0.761929631

$$$$
