
 OpenBabel03252502103D

 53 57  0  0  0  0  0  0  0  0999 V2000
   36.8330   29.7830   37.9130 C   0  0  0  0  0  0  0  0  0  0  0  0
   35.9520   29.8640   36.9100 N   0  0  0  0  0  0  0  0  0  0  0  0
   35.1090   28.9050   36.5530 C   0  0  0  0  0  0  0  0  0  0  0  0
   35.0990   27.7330   37.2230 N   0  0  0  0  0  0  0  0  0  0  0  0
   35.9340   27.5130   38.2540 C   0  0  0  0  0  0  0  0  0  0  0  0
   35.9470   26.3210   38.9490 C   0  0  0  0  0  0  0  0  0  0  0  0
   36.7970   26.0970   39.9850 C   0  0  0  0  0  0  0  0  0  0  0  0
   37.6550   27.1100   40.3240 C   0  0  0  0  0  0  0  0  0  0  0  0
   37.6160   28.3050   39.6020 C   0  0  0  0  0  0  0  0  0  0  0  0
   36.7850   28.5590   38.5690 C   0  0  0  0  0  0  0  0  0  0  0  0
   34.4190   29.0500   35.7210 H   0  0  0  0  0  0  0  0  0  0  0  0
   35.2530   25.5430   38.6530 H   0  0  0  0  0  0  0  0  0  0  0  0
   36.7520   25.1390   40.4840 H   0  0  0  0  0  0  0  0  0  0  0  0
   37.7720   32.8840   39.5190 C   0  0  0  0  0  0  0  0  0  0  0  0
   39.1060   33.1240   39.1690 C   0  0  0  0  0  0  0  0  0  0  0  0
   39.7080   32.1870   38.3740 C   0  0  0  0  0  0  0  0  0  0  0  0
   39.0250   31.1140   37.9670 N   0  0  0  0  0  0  0  0  0  0  0  0
   37.7590   30.8780   38.2880 C   0  0  0  0  0  0  0  0  0  0  0  0
   37.1530   31.7830   39.0710 N   0  0  0  0  0  0  0  0  0  0  0  0
   41.0280   32.3420   38.0140 N   0  0  0  0  0  0  0  0  0  0  0  0
   41.8330   31.3140   37.2990 C   0  0  0  0  0  0  0  0  0  0  0  0
   43.0880   32.0140   36.8520 C   0  0  0  0  0  0  0  0  0  0  0  0
   43.2550   33.0800   37.8870 C   0  0  0  0  0  0  0  0  0  0  0  0
   41.8670   33.4790   38.2530 C   0  0  0  0  0  0  0  0  0  0  0  0
   37.2500   33.6050   40.1550 H   0  0  0  0  0  0  0  0  0  0  0  0
   41.2750   30.9640   36.4040 H   0  0  0  0  0  0  0  0  0  0  0  0
   42.0570   30.4750   38.0120 H   0  0  0  0  0  0  0  0  0  0  0  0
   43.9330   31.3150   36.7920 H   0  0  0  0  0  0  0  0  0  0  0  0
   42.8730   32.5130   35.8760 H   0  0  0  0  0  0  0  0  0  0  0  0
   43.8000   32.6140   38.7350 H   0  0  0  0  0  0  0  0  0  0  0  0
   43.8670   33.9320   37.5020 H   0  0  0  0  0  0  0  0  0  0  0  0
   41.9530   33.7210   39.3560 H   0  0  0  0  0  0  0  0  0  0  0  0
   41.6020   34.3630   37.6440 H   0  0  0  0  0  0  0  0  0  0  0  0
   39.6790   34.2870   39.5920 N   0  0  0  0  0  0  0  0  0  0  0  0
   39.8800   35.1850   39.0990 H   0  0  0  0  0  0  0  0  0  0  0  0
   40.0020   34.3520   40.6020 H   0  0  0  0  0  0  0  0  0  0  0  0
   38.3940   27.3050   42.7460 C   0  0  0  0  0  0  0  0  0  0  0  0
   38.5600   26.8420   41.4420 C   0  0  0  0  0  0  0  0  0  0  0  0
   39.6500   26.0550   41.0910 C   0  0  0  0  0  0  0  0  0  0  0  0
   39.8220   25.6720   40.0920 H   0  0  0  0  0  0  0  0  0  0  0  0
   40.5980   25.7180   42.0550 C   0  0  0  0  0  0  0  0  0  0  0  0
   41.4570   25.0930   41.7610 H   0  0  0  0  0  0  0  0  0  0  0  0
   40.4350   26.1760   43.3490 C   0  0  0  0  0  3  0  0  0  0  0  0
   39.3490   26.9560   43.6800 C   0  0  0  0  0  3  0  0  0  0  0  0
   37.2970   29.3990   42.9050 N   0  0  0  0  0  0  0  0  0  0  0  0
   37.2130   28.1240   43.0020 C   0  0  0  0  0  0  0  0  0  0  0  0
   36.0780   27.3140   43.3440 N   0  0  0  0  0  0  0  0  0  0  0  0
   36.4740   30.0160   43.0810 H   0  0  0  0  0  0  0  0  0  0  0  0
   35.5110   27.2900   44.2170 H   0  0  0  0  0  0  0  0  0  0  0  0
   35.6750   26.6020   42.6780 H   0  0  0  0  0  0  0  0  0  0  0  0
   38.5720   29.2350   40.1210 N   0  0  0  0  0  0  0  0  0  0  0  0
   39.5580   29.4790   39.8950 H   0  0  0  0  0  0  0  0  0  0  0  0
   38.0490   29.7140   40.8970 H   0  0  0  0  0  0  0  0  0  0  0  0
  1 18  1  0  0  0  0
  1 10  1  0  0  0  0
  2  1  2  0  0  0  0
  3  2  1  0  0  0  0
  3  4  2  0  0  0  0
  4  5  1  0  0  0  0
  5 10  2  0  0  0  0
  5  6  1  0  0  0  0
  6  7  2  0  0  0  0
  7  8  1  0  0  0  0
  7 13  1  0  0  0  0
  8 38  1  0  0  0  0
  9 51  1  0  0  0  0
  9  8  2  0  0  0  0
 10  9  1  0  0  0  0
 11  3  1  0  0  0  0
 12  6  1  0  0  0  0
 14 25  1  0  0  0  0
 15 14  1  0  0  0  0
 15 34  1  0  0  0  0
 16 15  2  0  0  0  0
 17 18  2  0  0  0  0
 17 16  1  0  0  0  0
 18 19  1  0  0  0  0
 19 14  2  0  0  0  0
 20 24  1  0  0  0  0
 20 16  1  0  0  0  0
 21 27  1  0  0  0  0
 21 20  1  0  0  0  0
 22 21  1  0  0  0  0
 22 23  1  0  0  0  0
 23 24  1  0  0  0  0
 23 30  1  0  0  0  0
 24 32  1  0  0  0  0
 26 21  1  0  0  0  0
 28 22  1  0  0  0  0
 29 22  1  0  0  0  0
 31 23  1  0  0  0  0
 33 24  1  0  0  0  0
 34 36  1  0  0  0  0
 35 34  1  0  0  0  0
 37 46  1  0  0  0  0
 37 44  1  0  0  0  0
 38 37  2  0  0  0  0
 39 38  1  0  0  0  0
 39 41  2  0  0  0  0
 40 39  1  0  0  0  0
 41 43  1  0  0  0  0
 42 41  1  0  0  0  0
 43 44  2  0  0  0  0
 45 46  2  0  0  0  0
 45 48  1  0  0  0  0
 46 47  1  0  0  0  0
 47 49  1  0  0  0  0
 50 47  1  0  0  0  0
 51 53  1  0  0  0  0
 52 51  1  0  0  0  0
M  END
>  <minimizedAffinity>
-7.11335993

$$$$

 OpenBabel03252502103D

 53 57  0  0  0  0  0  0  0  0999 V2000
   37.3330   24.5610   38.7530 C   0  0  0  0  0  0  0  0  0  0  0  0
   37.0700   23.2650   38.5490 N   0  0  0  0  0  0  0  0  0  0  0  0
   37.2410   22.2990   39.4420 C   0  0  0  0  0  0  0  0  0  0  0  0
   37.7170   22.5950   40.6710 N   0  0  0  0  0  0  0  0  0  0  0  0
   38.0250   23.8580   41.0130 C   0  0  0  0  0  0  0  0  0  0  0  0
   38.5200   24.1830   42.2590 C   0  0  0  0  0  0  0  0  0  0  0  0
   38.8390   25.4580   42.6010 C   0  0  0  0  0  0  0  0  0  0  0  0
   38.6510   26.4290   41.6530 C   0  0  0  0  0  0  0  0  0  0  0  0
   38.1480   26.0680   40.4010 C   0  0  0  0  0  0  0  0  0  0  0  0
   37.8210   24.8120   40.0310 C   0  0  0  0  0  0  0  0  0  0  0  0
   37.0010   21.2650   39.1970 H   0  0  0  0  0  0  0  0  0  0  0  0
   38.6550   23.3880   42.9850 H   0  0  0  0  0  0  0  0  0  0  0  0
   39.2220   25.6390   43.5970 H   0  0  0  0  0  0  0  0  0  0  0  0
   38.3200   26.7650   36.0620 C   0  0  0  0  0  0  0  0  0  0  0  0
   37.2010   27.5520   35.7640 C   0  0  0  0  0  0  0  0  0  0  0  0
   36.0700   27.3100   36.4940 C   0  0  0  0  0  0  0  0  0  0  0  0
   36.0710   26.3650   37.4380 N   0  0  0  0  0  0  0  0  0  0  0  0
   37.1250   25.6160   37.7330 C   0  0  0  0  0  0  0  0  0  0  0  0
   38.2440   25.8360   37.0250 N   0  0  0  0  0  0  0  0  0  0  0  0
   34.9230   28.0250   36.2360 N   0  0  0  0  0  0  0  0  0  0  0  0
   33.5950   27.7370   36.8430 C   0  0  0  0  0  0  0  0  0  0  0  0
   32.7310   28.9270   36.5230 C   0  0  0  0  0  0  0  0  0  0  0  0
   33.3170   29.4230   35.2400 C   0  0  0  0  0  0  0  0  0  0  0  0
   34.7770   29.1470   35.3550 C   0  0  0  0  0  0  0  0  0  0  0  0
   39.2470   26.9210   35.5030 H   0  0  0  0  0  0  0  0  0  0  0  0
   33.7020   27.6530   37.9460 H   0  0  0  0  0  0  0  0  0  0  0  0
   33.1880   26.7950   36.3850 H   0  0  0  0  0  0  0  0  0  0  0  0
   31.6730   28.6420   36.4490 H   0  0  0  0  0  0  0  0  0  0  0  0
   32.9120   29.7030   37.3070 H   0  0  0  0  0  0  0  0  0  0  0  0
   32.8370   28.8400   34.4270 H   0  0  0  0  0  0  0  0  0  0  0  0
   33.0890   30.5050   35.0780 H   0  0  0  0  0  0  0  0  0  0  0  0
   35.0740   28.8970   34.2930 H   0  0  0  0  0  0  0  0  0  0  0  0
   35.2640   30.0690   35.7260 H   0  0  0  0  0  0  0  0  0  0  0  0
   37.3390   28.5290   34.8220 N   0  0  0  0  0  0  0  0  0  0  0  0
   37.4590   29.5630   34.9030 H   0  0  0  0  0  0  0  0  0  0  0  0
   37.3300   28.2470   33.7980 H   0  0  0  0  0  0  0  0  0  0  0  0
   38.1030   28.7790   42.4460 C   0  0  0  0  0  0  0  0  0  0  0  0
   39.0050   27.7930   42.0460 C   0  0  0  0  0  0  0  0  0  0  0  0
   40.3700   28.0460   41.9900 C   0  0  0  0  0  0  0  0  0  0  0  0
   41.1080   27.3130   41.6860 H   0  0  0  0  0  0  0  0  0  0  0  0
   40.8540   29.3060   42.3370 C   0  0  0  0  0  0  0  0  0  0  0  0
   41.9400   29.4910   42.2870 H   0  0  0  0  0  0  0  0  0  0  0  0
   39.9620   30.2840   42.7330 C   0  0  0  0  0  3  0  0  0  0  0  0
   38.6120   30.0170   42.7830 C   0  0  0  0  0  3  0  0  0  0  0  0
   35.9440   28.7050   41.4730 N   0  0  0  0  0  0  0  0  0  0  0  0
   36.6940   28.4030   42.4680 C   0  0  0  0  0  0  0  0  0  0  0  0
   36.3540   27.7130   43.6800 N   0  0  0  0  0  0  0  0  0  0  0  0
   34.9320   28.4530   41.4540 H   0  0  0  0  0  0  0  0  0  0  0  0
   35.6790   27.9690   44.4300 H   0  0  0  0  0  0  0  0  0  0  0  0
   36.8000   26.7940   43.9470 H   0  0  0  0  0  0  0  0  0  0  0  0
   38.0100   27.2220   39.5650 N   0  0  0  0  0  0  0  0  0  0  0  0
   38.6080   27.6930   38.8570 H   0  0  0  0  0  0  0  0  0  0  0  0
   37.0580   27.5910   39.8160 H   0  0  0  0  0  0  0  0  0  0  0  0
  1 10  1  0  0  0  0
  2  1  2  0  0  0  0
  2  3  1  0  0  0  0
  3  4  2  0  0  0  0
  4  5  1  0  0  0  0
  5  6  1  0  0  0  0
  6  7  2  0  0  0  0
  6 12  1  0  0  0  0
  7 13  1  0  0  0  0
  8 38  1  0  0  0  0
  8  7  1  0  0  0  0
  9  8  2  0  0  0  0
 10  9  1  0  0  0  0
 10  5  2  0  0  0  0
 11  3  1  0  0  0  0
 14 19  1  0  0  0  0
 15 14  2  0  0  0  0
 15 16  1  0  0  0  0
 16 17  2  0  0  0  0
 17 18  1  0  0  0  0
 18  1  1  0  0  0  0
 19 18  2  0  0  0  0
 20 16  1  0  0  0  0
 20 21  1  0  0  0  0
 21 26  1  0  0  0  0
 22 21  1  0  0  0  0
 22 29  1  0  0  0  0
 23 24  1  0  0  0  0
 23 22  1  0  0  0  0
 24 33  1  0  0  0  0
 24 20  1  0  0  0  0
 25 14  1  0  0  0  0
 27 21  1  0  0  0  0
 28 22  1  0  0  0  0
 30 23  1  0  0  0  0
 31 23  1  0  0  0  0
 32 24  1  0  0  0  0
 34 35  1  0  0  0  0
 34 15  1  0  0  0  0
 36 34  1  0  0  0  0
 37 46  1  0  0  0  0
 37 44  1  0  0  0  0
 38 37  2  0  0  0  0
 39 38  1  0  0  0  0
 39 41  2  0  0  0  0
 40 39  1  0  0  0  0
 41 43  1  0  0  0  0
 42 41  1  0  0  0  0
 43 44  2  0  0  0  0
 45 46  2  0  0  0  0
 46 47  1  0  0  0  0
 47 50  1  0  0  0  0
 47 49  1  0  0  0  0
 48 45  1  0  0  0  0
 51 53  1  0  0  0  0
 51  9  1  0  0  0  0
 52 51  1  0  0  0  0
M  END
>  <minimizedAffinity>
-6.752038

$$$$

 OpenBabel03252502103D

 53 57  0  0  0  0  0  0  0  0999 V2000
   37.6390   28.2650   36.2320 C   0  0  0  0  0  0  0  0  0  0  0  0
   37.0820   28.3970   35.0230 N   0  0  0  0  0  0  0  0  0  0  0  0
   35.7980   28.6340   34.7930 C   0  0  0  0  0  0  0  0  0  0  0  0
   34.9410   28.7610   35.8290 N   0  0  0  0  0  0  0  0  0  0  0  0
   35.3640   28.6500   37.1000 C   0  0  0  0  0  0  0  0  0  0  0  0
   34.5050   28.7690   38.1740 C   0  0  0  0  0  0  0  0  0  0  0  0
   34.9320   28.6490   39.4580 C   0  0  0  0  0  0  0  0  0  0  0  0
   36.2650   28.4020   39.6570 C   0  0  0  0  0  0  0  0  0  0  0  0
   37.1080   28.2880   38.5490 C   0  0  0  0  0  0  0  0  0  0  0  0
   36.7160   28.4030   37.2620 C   0  0  0  0  0  0  0  0  0  0  0  0
   35.4220   28.7280   33.7740 H   0  0  0  0  0  0  0  0  0  0  0  0
   33.4570   28.9650   37.9780 H   0  0  0  0  0  0  0  0  0  0  0  0
   34.2030   28.7540   40.2500 H   0  0  0  0  0  0  0  0  0  0  0  0
   40.5790   26.1970   36.6240 C   0  0  0  0  0  0  0  0  0  0  0  0
   41.6440   27.0670   36.8840 C   0  0  0  0  0  0  0  0  0  0  0  0
   41.3510   28.4040   36.9080 C   0  0  0  0  0  0  0  0  0  0  0  0
   40.1000   28.8190   36.6960 N   0  0  0  0  0  0  0  0  0  0  0  0
   39.0810   28.0040   36.4530 C   0  0  0  0  0  0  0  0  0  0  0  0
   39.3500   26.6900   36.4200 N   0  0  0  0  0  0  0  0  0  0  0  0
   42.3540   29.3200   37.1280 N   0  0  0  0  0  0  0  0  0  0  0  0
   42.1900   30.7940   37.0110 C   0  0  0  0  0  0  0  0  0  0  0  0
   43.4250   31.3950   37.6250 C   0  0  0  0  0  0  0  0  0  0  0  0
   44.4560   30.3380   37.3900 C   0  0  0  0  0  0  0  0  0  0  0  0
   43.7140   29.0500   37.4940 C   0  0  0  0  0  0  0  0  0  0  0  0
   40.7660   25.1200   36.5930 H   0  0  0  0  0  0  0  0  0  0  0  0
   41.3010   31.1150   37.5960 H   0  0  0  0  0  0  0  0  0  0  0  0
   42.0970   31.0590   35.9230 H   0  0  0  0  0  0  0  0  0  0  0  0
   43.6670   32.3630   37.1660 H   0  0  0  0  0  0  0  0  0  0  0  0
   43.2580   31.4720   38.7270 H   0  0  0  0  0  0  0  0  0  0  0  0
   44.8610   30.5130   36.3710 H   0  0  0  0  0  0  0  0  0  0  0  0
   45.2980   30.4170   38.1200 H   0  0  0  0  0  0  0  0  0  0  0  0
   44.2370   28.3920   36.7370 H   0  0  0  0  0  0  0  0  0  0  0  0
   43.8300   28.6800   38.5300 H   0  0  0  0  0  0  0  0  0  0  0  0
   42.8660   26.5220   37.1490 N   0  0  0  0  0  0  0  0  0  0  0  0
   43.3840   26.3740   38.0430 H   0  0  0  0  0  0  0  0  0  0  0  0
   43.4450   26.1630   36.3340 H   0  0  0  0  0  0  0  0  0  0  0  0
   37.1390   29.3220   41.8570 C   0  0  0  0  0  0  0  0  0  0  0  0
   36.6980   28.2750   41.0480 C   0  0  0  0  0  0  0  0  0  0  0  0
   36.6330   26.9730   41.5290 C   0  0  0  0  0  0  0  0  0  0  0  0
   36.2970   26.1280   40.9390 H   0  0  0  0  0  0  0  0  0  0  0  0
   37.0150   26.7000   42.8410 C   0  0  0  0  0  0  0  0  0  0  0  0
   36.9580   25.6620   43.2070 H   0  0  0  0  0  0  0  0  0  0  0  0
   37.4530   27.7360   43.6440 C   0  0  0  0  0  3  0  0  0  0  0  0
   37.5120   29.0210   43.1520 C   0  0  0  0  0  3  0  0  0  0  0  0
   38.2350   31.0550   40.6710 N   0  0  0  0  0  0  0  0  0  0  0  0
   37.1660   30.6480   41.2500 C   0  0  0  0  0  0  0  0  0  0  0  0
   35.9100   31.3240   41.4110 N   0  0  0  0  0  0  0  0  0  0  0  0
   38.2920   31.9980   40.2260 H   0  0  0  0  0  0  0  0  0  0  0  0
   35.6870   32.2130   41.9050 H   0  0  0  0  0  0  0  0  0  0  0  0
   35.0130   30.9470   41.0030 H   0  0  0  0  0  0  0  0  0  0  0  0
   38.4560   28.0490   38.9680 N   0  0  0  0  0  0  0  0  0  0  0  0
   39.0380   27.2010   39.1230 H   0  0  0  0  0  0  0  0  0  0  0  0
   38.8350   29.0160   39.1290 H   0  0  0  0  0  0  0  0  0  0  0  0
  1 18  1  0  0  0  0
  1 10  1  0  0  0  0
  2  1  2  0  0  0  0
  3  2  1  0  0  0  0
  3  4  2  0  0  0  0
  4  5  1  0  0  0  0
  5 10  2  0  0  0  0
  5  6  1  0  0  0  0
  6  7  2  0  0  0  0
  7  8  1  0  0  0  0
  7 13  1  0  0  0  0
  8 38  1  0  0  0  0
  9 51  1  0  0  0  0
  9  8  2  0  0  0  0
 10  9  1  0  0  0  0
 11  3  1  0  0  0  0
 12  6  1  0  0  0  0
 14 15  1  0  0  0  0
 15 16  2  0  0  0  0
 15 34  1  0  0  0  0
 16 20  1  0  0  0  0
 17 16  1  0  0  0  0
 18 17  2  0  0  0  0
 19 18  1  0  0  0  0
 19 14  2  0  0  0  0
 20 24  1  0  0  0  0
 21 20  1  0  0  0  0
 21 26  1  0  0  0  0
 21 22  1  0  0  0  0
 22 29  1  0  0  0  0
 23 24  1  0  0  0  0
 23 22  1  0  0  0  0
 23 31  1  0  0  0  0
 24 33  1  0  0  0  0
 25 14  1  0  0  0  0
 27 21  1  0  0  0  0
 28 22  1  0  0  0  0
 30 23  1  0  0  0  0
 32 24  1  0  0  0  0
 34 35  1  0  0  0  0
 36 34  1  0  0  0  0
 37 44  1  0  0  0  0
 38 39  1  0  0  0  0
 38 37  2  0  0  0  0
 39 41  2  0  0  0  0
 40 39  1  0  0  0  0
 41 42  1  0  0  0  0
 41 43  1  0  0  0  0
 44 43  2  0  0  0  0
 45 46  2  0  0  0  0
 46 47  1  0  0  0  0
 46 37  1  0  0  0  0
 47 49  1  0  0  0  0
 48 45  1  0  0  0  0
 50 47  1  0  0  0  0
 51 52  1  0  0  0  0
 51 53  1  0  0  0  0
M  END
>  <minimizedAffinity>
-6.73010635

$$$$

 OpenBabel03252502103D

 53 57  0  0  0  0  0  0  0  0999 V2000
   37.3280   27.8180   40.9110 C   0  0  0  0  0  0  0  0  0  0  0  0
   36.8470   27.0280   41.8770 N   0  0  0  0  0  0  0  0  0  0  0  0
   37.0710   27.1810   43.1750 C   0  0  0  0  0  0  0  0  0  0  0  0
   37.8420   28.2010   43.6080 N   0  0  0  0  0  0  0  0  0  0  0  0
   38.3930   29.0730   42.7470 C   0  0  0  0  0  0  0  0  0  0  0  0
   39.1890   30.1190   43.1670 C   0  0  0  0  0  0  0  0  0  0  0  0
   39.7530   30.9950   42.2950 C   0  0  0  0  0  0  0  0  0  0  0  0
   39.5000   30.8050   40.9620 C   0  0  0  0  0  0  0  0  0  0  0  0
   38.6890   29.7370   40.5690 C   0  0  0  0  0  0  0  0  0  0  0  0
   38.1150   28.8510   41.4090 C   0  0  0  0  0  0  0  0  0  0  0  0
   36.6410   26.4910   43.9000 H   0  0  0  0  0  0  0  0  0  0  0  0
   39.3660   30.2390   44.2300 H   0  0  0  0  0  0  0  0  0  0  0  0
   40.3660   31.7910   42.6950 H   0  0  0  0  0  0  0  0  0  0  0  0
   38.0240   26.6230   37.5700 C   0  0  0  0  0  0  0  0  0  0  0  0
   36.9740   27.0730   36.7610 C   0  0  0  0  0  0  0  0  0  0  0  0
   35.9890   27.7930   37.3810 C   0  0  0  0  0  0  0  0  0  0  0  0
   36.0610   28.0380   38.6920 N   0  0  0  0  0  0  0  0  0  0  0  0
   37.0540   27.6210   39.4680 C   0  0  0  0  0  0  0  0  0  0  0  0
   38.0270   26.9090   38.8790 N   0  0  0  0  0  0  0  0  0  0  0  0
   34.9100   28.2430   36.6540 N   0  0  0  0  0  0  0  0  0  0  0  0
   33.7040   28.8850   37.2450 C   0  0  0  0  0  0  0  0  0  0  0  0
   32.9470   29.4770   36.0880 C   0  0  0  0  0  0  0  0  0  0  0  0
   33.3230   28.5790   34.9540 C   0  0  0  0  0  0  0  0  0  0  0  0
   34.7310   28.1800   35.2330 C   0  0  0  0  0  0  0  0  0  0  0  0
   38.8330   26.0420   37.1190 H   0  0  0  0  0  0  0  0  0  0  0  0
   34.0170   29.7010   37.9300 H   0  0  0  0  0  0  0  0  0  0  0  0
   33.1020   28.0970   37.7750 H   0  0  0  0  0  0  0  0  0  0  0  0
   31.8680   29.5090   36.2930 H   0  0  0  0  0  0  0  0  0  0  0  0
   33.3730   30.4890   35.8810 H   0  0  0  0  0  0  0  0  0  0  0  0
   32.6230   27.7180   34.9880 H   0  0  0  0  0  0  0  0  0  0  0  0
   33.2010   29.0900   33.9680 H   0  0  0  0  0  0  0  0  0  0  0  0
   34.7780   27.1180   34.8440 H   0  0  0  0  0  0  0  0  0  0  0  0
   35.3910   28.8680   34.6720 H   0  0  0  0  0  0  0  0  0  0  0  0
   37.0410   26.8160   35.4240 N   0  0  0  0  0  0  0  0  0  0  0  0
   37.3000   27.4160   34.6100 H   0  0  0  0  0  0  0  0  0  0  0  0
   36.7940   25.8390   35.0850 H   0  0  0  0  0  0  0  0  0  0  0  0
   39.6540   33.0470   39.7800 C   0  0  0  0  0  0  0  0  0  0  0  0
   40.1200   31.7600   40.0440 C   0  0  0  0  0  0  0  0  0  0  0  0
   41.2630   31.2690   39.4260 C   0  0  0  0  0  0  0  0  0  0  0  0
   41.6630   30.2770   39.5990 H   0  0  0  0  0  0  0  0  0  0  0  0
   41.9600   32.0700   38.5230 C   0  0  0  0  0  0  0  0  0  0  0  0
   42.8650   31.6650   38.0410 H   0  0  0  0  0  0  0  0  0  0  0  0
   41.5000   33.3460   38.2610 C   0  0  0  0  0  3  0  0  0  0  0  0
   40.3650   33.8180   38.8820 C   0  0  0  0  0  3  0  0  0  0  0  0
   37.3050   33.0230   40.0950 N   0  0  0  0  0  0  0  0  0  0  0  0
   38.4450   33.4610   40.4850 C   0  0  0  0  0  0  0  0  0  0  0  0
   38.7500   34.3480   41.5720 N   0  0  0  0  0  0  0  0  0  0  0  0
   36.4200   33.2970   40.5750 H   0  0  0  0  0  0  0  0  0  0  0  0
   38.4590   35.3360   41.7320 H   0  0  0  0  0  0  0  0  0  0  0  0
   39.3540   34.0540   42.3860 H   0  0  0  0  0  0  0  0  0  0  0  0
   38.5350   29.7230   39.1460 N   0  0  0  0  0  0  0  0  0  0  0  0
   39.0250   29.2510   38.3580 H   0  0  0  0  0  0  0  0  0  0  0  0
   37.7240   30.3700   38.9820 H   0  0  0  0  0  0  0  0  0  0  0  0
  1 10  2  0  0  0  0
  1  2  1  0  0  0  0
  2  3  2  0  0  0  0
  3  4  1  0  0  0  0
  3 11  1  0  0  0  0
  5  6  1  0  0  0  0
  5  4  2  0  0  0  0
  6 12  1  0  0  0  0
  7 13  1  0  0  0  0
  7  6  2  0  0  0  0
  8  7  1  0  0  0  0
  9  8  2  0  0  0  0
  9 10  1  0  0  0  0
 10  5  1  0  0  0  0
 14 19  1  0  0  0  0
 15 16  1  0  0  0  0
 15 14  2  0  0  0  0
 16 17  2  0  0  0  0
 17 18  1  0  0  0  0
 18  1  1  0  0  0  0
 19 18  2  0  0  0  0
 20 21  1  0  0  0  0
 20 16  1  0  0  0  0
 21 27  1  0  0  0  0
 21 26  1  0  0  0  0
 22 28  1  0  0  0  0
 22 21  1  0  0  0  0
 23 30  1  0  0  0  0
 23 24  1  0  0  0  0
 23 22  1  0  0  0  0
 24 20  1  0  0  0  0
 25 14  1  0  0  0  0
 29 22  1  0  0  0  0
 31 23  1  0  0  0  0
 32 24  1  0  0  0  0
 33 24  1  0  0  0  0
 34 15  1  0  0  0  0
 35 34  1  0  0  0  0
 36 34  1  0  0  0  0
 37 38  1  0  0  0  0
 37 46  1  0  0  0  0
 38  8  1  0  0  0  0
 39 40  1  0  0  0  0
 39 38  2  0  0  0  0
 41 39  1  0  0  0  0
 42 41  1  0  0  0  0
 43 41  2  0  0  0  0
 43 44  1  0  0  0  0
 44 37  2  0  0  0  0
 45 46  2  0  0  0  0
 45 48  1  0  0  0  0
 46 47  1  0  0  0  0
 47 49  1  0  0  0  0
 47 50  1  0  0  0  0
 51  9  1  0  0  0  0
 52 51  1  0  0  0  0
 53 51  1  0  0  0  0
M  END
>  <minimizedAffinity>
-6.72467279

$$$$

 OpenBabel03252502103D

 53 57  0  0  0  0  0  0  0  0999 V2000
   38.8550   29.0140   41.1520 C   0  0  0  0  0  0  0  0  0  0  0  0
   39.3340   28.4810   42.2820 N   0  0  0  0  0  0  0  0  0  0  0  0
   39.0480   27.2690   42.7380 C   0  0  0  0  0  0  0  0  0  0  0  0
   38.2120   26.4680   42.0420 N   0  0  0  0  0  0  0  0  0  0  0  0
   37.6560   26.8760   40.8890 C   0  0  0  0  0  0  0  0  0  0  0  0
   36.7940   26.0780   40.1650 C   0  0  0  0  0  0  0  0  0  0  0  0
   36.2250   26.4940   39.0030 C   0  0  0  0  0  0  0  0  0  0  0  0
   36.5420   27.7520   38.5650 C   0  0  0  0  0  0  0  0  0  0  0  0
   37.4190   28.5350   39.3190 C   0  0  0  0  0  0  0  0  0  0  0  0
   38.0000   28.1510   40.4750 C   0  0  0  0  0  0  0  0  0  0  0  0
   39.4810   26.9080   43.6700 H   0  0  0  0  0  0  0  0  0  0  0  0
   36.5670   25.0870   40.5430 H   0  0  0  0  0  0  0  0  0  0  0  0
   35.5590   25.8150   38.4890 H   0  0  0  0  0  0  0  0  0  0  0  0
   38.4050   32.5840   40.8010 C   0  0  0  0  0  0  0  0  0  0  0  0
   39.4290   33.0320   39.9580 C   0  0  0  0  0  0  0  0  0  0  0  0
   40.3110   32.0860   39.5090 C   0  0  0  0  0  0  0  0  0  0  0  0
   40.1670   30.8100   39.8750 N   0  0  0  0  0  0  0  0  0  0  0  0
   39.1990   30.3720   40.6700 C   0  0  0  0  0  0  0  0  0  0  0  0
   38.3270   31.2860   41.1230 N   0  0  0  0  0  0  0  0  0  0  0  0
   41.3600   32.4580   38.7000 N   0  0  0  0  0  0  0  0  0  0  0  0
   42.4710   31.5550   38.2920 C   0  0  0  0  0  0  0  0  0  0  0  0
   43.2010   32.2760   37.1910 C   0  0  0  0  0  0  0  0  0  0  0  0
   42.9610   33.7130   37.5230 C   0  0  0  0  0  0  0  0  0  0  0  0
   41.5940   33.7460   38.1150 C   0  0  0  0  0  0  0  0  0  0  0  0
   37.6780   33.3050   41.1850 H   0  0  0  0  0  0  0  0  0  0  0  0
   42.0490   30.6090   37.8890 H   0  0  0  0  0  0  0  0  0  0  0  0
   43.1340   31.3770   39.1820 H   0  0  0  0  0  0  0  0  0  0  0  0
   44.2620   31.9950   37.1670 H   0  0  0  0  0  0  0  0  0  0  0  0
   42.6770   32.0530   36.2290 H   0  0  0  0  0  0  0  0  0  0  0  0
   43.7460   34.0040   38.2520 H   0  0  0  0  0  0  0  0  0  0  0  0
   43.0610   34.3650   36.6210 H   0  0  0  0  0  0  0  0  0  0  0  0
   41.6720   34.5610   38.8960 H   0  0  0  0  0  0  0  0  0  0  0  0
   40.8840   34.0000   37.3050 H   0  0  0  0  0  0  0  0  0  0  0  0
   39.4350   34.3480   39.6030 N   0  0  0  0  0  0  0  0  0  0  0  0
   39.1420   34.8360   38.7270 H   0  0  0  0  0  0  0  0  0  0  0  0
   39.7960   35.0590   40.3060 H   0  0  0  0  0  0  0  0  0  0  0  0
   36.5110   28.1270   36.0530 C   0  0  0  0  0  0  0  0  0  0  0  0
   35.9150   28.1770   37.3130 C   0  0  0  0  0  0  0  0  0  0  0  0
   34.6210   28.6540   37.4780 C   0  0  0  0  0  0  0  0  0  0  0  0
   34.1170   28.7120   38.4360 H   0  0  0  0  0  0  0  0  0  0  0  0
   33.9000   29.0950   36.3700 C   0  0  0  0  0  0  0  0  0  0  0  0
   32.8740   29.4710   36.5190 H   0  0  0  0  0  0  0  0  0  0  0  0
   34.4880   29.0470   35.1210 C   0  0  0  0  0  3  0  0  0  0  0  0
   35.7720   28.5700   34.9740 C   0  0  0  0  0  3  0  0  0  0  0  0
   38.8610   28.4050   36.1720 N   0  0  0  0  0  0  0  0  0  0  0  0
   37.8730   27.6070   35.9950 C   0  0  0  0  0  0  0  0  0  0  0  0
   37.8850   26.1960   35.7320 N   0  0  0  0  0  0  0  0  0  0  0  0
   39.8480   28.0690   36.1380 H   0  0  0  0  0  0  0  0  0  0  0  0
   38.2900   25.6670   34.9310 H   0  0  0  0  0  0  0  0  0  0  0  0
   37.4420   25.4980   36.3890 H   0  0  0  0  0  0  0  0  0  0  0  0
   37.6320   29.8010   38.6860 N   0  0  0  0  0  0  0  0  0  0  0  0
   37.1990   30.7440   38.7620 H   0  0  0  0  0  0  0  0  0  0  0  0
   38.4180   29.6070   38.0150 H   0  0  0  0  0  0  0  0  0  0  0  0
  1  2  1  0  0  0  0
  2  3  2  0  0  0  0
  3 11  1  0  0  0  0
  4  3  1  0  0  0  0
  5  4  2  0  0  0  0
  6 12  1  0  0  0  0
  6  5  1  0  0  0  0
  7  6  2  0  0  0  0
  8  7  1  0  0  0  0
  8  9  2  0  0  0  0
  9 10  1  0  0  0  0
 10  5  1  0  0  0  0
 10  1  2  0  0  0  0
 13  7  1  0  0  0  0
 14 19  1  0  0  0  0
 14 25  1  0  0  0  0
 15 14  2  0  0  0  0
 16 17  2  0  0  0  0
 16 15  1  0  0  0  0
 17 18  1  0  0  0  0
 18 19  2  0  0  0  0
 18  1  1  0  0  0  0
 20 16  1  0  0  0  0
 21 20  1  0  0  0  0
 21 27  1  0  0  0  0
 22 23  1  0  0  0  0
 22 21  1  0  0  0  0
 23 24  1  0  0  0  0
 23 30  1  0  0  0  0
 24 20  1  0  0  0  0
 24 32  1  0  0  0  0
 26 21  1  0  0  0  0
 28 22  1  0  0  0  0
 29 22  1  0  0  0  0
 31 23  1  0  0  0  0
 33 24  1  0  0  0  0
 34 15  1  0  0  0  0
 34 36  1  0  0  0  0
 35 34  1  0  0  0  0
 37 38  1  0  0  0  0
 38 39  2  0  0  0  0
 38  8  1  0  0  0  0
 39 40  1  0  0  0  0
 41 42  1  0  0  0  0
 41 39  1  0  0  0  0
 43 41  2  0  0  0  0
 44 43  1  0  0  0  0
 44 37  2  0  0  0  0
 46 37  1  0  0  0  0
 46 45  2  0  0  0  0
 47 46  1  0  0  0  0
 47 50  1  0  0  0  0
 48 45  1  0  0  0  0
 49 47  1  0  0  0  0
 51 52  1  0  0  0  0
 51  9  1  0  0  0  0
 53 51  1  0  0  0  0
M  END
>  <minimizedAffinity>
-6.72115707

$$$$

 OpenBabel03252502103D

 53 57  0  0  0  0  0  0  0  0999 V2000
   37.6490   26.7380   41.6740 C   0  0  0  0  0  0  0  0  0  0  0  0
   38.1330   26.9000   42.9100 N   0  0  0  0  0  0  0  0  0  0  0  0
   38.0880   28.0260   43.6080 C   0  0  0  0  0  0  0  0  0  0  0  0
   37.5180   29.1270   43.0730 N   0  0  0  0  0  0  0  0  0  0  0  0
   36.9910   29.1080   41.8370 C   0  0  0  0  0  0  0  0  0  0  0  0
   36.4100   30.2230   41.2670 C   0  0  0  0  0  0  0  0  0  0  0  0
   35.8860   30.2050   40.0140 C   0  0  0  0  0  0  0  0  0  0  0  0
   35.9520   29.0240   39.3220 C   0  0  0  0  0  0  0  0  0  0  0  0
   36.5450   27.9130   39.9270 C   0  0  0  0  0  0  0  0  0  0  0  0
   37.0750   27.8990   41.1690 C   0  0  0  0  0  0  0  0  0  0  0  0
   38.5070   28.0760   44.6130 H   0  0  0  0  0  0  0  0  0  0  0  0
   36.3750   31.1390   41.8450 H   0  0  0  0  0  0  0  0  0  0  0  0
   35.4460   31.1160   39.6310 H   0  0  0  0  0  0  0  0  0  0  0  0
   36.4340   23.5180   40.5620 C   0  0  0  0  0  0  0  0  0  0  0  0
   37.4390   22.9720   39.7560 C   0  0  0  0  0  0  0  0  0  0  0  0
   38.5600   23.7360   39.5730 C   0  0  0  0  0  0  0  0  0  0  0  0
   38.6560   24.9340   40.1530 N   0  0  0  0  0  0  0  0  0  0  0  0
   37.7120   25.4610   40.9230 C   0  0  0  0  0  0  0  0  0  0  0  0
   36.6040   24.7290   41.1110 N   0  0  0  0  0  0  0  0  0  0  0  0
   39.5770   23.2750   38.7680 N   0  0  0  0  0  0  0  0  0  0  0  0
   40.7610   24.0810   38.3620 C   0  0  0  0  0  0  0  0  0  0  0  0
   41.7340   23.1050   37.7590 C   0  0  0  0  0  0  0  0  0  0  0  0
   40.8370   22.0390   37.2170 C   0  0  0  0  0  0  0  0  0  0  0  0
   39.6960   21.9760   38.1730 C   0  0  0  0  0  0  0  0  0  0  0  0
   35.5190   22.9450   40.7350 H   0  0  0  0  0  0  0  0  0  0  0  0
   41.2210   24.5430   39.2610 H   0  0  0  0  0  0  0  0  0  0  0  0
   40.4290   24.8520   37.6140 H   0  0  0  0  0  0  0  0  0  0  0  0
   42.3620   23.5880   36.9980 H   0  0  0  0  0  0  0  0  0  0  0  0
   42.3330   22.6600   38.5900 H   0  0  0  0  0  0  0  0  0  0  0  0
   40.5250   22.3730   36.2050 H   0  0  0  0  0  0  0  0  0  0  0  0
   41.3740   21.0650   37.1140 H   0  0  0  0  0  0  0  0  0  0  0  0
   38.8160   21.7310   37.5060 H   0  0  0  0  0  0  0  0  0  0  0  0
   39.9140   21.1730   38.9020 H   0  0  0  0  0  0  0  0  0  0  0  0
   37.2540   21.7120   39.2690 N   0  0  0  0  0  0  0  0  0  0  0  0
   37.6400   20.7870   39.5630 H   0  0  0  0  0  0  0  0  0  0  0  0
   36.6090   21.5830   38.4350 H   0  0  0  0  0  0  0  0  0  0  0  0
   36.0950   29.2530   36.7970 C   0  0  0  0  0  0  0  0  0  0  0  0
   35.3820   29.0320   37.9750 C   0  0  0  0  0  0  0  0  0  0  0  0
   34.0140   28.7900   37.9540 C   0  0  0  0  0  0  0  0  0  0  0  0
   33.4190   28.6130   38.8420 H   0  0  0  0  0  0  0  0  0  0  0  0
   33.3350   28.7680   36.7370 C   0  0  0  0  0  0  0  0  0  0  0  0
   32.2490   28.5750   36.7380 H   0  0  0  0  0  0  0  0  0  0  0  0
   34.0380   28.9870   35.5690 C   0  0  0  0  0  3  0  0  0  0  0  0
   35.3950   29.2250   35.6070 C   0  0  0  0  0  3  0  0  0  0  0  0
   38.3310   28.5000   37.0100 N   0  0  0  0  0  0  0  0  0  0  0  0
   37.5260   29.4960   36.9360 C   0  0  0  0  0  0  0  0  0  0  0  0
   37.8190   30.9010   36.9690 N   0  0  0  0  0  0  0  0  0  0  0  0
   39.3610   28.6360   37.1100 H   0  0  0  0  0  0  0  0  0  0  0  0
   38.2580   31.4760   37.7180 H   0  0  0  0  0  0  0  0  0  0  0  0
   37.5950   31.5410   36.1600 H   0  0  0  0  0  0  0  0  0  0  0  0
   36.4990   26.7820   39.0520 N   0  0  0  0  0  0  0  0  0  0  0  0
   37.1460   26.3700   38.3480 H   0  0  0  0  0  0  0  0  0  0  0  0
   35.5580   26.3590   39.2500 H   0  0  0  0  0  0  0  0  0  0  0  0
  1  2  1  0  0  0  0
  2  3  2  0  0  0  0
  3 11  1  0  0  0  0
  4  3  1  0  0  0  0
  5  4  2  0  0  0  0
  6  5  1  0  0  0  0
  6 12  1  0  0  0  0
  7  6  2  0  0  0  0
  8  9  2  0  0  0  0
  8  7  1  0  0  0  0
  9 10  1  0  0  0  0
 10  1  2  0  0  0  0
 10  5  1  0  0  0  0
 13  7  1  0  0  0  0
 14 25  1  0  0  0  0
 14 19  1  0  0  0  0
 15 14  2  0  0  0  0
 16 15  1  0  0  0  0
 16 17  2  0  0  0  0
 17 18  1  0  0  0  0
 18 19  2  0  0  0  0
 18  1  1  0  0  0  0
 20 16  1  0  0  0  0
 21 20  1  0  0  0  0
 21 26  1  0  0  0  0
 22 21  1  0  0  0  0
 22 29  1  0  0  0  0
 23 22  1  0  0  0  0
 23 24  1  0  0  0  0
 24 20  1  0  0  0  0
 24 33  1  0  0  0  0
 27 21  1  0  0  0  0
 28 22  1  0  0  0  0
 30 23  1  0  0  0  0
 31 23  1  0  0  0  0
 32 24  1  0  0  0  0
 34 35  1  0  0  0  0
 34 15  1  0  0  0  0
 36 34  1  0  0  0  0
 37 46  1  0  0  0  0
 37 38  1  0  0  0  0
 38  8  1  0  0  0  0
 39 38  2  0  0  0  0
 39 40  1  0  0  0  0
 41 42  1  0  0  0  0
 41 39  1  0  0  0  0
 43 44  1  0  0  0  0
 43 41  2  0  0  0  0
 44 37  2  0  0  0  0
 45 48  1  0  0  0  0
 46 47  1  0  0  0  0
 46 45  2  0  0  0  0
 47 49  1  0  0  0  0
 50 47  1  0  0  0  0
 51 53  1  0  0  0  0
 51  9  1  0  0  0  0
 52 51  1  0  0  0  0
M  END
>  <minimizedAffinity>
-6.68078756

$$$$

 OpenBabel03252502103D

 53 57  0  0  0  0  0  0  0  0999 V2000
   37.3250   27.2050   40.9340 C   0  0  0  0  0  0  0  0  0  0  0  0
   37.7890   26.5510   42.0050 N   0  0  0  0  0  0  0  0  0  0  0  0
   37.7030   25.2420   42.1990 C   0  0  0  0  0  0  0  0  0  0  0  0
   37.1070   24.4620   41.2710 N   0  0  0  0  0  0  0  0  0  0  0  0
   36.5940   24.9870   40.1450 C   0  0  0  0  0  0  0  0  0  0  0  0
   35.9760   24.2100   39.1870 C   0  0  0  0  0  0  0  0  0  0  0  0
   35.4500   24.7420   38.0530 C   0  0  0  0  0  0  0  0  0  0  0  0
   35.5560   26.0980   37.8870 C   0  0  0  0  0  0  0  0  0  0  0  0
   36.1900   26.8570   38.8750 C   0  0  0  0  0  0  0  0  0  0  0  0
   36.7220   26.3590   40.0110 C   0  0  0  0  0  0  0  0  0  0  0  0
   38.1070   24.7850   43.1020 H   0  0  0  0  0  0  0  0  0  0  0  0
   35.9110   23.1410   39.3520 H   0  0  0  0  0  0  0  0  0  0  0  0
   34.9790   24.0740   37.3450 H   0  0  0  0  0  0  0  0  0  0  0  0
   36.2210   30.6420   41.1480 C   0  0  0  0  0  0  0  0  0  0  0  0
   37.2180   31.4170   40.5450 C   0  0  0  0  0  0  0  0  0  0  0  0
   38.3100   30.7460   40.0670 C   0  0  0  0  0  0  0  0  0  0  0  0
   38.3840   29.4180   40.1820 N   0  0  0  0  0  0  0  0  0  0  0  0
   37.4430   28.6710   40.7470 C   0  0  0  0  0  0  0  0  0  0  0  0
   36.3660   29.3120   41.2260 N   0  0  0  0  0  0  0  0  0  0  0  0
   39.3440   31.4460   39.4880 N   0  0  0  0  0  0  0  0  0  0  0  0
   40.6470   30.8480   39.0870 C   0  0  0  0  0  0  0  0  0  0  0  0
   41.3310   31.8870   38.2390 C   0  0  0  0  0  0  0  0  0  0  0  0
   40.7800   33.1670   38.7800 C   0  0  0  0  0  0  0  0  0  0  0  0
   39.3790   32.8440   39.1730 C   0  0  0  0  0  0  0  0  0  0  0  0
   35.3300   31.1350   41.5470 H   0  0  0  0  0  0  0  0  0  0  0  0
   40.4640   29.9410   38.4720 H   0  0  0  0  0  0  0  0  0  0  0  0
   41.2360   30.6170   40.0160 H   0  0  0  0  0  0  0  0  0  0  0  0
   42.4230   31.8050   38.3150 H   0  0  0  0  0  0  0  0  0  0  0  0
   40.9640   31.7700   37.1910 H   0  0  0  0  0  0  0  0  0  0  0  0
   41.4120   33.4410   39.6500 H   0  0  0  0  0  0  0  0  0  0  0  0
   40.8430   33.9900   38.0270 H   0  0  0  0  0  0  0  0  0  0  0  0
   39.2140   33.4910   40.0860 H   0  0  0  0  0  0  0  0  0  0  0  0
   38.7210   33.1260   38.3290 H   0  0  0  0  0  0  0  0  0  0  0  0
   37.0020   32.7580   40.4280 N   0  0  0  0  0  0  0  0  0  0  0  0
   36.7110   33.3500   39.6190 H   0  0  0  0  0  0  0  0  0  0  0  0
   37.1410   33.3690   41.2870 H   0  0  0  0  0  0  0  0  0  0  0  0
   35.6790   26.8880   35.4770 C   0  0  0  0  0  0  0  0  0  0  0  0
   34.9800   26.6460   36.6590 C   0  0  0  0  0  0  0  0  0  0  0  0
   33.6220   26.9200   36.7620 C   0  0  0  0  0  0  0  0  0  0  0  0
   33.0380   26.7480   37.6580 H   0  0  0  0  0  0  0  0  0  0  0  0
   32.9390   27.4470   35.6670 C   0  0  0  0  0  0  0  0  0  0  0  0
   31.8610   27.6580   35.7650 H   0  0  0  0  0  0  0  0  0  0  0  0
   33.6290   27.6870   34.4950 C   0  0  0  0  0  3  0  0  0  0  0  0
   34.9760   27.4110   34.4100 C   0  0  0  0  0  3  0  0  0  0  0  0
   37.9500   27.4520   35.8480 N   0  0  0  0  0  0  0  0  0  0  0  0
   37.1010   26.5640   35.4810 C   0  0  0  0  0  0  0  0  0  0  0  0
   37.3330   25.2160   35.0450 N   0  0  0  0  0  0  0  0  0  0  0  0
   38.9750   27.2560   35.8630 H   0  0  0  0  0  0  0  0  0  0  0  0
   37.8670   24.8590   34.2250 H   0  0  0  0  0  0  0  0  0  0  0  0
   36.9460   24.3830   35.5650 H   0  0  0  0  0  0  0  0  0  0  0  0
   36.2120   28.2400   38.5070 N   0  0  0  0  0  0  0  0  0  0  0  0
   35.5990   29.0600   38.6910 H   0  0  0  0  0  0  0  0  0  0  0  0
   37.0800   28.3210   37.9200 H   0  0  0  0  0  0  0  0  0  0  0  0
  1  2  1  0  0  0  0
  2  3  2  0  0  0  0
  3 11  1  0  0  0  0
  4  3  1  0  0  0  0
  5  4  2  0  0  0  0
  6 12  1  0  0  0  0
  6  5  1  0  0  0  0
  7  6  2  0  0  0  0
  8  7  1  0  0  0  0
  8  9  2  0  0  0  0
  9 10  1  0  0  0  0
 10  5  1  0  0  0  0
 10  1  2  0  0  0  0
 13  7  1  0  0  0  0
 14 19  1  0  0  0  0
 14 25  1  0  0  0  0
 15 14  2  0  0  0  0
 16 17  2  0  0  0  0
 16 15  1  0  0  0  0
 17 18  1  0  0  0  0
 18  1  1  0  0  0  0
 18 19  2  0  0  0  0
 20 16  1  0  0  0  0
 21 20  1  0  0  0  0
 21 27  1  0  0  0  0
 22 28  1  0  0  0  0
 22 23  1  0  0  0  0
 22 21  1  0  0  0  0
 23 24  1  0  0  0  0
 23 30  1  0  0  0  0
 24 20  1  0  0  0  0
 24 32  1  0  0  0  0
 26 21  1  0  0  0  0
 29 22  1  0  0  0  0
 31 23  1  0  0  0  0
 33 24  1  0  0  0  0
 34 15  1  0  0  0  0
 34 36  1  0  0  0  0
 35 34  1  0  0  0  0
 37 46  1  0  0  0  0
 37 38  1  0  0  0  0
 38 39  2  0  0  0  0
 38  8  1  0  0  0  0
 39 40  1  0  0  0  0
 41 42  1  0  0  0  0
 41 39  1  0  0  0  0
 43 41  2  0  0  0  0
 44 43  1  0  0  0  0
 44 37  2  0  0  0  0
 45 48  1  0  0  0  0
 46 45  2  0  0  0  0
 47 46  1  0  0  0  0
 47 50  1  0  0  0  0
 49 47  1  0  0  0  0
 51 52  1  0  0  0  0
 51  9  1  0  0  0  0
 53 51  1  0  0  0  0
M  END
>  <minimizedAffinity>
-6.61379671

$$$$

 OpenBabel03252502103D

 53 57  0  0  0  0  0  0  0  0999 V2000
   34.2350   26.5050   36.5280 C   0  0  0  0  0  0  0  0  0  0  0  0
   34.4400   25.1880   36.4130 N   0  0  0  0  0  0  0  0  0  0  0  0
   33.5140   24.2950   36.0920 C   0  0  0  0  0  0  0  0  0  0  0  0
   32.2470   24.6960   35.8510 N   0  0  0  0  0  0  0  0  0  0  0  0
   31.8990   25.9910   35.9310 C   0  0  0  0  0  0  0  0  0  0  0  0
   30.6100   26.4230   35.6960 C   0  0  0  0  0  0  0  0  0  0  0  0
   30.2570   27.7320   35.7860 C   0  0  0  0  0  0  0  0  0  0  0  0
   31.2390   28.6260   36.1220 C   0  0  0  0  0  0  0  0  0  0  0  0
   32.5350   28.1570   36.3530 C   0  0  0  0  0  0  0  0  0  0  0  0
   32.9170   26.8650   36.2710 C   0  0  0  0  0  0  0  0  0  0  0  0
   33.7620   23.2360   36.0190 H   0  0  0  0  0  0  0  0  0  0  0  0
   29.8590   25.6870   35.4310 H   0  0  0  0  0  0  0  0  0  0  0  0
   29.2280   27.9980   35.5880 H   0  0  0  0  0  0  0  0  0  0  0  0
   37.0310   28.7030   35.8730 C   0  0  0  0  0  0  0  0  0  0  0  0
   37.4150   29.2350   37.1100 C   0  0  0  0  0  0  0  0  0  0  0  0
   36.6850   28.8430   38.1990 C   0  0  0  0  0  0  0  0  0  0  0  0
   35.6670   27.9910   38.0520 N   0  0  0  0  0  0  0  0  0  0  0  0
   35.2960   27.4770   36.8860 C   0  0  0  0  0  0  0  0  0  0  0  0
   35.9970   27.8530   35.8050 N   0  0  0  0  0  0  0  0  0  0  0  0
   36.9870   29.3480   39.4430 N   0  0  0  0  0  0  0  0  0  0  0  0
   36.1660   29.1280   40.6640 C   0  0  0  0  0  0  0  0  0  0  0  0
   37.0140   29.5890   41.8180 C   0  0  0  0  0  0  0  0  0  0  0  0
   37.8740   30.6410   41.1930 C   0  0  0  0  0  0  0  0  0  0  0  0
   38.1090   30.1650   39.8010 C   0  0  0  0  0  0  0  0  0  0  0  0
   37.5840   28.9900   34.9740 H   0  0  0  0  0  0  0  0  0  0  0  0
   35.9560   28.0430   40.7790 H   0  0  0  0  0  0  0  0  0  0  0  0
   35.2230   29.7330   40.5750 H   0  0  0  0  0  0  0  0  0  0  0  0
   36.3940   29.9550   42.6470 H   0  0  0  0  0  0  0  0  0  0  0  0
   37.6740   28.7390   42.1190 H   0  0  0  0  0  0  0  0  0  0  0  0
   37.2920   31.5850   41.2270 H   0  0  0  0  0  0  0  0  0  0  0  0
   38.8200   30.7910   41.7690 H   0  0  0  0  0  0  0  0  0  0  0  0
   38.1450   31.1260   39.2050 H   0  0  0  0  0  0  0  0  0  0  0  0
   39.0740   29.6230   39.7910 H   0  0  0  0  0  0  0  0  0  0  0  0
   38.5110   30.0450   37.1440 N   0  0  0  0  0  0  0  0  0  0  0  0
   39.4970   29.8730   37.4420 H   0  0  0  0  0  0  0  0  0  0  0  0
   38.4050   31.0520   36.8210 H   0  0  0  0  0  0  0  0  0  0  0  0
   30.3790   30.6640   37.3690 C   0  0  0  0  0  0  0  0  0  0  0  0
   30.8330   30.0280   36.2140 C   0  0  0  0  0  0  0  0  0  0  0  0
   30.9390   30.7120   35.0100 C   0  0  0  0  0  0  0  0  0  0  0  0
   31.2860   30.2610   34.0880 H   0  0  0  0  0  0  0  0  0  0  0  0
   30.5850   32.0590   34.9470 C   0  0  0  0  0  0  0  0  0  0  0  0
   30.6750   32.5870   33.9830 H   0  0  0  0  0  0  0  0  0  0  0  0
   30.1350   32.6910   36.0900 C   0  0  0  0  0  3  0  0  0  0  0  0
   30.0360   31.9980   37.2760 C   0  0  0  0  0  3  0  0  0  0  0  0
   31.3470   29.7320   39.3210 N   0  0  0  0  0  0  0  0  0  0  0  0
   30.3090   29.8500   38.5780 C   0  0  0  0  0  0  0  0  0  0  0  0
   29.0030   29.2780   38.7490 N   0  0  0  0  0  0  0  0  0  0  0  0
   31.3340   29.1580   40.1920 H   0  0  0  0  0  0  0  0  0  0  0  0
   28.7090   28.2790   38.7810 H   0  0  0  0  0  0  0  0  0  0  0  0
   28.1400   29.8730   38.8690 H   0  0  0  0  0  0  0  0  0  0  0  0
   33.4110   29.2430   36.6720 N   0  0  0  0  0  0  0  0  0  0  0  0
   33.7370   29.6910   37.5530 H   0  0  0  0  0  0  0  0  0  0  0  0
   33.7260   29.5860   35.7300 H   0  0  0  0  0  0  0  0  0  0  0  0
  1 18  1  0  0  0  0
  2  1  1  0  0  0  0
  3  2  2  0  0  0  0
  4  5  2  0  0  0  0
  4  3  1  0  0  0  0
  5 10  1  0  0  0  0
  6  7  2  0  0  0  0
  6  5  1  0  0  0  0
  7  8  1  0  0  0  0
  8 38  1  0  0  0  0
  8  9  2  0  0  0  0
  9 51  1  0  0  0  0
 10  9  1  0  0  0  0
 10  1  2  0  0  0  0
 11  3  1  0  0  0  0
 12  6  1  0  0  0  0
 13  7  1  0  0  0  0
 14 15  1  0  0  0  0
 15 34  1  0  0  0  0
 15 16  2  0  0  0  0
 16 20  1  0  0  0  0
 17 16  1  0  0  0  0
 18 17  2  0  0  0  0
 19 14  2  0  0  0  0
 19 18  1  0  0  0  0
 20 24  1  0  0  0  0
 20 21  1  0  0  0  0
 21 26  1  0  0  0  0
 21 22  1  0  0  0  0
 22 29  1  0  0  0  0
 22 28  1  0  0  0  0
 23 30  1  0  0  0  0
 23 31  1  0  0  0  0
 23 22  1  0  0  0  0
 24 23  1  0  0  0  0
 25 14  1  0  0  0  0
 27 21  1  0  0  0  0
 32 24  1  0  0  0  0
 33 24  1  0  0  0  0
 34 35  1  0  0  0  0
 36 34  1  0  0  0  0
 37 46  1  0  0  0  0
 38 37  2  0  0  0  0
 39 38  1  0  0  0  0
 40 39  1  0  0  0  0
 41 39  2  0  0  0  0
 41 43  1  0  0  0  0
 42 41  1  0  0  0  0
 43 44  2  0  0  0  0
 44 37  1  0  0  0  0
 45 48  1  0  0  0  0
 46 47  1  0  0  0  0
 46 45  2  0  0  0  0
 47 49  1  0  0  0  0
 47 50  1  0  0  0  0
 51 52  1  0  0  0  0
 53 51  1  0  0  0  0
M  END
>  <minimizedAffinity>
-6.52037621

$$$$

 OpenBabel03252502103D

 53 57  0  0  0  0  0  0  0  0999 V2000
   37.4690   29.8460   38.1530 C   0  0  0  0  0  0  0  0  0  0  0  0
   36.7610   29.9660   37.0250 N   0  0  0  0  0  0  0  0  0  0  0  0
   36.2440   28.9590   36.3350 C   0  0  0  0  0  0  0  0  0  0  0  0
   36.4180   27.6910   36.7630 N   0  0  0  0  0  0  0  0  0  0  0  0
   37.1100   27.4220   37.8830 C   0  0  0  0  0  0  0  0  0  0  0  0
   37.3060   26.1340   38.3370 C   0  0  0  0  0  0  0  0  0  0  0  0
   38.0140   25.8630   39.4640 C   0  0  0  0  0  0  0  0  0  0  0  0
   38.5350   26.9280   40.1500 C   0  0  0  0  0  0  0  0  0  0  0  0
   38.3180   28.2210   39.6660 C   0  0  0  0  0  0  0  0  0  0  0  0
   37.6200   28.5230   38.5510 C   0  0  0  0  0  0  0  0  0  0  0  0
   35.6780   29.1420   35.4220 H   0  0  0  0  0  0  0  0  0  0  0  0
   36.8780   25.3160   37.7680 H   0  0  0  0  0  0  0  0  0  0  0  0
   38.1280   24.8290   39.7600 H   0  0  0  0  0  0  0  0  0  0  0  0
   37.3630   32.6270   40.4620 C   0  0  0  0  0  0  0  0  0  0  0  0
   38.6340   33.2130   40.4360 C   0  0  0  0  0  0  0  0  0  0  0  0
   39.5610   32.6290   39.6160 C   0  0  0  0  0  0  0  0  0  0  0  0
   39.2330   31.5580   38.8890 N   0  0  0  0  0  0  0  0  0  0  0  0
   38.0300   30.9960   38.9020 C   0  0  0  0  0  0  0  0  0  0  0  0
   37.1090   31.5520   39.7040 N   0  0  0  0  0  0  0  0  0  0  0  0
   40.8400   33.1330   39.5610 N   0  0  0  0  0  0  0  0  0  0  0  0
   41.9720   32.4860   38.8420 C   0  0  0  0  0  0  0  0  0  0  0  0
   43.0680   33.5160   38.7920 C   0  0  0  0  0  0  0  0  0  0  0  0
   42.8110   34.3290   40.0200 C   0  0  0  0  0  0  0  0  0  0  0  0
   41.3280   34.3360   40.1700 C   0  0  0  0  0  0  0  0  0  0  0  0
   36.5900   33.0590   41.1040 H   0  0  0  0  0  0  0  0  0  0  0  0
   41.6580   32.2400   37.8050 H   0  0  0  0  0  0  0  0  0  0  0  0
   42.2860   31.5730   39.4170 H   0  0  0  0  0  0  0  0  0  0  0  0
   44.0580   33.0410   38.7720 H   0  0  0  0  0  0  0  0  0  0  0  0
   42.8870   34.1680   37.9030 H   0  0  0  0  0  0  0  0  0  0  0  0
   43.3200   33.8080   40.8570 H   0  0  0  0  0  0  0  0  0  0  0  0
   43.2450   35.3550   39.9290 H   0  0  0  0  0  0  0  0  0  0  0  0
   41.1850   34.3340   41.2930 H   0  0  0  0  0  0  0  0  0  0  0  0
   40.9480   35.2600   39.6950 H   0  0  0  0  0  0  0  0  0  0  0  0
   38.8330   34.3430   41.1730 N   0  0  0  0  0  0  0  0  0  0  0  0
   38.8790   35.3510   40.9060 H   0  0  0  0  0  0  0  0  0  0  0  0
   38.9750   34.2430   42.2210 H   0  0  0  0  0  0  0  0  0  0  0  0
   38.7620   26.5010   42.6430 C   0  0  0  0  0  0  0  0  0  0  0  0
   39.2950   26.6100   41.3590 C   0  0  0  0  0  0  0  0  0  0  0  0
   40.6490   26.4120   41.1230 C   0  0  0  0  0  0  0  0  0  0  0  0
   41.1080   26.4850   40.1440 H   0  0  0  0  0  0  0  0  0  0  0  0
   41.4980   26.1010   42.1840 C   0  0  0  0  0  0  0  0  0  0  0  0
   42.5700   25.9470   41.9800 H   0  0  0  0  0  0  0  0  0  0  0  0
   40.9720   25.9930   43.4570 C   0  0  0  0  0  3  0  0  0  0  0  0
   39.6260   26.1930   43.6740 C   0  0  0  0  0  3  0  0  0  0  0  0
   36.5120   25.7600   42.5680 N   0  0  0  0  0  0  0  0  0  0  0  0
   37.3270   26.7290   42.7760 C   0  0  0  0  0  0  0  0  0  0  0  0
   37.0430   28.0880   43.1400 N   0  0  0  0  0  0  0  0  0  0  0  0
   35.4800   25.8860   42.6530 H   0  0  0  0  0  0  0  0  0  0  0  0
   36.5030   28.8190   42.6310 H   0  0  0  0  0  0  0  0  0  0  0  0
   37.3870   28.5110   44.0440 H   0  0  0  0  0  0  0  0  0  0  0  0
   38.9250   29.1870   40.5290 N   0  0  0  0  0  0  0  0  0  0  0  0
   39.8450   29.6740   40.5570 H   0  0  0  0  0  0  0  0  0  0  0  0
   38.1880   29.3600   41.2580 H   0  0  0  0  0  0  0  0  0  0  0  0
  1 10  1  0  0  0  0
  1 18  1  0  0  0  0
  2  1  2  0  0  0  0
  3  4  2  0  0  0  0
  3  2  1  0  0  0  0
  4  5  1  0  0  0  0
  5  6  2  0  0  0  0
  5 10  1  0  0  0  0
  6  7  1  0  0  0  0
  7 13  1  0  0  0  0
  7  8  2  0  0  0  0
  8 38  1  0  0  0  0
  9  8  1  0  0  0  0
  9 51  1  0  0  0  0
 10  9  2  0  0  0  0
 11  3  1  0  0  0  0
 12  6  1  0  0  0  0
 14 25  1  0  0  0  0
 15 14  1  0  0  0  0
 15 34  1  0  0  0  0
 16 15  2  0  0  0  0
 17 18  2  0  0  0  0
 17 16  1  0  0  0  0
 18 19  1  0  0  0  0
 19 14  2  0  0  0  0
 20 16  1  0  0  0  0
 20 24  1  0  0  0  0
 21 27  1  0  0  0  0
 21 20  1  0  0  0  0
 22 21  1  0  0  0  0
 22 23  1  0  0  0  0
 23 24  1  0  0  0  0
 23 30  1  0  0  0  0
 24 32  1  0  0  0  0
 26 21  1  0  0  0  0
 28 22  1  0  0  0  0
 29 22  1  0  0  0  0
 31 23  1  0  0  0  0
 33 24  1  0  0  0  0
 34 36  1  0  0  0  0
 35 34  1  0  0  0  0
 37 46  1  0  0  0  0
 37 44  1  0  0  0  0
 38 37  2  0  0  0  0
 39 38  1  0  0  0  0
 39 41  2  0  0  0  0
 40 39  1  0  0  0  0
 41 43  1  0  0  0  0
 42 41  1  0  0  0  0
 43 44  2  0  0  0  0
 45 48  1  0  0  0  0
 45 46  2  0  0  0  0
 46 47  1  0  0  0  0
 47 50  1  0  0  0  0
 49 47  1  0  0  0  0
 51 52  1  0  0  0  0
 51 53  1  0  0  0  0
M  END
>  <minimizedAffinity>
-6.43239069

$$$$
