REMARK  Name = 
REMARK  5 active torsions:
REMARK  status: ('A' for Active; 'I' for Inactive)
REMARK    1  A    between atoms: C_1  and  C_10
REMARK    2  A    between atoms: C_6  and  C_18
REMARK    3  A    between atoms: C_7  and  C_16
REMARK    4  A    between atoms: C_18  and  C_39
REMARK    5  A    between atoms: C_36  and  C_38
REMARK                            x       y       z     vdW  Elec       q    Type
REMARK                         _______ _______ _______ _____ _____    ______ ____
ROOT
ATOM      1  C   UNL     1      47.580  29.984  48.241  0.00  0.00    +0.000 C 
ATOM      2  C   UNL     1      47.452  28.789  47.372  0.00  0.00    +0.000 C 
ATOM      3  C   UNL     1      48.746  28.035  47.183  0.00  0.00    +0.000 C 
ATOM      4  C   UNL     1      49.491  27.844  48.473  0.00  0.00    +0.000 C 
ATOM      5  C   UNL     1      49.578  29.103  49.273  0.00  0.00    +0.000 C 
ATOM      6  C   UNL     1      49.082  30.318  48.440  0.00  0.00    +0.000 C 
ATOM      7  H   UNL     1      47.235  29.728  49.253  0.00  0.00    +0.000 HD
ATOM      8  H   UNL     1      47.113  29.119  46.368  0.00  0.00    +0.000 HD
ATOM      9  H   UNL     1      46.650  28.128  47.750  0.00  0.00    +0.000 HD
ATOM     10  H   UNL     1      48.503  27.055  46.786  0.00  0.00    +0.000 HD
ATOM     11  H   UNL     1      49.412  28.597  46.486  0.00  0.00    +0.000 HD
ATOM     12  H   UNL     1      48.873  27.133  49.088  0.00  0.00    +0.000 HD
ATOM     13  H   UNL     1      50.452  27.350  48.278  0.00  0.00    +0.000 HD
ATOM     14  H   UNL     1      49.004  29.100  50.214  0.00  0.00    +0.000 HD
ATOM     15  H   UNL     1      50.653  29.321  49.428  0.00  0.00    +0.000 HD
ATOM     16  H   UNL     1      49.619  30.324  47.467  0.00  0.00    +0.000 HD
ENDROOT
BRANCH   1  20
ATOM     17  C   UNL     1      45.907  33.133  46.242  0.00  0.00    +0.000 A 
ATOM     18  C   UNL     1      45.354  32.948  47.503  0.00  0.00    +0.000 A 
ATOM     19  C   UNL     1      45.812  31.951  48.250  0.00  0.00    +0.000 A 
ATOM     20  C   UNL     1      46.837  31.105  47.773  0.00  0.00    +0.000 A 
ATOM     21  S   UNL     1      47.166  31.790  46.114  0.00  0.00    +0.000 S 
ATOM     22  H   UNL     1      44.571  33.601  47.863  0.00  0.00    +0.000 HD
ATOM     23  H   UNL     1      45.508  31.655  49.240  0.00  0.00    +0.000 HD
BRANCH  17  28
ATOM     24  C   UNL     1      44.431  36.110  44.547  0.00  0.00    +0.000 A 
ATOM     25  C   UNL     1      45.053  36.028  43.303  0.00  0.00    +0.000 A 
ATOM     26  C   UNL     1      45.946  34.965  43.089  0.00  0.00    +0.000 A 
ATOM     27  N   UNL     1      46.157  34.072  44.108  0.00  0.00    +0.000 NA
ATOM     28  C   UNL     1      45.530  34.201  45.287  0.00  0.00    +0.000 A 
ATOM     29  N   UNL     1      44.671  35.218  45.500  0.00  0.00    +0.000 NA
ATOM     30  H   UNL     1      43.736  36.916  44.750  0.00  0.00    +0.000 HD
ATOM     31  H   UNL     1      44.880  36.732  42.514  0.00  0.00    +0.000 HD
ATOM     32  H   UNL     1      46.479  34.817  42.156  0.00  0.00    +0.000 HD
ENDBRANCH  17  28
ENDBRANCH   1  20
BRANCH   6  33
ATOM     33  C   UNL     1      49.253  31.528  49.205  0.00  0.00    +0.000 C 
ATOM     34  O   UNL     1      49.912  31.545  50.253  0.00  0.00    +0.000 OA
BRANCH  33  36
ATOM     35  C   UNL     1      49.592  33.558  50.535  0.00  0.00    +0.000 A 
ATOM     36  C   UNL     1      49.058  32.897  49.448  0.00  0.00    +0.000 A 
ATOM     37  C   UNL     1      48.380  33.725  48.599  0.00  0.00    +0.000 A 
ATOM     38  H   UNL     1      47.947  33.404  47.676  0.00  0.00    +0.000 HD
ATOM     39  C   UNL     1      48.172  35.067  48.692  0.00  0.00    +0.000 A 
ATOM     40  H   UNL     1      47.639  35.712  48.025  0.00  0.00    +0.000 HD
ATOM     41  C   UNL     1      48.716  35.674  49.784  0.00  0.00    +0.000 A 
ATOM     42  C   UNL     1      49.418  34.954  50.702  0.00  0.00    +0.000 A 
BRANCH  35  44
ATOM     43  N   UNL     1      50.154  33.441  52.877  0.00  0.00    +0.000 NA
ATOM     44  C   UNL     1      50.389  33.053  51.645  0.00  0.00    +0.000 C 
ATOM     45  N   UNL     1      51.436  32.264  52.099  0.00  0.00    +0.000 N 
ATOM     46  H   UNL     1      49.370  34.107  53.013  0.00  0.00    +0.000 HD
ATOM     47  H   UNL     1      51.408  31.259  52.445  0.00  0.00    +0.000 HD
ATOM     48  H   UNL     1      52.448  32.510  52.183  0.00  0.00    +0.000 HD
ENDBRANCH  35  44
ENDBRANCH  33  36
ENDBRANCH   6  33
TORSDOF 5
