
 OpenBabel03242511153D

 47 52  0  0  1  0  0  0  0  0999 V2000
   37.3150   31.9040   39.3090 C   0  0  1  0  0  0  0  0  0  0  0  0
   37.2160   31.1620   38.0050 C   0  0  0  0  0  0  0  0  0  0  0  0
   37.6380   30.4770   39.3320 C   0  0  2  0  0  0  0  0  0  0  0  0
   36.3630   32.1970   39.7480 H   0  0  0  0  0  0  0  0  0  0  0  0
   38.0480   31.3440   37.2840 H   0  0  0  0  0  0  0  0  0  0  0  0
   36.2380   30.8810   37.6000 H   0  0  0  0  0  0  0  0  0  0  0  0
   38.6890   30.1660   39.3810 H   0  0  0  0  0  0  0  0  0  0  0  0
   39.1270   34.9770   40.3150 C   0  0  0  0  0  0  0  0  0  0  0  0
   40.4340   34.7350   39.7590 C   0  0  0  0  0  0  0  0  0  0  0  0
   40.6490   33.5120   39.0530 C   0  0  0  0  0  0  0  0  0  0  0  0
   39.6420   32.6470   38.9350 N   0  0  0  0  0  0  0  0  0  0  0  0
   38.4200   32.9190   39.4780 C   0  0  0  0  0  0  0  0  0  0  0  0
   38.1480   34.0770   40.1700 N   0  0  0  0  0  0  0  0  0  0  0  0
   38.9570   35.8860   40.8420 H   0  0  0  0  0  0  0  0  0  0  0  0
   41.2060   35.4820   39.8930 H   0  0  0  0  0  0  0  0  0  0  0  0
   41.9430   33.2810   38.5080 N   0  0  0  0  0  0  0  0  0  0  0  0
   42.9320   34.1660   38.7910 C   0  0  0  0  0  0  0  0  0  0  0  0
   42.9640   35.0840   39.3850 H   0  0  0  0  0  0  0  0  0  0  0  0
   44.0600   33.7400   38.1670 N   0  0  0  0  0  0  0  0  0  0  0  0
   43.8020   32.6150   37.5050 C   0  0  0  0  0  0  0  0  0  0  0  0
   44.4580   31.7010   36.7040 C   0  0  0  0  0  0  0  0  0  0  0  0
   45.5230   31.9120   36.5200 H   0  0  0  0  0  0  0  0  0  0  0  0
   43.8530   30.6090   36.1710 N   0  0  0  0  0  0  0  0  0  0  0  0
   42.5310   30.4110   36.4420 C   0  0  0  0  0  0  0  0  0  0  0  0
   42.1030   29.5100   35.9780 H   0  0  0  0  0  0  0  0  0  0  0  0
   41.7850   31.2480   37.2180 N   0  0  0  0  0  0  0  0  0  0  0  0
   42.4570   32.3230   37.7220 C   0  0  0  0  0  0  0  0  0  0  0  0
   36.7000   29.5640   39.9090 N   0  0  0  0  0  0  0  0  0  0  0  0
   35.8510   29.6670   39.3210 H   0  0  0  0  0  0  0  0  0  0  0  0
   37.0080   28.7890   41.0380 C   0  0  0  0  0  0  0  0  0  0  0  0
   37.3120   29.4150   42.2190 C   0  0  0  0  0  0  0  0  0  0  0  0
   37.5530   28.7190   43.3980 C   0  0  0  0  0  0  0  0  0  0  0  0
   37.4960   27.3440   43.4280 C   0  0  0  0  0  0  0  0  0  0  0  0
   37.1940   26.6940   42.2530 C   0  0  0  0  0  0  0  0  0  0  0  0
   37.1210   25.3120   42.2580 C   0  0  0  0  0  0  0  0  0  0  0  0
   36.8210   24.6050   41.1370 C   0  0  0  0  0  0  0  0  0  0  0  0
   36.5920   25.3340   39.9750 C   0  0  0  0  0  0  0  0  0  0  0  0
   36.6680   26.7000   39.9850 C   0  0  0  0  0  0  0  0  0  0  0  0
   36.9620   27.4160   41.1030 C   0  0  0  0  0  0  0  0  0  0  0  0
   37.3700   30.5080   42.2520 H   0  0  0  0  0  0  0  0  0  0  0  0
   37.7860   29.2930   44.2840 H   0  0  0  0  0  0  0  0  0  0  0  0
   37.6880   26.8340   44.3660 H   0  0  0  0  0  0  0  0  0  0  0  0
   37.3080   24.8000   43.1840 H   0  0  0  0  0  0  0  0  0  0  0  0
   36.7790   23.5260   41.2140 H   0  0  0  0  0  0  0  0  0  0  0  0
   36.3550   24.7390   39.0890 H   0  0  0  0  0  0  0  0  0  0  0  0
   36.4420   27.3680   38.8050 O   0  0  0  0  0  0  0  0  0  0  0  0
   35.6100   27.1550   38.2740 H   0  0  0  0  0  0  0  0  0  0  0  0
  1  3  1  0  0  0  0
  1 12  1  0  0  0  0
  1  4  1  1  0  0  0
  2  1  1  0  0  0  0
  2  3  1  0  0  0  0
  3  7  1  1  0  0  0
  3 28  1  0  0  0  0
  5  2  1  0  0  0  0
  6  2  1  0  0  0  0
  8 14  1  0  0  0  0
  9 15  1  0  0  0  0
  9  8  2  0  0  0  0
 10  9  1  0  0  0  0
 11 10  2  0  0  0  0
 11 12  1  0  0  0  0
 12 13  2  0  0  0  0
 13  8  1  0  0  0  0
 16 17  1  0  0  0  0
 16 10  1  0  0  0  0
 17 18  1  0  0  0  0
 19 17  2  0  0  0  0
 20 27  1  0  0  0  0
 20 19  1  0  0  0  0
 21 20  2  0  0  0  0
 22 21  1  0  0  0  0
 23 24  2  0  0  0  0
 23 21  1  0  0  0  0
 24 26  1  0  0  0  0
 25 24  1  0  0  0  0
 26 27  2  0  0  0  0
 27 16  1  0  0  0  0
 28 30  1  0  0  0  0
 29 28  1  0  0  0  0
 30 39  2  0  0  0  0
 30 31  1  0  0  0  0
 31 40  1  0  0  0  0
 31 32  2  0  0  0  0
 32 33  1  0  0  0  0
 32 41  1  0  0  0  0
 33 42  1  0  0  0  0
 34 35  1  0  0  0  0
 34 33  2  0  0  0  0
 35 43  1  0  0  0  0
 36 44  1  0  0  0  0
 36 35  2  0  0  0  0
 37 38  2  0  0  0  0
 37 36  1  0  0  0  0
 38 39  1  0  0  0  0
 39 34  1  0  0  0  0
 45 37  1  0  0  0  0
 46 38  1  0  0  0  0
 47 46  1  0  0  0  0
M  END
>  <minimizedAffinity>
-7.86274529

$$$$

 OpenBabel03242511153D

 47 52  0  0  1  0  0  0  0  0999 V2000
   37.4210   32.4530   39.3180 C   0  0  1  0  0  0  0  0  0  0  0  0
   37.3240   31.6920   38.0250 C   0  0  0  0  0  0  0  0  0  0  0  0
   37.5770   31.0000   39.3910 C   0  0  2  0  0  0  0  0  0  0  0  0
   36.4810   32.8610   39.6860 H   0  0  0  0  0  0  0  0  0  0  0  0
   38.2170   31.7600   37.3600 H   0  0  0  0  0  0  0  0  0  0  0  0
   36.3490   31.5110   37.5600 H   0  0  0  0  0  0  0  0  0  0  0  0
   38.5810   30.5740   39.5180 H   0  0  0  0  0  0  0  0  0  0  0  0
   39.5210   35.2750   40.4850 C   0  0  0  0  0  0  0  0  0  0  0  0
   40.8020   34.9310   39.9250 C   0  0  0  0  0  0  0  0  0  0  0  0
   40.9010   33.7280   39.1600 C   0  0  0  0  0  0  0  0  0  0  0  0
   39.8130   32.9750   38.9940 N   0  0  0  0  0  0  0  0  0  0  0  0
   38.6190   33.3410   39.5430 C   0  0  0  0  0  0  0  0  0  0  0  0
   38.4580   34.4860   40.2900 N   0  0  0  0  0  0  0  0  0  0  0  0
   39.4370   36.1690   41.0560 H   0  0  0  0  0  0  0  0  0  0  0  0
   41.6440   35.5880   40.0990 H   0  0  0  0  0  0  0  0  0  0  0  0
   42.1700   33.3950   38.6110 N   0  0  0  0  0  0  0  0  0  0  0  0
   43.2400   34.1620   38.9420 C   0  0  0  0  0  0  0  0  0  0  0  0
   43.3580   35.0410   39.5810 H   0  0  0  0  0  0  0  0  0  0  0  0
   44.3260   33.6560   38.3040 N   0  0  0  0  0  0  0  0  0  0  0  0
   43.9640   32.5960   37.5850 C   0  0  0  0  0  0  0  0  0  0  0  0
   44.5330   31.6610   36.7420 C   0  0  0  0  0  0  0  0  0  0  0  0
   45.6160   31.7720   36.5750 H   0  0  0  0  0  0  0  0  0  0  0  0
   43.8270   30.6620   36.1520 N   0  0  0  0  0  0  0  0  0  0  0  0
   42.4890   30.5850   36.4060 C   0  0  0  0  0  0  0  0  0  0  0  0
   41.9780   29.7550   35.8970 H   0  0  0  0  0  0  0  0  0  0  0  0
   41.8230   31.4540   37.2200 N   0  0  0  0  0  0  0  0  0  0  0  0
   42.5940   32.4300   37.7800 C   0  0  0  0  0  0  0  0  0  0  0  0
   36.5060   30.2130   39.9200 N   0  0  0  0  0  0  0  0  0  0  0  0
   35.7950   30.9120   40.2080 H   0  0  0  0  0  0  0  0  0  0  0  0
   36.5690   28.8130   39.9860 C   0  0  0  0  0  0  0  0  0  0  0  0
   36.4480   28.0800   38.8340 C   0  0  0  0  0  0  0  0  0  0  0  0
   36.5750   26.6950   38.8070 C   0  0  0  0  0  0  0  0  0  0  0  0
   36.8320   25.9890   39.9600 C   0  0  0  0  0  0  0  0  0  0  0  0
   36.9550   26.7050   41.1300 C   0  0  0  0  0  0  0  0  0  0  0  0
   37.2230   26.0200   42.3020 C   0  0  0  0  0  0  0  0  0  0  0  0
   37.3640   26.6600   43.4920 C   0  0  0  0  0  0  0  0  0  0  0  0
   37.2250   28.0440   43.4810 C   0  0  0  0  0  0  0  0  0  0  0  0
   36.9610   28.7080   42.3160 C   0  0  0  0  0  0  0  0  0  0  0  0
   36.8220   28.0760   41.1200 C   0  0  0  0  0  0  0  0  0  0  0  0
   36.2440   28.5900   37.8870 H   0  0  0  0  0  0  0  0  0  0  0  0
   36.4650   26.1970   37.8530 H   0  0  0  0  0  0  0  0  0  0  0  0
   36.9260   24.9100   39.9020 H   0  0  0  0  0  0  0  0  0  0  0  0
   37.3190   24.9500   42.2510 H   0  0  0  0  0  0  0  0  0  0  0  0
   37.5750   26.0620   44.3680 H   0  0  0  0  0  0  0  0  0  0  0  0
   37.3420   28.5320   44.4530 H   0  0  0  0  0  0  0  0  0  0  0  0
   36.8220   30.0740   42.3670 O   0  0  0  0  0  0  0  0  0  0  0  0
   37.5370   30.6220   42.8240 H   0  0  0  0  0  0  0  0  0  0  0  0
  1  3  1  0  0  0  0
  1 12  1  0  0  0  0
  1  4  1  1  0  0  0
  2  1  1  0  0  0  0
  2  3  1  0  0  0  0
  3  7  1  1  0  0  0
  3 28  1  0  0  0  0
  5  2  1  0  0  0  0
  6  2  1  0  0  0  0
  8 14  1  0  0  0  0
  9 15  1  0  0  0  0
  9  8  2  0  0  0  0
 10  9  1  0  0  0  0
 11 10  2  0  0  0  0
 11 12  1  0  0  0  0
 12 13  2  0  0  0  0
 13  8  1  0  0  0  0
 16 17  1  0  0  0  0
 16 10  1  0  0  0  0
 17 18  1  0  0  0  0
 19 17  2  0  0  0  0
 20 27  1  0  0  0  0
 20 19  1  0  0  0  0
 21 20  2  0  0  0  0
 22 21  1  0  0  0  0
 23 24  2  0  0  0  0
 23 21  1  0  0  0  0
 24 26  1  0  0  0  0
 25 24  1  0  0  0  0
 26 27  2  0  0  0  0
 27 16  1  0  0  0  0
 28 30  1  0  0  0  0
 28 29  1  0  0  0  0
 30 39  1  0  0  0  0
 31 30  2  0  0  0  0
 32 31  1  0  0  0  0
 32 33  2  0  0  0  0
 33 34  1  0  0  0  0
 34 35  1  0  0  0  0
 35 36  2  0  0  0  0
 36 44  1  0  0  0  0
 37 36  1  0  0  0  0
 37 45  1  0  0  0  0
 38 46  1  0  0  0  0
 38 37  2  0  0  0  0
 39 34  2  0  0  0  0
 39 38  1  0  0  0  0
 40 31  1  0  0  0  0
 41 32  1  0  0  0  0
 42 33  1  0  0  0  0
 43 35  1  0  0  0  0
 46 47  1  0  0  0  0
M  END
>  <minimizedAffinity>
-7.6108532

$$$$

 OpenBabel03242511153D

 47 52  0  0  1  0  0  0  0  0999 V2000
   39.8500   27.3960   42.7140 C   0  0  1  0  0  0  0  0  0  0  0  0
   39.7380   26.5890   43.9770 C   0  0  0  0  0  0  0  0  0  0  0  0
   38.6680   27.6280   43.5450 C   0  0  2  0  0  0  0  0  0  0  0  0
   39.6970   26.8370   41.7920 H   0  0  0  0  0  0  0  0  0  0  0  0
   40.3980   26.9150   44.8160 H   0  0  0  0  0  0  0  0  0  0  0  0
   39.4390   25.5360   43.9370 H   0  0  0  0  0  0  0  0  0  0  0  0
   38.6180   28.5310   44.1660 H   0  0  0  0  0  0  0  0  0  0  0  0
   43.1180   29.1120   43.0470 C   0  0  0  0  0  0  0  0  0  0  0  0
   42.8270   30.4000   42.4720 C   0  0  0  0  0  0  0  0  0  0  0  0
   41.5050   30.6350   41.9830 C   0  0  0  0  0  0  0  0  0  0  0  0
   40.5980   29.6630   42.0770 N   0  0  0  0  0  0  0  0  0  0  0  0
   40.9200   28.4580   42.6300 C   0  0  0  0  0  0  0  0  0  0  0  0
   42.1730   28.1680   43.1180 N   0  0  0  0  0  0  0  0  0  0  0  0
   44.1000   28.9280   43.4150 H   0  0  0  0  0  0  0  0  0  0  0  0
   43.6120   31.1440   42.4280 H   0  0  0  0  0  0  0  0  0  0  0  0
   41.2260   31.9100   41.4160 N   0  0  0  0  0  0  0  0  0  0  0  0
   42.2510   32.7850   41.2550 C   0  0  0  0  0  0  0  0  0  0  0  0
   43.3200   32.7310   41.4780 H   0  0  0  0  0  0  0  0  0  0  0  0
   41.7450   33.9180   40.7030 N   0  0  0  0  0  0  0  0  0  0  0  0
   40.4350   33.7730   40.5160 C   0  0  0  0  0  0  0  0  0  0  0  0
   39.3650   34.4940   40.0240 C   0  0  0  0  0  0  0  0  0  0  0  0
   39.6030   35.5050   39.6590 H   0  0  0  0  0  0  0  0  0  0  0  0
   38.0970   34.0080   39.9810 N   0  0  0  0  0  0  0  0  0  0  0  0
   37.8770   32.7470   40.4490 C   0  0  0  0  0  0  0  0  0  0  0  0
   36.8290   32.4160   40.3860 H   0  0  0  0  0  0  0  0  0  0  0  0
   38.8570   31.9470   40.9570 N   0  0  0  0  0  0  0  0  0  0  0  0
   40.1060   32.4970   40.9680 C   0  0  0  0  0  0  0  0  0  0  0  0
   37.4070   27.1080   43.1150 N   0  0  0  0  0  0  0  0  0  0  0  0
   36.8400   27.0660   43.9840 H   0  0  0  0  0  0  0  0  0  0  0  0
   37.1580   26.7580   41.7790 C   0  0  0  0  0  0  0  0  0  0  0  0
   37.4500   25.4890   41.3530 C   0  0  0  0  0  0  0  0  0  0  0  0
   37.1640   25.0430   40.0670 C   0  0  0  0  0  0  0  0  0  0  0  0
   36.5620   25.8750   39.1510 C   0  0  0  0  0  0  0  0  0  0  0  0
   36.2610   27.1560   39.5580 C   0  0  0  0  0  0  0  0  0  0  0  0
   35.6470   28.0100   38.6590 C   0  0  0  0  0  0  0  0  0  0  0  0
   35.3140   29.2850   38.9920 C   0  0  0  0  0  0  0  0  0  0  0  0
   35.6220   29.6980   40.2840 C   0  0  0  0  0  0  0  0  0  0  0  0
   36.2290   28.8430   41.1610 C   0  0  0  0  0  0  0  0  0  0  0  0
   36.5610   27.5640   40.8380 C   0  0  0  0  0  0  0  0  0  0  0  0
   37.9290   24.7840   42.0400 H   0  0  0  0  0  0  0  0  0  0  0  0
   37.4280   24.0250   39.8150 H   0  0  0  0  0  0  0  0  0  0  0  0
   36.3510   25.4940   38.1580 H   0  0  0  0  0  0  0  0  0  0  0  0
   35.4340   27.6390   37.6730 H   0  0  0  0  0  0  0  0  0  0  0  0
   34.8340   29.8970   38.2400 H   0  0  0  0  0  0  0  0  0  0  0  0
   35.3450   30.7280   40.5230 H   0  0  0  0  0  0  0  0  0  0  0  0
   36.5190   29.3080   42.4220 O   0  0  0  0  0  0  0  0  0  0  0  0
   35.7910   29.7590   42.9570 H   0  0  0  0  0  0  0  0  0  0  0  0
  1  4  1  6  0  0  0
  1  3  1  0  0  0  0
  1  2  1  0  0  0  0
  2  5  1  0  0  0  0
  3  2  1  0  0  0  0
  3  7  1  1  0  0  0
  6  2  1  0  0  0  0
  8 13  1  0  0  0  0
  8 14  1  0  0  0  0
  9  8  2  0  0  0  0
 10 11  2  0  0  0  0
 10  9  1  0  0  0  0
 11 12  1  0  0  0  0
 12  1  1  0  0  0  0
 12 13  2  0  0  0  0
 15  9  1  0  0  0  0
 16 10  1  0  0  0  0
 17 16  1  0  0  0  0
 17 18  1  0  0  0  0
 19 17  2  0  0  0  0
 20 19  1  0  0  0  0
 20 27  1  0  0  0  0
 21 20  2  0  0  0  0
 22 21  1  0  0  0  0
 23 21  1  0  0  0  0
 23 24  2  0  0  0  0
 24 26  1  0  0  0  0
 25 24  1  0  0  0  0
 26 27  2  0  0  0  0
 27 16  1  0  0  0  0
 28  3  1  0  0  0  0
 28 29  1  0  0  0  0
 30 28  1  0  0  0  0
 31 30  1  0  0  0  0
 31 40  1  0  0  0  0
 32 31  2  0  0  0  0
 33 34  2  0  0  0  0
 33 32  1  0  0  0  0
 34 39  1  0  0  0  0
 35 36  2  0  0  0  0
 35 34  1  0  0  0  0
 36 37  1  0  0  0  0
 37 45  1  0  0  0  0
 37 38  2  0  0  0  0
 38 46  1  0  0  0  0
 39 38  1  0  0  0  0
 39 30  2  0  0  0  0
 41 32  1  0  0  0  0
 42 33  1  0  0  0  0
 43 35  1  0  0  0  0
 44 36  1  0  0  0  0
 46 47  1  0  0  0  0
M  END
>  <minimizedAffinity>
-7.34838629

$$$$

 OpenBabel03242511153D

 47 52  0  0  1  0  0  0  0  0999 V2000
   38.2740   28.5920   42.8670 C   0  0  1  0  0  0  0  0  0  0  0  0
   37.2860   28.0810   43.8780 C   0  0  0  0  0  0  0  0  0  0  0  0
   37.6770   27.2820   42.6060 C   0  0  2  0  0  0  0  0  0  0  0  0
   39.3120   28.5990   43.1960 H   0  0  0  0  0  0  0  0  0  0  0  0
   36.2760   28.5540   43.8450 H   0  0  0  0  0  0  0  0  0  0  0  0
   37.6320   27.6750   44.8350 H   0  0  0  0  0  0  0  0  0  0  0  0
   36.8860   27.1940   41.8510 H   0  0  0  0  0  0  0  0  0  0  0  0
   36.2490   30.8850   40.7750 C   0  0  0  0  0  0  0  0  0  0  0  0
   37.2100   31.9090   40.4560 C   0  0  0  0  0  0  0  0  0  0  0  0
   38.5330   31.7750   40.9790 C   0  0  0  0  0  0  0  0  0  0  0  0
   38.8270   30.7170   41.7340 N   0  0  0  0  0  0  0  0  0  0  0  0
   37.8830   29.7710   42.0100 C   0  0  0  0  0  0  0  0  0  0  0  0
   36.5920   29.8420   41.5380 N   0  0  0  0  0  0  0  0  0  0  0  0
   35.2600   30.9760   40.3900 H   0  0  0  0  0  0  0  0  0  0  0  0
   36.9030   32.7410   39.8360 H   0  0  0  0  0  0  0  0  0  0  0  0
   39.4760   32.7910   40.6590 N   0  0  0  0  0  0  0  0  0  0  0  0
   39.0440   33.8880   39.9880 C   0  0  0  0  0  0  0  0  0  0  0  0
   38.0650   34.1920   39.6070 H   0  0  0  0  0  0  0  0  0  0  0  0
   40.1110   34.7070   39.7990 N   0  0  0  0  0  0  0  0  0  0  0  0
   41.1950   34.1510   40.3350 C   0  0  0  0  0  0  0  0  0  0  0  0
   42.5390   34.4260   40.4940 C   0  0  0  0  0  0  0  0  0  0  0  0
   42.8800   35.3830   40.0700 H   0  0  0  0  0  0  0  0  0  0  0  0
   43.4010   33.5890   41.1280 N   0  0  0  0  0  0  0  0  0  0  0  0
   42.9080   32.4200   41.6290 C   0  0  0  0  0  0  0  0  0  0  0  0
   43.6580   31.7890   42.1280 H   0  0  0  0  0  0  0  0  0  0  0  0
   41.6010   32.0460   41.5280 N   0  0  0  0  0  0  0  0  0  0  0  0
   40.7920   32.9340   40.8810 C   0  0  0  0  0  0  0  0  0  0  0  0
   38.4690   26.1080   42.8050 N   0  0  0  0  0  0  0  0  0  0  0  0
   38.0600   25.6650   43.6500 H   0  0  0  0  0  0  0  0  0  0  0  0
   39.5450   25.7810   41.9650 C   0  0  0  0  0  0  0  0  0  0  0  0
   39.3060   25.5030   40.6450 C   0  0  0  0  0  0  0  0  0  0  0  0
   40.3250   25.2450   39.7340 C   0  0  0  0  0  0  0  0  0  0  0  0
   41.6430   25.2570   40.1300 C   0  0  0  0  0  0  0  0  0  0  0  0
   41.9060   25.5330   41.4530 C   0  0  0  0  0  0  0  0  0  0  0  0
   43.2240   25.5600   41.8750 C   0  0  0  0  0  0  0  0  0  0  0  0
   43.5590   25.8310   43.1640 C   0  0  0  0  0  0  0  0  0  0  0  0
   42.5140   26.0790   44.0480 C   0  0  0  0  0  0  0  0  0  0  0  0
   41.2170   26.0470   43.6160 C   0  0  0  0  0  0  0  0  0  0  0  0
   40.8720   25.7820   42.3280 C   0  0  0  0  0  0  0  0  0  0  0  0
   38.2760   25.4810   40.2750 H   0  0  0  0  0  0  0  0  0  0  0  0
   40.0450   25.0350   38.7110 H   0  0  0  0  0  0  0  0  0  0  0  0
   42.4110   25.0530   39.3930 H   0  0  0  0  0  0  0  0  0  0  0  0
   43.9910   25.3610   41.1500 H   0  0  0  0  0  0  0  0  0  0  0  0
   44.6100   25.8390   43.4240 H   0  0  0  0  0  0  0  0  0  0  0  0
   42.8140   26.2910   45.0770 H   0  0  0  0  0  0  0  0  0  0  0  0
   40.2240   26.2890   44.5360 O   0  0  0  0  0  0  0  0  0  0  0  0
   40.2870   27.1110   45.1190 H   0  0  0  0  0  0  0  0  0  0  0  0
  1  4  1  1  0  0  0
  1  2  1  0  0  0  0
  2  6  1  0  0  0  0
  3  7  1  6  0  0  0
  3 28  1  0  0  0  0
  3  1  1  0  0  0  0
  3  2  1  0  0  0  0
  5  2  1  0  0  0  0
  8 13  1  0  0  0  0
  9  8  2  0  0  0  0
  9 10  1  0  0  0  0
 10 11  2  0  0  0  0
 11 12  1  0  0  0  0
 12  1  1  0  0  0  0
 13 12  2  0  0  0  0
 14  8  1  0  0  0  0
 15  9  1  0  0  0  0
 16 27  1  0  0  0  0
 16 10  1  0  0  0  0
 17 16  1  0  0  0  0
 18 17  1  0  0  0  0
 19 17  2  0  0  0  0
 19 20  1  0  0  0  0
 20 21  2  0  0  0  0
 20 27  1  0  0  0  0
 21 23  1  0  0  0  0
 22 21  1  0  0  0  0
 23 24  2  0  0  0  0
 24 25  1  0  0  0  0
 26 24  1  0  0  0  0
 27 26  2  0  0  0  0
 28 29  1  0  0  0  0
 30 39  1  0  0  0  0
 30 28  1  0  0  0  0
 31 30  2  0  0  0  0
 32 33  2  0  0  0  0
 32 31  1  0  0  0  0
 33 34  1  0  0  0  0
 34 35  2  0  0  0  0
 34 39  1  0  0  0  0
 35 36  1  0  0  0  0
 36 44  1  0  0  0  0
 36 37  2  0  0  0  0
 37 45  1  0  0  0  0
 38 37  1  0  0  0  0
 38 46  1  0  0  0  0
 39 38  2  0  0  0  0
 40 31  1  0  0  0  0
 41 32  1  0  0  0  0
 42 33  1  0  0  0  0
 43 35  1  0  0  0  0
 46 47  1  0  0  0  0
M  END
>  <minimizedAffinity>
-7.23238802

$$$$

 OpenBabel03242511153D

 47 52  0  0  1  0  0  0  0  0999 V2000
   37.5930   31.9020   39.1490 C   0  0  1  0  0  0  0  0  0  0  0  0
   37.0600   33.2560   39.5250 C   0  0  0  0  0  0  0  0  0  0  0  0
   38.5380   32.8410   39.7540 C   0  0  2  0  0  0  0  0  0  0  0  0
   37.6970   31.7270   38.0790 H   0  0  0  0  0  0  0  0  0  0  0  0
   36.4310   33.2860   40.4460 H   0  0  0  0  0  0  0  0  0  0  0  0
   36.8790   34.0150   38.7550 H   0  0  0  0  0  0  0  0  0  0  0  0
   38.8260   32.7100   40.8050 H   0  0  0  0  0  0  0  0  0  0  0  0
   35.4030   29.2590   40.5460 C   0  0  0  0  0  0  0  0  0  0  0  0
   36.3250   28.5330   41.3810 C   0  0  0  0  0  0  0  0  0  0  0  0
   37.6810   28.9800   41.4330 C   0  0  0  0  0  0  0  0  0  0  0  0
   38.0400   30.0440   40.7140 N   0  0  0  0  0  0  0  0  0  0  0  0
   37.1310   30.7010   39.9370 C   0  0  0  0  0  0  0  0  0  0  0  0
   35.8110   30.3210   39.8430 N   0  0  0  0  0  0  0  0  0  0  0  0
   34.3900   28.9340   40.5000 H   0  0  0  0  0  0  0  0  0  0  0  0
   35.9650   27.6780   41.9380 H   0  0  0  0  0  0  0  0  0  0  0  0
   38.5850   28.2570   42.2590 N   0  0  0  0  0  0  0  0  0  0  0  0
   38.1500   27.1160   42.8520 C   0  0  0  0  0  0  0  0  0  0  0  0
   37.1920   26.5870   42.8390 H   0  0  0  0  0  0  0  0  0  0  0  0
   39.1760   26.6090   43.5810 N   0  0  0  0  0  0  0  0  0  0  0  0
   40.2390   27.4020   43.4600 C   0  0  0  0  0  0  0  0  0  0  0  0
   41.5430   27.4760   43.9090 C   0  0  0  0  0  0  0  0  0  0  0  0
   41.8610   26.6580   44.5740 H   0  0  0  0  0  0  0  0  0  0  0  0
   42.3930   28.4780   43.5650 N   0  0  0  0  0  0  0  0  0  0  0  0
   41.9290   29.4570   42.7370 C   0  0  0  0  0  0  0  0  0  0  0  0
   42.6670   30.2380   42.5000 H   0  0  0  0  0  0  0  0  0  0  0  0
   40.6620   29.4850   42.2350 N   0  0  0  0  0  0  0  0  0  0  0  0
   39.8630   28.4480   42.6200 C   0  0  0  0  0  0  0  0  0  0  0  0
   39.5170   33.4720   38.9240 N   0  0  0  0  0  0  0  0  0  0  0  0
   38.9680   33.8580   38.1310 H   0  0  0  0  0  0  0  0  0  0  0  0
   40.8840   33.4600   39.2390 C   0  0  0  0  0  0  0  0  0  0  0  0
   41.3090   34.0370   40.4070 C   0  0  0  0  0  0  0  0  0  0  0  0
   42.6340   34.0000   40.8260 C   0  0  0  0  0  0  0  0  0  0  0  0
   43.5940   33.3700   40.0680 C   0  0  0  0  0  0  0  0  0  0  0  0
   43.1910   32.7840   38.8900 C   0  0  0  0  0  0  0  0  0  0  0  0
   44.1350   32.1350   38.1140 C   0  0  0  0  0  0  0  0  0  0  0  0
   43.8080   31.5290   36.9420 C   0  0  0  0  0  0  0  0  0  0  0  0
   42.4750   31.5920   36.5520 C   0  0  0  0  0  0  0  0  0  0  0  0
   41.5530   32.2360   37.3290 C   0  0  0  0  0  0  0  0  0  0  0  0
   41.8690   32.8410   38.5050 C   0  0  0  0  0  0  0  0  0  0  0  0
   40.5870   34.5520   41.0490 H   0  0  0  0  0  0  0  0  0  0  0  0
   42.8810   34.4820   41.7620 H   0  0  0  0  0  0  0  0  0  0  0  0
   44.6180   33.3590   40.4260 H   0  0  0  0  0  0  0  0  0  0  0  0
   45.1510   32.1190   38.4630 H   0  0  0  0  0  0  0  0  0  0  0  0
   44.5970   31.0390   36.3870 H   0  0  0  0  0  0  0  0  0  0  0  0
   42.2420   31.0980   35.6050 H   0  0  0  0  0  0  0  0  0  0  0  0
   40.2510   32.2760   36.8890 O   0  0  0  0  0  0  0  0  0  0  0  0
   39.8030   31.4160   36.6100 H   0  0  0  0  0  0  0  0  0  0  0  0
  1  4  1  6  0  0  0
  1  2  1  0  0  0  0
  1  3  1  0  0  0  0
  1 12  1  0  0  0  0
  2  3  1  0  0  0  0
  2  5  1  0  0  0  0
  3  7  1  1  0  0  0
  6  2  1  0  0  0  0
  8  9  1  0  0  0  0
  9 10  2  0  0  0  0
  9 15  1  0  0  0  0
 10 16  1  0  0  0  0
 11 10  1  0  0  0  0
 12 11  2  0  0  0  0
 13 12  1  0  0  0  0
 13  8  2  0  0  0  0
 14  8  1  0  0  0  0
 16 27  1  0  0  0  0
 16 17  1  0  0  0  0
 17 19  2  0  0  0  0
 18 17  1  0  0  0  0
 20 19  1  0  0  0  0
 20 21  1  0  0  0  0
 21 22  1  0  0  0  0
 23 21  2  0  0  0  0
 24 23  1  0  0  0  0
 25 24  1  0  0  0  0
 26 27  1  0  0  0  0
 26 24  2  0  0  0  0
 27 20  2  0  0  0  0
 28 30  1  0  0  0  0
 28  3  1  0  0  0  0
 29 28  1  0  0  0  0
 30 31  1  0  0  0  0
 31 32  2  0  0  0  0
 31 40  1  0  0  0  0
 32 41  1  0  0  0  0
 33 42  1  0  0  0  0
 33 32  1  0  0  0  0
 34 33  2  0  0  0  0
 35 43  1  0  0  0  0
 35 34  1  0  0  0  0
 36 35  2  0  0  0  0
 37 36  1  0  0  0  0
 37 38  2  0  0  0  0
 38 39  1  0  0  0  0
 39 34  1  0  0  0  0
 39 30  2  0  0  0  0
 44 36  1  0  0  0  0
 45 37  1  0  0  0  0
 46 38  1  0  0  0  0
 47 46  1  0  0  0  0
M  END
>  <minimizedAffinity>
-7.11239433

$$$$

 OpenBabel03242511153D

 47 52  0  0  1  0  0  0  0  0999 V2000
   41.9600   27.2340   42.9950 C   0  0  1  0  0  0  0  0  0  0  0  0
   42.5990   26.2900   43.9750 C   0  0  0  0  0  0  0  0  0  0  0  0
   41.2350   26.9820   44.2400 C   0  0  2  0  0  0  0  0  0  0  0  0
   41.5620   26.7670   42.0950 H   0  0  0  0  0  0  0  0  0  0  0  0
   43.4580   26.7070   44.5530 H   0  0  0  0  0  0  0  0  0  0  0  0
   42.5730   25.2090   43.8010 H   0  0  0  0  0  0  0  0  0  0  0  0
   41.2450   27.7430   45.0310 H   0  0  0  0  0  0  0  0  0  0  0  0
   44.4880   29.9430   42.9220 C   0  0  0  0  0  0  0  0  0  0  0  0
   43.7300   31.0290   42.3560 C   0  0  0  0  0  0  0  0  0  0  0  0
   42.3640   30.7890   42.0130 C   0  0  0  0  0  0  0  0  0  0  0  0
   41.8450   29.5800   42.2300 N   0  0  0  0  0  0  0  0  0  0  0  0
   42.6020   28.5810   42.7690 C   0  0  0  0  0  0  0  0  0  0  0  0
   43.9230   28.7470   43.1190 N   0  0  0  0  0  0  0  0  0  0  0  0
   45.5070   30.1120   43.1800 H   0  0  0  0  0  0  0  0  0  0  0  0
   44.2150   31.9850   42.2080 H   0  0  0  0  0  0  0  0  0  0  0  0
   41.6230   31.8670   41.4550 N   0  0  0  0  0  0  0  0  0  0  0  0
   42.2770   33.0190   41.1600 C   0  0  0  0  0  0  0  0  0  0  0  0
   43.3200   33.3320   41.2620 H   0  0  0  0  0  0  0  0  0  0  0  0
   41.3720   33.8900   40.6450 N   0  0  0  0  0  0  0  0  0  0  0  0
   40.1730   33.3130   40.6090 C   0  0  0  0  0  0  0  0  0  0  0  0
   38.8800   33.6130   40.2260 C   0  0  0  0  0  0  0  0  0  0  0  0
   38.7310   34.6240   39.8150 H   0  0  0  0  0  0  0  0  0  0  0  0
   37.8480   32.7370   40.3360 N   0  0  0  0  0  0  0  0  0  0  0  0
   38.1070   31.5020   40.8530 C   0  0  0  0  0  0  0  0  0  0  0  0
   37.2280   30.8440   40.9150 H   0  0  0  0  0  0  0  0  0  0  0  0
   39.3430   31.0990   41.2640 N   0  0  0  0  0  0  0  0  0  0  0  0
   40.3320   32.0280   41.1230 C   0  0  0  0  0  0  0  0  0  0  0  0
   40.0750   26.1450   44.2100 N   0  0  0  0  0  0  0  0  0  0  0  0
   40.3140   25.3560   44.8410 H   0  0  0  0  0  0  0  0  0  0  0  0
   38.9520   26.4520   43.4270 C   0  0  0  0  0  0  0  0  0  0  0  0
   38.3990   27.7040   43.5080 C   0  0  0  0  0  0  0  0  0  0  0  0
   37.3340   28.1080   42.7100 C   0  0  0  0  0  0  0  0  0  0  0  0
   36.7800   27.2510   41.7880 C   0  0  0  0  0  0  0  0  0  0  0  0
   37.3180   25.9870   41.6900 C   0  0  0  0  0  0  0  0  0  0  0  0
   36.7850   25.1080   40.7640 C   0  0  0  0  0  0  0  0  0  0  0  0
   37.2700   23.8480   40.6080 C   0  0  0  0  0  0  0  0  0  0  0  0
   38.3320   23.4770   41.4260 C   0  0  0  0  0  0  0  0  0  0  0  0
   38.8480   24.3560   42.3370 C   0  0  0  0  0  0  0  0  0  0  0  0
   38.3720   25.6200   42.4970 C   0  0  0  0  0  0  0  0  0  0  0  0
   38.8010   28.4270   44.2240 H   0  0  0  0  0  0  0  0  0  0  0  0
   36.9600   29.1150   42.8410 H   0  0  0  0  0  0  0  0  0  0  0  0
   35.9510   27.6000   41.1820 H   0  0  0  0  0  0  0  0  0  0  0  0
   35.9650   25.4480   40.1590 H   0  0  0  0  0  0  0  0  0  0  0  0
   36.8070   23.2150   39.8620 H   0  0  0  0  0  0  0  0  0  0  0  0
   38.6990   22.4580   41.2800 H   0  0  0  0  0  0  0  0  0  0  0  0
   39.8890   23.9310   43.1270 O   0  0  0  0  0  0  0  0  0  0  0  0
   40.6930   23.5040   42.6900 H   0  0  0  0  0  0  0  0  0  0  0  0
  1  4  1  6  0  0  0
  1  2  1  0  0  0  0
  1  3  1  0  0  0  0
  2  3  1  0  0  0  0
  2  5  1  0  0  0  0
  3  7  1  1  0  0  0
  6  2  1  0  0  0  0
  8 13  1  0  0  0  0
  8 14  1  0  0  0  0
  9  8  2  0  0  0  0
 10 11  2  0  0  0  0
 10  9  1  0  0  0  0
 11 12  1  0  0  0  0
 12  1  1  0  0  0  0
 12 13  2  0  0  0  0
 15  9  1  0  0  0  0
 16 10  1  0  0  0  0
 17 18  1  0  0  0  0
 17 16  1  0  0  0  0
 19 17  2  0  0  0  0
 20 19  1  0  0  0  0
 20 27  1  0  0  0  0
 21 23  1  0  0  0  0
 21 20  2  0  0  0  0
 22 21  1  0  0  0  0
 23 24  2  0  0  0  0
 24 25  1  0  0  0  0
 24 26  1  0  0  0  0
 27 26  2  0  0  0  0
 27 16  1  0  0  0  0
 28  3  1  0  0  0  0
 28 29  1  0  0  0  0
 30 31  1  0  0  0  0
 30 28  1  0  0  0  0
 31 40  1  0  0  0  0
 32 41  1  0  0  0  0
 32 31  2  0  0  0  0
 33 32  1  0  0  0  0
 34 33  2  0  0  0  0
 34 39  1  0  0  0  0
 35 34  1  0  0  0  0
 36 35  2  0  0  0  0
 36 37  1  0  0  0  0
 37 38  2  0  0  0  0
 38 39  1  0  0  0  0
 38 46  1  0  0  0  0
 39 30  2  0  0  0  0
 42 33  1  0  0  0  0
 43 35  1  0  0  0  0
 44 36  1  0  0  0  0
 45 37  1  0  0  0  0
 47 46  1  0  0  0  0
M  END
>  <minimizedAffinity>
-7.06890297

$$$$

 OpenBabel03242511153D

 47 52  0  0  1  0  0  0  0  0999 V2000
   37.0410   27.2040   42.3820 C   0  0  1  0  0  0  0  0  0  0  0  0
   36.2650   27.3920   43.6550 C   0  0  0  0  0  0  0  0  0  0  0  0
   37.5810   28.1570   43.3510 C   0  0  2  0  0  0  0  0  0  0  0  0
   36.5770   27.6240   41.4910 H   0  0  0  0  0  0  0  0  0  0  0  0
   36.3610   26.5700   44.4020 H   0  0  0  0  0  0  0  0  0  0  0  0
   35.3440   27.9870   43.6610 H   0  0  0  0  0  0  0  0  0  0  0  0
   38.4400   27.8670   43.9680 H   0  0  0  0  0  0  0  0  0  0  0  0
   39.5540   24.4920   42.6290 C   0  0  0  0  0  0  0  0  0  0  0  0
   39.0100   23.5120   41.7240 C   0  0  0  0  0  0  0  0  0  0  0  0
   37.7850   23.8200   41.0560 C   0  0  0  0  0  0  0  0  0  0  0  0
   37.1960   24.9930   41.2920 N   0  0  0  0  0  0  0  0  0  0  0  0
   37.7490   25.8910   42.1580 C   0  0  0  0  0  0  0  0  0  0  0  0
   38.9250   25.6540   42.8320 N   0  0  0  0  0  0  0  0  0  0  0  0
   40.4660   24.2710   43.1320 H   0  0  0  0  0  0  0  0  0  0  0  0
   39.5410   22.5800   41.5800 H   0  0  0  0  0  0  0  0  0  0  0  0
   37.2540   22.8460   40.1650 N   0  0  0  0  0  0  0  0  0  0  0  0
   37.8630   21.6360   40.0900 C   0  0  0  0  0  0  0  0  0  0  0  0
   38.7330   21.2060   40.5950 H   0  0  0  0  0  0  0  0  0  0  0  0
   37.1860   20.8860   39.1840 N   0  0  0  0  0  0  0  0  0  0  0  0
   36.1720   21.5940   38.6930 C   0  0  0  0  0  0  0  0  0  0  0  0
   35.1400   21.4500   37.7850 C   0  0  0  0  0  0  0  0  0  0  0  0
   35.0870   20.4720   37.2820 H   0  0  0  0  0  0  0  0  0  0  0  0
   34.2410   22.4320   37.5190 N   0  0  0  0  0  0  0  0  0  0  0  0
   34.3690   23.6170   38.1810 C   0  0  0  0  0  0  0  0  0  0  0  0
   33.6090   24.3680   37.9170 H   0  0  0  0  0  0  0  0  0  0  0  0
   35.3480   23.8690   39.0960 N   0  0  0  0  0  0  0  0  0  0  0  0
   36.2150   22.8390   39.3160 C   0  0  0  0  0  0  0  0  0  0  0  0
   37.4610   29.5580   43.0860 N   0  0  0  0  0  0  0  0  0  0  0  0
   36.5680   29.8280   43.5410 H   0  0  0  0  0  0  0  0  0  0  0  0
   38.4180   30.2610   42.3380 C   0  0  0  0  0  0  0  0  0  0  0  0
   39.7300   30.2330   42.7300 C   0  0  0  0  0  0  0  0  0  0  0  0
   40.7460   30.8410   42.0010 C   0  0  0  0  0  0  0  0  0  0  0  0
   40.4690   31.5100   40.8310 C   0  0  0  0  0  0  0  0  0  0  0  0
   39.1570   31.5520   40.4180 C   0  0  0  0  0  0  0  0  0  0  0  0
   38.8520   32.2110   39.2390 C   0  0  0  0  0  0  0  0  0  0  0  0
   37.5800   32.2870   38.7670 C   0  0  0  0  0  0  0  0  0  0  0  0
   36.5900   31.6730   39.5260 C   0  0  0  0  0  0  0  0  0  0  0  0
   36.9050   31.0260   40.6890 C   0  0  0  0  0  0  0  0  0  0  0  0
   38.1760   30.9400   41.1660 C   0  0  0  0  0  0  0  0  0  0  0  0
   40.0080   29.7140   43.6540 H   0  0  0  0  0  0  0  0  0  0  0  0
   41.7550   30.7690   42.3840 H   0  0  0  0  0  0  0  0  0  0  0  0
   41.2870   31.9710   40.2860 H   0  0  0  0  0  0  0  0  0  0  0  0
   39.6570   32.6680   38.6940 H   0  0  0  0  0  0  0  0  0  0  0  0
   37.4150   32.8160   37.8380 H   0  0  0  0  0  0  0  0  0  0  0  0
   35.5760   31.7530   39.1240 H   0  0  0  0  0  0  0  0  0  0  0  0
   35.8840   30.4470   41.4040 O   0  0  0  0  0  0  0  0  0  0  0  0
   35.2410   29.8310   40.9270 H   0  0  0  0  0  0  0  0  0  0  0  0
  1  4  1  6  0  0  0
  1  3  1  0  0  0  0
  1  2  1  0  0  0  0
  2  6  1  0  0  0  0
  2  5  1  0  0  0  0
  3  2  1  0  0  0  0
  3  7  1  1  0  0  0
  8 13  1  0  0  0  0
  8 14  1  0  0  0  0
  9  8  2  0  0  0  0
 10 11  2  0  0  0  0
 10  9  1  0  0  0  0
 11 12  1  0  0  0  0
 12  1  1  0  0  0  0
 12 13  2  0  0  0  0
 15  9  1  0  0  0  0
 16 10  1  0  0  0  0
 17 16  1  0  0  0  0
 17 18  1  0  0  0  0
 19 17  2  0  0  0  0
 20 19  1  0  0  0  0
 20 27  1  0  0  0  0
 21 20  2  0  0  0  0
 22 21  1  0  0  0  0
 23 21  1  0  0  0  0
 23 24  2  0  0  0  0
 24 26  1  0  0  0  0
 25 24  1  0  0  0  0
 26 27  2  0  0  0  0
 27 16  1  0  0  0  0
 28  3  1  0  0  0  0
 28 29  1  0  0  0  0
 30 31  1  0  0  0  0
 30 28  1  0  0  0  0
 31 40  1  0  0  0  0
 32 41  1  0  0  0  0
 32 31  2  0  0  0  0
 33 32  1  0  0  0  0
 34 33  2  0  0  0  0
 34 39  1  0  0  0  0
 35 34  1  0  0  0  0
 36 35  2  0  0  0  0
 36 37  1  0  0  0  0
 37 38  2  0  0  0  0
 38 39  1  0  0  0  0
 38 46  1  0  0  0  0
 39 30  2  0  0  0  0
 42 33  1  0  0  0  0
 43 35  1  0  0  0  0
 44 36  1  0  0  0  0
 45 37  1  0  0  0  0
 47 46  1  0  0  0  0
M  END
>  <minimizedAffinity>
-7.04443121

$$$$

 OpenBabel03242511153D

 47 52  0  0  1  0  0  0  0  0999 V2000
   37.5350   27.4630   42.6010 C   0  0  1  0  0  0  0  0  0  0  0  0
   36.8020   27.7710   43.8770 C   0  0  0  0  0  0  0  0  0  0  0  0
   37.5780   28.8470   43.0710 C   0  0  2  0  0  0  0  0  0  0  0  0
   36.9000   27.2590   41.7400 H   0  0  0  0  0  0  0  0  0  0  0  0
   37.3040   27.4310   44.8130 H   0  0  0  0  0  0  0  0  0  0  0  0
   35.7100   27.8570   43.8810 H   0  0  0  0  0  0  0  0  0  0  0  0
   38.4890   29.2220   43.5540 H   0  0  0  0  0  0  0  0  0  0  0  0
   39.7520   24.4960   42.7300 C   0  0  0  0  0  0  0  0  0  0  0  0
   41.0510   25.1100   42.8120 C   0  0  0  0  0  0  0  0  0  0  0  0
   41.1210   26.5380   42.8170 C   0  0  0  0  0  0  0  0  0  0  0  0
   39.9910   27.2410   42.7480 N   0  0  0  0  0  0  0  0  0  0  0  0
   38.7810   26.6150   42.6720 C   0  0  0  0  0  0  0  0  0  0  0  0
   38.6460   25.2450   42.6620 N   0  0  0  0  0  0  0  0  0  0  0  0
   39.6890   23.4320   42.7260 H   0  0  0  0  0  0  0  0  0  0  0  0
   41.9280   24.4780   42.8660 H   0  0  0  0  0  0  0  0  0  0  0  0
   42.4080   27.1370   42.8980 N   0  0  0  0  0  0  0  0  0  0  0  0
   43.5010   26.3350   42.8390 C   0  0  0  0  0  0  0  0  0  0  0  0
   43.6280   25.2530   42.7360 H   0  0  0  0  0  0  0  0  0  0  0  0
   44.6020   27.1240   42.9350 N   0  0  0  0  0  0  0  0  0  0  0  0
   44.2250   28.3950   43.0520 C   0  0  0  0  0  0  0  0  0  0  0  0
   44.7970   29.6460   43.1830 C   0  0  0  0  0  0  0  0  0  0  0  0
   45.8980   29.6630   43.2030 H   0  0  0  0  0  0  0  0  0  0  0  0
   44.0720   30.7900   43.2800 N   0  0  0  0  0  0  0  0  0  0  0  0
   42.7120   30.6920   43.2470 C   0  0  0  0  0  0  0  0  0  0  0  0
   42.1860   31.6550   43.3320 H   0  0  0  0  0  0  0  0  0  0  0  0
   42.0420   29.5120   43.1220 N   0  0  0  0  0  0  0  0  0  0  0  0
   42.8320   28.4040   43.0280 C   0  0  0  0  0  0  0  0  0  0  0  0
   36.7910   29.8330   42.3970 N   0  0  0  0  0  0  0  0  0  0  0  0
   36.5740   30.5330   43.1320 H   0  0  0  0  0  0  0  0  0  0  0  0
   36.4540   29.7200   41.0390 C   0  0  0  0  0  0  0  0  0  0  0  0
   35.3510   28.9890   40.6800 C   0  0  0  0  0  0  0  0  0  0  0  0
   34.9090   28.8920   39.3660 C   0  0  0  0  0  0  0  0  0  0  0  0
   35.5740   29.5390   38.3490 C   0  0  0  0  0  0  0  0  0  0  0  0
   36.6860   30.2780   38.6870 C   0  0  0  0  0  0  0  0  0  0  0  0
   37.3680   30.9460   37.6850 C   0  0  0  0  0  0  0  0  0  0  0  0
   38.4690   31.6980   37.9440 C   0  0  0  0  0  0  0  0  0  0  0  0
   38.8860   31.7680   39.2700 C   0  0  0  0  0  0  0  0  0  0  0  0
   38.2020   31.1020   40.2490 C   0  0  0  0  0  0  0  0  0  0  0  0
   37.0970   30.3500   39.9990 C   0  0  0  0  0  0  0  0  0  0  0  0
   34.7830   28.4540   41.4490 H   0  0  0  0  0  0  0  0  0  0  0  0
   34.0290   28.2940   39.1720 H   0  0  0  0  0  0  0  0  0  0  0  0
   35.2000   29.4430   37.3360 H   0  0  0  0  0  0  0  0  0  0  0  0
   37.0020   30.8560   36.6780 H   0  0  0  0  0  0  0  0  0  0  0  0
   38.9520   32.1950   37.1130 H   0  0  0  0  0  0  0  0  0  0  0  0
   39.7750   32.3780   39.4480 H   0  0  0  0  0  0  0  0  0  0  0  0
   38.6660   31.1970   41.5390 O   0  0  0  0  0  0  0  0  0  0  0  0
   38.8540   32.1110   41.9260 H   0  0  0  0  0  0  0  0  0  0  0  0
  1  4  1  6  0  0  0
  1 12  1  0  0  0  0
  1  3  1  0  0  0  0
  1  2  1  0  0  0  0
  2  6  1  0  0  0  0
  2  5  1  0  0  0  0
  3  7  1  1  0  0  0
  3  2  1  0  0  0  0
  8  9  1  0  0  0  0
  9 10  2  0  0  0  0
  9 15  1  0  0  0  0
 10 16  1  0  0  0  0
 11 10  1  0  0  0  0
 12 11  2  0  0  0  0
 13 12  1  0  0  0  0
 13  8  2  0  0  0  0
 14  8  1  0  0  0  0
 16 27  1  0  0  0  0
 17 16  1  0  0  0  0
 17 19  2  0  0  0  0
 18 17  1  0  0  0  0
 19 20  1  0  0  0  0
 20 21  1  0  0  0  0
 21 22  1  0  0  0  0
 21 23  2  0  0  0  0
 24 23  1  0  0  0  0
 24 25  1  0  0  0  0
 26 24  2  0  0  0  0
 27 20  2  0  0  0  0
 27 26  1  0  0  0  0
 28  3  1  0  0  0  0
 28 29  1  0  0  0  0
 30 28  1  0  0  0  0
 31 30  1  0  0  0  0
 31 40  1  0  0  0  0
 32 31  2  0  0  0  0
 33 34  2  0  0  0  0
 33 32  1  0  0  0  0
 34 39  1  0  0  0  0
 35 36  2  0  0  0  0
 35 34  1  0  0  0  0
 36 37  1  0  0  0  0
 37 45  1  0  0  0  0
 37 38  2  0  0  0  0
 38 46  1  0  0  0  0
 39 38  1  0  0  0  0
 39 30  2  0  0  0  0
 41 32  1  0  0  0  0
 42 33  1  0  0  0  0
 43 35  1  0  0  0  0
 44 36  1  0  0  0  0
 46 47  1  0  0  0  0
M  END
>  <minimizedAffinity>
-6.98475599

$$$$

 OpenBabel03242511153D

 47 52  0  0  1  0  0  0  0  0999 V2000
   37.8660   32.3850   38.2460 C   0  0  1  0  0  0  0  0  0  0  0  0
   37.3240   33.0800   39.4640 C   0  0  0  0  0  0  0  0  0  0  0  0
   38.8170   32.6780   39.3190 C   0  0  2  0  0  0  0  0  0  0  0  0
   37.9340   33.0020   37.3520 H   0  0  0  0  0  0  0  0  0  0  0  0
   36.7300   32.4410   40.1580 H   0  0  0  0  0  0  0  0  0  0  0  0
   37.1030   34.1530   39.4370 H   0  0  0  0  0  0  0  0  0  0  0  0
   39.1460   31.8670   39.9810 H   0  0  0  0  0  0  0  0  0  0  0  0
   36.6880   29.3380   36.4950 C   0  0  0  0  0  0  0  0  0  0  0  0
   36.7050   28.3690   37.5600 C   0  0  0  0  0  0  0  0  0  0  0  0
   37.1280   28.8000   38.8550 C   0  0  0  0  0  0  0  0  0  0  0  0
   37.4860   30.0730   39.0290 N   0  0  0  0  0  0  0  0  0  0  0  0
   37.4540   30.9560   37.9890 C   0  0  0  0  0  0  0  0  0  0  0  0
   37.0580   30.6040   36.7190 N   0  0  0  0  0  0  0  0  0  0  0  0
   36.3750   29.0270   35.5260 H   0  0  0  0  0  0  0  0  0  0  0  0
   36.4010   27.3520   37.3480 H   0  0  0  0  0  0  0  0  0  0  0  0
   37.1420   27.8370   39.9010 N   0  0  0  0  0  0  0  0  0  0  0  0
   36.8790   26.5420   39.5930 C   0  0  0  0  0  0  0  0  0  0  0  0
   36.6390   26.0320   38.6550 H   0  0  0  0  0  0  0  0  0  0  0  0
   36.9490   25.8190   40.7400 N   0  0  0  0  0  0  0  0  0  0  0  0
   37.2500   26.6270   41.7540 C   0  0  0  0  0  0  0  0  0  0  0  0
   37.4630   26.5570   43.1170 C   0  0  0  0  0  0  0  0  0  0  0  0
   37.3720   25.5530   43.5590 H   0  0  0  0  0  0  0  0  0  0  0  0
   37.7680   27.6390   43.8790 N   0  0  0  0  0  0  0  0  0  0  0  0
   37.8660   28.8520   43.2630 C   0  0  0  0  0  0  0  0  0  0  0  0
   38.1140   29.6840   43.9380 H   0  0  0  0  0  0  0  0  0  0  0  0
   37.6740   29.0370   41.9260 N   0  0  0  0  0  0  0  0  0  0  0  0
   37.3730   27.9090   41.2220 C   0  0  0  0  0  0  0  0  0  0  0  0
   39.7540   33.7440   39.1430 N   0  0  0  0  0  0  0  0  0  0  0  0
   39.1870   34.6050   39.2720 H   0  0  0  0  0  0  0  0  0  0  0  0
   41.1040   33.5110   38.8400 C   0  0  0  0  0  0  0  0  0  0  0  0
   41.4320   32.9200   37.6480 C   0  0  0  0  0  0  0  0  0  0  0  0
   42.7480   32.7240   37.2430 C   0  0  0  0  0  0  0  0  0  0  0  0
   43.7970   33.1230   38.0400 C   0  0  0  0  0  0  0  0  0  0  0  0
   43.4900   33.7180   39.2440 C   0  0  0  0  0  0  0  0  0  0  0  0
   44.5260   34.1370   40.0600 C   0  0  0  0  0  0  0  0  0  0  0  0
   44.2990   34.7370   41.2580 C   0  0  0  0  0  0  0  0  0  0  0  0
   42.9700   34.9110   41.6320 C   0  0  0  0  0  0  0  0  0  0  0  0
   41.9570   34.4910   40.8160 C   0  0  0  0  0  0  0  0  0  0  0  0
   42.1750   33.8950   39.6130 C   0  0  0  0  0  0  0  0  0  0  0  0
   40.6380   32.5830   36.9740 H   0  0  0  0  0  0  0  0  0  0  0  0
   42.9160   32.2500   36.2860 H   0  0  0  0  0  0  0  0  0  0  0  0
   44.8100   32.9570   37.6920 H   0  0  0  0  0  0  0  0  0  0  0  0
   45.5330   33.9760   39.7210 H   0  0  0  0  0  0  0  0  0  0  0  0
   45.1560   35.0410   41.8430 H   0  0  0  0  0  0  0  0  0  0  0  0
   42.8180   35.3940   42.6010 H   0  0  0  0  0  0  0  0  0  0  0  0
   40.6640   34.6790   41.2420 O   0  0  0  0  0  0  0  0  0  0  0  0
   40.3820   35.5950   41.5610 H   0  0  0  0  0  0  0  0  0  0  0  0
  1  4  1  6  0  0  0
  1  3  1  0  0  0  0
  1  2  1  0  0  0  0
  2  5  1  0  0  0  0
  3  2  1  0  0  0  0
  3  7  1  1  0  0  0
  6  2  1  0  0  0  0
  8 13  2  0  0  0  0
  8  9  1  0  0  0  0
  9 10  2  0  0  0  0
 10 11  1  0  0  0  0
 10 16  1  0  0  0  0
 12  1  1  0  0  0  0
 12 11  2  0  0  0  0
 13 12  1  0  0  0  0
 14  8  1  0  0  0  0
 15  9  1  0  0  0  0
 16 27  1  0  0  0  0
 17 16  1  0  0  0  0
 17 19  2  0  0  0  0
 18 17  1  0  0  0  0
 19 20  1  0  0  0  0
 20 21  1  0  0  0  0
 21 22  1  0  0  0  0
 21 23  2  0  0  0  0
 24 23  1  0  0  0  0
 24 25  1  0  0  0  0
 26 24  2  0  0  0  0
 27 20  2  0  0  0  0
 27 26  1  0  0  0  0
 28 29  1  0  0  0  0
 28  3  1  0  0  0  0
 30 28  1  0  0  0  0
 30 39  1  0  0  0  0
 31 30  2  0  0  0  0
 32 31  1  0  0  0  0
 32 33  2  0  0  0  0
 33 34  1  0  0  0  0
 34 39  2  0  0  0  0
 34 35  1  0  0  0  0
 35 36  2  0  0  0  0
 36 37  1  0  0  0  0
 36 44  1  0  0  0  0
 37 45  1  0  0  0  0
 38 46  1  0  0  0  0
 38 37  2  0  0  0  0
 39 38  1  0  0  0  0
 40 31  1  0  0  0  0
 41 32  1  0  0  0  0
 42 33  1  0  0  0  0
 43 35  1  0  0  0  0
 46 47  1  0  0  0  0
M  END
>  <minimizedAffinity>
-6.94392538

$$$$
