
 OpenBabel03252507383D

 41 46  0  0  0  0  0  0  0  0999 V2000
   49.6030   30.9710   42.0390 C   0  0  0  0  0  0  0  0  0  0  0  0
   50.1370   30.6150   43.3090 C   0  0  0  0  0  0  0  0  0  0  0  0
   49.3590   29.7720   44.0920 C   0  0  0  0  0  0  0  0  0  0  0  0
   48.1800   29.3430   43.6340 N   0  0  0  0  0  0  0  0  0  0  0  0
   47.6990   29.7000   42.4190 C   0  0  0  0  0  0  0  0  0  0  0  0
   48.4130   30.5030   41.6460 N   0  0  0  0  0  0  0  0  0  0  0  0
   51.0750   30.9480   43.6900 H   0  0  0  0  0  0  0  0  0  0  0  0
   46.7290   29.2720   42.1890 H   0  0  0  0  0  0  0  0  0  0  0  0
   48.7730   29.1350   46.3690 C   0  0  0  0  0  0  0  0  0  0  0  0
   49.7870   29.3250   45.4250 C   0  0  0  0  0  0  0  0  0  0  0  0
   51.0750   29.0910   45.7970 C   0  0  0  0  0  0  0  0  0  0  0  0
   51.4250   28.6750   47.0630 C   0  0  0  0  0  0  0  0  0  0  0  0
   52.6080   28.3880   47.6440 N   0  0  0  0  0  0  0  0  0  0  0  0
   52.3530   28.0180   48.9470 C   0  0  0  0  0  0  0  0  0  0  0  0
   51.0310   28.0840   49.1390 N   0  0  0  0  0  0  0  0  0  0  0  0
   50.4440   28.4840   48.0010 C   0  0  0  0  0  0  0  0  0  0  0  0
   49.1240   28.7120   47.6560 C   0  0  0  0  0  0  0  0  0  0  0  0
   47.7170   29.2930   46.1780 H   0  0  0  0  0  0  0  0  0  0  0  0
   51.8560   29.2460   45.0420 H   0  0  0  0  0  0  0  0  0  0  0  0
   53.5010   28.4670   47.1100 H   0  0  0  0  0  0  0  0  0  0  0  0
   53.2240   27.7600   49.5340 H   0  0  0  0  0  0  0  0  0  0  0  0
   48.3780   28.5510   48.4240 H   0  0  0  0  0  0  0  0  0  0  0  0
   50.3700   31.8130   41.2460 O   0  0  0  0  0  0  0  0  0  0  0  0
   50.4150   31.6590   39.8870 C   0  0  0  0  0  0  0  0  0  0  0  0
   51.7070   31.3640   39.6360 C   0  0  0  0  0  0  0  0  0  0  0  0
   51.7390   31.1620   37.7550 S   0  0  0  0  0  0  0  0  0  0  0  0
   49.8770   31.5440   37.7050 C   0  0  0  0  0  0  0  0  0  0  0  0
   49.6970   31.6940   38.7840 N   0  0  0  0  0  0  0  0  0  0  0  0
   52.8180   31.1650   39.9540 H   0  0  0  0  0  0  0  0  0  0  0  0
   48.9200   31.6270   36.5940 N   0  0  0  0  0  0  0  0  0  0  0  0
   48.5740   32.7750   36.0220 C   0  0  0  0  0  0  0  0  0  0  0  0
   48.9170   33.7810   36.2610 H   0  0  0  0  0  0  0  0  0  0  0  0
   47.6960   32.4210   35.0690 N   0  0  0  0  0  0  0  0  0  0  0  0
   47.5260   31.0930   35.0760 C   0  0  0  0  0  0  0  0  0  0  0  0
   46.7460   30.2310   34.3150 C   0  0  0  0  0  0  0  0  0  0  0  0
   46.1090   30.5960   33.5280 H   0  0  0  0  0  0  0  0  0  0  0  0
   46.7540   28.9020   34.5250 N   0  0  0  0  0  0  0  0  0  0  0  0
   47.5420   28.3940   35.5070 C   0  0  0  0  0  0  0  0  0  0  0  0
   47.5530   27.3160   35.6840 H   0  0  0  0  0  0  0  0  0  0  0  0
   48.3100   29.2300   36.2610 N   0  0  0  0  0  0  0  0  0  0  0  0
   48.3210   30.5620   36.0700 C   0  0  0  0  0  0  0  0  0  0  0  0
  1  2  1  0  0  0  0
  2  7  1  0  0  0  0
  2  3  2  0  0  0  0
  3 10  1  0  0  0  0
  4  3  1  0  0  0  0
  5  4  2  0  0  0  0
  6  1  2  0  0  0  0
  6  5  1  0  0  0  0
  8  5  1  0  0  0  0
  9 17  1  0  0  0  0
 10 11  1  0  0  0  0
 10  9  2  0  0  0  0
 11 12  2  0  0  0  0
 12 13  1  0  0  0  0
 12 16  1  0  0  0  0
 13 14  1  0  0  0  0
 14 15  2  0  0  0  0
 14 21  1  0  0  0  0
 16 15  1  0  0  0  0
 17 16  2  0  0  0  0
 17 22  1  0  0  0  0
 18  9  1  0  0  0  0
 19 11  1  0  0  0  0
 20 13  1  0  0  0  0
 23  1  1  0  0  0  0
 24 23  1  0  0  0  0
 25 24  2  0  0  0  0
 25 29  1  0  0  0  0
 26 25  1  0  0  0  0
 27 26  1  0  0  0  0
 27 28  2  0  0  0  0
 28 24  1  0  0  0  0
 30 27  1  0  0  0  0
 31 32  1  0  0  0  0
 31 30  1  0  0  0  0
 33 34  1  0  0  0  0
 33 31  2  0  0  0  0
 34 41  1  0  0  0  0
 35 37  1  0  0  0  0
 35 34  2  0  0  0  0
 36 35  1  0  0  0  0
 37 38  2  0  0  0  0
 38 39  1  0  0  0  0
 38 40  1  0  0  0  0
 41 40  2  0  0  0  0
 41 30  1  0  0  0  0
M  END
>  <minimizedAffinity>
-3.39502406

>  <minimizedRMSD>
7.677423

$$$$
