
 OpenBabel03242518433D

 22 24  0  0  0  0  0  0  0  0999 V2000
   44.7870   35.0650   45.5540 C   0  0  0  0  0  0  0  0  0  0  0  0
   44.5000   36.1310   44.6810 C   0  0  0  0  0  0  0  0  0  0  0  0
   45.1180   36.1060   43.4110 C   0  0  0  0  0  0  0  0  0  0  0  0
   45.9400   35.0620   43.1250 N   0  0  0  0  0  0  0  0  0  0  0  0
   46.1870   34.0660   43.9860 C   0  0  0  0  0  0  0  0  0  0  0  0
   45.6090   34.0660   45.2050 N   0  0  0  0  0  0  0  0  0  0  0  0
   43.8460   36.9470   44.9260 H   0  0  0  0  0  0  0  0  0  0  0  0
   44.9160   36.9110   42.7180 H   0  0  0  0  0  0  0  0  0  0  0  0
   47.0590   32.9940   43.6320 N   0  0  0  0  0  0  0  0  0  0  0  0
   46.9330   31.6560   43.6770 C   0  0  0  0  0  0  0  0  0  0  0  0
   45.9910   31.2960   44.0530 H   0  0  0  0  0  0  0  0  0  0  0  0
   48.0840   31.1290   43.2130 N   0  0  0  0  0  0  0  0  0  0  0  0
   48.9240   32.1370   42.8810 C   0  0  0  0  0  0  0  0  0  0  0  0
   50.2200   32.0230   42.3630 C   0  0  0  0  0  0  0  0  0  0  0  0
   50.6460   31.0500   42.1870 H   0  0  0  0  0  0  0  0  0  0  0  0
   50.8240   33.1990   42.1250 N   0  0  0  0  0  0  0  0  0  0  0  0
   50.2280   34.3800   42.3690 C   0  0  0  0  0  0  0  0  0  0  0  0
   50.8050   35.2660   42.1420 H   0  0  0  0  0  0  0  0  0  0  0  0
   48.9790   34.4360   42.8690 N   0  0  0  0  0  0  0  0  0  0  0  0
   48.2690   33.3280   43.1490 C   0  0  0  0  0  0  0  0  0  0  0  0
   44.1900   35.0840   46.7880 O   0  0  0  0  0  0  0  0  0  0  0  0
   44.6910   35.3680   47.6040 H   0  0  0  0  0  0  0  0  0  0  0  0
  1 21  1  0  0  0  0
  2  7  1  0  0  0  0
  2  1  2  0  0  0  0
  3  2  1  0  0  0  0
  4  3  2  0  0  0  0
  4  5  1  0  0  0  0
  5  6  2  0  0  0  0
  6  1  1  0  0  0  0
  8  3  1  0  0  0  0
  9 10  1  0  0  0  0
  9  5  1  0  0  0  0
 10 11  1  0  0  0  0
 12 10  2  0  0  0  0
 13 20  1  0  0  0  0
 13 12  1  0  0  0  0
 14 13  2  0  0  0  0
 15 14  1  0  0  0  0
 16 14  1  0  0  0  0
 16 17  2  0  0  0  0
 17 19  1  0  0  0  0
 18 17  1  0  0  0  0
 19 20  2  0  0  0  0
 20  9  1  0  0  0  0
 21 22  1  0  0  0  0
M  END
>  <minimizedAffinity>
-5.75203228

>  <minimizedRMSD>
5.22452116

$$$$
