
 OpenBabel03242515143D

 30 32  0  0  0  0  0  0  0  0999 V2000
   38.7600   28.9820   42.9890 C   0  0  0  0  0  0  0  0  0  0  0  0
   39.7480   28.7620   42.4820 H   0  0  0  0  0  0  0  0  0  0  0  0
   39.0510   29.7770   43.7330 H   0  0  0  0  0  0  0  0  0  0  0  0
   35.9750   29.9790   40.7260 C   0  0  0  0  0  0  0  0  0  0  0  0
   36.4680   31.2050   40.2310 C   0  0  0  0  0  0  0  0  0  0  0  0
   37.7200   31.6070   40.7030 C   0  0  0  0  0  0  0  0  0  0  0  0
   38.3670   30.8080   41.5920 N   0  0  0  0  0  0  0  0  0  0  0  0
   37.8500   29.6460   42.0330 C   0  0  0  0  0  0  0  0  0  0  0  0
   36.6690   29.2370   41.6040 N   0  0  0  0  0  0  0  0  0  0  0  0
   35.0010   29.6270   40.3830 H   0  0  0  0  0  0  0  0  0  0  0  0
   35.8870   31.7760   39.5270 H   0  0  0  0  0  0  0  0  0  0  0  0
   38.2140   32.8780   40.1770 C   0  0  0  0  0  0  0  0  0  0  0  0
   38.7440   33.6330   41.2260 F   0  0  0  0  0  0  0  0  0  0  0  0
   37.1050   33.5730   39.7330 F   0  0  0  0  0  0  0  0  0  0  0  0
   39.1870   32.7390   39.2280 F   0  0  0  0  0  0  0  0  0  0  0  0
   38.2590   27.7520   43.6050 C   0  0  0  0  0  0  0  0  0  0  0  0
   37.1430   27.8570   43.8010 H   0  0  0  0  0  0  0  0  0  0  0  0
   38.6560   27.6800   44.6770 H   0  0  0  0  0  0  0  0  0  0  0  0
   38.5640   26.4960   43.0200 N   0  0  0  0  0  0  0  0  0  0  0  0
   39.6710   25.8940   43.5520 C   0  0  0  0  0  0  0  0  0  0  0  0
   40.4090   26.1320   44.3120 H   0  0  0  0  0  0  0  0  0  0  0  0
   39.9110   24.6800   42.9840 N   0  0  0  0  0  0  0  0  0  0  0  0
   38.9590   24.4680   42.0630 C   0  0  0  0  0  0  0  0  0  0  0  0
   38.5780   23.5120   41.1280 C   0  0  0  0  0  0  0  0  0  0  0  0
   39.2050   22.6260   41.0870 H   0  0  0  0  0  0  0  0  0  0  0  0
   37.4990   23.7160   40.3480 N   0  0  0  0  0  0  0  0  0  0  0  0
   36.7400   24.8330   40.4260 C   0  0  0  0  0  0  0  0  0  0  0  0
   35.8870   24.9430   39.7770 H   0  0  0  0  0  0  0  0  0  0  0  0
   37.1220   25.7420   41.3330 N   0  0  0  0  0  0  0  0  0  0  0  0
   38.1740   25.5910   42.1230 C   0  0  0  0  0  0  0  0  0  0  0  0
  1 16  1  0  0  0  0
  1  3  1  0  0  0  0
  2  1  1  0  0  0  0
  4  9  1  0  0  0  0
  5  6  1  0  0  0  0
  5  4  2  0  0  0  0
  6  7  2  0  0  0  0
  7  8  1  0  0  0  0
  8  1  1  0  0  0  0
  9  8  2  0  0  0  0
 10  4  1  0  0  0  0
 11  5  1  0  0  0  0
 12  6  1  0  0  0  0
 12 13  1  0  0  0  0
 14 12  1  0  0  0  0
 15 12  1  0  0  0  0
 16 17  1  0  0  0  0
 16 18  1  0  0  0  0
 19 20  1  0  0  0  0
 19 16  1  0  0  0  0
 20 21  1  0  0  0  0
 22 20  2  0  0  0  0
 23 30  1  0  0  0  0
 23 22  1  0  0  0  0
 24 23  2  0  0  0  0
 25 24  1  0  0  0  0
 26 27  2  0  0  0  0
 26 24  1  0  0  0  0
 27 29  1  0  0  0  0
 28 27  1  0  0  0  0
 29 30  2  0  0  0  0
 30 19  1  0  0  0  0
M  END
>  <minimizedAffinity>
-5.3155365

$$$$

 OpenBabel03242515143D

 30 32  0  0  0  0  0  0  0  0999 V2000
   39.6610   30.1500   42.6240 C   0  0  0  0  0  0  0  0  0  0  0  0
   40.4130   29.3350   42.3960 H   0  0  0  0  0  0  0  0  0  0  0  0
   40.0710   30.5850   43.5800 H   0  0  0  0  0  0  0  0  0  0  0  0
   40.7360   32.9360   40.3980 C   0  0  0  0  0  0  0  0  0  0  0  0
   39.5670   33.1210   39.6290 C   0  0  0  0  0  0  0  0  0  0  0  0
   38.4890   32.2810   39.9250 C   0  0  0  0  0  0  0  0  0  0  0  0
   38.6360   31.3590   40.9130 N   0  0  0  0  0  0  0  0  0  0  0  0
   39.7760   31.2250   41.6160 C   0  0  0  0  0  0  0  0  0  0  0  0
   40.8120   32.0050   41.3610 N   0  0  0  0  0  0  0  0  0  0  0  0
   41.6000   33.5710   40.2000 H   0  0  0  0  0  0  0  0  0  0  0  0
   39.5380   33.8770   38.8640 H   0  0  0  0  0  0  0  0  0  0  0  0
   37.2880   32.4890   39.1200 C   0  0  0  0  0  0  0  0  0  0  0  0
   36.8370   33.7990   39.2970 F   0  0  0  0  0  0  0  0  0  0  0  0
   36.3100   31.6750   39.6620 F   0  0  0  0  0  0  0  0  0  0  0  0
   37.4810   32.2900   37.7820 F   0  0  0  0  0  0  0  0  0  0  0  0
   38.3350   29.5470   42.7710 C   0  0  0  0  0  0  0  0  0  0  0  0
   37.5680   30.1880   42.2290 H   0  0  0  0  0  0  0  0  0  0  0  0
   37.9860   29.6670   43.8550 H   0  0  0  0  0  0  0  0  0  0  0  0
   38.1530   28.1690   42.4830 N   0  0  0  0  0  0  0  0  0  0  0  0
   37.1050   27.9160   41.6420 C   0  0  0  0  0  0  0  0  0  0  0  0
   36.3420   28.5000   41.1350 H   0  0  0  0  0  0  0  0  0  0  0  0
   36.9830   26.5880   41.3670 N   0  0  0  0  0  0  0  0  0  0  0  0
   37.9570   25.9460   42.0300 C   0  0  0  0  0  0  0  0  0  0  0  0
   38.4330   24.6560   42.2350 C   0  0  0  0  0  0  0  0  0  0  0  0
   37.8920   23.8730   41.7110 H   0  0  0  0  0  0  0  0  0  0  0  0
   39.4930   24.4410   43.0370 N   0  0  0  0  0  0  0  0  0  0  0  0
   40.1430   25.4420   43.6740 C   0  0  0  0  0  0  0  0  0  0  0  0
   40.9860   25.2110   44.3050 H   0  0  0  0  0  0  0  0  0  0  0  0
   39.6720   26.6780   43.4650 N   0  0  0  0  0  0  0  0  0  0  0  0
   38.6330   26.9430   42.6870 C   0  0  0  0  0  0  0  0  0  0  0  0
  1 16  1  0  0  0  0
  1  3  1  0  0  0  0
  2  1  1  0  0  0  0
  4  9  1  0  0  0  0
  5  6  1  0  0  0  0
  5  4  2  0  0  0  0
  6  7  2  0  0  0  0
  7  8  1  0  0  0  0
  8  1  1  0  0  0  0
  9  8  2  0  0  0  0
 10  4  1  0  0  0  0
 11  5  1  0  0  0  0
 12 13  1  0  0  0  0
 12 14  1  0  0  0  0
 12  6  1  0  0  0  0
 15 12  1  0  0  0  0
 16 18  1  0  0  0  0
 17 16  1  0  0  0  0
 19 30  1  0  0  0  0
 19 16  1  0  0  0  0
 20 19  1  0  0  0  0
 21 20  1  0  0  0  0
 22 20  2  0  0  0  0
 22 23  1  0  0  0  0
 23 24  2  0  0  0  0
 23 30  1  0  0  0  0
 24 26  1  0  0  0  0
 25 24  1  0  0  0  0
 26 27  2  0  0  0  0
 27 28  1  0  0  0  0
 29 27  1  0  0  0  0
 30 29  2  0  0  0  0
M  END
>  <minimizedAffinity>
-5.26378202

$$$$

 OpenBabel03242515143D

 30 32  0  0  0  0  0  0  0  0999 V2000
   35.7720   29.8340   40.4520 C   0  0  0  0  0  0  0  0  0  0  0  0
   34.7880   29.2840   40.3470 H   0  0  0  0  0  0  0  0  0  0  0  0
   35.4550   30.7830   40.9710 H   0  0  0  0  0  0  0  0  0  0  0  0
   38.1240   28.8270   43.1580 C   0  0  0  0  0  0  0  0  0  0  0  0
   38.1060   27.4230   43.0100 C   0  0  0  0  0  0  0  0  0  0  0  0
   37.2910   26.9160   41.9940 C   0  0  0  0  0  0  0  0  0  0  0  0
   36.5820   27.7910   41.2310 N   0  0  0  0  0  0  0  0  0  0  0  0
   36.6380   29.1240   41.4160 C   0  0  0  0  0  0  0  0  0  0  0  0
   37.3990   29.6340   42.3680 N   0  0  0  0  0  0  0  0  0  0  0  0
   38.7470   29.2650   43.9390 H   0  0  0  0  0  0  0  0  0  0  0  0
   38.6990   26.8040   43.6610 H   0  0  0  0  0  0  0  0  0  0  0  0
   37.2860   25.4620   41.8560 C   0  0  0  0  0  0  0  0  0  0  0  0
   36.3320   24.9210   42.7210 F   0  0  0  0  0  0  0  0  0  0  0  0
   38.5120   25.0220   42.3210 F   0  0  0  0  0  0  0  0  0  0  0  0
   36.9970   25.0310   40.5920 F   0  0  0  0  0  0  0  0  0  0  0  0
   36.3380   30.0520   39.1200 C   0  0  0  0  0  0  0  0  0  0  0  0
   35.5480   30.5160   38.4450 H   0  0  0  0  0  0  0  0  0  0  0  0
   36.4890   29.0400   38.6050 H   0  0  0  0  0  0  0  0  0  0  0  0
   37.5860   30.7160   38.9850 N   0  0  0  0  0  0  0  0  0  0  0  0
   38.5000   30.0260   38.2390 C   0  0  0  0  0  0  0  0  0  0  0  0
   38.5360   29.0720   37.7200 H   0  0  0  0  0  0  0  0  0  0  0  0
   39.6710   30.7110   38.1090 N   0  0  0  0  0  0  0  0  0  0  0  0
   39.5390   31.8680   38.7760 C   0  0  0  0  0  0  0  0  0  0  0  0
   40.2740   33.0070   39.0830 C   0  0  0  0  0  0  0  0  0  0  0  0
   41.2790   33.0360   38.6750 H   0  0  0  0  0  0  0  0  0  0  0  0
   39.7320   33.9820   39.8380 N   0  0  0  0  0  0  0  0  0  0  0  0
   38.4740   33.9130   40.3300 C   0  0  0  0  0  0  0  0  0  0  0  0
   38.0920   34.7240   40.9290 H   0  0  0  0  0  0  0  0  0  0  0  0
   37.7810   32.8090   40.0230 N   0  0  0  0  0  0  0  0  0  0  0  0
   38.2660   31.8220   39.2850 C   0  0  0  0  0  0  0  0  0  0  0  0
  1  3  1  0  0  0  0
  1  8  1  0  0  0  0
  2  1  1  0  0  0  0
  4 10  1  0  0  0  0
  5  4  1  0  0  0  0
  5 11  1  0  0  0  0
  6  5  2  0  0  0  0
  7  8  2  0  0  0  0
  7  6  1  0  0  0  0
  8  9  1  0  0  0  0
  9  4  2  0  0  0  0
 12  6  1  0  0  0  0
 12 14  1  0  0  0  0
 12 13  1  0  0  0  0
 15 12  1  0  0  0  0
 16  1  1  0  0  0  0
 17 16  1  0  0  0  0
 18 16  1  0  0  0  0
 19 16  1  0  0  0  0
 19 30  1  0  0  0  0
 20 19  1  0  0  0  0
 21 20  1  0  0  0  0
 22 20  2  0  0  0  0
 22 23  1  0  0  0  0
 23 24  2  0  0  0  0
 23 30  1  0  0  0  0
 24 26  1  0  0  0  0
 25 24  1  0  0  0  0
 26 27  2  0  0  0  0
 27 28  1  0  0  0  0
 29 27  1  0  0  0  0
 30 29  2  0  0  0  0
M  END
>  <minimizedAffinity>
-5.17848682

$$$$

 OpenBabel03242515143D

 30 32  0  0  0  0  0  0  0  0999 V2000
   36.0330   30.1590   40.8200 C   0  0  0  0  0  0  0  0  0  0  0  0
   35.0920   29.6350   40.4710 H   0  0  0  0  0  0  0  0  0  0  0  0
   35.6190   30.9380   41.5220 H   0  0  0  0  0  0  0  0  0  0  0  0
   38.2830   28.5680   43.3250 C   0  0  0  0  0  0  0  0  0  0  0  0
   38.1200   27.2060   42.9940 C   0  0  0  0  0  0  0  0  0  0  0  0
   37.2520   26.9230   41.9360 C   0  0  0  0  0  0  0  0  0  0  0  0
   36.6330   27.9590   41.3090 N   0  0  0  0  0  0  0  0  0  0  0  0
   36.8260   29.2430   41.6660 C   0  0  0  0  0  0  0  0  0  0  0  0
   37.6410   29.5420   42.6620 N   0  0  0  0  0  0  0  0  0  0  0  0
   38.9530   28.8330   44.1440 H   0  0  0  0  0  0  0  0  0  0  0  0
   38.6500   26.4490   43.5460 H   0  0  0  0  0  0  0  0  0  0  0  0
   37.0970   25.5080   41.6070 C   0  0  0  0  0  0  0  0  0  0  0  0
   38.3590   24.9390   41.4210 F   0  0  0  0  0  0  0  0  0  0  0  0
   36.4740   25.4610   40.3740 F   0  0  0  0  0  0  0  0  0  0  0  0
   36.4510   24.7880   42.5720 F   0  0  0  0  0  0  0  0  0  0  0  0
   36.7240   30.7200   39.6580 C   0  0  0  0  0  0  0  0  0  0  0  0
   35.9590   30.9970   38.8620 H   0  0  0  0  0  0  0  0  0  0  0  0
   37.2960   29.8860   39.1220 H   0  0  0  0  0  0  0  0  0  0  0  0
   37.6770   31.7560   39.8390 N   0  0  0  0  0  0  0  0  0  0  0  0
   37.1620   33.0130   39.6840 C   0  0  0  0  0  0  0  0  0  0  0  0
   36.1960   33.4440   39.4360 H   0  0  0  0  0  0  0  0  0  0  0  0
   38.1010   33.9770   39.8940 N   0  0  0  0  0  0  0  0  0  0  0  0
   39.2550   33.3590   40.1920 C   0  0  0  0  0  0  0  0  0  0  0  0
   40.5760   33.6650   40.4990 C   0  0  0  0  0  0  0  0  0  0  0  0
   40.8110   34.7240   40.5350 H   0  0  0  0  0  0  0  0  0  0  0  0
   41.4660   32.6810   40.7280 N   0  0  0  0  0  0  0  0  0  0  0  0
   41.1370   31.3690   40.6740 C   0  0  0  0  0  0  0  0  0  0  0  0
   41.8910   30.6240   40.8660 H   0  0  0  0  0  0  0  0  0  0  0  0
   39.8610   31.0940   40.3780 N   0  0  0  0  0  0  0  0  0  0  0  0
   38.9460   32.0240   40.1440 C   0  0  0  0  0  0  0  0  0  0  0  0
  1  3  1  0  0  0  0
  1  8  1  0  0  0  0
  2  1  1  0  0  0  0
  4 10  1  0  0  0  0
  5  4  1  0  0  0  0
  5 11  1  0  0  0  0
  6  5  2  0  0  0  0
  7  8  2  0  0  0  0
  7  6  1  0  0  0  0
  8  9  1  0  0  0  0
  9  4  2  0  0  0  0
 12  6  1  0  0  0  0
 12 15  1  0  0  0  0
 13 12  1  0  0  0  0
 14 12  1  0  0  0  0
 16 19  1  0  0  0  0
 16  1  1  0  0  0  0
 17 16  1  0  0  0  0
 18 16  1  0  0  0  0
 19 30  1  0  0  0  0
 20 19  1  0  0  0  0
 20 22  2  0  0  0  0
 21 20  1  0  0  0  0
 22 23  1  0  0  0  0
 23 24  1  0  0  0  0
 24 25  1  0  0  0  0
 24 26  2  0  0  0  0
 27 26  1  0  0  0  0
 27 28  1  0  0  0  0
 29 27  2  0  0  0  0
 30 23  2  0  0  0  0
 30 29  1  0  0  0  0
M  END
>  <minimizedAffinity>
-5.17367697

$$$$

 OpenBabel03242515143D

 30 32  0  0  0  0  0  0  0  0999 V2000
   40.3520   28.8850   41.4330 C   0  0  0  0  0  0  0  0  0  0  0  0
   41.1210   28.0550   41.3950 H   0  0  0  0  0  0  0  0  0  0  0  0
   40.0540   28.9780   40.3500 H   0  0  0  0  0  0  0  0  0  0  0  0
   37.3900   28.4080   43.6410 C   0  0  0  0  0  0  0  0  0  0  0  0
   36.9190   27.1600   43.1790 C   0  0  0  0  0  0  0  0  0  0  0  0
   37.6470   26.5650   42.1450 C   0  0  0  0  0  0  0  0  0  0  0  0
   38.7380   27.2160   41.6590 N   0  0  0  0  0  0  0  0  0  0  0  0
   39.1440   28.4070   42.1380 C   0  0  0  0  0  0  0  0  0  0  0  0
   38.4770   28.9940   43.1170 N   0  0  0  0  0  0  0  0  0  0  0  0
   36.8520   28.9060   44.4470 H   0  0  0  0  0  0  0  0  0  0  0  0
   36.0440   26.7160   43.6200 H   0  0  0  0  0  0  0  0  0  0  0  0
   37.1450   25.2740   41.6810 C   0  0  0  0  0  0  0  0  0  0  0  0
   38.2260   24.4490   41.3620 F   0  0  0  0  0  0  0  0  0  0  0  0
   36.4890   25.5160   40.4890 F   0  0  0  0  0  0  0  0  0  0  0  0
   36.3770   24.6200   42.6020 F   0  0  0  0  0  0  0  0  0  0  0  0
   40.9790   30.0900   41.9790 C   0  0  0  0  0  0  0  0  0  0  0  0
   42.1050   29.9380   42.0310 H   0  0  0  0  0  0  0  0  0  0  0  0
   40.7240   30.1760   43.0910 H   0  0  0  0  0  0  0  0  0  0  0  0
   40.6550   31.3600   41.4340 N   0  0  0  0  0  0  0  0  0  0  0  0
   41.7270   32.2020   41.3230 C   0  0  0  0  0  0  0  0  0  0  0  0
   42.7860   32.1660   41.5610 H   0  0  0  0  0  0  0  0  0  0  0  0
   41.3790   33.3960   40.7690 N   0  0  0  0  0  0  0  0  0  0  0  0
   40.0640   33.3550   40.5080 C   0  0  0  0  0  0  0  0  0  0  0  0
   39.0570   34.1580   39.9850 C   0  0  0  0  0  0  0  0  0  0  0  0
   39.3740   35.1430   39.6540 H   0  0  0  0  0  0  0  0  0  0  0  0
   37.7920   33.7030   39.9130 N   0  0  0  0  0  0  0  0  0  0  0  0
   37.4330   32.4680   40.3340 C   0  0  0  0  0  0  0  0  0  0  0  0
   36.4050   32.1570   40.2530 H   0  0  0  0  0  0  0  0  0  0  0  0
   38.4160   31.7080   40.8350 N   0  0  0  0  0  0  0  0  0  0  0  0
   39.6750   32.1080   40.9280 C   0  0  0  0  0  0  0  0  0  0  0  0
  1 16  1  0  0  0  0
  1  8  1  0  0  0  0
  2  1  1  0  0  0  0
  3  1  1  0  0  0  0
  4 10  1  0  0  0  0
  5 11  1  0  0  0  0
  5  4  1  0  0  0  0
  6  5  2  0  0  0  0
  7  8  2  0  0  0  0
  7  6  1  0  0  0  0
  8  9  1  0  0  0  0
  9  4  2  0  0  0  0
 12  6  1  0  0  0  0
 12 15  1  0  0  0  0
 13 12  1  0  0  0  0
 14 12  1  0  0  0  0
 16 17  1  0  0  0  0
 16 18  1  0  0  0  0
 19 16  1  0  0  0  0
 20 19  1  0  0  0  0
 20 21  1  0  0  0  0
 22 20  2  0  0  0  0
 23 22  1  0  0  0  0
 23 30  1  0  0  0  0
 24 23  2  0  0  0  0
 25 24  1  0  0  0  0
 26 24  1  0  0  0  0
 26 27  2  0  0  0  0
 27 29  1  0  0  0  0
 28 27  1  0  0  0  0
 29 30  2  0  0  0  0
 30 19  1  0  0  0  0
M  END
>  <minimizedAffinity>
-5.10128689

$$$$

 OpenBabel03242515143D

 30 32  0  0  0  0  0  0  0  0999 V2000
   37.6230   29.6000   39.6890 C   0  0  0  0  0  0  0  0  0  0  0  0
   38.6230   29.4270   39.1860 H   0  0  0  0  0  0  0  0  0  0  0  0
   36.9360   28.9530   39.0730 H   0  0  0  0  0  0  0  0  0  0  0  0
   37.6550   28.8820   43.3440 C   0  0  0  0  0  0  0  0  0  0  0  0
   37.6580   27.4700   43.3320 C   0  0  0  0  0  0  0  0  0  0  0  0
   37.6510   26.8600   42.0750 C   0  0  0  0  0  0  0  0  0  0  0  0
   37.6390   27.6490   40.9680 N   0  0  0  0  0  0  0  0  0  0  0  0
   37.6370   28.9940   41.0370 C   0  0  0  0  0  0  0  0  0  0  0  0
   37.6440   29.6010   42.2110 N   0  0  0  0  0  0  0  0  0  0  0  0
   37.6610   29.3990   44.3040 H   0  0  0  0  0  0  0  0  0  0  0  0
   37.6670   26.9230   44.2580 H   0  0  0  0  0  0  0  0  0  0  0  0
   37.6560   25.3990   42.0830 C   0  0  0  0  0  0  0  0  0  0  0  0
   37.6890   24.9320   40.7670 F   0  0  0  0  0  0  0  0  0  0  0  0
   36.4320   25.0080   42.5930 F   0  0  0  0  0  0  0  0  0  0  0  0
   38.7200   24.8570   42.7470 F   0  0  0  0  0  0  0  0  0  0  0  0
   37.3010   31.0270   39.6290 C   0  0  0  0  0  0  0  0  0  0  0  0
   36.5290   31.2730   40.4280 H   0  0  0  0  0  0  0  0  0  0  0  0
   36.6980   31.2370   38.6790 H   0  0  0  0  0  0  0  0  0  0  0  0
   38.3490   31.9840   39.6130 N   0  0  0  0  0  0  0  0  0  0  0  0
   38.3010   32.8720   40.6520 C   0  0  0  0  0  0  0  0  0  0  0  0
   37.6500   33.0570   41.5010 H   0  0  0  0  0  0  0  0  0  0  0  0
   39.3390   33.7530   40.6150 N   0  0  0  0  0  0  0  0  0  0  0  0
   40.0870   33.4540   39.5420 C   0  0  0  0  0  0  0  0  0  0  0  0
   41.2310   33.8950   38.8870 C   0  0  0  0  0  0  0  0  0  0  0  0
   41.7310   34.7420   39.3450 H   0  0  0  0  0  0  0  0  0  0  0  0
   41.6510   33.2810   37.7640 N   0  0  0  0  0  0  0  0  0  0  0  0
   41.0020   32.2250   37.2210 C   0  0  0  0  0  0  0  0  0  0  0  0
   41.3840   31.7730   36.3200 H   0  0  0  0  0  0  0  0  0  0  0  0
   39.9030   31.8140   37.8660 N   0  0  0  0  0  0  0  0  0  0  0  0
   39.4480   32.3830   38.9720 C   0  0  0  0  0  0  0  0  0  0  0  0
  1  8  1  0  0  0  0
  2  1  1  0  0  0  0
  3  1  1  0  0  0  0
  4 10  1  0  0  0  0
  5  4  1  0  0  0  0
  5 11  1  0  0  0  0
  6 12  1  0  0  0  0
  6  5  2  0  0  0  0
  7  8  2  0  0  0  0
  7  6  1  0  0  0  0
  8  9  1  0  0  0  0
  9  4  2  0  0  0  0
 12 14  1  0  0  0  0
 12 15  1  0  0  0  0
 13 12  1  0  0  0  0
 16  1  1  0  0  0  0
 16 17  1  0  0  0  0
 18 16  1  0  0  0  0
 19 16  1  0  0  0  0
 19 20  1  0  0  0  0
 20 21  1  0  0  0  0
 22 20  2  0  0  0  0
 23 22  1  0  0  0  0
 24 25  1  0  0  0  0
 24 23  2  0  0  0  0
 26 24  1  0  0  0  0
 27 26  2  0  0  0  0
 27 29  1  0  0  0  0
 28 27  1  0  0  0  0
 29 30  2  0  0  0  0
 30 23  1  0  0  0  0
 30 19  1  0  0  0  0
M  END
>  <minimizedAffinity>
-5.07061291

$$$$

 OpenBabel03242515143D

 30 32  0  0  0  0  0  0  0  0999 V2000
   40.7130   29.6610   42.5030 C   0  0  0  0  0  0  0  0  0  0  0  0
   39.9930   30.4040   42.9630 H   0  0  0  0  0  0  0  0  0  0  0  0
   41.6500   29.8410   43.1040 H   0  0  0  0  0  0  0  0  0  0  0  0
   40.4560   26.0870   43.5190 C   0  0  0  0  0  0  0  0  0  0  0  0
   39.0750   25.8630   43.3360 C   0  0  0  0  0  0  0  0  0  0  0  0
   38.3250   26.9490   42.8770 C   0  0  0  0  0  0  0  0  0  0  0  0
   38.9620   28.1270   42.6420 N   0  0  0  0  0  0  0  0  0  0  0  0
   40.2850   28.2860   42.8340 C   0  0  0  0  0  0  0  0  0  0  0  0
   41.0220   27.2780   43.2660 N   0  0  0  0  0  0  0  0  0  0  0  0
   41.0790   25.2660   43.8760 H   0  0  0  0  0  0  0  0  0  0  0  0
   38.6520   24.8960   43.5470 H   0  0  0  0  0  0  0  0  0  0  0  0
   36.8980   26.6970   42.6920 C   0  0  0  0  0  0  0  0  0  0  0  0
   36.6750   25.3180   42.6630 F   0  0  0  0  0  0  0  0  0  0  0  0
   36.5810   27.1580   41.4280 F   0  0  0  0  0  0  0  0  0  0  0  0
   36.1140   27.2270   43.6770 F   0  0  0  0  0  0  0  0  0  0  0  0
   40.8610   29.9630   41.0780 C   0  0  0  0  0  0  0  0  0  0  0  0
   41.2380   29.0380   40.5340 H   0  0  0  0  0  0  0  0  0  0  0  0
   41.7480   30.6710   40.9330 H   0  0  0  0  0  0  0  0  0  0  0  0
   39.7910   30.5750   40.3740 N   0  0  0  0  0  0  0  0  0  0  0  0
   39.1280   29.7250   39.5320 C   0  0  0  0  0  0  0  0  0  0  0  0
   39.2120   28.6840   39.2350 H   0  0  0  0  0  0  0  0  0  0  0  0
   38.0920   30.3430   38.8990 N   0  0  0  0  0  0  0  0  0  0  0  0
   38.0610   31.6160   39.3200 C   0  0  0  0  0  0  0  0  0  0  0  0
   37.3360   32.7850   39.1200 C   0  0  0  0  0  0  0  0  0  0  0  0
   36.5120   32.7060   38.4190 H   0  0  0  0  0  0  0  0  0  0  0  0
   37.6710   33.9140   39.7750 N   0  0  0  0  0  0  0  0  0  0  0  0
   38.7060   33.9760   40.6440 C   0  0  0  0  0  0  0  0  0  0  0  0
   38.9280   34.9070   41.1400 H   0  0  0  0  0  0  0  0  0  0  0  0
   39.3930   32.8400   40.8250 N   0  0  0  0  0  0  0  0  0  0  0  0
   39.1050   31.7050   40.2060 C   0  0  0  0  0  0  0  0  0  0  0  0
  1  8  1  0  0  0  0
  1  2  1  0  0  0  0
  1  3  1  0  0  0  0
  4 10  1  0  0  0  0
  5  4  1  0  0  0  0
  5 11  1  0  0  0  0
  6  5  2  0  0  0  0
  7  8  2  0  0  0  0
  7  6  1  0  0  0  0
  8  9  1  0  0  0  0
  9  4  2  0  0  0  0
 12  6  1  0  0  0  0
 12 15  1  0  0  0  0
 13 12  1  0  0  0  0
 14 12  1  0  0  0  0
 16  1  1  0  0  0  0
 17 16  1  0  0  0  0
 18 16  1  0  0  0  0
 19 16  1  0  0  0  0
 20 19  1  0  0  0  0
 21 20  1  0  0  0  0
 22 23  1  0  0  0  0
 22 20  2  0  0  0  0
 23 30  1  0  0  0  0
 24 23  2  0  0  0  0
 24 26  1  0  0  0  0
 25 24  1  0  0  0  0
 26 27  2  0  0  0  0
 27 29  1  0  0  0  0
 27 28  1  0  0  0  0
 30 19  1  0  0  0  0
 30 29  2  0  0  0  0
M  END
>  <minimizedAffinity>
-4.9871788

$$$$

 OpenBabel03242515143D

 30 32  0  0  0  0  0  0  0  0999 V2000
   40.2900   28.7690   41.2920 C   0  0  0  0  0  0  0  0  0  0  0  0
   40.7840   29.6440   41.8120 H   0  0  0  0  0  0  0  0  0  0  0  0
   41.0640   27.9590   41.4120 H   0  0  0  0  0  0  0  0  0  0  0  0
   37.3780   28.4280   43.5900 C   0  0  0  0  0  0  0  0  0  0  0  0
   36.9930   27.0950   43.3270 C   0  0  0  0  0  0  0  0  0  0  0  0
   37.7560   26.4030   42.3820 C   0  0  0  0  0  0  0  0  0  0  0  0
   38.7970   27.0460   41.7890 N   0  0  0  0  0  0  0  0  0  0  0  0
   39.1210   28.3210   42.0790 C   0  0  0  0  0  0  0  0  0  0  0  0
   38.4200   29.0010   42.9680 N   0  0  0  0  0  0  0  0  0  0  0  0
   36.8100   29.0040   44.3210 H   0  0  0  0  0  0  0  0  0  0  0  0
   36.1530   26.6640   43.8430 H   0  0  0  0  0  0  0  0  0  0  0  0
   37.3440   25.0260   42.1240 C   0  0  0  0  0  0  0  0  0  0  0  0
   36.9500   24.9060   40.7900 F   0  0  0  0  0  0  0  0  0  0  0  0
   36.2030   24.8140   42.8760 F   0  0  0  0  0  0  0  0  0  0  0  0
   38.3260   24.1050   42.3550 F   0  0  0  0  0  0  0  0  0  0  0  0
   40.0260   29.1310   39.8990 C   0  0  0  0  0  0  0  0  0  0  0  0
   39.8010   28.1890   39.3010 H   0  0  0  0  0  0  0  0  0  0  0  0
   41.0030   29.4670   39.4060 H   0  0  0  0  0  0  0  0  0  0  0  0
   39.0970   30.1630   39.6040 N   0  0  0  0  0  0  0  0  0  0  0  0
   38.0370   29.7510   38.8450 C   0  0  0  0  0  0  0  0  0  0  0  0
   37.7130   28.8240   38.3800 H   0  0  0  0  0  0  0  0  0  0  0  0
   37.1560   30.7630   38.6100 N   0  0  0  0  0  0  0  0  0  0  0  0
   37.6310   31.8620   39.2160 C   0  0  0  0  0  0  0  0  0  0  0  0
   37.3050   33.2010   39.3970 C   0  0  0  0  0  0  0  0  0  0  0  0
   36.3770   33.5200   38.9330 H   0  0  0  0  0  0  0  0  0  0  0  0
   38.1170   34.0090   40.1060 N   0  0  0  0  0  0  0  0  0  0  0  0
   39.2670   33.5760   40.6710 C   0  0  0  0  0  0  0  0  0  0  0  0
   39.8790   34.2680   41.2280 H   0  0  0  0  0  0  0  0  0  0  0  0
   39.5650   32.2830   40.4870 N   0  0  0  0  0  0  0  0  0  0  0  0
   38.8010   31.4480   39.7980 C   0  0  0  0  0  0  0  0  0  0  0  0
  1  3  1  0  0  0  0
  1  2  1  0  0  0  0
  1  8  1  0  0  0  0
  4 10  1  0  0  0  0
  5  4  1  0  0  0  0
  5 11  1  0  0  0  0
  6  5  2  0  0  0  0
  7  8  2  0  0  0  0
  7  6  1  0  0  0  0
  8  9  1  0  0  0  0
  9  4  2  0  0  0  0
 12 15  1  0  0  0  0
 12  6  1  0  0  0  0
 12 14  1  0  0  0  0
 13 12  1  0  0  0  0
 16  1  1  0  0  0  0
 17 16  1  0  0  0  0
 18 16  1  0  0  0  0
 19 30  1  0  0  0  0
 19 16  1  0  0  0  0
 20 19  1  0  0  0  0
 21 20  1  0  0  0  0
 22 20  2  0  0  0  0
 22 23  1  0  0  0  0
 23 24  2  0  0  0  0
 23 30  1  0  0  0  0
 24 26  1  0  0  0  0
 25 24  1  0  0  0  0
 26 27  2  0  0  0  0
 27 28  1  0  0  0  0
 29 27  1  0  0  0  0
 30 29  2  0  0  0  0
M  END
>  <minimizedAffinity>
-4.98203516

$$$$

 OpenBabel03242515143D

 30 32  0  0  0  0  0  0  0  0999 V2000
   37.0320   27.7160   42.8950 C   0  0  0  0  0  0  0  0  0  0  0  0
   36.0770   27.8740   42.3080 H   0  0  0  0  0  0  0  0  0  0  0  0
   36.6440   27.5960   43.9460 H   0  0  0  0  0  0  0  0  0  0  0  0
   37.7120   24.1640   42.0030 C   0  0  0  0  0  0  0  0  0  0  0  0
   39.1190   24.1900   41.8830 C   0  0  0  0  0  0  0  0  0  0  0  0
   39.7390   25.4210   42.1170 C   0  0  0  0  0  0  0  0  0  0  0  0
   38.9630   26.4900   42.4350 N   0  0  0  0  0  0  0  0  0  0  0  0
   37.6230   26.4090   42.5370 C   0  0  0  0  0  0  0  0  0  0  0  0
   37.0070   25.2600   42.3230 N   0  0  0  0  0  0  0  0  0  0  0  0
   37.1880   23.2240   41.8300 H   0  0  0  0  0  0  0  0  0  0  0  0
   39.6550   23.2940   41.6250 H   0  0  0  0  0  0  0  0  0  0  0  0
   41.1940   25.4270   41.9890 C   0  0  0  0  0  0  0  0  0  0  0  0
   41.6500   26.7480   41.9940 F   0  0  0  0  0  0  0  0  0  0  0  0
   41.4780   24.9340   40.7290 F   0  0  0  0  0  0  0  0  0  0  0  0
   41.8370   24.7600   42.9930 F   0  0  0  0  0  0  0  0  0  0  0  0
   37.8980   28.8830   42.7150 C   0  0  0  0  0  0  0  0  0  0  0  0
   38.9700   28.5360   42.5590 H   0  0  0  0  0  0  0  0  0  0  0  0
   37.9960   29.4350   43.7140 H   0  0  0  0  0  0  0  0  0  0  0  0
   37.5400   29.8880   41.7790 N   0  0  0  0  0  0  0  0  0  0  0  0
   36.3070   29.7030   41.2170 C   0  0  0  0  0  0  0  0  0  0  0  0
   35.5120   28.9650   41.2840 H   0  0  0  0  0  0  0  0  0  0  0  0
   35.9890   30.7030   40.3490 N   0  0  0  0  0  0  0  0  0  0  0  0
   37.0190   31.5630   40.3280 C   0  0  0  0  0  0  0  0  0  0  0  0
   37.4030   32.7470   39.7080 C   0  0  0  0  0  0  0  0  0  0  0  0
   36.6790   33.1660   39.0160 H   0  0  0  0  0  0  0  0  0  0  0  0
   38.6010   33.2990   39.9800 N   0  0  0  0  0  0  0  0  0  0  0  0
   39.4800   32.7490   40.8500 C   0  0  0  0  0  0  0  0  0  0  0  0
   40.4260   33.2350   41.0280 H   0  0  0  0  0  0  0  0  0  0  0  0
   39.0930   31.6100   41.4370 N   0  0  0  0  0  0  0  0  0  0  0  0
   37.9260   31.0260   41.2050 C   0  0  0  0  0  0  0  0  0  0  0  0
  1  3  1  0  0  0  0
  2  1  1  0  0  0  0
  4  9  1  0  0  0  0
  5  4  2  0  0  0  0
  5  6  1  0  0  0  0
  6  7  2  0  0  0  0
  7  8  1  0  0  0  0
  8  1  1  0  0  0  0
  9  8  2  0  0  0  0
 10  4  1  0  0  0  0
 11  5  1  0  0  0  0
 12 13  1  0  0  0  0
 12  6  1  0  0  0  0
 12 15  1  0  0  0  0
 14 12  1  0  0  0  0
 16  1  1  0  0  0  0
 16 18  1  0  0  0  0
 17 16  1  0  0  0  0
 19 16  1  0  0  0  0
 20 21  1  0  0  0  0
 20 19  1  0  0  0  0
 22 20  2  0  0  0  0
 23 22  1  0  0  0  0
 23 30  1  0  0  0  0
 24 26  1  0  0  0  0
 24 23  2  0  0  0  0
 25 24  1  0  0  0  0
 26 27  2  0  0  0  0
 27 28  1  0  0  0  0
 27 29  1  0  0  0  0
 30 29  2  0  0  0  0
 30 19  1  0  0  0  0
M  END
>  <minimizedAffinity>
-4.9788866

$$$$
