
 OpenBabel03252501503D

 48 52  0  0  1  0  0  0  0  0999 V2000
   48.2700   34.9440   42.1110 C   0  0  0  0  0  0  0  0  0  0  0  0
   48.1690   34.5910   43.1600 H   0  0  0  0  0  0  0  0  0  0  0  0
   48.4480   36.0220   42.1380 H   0  0  0  0  0  0  0  0  0  0  0  0
   49.3350   34.1910   41.5000 N   0  0  0  0  0  0  0  0  0  0  0  0
   50.2890   33.7840   42.4720 C   0  0  0  0  0  0  0  0  0  0  0  0
   50.8100   32.4310   42.0840 C   0  0  0  0  0  0  0  0  0  0  0  0
   49.7490   31.9030   41.1770 C   0  0  0  0  0  0  0  0  0  0  0  0
   48.8160   33.0260   40.8670 C   0  0  2  0  0  0  0  0  0  0  0  0
   49.7990   33.6570   43.4760 H   0  0  0  0  0  0  0  0  0  0  0  0
   51.0960   34.5490   42.5900 H   0  0  0  0  0  0  0  0  0  0  0  0
   51.7980   32.5840   41.5960 H   0  0  0  0  0  0  0  0  0  0  0  0
   50.9730   31.7610   42.9510 H   0  0  0  0  0  0  0  0  0  0  0  0
   49.2470   30.9750   41.5360 H   0  0  0  0  0  0  0  0  0  0  0  0
   50.2490   31.6030   40.2160 H   0  0  0  0  0  0  0  0  0  0  0  0
   47.8540   32.7690   41.3570 H   0  0  0  0  0  0  0  0  0  0  0  0
   48.5480   33.1660   39.4550 N   0  0  0  0  0  0  0  0  0  0  0  0
   47.6500   34.0410   38.9520 C   0  0  0  0  0  0  0  0  0  0  0  0
   47.0100   34.7530   39.4870 H   0  0  0  0  0  0  0  0  0  0  0  0
   47.6390   33.9200   37.6100 N   0  0  0  0  0  0  0  0  0  0  0  0
   48.5140   32.9860   37.2750 C   0  0  0  0  0  0  0  0  0  0  0  0
   48.9820   32.3880   36.1110 C   0  0  0  0  0  0  0  0  0  0  0  0
   48.5640   32.7250   35.1590 H   0  0  0  0  0  0  0  0  0  0  0  0
   49.9090   31.4270   36.0470 N   0  0  0  0  0  0  0  0  0  0  0  0
   50.4530   30.9790   37.1900 C   0  0  0  0  0  0  0  0  0  0  0  0
   51.2050   30.2210   37.3570 H   0  0  0  0  0  0  0  0  0  0  0  0
   50.0570   31.5050   38.3860 N   0  0  0  0  0  0  0  0  0  0  0  0
   49.1100   32.4840   38.4130 C   0  0  0  0  0  0  0  0  0  0  0  0
   45.8100   35.0030   42.0880 C   0  0  0  0  0  0  0  0  0  0  0  0
   46.9430   34.6620   41.4500 C   0  0  0  0  0  0  0  0  0  0  0  0
   44.1690   33.5450   40.7780 C   0  0  0  0  0  0  0  0  0  0  0  0
   44.4910   34.7390   41.4600 C   0  0  0  0  0  0  0  0  0  0  0  0
   43.5110   35.7540   41.5600 C   0  0  0  0  0  0  0  0  0  0  0  0
   42.3030   35.5230   40.9880 N   0  0  0  0  0  0  0  0  0  0  0  0
   42.0390   34.3870   40.3540 C   0  0  0  0  0  0  0  0  0  0  0  0
   42.9690   33.4270   40.2620 N   0  0  0  0  0  0  0  0  0  0  0  0
   44.9670   32.8250   40.7470 H   0  0  0  0  0  0  0  0  0  0  0  0
   43.6890   36.6750   42.0590 H   0  0  0  0  0  0  0  0  0  0  0  0
   39.8130   33.7280   41.8570 F   0  0  0  0  0  0  0  0  0  0  0  0
   39.6270   33.8580   40.5300 C   0  0  0  0  0  0  0  0  0  0  0  0
   40.7190   34.1880   39.7530 C   0  0  0  0  0  0  0  0  0  0  0  0
   40.6230   34.3440   38.3680 C   0  0  0  0  0  0  0  0  0  0  0  0
   39.3710   34.1560   37.7880 C   0  0  0  0  0  0  0  0  0  0  0  0
   38.2460   33.8200   38.5690 C   0  0  0  0  0  0  0  0  0  0  0  0
   38.3910   33.6740   39.9410 C   0  0  0  0  0  0  0  0  0  0  0  0
   41.4650   34.6010   37.7440 H   0  0  0  0  0  0  0  0  0  0  0  0
   39.2290   34.2630   36.7250 H   0  0  0  0  0  0  0  0  0  0  0  0
   37.2810   33.6780   38.1000 H   0  0  0  0  0  0  0  0  0  0  0  0
   37.5470   33.4210   40.5430 H   0  0  0  0  0  0  0  0  0  0  0  0
  1  3  1  0  0  0  0
  1  2  1  0  0  0  0
  4  1  1  0  0  0  0
  4  5  1  0  0  0  0
  5 10  1  0  0  0  0
  5  9  1  0  0  0  0
  6  5  1  0  0  0  0
  6 12  1  0  0  0  0
  7 13  1  0  0  0  0
  7  6  1  0  0  0  0
  8  7  1  0  0  0  0
  8 15  1  1  0  0  0
  8  4  1  0  0  0  0
 11  6  1  0  0  0  0
 14  7  1  0  0  0  0
 16  8  1  0  0  0  0
 17 16  1  0  0  0  0
 17 18  1  0  0  0  0
 19 17  2  0  0  0  0
 20 19  1  0  0  0  0
 20 27  1  0  0  0  0
 21 20  2  0  0  0  0
 22 21  1  0  0  0  0
 23 21  1  0  0  0  0
 23 24  2  0  0  0  0
 24 25  1  0  0  0  0
 24 26  1  0  0  0  0
 26 27  2  0  0  0  0
 27 16  1  0  0  0  0
 29 28  2  0  0  0  0
 29  1  1  0  0  0  0
 30 31  1  0  0  0  0
 31 32  2  0  0  0  0
 31 28  1  0  0  0  0
 32 37  1  0  0  0  0
 33 32  1  0  0  0  0
 34 33  2  0  0  0  0
 35 34  1  0  0  0  0
 35 30  2  0  0  0  0
 36 30  1  0  0  0  0
 39 38  1  0  0  0  0
 40 34  1  0  0  0  0
 40 39  2  0  0  0  0
 41 40  1  0  0  0  0
 42 41  2  0  0  0  0
 42 43  1  0  0  0  0
 43 44  2  0  0  0  0
 44 39  1  0  0  0  0
 44 48  1  0  0  0  0
 45 41  1  0  0  0  0
 46 42  1  0  0  0  0
 47 43  1  0  0  0  0
M  END
>  <minimizedAffinity>
-6.98812246

>  <minimizedRMSD>
0.241655976

$$$$
