
 OpenBabel03242521503D

 23 25  0  0  0  0  0  0  0  0999 V2000
   35.3440   28.8890   40.5760 C   0  0  0  0  0  0  0  0  0  0  0  0
   35.5350   30.2670   40.3640 C   0  0  0  0  0  0  0  0  0  0  0  0
   36.7330   30.8490   40.8130 C   0  0  0  0  0  0  0  0  0  0  0  0
   37.6200   30.0330   41.4210 N   0  0  0  0  0  0  0  0  0  0  0  0
   37.4130   28.7200   41.6110 C   0  0  0  0  0  0  0  0  0  0  0  0
   36.2800   28.1600   41.1890 N   0  0  0  0  0  0  0  0  0  0  0  0
   34.4350   28.4270   40.2410 H   0  0  0  0  0  0  0  0  0  0  0  0
   34.7840   30.8950   39.8630 H   0  0  0  0  0  0  0  0  0  0  0  0
   38.5170   28.1020   42.2800 N   0  0  0  0  0  0  0  0  0  0  0  0
   39.5520   28.7130   42.8850 C   0  0  0  0  0  0  0  0  0  0  0  0
   39.6380   29.7950   42.9180 H   0  0  0  0  0  0  0  0  0  0  0  0
   40.4000   27.8090   43.4060 N   0  0  0  0  0  0  0  0  0  0  0  0
   39.8960   26.5950   43.1260 C   0  0  0  0  0  0  0  0  0  0  0  0
   40.4220   25.3640   43.4620 C   0  0  0  0  0  0  0  0  0  0  0  0
   41.3480   25.2850   44.0150 H   0  0  0  0  0  0  0  0  0  0  0  0
   39.6910   24.2980   43.0450 N   0  0  0  0  0  0  0  0  0  0  0  0
   38.5360   24.4510   42.3540 C   0  0  0  0  0  0  0  0  0  0  0  0
   38.0420   23.5050   42.0770 H   0  0  0  0  0  0  0  0  0  0  0  0
   38.0230   25.6630   42.0280 N   0  0  0  0  0  0  0  0  0  0  0  0
   38.7070   26.7570   42.4160 C   0  0  0  0  0  0  0  0  0  0  0  0
   36.9450   32.2210   40.6120 N   0  0  0  0  0  0  0  0  0  0  0  0
   36.8530   33.0530   41.2680 H   0  0  0  0  0  0  0  0  0  0  0  0
   37.2360   32.3040   39.6190 H   0  0  0  0  0  0  0  0  0  0  0  0
  1  6  1  0  0  0  0
  2  1  2  0  0  0  0
  2  3  1  0  0  0  0
  3  4  2  0  0  0  0
  4  5  1  0  0  0  0
  5  9  1  0  0  0  0
  6  5  2  0  0  0  0
  7  1  1  0  0  0  0
  8  2  1  0  0  0  0
  9 20  1  0  0  0  0
  9 10  1  0  0  0  0
 10 11  1  0  0  0  0
 10 12  2  0  0  0  0
 13 12  1  0  0  0  0
 13 14  1  0  0  0  0
 14 15  1  0  0  0  0
 16 14  2  0  0  0  0
 17 16  1  0  0  0  0
 18 17  1  0  0  0  0
 19 17  2  0  0  0  0
 19 20  1  0  0  0  0
 20 13  2  0  0  0  0
 21  3  1  0  0  0  0
 21 22  1  0  0  0  0
 23 21  1  0  0  0  0
M  END
>  <minimizedAffinity>
-5.1747818

$$$$

 OpenBabel03242521503D

 23 25  0  0  0  0  0  0  0  0999 V2000
   41.1780   27.1710   43.5810 C   0  0  0  0  0  0  0  0  0  0  0  0
   40.9950   25.7790   43.6760 C   0  0  0  0  0  0  0  0  0  0  0  0
   39.7790   25.2360   43.2270 C   0  0  0  0  0  0  0  0  0  0  0  0
   38.8680   26.1010   42.7310 N   0  0  0  0  0  0  0  0  0  0  0  0
   39.0680   27.4260   42.6510 C   0  0  0  0  0  0  0  0  0  0  0  0
   40.2170   27.9490   43.0750 N   0  0  0  0  0  0  0  0  0  0  0  0
   42.1000   27.6040   43.9190 H   0  0  0  0  0  0  0  0  0  0  0  0
   41.7650   25.1110   44.0870 H   0  0  0  0  0  0  0  0  0  0  0  0
   37.9370   28.0980   42.0870 N   0  0  0  0  0  0  0  0  0  0  0  0
   36.7130   27.5890   41.8620 C   0  0  0  0  0  0  0  0  0  0  0  0
   36.4650   26.5610   42.1080 H   0  0  0  0  0  0  0  0  0  0  0  0
   35.9040   28.5170   41.3180 N   0  0  0  0  0  0  0  0  0  0  0  0
   36.6300   29.6400   41.1920 C   0  0  0  0  0  0  0  0  0  0  0  0
   36.2220   30.8560   40.6830 C   0  0  0  0  0  0  0  0  0  0  0  0
   35.2120   31.0010   40.3230 H   0  0  0  0  0  0  0  0  0  0  0  0
   37.1760   31.8230   40.6800 N   0  0  0  0  0  0  0  0  0  0  0  0
   38.4280   31.5920   41.1440 C   0  0  0  0  0  0  0  0  0  0  0  0
   39.1030   32.4610   41.0840 H   0  0  0  0  0  0  0  0  0  0  0  0
   38.8220   30.3950   41.6440 N   0  0  0  0  0  0  0  0  0  0  0  0
   37.9160   29.3990   41.6710 C   0  0  0  0  0  0  0  0  0  0  0  0
   39.5740   23.8510   43.3120 N   0  0  0  0  0  0  0  0  0  0  0  0
   39.0320   23.2590   44.0080 H   0  0  0  0  0  0  0  0  0  0  0  0
   40.0910   23.4540   42.5030 H   0  0  0  0  0  0  0  0  0  0  0  0
  1  2  1  0  0  0  0
  1  7  1  0  0  0  0
  2  8  1  0  0  0  0
  3 21  1  0  0  0  0
  3  2  2  0  0  0  0
  4  3  1  0  0  0  0
  5  4  2  0  0  0  0
  5  6  1  0  0  0  0
  6  1  2  0  0  0  0
  9  5  1  0  0  0  0
 10  9  1  0  0  0  0
 10 11  1  0  0  0  0
 12 10  2  0  0  0  0
 13 12  1  0  0  0  0
 13 20  1  0  0  0  0
 14 13  2  0  0  0  0
 15 14  1  0  0  0  0
 16 14  1  0  0  0  0
 16 17  2  0  0  0  0
 17 19  1  0  0  0  0
 18 17  1  0  0  0  0
 19 20  2  0  0  0  0
 20  9  1  0  0  0  0
 21 22  1  0  0  0  0
 23 21  1  0  0  0  0
M  END
>  <minimizedAffinity>
-5.10427427

$$$$

 OpenBabel03242521503D

 23 25  0  0  0  0  0  0  0  0999 V2000
   40.0720   32.6640   40.6600 C   0  0  0  0  0  0  0  0  0  0  0  0
   39.1870   33.6030   40.0960 C   0  0  0  0  0  0  0  0  0  0  0  0
   37.8370   33.2420   39.9520 C   0  0  0  0  0  0  0  0  0  0  0  0
   37.4850   32.0070   40.3710 N   0  0  0  0  0  0  0  0  0  0  0  0
   38.3490   31.1290   40.9060 C   0  0  0  0  0  0  0  0  0  0  0  0
   39.6310   31.4630   41.0450 N   0  0  0  0  0  0  0  0  0  0  0  0
   41.1070   32.9220   40.7760 H   0  0  0  0  0  0  0  0  0  0  0  0
   39.5170   34.5990   39.7680 H   0  0  0  0  0  0  0  0  0  0  0  0
   37.7050   29.9010   41.2590 N   0  0  0  0  0  0  0  0  0  0  0  0
   36.4660   29.5020   40.9210 C   0  0  0  0  0  0  0  0  0  0  0  0
   35.8110   30.1180   40.3120 H   0  0  0  0  0  0  0  0  0  0  0  0
   36.2000   28.2880   41.4350 N   0  0  0  0  0  0  0  0  0  0  0  0
   37.2940   27.9050   42.1160 C   0  0  0  0  0  0  0  0  0  0  0  0
   37.4860   26.7290   42.8110 C   0  0  0  0  0  0  0  0  0  0  0  0
   36.7120   25.9750   42.8600 H   0  0  0  0  0  0  0  0  0  0  0  0
   38.7010   26.6110   43.4070 N   0  0  0  0  0  0  0  0  0  0  0  0
   39.6390   27.5840   43.3160 C   0  0  0  0  0  0  0  0  0  0  0  0
   40.5790   27.3620   43.8450 H   0  0  0  0  0  0  0  0  0  0  0  0
   39.4430   28.7370   42.6300 N   0  0  0  0  0  0  0  0  0  0  0  0
   38.2560   28.9090   42.0180 C   0  0  0  0  0  0  0  0  0  0  0  0
   36.9380   34.1610   39.3940 N   0  0  0  0  0  0  0  0  0  0  0  0
   36.5250   34.2420   38.4170 H   0  0  0  0  0  0  0  0  0  0  0  0
   36.7160   34.8210   40.1650 H   0  0  0  0  0  0  0  0  0  0  0  0
  1  7  1  0  0  0  0
  1  6  1  0  0  0  0
  2  1  2  0  0  0  0
  3  2  1  0  0  0  0
  3  4  2  0  0  0  0
  4  5  1  0  0  0  0
  5  6  2  0  0  0  0
  5  9  1  0  0  0  0
  8  2  1  0  0  0  0
  9 20  1  0  0  0  0
 10  9  1  0  0  0  0
 10 12  2  0  0  0  0
 11 10  1  0  0  0  0
 12 13  1  0  0  0  0
 13 14  1  0  0  0  0
 14 15  1  0  0  0  0
 14 16  2  0  0  0  0
 17 16  1  0  0  0  0
 17 18  1  0  0  0  0
 19 17  2  0  0  0  0
 20 13  2  0  0  0  0
 20 19  1  0  0  0  0
 21  3  1  0  0  0  0
 21 23  1  0  0  0  0
 22 21  1  0  0  0  0
M  END
>  <minimizedAffinity>
-5.06109571

$$$$

 OpenBabel03242521503D

 23 25  0  0  0  0  0  0  0  0999 V2000
   37.0090   31.8070   38.8490 C   0  0  0  0  0  0  0  0  0  0  0  0
   37.6210   32.9500   39.3970 C   0  0  0  0  0  0  0  0  0  0  0  0
   38.2390   32.8360   40.6540 C   0  0  0  0  0  0  0  0  0  0  0  0
   38.1990   31.6240   41.2490 N   0  0  0  0  0  0  0  0  0  0  0  0
   37.6080   30.5490   40.7050 C   0  0  0  0  0  0  0  0  0  0  0  0
   37.0190   30.6480   39.5140 N   0  0  0  0  0  0  0  0  0  0  0  0
   36.5320   31.8740   37.8910 H   0  0  0  0  0  0  0  0  0  0  0  0
   37.6300   33.9180   38.8760 H   0  0  0  0  0  0  0  0  0  0  0  0
   37.7160   29.4010   41.5530 N   0  0  0  0  0  0  0  0  0  0  0  0
   38.1230   29.3670   42.8340 C   0  0  0  0  0  0  0  0  0  0  0  0
   38.4200   30.2670   43.3650 H   0  0  0  0  0  0  0  0  0  0  0  0
   38.0970   28.1090   43.3090 N   0  0  0  0  0  0  0  0  0  0  0  0
   37.6650   27.3240   42.3080 C   0  0  0  0  0  0  0  0  0  0  0  0
   37.4780   25.9560   42.3280 C   0  0  0  0  0  0  0  0  0  0  0  0
   37.6810   25.3780   43.2190 H   0  0  0  0  0  0  0  0  0  0  0  0
   37.0290   25.4250   41.1620 N   0  0  0  0  0  0  0  0  0  0  0  0
   36.7890   26.1930   40.0720 C   0  0  0  0  0  0  0  0  0  0  0  0
   36.4280   25.6370   39.1920 H   0  0  0  0  0  0  0  0  0  0  0  0
   36.9740   27.5370   40.0590 N   0  0  0  0  0  0  0  0  0  0  0  0
   37.4190   28.1180   41.1900 C   0  0  0  0  0  0  0  0  0  0  0  0
   38.8550   33.9620   41.2180 N   0  0  0  0  0  0  0  0  0  0  0  0
   38.5330   34.6420   41.9700 H   0  0  0  0  0  0  0  0  0  0  0  0
   39.7720   34.0360   40.7360 H   0  0  0  0  0  0  0  0  0  0  0  0
  1  2  2  0  0  0  0
  1  6  1  0  0  0  0
  2  3  1  0  0  0  0
  3 21  1  0  0  0  0
  3  4  2  0  0  0  0
  5  4  1  0  0  0  0
  5  9  1  0  0  0  0
  6  5  2  0  0  0  0
  7  1  1  0  0  0  0
  8  2  1  0  0  0  0
  9 10  1  0  0  0  0
 10 12  2  0  0  0  0
 10 11  1  0  0  0  0
 13 14  1  0  0  0  0
 13 12  1  0  0  0  0
 14 15  1  0  0  0  0
 16 14  2  0  0  0  0
 17 16  1  0  0  0  0
 18 17  1  0  0  0  0
 19 17  2  0  0  0  0
 19 20  1  0  0  0  0
 20  9  1  0  0  0  0
 20 13  2  0  0  0  0
 21 22  1  0  0  0  0
 23 21  1  0  0  0  0
M  END
>  <minimizedAffinity>
-4.98015261

$$$$

 OpenBabel03242521503D

 23 25  0  0  0  0  0  0  0  0999 V2000
   42.0240   30.5200   37.3020 C   0  0  0  0  0  0  0  0  0  0  0  0
   42.5860   31.7390   36.8800 C   0  0  0  0  0  0  0  0  0  0  0  0
   41.9310   32.9310   37.2330 C   0  0  0  0  0  0  0  0  0  0  0  0
   40.7990   32.8160   37.9600 N   0  0  0  0  0  0  0  0  0  0  0  0
   40.2830   31.6390   38.3510 C   0  0  0  0  0  0  0  0  0  0  0  0
   40.8970   30.5040   38.0200 N   0  0  0  0  0  0  0  0  0  0  0  0
   42.5090   29.5990   37.0420 H   0  0  0  0  0  0  0  0  0  0  0  0
   43.5110   31.7860   36.2880 H   0  0  0  0  0  0  0  0  0  0  0  0
   39.0810   31.8140   39.1070 N   0  0  0  0  0  0  0  0  0  0  0  0
   38.3630   32.9430   39.2510 C   0  0  0  0  0  0  0  0  0  0  0  0
   38.6560   33.8730   38.7740 H   0  0  0  0  0  0  0  0  0  0  0  0
   37.2920   32.7290   40.0370 N   0  0  0  0  0  0  0  0  0  0  0  0
   37.3280   31.4360   40.4010 C   0  0  0  0  0  0  0  0  0  0  0  0
   36.4340   30.7600   41.2060 C   0  0  0  0  0  0  0  0  0  0  0  0
   35.5750   31.2630   41.6310 H   0  0  0  0  0  0  0  0  0  0  0  0
   36.7230   29.4490   41.4050 N   0  0  0  0  0  0  0  0  0  0  0  0
   37.8120   28.8650   40.8480 C   0  0  0  0  0  0  0  0  0  0  0  0
   37.9300   27.7960   41.0900 H   0  0  0  0  0  0  0  0  0  0  0  0
   38.6870   29.5350   40.0570 N   0  0  0  0  0  0  0  0  0  0  0  0
   38.4490   30.8400   39.8260 C   0  0  0  0  0  0  0  0  0  0  0  0
   42.4730   34.1570   36.8230 N   0  0  0  0  0  0  0  0  0  0  0  0
   42.2150   34.8130   36.0260 H   0  0  0  0  0  0  0  0  0  0  0  0
   43.2470   34.3440   37.4900 H   0  0  0  0  0  0  0  0  0  0  0  0
  1  6  1  0  0  0  0
  2  3  1  0  0  0  0
  2  1  2  0  0  0  0
  3  4  2  0  0  0  0
  4  5  1  0  0  0  0
  5  9  1  0  0  0  0
  6  5  2  0  0  0  0
  7  1  1  0  0  0  0
  8  2  1  0  0  0  0
  9 10  1  0  0  0  0
  9 20  1  0  0  0  0
 10 12  2  0  0  0  0
 11 10  1  0  0  0  0
 12 13  1  0  0  0  0
 13 14  1  0  0  0  0
 14 16  2  0  0  0  0
 14 15  1  0  0  0  0
 17 18  1  0  0  0  0
 17 16  1  0  0  0  0
 19 17  2  0  0  0  0
 20 19  1  0  0  0  0
 20 13  2  0  0  0  0
 21  3  1  0  0  0  0
 21 23  1  0  0  0  0
 22 21  1  0  0  0  0
M  END
>  <minimizedAffinity>
-4.86258936

$$$$

 OpenBabel03242521503D

 23 25  0  0  0  0  0  0  0  0999 V2000
   37.3200   30.3630   38.0160 C   0  0  0  0  0  0  0  0  0  0  0  0
   36.3530   30.3080   39.0370 C   0  0  0  0  0  0  0  0  0  0  0  0
   36.6290   30.9600   40.2510 C   0  0  0  0  0  0  0  0  0  0  0  0
   37.8160   31.5970   40.3480 N   0  0  0  0  0  0  0  0  0  0  0  0
   38.7220   31.6350   39.3580 C   0  0  0  0  0  0  0  0  0  0  0  0
   38.4680   31.0190   38.2040 N   0  0  0  0  0  0  0  0  0  0  0  0
   37.1270   29.8720   37.0830 H   0  0  0  0  0  0  0  0  0  0  0  0
   35.3980   29.7770   38.9150 H   0  0  0  0  0  0  0  0  0  0  0  0
   39.8860   32.3780   39.7350 N   0  0  0  0  0  0  0  0  0  0  0  0
   40.2170   32.8090   40.9650 C   0  0  0  0  0  0  0  0  0  0  0  0
   39.5890   32.6140   41.8290 H   0  0  0  0  0  0  0  0  0  0  0  0
   41.3850   33.4760   40.9370 N   0  0  0  0  0  0  0  0  0  0  0  0
   41.8060   33.4710   39.6610 C   0  0  0  0  0  0  0  0  0  0  0  0
   42.9570   34.0350   39.1500 C   0  0  0  0  0  0  0  0  0  0  0  0
   43.6540   34.5590   39.7890 H   0  0  0  0  0  0  0  0  0  0  0  0
   43.1270   33.8710   37.8120 N   0  0  0  0  0  0  0  0  0  0  0  0
   42.2250   33.2040   37.0540 C   0  0  0  0  0  0  0  0  0  0  0  0
   42.4830   33.1440   35.9840 H   0  0  0  0  0  0  0  0  0  0  0  0
   41.0950   32.6520   37.5630 N   0  0  0  0  0  0  0  0  0  0  0  0
   40.8750   32.7830   38.8850 C   0  0  0  0  0  0  0  0  0  0  0  0
   35.6800   30.9180   41.2820 N   0  0  0  0  0  0  0  0  0  0  0  0
   35.6200   30.3270   42.1640 H   0  0  0  0  0  0  0  0  0  0  0  0
   34.9700   31.6300   41.0220 H   0  0  0  0  0  0  0  0  0  0  0  0
  1  6  2  0  0  0  0
  1  2  1  0  0  0  0
  2  3  2  0  0  0  0
  3  4  1  0  0  0  0
  3 21  1  0  0  0  0
  5  9  1  0  0  0  0
  5  4  2  0  0  0  0
  6  5  1  0  0  0  0
  7  1  1  0  0  0  0
  8  2  1  0  0  0  0
  9 10  1  0  0  0  0
 10 11  1  0  0  0  0
 12 10  2  0  0  0  0
 13 12  1  0  0  0  0
 14 13  1  0  0  0  0
 14 15  1  0  0  0  0
 16 14  2  0  0  0  0
 17 19  2  0  0  0  0
 17 16  1  0  0  0  0
 18 17  1  0  0  0  0
 19 20  1  0  0  0  0
 20 13  2  0  0  0  0
 20  9  1  0  0  0  0
 21 22  1  0  0  0  0
 23 21  1  0  0  0  0
M  END
>  <minimizedAffinity>
-4.76826239

$$$$

 OpenBabel03242521503D

 23 25  0  0  0  0  0  0  0  0999 V2000
   37.9450   30.4310   38.0340 C   0  0  0  0  0  0  0  0  0  0  0  0
   37.4980   31.7390   38.2970 C   0  0  0  0  0  0  0  0  0  0  0  0
   37.2920   32.1170   39.6340 C   0  0  0  0  0  0  0  0  0  0  0  0
   37.5420   31.1840   40.5790 N   0  0  0  0  0  0  0  0  0  0  0  0
   37.9680   29.9410   40.3020 C   0  0  0  0  0  0  0  0  0  0  0  0
   38.1650   29.5750   39.0370 N   0  0  0  0  0  0  0  0  0  0  0  0
   38.1070   30.1240   37.0190 H   0  0  0  0  0  0  0  0  0  0  0  0
   37.3070   32.4670   37.4950 H   0  0  0  0  0  0  0  0  0  0  0  0
   38.1490   29.1670   41.4920 N   0  0  0  0  0  0  0  0  0  0  0  0
   37.7470   29.4780   42.7380 C   0  0  0  0  0  0  0  0  0  0  0  0
   37.2160   30.3990   42.9560 H   0  0  0  0  0  0  0  0  0  0  0  0
   38.0950   28.5100   43.6050 N   0  0  0  0  0  0  0  0  0  0  0  0
   38.7330   27.5630   42.8970 C   0  0  0  0  0  0  0  0  0  0  0  0
   39.2710   26.3800   43.3610 C   0  0  0  0  0  0  0  0  0  0  0  0
   39.2110   26.1120   44.4080 H   0  0  0  0  0  0  0  0  0  0  0  0
   39.8610   25.6090   42.4120 N   0  0  0  0  0  0  0  0  0  0  0  0
   39.9090   25.9890   41.1120 C   0  0  0  0  0  0  0  0  0  0  0  0
   40.4160   25.2730   40.4460 H   0  0  0  0  0  0  0  0  0  0  0  0
   39.3770   27.1530   40.6620 N   0  0  0  0  0  0  0  0  0  0  0  0
   38.7790   27.9570   41.5610 C   0  0  0  0  0  0  0  0  0  0  0  0
   36.8480   33.4150   39.9190 N   0  0  0  0  0  0  0  0  0  0  0  0
   35.8850   33.7950   40.1630 H   0  0  0  0  0  0  0  0  0  0  0  0
   37.6950   34.0110   39.8450 H   0  0  0  0  0  0  0  0  0  0  0  0
  1  2  2  0  0  0  0
  1  6  1  0  0  0  0
  2  3  1  0  0  0  0
  3 21  1  0  0  0  0
  3  4  2  0  0  0  0
  5  4  1  0  0  0  0
  5  9  1  0  0  0  0
  6  5  2  0  0  0  0
  7  1  1  0  0  0  0
  8  2  1  0  0  0  0
  9 20  1  0  0  0  0
  9 10  1  0  0  0  0
 10 11  1  0  0  0  0
 10 12  2  0  0  0  0
 13 14  1  0  0  0  0
 13 12  1  0  0  0  0
 14 15  1  0  0  0  0
 16 14  2  0  0  0  0
 17 16  1  0  0  0  0
 18 17  1  0  0  0  0
 19 17  2  0  0  0  0
 19 20  1  0  0  0  0
 20 13  2  0  0  0  0
 21 22  1  0  0  0  0
 23 21  1  0  0  0  0
M  END
>  <minimizedAffinity>
-4.71852112

$$$$

 OpenBabel03242521503D

 23 25  0  0  0  0  0  0  0  0999 V2000
   39.9950   27.8450   43.2260 C   0  0  0  0  0  0  0  0  0  0  0  0
   39.1140   26.7470   43.2170 C   0  0  0  0  0  0  0  0  0  0  0  0
   37.8650   26.9020   42.5920 C   0  0  0  0  0  0  0  0  0  0  0  0
   37.6010   28.1060   42.0400 N   0  0  0  0  0  0  0  0  0  0  0  0
   38.4590   29.1380   42.0630 C   0  0  0  0  0  0  0  0  0  0  0  0
   39.6450   29.0010   42.6540 N   0  0  0  0  0  0  0  0  0  0  0  0
   40.9530   27.7460   43.7000 H   0  0  0  0  0  0  0  0  0  0  0  0
   39.3710   25.7830   43.6790 H   0  0  0  0  0  0  0  0  0  0  0  0
   37.9190   30.2890   41.4060 N   0  0  0  0  0  0  0  0  0  0  0  0
   36.6500   30.4800   41.0040 C   0  0  0  0  0  0  0  0  0  0  0  0
   35.8810   29.7290   41.1570 H   0  0  0  0  0  0  0  0  0  0  0  0
   36.5110   31.6850   40.4210 N   0  0  0  0  0  0  0  0  0  0  0  0
   37.7190   32.2730   40.4510 C   0  0  0  0  0  0  0  0  0  0  0  0
   38.0630   33.5190   39.9680 C   0  0  0  0  0  0  0  0  0  0  0  0
   37.3280   34.1580   39.4960 H   0  0  0  0  0  0  0  0  0  0  0  0
   39.3680   33.8570   40.1370 N   0  0  0  0  0  0  0  0  0  0  0  0
   40.2500   33.0210   40.7360 C   0  0  0  0  0  0  0  0  0  0  0  0
   41.2750   33.4170   40.8100 H   0  0  0  0  0  0  0  0  0  0  0  0
   39.9050   31.7970   41.2090 N   0  0  0  0  0  0  0  0  0  0  0  0
   38.6230   31.4100   41.0680 C   0  0  0  0  0  0  0  0  0  0  0  0
   36.9720   25.8210   42.5700 N   0  0  0  0  0  0  0  0  0  0  0  0
   36.1150   25.6010   43.1600 H   0  0  0  0  0  0  0  0  0  0  0  0
   37.3160   25.2050   41.8090 H   0  0  0  0  0  0  0  0  0  0  0  0
  1  7  1  0  0  0  0
  2  1  1  0  0  0  0
  2  8  1  0  0  0  0
  3  2  2  0  0  0  0
  4  5  2  0  0  0  0
  4  3  1  0  0  0  0
  5  6  1  0  0  0  0
  6  1  2  0  0  0  0
  9  5  1  0  0  0  0
 10 11  1  0  0  0  0
 10  9  1  0  0  0  0
 12 13  1  0  0  0  0
 12 10  2  0  0  0  0
 13 20  1  0  0  0  0
 14 16  1  0  0  0  0
 14 13  2  0  0  0  0
 15 14  1  0  0  0  0
 16 17  2  0  0  0  0
 17 18  1  0  0  0  0
 17 19  1  0  0  0  0
 20 19  2  0  0  0  0
 20  9  1  0  0  0  0
 21  3  1  0  0  0  0
 21 22  1  0  0  0  0
 23 21  1  0  0  0  0
M  END
>  <minimizedAffinity>
-4.71271086

$$$$

 OpenBabel03242521503D

 23 25  0  0  0  0  0  0  0  0999 V2000
   38.4180   28.9130   42.9820 C   0  0  0  0  0  0  0  0  0  0  0  0
   37.1300   28.6620   42.4730 C   0  0  0  0  0  0  0  0  0  0  0  0
   36.6150   29.5400   41.5050 C   0  0  0  0  0  0  0  0  0  0  0  0
   37.4040   30.5710   41.1310 N   0  0  0  0  0  0  0  0  0  0  0  0
   38.6300   30.7880   41.6320 C   0  0  0  0  0  0  0  0  0  0  0  0
   39.1260   29.9600   42.5510 N   0  0  0  0  0  0  0  0  0  0  0  0
   38.8280   28.2530   43.7230 H   0  0  0  0  0  0  0  0  0  0  0  0
   36.5210   27.8100   42.8070 H   0  0  0  0  0  0  0  0  0  0  0  0
   39.2380   31.9490   41.0570 N   0  0  0  0  0  0  0  0  0  0  0  0
   38.6490   32.8880   40.2950 C   0  0  0  0  0  0  0  0  0  0  0  0
   37.5950   32.8390   40.0390 H   0  0  0  0  0  0  0  0  0  0  0  0
   39.5350   33.8330   39.9340 N   0  0  0  0  0  0  0  0  0  0  0  0
   40.7150   33.4890   40.4770 C   0  0  0  0  0  0  0  0  0  0  0  0
   41.9180   34.1590   40.3790 C   0  0  0  0  0  0  0  0  0  0  0  0
   42.0000   35.0780   39.8150 H   0  0  0  0  0  0  0  0  0  0  0  0
   42.9520   33.5750   41.0360 N   0  0  0  0  0  0  0  0  0  0  0  0
   42.7970   32.4210   41.7300 C   0  0  0  0  0  0  0  0  0  0  0  0
   43.7150   32.0550   42.2170 H   0  0  0  0  0  0  0  0  0  0  0  0
   41.6120   31.7680   41.8240 N   0  0  0  0  0  0  0  0  0  0  0  0
   40.5510   32.3030   41.1910 C   0  0  0  0  0  0  0  0  0  0  0  0
   35.3340   29.3100   40.9840 N   0  0  0  0  0  0  0  0  0  0  0  0
   34.3930   29.7570   41.1990 H   0  0  0  0  0  0  0  0  0  0  0  0
   35.4620   28.5560   40.2820 H   0  0  0  0  0  0  0  0  0  0  0  0
  1  7  1  0  0  0  0
  2  8  1  0  0  0  0
  2  1  2  0  0  0  0
  3  2  1  0  0  0  0
  4  3  2  0  0  0  0
  4  5  1  0  0  0  0
  5  6  2  0  0  0  0
  6  1  1  0  0  0  0
  9 20  1  0  0  0  0
  9  5  1  0  0  0  0
 10  9  1  0  0  0  0
 11 10  1  0  0  0  0
 12 10  2  0  0  0  0
 12 13  1  0  0  0  0
 13 20  1  0  0  0  0
 14 13  2  0  0  0  0
 14 16  1  0  0  0  0
 15 14  1  0  0  0  0
 16 17  2  0  0  0  0
 17 19  1  0  0  0  0
 17 18  1  0  0  0  0
 20 19  2  0  0  0  0
 21 22  1  0  0  0  0
 21  3  1  0  0  0  0
 23 21  1  0  0  0  0
M  END
>  <minimizedAffinity>
-4.64261818

$$$$
