REMARK  Name = 
REMARK  8 active torsions:
REMARK  status: ('A' for Active; 'I' for Inactive)
REMARK    1  A    between atoms: C_1  and  N_2
REMARK    2  A    between atoms: C_1  and  S_8
REMARK    3  A    between atoms: N_2  and  S_3
REMARK    4  A    between atoms: S_3  and  O_4
REMARK    5  A    between atoms: S_3  and  O_5
REMARK    6  A    between atoms: S_3  and  O_6
REMARK    7  A    between atoms: O_6  and  C_7
REMARK    8  A    between atoms: S_8  and  C_10
REMARK                            x       y       z     vdW  Elec       q    Type
REMARK                         _______ _______ _______ _____ _____    ______ ____
ROOT
ATOM      1  C   UNL     1      40.126  33.101  41.321  0.00  0.00    +0.000 A 
ATOM      2  C   UNL     1      41.085  33.875  40.686  0.00  0.00    +0.000 A 
ATOM      3  C   UNL     1      40.756  34.724  39.618  0.00  0.00    +0.000 A 
ATOM      4  N   UNL     1      39.449  34.724  39.263  0.00  0.00    +0.000 NA
ATOM      5  C   UNL     1      38.539  33.975  39.882  0.00  0.00    +0.000 A 
ATOM      6  N   UNL     1      38.840  33.170  40.893  0.00  0.00    +0.000 NA
ATOM      7  H   UNL     1      40.415  32.446  42.156  0.00  0.00    +0.000 HD
ATOM      8  H   UNL     1      41.533  35.309  39.151  0.00  0.00    +0.000 HD
ATOM      9  N   UNL     1      37.189  34.070  39.408  0.00  0.00    +0.000 N 
ATOM     10  C   UNL     1      36.527  33.442  38.419  0.00  0.00    +0.000 A 
ATOM     11  H   UNL     1      37.029  32.705  37.808  0.00  0.00    +0.000 HD
ATOM     12  N   UNL     1      35.252  33.901  38.386  0.00  0.00    +0.000 NA
ATOM     13  C   UNL     1      35.134  34.830  39.378  0.00  0.00    +0.000 A 
ATOM     14  C   UNL     1      34.023  35.589  39.752  0.00  0.00    +0.000 A 
ATOM     15  H   UNL     1      33.070  35.504  39.248  0.00  0.00    +0.000 HD
ATOM     16  N   UNL     1      34.176  36.457  40.791  0.00  0.00    +0.000 NA
ATOM     17  C   UNL     1      35.370  36.564  41.425  0.00  0.00    +0.000 A 
ATOM     18  H   UNL     1      35.586  37.215  42.249  0.00  0.00    +0.000 HD
ATOM     19  N   UNL     1      36.459  35.826  41.065  0.00  0.00    +0.000 NA
ATOM     20  C   UNL     1      36.359  34.948  40.036  0.00  0.00    +0.000 A 
ENDROOT
BRANCH   2  21
ATOM     21  S   UNL     1      42.801  33.785  41.255  0.00  0.00    +0.000 S 
BRANCH  21  22
ATOM     22  C   UNL     1      43.365  35.436  41.704  0.00  0.00    +0.000 C 
ATOM     23  H   UNL     1      44.425  35.547  41.384  0.00  0.00    +0.000 HD
ATOM     24  H   UNL     1      42.751  36.163  41.165  0.00  0.00    +0.000 HD
BRANCH  22  25
ATOM     25  N   UNL     1      43.235  35.535  43.145  0.00  0.00    +0.000 NA
ATOM     26  H   UNL     1      42.491  36.184  43.463  0.00  0.00    +0.000 HD
BRANCH  25  27
ATOM     27  S   UNL     1      44.724  35.835  43.936  0.00  0.00    +0.000 S 
BRANCH  27  28
ATOM     28  O   UNL     1      45.875  35.253  43.181  0.00  0.00    +0.000 OA
ATOM     29  H   UNL     1      46.456  35.789  42.569  0.00  0.00    +0.000 HD
ENDBRANCH  27  28
BRANCH  27  30
ATOM     30  O   UNL     1      44.856  37.337  44.023  0.00  0.00    +0.000 OA
ATOM     31  H   UNL     1      44.405  37.877  44.709  0.00  0.00    +0.000 HD
ENDBRANCH  27  30
BRANCH  27  32
ATOM     32  O   UNL     1      44.665  35.251  45.505  0.00  0.00    +0.000 OA
BRANCH  32  33
ATOM     33  C   UNL     1      45.397  34.094  45.669  0.00  0.00    +0.000 C 
ATOM     34  H   UNL     1      46.189  34.020  44.879  0.00  0.00    +0.000 HD
ATOM     35  H   UNL     1      45.981  34.245  46.624  0.00  0.00    +0.000 HD
ATOM     36  H   UNL     1      44.797  33.173  45.739  0.00  0.00    +0.000 HD
ENDBRANCH  32  33
ENDBRANCH  27  32
ENDBRANCH  25  27
ENDBRANCH  22  25
ENDBRANCH  21  22
ENDBRANCH   2  21
TORSDOF 8
