
 OpenBabel03252508263D

 44 49  0  0  1  0  0  0  0  0999 V2000
   46.1660   32.4880   45.5440 C   0  0  1  0  0  0  0  0  0  0  0  0
   46.7980   32.9220   46.8000 C   0  0  0  0  0  0  0  0  0  0  0  0
   45.3900   32.2130   46.7340 C   0  0  2  0  0  0  0  0  0  0  0  0
   46.9250   31.7750   45.0580 H   0  0  0  0  0  0  0  0  0  0  0  0
   47.5650   32.3690   47.3530 H   0  0  0  0  0  0  0  0  0  0  0  0
   46.7370   34.0030   47.0060 H   0  0  0  0  0  0  0  0  0  0  0  0
   44.6880   32.9600   47.2260 H   0  0  0  0  0  0  0  0  0  0  0  0
   45.2120   30.8940   47.3480 C   0  0  0  0  0  0  0  0  0  0  0  0
   45.1480   30.5980   48.6730 C   0  0  0  0  0  0  0  0  0  0  0  0
   45.1020   29.3220   49.2160 C   0  0  0  0  0  0  0  0  0  0  0  0
   45.1250   28.2540   48.3090 C   0  0  0  0  0  0  0  0  0  0  0  0
   45.1870   28.5280   46.9420 C   0  0  0  0  0  0  0  0  0  0  0  0
   45.1440   27.4470   46.0840 C   0  0  0  0  0  0  0  0  0  0  0  0
   45.1320   27.6780   44.7130 C   0  0  0  0  0  0  0  0  0  0  0  0
   45.1580   28.9610   44.2140 C   0  0  0  0  0  0  0  0  0  0  0  0
   45.2020   30.0030   45.1120 C   0  0  0  0  0  0  0  0  0  0  0  0
   45.2250   29.8240   46.4870 C   0  0  0  0  0  0  0  0  0  0  0  0
   45.1330   31.4570   49.3400 H   0  0  0  0  0  0  0  0  0  0  0  0
   45.0510   29.1610   50.2860 H   0  0  0  0  0  0  0  0  0  0  0  0
   45.0930   27.2510   48.7160 H   0  0  0  0  0  0  0  0  0  0  0  0
   45.1210   26.4490   46.5000 H   0  0  0  0  0  0  0  0  0  0  0  0
   45.0990   26.7460   44.1240 H   0  0  0  0  0  0  0  0  0  0  0  0
   45.1390   28.9350   43.1420 H   0  0  0  0  0  0  0  0  0  0  0  0
   45.1300   30.8590   44.5070 H   0  0  0  0  0  0  0  0  0  0  0  0
   44.8020   35.6040   44.1130 C   0  0  0  0  0  0  0  0  0  0  0  0
   44.6870   35.2730   42.7150 C   0  0  0  0  0  0  0  0  0  0  0  0
   45.1040   33.9610   42.3120 C   0  0  0  0  0  0  0  0  0  0  0  0
   45.5760   33.1130   43.2270 N   0  0  0  0  0  0  0  0  0  0  0  0
   45.6630   33.4850   44.5540 C   0  0  0  0  0  0  0  0  0  0  0  0
   45.2890   34.6880   44.9770 N   0  0  0  0  0  0  0  0  0  0  0  0
   44.4720   36.6010   44.3390 H   0  0  0  0  0  0  0  0  0  0  0  0
   44.2980   36.0030   42.0190 H   0  0  0  0  0  0  0  0  0  0  0  0
   44.9930   33.6260   40.9320 N   0  0  0  0  0  0  0  0  0  0  0  0
   43.9240   33.1680   40.2490 C   0  0  0  0  0  0  0  0  0  0  0  0
   42.9690   33.0010   40.7370 H   0  0  0  0  0  0  0  0  0  0  0  0
   44.2060   32.9650   38.9540 N   0  0  0  0  0  0  0  0  0  0  0  0
   45.5070   33.3000   38.7750 C   0  0  0  0  0  0  0  0  0  0  0  0
   46.3730   33.3130   37.7010 C   0  0  0  0  0  0  0  0  0  0  0  0
   45.9950   32.9900   36.7230 H   0  0  0  0  0  0  0  0  0  0  0  0
   47.6590   33.7190   37.8610 N   0  0  0  0  0  0  0  0  0  0  0  0
   48.1130   34.1150   39.0760 C   0  0  0  0  0  0  0  0  0  0  0  0
   49.1400   34.4410   39.2080 H   0  0  0  0  0  0  0  0  0  0  0  0
   47.2730   34.1100   40.1490 N   0  0  0  0  0  0  0  0  0  0  0  0
   46.0030   33.7160   40.0160 C   0  0  0  0  0  0  0  0  0  0  0  0
  1  4  1  6  0  0  0
  1  3  1  0  0  0  0
  1  2  1  0  0  0  0
  2  6  1  0  0  0  0
  2  5  1  0  0  0  0
  3  2  1  0  0  0  0
  3  7  1  1  0  0  0
  3  8  1  0  0  0  0
  8  9  1  0  0  0  0
  9 10  2  0  0  0  0
  9 18  1  0  0  0  0
 10 19  1  0  0  0  0
 11 20  1  0  0  0  0
 11 10  1  0  0  0  0
 12 11  2  0  0  0  0
 13 21  1  0  0  0  0
 13 12  1  0  0  0  0
 14 13  2  0  0  0  0
 15 14  1  0  0  0  0
 15 16  2  0  0  0  0
 16 17  1  0  0  0  0
 17 12  1  0  0  0  0
 17  8  2  0  0  0  0
 22 14  1  0  0  0  0
 23 15  1  0  0  0  0
 24 16  1  0  0  0  0
 25 31  1  0  0  0  0
 25 30  1  0  0  0  0
 26 25  2  0  0  0  0
 27 26  1  0  0  0  0
 27 28  2  0  0  0  0
 28 29  1  0  0  0  0
 29 30  2  0  0  0  0
 29  1  1  0  0  0  0
 32 26  1  0  0  0  0
 33 27  1  0  0  0  0
 34 35  1  0  0  0  0
 34 33  1  0  0  0  0
 36 34  2  0  0  0  0
 37 36  1  0  0  0  0
 37 44  1  0  0  0  0
 38 40  1  0  0  0  0
 38 37  2  0  0  0  0
 39 38  1  0  0  0  0
 40 41  2  0  0  0  0
 41 42  1  0  0  0  0
 41 43  1  0  0  0  0
 44 43  2  0  0  0  0
 44 33  1  0  0  0  0
M  END
>  <minimizedAffinity>
-4.99540758

>  <minimizedRMSD>
2.26269269

$$$$
