
 OpenBabel03242511403D

 27 29  0  0  0  0  0  0  0  0999 V2000
   38.5850   29.1760   42.7540 C   0  0  0  0  0  0  0  0  0  0  0  0
   39.0300   29.7650   43.5700 H   0  0  0  0  0  0  0  0  0  0  0  0
   39.3900   28.6330   42.2080 H   0  0  0  0  0  0  0  0  0  0  0  0
   37.8700   30.0580   41.8420 N   0  0  0  0  0  0  0  0  0  0  0  0
   36.6140   29.8030   41.4270 C   0  0  0  0  0  0  0  0  0  0  0  0
   35.9850   28.9480   41.6990 H   0  0  0  0  0  0  0  0  0  0  0  0
   36.1970   30.7900   40.5830 N   0  0  0  0  0  0  0  0  0  0  0  0
   37.2100   31.6920   40.4580 C   0  0  0  0  0  0  0  0  0  0  0  0
   37.4240   32.8760   39.7770 C   0  0  0  0  0  0  0  0  0  0  0  0
   36.5870   33.2020   39.1740 H   0  0  0  0  0  0  0  0  0  0  0  0
   38.6100   33.5130   39.9070 N   0  0  0  0  0  0  0  0  0  0  0  0
   39.5900   33.0480   40.6690 C   0  0  0  0  0  0  0  0  0  0  0  0
   40.4920   33.6440   40.6940 H   0  0  0  0  0  0  0  0  0  0  0  0
   39.4130   31.8820   41.3550 N   0  0  0  0  0  0  0  0  0  0  0  0
   38.2380   31.2030   41.2570 C   0  0  0  0  0  0  0  0  0  0  0  0
   37.5640   28.1730   43.2820 C   0  0  0  0  0  0  0  0  0  0  0  0
   36.6270   28.2750   42.7370 H   0  0  0  0  0  0  0  0  0  0  0  0
   37.4570   28.3070   44.3700 H   0  0  0  0  0  0  0  0  0  0  0  0
   38.3210   24.6810   42.2750 C   0  0  0  0  0  0  0  0  0  0  0  0
   39.5860   24.4790   42.8740 C   0  0  0  0  0  0  0  0  0  0  0  0
   40.1210   25.5380   43.5900 C   0  0  0  0  0  0  0  0  0  0  0  0
   39.4200   26.6920   43.6800 N   0  0  0  0  0  0  0  0  0  0  0  0
   38.2030   26.8460   43.0870 C   0  0  0  0  0  0  0  0  0  0  0  0
   37.6610   25.8410   42.3910 N   0  0  0  0  0  0  0  0  0  0  0  0
   37.8740   23.8790   41.7100 H   0  0  0  0  0  0  0  0  0  0  0  0
   40.0830   23.5050   42.7470 H   0  0  0  0  0  0  0  0  0  0  0  0
   41.0730   25.4150   44.0520 H   0  0  0  0  0  0  0  0  0  0  0  0
  1 16  1  0  0  0  0
  1  2  1  0  0  0  0
  3  1  1  0  0  0  0
  4  1  1  0  0  0  0
  5  6  1  0  0  0  0
  5  4  1  0  0  0  0
  7  5  2  0  0  0  0
  8  7  1  0  0  0  0
  8 15  1  0  0  0  0
  9 11  1  0  0  0  0
  9  8  2  0  0  0  0
 10  9  1  0  0  0  0
 11 12  2  0  0  0  0
 12 13  1  0  0  0  0
 12 14  1  0  0  0  0
 15 14  2  0  0  0  0
 15  4  1  0  0  0  0
 16 18  1  0  0  0  0
 17 16  1  0  0  0  0
 19 24  2  0  0  0  0
 19 20  1  0  0  0  0
 20 21  2  0  0  0  0
 21 22  1  0  0  0  0
 21 27  1  0  0  0  0
 23 16  1  0  0  0  0
 23 22  2  0  0  0  0
 24 23  1  0  0  0  0
 25 19  1  0  0  0  0
 26 20  1  0  0  0  0
M  END
>  <minimizedAffinity>
-4.80393791

$$$$

 OpenBabel03242511403D

 27 29  0  0  0  0  0  0  0  0999 V2000
   37.3100   28.9220   42.1600 C   0  0  0  0  0  0  0  0  0  0  0  0
   37.4700   28.1840   41.3610 H   0  0  0  0  0  0  0  0  0  0  0  0
   36.2400   29.2340   42.1680 H   0  0  0  0  0  0  0  0  0  0  0  0
   38.1670   30.0800   41.9400 N   0  0  0  0  0  0  0  0  0  0  0  0
   39.3210   30.2620   42.6100 C   0  0  0  0  0  0  0  0  0  0  0  0
   39.7570   29.6060   43.3710 H   0  0  0  0  0  0  0  0  0  0  0  0
   39.9120   31.4220   42.2050 N   0  0  0  0  0  0  0  0  0  0  0  0
   39.1170   31.9910   41.2570 C   0  0  0  0  0  0  0  0  0  0  0  0
   39.1410   33.1310   40.4750 C   0  0  0  0  0  0  0  0  0  0  0  0
   40.0060   33.7610   40.6310 H   0  0  0  0  0  0  0  0  0  0  0  0
   38.1290   33.3660   39.6100 N   0  0  0  0  0  0  0  0  0  0  0  0
   37.0990   32.5420   39.4760 C   0  0  0  0  0  0  0  0  0  0  0  0
   36.3500   32.8350   38.7520 H   0  0  0  0  0  0  0  0  0  0  0  0
   37.0420   31.4080   40.2320 N   0  0  0  0  0  0  0  0  0  0  0  0
   38.0370   31.1260   41.1170 C   0  0  0  0  0  0  0  0  0  0  0  0
   37.6840   28.3570   43.5270 C   0  0  0  0  0  0  0  0  0  0  0  0
   36.8080   28.3330   44.1720 H   0  0  0  0  0  0  0  0  0  0  0  0
   38.5200   28.9410   43.9420 H   0  0  0  0  0  0  0  0  0  0  0  0
   39.8030   25.3130   43.3630 C   0  0  0  0  0  0  0  0  0  0  0  0
   39.0090   24.4540   42.5680 C   0  0  0  0  0  0  0  0  0  0  0  0
   37.7930   24.9510   42.1250 C   0  0  0  0  0  0  0  0  0  0  0  0
   37.4310   26.2090   42.4700 N   0  0  0  0  0  0  0  0  0  0  0  0
   38.2260   27.0040   43.2390 C   0  0  0  0  0  0  0  0  0  0  0  0
   39.4050   26.5520   43.6800 N   0  0  0  0  0  0  0  0  0  0  0  0
   40.7550   24.9600   43.7260 H   0  0  0  0  0  0  0  0  0  0  0  0
   39.3860   23.4460   42.3380 H   0  0  0  0  0  0  0  0  0  0  0  0
   37.1740   24.3270   41.5230 H   0  0  0  0  0  0  0  0  0  0  0  0
  1  3  1  0  0  0  0
  1 16  1  0  0  0  0
  2  1  1  0  0  0  0
  4  1  1  0  0  0  0
  4  5  1  0  0  0  0
  5  6  1  0  0  0  0
  7  5  2  0  0  0  0
  8  7  1  0  0  0  0
  9 10  1  0  0  0  0
  9  8  2  0  0  0  0
 11  9  1  0  0  0  0
 12 11  2  0  0  0  0
 12 14  1  0  0  0  0
 13 12  1  0  0  0  0
 14 15  2  0  0  0  0
 15  8  1  0  0  0  0
 15  4  1  0  0  0  0
 16 18  1  0  0  0  0
 16 17  1  0  0  0  0
 19 24  1  0  0  0  0
 19 25  1  0  0  0  0
 20 19  2  0  0  0  0
 21 22  2  0  0  0  0
 21 20  1  0  0  0  0
 22 23  1  0  0  0  0
 23 16  1  0  0  0  0
 23 24  2  0  0  0  0
 26 20  1  0  0  0  0
 27 21  1  0  0  0  0
M  END
>  <minimizedAffinity>
-4.55129099

$$$$

 OpenBabel03242511403D

 27 29  0  0  0  0  0  0  0  0999 V2000
   38.3080   29.1610   43.0560 C   0  0  0  0  0  0  0  0  0  0  0  0
   37.9170   29.3600   44.0650 H   0  0  0  0  0  0  0  0  0  0  0  0
   37.4690   29.1830   42.3230 H   0  0  0  0  0  0  0  0  0  0  0  0
   38.9630   27.8600   43.0280 N   0  0  0  0  0  0  0  0  0  0  0  0
   40.2660   27.7010   43.3300 C   0  0  0  0  0  0  0  0  0  0  0  0
   40.9800   28.4790   43.6230 H   0  0  0  0  0  0  0  0  0  0  0  0
   40.6080   26.3860   43.2220 N   0  0  0  0  0  0  0  0  0  0  0  0
   39.4990   25.6930   42.8420 C   0  0  0  0  0  0  0  0  0  0  0  0
   39.1800   24.3760   42.5680 C   0  0  0  0  0  0  0  0  0  0  0  0
   40.0060   23.6850   42.6730 H   0  0  0  0  0  0  0  0  0  0  0  0
   37.9170   24.0580   42.2060 N   0  0  0  0  0  0  0  0  0  0  0  0
   36.9560   24.9650   42.1000 C   0  0  0  0  0  0  0  0  0  0  0  0
   35.9850   24.5930   41.8020 H   0  0  0  0  0  0  0  0  0  0  0  0
   37.2350   26.2750   42.3620 N   0  0  0  0  0  0  0  0  0  0  0  0
   38.4910   26.6450   42.7310 C   0  0  0  0  0  0  0  0  0  0  0  0
   39.3610   30.1880   42.6520 C   0  0  0  0  0  0  0  0  0  0  0  0
   40.2350   29.6850   42.2430 H   0  0  0  0  0  0  0  0  0  0  0  0
   39.5890   30.8300   43.5180 H   0  0  0  0  0  0  0  0  0  0  0  0
   38.4720   32.9280   40.3100 C   0  0  0  0  0  0  0  0  0  0  0  0
   37.2210   32.4880   39.8170 C   0  0  0  0  0  0  0  0  0  0  0  0
   36.7410   31.2830   40.3040 C   0  0  0  0  0  0  0  0  0  0  0  0
   37.4780   30.5990   41.2100 N   0  0  0  0  0  0  0  0  0  0  0  0
   38.6790   31.0580   41.6590 C   0  0  0  0  0  0  0  0  0  0  0  0
   39.1680   32.2180   41.2080 N   0  0  0  0  0  0  0  0  0  0  0  0
   38.8770   33.8620   39.9540 H   0  0  0  0  0  0  0  0  0  0  0  0
   36.6930   33.1120   39.0810 H   0  0  0  0  0  0  0  0  0  0  0  0
   35.8010   30.9270   39.9520 H   0  0  0  0  0  0  0  0  0  0  0  0
  1  2  1  0  0  0  0
  3  1  1  0  0  0  0
  4  1  1  0  0  0  0
  4  5  1  0  0  0  0
  5  6  1  0  0  0  0
  7  5  2  0  0  0  0
  8  7  1  0  0  0  0
  9 10  1  0  0  0  0
  9  8  2  0  0  0  0
 11  9  1  0  0  0  0
 12 11  2  0  0  0  0
 12 14  1  0  0  0  0
 13 12  1  0  0  0  0
 14 15  2  0  0  0  0
 15  8  1  0  0  0  0
 15  4  1  0  0  0  0
 16  1  1  0  0  0  0
 16 18  1  0  0  0  0
 17 16  1  0  0  0  0
 19 24  1  0  0  0  0
 20 21  1  0  0  0  0
 20 19  2  0  0  0  0
 21 22  2  0  0  0  0
 22 23  1  0  0  0  0
 23 16  1  0  0  0  0
 24 23  2  0  0  0  0
 25 19  1  0  0  0  0
 26 20  1  0  0  0  0
 27 21  1  0  0  0  0
M  END
>  <minimizedAffinity>
-4.49432182

$$$$

 OpenBabel03242511403D

 27 29  0  0  0  0  0  0  0  0999 V2000
   37.2930   30.6690   39.8220 C   0  0  0  0  0  0  0  0  0  0  0  0
   38.0370   29.8580   39.7950 H   0  0  0  0  0  0  0  0  0  0  0  0
   36.6770   30.6370   38.8940 H   0  0  0  0  0  0  0  0  0  0  0  0
   37.9700   31.9550   39.9280 N   0  0  0  0  0  0  0  0  0  0  0  0
   37.3210   33.1260   39.7770 C   0  0  0  0  0  0  0  0  0  0  0  0
   36.2560   33.2730   39.5660 H   0  0  0  0  0  0  0  0  0  0  0  0
   38.1960   34.1610   39.9280 N   0  0  0  0  0  0  0  0  0  0  0  0
   39.4280   33.6370   40.1790 C   0  0  0  0  0  0  0  0  0  0  0  0
   40.6990   34.1250   40.4170 C   0  0  0  0  0  0  0  0  0  0  0  0
   40.7720   35.2040   40.4100 H   0  0  0  0  0  0  0  0  0  0  0  0
   41.7150   33.2590   40.6330 N   0  0  0  0  0  0  0  0  0  0  0  0
   41.5450   31.9440   40.6280 C   0  0  0  0  0  0  0  0  0  0  0  0
   42.4310   31.3520   40.8130 H   0  0  0  0  0  0  0  0  0  0  0  0
   40.3030   31.4280   40.3950 N   0  0  0  0  0  0  0  0  0  0  0  0
   39.2490   32.2580   40.1720 C   0  0  0  0  0  0  0  0  0  0  0  0
   36.3830   30.5520   41.0400 C   0  0  0  0  0  0  0  0  0  0  0  0
   35.3520   30.4070   40.7220 H   0  0  0  0  0  0  0  0  0  0  0  0
   36.5250   31.4360   41.6820 H   0  0  0  0  0  0  0  0  0  0  0  0
   36.9500   27.1900   42.5090 C   0  0  0  0  0  0  0  0  0  0  0  0
   38.0970   27.4150   43.3050 C   0  0  0  0  0  0  0  0  0  0  0  0
   38.6220   28.6980   43.3040 C   0  0  0  0  0  0  0  0  0  0  0  0
   38.0230   29.6540   42.5560 N   0  0  0  0  0  0  0  0  0  0  0  0
   36.9190   29.3950   41.8020 C   0  0  0  0  0  0  0  0  0  0  0  0
   36.3890   28.1670   41.7840 N   0  0  0  0  0  0  0  0  0  0  0  0
   36.5130   26.2040   42.4850 H   0  0  0  0  0  0  0  0  0  0  0  0
   38.5150   26.5760   43.8810 H   0  0  0  0  0  0  0  0  0  0  0  0
   39.4860   28.8980   43.8950 H   0  0  0  0  0  0  0  0  0  0  0  0
  1  4  1  0  0  0  0
  1 16  1  0  0  0  0
  2  1  1  0  0  0  0
  3  1  1  0  0  0  0
  4 15  1  0  0  0  0
  5  4  1  0  0  0  0
  5  7  2  0  0  0  0
  6  5  1  0  0  0  0
  7  8  1  0  0  0  0
  8  9  1  0  0  0  0
  9 11  2  0  0  0  0
 10  9  1  0  0  0  0
 12 11  1  0  0  0  0
 12 13  1  0  0  0  0
 14 12  2  0  0  0  0
 15  8  2  0  0  0  0
 15 14  1  0  0  0  0
 16 18  1  0  0  0  0
 16 23  1  0  0  0  0
 17 16  1  0  0  0  0
 19 20  1  0  0  0  0
 20 26  1  0  0  0  0
 21 20  2  0  0  0  0
 21 27  1  0  0  0  0
 22 21  1  0  0  0  0
 23 22  2  0  0  0  0
 24 23  1  0  0  0  0
 24 19  2  0  0  0  0
 25 19  1  0  0  0  0
M  END
>  <minimizedAffinity>
-4.45363951

$$$$

 OpenBabel03242511403D

 27 29  0  0  0  0  0  0  0  0999 V2000
   37.8190   27.6290   43.6760 C   0  0  0  0  0  0  0  0  0  0  0  0
   36.8700   27.0900   43.5400 H   0  0  0  0  0  0  0  0  0  0  0  0
   37.9020   27.9730   44.7320 H   0  0  0  0  0  0  0  0  0  0  0  0
   37.8720   28.7710   42.7720 N   0  0  0  0  0  0  0  0  0  0  0  0
   38.8600   29.6850   42.8220 C   0  0  0  0  0  0  0  0  0  0  0  0
   39.7170   29.7010   43.5040 H   0  0  0  0  0  0  0  0  0  0  0  0
   38.6560   30.6370   41.8670 N   0  0  0  0  0  0  0  0  0  0  0  0
   37.5120   30.3220   41.1970 C   0  0  0  0  0  0  0  0  0  0  0  0
   36.7770   30.8570   40.1560 C   0  0  0  0  0  0  0  0  0  0  0  0
   37.1890   31.7660   39.7390 H   0  0  0  0  0  0  0  0  0  0  0  0
   35.6470   30.2350   39.7510 N   0  0  0  0  0  0  0  0  0  0  0  0
   35.2060   29.1190   40.3140 C   0  0  0  0  0  0  0  0  0  0  0  0
   34.2910   28.7130   39.9060 H   0  0  0  0  0  0  0  0  0  0  0  0
   35.9070   28.5640   41.3450 N   0  0  0  0  0  0  0  0  0  0  0  0
   37.0500   29.1520   41.7890 C   0  0  0  0  0  0  0  0  0  0  0  0
   39.0160   26.7470   43.3330 C   0  0  0  0  0  0  0  0  0  0  0  0
   39.4710   26.3660   44.2460 H   0  0  0  0  0  0  0  0  0  0  0  0
   39.7130   27.3150   42.6980 H   0  0  0  0  0  0  0  0  0  0  0  0
   36.7530   24.3990   41.5590 C   0  0  0  0  0  0  0  0  0  0  0  0
   37.6720   23.6180   40.8210 C   0  0  0  0  0  0  0  0  0  0  0  0
   39.0170   23.9270   40.9610 C   0  0  0  0  0  0  0  0  0  0  0  0
   39.3760   24.9410   41.7820 N   0  0  0  0  0  0  0  0  0  0  0  0
   38.4580   25.6690   42.4760 C   0  0  0  0  0  0  0  0  0  0  0  0
   37.1540   25.3940   42.3610 N   0  0  0  0  0  0  0  0  0  0  0  0
   35.6990   24.1880   41.4740 H   0  0  0  0  0  0  0  0  0  0  0  0
   37.2870   22.8130   40.1770 H   0  0  0  0  0  0  0  0  0  0  0  0
   39.7320   23.3550   40.4180 H   0  0  0  0  0  0  0  0  0  0  0  0
  1  3  1  0  0  0  0
  2  1  1  0  0  0  0
  4  5  1  0  0  0  0
  4  1  1  0  0  0  0
  5  6  1  0  0  0  0
  7  5  2  0  0  0  0
  8 15  1  0  0  0  0
  8  7  1  0  0  0  0
  9  8  2  0  0  0  0
 10  9  1  0  0  0  0
 11  9  1  0  0  0  0
 11 12  2  0  0  0  0
 12 14  1  0  0  0  0
 13 12  1  0  0  0  0
 14 15  2  0  0  0  0
 15  4  1  0  0  0  0
 16  1  1  0  0  0  0
 16 17  1  0  0  0  0
 18 16  1  0  0  0  0
 19 24  1  0  0  0  0
 20 21  1  0  0  0  0
 20 19  2  0  0  0  0
 21 22  2  0  0  0  0
 22 23  1  0  0  0  0
 23 16  1  0  0  0  0
 24 23  2  0  0  0  0
 25 19  1  0  0  0  0
 26 20  1  0  0  0  0
 27 21  1  0  0  0  0
M  END
>  <minimizedAffinity>
-4.4067378

$$$$

 OpenBabel03242511403D

 27 29  0  0  0  0  0  0  0  0999 V2000
   36.3940   27.7830   40.4820 C   0  0  0  0  0  0  0  0  0  0  0  0
   35.7070   26.9440   40.2950 H   0  0  0  0  0  0  0  0  0  0  0  0
   37.0140   27.9630   39.5740 H   0  0  0  0  0  0  0  0  0  0  0  0
   37.2500   27.4740   41.6200 N   0  0  0  0  0  0  0  0  0  0  0  0
   37.2130   28.1840   42.7640 C   0  0  0  0  0  0  0  0  0  0  0  0
   36.5720   29.0420   42.9930 H   0  0  0  0  0  0  0  0  0  0  0  0
   38.1150   27.6770   43.6510 N   0  0  0  0  0  0  0  0  0  0  0  0
   38.7410   26.6220   43.0580 C   0  0  0  0  0  0  0  0  0  0  0  0
   39.7220   25.7110   43.4020 C   0  0  0  0  0  0  0  0  0  0  0  0
   40.1210   25.8400   44.3990 H   0  0  0  0  0  0  0  0  0  0  0  0
   40.0960   24.7670   42.5090 N   0  0  0  0  0  0  0  0  0  0  0  0
   39.5580   24.6740   41.3010 C   0  0  0  0  0  0  0  0  0  0  0  0
   39.9370   23.8790   40.6740 H   0  0  0  0  0  0  0  0  0  0  0  0
   38.5870   25.5570   40.9280 N   0  0  0  0  0  0  0  0  0  0  0  0
   38.1760   26.5250   41.7910 C   0  0  0  0  0  0  0  0  0  0  0  0
   35.6360   29.0580   40.8390 C   0  0  0  0  0  0  0  0  0  0  0  0
   35.7200   29.2540   41.9070 H   0  0  0  0  0  0  0  0  0  0  0  0
   34.5950   28.9690   40.4890 H   0  0  0  0  0  0  0  0  0  0  0  0
   37.1000   31.0110   38.0420 C   0  0  0  0  0  0  0  0  0  0  0  0
   37.4380   32.2240   38.6860 C   0  0  0  0  0  0  0  0  0  0  0  0
   37.1530   32.3190   40.0400 C   0  0  0  0  0  0  0  0  0  0  0  0
   36.5750   31.2680   40.6660 N   0  0  0  0  0  0  0  0  0  0  0  0
   36.2650   30.1160   40.0080 C   0  0  0  0  0  0  0  0  0  0  0  0
   36.5290   29.9950   38.7020 N   0  0  0  0  0  0  0  0  0  0  0  0
   37.3070   30.9000   36.9900 H   0  0  0  0  0  0  0  0  0  0  0  0
   37.9060   33.0250   38.0950 H   0  0  0  0  0  0  0  0  0  0  0  0
   37.3970   33.2210   40.5510 H   0  0  0  0  0  0  0  0  0  0  0  0
  1 16  1  0  0  0  0
  1  4  1  0  0  0  0
  2  1  1  0  0  0  0
  3  1  1  0  0  0  0
  4 15  1  0  0  0  0
  4  5  1  0  0  0  0
  5  6  1  0  0  0  0
  5  7  2  0  0  0  0
  8  9  1  0  0  0  0
  8  7  1  0  0  0  0
  9 10  1  0  0  0  0
 11  9  2  0  0  0  0
 12 11  1  0  0  0  0
 13 12  1  0  0  0  0
 14 12  2  0  0  0  0
 14 15  1  0  0  0  0
 15  8  2  0  0  0  0
 16 17  1  0  0  0  0
 18 16  1  0  0  0  0
 19 20  2  0  0  0  0
 19 24  1  0  0  0  0
 20 21  1  0  0  0  0
 21 27  1  0  0  0  0
 21 22  2  0  0  0  0
 23 22  1  0  0  0  0
 23 16  1  0  0  0  0
 24 23  2  0  0  0  0
 25 19  1  0  0  0  0
 26 20  1  0  0  0  0
M  END
>  <minimizedAffinity>
-4.38661766

$$$$

 OpenBabel03242511403D

 27 29  0  0  0  0  0  0  0  0999 V2000
   39.5550   28.0940   42.6380 C   0  0  0  0  0  0  0  0  0  0  0  0
   39.7260   28.4710   41.6180 H   0  0  0  0  0  0  0  0  0  0  0  0
   40.4550   28.2960   43.2630 H   0  0  0  0  0  0  0  0  0  0  0  0
   39.2880   26.6620   42.5950 N   0  0  0  0  0  0  0  0  0  0  0  0
   39.9180   25.7860   43.4010 C   0  0  0  0  0  0  0  0  0  0  0  0
   40.6750   26.0080   44.1610 H   0  0  0  0  0  0  0  0  0  0  0  0
   39.4740   24.5220   43.1460 N   0  0  0  0  0  0  0  0  0  0  0  0
   38.5430   24.5960   42.1540 C   0  0  0  0  0  0  0  0  0  0  0  0
   37.7420   23.7090   41.4590 C   0  0  0  0  0  0  0  0  0  0  0  0
   37.8600   22.6750   41.7540 H   0  0  0  0  0  0  0  0  0  0  0  0
   36.9070   24.1760   40.5030 N   0  0  0  0  0  0  0  0  0  0  0  0
   36.8200   25.4640   40.1990 C   0  0  0  0  0  0  0  0  0  0  0  0
   36.1170   25.7180   39.4170 H   0  0  0  0  0  0  0  0  0  0  0  0
   37.5960   26.3660   40.8650 N   0  0  0  0  0  0  0  0  0  0  0  0
   38.4530   25.9460   41.8350 C   0  0  0  0  0  0  0  0  0  0  0  0
   38.3340   28.7470   43.2780 C   0  0  0  0  0  0  0  0  0  0  0  0
   38.6080   29.1940   44.2320 H   0  0  0  0  0  0  0  0  0  0  0  0
   37.5270   28.0020   43.3560 H   0  0  0  0  0  0  0  0  0  0  0  0
   36.3220   30.7670   40.9000 C   0  0  0  0  0  0  0  0  0  0  0  0
   37.2780   31.7020   40.4390 C   0  0  0  0  0  0  0  0  0  0  0  0
   38.5600   31.6010   40.9580 C   0  0  0  0  0  0  0  0  0  0  0  0
   38.8280   30.6310   41.8630 N   0  0  0  0  0  0  0  0  0  0  0  0
   37.8770   29.7500   42.2810 C   0  0  0  0  0  0  0  0  0  0  0  0
   36.6330   29.8230   41.7980 N   0  0  0  0  0  0  0  0  0  0  0  0
   35.3150   30.8150   40.5190 H   0  0  0  0  0  0  0  0  0  0  0  0
   36.9680   32.4560   39.7000 H   0  0  0  0  0  0  0  0  0  0  0  0
   39.3010   32.2910   40.6280 H   0  0  0  0  0  0  0  0  0  0  0  0
  1  3  1  0  0  0  0
  1 16  1  0  0  0  0
  2  1  1  0  0  0  0
  4  1  1  0  0  0  0
  4  5  1  0  0  0  0
  5  6  1  0  0  0  0
  7  5  2  0  0  0  0
  8  7  1  0  0  0  0
  9 10  1  0  0  0  0
  9  8  2  0  0  0  0
 11  9  1  0  0  0  0
 12 11  2  0  0  0  0
 12 14  1  0  0  0  0
 13 12  1  0  0  0  0
 14 15  2  0  0  0  0
 15  8  1  0  0  0  0
 15  4  1  0  0  0  0
 16 18  1  0  0  0  0
 16 17  1  0  0  0  0
 19 24  1  0  0  0  0
 20 19  2  0  0  0  0
 20 21  1  0  0  0  0
 21 22  2  0  0  0  0
 22 23  1  0  0  0  0
 23 16  1  0  0  0  0
 24 23  2  0  0  0  0
 25 19  1  0  0  0  0
 26 20  1  0  0  0  0
 27 21  1  0  0  0  0
M  END
>  <minimizedAffinity>
-4.34971333

$$$$

 OpenBabel03242511403D

 27 29  0  0  0  0  0  0  0  0999 V2000
   35.9600   30.5470   40.0510 C   0  0  0  0  0  0  0  0  0  0  0  0
   36.1180   31.1920   40.9280 H   0  0  0  0  0  0  0  0  0  0  0  0
   34.8920   30.6040   39.7370 H   0  0  0  0  0  0  0  0  0  0  0  0
   36.3110   29.1720   40.3810 N   0  0  0  0  0  0  0  0  0  0  0  0
   36.0480   28.1420   39.5530 C   0  0  0  0  0  0  0  0  0  0  0  0
   35.5640   28.1850   38.5720 H   0  0  0  0  0  0  0  0  0  0  0  0
   36.4830   26.9770   40.1140 N   0  0  0  0  0  0  0  0  0  0  0  0
   37.0330   27.2730   41.3250 C   0  0  0  0  0  0  0  0  0  0  0  0
   37.6330   26.5720   42.3550 C   0  0  0  0  0  0  0  0  0  0  0  0
   37.6990   25.5060   42.1900 H   0  0  0  0  0  0  0  0  0  0  0  0
   38.0730   27.2400   43.4450 N   0  0  0  0  0  0  0  0  0  0  0  0
   37.9550   28.5550   43.5730 C   0  0  0  0  0  0  0  0  0  0  0  0
   38.3430   28.9780   44.4890 H   0  0  0  0  0  0  0  0  0  0  0  0
   37.3670   29.2770   42.5750 N   0  0  0  0  0  0  0  0  0  0  0  0
   36.9080   28.6510   41.4580 C   0  0  0  0  0  0  0  0  0  0  0  0
   36.8540   30.9580   38.8860 C   0  0  0  0  0  0  0  0  0  0  0  0
   36.2460   31.3160   38.0580 H   0  0  0  0  0  0  0  0  0  0  0  0
   37.5090   30.1140   38.6190 H   0  0  0  0  0  0  0  0  0  0  0  0
   38.2620   34.1610   40.1290 C   0  0  0  0  0  0  0  0  0  0  0  0
   39.5700   33.7730   40.5000 C   0  0  0  0  0  0  0  0  0  0  0  0
   39.9110   32.4430   40.3110 C   0  0  0  0  0  0  0  0  0  0  0  0
   38.9930   31.5960   39.7900 N   0  0  0  0  0  0  0  0  0  0  0  0
   37.7420   32.0110   39.4450 C   0  0  0  0  0  0  0  0  0  0  0  0
   37.3850   33.2880   39.6160 N   0  0  0  0  0  0  0  0  0  0  0  0
   37.9620   35.1880   40.2620 H   0  0  0  0  0  0  0  0  0  0  0  0
   40.2500   34.5320   40.9170 H   0  0  0  0  0  0  0  0  0  0  0  0
   40.8900   32.1220   40.5810 H   0  0  0  0  0  0  0  0  0  0  0  0
  1  4  1  0  0  0  0
  1  2  1  0  0  0  0
  3  1  1  0  0  0  0
  4 15  1  0  0  0  0
  5  7  2  0  0  0  0
  5  4  1  0  0  0  0
  6  5  1  0  0  0  0
  7  8  1  0  0  0  0
  8 15  2  0  0  0  0
  8  9  1  0  0  0  0
  9 11  2  0  0  0  0
 10  9  1  0  0  0  0
 11 12  1  0  0  0  0
 12 13  1  0  0  0  0
 14 12  2  0  0  0  0
 15 14  1  0  0  0  0
 16 23  1  0  0  0  0
 16  1  1  0  0  0  0
 17 16  1  0  0  0  0
 18 16  1  0  0  0  0
 19 25  1  0  0  0  0
 19 20  1  0  0  0  0
 20 26  1  0  0  0  0
 21 20  2  0  0  0  0
 21 27  1  0  0  0  0
 22 21  1  0  0  0  0
 23 24  1  0  0  0  0
 23 22  2  0  0  0  0
 24 19  2  0  0  0  0
M  END
>  <minimizedAffinity>
-4.27586222

$$$$

 OpenBabel03242511403D

 27 29  0  0  0  0  0  0  0  0999 V2000
   38.4330   30.8200   40.6810 C   0  0  0  0  0  0  0  0  0  0  0  0
   38.4630   30.0480   39.8980 H   0  0  0  0  0  0  0  0  0  0  0  0
   37.3750   31.1160   40.8670 H   0  0  0  0  0  0  0  0  0  0  0  0
   39.2100   31.9790   40.2620 N   0  0  0  0  0  0  0  0  0  0  0  0
   39.1660   33.1530   40.9210 C   0  0  0  0  0  0  0  0  0  0  0  0
   38.5780   33.3930   41.8140 H   0  0  0  0  0  0  0  0  0  0  0  0
   39.9880   34.0550   40.3120 N   0  0  0  0  0  0  0  0  0  0  0  0
   40.5660   33.4410   39.2410 C   0  0  0  0  0  0  0  0  0  0  0  0
   41.4620   33.7860   38.2470 C   0  0  0  0  0  0  0  0  0  0  0  0
   41.8200   34.8050   38.3030 H   0  0  0  0  0  0  0  0  0  0  0  0
   41.8120   32.8670   37.3190 N   0  0  0  0  0  0  0  0  0  0  0  0
   41.3270   31.6330   37.3180 C   0  0  0  0  0  0  0  0  0  0  0  0
   41.6800   30.9870   36.5260 H   0  0  0  0  0  0  0  0  0  0  0  0
   40.4400   31.2590   38.2850 N   0  0  0  0  0  0  0  0  0  0  0  0
   40.0570   32.1470   39.2420 C   0  0  0  0  0  0  0  0  0  0  0  0
   39.0570   30.3230   41.9810 C   0  0  0  0  0  0  0  0  0  0  0  0
   38.9850   31.0920   42.7470 H   0  0  0  0  0  0  0  0  0  0  0  0
   40.0890   29.9950   41.7830 H   0  0  0  0  0  0  0  0  0  0  0  0
   36.9670   27.7670   43.6800 C   0  0  0  0  0  0  0  0  0  0  0  0
   36.9470   26.7300   42.7190 C   0  0  0  0  0  0  0  0  0  0  0  0
   37.6430   26.9480   41.5410 C   0  0  0  0  0  0  0  0  0  0  0  0
   38.2970   28.1210   41.3710 N   0  0  0  0  0  0  0  0  0  0  0  0
   38.2910   29.0960   42.3220 C   0  0  0  0  0  0  0  0  0  0  0  0
   37.6280   28.9130   43.4690 N   0  0  0  0  0  0  0  0  0  0  0  0
   36.4360   27.6330   44.6080 H   0  0  0  0  0  0  0  0  0  0  0  0
   36.3870   25.8090   42.9450 H   0  0  0  0  0  0  0  0  0  0  0  0
   37.6470   26.1840   40.7990 H   0  0  0  0  0  0  0  0  0  0  0  0
  1  3  1  0  0  0  0
  1 16  1  0  0  0  0
  2  1  1  0  0  0  0
  4  1  1  0  0  0  0
  4  5  1  0  0  0  0
  5  6  1  0  0  0  0
  7  5  2  0  0  0  0
  8 15  1  0  0  0  0
  8  7  1  0  0  0  0
  9 10  1  0  0  0  0
  9  8  2  0  0  0  0
 11  9  1  0  0  0  0
 12 11  2  0  0  0  0
 12 14  1  0  0  0  0
 13 12  1  0  0  0  0
 14 15  2  0  0  0  0
 15  4  1  0  0  0  0
 16 23  1  0  0  0  0
 16 17  1  0  0  0  0
 18 16  1  0  0  0  0
 19 25  1  0  0  0  0
 20 26  1  0  0  0  0
 20 19  2  0  0  0  0
 21 20  1  0  0  0  0
 22 21  2  0  0  0  0
 22 23  1  0  0  0  0
 23 24  2  0  0  0  0
 24 19  1  0  0  0  0
 27 21  1  0  0  0  0
M  END
>  <minimizedAffinity>
-4.22831631

$$$$
