
 OpenBabel03252502013D

 37 41  0  0  0  0  0  0  0  0999 V2000
   47.7320   32.3040   48.2870 C   0  0  0  0  0  0  0  0  0  0  0  0
   47.4180   30.9640   48.3660 C   0  0  0  0  0  0  0  0  0  0  0  0
   46.5500   30.4940   47.4250 C   0  0  0  0  0  0  0  0  0  0  0  0
   46.0480   31.3130   46.4900 N   0  0  0  0  0  0  0  0  0  0  0  0
   46.3570   32.6110   46.4210 C   0  0  0  0  0  0  0  0  0  0  0  0
   47.2020   33.0670   47.3350 N   0  0  0  0  0  0  0  0  0  0  0  0
   48.4320   32.6800   49.0450 H   0  0  0  0  0  0  0  0  0  0  0  0
   46.1560   29.1570   47.4020 N   0  0  0  0  0  0  0  0  0  0  0  0
   45.0540   28.5600   47.8930 C   0  0  0  0  0  0  0  0  0  0  0  0
   44.2540   29.0670   48.4170 H   0  0  0  0  0  0  0  0  0  0  0  0
   45.0930   27.2390   47.6370 N   0  0  0  0  0  0  0  0  0  0  0  0
   46.2300   26.9620   46.9720 C   0  0  0  0  0  0  0  0  0  0  0  0
   46.7510   25.7840   46.4780 C   0  0  0  0  0  0  0  0  0  0  0  0
   46.1920   24.8620   46.6180 H   0  0  0  0  0  0  0  0  0  0  0  0
   47.9370   25.8640   45.8500 N   0  0  0  0  0  0  0  0  0  0  0  0
   48.6020   27.0310   45.6960 C   0  0  0  0  0  0  0  0  0  0  0  0
   49.5640   27.0280   45.1740 H   0  0  0  0  0  0  0  0  0  0  0  0
   48.0740   28.1580   46.1820 N   0  0  0  0  0  0  0  0  0  0  0  0
   46.8790   28.1500   46.8290 C   0  0  0  0  0  0  0  0  0  0  0  0
   45.9320   33.6720   45.4980 C   0  0  0  0  0  0  0  0  0  0  0  0
   44.9430   34.5530   45.7750 N   0  0  0  0  0  0  0  0  0  0  0  0
   44.5290   35.5260   44.9680 C   0  0  0  0  0  0  0  0  0  0  0  0
   45.1150   35.6850   43.7630 N   0  0  0  0  0  0  0  0  0  0  0  0
   46.1140   34.8700   43.3680 C   0  0  0  0  0  0  0  0  0  0  0  0
   46.7120   35.0390   42.1320 C   0  0  0  0  0  0  0  0  0  0  0  0
   47.7280   34.2160   41.7270 C   0  0  0  0  0  0  0  0  0  0  0  0
   48.1260   33.2220   42.5910 C   0  0  0  0  0  0  0  0  0  0  0  0
   47.5090   33.0860   43.8070 C   0  0  0  0  0  0  0  0  0  0  0  0
   46.4900   33.8830   44.2610 C   0  0  0  0  0  0  0  0  0  0  0  0
   43.7260   36.1750   45.2930 H   0  0  0  0  0  0  0  0  0  0  0  0
   46.3790   35.8300   41.4710 H   0  0  0  0  0  0  0  0  0  0  0  0
   48.2280   34.3030   40.7740 H   0  0  0  0  0  0  0  0  0  0  0  0
   48.9240   32.5440   42.3210 H   0  0  0  0  0  0  0  0  0  0  0  0
   47.8620   32.2810   44.4590 H   0  0  0  0  0  0  0  0  0  0  0  0
   47.9780   30.1530   49.3710 N   0  0  0  0  0  0  0  0  0  0  0  0
   47.4900   29.9630   50.2720 H   0  0  0  0  0  0  0  0  0  0  0  0
   48.9060   29.6550   49.3630 H   0  0  0  0  0  0  0  0  0  0  0  0
  1  2  1  0  0  0  0
  1  7  1  0  0  0  0
  2 35  1  0  0  0  0
  3  2  2  0  0  0  0
  4  3  1  0  0  0  0
  5  4  2  0  0  0  0
  5  6  1  0  0  0  0
  6  1  2  0  0  0  0
  8  3  1  0  0  0  0
  8  9  1  0  0  0  0
  9 10  1  0  0  0  0
 11  9  2  0  0  0  0
 12 11  1  0  0  0  0
 13 14  1  0  0  0  0
 13 12  2  0  0  0  0
 15 13  1  0  0  0  0
 16 15  2  0  0  0  0
 16 18  1  0  0  0  0
 17 16  1  0  0  0  0
 18 19  2  0  0  0  0
 19 12  1  0  0  0  0
 19  8  1  0  0  0  0
 20 21  1  0  0  0  0
 20  5  1  0  0  0  0
 22 30  1  0  0  0  0
 22 21  2  0  0  0  0
 23 22  1  0  0  0  0
 24 23  2  0  0  0  0
 24 29  1  0  0  0  0
 25 24  1  0  0  0  0
 26 25  2  0  0  0  0
 26 27  1  0  0  0  0
 27 28  2  0  0  0  0
 28 29  1  0  0  0  0
 28 34  1  0  0  0  0
 29 20  2  0  0  0  0
 31 25  1  0  0  0  0
 32 26  1  0  0  0  0
 33 27  1  0  0  0  0
 35 36  1  0  0  0  0
 37 35  1  0  0  0  0
M  END
>  <minimizedAffinity>
-6.63133621

>  <minimizedRMSD>
0.215948865

$$$$
