
 OpenBabel03252508253D

 44 49  0  0  1  0  0  0  0  0999 V2000
   46.1810   32.3600   45.6120 C   0  0  1  0  0  0  0  0  0  0  0  0
   46.7330   32.7160   46.9280 C   0  0  0  0  0  0  0  0  0  0  0  0
   45.3540   31.9760   46.7360 C   0  0  2  0  0  0  0  0  0  0  0  0
   46.9850   31.7050   45.1170 H   0  0  0  0  0  0  0  0  0  0  0  0
   47.4880   32.1440   47.4800 H   0  0  0  0  0  0  0  0  0  0  0  0
   46.6280   33.7770   47.2080 H   0  0  0  0  0  0  0  0  0  0  0  0
   44.6040   32.6650   47.2420 H   0  0  0  0  0  0  0  0  0  0  0  0
   45.1850   30.6110   47.2420 C   0  0  0  0  0  0  0  0  0  0  0  0
   45.1360   30.2070   48.5390 C   0  0  0  0  0  0  0  0  0  0  0  0
   45.0990   28.8910   48.9780 C   0  0  0  0  0  0  0  0  0  0  0  0
   45.1150   27.9010   47.9860 C   0  0  0  0  0  0  0  0  0  0  0  0
   45.1610   28.2860   46.6460 C   0  0  0  0  0  0  0  0  0  0  0  0
   45.1110   27.2780   45.7020 C   0  0  0  0  0  0  0  0  0  0  0  0
   45.0830   27.6190   44.3550 C   0  0  0  0  0  0  0  0  0  0  0  0
   45.1010   28.9390   43.9620 C   0  0  0  0  0  0  0  0  0  0  0  0
   45.1520   29.9040   44.9410 C   0  0  0  0  0  0  0  0  0  0  0  0
   45.1910   29.6150   46.2970 C   0  0  0  0  0  0  0  0  0  0  0  0
   45.1270   31.0090   49.2740 H   0  0  0  0  0  0  0  0  0  0  0  0
   45.0610   28.6440   50.0310 H   0  0  0  0  0  0  0  0  0  0  0  0
   45.0900   26.8680   48.3110 H   0  0  0  0  0  0  0  0  0  0  0  0
   45.0950   26.2490   46.0360 H   0  0  0  0  0  0  0  0  0  0  0  0
   45.0460   26.7380   43.6930 H   0  0  0  0  0  0  0  0  0  0  0  0
   45.0700   29.0000   42.8920 H   0  0  0  0  0  0  0  0  0  0  0  0
   45.0710   30.8070   44.4090 H   0  0  0  0  0  0  0  0  0  0  0  0
   44.8580   35.5590   44.3350 C   0  0  0  0  0  0  0  0  0  0  0  0
   44.7600   35.3060   42.9200 C   0  0  0  0  0  0  0  0  0  0  0  0
   45.1740   34.0140   42.4510 C   0  0  0  0  0  0  0  0  0  0  0  0
   45.6260   33.1130   43.3250 N   0  0  0  0  0  0  0  0  0  0  0  0
   45.6980   33.4130   44.6710 C   0  0  0  0  0  0  0  0  0  0  0  0
   45.3270   34.5930   45.1540 N   0  0  0  0  0  0  0  0  0  0  0  0
   44.5320   36.5450   44.6110 H   0  0  0  0  0  0  0  0  0  0  0  0
   44.3860   36.0750   42.2600 H   0  0  0  0  0  0  0  0  0  0  0  0
   45.0780   33.7550   41.0530 N   0  0  0  0  0  0  0  0  0  0  0  0
   43.9800   33.5940   40.2900 C   0  0  0  0  0  0  0  0  0  0  0  0
   42.9820   33.6530   40.7120 H   0  0  0  0  0  0  0  0  0  0  0  0
   44.2920   33.3630   39.0050 N   0  0  0  0  0  0  0  0  0  0  0  0
   45.6440   33.3730   38.9190 C   0  0  0  0  0  0  0  0  0  0  0  0
   46.5590   33.2030   37.9000 C   0  0  0  0  0  0  0  0  0  0  0  0
   46.1810   33.0090   36.8890 H   0  0  0  0  0  0  0  0  0  0  0  0
   47.8900   33.2750   38.1550 N   0  0  0  0  0  0  0  0  0  0  0  0
   48.3440   33.5130   39.4110 C   0  0  0  0  0  0  0  0  0  0  0  0
   49.4070   33.5710   39.6170 H   0  0  0  0  0  0  0  0  0  0  0  0
   47.4560   33.6850   40.4300 N   0  0  0  0  0  0  0  0  0  0  0  0
   46.1410   33.6190   40.2050 C   0  0  0  0  0  0  0  0  0  0  0  0
  1  4  1  6  0  0  0
  1  3  1  0  0  0  0
  1  2  1  0  0  0  0
  2  6  1  0  0  0  0
  2  5  1  0  0  0  0
  3  2  1  0  0  0  0
  3  8  1  0  0  0  0
  3  7  1  1  0  0  0
  8  9  1  0  0  0  0
  9 10  2  0  0  0  0
  9 18  1  0  0  0  0
 10 19  1  0  0  0  0
 11 20  1  0  0  0  0
 11 10  1  0  0  0  0
 12 11  2  0  0  0  0
 13 21  1  0  0  0  0
 13 12  1  0  0  0  0
 14 13  2  0  0  0  0
 15 14  1  0  0  0  0
 15 16  2  0  0  0  0
 16 17  1  0  0  0  0
 17 12  1  0  0  0  0
 17  8  2  0  0  0  0
 22 14  1  0  0  0  0
 23 15  1  0  0  0  0
 24 16  1  0  0  0  0
 25 31  1  0  0  0  0
 25 30  1  0  0  0  0
 26 25  2  0  0  0  0
 27 26  1  0  0  0  0
 27 28  2  0  0  0  0
 28 29  1  0  0  0  0
 29 30  2  0  0  0  0
 29  1  1  0  0  0  0
 32 26  1  0  0  0  0
 33 27  1  0  0  0  0
 34 35  1  0  0  0  0
 34 33  1  0  0  0  0
 36 34  2  0  0  0  0
 37 36  1  0  0  0  0
 37 44  1  0  0  0  0
 38 40  1  0  0  0  0
 38 37  2  0  0  0  0
 39 38  1  0  0  0  0
 40 41  2  0  0  0  0
 41 42  1  0  0  0  0
 41 43  1  0  0  0  0
 44 43  2  0  0  0  0
 44 33  1  0  0  0  0
M  END
>  <minimizedAffinity>
-4.9676218

>  <minimizedRMSD>
2.0088563

$$$$
