
 OpenBabel03252506343D

 36 39  0  0  1  0  0  0  0  0999 V2000
   44.4810   35.7490   45.0020 C   0  0  0  0  0  0  0  0  0  0  0  0
   45.1120   35.6720   43.7540 C   0  0  0  0  0  0  0  0  0  0  0  0
   45.9930   34.6630   43.5240 C   0  0  0  0  0  0  0  0  0  0  0  0
   46.1990   33.7900   44.5450 N   0  0  0  0  0  0  0  0  0  0  0  0
   45.6030   33.8660   45.7230 C   0  0  0  0  0  0  0  0  0  0  0  0
   44.7240   34.8500   45.9870 N   0  0  0  0  0  0  0  0  0  0  0  0
   45.9140   32.8950   46.6990 N   0  0  0  0  0  0  0  0  0  0  0  0
   45.1430   32.6600   47.9280 C   0  0  0  0  0  0  0  0  0  0  0  0
   46.2450   32.3630   48.9240 C   0  0  0  0  0  0  0  0  0  0  0  0
   47.5120   32.1570   48.1480 C   0  0  0  0  0  0  0  0  0  0  0  0
   47.0000   31.9410   46.7450 C   0  0  1  0  0  0  0  0  0  0  0  0
   43.7660   36.5640   45.1920 H   0  0  0  0  0  0  0  0  0  0  0  0
   46.4600   34.6260   42.5680 H   0  0  0  0  0  0  0  0  0  0  0  0
   44.4360   31.8230   47.8180 H   0  0  0  0  0  0  0  0  0  0  0  0
   44.5670   33.5710   48.1630 H   0  0  0  0  0  0  0  0  0  0  0  0
   45.9730   31.4430   49.5050 H   0  0  0  0  0  0  0  0  0  0  0  0
   46.3400   33.2520   49.5820 H   0  0  0  0  0  0  0  0  0  0  0  0
   48.2030   33.0220   48.2120 H   0  0  0  0  0  0  0  0  0  0  0  0
   48.0510   31.2280   48.4430 H   0  0  0  0  0  0  0  0  0  0  0  0
   47.7380   32.2090   45.9730 H   0  0  0  0  0  0  0  0  0  0  0  0
   44.7650   36.6910   42.8080 N   0  0  0  0  0  0  0  0  0  0  0  0
   44.4090   37.6170   43.1280 H   0  0  0  0  0  0  0  0  0  0  0  0
   44.8690   36.5040   41.7780 H   0  0  0  0  0  0  0  0  0  0  0  0
   46.4290   30.2380   46.5850 S   0  0  0  0  0  0  0  0  0  0  0  0
   43.9490   28.8130   45.6720 H   0  0  0  0  0  0  0  0  0  0  0  0
   44.5390   29.2250   44.9210 N   0  0  0  0  0  0  0  0  0  0  0  0
   45.6910   29.9110   45.0000 C   0  0  0  0  0  0  0  0  0  0  0  0
   46.1120   30.2570   43.7510 N   0  0  0  0  0  0  0  0  0  0  0  0
   45.1860   29.7680   42.8710 C   0  0  0  0  0  0  0  0  0  0  0  0
   44.9790   29.7470   41.5210 C   0  0  0  0  0  0  0  0  0  0  0  0
   45.7440   30.2510   40.9140 H   0  0  0  0  0  0  0  0  0  0  0  0
   43.9210   29.1560   40.9530 N   0  0  0  0  0  0  0  0  0  0  0  0
   42.9860   28.5410   41.6850 C   0  0  0  0  0  0  0  0  0  0  0  0
   42.1830   28.1040   41.1100 H   0  0  0  0  0  0  0  0  0  0  0  0
   43.1360   28.5280   43.0120 N   0  0  0  0  0  0  0  0  0  0  0  0
   44.2050   29.1220   43.6190 C   0  0  0  0  0  0  0  0  0  0  0  0
  1 12  1  0  0  0  0
  1  6  1  0  0  0  0
  2  1  2  0  0  0  0
  3  2  1  0  0  0  0
  3  4  2  0  0  0  0
  4  5  1  0  0  0  0
  5  6  2  0  0  0  0
  5  7  1  0  0  0  0
  7 11  1  0  0  0  0
  7  8  1  0  0  0  0
  8 15  1  0  0  0  0
  8  9  1  0  0  0  0
  9 16  1  0  0  0  0
  9 17  1  0  0  0  0
 10 18  1  0  0  0  0
 10 19  1  0  0  0  0
 10  9  1  0  0  0  0
 11 20  1  6  0  0  0
 11 10  1  0  0  0  0
 13  3  1  0  0  0  0
 14  8  1  0  0  0  0
 21 22  1  0  0  0  0
 21  2  1  0  0  0  0
 23 21  1  0  0  0  0
 24 11  1  0  0  0  0
 26 27  1  0  0  0  0
 26 25  1  0  0  0  0
 27 24  1  0  0  0  0
 28 27  2  0  0  0  0
 29 36  1  0  0  0  0
 29 28  1  0  0  0  0
 30 29  2  0  0  0  0
 31 30  1  0  0  0  0
 32 30  1  0  0  0  0
 32 33  2  0  0  0  0
 33 35  1  0  0  0  0
 34 33  1  0  0  0  0
 35 36  2  0  0  0  0
 36 26  1  0  0  0  0
M  END
>  <minimizedAffinity>
-5.06386614

>  <minimizedRMSD>
0.243509427

$$$$
