
 OpenBabel03252509003D

 48 51  0  0  1  0  0  0  0  0999 V2000
   46.9860   34.2120   43.1240 N   0  0  0  0  0  0  0  0  0  0  0  0
   46.6370   35.5030   42.6450 C   0  0  0  0  0  0  0  0  0  0  0  0
   45.1710   35.8620   42.7880 C   0  0  0  0  0  0  0  0  0  0  0  0
   44.5070   35.2870   44.0060 C   0  0  0  0  0  0  0  0  0  0  0  0
   45.4800   34.5180   44.8680 C   0  0  0  0  0  0  0  0  0  0  0  0
   46.0960   33.4640   43.8790 C   0  0  2  0  0  0  0  0  0  0  0  0
   47.1910   36.2410   43.2860 H   0  0  0  0  0  0  0  0  0  0  0  0
   46.9280   35.7250   41.6170 H   0  0  0  0  0  0  0  0  0  0  0  0
   44.6500   35.4340   41.9020 H   0  0  0  0  0  0  0  0  0  0  0  0
   45.0910   36.9630   42.7090 H   0  0  0  0  0  0  0  0  0  0  0  0
   43.6300   34.6680   43.8040 H   0  0  0  0  0  0  0  0  0  0  0  0
   44.1460   36.1550   44.6260 H   0  0  0  0  0  0  0  0  0  0  0  0
   46.2790   35.1750   45.2480 H   0  0  0  0  0  0  0  0  0  0  0  0
   44.9130   33.9740   45.6400 H   0  0  0  0  0  0  0  0  0  0  0  0
   45.2270   33.0060   43.3710 H   0  0  0  0  0  0  0  0  0  0  0  0
   47.9520   33.5240   42.3150 C   0  0  0  0  0  0  0  0  0  0  0  0
   48.6520   34.2580   41.8920 H   0  0  0  0  0  0  0  0  0  0  0  0
   48.5450   32.8410   42.9460 H   0  0  0  0  0  0  0  0  0  0  0  0
   47.2200   32.7320   41.2680 C   0  0  0  0  0  0  0  0  0  0  0  0
   46.1700   33.0800   41.1730 H   0  0  0  0  0  0  0  0  0  0  0  0
   47.1930   31.6500   41.4640 H   0  0  0  0  0  0  0  0  0  0  0  0
   49.3110   32.2600   38.1760 C   0  0  0  0  0  0  0  0  0  0  0  0
   48.7030   32.0360   39.4270 C   0  0  0  0  0  0  0  0  0  0  0  0
   47.8560   32.9810   39.9450 C   0  0  0  0  0  0  0  0  0  0  0  0
   47.6440   34.0910   39.2190 N   0  0  0  0  0  0  0  0  0  0  0  0
   48.2240   34.3030   38.0280 C   0  0  0  0  0  0  0  0  0  0  0  0
   49.0630   33.3870   37.4950 N   0  0  0  0  0  0  0  0  0  0  0  0
   49.9760   31.4930   37.7940 H   0  0  0  0  0  0  0  0  0  0  0  0
   48.9360   31.1100   39.9350 H   0  0  0  0  0  0  0  0  0  0  0  0
   47.9350   35.2520   37.5900 H   0  0  0  0  0  0  0  0  0  0  0  0
   46.7570   32.6120   44.7580 O   0  0  0  0  0  0  0  0  0  0  0  0
   45.0330   30.8940   43.6870 O   0  0  0  0  0  0  0  0  0  0  0  0
   46.1650   31.0380   44.7030 P   0  0  2  0  0  0  0  0  0  0  0  0
   45.4300   30.7540   46.2220 O   0  0  0  0  0  0  0  0  0  0  0  0
   46.1610   30.8260   46.9030 H   0  0  0  0  0  0  0  0  0  0  0  0
   47.3620   29.9050   44.5040 O   0  0  0  0  0  0  0  0  0  0  0  0
   47.4170   28.4270   42.1980 H   0  0  0  0  0  0  0  0  0  0  0  0
   48.2000   29.0710   42.4710 N   0  0  0  0  0  0  0  0  0  0  0  0
   48.3620   29.8790   43.5560 C   0  0  0  0  0  0  0  0  0  0  0  0
   49.5590   30.5170   43.4440 N   0  0  0  0  0  0  0  0  0  0  0  0
   50.1710   30.1240   42.2910 C   0  0  0  0  0  0  0  0  0  0  0  0
   51.3820   30.4720   41.7240 C   0  0  0  0  0  0  0  0  0  0  0  0
   51.9750   31.1870   42.2790 H   0  0  0  0  0  0  0  0  0  0  0  0
   51.6990   29.8920   40.5510 N   0  0  0  0  0  0  0  0  0  0  0  0
   50.8500   29.0160   39.9850 C   0  0  0  0  0  0  0  0  0  0  0  0
   51.1080   28.5490   39.0380 H   0  0  0  0  0  0  0  0  0  0  0  0
   49.6560   28.6620   40.5280 N   0  0  0  0  0  0  0  0  0  0  0  0
   49.2990   29.2270   41.7130 C   0  0  0  0  0  0  0  0  0  0  0  0
  1  6  1  0  0  0  0
  2  3  1  0  0  0  0
  2  1  1  0  0  0  0
  2  7  1  0  0  0  0
  3  4  1  0  0  0  0
  4 12  1  0  0  0  0
  4  5  1  0  0  0  0
  5 13  1  0  0  0  0
  5 14  1  0  0  0  0
  6 15  1  6  0  0  0
  6 31  1  0  0  0  0
  6  5  1  0  0  0  0
  8  2  1  0  0  0  0
  9  3  1  0  0  0  0
 10  3  1  0  0  0  0
 11  4  1  0  0  0  0
 16 18  1  0  0  0  0
 16  1  1  0  0  0  0
 17 16  1  0  0  0  0
 19 21  1  0  0  0  0
 19 16  1  0  0  0  0
 20 19  1  0  0  0  0
 22 23  1  0  0  0  0
 23 29  1  0  0  0  0
 23 24  2  0  0  0  0
 24 19  1  0  0  0  0
 25 24  1  0  0  0  0
 26 25  2  0  0  0  0
 27 26  1  0  0  0  0
 27 22  2  0  0  0  0
 28 22  1  0  0  0  0
 30 26  1  0  0  0  0
 33 32  2  6  0  0  0
 33 31  1  0  0  0  0
 33 34  1  0  0  0  0
 34 35  1  0  0  0  0
 36 33  1  0  0  0  0
 37 38  1  0  0  0  0
 38 39  1  0  0  0  0
 39 36  1  0  0  0  0
 40 39  2  0  0  0  0
 41 40  1  0  0  0  0
 42 43  1  0  0  0  0
 42 41  1  0  0  0  0
 44 42  2  0  0  0  0
 45 47  2  0  0  0  0
 45 44  1  0  0  0  0
 46 45  1  0  0  0  0
 47 48  1  0  0  0  0
 48 41  2  0  0  0  0
 48 38  1  0  0  0  0
M  END
>  <minimizedAffinity>
-3.8547008

>  <minimizedRMSD>
1.61544394

$$$$
