
 OpenBabel03252508303D

 42 46  0  0  1  0  0  0  0  0999 V2000
   38.9980   31.6160   39.3130 N   0  0  0  0  0  0  0  0  0  0  0  0
   37.7210   31.0520   39.7610 C   0  0  2  0  0  0  0  0  0  0  0  0
   36.8290   32.0750   40.3700 C   0  0  0  0  0  0  0  0  0  0  0  0
   37.2900   33.4290   40.1290 N   0  0  0  0  0  0  0  0  0  0  0  0
   38.6490   33.6610   40.4540 C   0  0  0  0  0  0  0  0  0  0  0  0
   39.4740   32.4000   40.4760 C   0  0  2  0  0  0  0  0  0  0  0  0
   38.7700   32.2900   38.5340 H   0  0  0  0  0  0  0  0  0  0  0  0
   37.2250   30.5600   38.9110 H   0  0  0  0  0  0  0  0  0  0  0  0
   36.7590   32.0780   41.4720 H   0  0  0  0  0  0  0  0  0  0  0  0
   35.7860   32.0500   39.9370 H   0  0  0  0  0  0  0  0  0  0  0  0
   36.6850   34.0830   40.6650 H   0  0  0  0  0  0  0  0  0  0  0  0
   38.8050   34.2570   41.3590 H   0  0  0  0  0  0  0  0  0  0  0  0
   39.0820   34.2860   39.6190 H   0  0  0  0  0  0  0  0  0  0  0  0
   39.1680   31.8590   41.4020 H   0  0  0  0  0  0  0  0  0  0  0  0
   40.8790   32.6210   40.4350 N   0  0  0  0  0  0  0  0  0  0  0  0
   41.7290   32.3140   41.4590 C   0  0  0  0  0  0  0  0  0  0  0  0
   41.4150   31.8690   42.4160 H   0  0  0  0  0  0  0  0  0  0  0  0
   42.9890   32.6210   41.1600 N   0  0  0  0  0  0  0  0  0  0  0  0
   42.9570   33.1400   39.9110 C   0  0  0  0  0  0  0  0  0  0  0  0
   43.9720   33.6240   39.1090 C   0  0  0  0  0  0  0  0  0  0  0  0
   44.9760   33.6010   39.5080 H   0  0  0  0  0  0  0  0  0  0  0  0
   43.6450   34.0870   37.8870 N   0  0  0  0  0  0  0  0  0  0  0  0
   42.3550   34.0860   37.4450 C   0  0  0  0  0  0  0  0  0  0  0  0
   42.2150   34.4830   36.4490 H   0  0  0  0  0  0  0  0  0  0  0  0
   41.3610   33.6070   38.2480 N   0  0  0  0  0  0  0  0  0  0  0  0
   41.6310   33.1320   39.4720 C   0  0  0  0  0  0  0  0  0  0  0  0
   38.8880   28.3470   41.8500 C   0  0  0  0  0  0  0  0  0  0  0  0
   37.8690   28.9380   42.5990 C   0  0  0  0  0  0  0  0  0  0  0  0
   37.3220   29.9990   41.9000 C   0  0  0  0  0  0  0  0  0  0  0  0
   38.0090   30.0330   40.7600 N   0  0  0  0  0  0  0  0  0  0  0  0
   38.9210   29.0710   40.7290 N   0  0  0  0  0  0  0  0  0  0  0  0
   37.6440   28.5070   43.5950 H   0  0  0  0  0  0  0  0  0  0  0  0
   36.5250   30.4520   42.4790 H   0  0  0  0  0  0  0  0  0  0  0  0
   41.1600   25.9780   43.6790 C   0  0  0  0  0  0  0  0  0  0  0  0
   40.4480   27.1850   43.4070 C   0  0  0  0  0  0  0  0  0  0  0  0
   39.6810   27.1900   42.2670 C   0  0  0  0  0  0  0  0  0  0  0  0
   39.6310   26.0830   41.4680 N   0  0  0  0  0  0  0  0  0  0  0  0
   40.3240   24.9590   41.7680 C   0  0  0  0  0  0  0  0  0  0  0  0
   41.0740   24.9320   42.8690 N   0  0  0  0  0  0  0  0  0  0  0  0
   41.7480   26.0570   44.6080 H   0  0  0  0  0  0  0  0  0  0  0  0
   40.4880   28.0600   44.0410 H   0  0  0  0  0  0  0  0  0  0  0  0
   40.2440   24.1230   41.1010 H   0  0  0  0  0  0  0  0  0  0  0  0
  1  2  1  0  0  0  0
  1  6  1  0  0  0  0
  2  8  1  6  0  0  0
  2  3  1  0  0  0  0
  2 30  1  0  0  0  0
  3  9  1  0  0  0  0
  4  3  1  0  0  0  0
  4  5  1  0  0  0  0
  4 11  1  0  0  0  0
  5  6  1  0  0  0  0
  5 12  1  0  0  0  0
  6 14  1  1  0  0  0
  7  1  1  0  0  0  0
 10  3  1  0  0  0  0
 13  5  1  0  0  0  0
 15  6  1  0  0  0  0
 15 16  1  0  0  0  0
 16 17  1  0  0  0  0
 18 16  2  0  0  0  0
 19 18  1  0  0  0  0
 20 21  1  0  0  0  0
 20 19  2  0  0  0  0
 22 20  1  0  0  0  0
 23 22  2  0  0  0  0
 23 25  1  0  0  0  0
 24 23  1  0  0  0  0
 25 26  2  0  0  0  0
 26 19  1  0  0  0  0
 26 15  1  0  0  0  0
 27 36  1  0  0  0  0
 27 28  1  0  0  0  0
 28 32  1  0  0  0  0
 29 33  1  0  0  0  0
 29 28  2  0  0  0  0
 30 29  1  0  0  0  0
 31 30  1  0  0  0  0
 31 27  2  0  0  0  0
 34 40  1  0  0  0  0
 35 34  1  0  0  0  0
 35 41  1  0  0  0  0
 36 35  2  0  0  0  0
 37 38  2  0  0  0  0
 37 36  1  0  0  0  0
 38 39  1  0  0  0  0
 39 34  2  0  0  0  0
 42 38  1  0  0  0  0
M  END
>  <minimizedAffinity>
-6.01147032

$$$$

 OpenBabel03252508303D

 42 46  0  0  1  0  0  0  0  0999 V2000
   38.6530   32.2890   38.1900 N   0  0  0  0  0  0  0  0  0  0  0  0
   37.5460   31.5030   38.7460 C   0  0  2  0  0  0  0  0  0  0  0  0
   36.9070   32.1640   39.9150 C   0  0  0  0  0  0  0  0  0  0  0  0
   37.3220   33.5460   40.0660 N   0  0  0  0  0  0  0  0  0  0  0  0
   38.7230   33.7520   40.0500 C   0  0  0  0  0  0  0  0  0  0  0  0
   39.4750   32.6370   39.3720 C   0  0  2  0  0  0  0  0  0  0  0  0
   38.2270   33.1770   37.8130 H   0  0  0  0  0  0  0  0  0  0  0  0
   36.8060   31.3110   37.9540 H   0  0  0  0  0  0  0  0  0  0  0  0
   37.1660   31.7650   40.9120 H   0  0  0  0  0  0  0  0  0  0  0  0
   35.7830   32.2150   39.8200 H   0  0  0  0  0  0  0  0  0  0  0  0
   36.9230   33.9140   40.9530 H   0  0  0  0  0  0  0  0  0  0  0  0
   39.1570   33.9940   41.0250 H   0  0  0  0  0  0  0  0  0  0  0  0
   38.9110   34.6680   39.4170 H   0  0  0  0  0  0  0  0  0  0  0  0
   39.4390   31.7770   40.0810 H   0  0  0  0  0  0  0  0  0  0  0  0
   40.8130   32.9680   39.0150 N   0  0  0  0  0  0  0  0  0  0  0  0
   41.4830   34.0560   39.4950 C   0  0  0  0  0  0  0  0  0  0  0  0
   41.0580   34.7860   40.2030 H   0  0  0  0  0  0  0  0  0  0  0  0
   42.7170   34.1300   39.0020 N   0  0  0  0  0  0  0  0  0  0  0  0
   42.8520   33.0630   38.1820 C   0  0  0  0  0  0  0  0  0  0  0  0
   43.9200   32.6470   37.4110 C   0  0  0  0  0  0  0  0  0  0  0  0
   44.8190   33.2470   37.4400 H   0  0  0  0  0  0  0  0  0  0  0  0
   43.7720   31.5270   36.6790 N   0  0  0  0  0  0  0  0  0  0  0  0
   42.6080   30.8170   36.6880 C   0  0  0  0  0  0  0  0  0  0  0  0
   42.6070   29.9360   36.0600 H   0  0  0  0  0  0  0  0  0  0  0  0
   41.5590   31.2390   37.4520 N   0  0  0  0  0  0  0  0  0  0  0  0
   41.6530   32.3470   38.2010 C   0  0  0  0  0  0  0  0  0  0  0  0
   38.6940   28.4920   40.3790 C   0  0  0  0  0  0  0  0  0  0  0  0
   38.9670   28.2700   39.0280 C   0  0  0  0  0  0  0  0  0  0  0  0
   38.5790   29.3670   38.2800 C   0  0  0  0  0  0  0  0  0  0  0  0
   38.0830   30.2180   39.1750 N   0  0  0  0  0  0  0  0  0  0  0  0
   38.1500   29.7110   40.3980 N   0  0  0  0  0  0  0  0  0  0  0  0
   39.4320   27.3040   38.7460 H   0  0  0  0  0  0  0  0  0  0  0  0
   38.7980   29.1970   37.2320 H   0  0  0  0  0  0  0  0  0  0  0  0
   39.5930   26.9290   43.6760 C   0  0  0  0  0  0  0  0  0  0  0  0
   39.3480   27.9650   42.7240 C   0  0  0  0  0  0  0  0  0  0  0  0
   38.9840   27.5550   41.4650 C   0  0  0  0  0  0  0  0  0  0  0  0
   38.8730   26.2230   41.1810 N   0  0  0  0  0  0  0  0  0  0  0  0
   39.1150   25.2750   42.1170 C   0  0  0  0  0  0  0  0  0  0  0  0
   39.4700   25.6510   43.3450 N   0  0  0  0  0  0  0  0  0  0  0  0
   39.8790   27.3410   44.6570 H   0  0  0  0  0  0  0  0  0  0  0  0
   39.4360   29.0190   42.9510 H   0  0  0  0  0  0  0  0  0  0  0  0
   39.0110   24.2470   41.8330 H   0  0  0  0  0  0  0  0  0  0  0  0
  1  2  1  0  0  0  0
  1  6  1  0  0  0  0
  2  8  1  6  0  0  0
  2 30  1  0  0  0  0
  2  3  1  0  0  0  0
  3  4  1  0  0  0  0
  3  9  1  0  0  0  0
  4 11  1  0  0  0  0
  5  4  1  0  0  0  0
  5 12  1  0  0  0  0
  6  5  1  0  0  0  0
  6 14  1  1  0  0  0
  7  1  1  0  0  0  0
 10  3  1  0  0  0  0
 13  5  1  0  0  0  0
 15  6  1  0  0  0  0
 15 16  1  0  0  0  0
 16 17  1  0  0  0  0
 18 16  2  0  0  0  0
 19 26  1  0  0  0  0
 19 18  1  0  0  0  0
 20 21  1  0  0  0  0
 20 19  2  0  0  0  0
 22 23  2  0  0  0  0
 22 20  1  0  0  0  0
 23 25  1  0  0  0  0
 24 23  1  0  0  0  0
 25 26  2  0  0  0  0
 26 15  1  0  0  0  0
 27 31  2  0  0  0  0
 27 36  1  0  0  0  0
 28 27  1  0  0  0  0
 29 28  2  0  0  0  0
 29 30  1  0  0  0  0
 30 31  1  0  0  0  0
 32 28  1  0  0  0  0
 33 29  1  0  0  0  0
 34 40  1  0  0  0  0
 35 41  1  0  0  0  0
 35 34  2  0  0  0  0
 36 35  1  0  0  0  0
 37 36  2  0  0  0  0
 37 38  1  0  0  0  0
 38 39  2  0  0  0  0
 39 34  1  0  0  0  0
 42 38  1  0  0  0  0
M  END
>  <minimizedAffinity>
-5.89568329

$$$$

 OpenBabel03252508303D

 42 46  0  0  1  0  0  0  0  0999 V2000
   39.1060   31.4150   39.6030 N   0  0  0  0  0  0  0  0  0  0  0  0
   37.7410   30.8920   39.7300 C   0  0  2  0  0  0  0  0  0  0  0  0
   36.7700   31.9310   40.1660 C   0  0  0  0  0  0  0  0  0  0  0  0
   37.3210   33.2710   40.0920 N   0  0  0  0  0  0  0  0  0  0  0  0
   38.5790   33.4340   40.7220 C   0  0  0  0  0  0  0  0  0  0  0  0
   39.3330   32.1390   40.8750 C   0  0  2  0  0  0  0  0  0  0  0  0
   39.0820   32.1230   38.8210 H   0  0  0  0  0  0  0  0  0  0  0  0
   37.4340   30.4490   38.7700 H   0  0  0  0  0  0  0  0  0  0  0  0
   36.4540   31.9010   41.2240 H   0  0  0  0  0  0  0  0  0  0  0  0
   35.8520   31.9660   39.5090 H   0  0  0  0  0  0  0  0  0  0  0  0
   36.6330   33.9320   40.5060 H   0  0  0  0  0  0  0  0  0  0  0  0
   38.5470   33.9920   41.6630 H   0  0  0  0  0  0  0  0  0  0  0  0
   39.2090   34.0670   40.0320 H   0  0  0  0  0  0  0  0  0  0  0  0
   38.8090   31.5810   41.6850 H   0  0  0  0  0  0  0  0  0  0  0  0
   40.7180   32.3000   41.1600 N   0  0  0  0  0  0  0  0  0  0  0  0
   41.4620   33.3680   40.7460 C   0  0  0  0  0  0  0  0  0  0  0  0
   41.0680   34.2070   40.1510 H   0  0  0  0  0  0  0  0  0  0  0  0
   42.7270   33.2700   41.1470 N   0  0  0  0  0  0  0  0  0  0  0  0
   42.8070   32.1110   41.8400 C   0  0  0  0  0  0  0  0  0  0  0  0
   43.8770   31.5130   42.4770 C   0  0  0  0  0  0  0  0  0  0  0  0
   44.8280   32.0240   42.4410 H   0  0  0  0  0  0  0  0  0  0  0  0
   43.6640   30.3380   43.1000 N   0  0  0  0  0  0  0  0  0  0  0  0
   42.4350   29.7460   43.1070 C   0  0  0  0  0  0  0  0  0  0  0  0
   42.3870   28.8050   43.6380 H   0  0  0  0  0  0  0  0  0  0  0  0
   41.3870   30.3460   42.4730 N   0  0  0  0  0  0  0  0  0  0  0  0
   41.5430   31.5170   41.8390 C   0  0  0  0  0  0  0  0  0  0  0  0
   38.2750   28.0330   41.8720 C   0  0  0  0  0  0  0  0  0  0  0  0
   37.2280   28.7240   42.4840 C   0  0  0  0  0  0  0  0  0  0  0  0
   36.9130   29.8540   41.7490 C   0  0  0  0  0  0  0  0  0  0  0  0
   37.7620   29.8290   40.7250 N   0  0  0  0  0  0  0  0  0  0  0  0
   38.5550   28.7680   40.7940 N   0  0  0  0  0  0  0  0  0  0  0  0
   36.8100   28.3050   43.4210 H   0  0  0  0  0  0  0  0  0  0  0  0
   36.0950   30.3860   42.2220 H   0  0  0  0  0  0  0  0  0  0  0  0
   40.3250   25.4540   43.6800 C   0  0  0  0  0  0  0  0  0  0  0  0
   39.8600   26.7510   43.3040 C   0  0  0  0  0  0  0  0  0  0  0  0
   38.8630   26.7840   42.3590 C   0  0  0  0  0  0  0  0  0  0  0  0
   38.3720   25.6220   41.8360 N   0  0  0  0  0  0  0  0  0  0  0  0
   38.8460   24.4140   42.2240 C   0  0  0  0  0  0  0  0  0  0  0  0
   39.8130   24.3580   43.1380 N   0  0  0  0  0  0  0  0  0  0  0  0
   41.1220   25.5160   44.4390 H   0  0  0  0  0  0  0  0  0  0  0  0
   40.2480   27.6700   43.7200 H   0  0  0  0  0  0  0  0  0  0  0  0
   38.4200   23.5370   41.7760 H   0  0  0  0  0  0  0  0  0  0  0  0
  1  2  1  0  0  0  0
  1  6  1  0  0  0  0
  2  8  1  6  0  0  0
  2  3  1  0  0  0  0
  2 30  1  0  0  0  0
  3  9  1  0  0  0  0
  4  3  1  0  0  0  0
  4 11  1  0  0  0  0
  4  5  1  0  0  0  0
  5  6  1  0  0  0  0
  5 12  1  0  0  0  0
  6 15  1  0  0  0  0
  6 14  1  1  0  0  0
  7  1  1  0  0  0  0
 10  3  1  0  0  0  0
 13  5  1  0  0  0  0
 15 26  1  0  0  0  0
 16 18  2  0  0  0  0
 16 15  1  0  0  0  0
 17 16  1  0  0  0  0
 18 19  1  0  0  0  0
 19 20  1  0  0  0  0
 20 22  2  0  0  0  0
 21 20  1  0  0  0  0
 22 23  1  0  0  0  0
 23 24  1  0  0  0  0
 25 23  2  0  0  0  0
 26 19  2  0  0  0  0
 26 25  1  0  0  0  0
 27 36  1  0  0  0  0
 27 28  1  0  0  0  0
 28 32  1  0  0  0  0
 29 33  1  0  0  0  0
 29 28  2  0  0  0  0
 30 31  1  0  0  0  0
 30 29  1  0  0  0  0
 31 27  2  0  0  0  0
 34 40  1  0  0  0  0
 35 34  1  0  0  0  0
 35 41  1  0  0  0  0
 36 35  2  0  0  0  0
 37 38  2  0  0  0  0
 37 36  1  0  0  0  0
 38 39  1  0  0  0  0
 39 34  2  0  0  0  0
 42 38  1  0  0  0  0
M  END
>  <minimizedAffinity>
-5.79759359

$$$$

 OpenBabel03252508303D

 42 46  0  0  1  0  0  0  0  0999 V2000
   39.2060   32.6560   38.4580 N   0  0  0  0  0  0  0  0  0  0  0  0
   37.9210   31.9490   38.4220 C   0  0  2  0  0  0  0  0  0  0  0  0
   36.9490   32.4800   39.4140 C   0  0  0  0  0  0  0  0  0  0  0  0
   37.3750   33.7430   39.9880 N   0  0  0  0  0  0  0  0  0  0  0  0
   38.6980   33.7490   40.4960 C   0  0  0  0  0  0  0  0  0  0  0  0
   39.5650   32.6740   39.8950 C   0  0  2  0  0  0  0  0  0  0  0  0
   39.0090   33.6470   38.1560 H   0  0  0  0  0  0  0  0  0  0  0  0
   37.5080   32.0030   37.4030 H   0  0  0  0  0  0  0  0  0  0  0  0
   36.8000   31.8820   40.3310 H   0  0  0  0  0  0  0  0  0  0  0  0
   35.9420   32.7040   38.9540 H   0  0  0  0  0  0  0  0  0  0  0  0
   36.7090   34.0030   40.7420 H   0  0  0  0  0  0  0  0  0  0  0  0
   38.7640   33.7540   41.5880 H   0  0  0  0  0  0  0  0  0  0  0  0
   39.1660   34.7250   40.1740 H   0  0  0  0  0  0  0  0  0  0  0  0
   39.2140   31.7180   40.3490 H   0  0  0  0  0  0  0  0  0  0  0  0
   40.9610   32.8700   40.0960 N   0  0  0  0  0  0  0  0  0  0  0  0
   41.6070   32.6030   41.2680 C   0  0  0  0  0  0  0  0  0  0  0  0
   41.1170   32.2120   42.1740 H   0  0  0  0  0  0  0  0  0  0  0  0
   42.9070   32.8750   41.1850 N   0  0  0  0  0  0  0  0  0  0  0  0
   43.1110   33.3290   39.9270 C   0  0  0  0  0  0  0  0  0  0  0  0
   44.2640   33.7560   39.2970 C   0  0  0  0  0  0  0  0  0  0  0  0
   45.1800   33.7380   39.8690 H   0  0  0  0  0  0  0  0  0  0  0  0
   44.1700   34.1610   38.0160 N   0  0  0  0  0  0  0  0  0  0  0  0
   42.9800   34.1570   37.3510 C   0  0  0  0  0  0  0  0  0  0  0  0
   43.0290   34.5060   36.3280 H   0  0  0  0  0  0  0  0  0  0  0  0
   41.8480   33.7360   37.9850 N   0  0  0  0  0  0  0  0  0  0  0  0
   41.8840   33.3200   39.2590 C   0  0  0  0  0  0  0  0  0  0  0  0
   38.1270   28.5490   39.6240 C   0  0  0  0  0  0  0  0  0  0  0  0
   38.9930   28.5740   38.5290 C   0  0  0  0  0  0  0  0  0  0  0  0
   39.0150   29.8400   37.9720 C   0  0  0  0  0  0  0  0  0  0  0  0
   38.1750   30.5470   38.7250 N   0  0  0  0  0  0  0  0  0  0  0  0
   37.6580   29.7960   39.6880 N   0  0  0  0  0  0  0  0  0  0  0  0
   39.5180   27.6350   38.2630 H   0  0  0  0  0  0  0  0  0  0  0  0
   39.6930   29.8610   37.1260 H   0  0  0  0  0  0  0  0  0  0  0  0
   36.9500   25.2470   40.9780 C   0  0  0  0  0  0  0  0  0  0  0  0
   37.1120   26.3120   40.0410 C   0  0  0  0  0  0  0  0  0  0  0  0
   37.8630   27.3810   40.4660 C   0  0  0  0  0  0  0  0  0  0  0  0
   38.4060   27.3850   41.7200 N   0  0  0  0  0  0  0  0  0  0  0  0
   38.2240   26.3500   42.5740 C   0  0  0  0  0  0  0  0  0  0  0  0
   37.4990   25.3030   42.1830 N   0  0  0  0  0  0  0  0  0  0  0  0
   36.3370   24.4320   40.5600 H   0  0  0  0  0  0  0  0  0  0  0  0
   36.6830   26.3070   39.0480 H   0  0  0  0  0  0  0  0  0  0  0  0
   38.6760   26.4120   43.5450 H   0  0  0  0  0  0  0  0  0  0  0  0
  1  6  1  0  0  0  0
  2  8  1  6  0  0  0
  2  1  1  0  0  0  0
  2 30  1  0  0  0  0
  2  3  1  0  0  0  0
  3  4  1  0  0  0  0
  3  9  1  0  0  0  0
  4  5  1  0  0  0  0
  4 11  1  0  0  0  0
  5 12  1  0  0  0  0
  6 15  1  0  0  0  0
  6 14  1  1  0  0  0
  6  5  1  0  0  0  0
  7  1  1  0  0  0  0
 10  3  1  0  0  0  0
 13  5  1  0  0  0  0
 15 16  1  0  0  0  0
 16 17  1  0  0  0  0
 18 16  2  0  0  0  0
 19 18  1  0  0  0  0
 20 21  1  0  0  0  0
 20 19  1  0  0  0  0
 22 20  2  0  0  0  0
 23 25  2  0  0  0  0
 23 22  1  0  0  0  0
 24 23  1  0  0  0  0
 25 26  1  0  0  0  0
 26 19  2  0  0  0  0
 26 15  1  0  0  0  0
 27 31  2  0  0  0  0
 27 36  1  0  0  0  0
 28 27  1  0  0  0  0
 29 28  2  0  0  0  0
 29 30  1  0  0  0  0
 30 31  1  0  0  0  0
 32 28  1  0  0  0  0
 33 29  1  0  0  0  0
 34 39  1  0  0  0  0
 35 36  1  0  0  0  0
 35 34  2  0  0  0  0
 36 37  2  0  0  0  0
 37 38  1  0  0  0  0
 38 42  1  0  0  0  0
 39 38  2  0  0  0  0
 40 34  1  0  0  0  0
 41 35  1  0  0  0  0
M  END
>  <minimizedAffinity>
-5.78059053

$$$$

 OpenBabel03252508303D

 42 46  0  0  1  0  0  0  0  0999 V2000
   37.3330   29.1500   42.6620 N   0  0  0  0  0  0  0  0  0  0  0  0
   36.7730   27.8050   42.4940 C   0  0  2  0  0  0  0  0  0  0  0  0
   37.7120   26.7370   42.9300 C   0  0  0  0  0  0  0  0  0  0  0  0
   38.8390   27.2610   43.6800 N   0  0  0  0  0  0  0  0  0  0  0  0
   39.5210   28.3340   43.0570 C   0  0  0  0  0  0  0  0  0  0  0  0
   38.6760   29.0610   42.0430 C   0  0  2  0  0  0  0  0  0  0  0  0
   37.4590   29.2930   43.7000 H   0  0  0  0  0  0  0  0  0  0  0  0
   35.8230   27.7380   43.0460 H   0  0  0  0  0  0  0  0  0  0  0  0
   38.2400   26.1850   42.1320 H   0  0  0  0  0  0  0  0  0  0  0  0
   37.2270   25.9950   43.6300 H   0  0  0  0  0  0  0  0  0  0  0  0
   39.5030   26.4820   43.8620 H   0  0  0  0  0  0  0  0  0  0  0  0
   40.5020   28.0730   42.6480 H   0  0  0  0  0  0  0  0  0  0  0  0
   39.7380   29.0940   43.8630 H   0  0  0  0  0  0  0  0  0  0  0  0
   38.6040   28.3750   41.1670 H   0  0  0  0  0  0  0  0  0  0  0  0
   39.1800   30.3380   41.6700 N   0  0  0  0  0  0  0  0  0  0  0  0
   40.4460   30.7680   41.9460 C   0  0  0  0  0  0  0  0  0  0  0  0
   41.2020   30.1730   42.4830 H   0  0  0  0  0  0  0  0  0  0  0  0
   40.6580   31.9990   41.4860 N   0  0  0  0  0  0  0  0  0  0  0  0
   39.5010   32.3780   40.8970 C   0  0  0  0  0  0  0  0  0  0  0  0
   39.1560   33.5540   40.2590 C   0  0  0  0  0  0  0  0  0  0  0  0
   39.9090   34.3270   40.1970 H   0  0  0  0  0  0  0  0  0  0  0  0
   37.9110   33.6580   39.7570 N   0  0  0  0  0  0  0  0  0  0  0  0
   37.0080   32.6420   39.8700 C   0  0  0  0  0  0  0  0  0  0  0  0
   36.0410   32.8420   39.4290 H   0  0  0  0  0  0  0  0  0  0  0  0
   37.3610   31.4870   40.5040 N   0  0  0  0  0  0  0  0  0  0  0  0
   38.5880   31.3290   41.0210 C   0  0  0  0  0  0  0  0  0  0  0  0
   35.7710   27.8960   39.0250 C   0  0  0  0  0  0  0  0  0  0  0  0
   36.4900   26.7050   39.1390 C   0  0  0  0  0  0  0  0  0  0  0  0
   36.9300   26.5400   40.4400 C   0  0  0  0  0  0  0  0  0  0  0  0
   36.4810   27.6170   41.0800 N   0  0  0  0  0  0  0  0  0  0  0  0
   35.8050   28.4080   40.2570 N   0  0  0  0  0  0  0  0  0  0  0  0
   36.6070   26.0820   38.2290 H   0  0  0  0  0  0  0  0  0  0  0  0
   37.4820   25.6100   40.5290 H   0  0  0  0  0  0  0  0  0  0  0  0
   33.3280   29.0480   36.4130 C   0  0  0  0  0  0  0  0  0  0  0  0
   33.7850   28.5520   37.6710 C   0  0  0  0  0  0  0  0  0  0  0  0
   35.1440   28.3900   37.7990 C   0  0  0  0  0  0  0  0  0  0  0  0
   35.9730   28.6990   36.7580 N   0  0  0  0  0  0  0  0  0  0  0  0
   35.4930   29.1690   35.5820 C   0  0  0  0  0  0  0  0  0  0  0  0
   34.1790   29.3330   35.4360 N   0  0  0  0  0  0  0  0  0  0  0  0
   32.2300   29.1480   36.3930 H   0  0  0  0  0  0  0  0  0  0  0  0
   33.1270   28.3080   38.4940 H   0  0  0  0  0  0  0  0  0  0  0  0
   36.1950   29.3940   34.8040 H   0  0  0  0  0  0  0  0  0  0  0  0
  1  7  1  0  0  0  0
  2  1  1  0  0  0  0
  2  3  1  0  0  0  0
  2  8  1  1  0  0  0
  3 10  1  0  0  0  0
  3  4  1  0  0  0  0
  4 11  1  0  0  0  0
  5  4  1  0  0  0  0
  5 13  1  0  0  0  0
  6 14  1  6  0  0  0
  6  1  1  0  0  0  0
  6  5  1  0  0  0  0
  9  3  1  0  0  0  0
 12  5  1  0  0  0  0
 15 16  1  0  0  0  0
 15  6  1  0  0  0  0
 16 17  1  0  0  0  0
 18 16  2  0  0  0  0
 19 26  1  0  0  0  0
 19 18  1  0  0  0  0
 20 19  2  0  0  0  0
 21 20  1  0  0  0  0
 22 23  2  0  0  0  0
 22 20  1  0  0  0  0
 23 25  1  0  0  0  0
 24 23  1  0  0  0  0
 25 26  2  0  0  0  0
 26 15  1  0  0  0  0
 27 28  1  0  0  0  0
 27 31  2  0  0  0  0
 28 29  2  0  0  0  0
 29 33  1  0  0  0  0
 29 30  1  0  0  0  0
 30  2  1  0  0  0  0
 31 30  1  0  0  0  0
 32 28  1  0  0  0  0
 34 35  1  0  0  0  0
 35 36  2  0  0  0  0
 35 41  1  0  0  0  0
 36 27  1  0  0  0  0
 37 36  1  0  0  0  0
 38 37  2  0  0  0  0
 39 38  1  0  0  0  0
 39 34  2  0  0  0  0
 40 34  1  0  0  0  0
 42 38  1  0  0  0  0
M  END
>  <minimizedAffinity>
-5.77945089

$$$$

 OpenBabel03252508303D

 42 46  0  0  1  0  0  0  0  0999 V2000
   38.9630   31.3040   40.1060 N   0  0  0  0  0  0  0  0  0  0  0  0
   39.7080   32.5300   40.4140 C   0  0  2  0  0  0  0  0  0  0  0  0
   38.8430   33.7390   40.4100 C   0  0  0  0  0  0  0  0  0  0  0  0
   37.4300   33.4120   40.3900 N   0  0  0  0  0  0  0  0  0  0  0  0
   37.0470   32.4930   39.3820 C   0  0  0  0  0  0  0  0  0  0  0  0
   38.1920   31.6480   38.8880 C   0  0  2  0  0  0  0  0  0  0  0  0
   38.2800   31.1640   40.8980 H   0  0  0  0  0  0  0  0  0  0  0  0
   40.2100   32.4120   41.3860 H   0  0  0  0  0  0  0  0  0  0  0  0
   38.9110   34.3950   39.5240 H   0  0  0  0  0  0  0  0  0  0  0  0
   38.9740   34.3660   41.3410 H   0  0  0  0  0  0  0  0  0  0  0  0
   36.8890   34.2930   40.2840 H   0  0  0  0  0  0  0  0  0  0  0  0
   36.4880   32.9360   38.5520 H   0  0  0  0  0  0  0  0  0  0  0  0
   36.3250   31.7670   39.8600 H   0  0  0  0  0  0  0  0  0  0  0  0
   38.8200   32.3290   38.2670 H   0  0  0  0  0  0  0  0  0  0  0  0
   37.7940   30.4910   38.1610 N   0  0  0  0  0  0  0  0  0  0  0  0
   36.4970   30.1910   37.8570 C   0  0  0  0  0  0  0  0  0  0  0  0
   35.6320   30.8100   38.1430 H   0  0  0  0  0  0  0  0  0  0  0  0
   36.4040   29.0550   37.1720 N   0  0  0  0  0  0  0  0  0  0  0  0
   37.6720   28.6050   37.0260 C   0  0  0  0  0  0  0  0  0  0  0  0
   38.1620   27.4740   36.4020 C   0  0  0  0  0  0  0  0  0  0  0  0
   37.4460   26.8110   35.9380 H   0  0  0  0  0  0  0  0  0  0  0  0
   39.4940   27.2760   36.4110 N   0  0  0  0  0  0  0  0  0  0  0  0
   40.3430   28.1550   37.0160 C   0  0  0  0  0  0  0  0  0  0  0  0
   41.3890   27.8900   36.9590 H   0  0  0  0  0  0  0  0  0  0  0  0
   39.8460   29.2670   37.6300 N   0  0  0  0  0  0  0  0  0  0  0  0
   38.5280   29.5150   37.6500 C   0  0  0  0  0  0  0  0  0  0  0  0
   42.3080   32.3130   37.9150 C   0  0  0  0  0  0  0  0  0  0  0  0
   42.0070   33.6750   37.9750 C   0  0  0  0  0  0  0  0  0  0  0  0
   41.0170   33.9010   38.9140 C   0  0  0  0  0  0  0  0  0  0  0  0
   40.7380   32.6920   39.3970 N   0  0  0  0  0  0  0  0  0  0  0  0
   41.4890   31.7660   38.8170 N   0  0  0  0  0  0  0  0  0  0  0  0
   42.5660   34.3570   37.3030 H   0  0  0  0  0  0  0  0  0  0  0  0
   40.7900   34.9600   38.9640 H   0  0  0  0  0  0  0  0  0  0  0  0
   45.4950   31.4040   36.1430 C   0  0  0  0  0  0  0  0  0  0  0  0
   44.6330   32.0950   37.0490 C   0  0  0  0  0  0  0  0  0  0  0  0
   43.3160   31.7070   37.0440 C   0  0  0  0  0  0  0  0  0  0  0  0
   42.8950   30.7120   36.2070 N   0  0  0  0  0  0  0  0  0  0  0  0
   43.7500   30.0850   35.3650 C   0  0  0  0  0  0  0  0  0  0  0  0
   45.0320   30.4450   35.3530 N   0  0  0  0  0  0  0  0  0  0  0  0
   46.5300   31.7740   36.2100 H   0  0  0  0  0  0  0  0  0  0  0  0
   44.9680   32.8820   37.7110 H   0  0  0  0  0  0  0  0  0  0  0  0
   43.3590   29.3120   34.7330 H   0  0  0  0  0  0  0  0  0  0  0  0
  1  2  1  0  0  0  0
  1  7  1  0  0  0  0
  2  8  1  1  0  0  0
  3  2  1  0  0  0  0
  3 10  1  0  0  0  0
  4  3  1  0  0  0  0
  5 13  1  0  0  0  0
  5  4  1  0  0  0  0
  6 14  1  6  0  0  0
  6  5  1  0  0  0  0
  6  1  1  0  0  0  0
  9  3  1  0  0  0  0
 11  4  1  0  0  0  0
 12  5  1  0  0  0  0
 15  6  1  0  0  0  0
 16 17  1  0  0  0  0
 16 15  1  0  0  0  0
 18 16  2  0  0  0  0
 19 18  1  0  0  0  0
 19 26  1  0  0  0  0
 20 22  1  0  0  0  0
 20 19  2  0  0  0  0
 21 20  1  0  0  0  0
 22 23  2  0  0  0  0
 23 25  1  0  0  0  0
 24 23  1  0  0  0  0
 25 26  2  0  0  0  0
 26 15  1  0  0  0  0
 27 28  1  0  0  0  0
 27 31  2  0  0  0  0
 28 29  2  0  0  0  0
 29 33  1  0  0  0  0
 29 30  1  0  0  0  0
 30  2  1  0  0  0  0
 31 30  1  0  0  0  0
 32 28  1  0  0  0  0
 34 40  1  0  0  0  0
 34 35  1  0  0  0  0
 35 41  1  0  0  0  0
 36 35  2  0  0  0  0
 36 27  1  0  0  0  0
 37 36  1  0  0  0  0
 38 37  2  0  0  0  0
 39 38  1  0  0  0  0
 39 34  2  0  0  0  0
 42 38  1  0  0  0  0
M  END
>  <minimizedAffinity>
-5.62744951

$$$$

 OpenBabel03252508303D

 42 46  0  0  1  0  0  0  0  0999 V2000
   39.1430   31.6240   41.0810 N   0  0  0  0  0  0  0  0  0  0  0  0
   39.7040   32.8830   40.5800 C   0  0  2  0  0  0  0  0  0  0  0  0
   38.6600   33.8100   40.0690 C   0  0  0  0  0  0  0  0  0  0  0  0
   37.3200   33.3940   40.4390 N   0  0  0  0  0  0  0  0  0  0  0  0
   37.0120   32.0440   40.1390 C   0  0  0  0  0  0  0  0  0  0  0  0
   38.2360   31.1780   39.9980 C   0  0  2  0  0  0  0  0  0  0  0  0
   38.5540   31.8740   41.9210 H   0  0  0  0  0  0  0  0  0  0  0  0
   40.2920   33.3600   41.3790 H   0  0  0  0  0  0  0  0  0  0  0  0
   38.5540   33.8820   38.9720 H   0  0  0  0  0  0  0  0  0  0  0  0
   38.7600   34.8510   40.4970 H   0  0  0  0  0  0  0  0  0  0  0  0
   36.6390   34.0220   39.9670 H   0  0  0  0  0  0  0  0  0  0  0  0
   36.3280   31.9110   39.2950 H   0  0  0  0  0  0  0  0  0  0  0  0
   36.4550   31.6320   41.0300 H   0  0  0  0  0  0  0  0  0  0  0  0
   38.6970   31.4670   39.0250 H   0  0  0  0  0  0  0  0  0  0  0  0
   37.9730   29.7810   40.0610 N   0  0  0  0  0  0  0  0  0  0  0  0
   37.9630   28.9570   38.9730 C   0  0  0  0  0  0  0  0  0  0  0  0
   38.1560   29.2880   37.9400 H   0  0  0  0  0  0  0  0  0  0  0  0
   37.6910   27.6990   39.3120 N   0  0  0  0  0  0  0  0  0  0  0  0
   37.5190   27.7060   40.6540 C   0  0  0  0  0  0  0  0  0  0  0  0
   37.2180   26.6810   41.5300 C   0  0  0  0  0  0  0  0  0  0  0  0
   37.0920   25.6920   41.1150 H   0  0  0  0  0  0  0  0  0  0  0  0
   37.1060   26.9820   42.8380 N   0  0  0  0  0  0  0  0  0  0  0  0
   37.2790   28.2550   43.2950 C   0  0  0  0  0  0  0  0  0  0  0  0
   37.1630   28.3740   44.3640 H   0  0  0  0  0  0  0  0  0  0  0  0
   37.5740   29.2580   42.4190 N   0  0  0  0  0  0  0  0  0  0  0  0
   37.6990   29.0150   41.1070 C   0  0  0  0  0  0  0  0  0  0  0  0
   42.0020   31.5280   38.1440 C   0  0  0  0  0  0  0  0  0  0  0  0
   41.7220   32.8100   37.6690 C   0  0  0  0  0  0  0  0  0  0  0  0
   40.8460   33.4520   38.5270 C   0  0  0  0  0  0  0  0  0  0  0  0
   40.6140   32.5620   39.4880 N   0  0  0  0  0  0  0  0  0  0  0  0
   41.2870   31.4410   39.2680 N   0  0  0  0  0  0  0  0  0  0  0  0
   42.2060   33.1290   36.7240 H   0  0  0  0  0  0  0  0  0  0  0  0
   40.6350   34.4510   38.1600 H   0  0  0  0  0  0  0  0  0  0  0  0
   44.1720   28.5640   37.3520 C   0  0  0  0  0  0  0  0  0  0  0  0
   43.2970   29.4000   38.1100 C   0  0  0  0  0  0  0  0  0  0  0  0
   42.9000   30.5670   37.5030 C   0  0  0  0  0  0  0  0  0  0  0  0
   43.3380   30.8710   36.2450 N   0  0  0  0  0  0  0  0  0  0  0  0
   44.1680   30.0450   35.5640 C   0  0  0  0  0  0  0  0  0  0  0  0
   44.5660   28.9090   36.1340 N   0  0  0  0  0  0  0  0  0  0  0  0
   44.4420   27.6520   37.9090 H   0  0  0  0  0  0  0  0  0  0  0  0
   42.9510   29.1570   39.1050 H   0  0  0  0  0  0  0  0  0  0  0  0
   44.4770   30.3390   34.5800 H   0  0  0  0  0  0  0  0  0  0  0  0
  1  7  1  0  0  0  0
  2  1  1  0  0  0  0
  2  8  1  1  0  0  0
  3  4  1  0  0  0  0
  3 10  1  0  0  0  0
  3  2  1  0  0  0  0
  5  4  1  0  0  0  0
  5 13  1  0  0  0  0
  6 14  1  6  0  0  0
  6 15  1  0  0  0  0
  6  5  1  0  0  0  0
  6  1  1  0  0  0  0
  9  3  1  0  0  0  0
 11  4  1  0  0  0  0
 12  5  1  0  0  0  0
 15 26  1  0  0  0  0
 16 18  2  0  0  0  0
 16 15  1  0  0  0  0
 17 16  1  0  0  0  0
 18 19  1  0  0  0  0
 19 26  2  0  0  0  0
 19 20  1  0  0  0  0
 20 22  2  0  0  0  0
 21 20  1  0  0  0  0
 22 23  1  0  0  0  0
 23 24  1  0  0  0  0
 25 23  2  0  0  0  0
 26 25  1  0  0  0  0
 27 31  2  0  0  0  0
 28 27  1  0  0  0  0
 28 29  2  0  0  0  0
 29 30  1  0  0  0  0
 30  2  1  0  0  0  0
 31 30  1  0  0  0  0
 32 28  1  0  0  0  0
 33 29  1  0  0  0  0
 34 40  1  0  0  0  0
 34 35  1  0  0  0  0
 35 41  1  0  0  0  0
 36 35  2  0  0  0  0
 36 27  1  0  0  0  0
 37 36  1  0  0  0  0
 38 39  1  0  0  0  0
 38 37  2  0  0  0  0
 39 34  2  0  0  0  0
 42 38  1  0  0  0  0
M  END
>  <minimizedAffinity>
-5.62569618

$$$$

 OpenBabel03252508303D

 42 46  0  0  1  0  0  0  0  0999 V2000
   39.4170   25.5350   40.8300 N   0  0  0  0  0  0  0  0  0  0  0  0
   40.0030   26.1520   42.0250 C   0  0  2  0  0  0  0  0  0  0  0  0
   39.7270   25.3740   43.2620 C   0  0  0  0  0  0  0  0  0  0  0  0
   39.1980   24.0520   42.9810 N   0  0  0  0  0  0  0  0  0  0  0  0
   38.0950   24.0300   42.0920 C   0  0  0  0  0  0  0  0  0  0  0  0
   38.0160   25.2550   41.2190 C   0  0  2  0  0  0  0  0  0  0  0  0
   39.9120   24.6120   40.6980 H   0  0  0  0  0  0  0  0  0  0  0  0
   41.0860   26.2740   41.8750 H   0  0  0  0  0  0  0  0  0  0  0  0
   38.9400   25.7680   43.9300 H   0  0  0  0  0  0  0  0  0  0  0  0
   40.6600   25.1820   43.8680 H   0  0  0  0  0  0  0  0  0  0  0  0
   38.9320   23.6060   43.8810 H   0  0  0  0  0  0  0  0  0  0  0  0
   37.1340   23.8130   42.5670 H   0  0  0  0  0  0  0  0  0  0  0  0
   38.2670   23.1680   41.3820 H   0  0  0  0  0  0  0  0  0  0  0  0
   37.6760   26.0780   41.8900 H   0  0  0  0  0  0  0  0  0  0  0  0
   37.1640   25.1120   40.0880 N   0  0  0  0  0  0  0  0  0  0  0  0
   36.8670   23.9140   39.5050 C   0  0  0  0  0  0  0  0  0  0  0  0
   37.2550   22.9420   39.8470 H   0  0  0  0  0  0  0  0  0  0  0  0
   36.0480   24.0640   38.4660 N   0  0  0  0  0  0  0  0  0  0  0  0
   35.8070   25.3920   38.3730 C   0  0  0  0  0  0  0  0  0  0  0  0
   35.0310   26.1080   37.4820 C   0  0  0  0  0  0  0  0  0  0  0  0
   34.5120   25.5520   36.7150 H   0  0  0  0  0  0  0  0  0  0  0  0
   34.9730   27.4450   37.6290 N   0  0  0  0  0  0  0  0  0  0  0  0
   35.6550   28.0850   38.6220 C   0  0  0  0  0  0  0  0  0  0  0  0
   35.5320   29.1590   38.6390 H   0  0  0  0  0  0  0  0  0  0  0  0
   36.4190   27.3660   39.4940 N   0  0  0  0  0  0  0  0  0  0  0  0
   36.5120   26.0330   39.3950 C   0  0  0  0  0  0  0  0  0  0  0  0
   38.7000   29.5120   41.7860 C   0  0  0  0  0  0  0  0  0  0  0  0
   38.4220   29.1340   43.1000 C   0  0  0  0  0  0  0  0  0  0  0  0
   38.8840   27.8500   43.3310 C   0  0  0  0  0  0  0  0  0  0  0  0
   39.4210   27.4790   42.1720 N   0  0  0  0  0  0  0  0  0  0  0  0
   39.3160   28.4460   41.2710 N   0  0  0  0  0  0  0  0  0  0  0  0
   37.9000   29.8650   43.7490 H   0  0  0  0  0  0  0  0  0  0  0  0
   38.6740   27.5610   44.3550 H   0  0  0  0  0  0  0  0  0  0  0  0
   37.0420   32.3450   39.9550 C   0  0  0  0  0  0  0  0  0  0  0  0
   37.2230   31.0230   40.4660 C   0  0  0  0  0  0  0  0  0  0  0  0
   38.3700   30.8080   41.1910 C   0  0  0  0  0  0  0  0  0  0  0  0
   39.2590   31.8260   41.3890 N   0  0  0  0  0  0  0  0  0  0  0  0
   39.0440   33.0650   40.8850 C   0  0  0  0  0  0  0  0  0  0  0  0
   37.9390   33.2960   40.1780 N   0  0  0  0  0  0  0  0  0  0  0  0
   36.1010   32.4330   39.3880 H   0  0  0  0  0  0  0  0  0  0  0  0
   36.5180   30.2190   40.3090 H   0  0  0  0  0  0  0  0  0  0  0  0
   39.7790   33.8220   41.0750 H   0  0  0  0  0  0  0  0  0  0  0  0
  1  6  1  0  0  0  0
  1  2  1  0  0  0  0
  2  8  1  6  0  0  0
  2 30  1  0  0  0  0
  2  3  1  0  0  0  0
  3 10  1  0  0  0  0
  3  9  1  0  0  0  0
  4  3  1  0  0  0  0
  4 11  1  0  0  0  0
  5 12  1  0  0  0  0
  5  4  1  0  0  0  0
  6 14  1  1  0  0  0
  6  5  1  0  0  0  0
  7  1  1  0  0  0  0
 13  5  1  0  0  0  0
 15  6  1  0  0  0  0
 16 17  1  0  0  0  0
 16 15  1  0  0  0  0
 18 16  2  0  0  0  0
 19 18  1  0  0  0  0
 19 26  1  0  0  0  0
 20 22  1  0  0  0  0
 20 19  2  0  0  0  0
 21 20  1  0  0  0  0
 22 23  2  0  0  0  0
 23 24  1  0  0  0  0
 23 25  1  0  0  0  0
 26 25  2  0  0  0  0
 26 15  1  0  0  0  0
 27 28  1  0  0  0  0
 28 29  2  0  0  0  0
 28 32  1  0  0  0  0
 29 33  1  0  0  0  0
 30 29  1  0  0  0  0
 31 27  2  0  0  0  0
 31 30  1  0  0  0  0
 34 39  2  0  0  0  0
 34 35  1  0  0  0  0
 35 36  2  0  0  0  0
 36 37  1  0  0  0  0
 36 27  1  0  0  0  0
 38 42  1  0  0  0  0
 38 37  2  0  0  0  0
 39 38  1  0  0  0  0
 40 34  1  0  0  0  0
 41 35  1  0  0  0  0
M  END
>  <minimizedAffinity>
-5.59868097

$$$$

 OpenBabel03252508303D

 42 46  0  0  1  0  0  0  0  0999 V2000
   36.8100   29.9650   42.1770 N   0  0  0  0  0  0  0  0  0  0  0  0
   36.4830   28.5360   42.1470 C   0  0  2  0  0  0  0  0  0  0  0  0
   37.5970   27.6850   42.6420 C   0  0  0  0  0  0  0  0  0  0  0  0
   38.6330   28.4570   43.3050 N   0  0  0  0  0  0  0  0  0  0  0  0
   39.1110   29.5670   42.5670 C   0  0  0  0  0  0  0  0  0  0  0  0
   38.1360   30.0450   41.5230 C   0  0  2  0  0  0  0  0  0  0  0  0
   36.9290   30.2220   43.1940 H   0  0  0  0  0  0  0  0  0  0  0  0
   35.5690   28.3620   42.7340 H   0  0  0  0  0  0  0  0  0  0  0  0
   38.1960   27.1580   41.8780 H   0  0  0  0  0  0  0  0  0  0  0  0
   37.2580   26.9400   43.4210 H   0  0  0  0  0  0  0  0  0  0  0  0
   39.4230   27.8200   43.5310 H   0  0  0  0  0  0  0  0  0  0  0  0
   40.1140   29.4370   42.1490 H   0  0  0  0  0  0  0  0  0  0  0  0
   39.2110   30.4240   43.2960 H   0  0  0  0  0  0  0  0  0  0  0  0
   38.1650   29.2790   40.7130 H   0  0  0  0  0  0  0  0  0  0  0  0
   38.4090   31.3500   41.0230 N   0  0  0  0  0  0  0  0  0  0  0  0
   37.4550   32.1900   40.5250 C   0  0  0  0  0  0  0  0  0  0  0  0
   36.3830   31.9450   40.4580 H   0  0  0  0  0  0  0  0  0  0  0  0
   37.9790   33.3470   40.1270 N   0  0  0  0  0  0  0  0  0  0  0  0
   39.3070   33.2560   40.3730 C   0  0  0  0  0  0  0  0  0  0  0  0
   40.3290   34.1600   40.1560 C   0  0  0  0  0  0  0  0  0  0  0  0
   40.0660   35.1130   39.7190 H   0  0  0  0  0  0  0  0  0  0  0  0
   41.5770   33.7960   40.5040 N   0  0  0  0  0  0  0  0  0  0  0  0
   41.8390   32.5750   41.0530 C   0  0  0  0  0  0  0  0  0  0  0  0
   42.8790   32.3960   41.2890 H   0  0  0  0  0  0  0  0  0  0  0  0
   40.8210   31.6900   41.2600 N   0  0  0  0  0  0  0  0  0  0  0  0
   39.5580   32.0020   40.9330 C   0  0  0  0  0  0  0  0  0  0  0  0
   36.1490   27.1440   38.8300 C   0  0  0  0  0  0  0  0  0  0  0  0
   35.3210   28.2680   38.8110 C   0  0  0  0  0  0  0  0  0  0  0  0
   35.3640   28.9080   40.0370 C   0  0  0  0  0  0  0  0  0  0  0  0
   36.2000   28.1730   40.7650 N   0  0  0  0  0  0  0  0  0  0  0  0
   36.6590   27.1450   40.0630 N   0  0  0  0  0  0  0  0  0  0  0  0
   34.7700   28.4880   37.8750 H   0  0  0  0  0  0  0  0  0  0  0  0
   34.7260   29.7850   40.0180 H   0  0  0  0  0  0  0  0  0  0  0  0
   35.8940   24.3570   36.3220 C   0  0  0  0  0  0  0  0  0  0  0  0
   35.5570   25.1470   37.4630 C   0  0  0  0  0  0  0  0  0  0  0  0
   36.3630   26.2330   37.7050 C   0  0  0  0  0  0  0  0  0  0  0  0
   37.4160   26.5050   36.8780 N   0  0  0  0  0  0  0  0  0  0  0  0
   37.6970   25.7260   35.8070 C   0  0  0  0  0  0  0  0  0  0  0  0
   36.9280   24.6680   35.5530 N   0  0  0  0  0  0  0  0  0  0  0  0
   35.2000   23.5090   36.2000 H   0  0  0  0  0  0  0  0  0  0  0  0
   34.7230   24.9310   38.1160 H   0  0  0  0  0  0  0  0  0  0  0  0
   38.5360   25.9920   35.1950 H   0  0  0  0  0  0  0  0  0  0  0  0
  1  7  1  0  0  0  0
  2  1  1  0  0  0  0
  2  3  1  0  0  0  0
  2  8  1  1  0  0  0
  3  4  1  0  0  0  0
  3 10  1  0  0  0  0
  4 11  1  0  0  0  0
  5 13  1  0  0  0  0
  5  4  1  0  0  0  0
  6 14  1  6  0  0  0
  6  1  1  0  0  0  0
  6  5  1  0  0  0  0
  9  3  1  0  0  0  0
 12  5  1  0  0  0  0
 15  6  1  0  0  0  0
 16 15  1  0  0  0  0
 17 16  1  0  0  0  0
 18 19  1  0  0  0  0
 18 16  2  0  0  0  0
 19 26  1  0  0  0  0
 20 19  2  0  0  0  0
 20 22  1  0  0  0  0
 21 20  1  0  0  0  0
 22 23  2  0  0  0  0
 23 25  1  0  0  0  0
 23 24  1  0  0  0  0
 26 15  1  0  0  0  0
 26 25  2  0  0  0  0
 27 31  2  0  0  0  0
 28 27  1  0  0  0  0
 28 29  2  0  0  0  0
 29 30  1  0  0  0  0
 30  2  1  0  0  0  0
 31 30  1  0  0  0  0
 32 28  1  0  0  0  0
 33 29  1  0  0  0  0
 34 35  1  0  0  0  0
 35 36  2  0  0  0  0
 35 41  1  0  0  0  0
 36 27  1  0  0  0  0
 37 36  1  0  0  0  0
 38 37  2  0  0  0  0
 39 38  1  0  0  0  0
 39 34  2  0  0  0  0
 40 34  1  0  0  0  0
 42 38  1  0  0  0  0
M  END
>  <minimizedAffinity>
-5.46765566

$$$$
