
 OpenBabel03252509083D

 44 48  0  0  0  0  0  0  0  0999 V2000
   45.7080   31.4870   39.7810 C   0  0  0  0  0  0  0  0  0  0  0  0
   45.7520   32.8280   39.5470 C   0  0  0  0  0  0  0  0  0  0  0  0
   46.6370   33.3330   38.6100 C   0  0  0  0  0  0  0  0  0  0  0  0
   47.4680   32.4880   37.9160 C   0  0  0  0  0  0  0  0  0  0  0  0
   47.4510   31.1100   38.1260 C   0  0  0  0  0  0  0  0  0  0  0  0
   46.5500   30.6210   39.0770 C   0  0  0  0  0  0  0  0  0  0  0  0
   46.7070   34.3930   38.3930 H   0  0  0  0  0  0  0  0  0  0  0  0
   48.1910   32.7680   37.1700 H   0  0  0  0  0  0  0  0  0  0  0  0
   48.0660   30.3980   37.6230 H   0  0  0  0  0  0  0  0  0  0  0  0
   46.5240   29.5420   39.2540 H   0  0  0  0  0  0  0  0  0  0  0  0
   45.1380   36.3310   43.2910 Cl  0  0  0  0  0  0  0  0  0  0  0  0
   44.6080   35.4070   41.9070 C   0  0  0  0  0  0  0  0  0  0  0  0
   45.4280   34.5100   41.3040 C   0  0  0  0  0  0  0  0  0  0  0  0
   44.9100   33.8160   40.2250 C   0  0  0  0  0  0  0  0  0  0  0  0
   43.6270   34.0220   39.7770 C   0  0  0  0  0  0  0  0  0  0  0  0
   42.8230   34.9220   40.3920 C   0  0  0  0  0  0  0  0  0  0  0  0
   43.3240   35.6200   41.4670 C   0  0  0  0  0  0  0  0  0  0  0  0
   43.2890   33.4370   38.9200 H   0  0  0  0  0  0  0  0  0  0  0  0
   41.8370   35.0360   39.9960 H   0  0  0  0  0  0  0  0  0  0  0  0
   42.6590   36.3330   41.9400 H   0  0  0  0  0  0  0  0  0  0  0  0
   49.1380   34.8700   41.8850 C   0  0  0  0  0  0  0  0  0  0  0  0
   47.8490   35.0600   41.3810 C   0  0  0  0  0  0  0  0  0  0  0  0
   46.7710   34.3210   41.8200 C   0  0  0  0  0  0  0  0  0  0  0  0
   47.0690   33.4000   42.7760 N   0  0  0  0  0  0  0  0  0  0  0  0
   48.2950   33.2110   43.2630 C   0  0  0  0  0  0  0  0  0  0  0  0
   49.3200   33.9430   42.8170 N   0  0  0  0  0  0  0  0  0  0  0  0
   49.8930   35.5230   41.4480 H   0  0  0  0  0  0  0  0  0  0  0  0
   47.6550   35.8020   40.6230 H   0  0  0  0  0  0  0  0  0  0  0  0
   48.4080   32.4480   44.0210 H   0  0  0  0  0  0  0  0  0  0  0  0
   44.6170   30.8340   40.8820 S   0  0  0  0  0  0  0  0  0  0  0  0
   44.7310   29.3310   40.9950 O   0  0  0  0  0  0  0  0  0  0  0  0
   45.1600   31.3250   42.2770 O   0  0  0  0  0  0  0  0  0  0  0  0
   42.4350   30.5790   38.8950 H   0  0  0  0  0  0  0  0  0  0  0  0
   42.1760   30.9980   39.8480 N   0  0  0  0  0  0  0  0  0  0  0  0
   42.9510   31.2320   40.9670 C   0  0  0  0  0  0  0  0  0  0  0  0
   41.9940   31.7540   41.7530 N   0  0  0  0  0  0  0  0  0  0  0  0
   40.8040   31.8310   41.2000 C   0  0  0  0  0  0  0  0  0  0  0  0
   39.6400   32.3280   41.7840 C   0  0  0  0  0  0  0  0  0  0  0  0
   39.6190   32.7110   42.7960 H   0  0  0  0  0  0  0  0  0  0  0  0
   38.5150   32.3100   41.0200 N   0  0  0  0  0  0  0  0  0  0  0  0
   38.5860   31.8250   39.7670 C   0  0  0  0  0  0  0  0  0  0  0  0
   37.6920   31.8150   39.1730 H   0  0  0  0  0  0  0  0  0  0  0  0
   39.7450   31.3450   39.2240 N   0  0  0  0  0  0  0  0  0  0  0  0
   40.8840   31.3370   39.9270 C   0  0  0  0  0  0  0  0  0  0  0  0
  1 30  1  0  0  0  0
  2  1  1  0  0  0  0
  2 14  1  0  0  0  0
  3  2  2  0  0  0  0
  4  5  2  0  0  0  0
  4  3  1  0  0  0  0
  5  6  1  0  0  0  0
  6 10  1  0  0  0  0
  6  1  2  0  0  0  0
  7  3  1  0  0  0  0
  8  4  1  0  0  0  0
  9  5  1  0  0  0  0
 12 11  1  0  0  0  0
 13 23  1  0  0  0  0
 13 12  2  0  0  0  0
 14 13  1  0  0  0  0
 15 14  2  0  0  0  0
 15 16  1  0  0  0  0
 16 17  2  0  0  0  0
 17 12  1  0  0  0  0
 17 20  1  0  0  0  0
 18 15  1  0  0  0  0
 19 16  1  0  0  0  0
 21 26  1  0  0  0  0
 22 23  1  0  0  0  0
 22 21  2  0  0  0  0
 23 24  2  0  0  0  0
 24 25  1  0  0  0  0
 25 29  1  0  0  0  0
 26 25  2  0  0  0  0
 27 21  1  0  0  0  0
 28 22  1  0  0  0  0
 30 35  1  0  0  0  0
 30 31  2  0  0  0  0
 30 32  2  0  0  0  0
 33 34  1  0  0  0  0
 34 44  1  0  0  0  0
 34 35  1  0  0  0  0
 35 36  2  0  0  0  0
 37 36  1  0  0  0  0
 37 38  1  0  0  0  0
 38 39  1  0  0  0  0
 40 38  2  0  0  0  0
 41 40  1  0  0  0  0
 42 41  1  0  0  0  0
 43 41  2  0  0  0  0
 43 44  1  0  0  0  0
 44 37  2  0  0  0  0
M  END
>  <minimizedAffinity>
-5.72329903

>  <minimizedRMSD>
2.71111131

$$$$
