
 OpenBabel03252505063D

 46 50  0  0  1  0  0  0  0  0999 V2000
   44.5630   35.5670   44.6330 C   0  0  0  0  0  0  0  0  0  0  0  0
   45.2300   35.6080   43.3890 C   0  0  0  0  0  0  0  0  0  0  0  0
   46.3310   34.7130   43.2130 C   0  0  0  0  0  0  0  0  0  0  0  0
   46.6840   33.8810   44.2180 N   0  0  0  0  0  0  0  0  0  0  0  0
   46.0090   33.8840   45.3920 C   0  0  0  0  0  0  0  0  0  0  0  0
   44.9490   34.7240   45.6050 N   0  0  0  0  0  0  0  0  0  0  0  0
   43.7390   36.2550   44.7310 H   0  0  0  0  0  0  0  0  0  0  0  0
   44.9790   36.2480   42.5780 H   0  0  0  0  0  0  0  0  0  0  0  0
   47.0410   34.7290   41.9310 C   0  0  0  0  0  0  0  0  0  0  0  0
   48.2160   35.4050   41.8580 C   0  0  0  0  0  0  0  0  0  0  0  0
   48.8550   35.3960   40.6180 C   0  0  0  0  0  0  0  0  0  0  0  0
   48.2400   34.7090   39.5950 C   0  0  0  0  0  0  0  0  0  0  0  0
   47.0580   34.0300   39.6750 C   0  0  0  0  0  0  0  0  0  0  0  0
   46.4610   34.0640   40.9130 N   0  0  0  0  0  0  0  0  0  0  0  0
   48.6290   35.9190   42.7120 H   0  0  0  0  0  0  0  0  0  0  0  0
   49.8000   35.9190   40.4930 H   0  0  0  0  0  0  0  0  0  0  0  0
   48.7270   34.6940   38.6250 H   0  0  0  0  0  0  0  0  0  0  0  0
   46.4680   33.3350   38.5810 N   0  0  0  0  0  0  0  0  0  0  0  0
   45.2070   32.8570   38.5430 C   0  0  0  0  0  0  0  0  0  0  0  0
   44.4480   32.9200   39.3160 H   0  0  0  0  0  0  0  0  0  0  0  0
   44.9680   32.2610   37.3800 N   0  0  0  0  0  0  0  0  0  0  0  0
   46.0700   32.3250   36.6080 C   0  0  0  0  0  0  0  0  0  0  0  0
   46.4590   31.9110   35.3380 C   0  0  0  0  0  0  0  0  0  0  0  0
   45.6970   31.3890   34.7820 H   0  0  0  0  0  0  0  0  0  0  0  0
   47.7060   32.1720   34.8960 N   0  0  0  0  0  0  0  0  0  0  0  0
   48.5830   32.8270   35.6580 C   0  0  0  0  0  0  0  0  0  0  0  0
   49.5760   33.0220   35.2750 H   0  0  0  0  0  0  0  0  0  0  0  0
   48.2340   33.2440   36.9010 N   0  0  0  0  0  0  0  0  0  0  0  0
   46.9970   33.0100   37.3990 C   0  0  0  0  0  0  0  0  0  0  0  0
   46.4430   32.9530   46.4650 C   0  0  2  0  0  0  0  0  0  0  0  0
   46.9610   31.7270   45.7660 C   0  0  0  0  0  0  0  0  0  0  0  0
   46.0840   30.5440   45.7780 C   0  0  0  0  0  0  0  0  0  0  0  0
   45.7860   30.2740   47.2470 C   0  0  0  0  0  0  0  0  0  0  0  0
   45.0050   31.3430   47.8670 C   0  0  0  0  0  0  0  0  0  0  0  0
   45.3870   32.7190   47.4250 C   0  0  0  0  0  0  0  0  0  0  0  0
   47.2900   33.4750   46.9730 H   0  0  0  0  0  0  0  0  0  0  0  0
   47.9250   31.4490   46.2370 H   0  0  0  0  0  0  0  0  0  0  0  0
   47.2340   31.9340   44.6940 H   0  0  0  0  0  0  0  0  0  0  0  0
   46.6620   29.6750   45.4320 H   0  0  0  0  0  0  0  0  0  0  0  0
   45.1700   30.7290   45.2030 H   0  0  0  0  0  0  0  0  0  0  0  0
   46.7400   30.0690   47.7540 H   0  0  0  0  0  0  0  0  0  0  0  0
   45.1360   29.3850   47.2490 H   0  0  0  0  0  0  0  0  0  0  0  0
   44.2000   31.3200   48.5880 H   0  0  0  0  0  0  0  0  0  0  0  0
   44.7010   33.8490   47.9540 N   0  0  0  0  0  0  0  0  0  0  0  0
   45.0610   34.4430   48.7360 H   0  0  0  0  0  0  0  0  0  0  0  0
   43.7860   34.1940   47.6230 H   0  0  0  0  0  0  0  0  0  0  0  0
  1  7  1  0  0  0  0
  1  6  1  0  0  0  0
  2  1  2  0  0  0  0
  3  2  1  0  0  0  0
  3  4  2  0  0  0  0
  4  5  1  0  0  0  0
  5  6  2  0  0  0  0
  5 30  1  0  0  0  0
  8  2  1  0  0  0  0
  9  3  1  0  0  0  0
 10  9  1  0  0  0  0
 10 15  1  0  0  0  0
 11 10  2  0  0  0  0
 12 13  2  0  0  0  0
 12 11  1  0  0  0  0
 13 14  1  0  0  0  0
 14  9  2  0  0  0  0
 16 11  1  0  0  0  0
 17 12  1  0  0  0  0
 18 13  1  0  0  0  0
 19 18  1  0  0  0  0
 19 20  1  0  0  0  0
 21 19  2  0  0  0  0
 22 21  1  0  0  0  0
 22 29  1  0  0  0  0
 23 22  2  0  0  0  0
 24 23  1  0  0  0  0
 25 23  1  0  0  0  0
 25 26  2  0  0  0  0
 26 28  1  0  0  0  0
 27 26  1  0  0  0  0
 28 29  2  0  0  0  0
 29 18  1  0  0  0  0
 30 36  1  1  0  0  0
 30 35  1  0  0  0  0
 31 32  1  0  0  0  0
 31 37  1  0  0  0  0
 31 30  1  0  0  0  0
 32 33  1  0  0  0  0
 33 42  1  0  0  0  0
 33 41  1  0  0  0  0
 33 34  1  0  0  0  0
 34 43  1  0  0  0  0
 35 34  2  0  0  0  0
 35 44  1  0  0  0  0
 38 31  1  0  0  0  0
 39 32  1  0  0  0  0
 40 32  1  0  0  0  0
 44 45  1  0  0  0  0
 46 44  1  0  0  0  0
M  END
>  <minimizedAffinity>
-8.39140892

>  <minimizedRMSD>
0.239441529

$$$$
