
 OpenBabel03252502013D

 37 41  0  0  0  0  0  0  0  0999 V2000
   47.7280   32.0730   48.3970 C   0  0  0  0  0  0  0  0  0  0  0  0
   47.7810   30.7060   48.2260 C   0  0  0  0  0  0  0  0  0  0  0  0
   47.2620   30.2270   47.0590 C   0  0  0  0  0  0  0  0  0  0  0  0
   46.7360   31.0620   46.1510 N   0  0  0  0  0  0  0  0  0  0  0  0
   46.6870   32.3850   46.3260 C   0  0  0  0  0  0  0  0  0  0  0  0
   47.1940   32.8510   47.4600 N   0  0  0  0  0  0  0  0  0  0  0  0
   48.1480   32.4570   49.3370 H   0  0  0  0  0  0  0  0  0  0  0  0
   47.2580   28.8620   46.7710 N   0  0  0  0  0  0  0  0  0  0  0  0
   48.1030   28.1230   46.0280 C   0  0  0  0  0  0  0  0  0  0  0  0
   48.9700   28.5060   45.5070 H   0  0  0  0  0  0  0  0  0  0  0  0
   47.7080   26.8360   46.0260 N   0  0  0  0  0  0  0  0  0  0  0  0
   46.5950   26.7260   46.7740 C   0  0  0  0  0  0  0  0  0  0  0  0
   45.7980   25.6470   47.0960 C   0  0  0  0  0  0  0  0  0  0  0  0
   46.0580   24.6650   46.7070 H   0  0  0  0  0  0  0  0  0  0  0  0
   44.7360   25.8920   47.8850 N   0  0  0  0  0  0  0  0  0  0  0  0
   44.4460   27.1270   48.3490 C   0  0  0  0  0  0  0  0  0  0  0  0
   43.5670   27.2610   48.9870 H   0  0  0  0  0  0  0  0  0  0  0  0
   45.2340   28.1560   48.0230 N   0  0  0  0  0  0  0  0  0  0  0  0
   46.3240   27.9790   47.2290 C   0  0  0  0  0  0  0  0  0  0  0  0
   46.1670   33.4670   45.4790 C   0  0  0  0  0  0  0  0  0  0  0  0
   45.1510   34.2820   45.8470 N   0  0  0  0  0  0  0  0  0  0  0  0
   44.6510   35.2710   45.1120 C   0  0  0  0  0  0  0  0  0  0  0  0
   45.1690   35.5180   43.8910 N   0  0  0  0  0  0  0  0  0  0  0  0
   46.1850   34.7760   43.4080 C   0  0  0  0  0  0  0  0  0  0  0  0
   46.7120   35.0350   42.1550 C   0  0  0  0  0  0  0  0  0  0  0  0
   47.7460   34.2850   41.6610 C   0  0  0  0  0  0  0  0  0  0  0  0
   48.2340   33.2720   42.4530 C   0  0  0  0  0  0  0  0  0  0  0  0
   47.6850   33.0460   43.6890 C   0  0  0  0  0  0  0  0  0  0  0  0
   46.6520   33.7660   44.2300 C   0  0  0  0  0  0  0  0  0  0  0  0
   43.8350   35.8620   45.5070 H   0  0  0  0  0  0  0  0  0  0  0  0
   46.3090   35.8390   41.5520 H   0  0  0  0  0  0  0  0  0  0  0  0
   48.1930   34.4440   40.6910 H   0  0  0  0  0  0  0  0  0  0  0  0
   49.0490   32.6490   42.1120 H   0  0  0  0  0  0  0  0  0  0  0  0
   48.1080   32.2280   44.2810 H   0  0  0  0  0  0  0  0  0  0  0  0
   48.3460   29.8800   49.2140 N   0  0  0  0  0  0  0  0  0  0  0  0
   47.7720   29.4140   49.9490 H   0  0  0  0  0  0  0  0  0  0  0  0
   49.3600   29.6270   49.3500 H   0  0  0  0  0  0  0  0  0  0  0  0
  1  7  1  0  0  0  0
  2  1  1  0  0  0  0
  2 35  1  0  0  0  0
  3  2  2  0  0  0  0
  4  5  2  0  0  0  0
  4  3  1  0  0  0  0
  5  6  1  0  0  0  0
  6  1  2  0  0  0  0
  8  3  1  0  0  0  0
  8 19  1  0  0  0  0
  9  8  1  0  0  0  0
 10  9  1  0  0  0  0
 11  9  2  0  0  0  0
 11 12  1  0  0  0  0
 12 13  2  0  0  0  0
 12 19  1  0  0  0  0
 13 15  1  0  0  0  0
 14 13  1  0  0  0  0
 15 16  2  0  0  0  0
 16 17  1  0  0  0  0
 18 16  1  0  0  0  0
 19 18  2  0  0  0  0
 20 21  1  0  0  0  0
 20  5  1  0  0  0  0
 22 30  1  0  0  0  0
 22 21  2  0  0  0  0
 23 22  1  0  0  0  0
 24 23  2  0  0  0  0
 24 29  1  0  0  0  0
 25 24  1  0  0  0  0
 26 25  2  0  0  0  0
 26 27  1  0  0  0  0
 27 28  2  0  0  0  0
 28 29  1  0  0  0  0
 28 34  1  0  0  0  0
 29 20  2  0  0  0  0
 31 25  1  0  0  0  0
 32 26  1  0  0  0  0
 33 27  1  0  0  0  0
 35 37  1  0  0  0  0
 35 36  1  0  0  0  0
M  END
>  <minimizedAffinity>
-6.60100889

>  <minimizedRMSD>
1.35941565

$$$$
