
     RDKit          3D

 50 54  0  0  0  0  0  0  0  0999 V2000
   44.1121   33.5607   40.7042 C   0  0  0  0  0  0  0  0  0  0  0  0
   44.4086   34.7093   41.4713 C   0  0  0  0  0  0  0  0  0  0  0  0
   43.4165   35.7052   41.6220 C   0  0  0  0  0  0  0  0  0  0  0  0
   42.2211   35.5013   41.0149 N   0  0  0  0  0  0  0  0  0  0  0  0
   41.9799   34.4077   40.3013 C   0  0  0  0  0  0  0  0  0  0  0  0
   42.9230   33.4664   40.1613 N   0  0  0  0  0  0  0  0  0  0  0  0
   39.7502   33.5707   41.7063 F   0  0  0  0  0  0  0  0  0  0  0  0
   39.5782   33.8162   40.3927 C   0  0  0  0  0  0  0  0  0  0  0  0
   40.6729   34.2357   39.6646 C   0  0  0  0  0  0  0  0  0  0  0  0
   40.5908   34.5143   38.2981 C   0  0  0  0  0  0  0  0  0  0  0  0
   39.3519   34.3531   37.6854 C   0  0  0  0  0  0  0  0  0  0  0  0
   38.2245   33.9254   38.4160 C   0  0  0  0  0  0  0  0  0  0  0  0
   38.3541   33.6603   39.7723 C   0  0  0  0  0  0  0  0  0  0  0  0
   45.7142   34.9444   42.1383 C   0  0  0  0  0  0  0  0  0  0  0  0
   46.8617   34.7070   41.4803 C   0  0  0  0  0  0  0  0  0  0  0  0
   48.1747   34.9561   42.1823 C   0  0  0  0  0  0  0  0  0  0  0  0
   49.2688   34.3119   41.5017 N   0  0  0  0  0  0  0  0  0  0  0  0
   50.3455   34.0647   42.3963 C   0  0  0  0  0  0  0  0  0  0  0  0
   50.9952   32.7692   42.0056 C   0  0  0  0  0  0  0  0  0  0  0  0
   49.9336   32.0793   41.2164 C   0  0  0  0  0  0  0  0  0  0  0  0
   48.8465   33.0663   40.9555 C   0  0  2  0  0  0  0  0  0  0  0  0
   44.9189   32.8527   40.6391 H   0  0  0  0  0  0  0  0  0  0  0  0
   43.5748   36.5920   42.1853 H   0  0  0  0  0  0  0  0  0  0  0  0
   41.4364   34.8435   37.7117 H   0  0  0  0  0  0  0  0  0  0  0  0
   39.2212   34.5515   36.6339 H   0  0  0  0  0  0  0  0  0  0  0  0
   37.2693   33.8058   37.9223 H   0  0  0  0  0  0  0  0  0  0  0  0
   37.5079   33.3359   40.3359 H   0  0  0  0  0  0  0  0  0  0  0  0
   45.6929   35.3134   43.1721 H   0  0  0  0  0  0  0  0  0  0  0  0
   46.5319   34.3538   40.4889 H   0  0  0  0  0  0  0  0  0  0  0  0
   48.0794   34.4845   43.1843 H   0  0  0  0  0  0  0  0  0  0  0  0
   48.3163   36.0290   42.3320 H   0  0  0  0  0  0  0  0  0  0  0  0
   49.9629   33.9228   43.4442 H   0  0  0  0  0  0  0  0  0  0  0  0
   51.0587   34.9259   42.4161 H   0  0  0  0  0  0  0  0  0  0  0  0
   51.9106   33.0201   41.4249 H   0  0  0  0  0  0  0  0  0  0  0  0
   51.3140   32.1622   42.8749 H   0  0  0  0  0  0  0  0  0  0  0  0
   49.5838   31.1129   41.6477 H   0  0  0  0  0  0  0  0  0  0  0  0
   50.3831   31.7999   40.2238 H   0  0  0  0  0  0  0  0  0  0  0  0
   47.9687   32.7157   41.5388 H   0  0  0  0  0  0  0  0  0  0  0  0
   48.4417   33.1121   39.5699 N   0  0  0  0  0  0  0  0  0  0  0  0
   49.3154   33.1294   38.5401 C   0  0  0  0  0  0  0  0  0  0  0  0
   50.4111   33.1119   38.5689 H   0  0  0  0  0  0  0  0  0  0  0  0
   48.6200   33.1742   37.3877 N   0  0  0  0  0  0  0  0  0  0  0  0
   47.3306   33.1850   37.6879 C   0  0  0  0  0  0  0  0  0  0  0  0
   46.1198   33.2236   37.0079 C   0  0  0  0  0  0  0  0  0  0  0  0
   46.1457   33.2558   35.9147 H   0  0  0  0  0  0  0  0  0  0  0  0
   44.9078   33.2252   37.5732 N   0  0  0  0  0  0  0  0  0  0  0  0
   44.8217   33.1867   38.9122 C   0  0  0  0  0  0  0  0  0  0  0  0
   43.9551   33.1807   39.5586 H   0  0  0  0  0  0  0  0  0  0  0  0
   45.9586   33.1470   39.6674 N   0  0  0  0  0  0  0  0  0  0  0  0
   47.1762   33.1465   39.0581 C   0  0  0  0  0  0  0  0  0  0  0  0
  1  2  2  0
  2  3  1  0
  2 14  1  0
  4  3  2  0
  5  4  1  0
  6  5  2  0
  6  1  1  0
  8  7  1  0
  9  5  1  0
  9  8  2  0
 10  9  1  0
 11 10  2  0
 11 12  1  0
 12 13  2  0
 13  8  1  0
 15 14  2  0
 15 16  1  0
 17 16  1  0
 17 18  1  0
 19 18  1  0
 20 19  1  0
 21 20  1  0
 21 17  1  0
  1 22  1  0
  3 23  1  0
 10 24  1  0
 11 25  1  0
 12 26  1  0
 13 27  1  0
 14 28  1  0
 15 29  1  0
 16 30  1  0
 16 31  1  0
 18 32  1  0
 18 33  1  0
 19 34  1  0
 19 35  1  0
 20 36  1  0
 20 37  1  0
 21 38  1  1
 39 40  1  0
 40 41  1  0
 40 42  2  0
 42 43  1  0
 43 44  2  0
 44 45  1  0
 44 46  1  0
 46 47  2  0
 47 48  1  0
 47 49  1  0
 49 50  2  0
 50 39  1  0
 50 43  1  0
 21 39  1  0
M  ISO  8  22  14  23  14  24  14  25  14  26  14  27  14  30   8  31   8
M  ISO  8  32  13  33  13  34  13  35  13  36  13  37  13  38  13  41  15
M  ISO  2  45  16  48  16
M  END
>  <DihAtoms>  (1) 
19,20,38,39

>  <DihDeg>  (1) 
75.35932079194976

$$$$
