
 OpenBabel03252508173D

 50 55  0  0  1  0  0  0  0  0999 V2000
   47.0080   31.7050   48.2810 C   0  0  1  0  0  0  0  0  0  0  0  0
   46.3830   30.7380   49.2290 C   0  0  0  0  0  0  0  0  0  0  0  0
   47.7430   31.2190   49.4680 C   0  0  1  0  0  0  0  0  0  0  0  0
   46.4030   32.6590   48.2800 H   0  0  0  0  0  0  0  0  0  0  0  0
   46.3100   29.6620   48.9290 H   0  0  0  0  0  0  0  0  0  0  0  0
   45.5710   31.0130   49.9150 H   0  0  0  0  0  0  0  0  0  0  0  0
   47.8710   31.9420   50.3000 H   0  0  0  0  0  0  0  0  0  0  0  0
   48.9250   30.3320   49.2450 C   0  0  2  0  0  0  0  0  0  0  0  0
   49.7270   30.0310   50.5380 C   0  0  0  0  0  0  0  0  0  0  0  0
   50.3110   30.9160   49.5240 C   0  0  1  0  0  0  0  0  0  0  0  0
   48.8310   29.4060   48.6470 H   0  0  0  0  0  0  0  0  0  0  0  0
   49.3940   30.5240   51.4730 H   0  0  0  0  0  0  0  0  0  0  0  0
   50.2050   29.0670   50.6750 H   0  0  0  0  0  0  0  0  0  0  0  0
   50.3220   32.0340   49.6590 H   0  0  0  0  0  0  0  0  0  0  0  0
   51.3110   30.4640   48.5750 N   0  0  0  0  0  0  0  0  0  0  0  0
   52.5790   30.9180   48.5690 C   0  0  0  0  0  0  0  0  0  0  0  0
   53.0430   31.6450   49.2200 H   0  0  0  0  0  0  0  0  0  0  0  0
   53.2590   30.3110   47.5730 N   0  0  0  0  0  0  0  0  0  0  0  0
   52.3790   29.4870   46.9850 C   0  0  0  0  0  0  0  0  0  0  0  0
   52.5720   28.6290   45.9040 C   0  0  0  0  0  0  0  0  0  0  0  0
   53.5080   28.5120   45.3730 H   0  0  0  0  0  0  0  0  0  0  0  0
   51.5070   27.9030   45.5080 N   0  0  0  0  0  0  0  0  0  0  0  0
   50.3210   27.9970   46.1190 C   0  0  0  0  0  0  0  0  0  0  0  0
   49.4670   27.4130   45.7990 H   0  0  0  0  0  0  0  0  0  0  0  0
   50.0980   28.8170   47.1690 N   0  0  0  0  0  0  0  0  0  0  0  0
   51.1300   29.5580   47.5950 C   0  0  0  0  0  0  0  0  0  0  0  0
   47.3050   31.1470   46.9340 C   0  0  0  0  0  0  0  0  0  0  0  0
   46.5590   30.3210   46.7570 H   0  0  0  0  0  0  0  0  0  0  0  0
   48.3080   30.8140   46.7330 H   0  0  0  0  0  0  0  0  0  0  0  0
   46.1850   33.0780   46.1800 C   0  0  0  0  0  3  0  0  0  0  0  0
   46.9910   32.1560   45.8550 C   0  0  0  0  0  3  0  0  0  0  0  0
   44.5340   35.8480   44.3930 C   0  0  0  0  0  0  0  0  0  0  0  0
   45.1570   35.8340   43.1500 C   0  0  0  0  0  0  0  0  0  0  0  0
   46.1100   34.8860   42.9700 C   0  0  0  0  0  0  0  0  0  0  0  0
   46.4210   34.0110   43.9640 N   0  0  0  0  0  0  0  0  0  0  0  0
   45.7920   34.0550   45.1620 C   0  0  0  0  0  0  0  0  0  0  0  0
   44.8650   34.9770   45.3390 N   0  0  0  0  0  0  0  0  0  0  0  0
   43.7700   36.5880   44.5760 H   0  0  0  0  0  0  0  0  0  0  0  0
   44.9400   36.5040   42.3450 H   0  0  0  0  0  0  0  0  0  0  0  0
   46.8500   34.7480   41.7170 C   0  0  0  0  0  0  0  0  0  0  0  0
   48.0570   35.3470   41.4550 C   0  0  0  0  0  0  0  0  0  0  0  0
   48.7490   35.2110   40.2720 C   0  0  0  0  0  0  0  0  0  0  0  0
   48.2190   34.4260   39.2590 C   0  0  0  0  0  0  0  0  0  0  0  0
   47.0140   33.8060   39.4690 C   0  0  0  0  0  0  0  0  0  0  0  0
   46.3720   33.9830   40.6790 C   0  0  0  0  0  0  0  0  0  0  0  0
   48.5030   35.9760   42.2410 H   0  0  0  0  0  0  0  0  0  0  0  0
   49.7050   35.7020   40.1010 H   0  0  0  0  0  0  0  0  0  0  0  0
   48.7480   34.3130   38.3350 H   0  0  0  0  0  0  0  0  0  0  0  0
   46.5720   33.1900   38.7110 H   0  0  0  0  0  0  0  0  0  0  0  0
   45.4140   33.4660   40.7960 H   0  0  0  0  0  0  0  0  0  0  0  0
  1  4  1  1  0  0  0
  1  2  1  0  0  0  0
  1  3  1  0  0  0  0
  2  3  1  0  0  0  0
  2  6  1  0  0  0  0
  3  7  1  1  0  0  0
  5  2  1  0  0  0  0
  8 11  1  6  0  0  0
  8  3  1  0  0  0  0
  8 10  1  0  0  0  0
  8  9  1  0  0  0  0
  9 13  1  0  0  0  0
  9 12  1  0  0  0  0
 10 14  1  1  0  0  0
 10  9  1  0  0  0  0
 15 10  1  0  0  0  0
 16 15  1  0  0  0  0
 16 17  1  0  0  0  0
 18 16  2  0  0  0  0
 19 18  1  0  0  0  0
 19 26  1  0  0  0  0
 20 19  2  0  0  0  0
 21 20  1  0  0  0  0
 22 20  1  0  0  0  0
 22 23  2  0  0  0  0
 23 25  1  0  0  0  0
 24 23  1  0  0  0  0
 25 26  2  0  0  0  0
 26 15  1  0  0  0  0
 27  1  1  0  0  0  0
 28 27  1  0  0  0  0
 29 27  1  0  0  0  0
 31 30  2  0  0  0  0
 31 27  1  0  0  0  0
 32 38  1  0  0  0  0
 32 37  1  0  0  0  0
 33 32  2  0  0  0  0
 34 33  1  0  0  0  0
 34 35  2  0  0  0  0
 35 36  1  0  0  0  0
 36 37  2  0  0  0  0
 36 30  1  0  0  0  0
 39 33  1  0  0  0  0
 40 34  1  0  0  0  0
 41 40  1  0  0  0  0
 41 46  1  0  0  0  0
 42 41  2  0  0  0  0
 43 44  2  0  0  0  0
 43 42  1  0  0  0  0
 44 45  1  0  0  0  0
 45 50  1  0  0  0  0
 45 40  2  0  0  0  0
 47 42  1  0  0  0  0
 48 43  1  0  0  0  0
 49 44  1  0  0  0  0
M  END
>  <minimizedAffinity>
-6.36488867

>  <minimizedRMSD>
1.21294188

$$$$
