
 OpenBabel03252505063D

 46 50  0  0  1  0  0  0  0  0999 V2000
   44.5930   35.5680   44.5710 C   0  0  0  0  0  0  0  0  0  0  0  0
   45.2510   35.5650   43.3210 C   0  0  0  0  0  0  0  0  0  0  0  0
   46.3350   34.6460   43.1620 C   0  0  0  0  0  0  0  0  0  0  0  0
   46.6810   33.8360   44.1860 N   0  0  0  0  0  0  0  0  0  0  0  0
   46.0160   33.8810   45.3640 C   0  0  0  0  0  0  0  0  0  0  0  0
   44.9710   34.7440   45.5620 N   0  0  0  0  0  0  0  0  0  0  0  0
   43.7810   36.2720   44.6570 H   0  0  0  0  0  0  0  0  0  0  0  0
   45.0040   36.1880   42.4960 H   0  0  0  0  0  0  0  0  0  0  0  0
   47.0350   34.6160   41.8740 C   0  0  0  0  0  0  0  0  0  0  0  0
   48.1370   35.3960   41.7260 C   0  0  0  0  0  0  0  0  0  0  0  0
   48.7690   35.3390   40.4840 C   0  0  0  0  0  0  0  0  0  0  0  0
   48.2220   34.5040   39.5340 C   0  0  0  0  0  0  0  0  0  0  0  0
   47.1150   33.7220   39.6900 C   0  0  0  0  0  0  0  0  0  0  0  0
   46.5210   33.8080   40.9270 N   0  0  0  0  0  0  0  0  0  0  0  0
   48.4990   36.0240   42.5250 H   0  0  0  0  0  0  0  0  0  0  0  0
   49.6560   35.9390   40.3000 H   0  0  0  0  0  0  0  0  0  0  0  0
   48.7050   34.4500   38.5640 H   0  0  0  0  0  0  0  0  0  0  0  0
   46.5920   32.8750   38.6710 N   0  0  0  0  0  0  0  0  0  0  0  0
   46.1140   33.2840   37.4780 C   0  0  0  0  0  0  0  0  0  0  0  0
   46.0470   34.2990   37.1000 H   0  0  0  0  0  0  0  0  0  0  0  0
   45.7030   32.2460   36.7590 N   0  0  0  0  0  0  0  0  0  0  0  0
   45.8980   31.1100   37.4570 C   0  0  0  0  0  0  0  0  0  0  0  0
   45.6890   29.7460   37.2760 C   0  0  0  0  0  0  0  0  0  0  0  0
   45.2530   29.4790   36.3280 H   0  0  0  0  0  0  0  0  0  0  0  0
   46.0300   28.8780   38.2510 N   0  0  0  0  0  0  0  0  0  0  0  0
   46.5660   29.3040   39.3950 C   0  0  0  0  0  0  0  0  0  0  0  0
   46.8280   28.5820   40.1580 H   0  0  0  0  0  0  0  0  0  0  0  0
   46.7810   30.6280   39.6000 N   0  0  0  0  0  0  0  0  0  0  0  0
   46.4600   31.5460   38.6600 C   0  0  0  0  0  0  0  0  0  0  0  0
   46.4420   32.9710   46.4570 C   0  0  2  0  0  0  0  0  0  0  0  0
   46.9730   31.7350   45.7860 C   0  0  0  0  0  0  0  0  0  0  0  0
   46.1010   30.5490   45.8090 C   0  0  0  0  0  0  0  0  0  0  0  0
   45.7880   30.3030   47.2790 C   0  0  0  0  0  0  0  0  0  0  0  0
   44.9950   31.3780   47.8710 C   0  0  0  0  0  0  0  0  0  0  0  0
   45.3760   32.7480   47.4100 C   0  0  0  0  0  0  0  0  0  0  0  0
   47.2800   33.5050   46.9660 H   0  0  0  0  0  0  0  0  0  0  0  0
   47.9330   31.4700   46.2730 H   0  0  0  0  0  0  0  0  0  0  0  0
   47.2580   31.9240   44.7140 H   0  0  0  0  0  0  0  0  0  0  0  0
   46.6870   29.6770   45.4850 H   0  0  0  0  0  0  0  0  0  0  0  0
   45.1930   30.7190   45.2200 H   0  0  0  0  0  0  0  0  0  0  0  0
   46.7370   30.1110   47.8000 H   0  0  0  0  0  0  0  0  0  0  0  0
   45.1430   29.4100   47.2890 H   0  0  0  0  0  0  0  0  0  0  0  0
   44.1820   31.3640   48.5830 H   0  0  0  0  0  0  0  0  0  0  0  0
   44.6790   33.8840   47.9110 N   0  0  0  0  0  0  0  0  0  0  0  0
   45.0270   34.4930   48.6870 H   0  0  0  0  0  0  0  0  0  0  0  0
   43.7660   34.2180   47.5640 H   0  0  0  0  0  0  0  0  0  0  0  0
  1  7  1  0  0  0  0
  1  6  1  0  0  0  0
  2  1  2  0  0  0  0
  3  2  1  0  0  0  0
  3  4  2  0  0  0  0
  4  5  1  0  0  0  0
  5  6  2  0  0  0  0
  5 30  1  0  0  0  0
  8  2  1  0  0  0  0
  9  3  1  0  0  0  0
 10  9  1  0  0  0  0
 10 15  1  0  0  0  0
 11 10  2  0  0  0  0
 12 13  2  0  0  0  0
 12 11  1  0  0  0  0
 13 14  1  0  0  0  0
 14  9  2  0  0  0  0
 16 11  1  0  0  0  0
 17 12  1  0  0  0  0
 18 13  1  0  0  0  0
 19 18  1  0  0  0  0
 20 19  1  0  0  0  0
 21 22  1  0  0  0  0
 21 19  2  0  0  0  0
 22 29  1  0  0  0  0
 23 22  2  0  0  0  0
 23 25  1  0  0  0  0
 24 23  1  0  0  0  0
 25 26  2  0  0  0  0
 26 28  1  0  0  0  0
 26 27  1  0  0  0  0
 29 18  1  0  0  0  0
 29 28  2  0  0  0  0
 30 36  1  1  0  0  0
 30 35  1  0  0  0  0
 31 32  1  0  0  0  0
 31 37  1  0  0  0  0
 31 30  1  0  0  0  0
 32 33  1  0  0  0  0
 33 42  1  0  0  0  0
 33 41  1  0  0  0  0
 33 34  1  0  0  0  0
 34 43  1  0  0  0  0
 35 34  2  0  0  0  0
 35 44  1  0  0  0  0
 38 31  1  0  0  0  0
 39 32  1  0  0  0  0
 40 32  1  0  0  0  0
 44 45  1  0  0  0  0
 46 44  1  0  0  0  0
M  END
>  <minimizedAffinity>
-7.57687712

>  <minimizedRMSD>
0.179908752

$$$$
