
 OpenBabel03252507313D

 52 56  0  0  1  0  0  0  0  0999 V2000
   47.0180   32.7450   45.5440 C   0  0  0  0  0  0  0  0  0  0  0  0
   45.8970   33.4320   45.9820 C   0  0  0  0  0  0  0  0  0  0  0  0
   45.2220   34.3090   45.1010 C   0  0  0  0  0  0  0  0  0  0  0  0
   45.7530   34.4230   43.8170 N   0  0  0  0  0  0  0  0  0  0  0  0
   46.8390   33.7330   43.4590 C   0  0  0  0  0  0  0  0  0  0  0  0
   47.4610   32.9090   44.3030 N   0  0  0  0  0  0  0  0  0  0  0  0
   45.3540   33.5240   46.9000 H   0  0  0  0  0  0  0  0  0  0  0  0
   44.3620   34.9050   45.2570 H   0  0  0  0  0  0  0  0  0  0  0  0
   47.3590   33.9130   42.0990 C   0  0  0  0  0  0  0  0  0  0  0  0
   47.9330   35.1020   41.7110 C   0  0  0  0  0  0  0  0  0  0  0  0
   48.4500   35.3660   40.4610 C   0  0  0  0  0  0  0  0  0  0  0  0
   48.3520   34.3190   39.5800 C   0  0  0  0  0  0  0  0  0  0  0  0
   47.7750   33.1020   39.9450 C   0  0  0  0  0  0  0  0  0  0  0  0
   47.2820   32.9110   41.2080 N   0  0  0  0  0  0  0  0  0  0  0  0
   47.9740   35.8880   42.4720 H   0  0  0  0  0  0  0  0  0  0  0  0
   48.8950   36.2990   40.1740 H   0  0  0  0  0  0  0  0  0  0  0  0
   48.7180   34.3890   38.5650 H   0  0  0  0  0  0  0  0  0  0  0  0
   47.7010   32.0480   38.9870 N   0  0  0  0  0  0  0  0  0  0  0  0
   48.2900   30.8210   38.9130 C   0  0  0  0  0  0  0  0  0  0  0  0
   48.9670   30.4820   39.6850 H   0  0  0  0  0  0  0  0  0  0  0  0
   47.8760   30.2070   37.7820 N   0  0  0  0  0  0  0  0  0  0  0  0
   47.0240   31.0260   37.1230 C   0  0  0  0  0  0  0  0  0  0  0  0
   46.3300   30.8750   35.9310 C   0  0  0  0  0  0  0  0  0  0  0  0
   46.4240   29.9620   35.3460 H   0  0  0  0  0  0  0  0  0  0  0  0
   45.5280   31.8550   35.4790 N   0  0  0  0  0  0  0  0  0  0  0  0
   45.4430   32.9790   36.2490 C   0  0  0  0  0  0  0  0  0  0  0  0
   44.8200   33.8440   35.9790 H   0  0  0  0  0  0  0  0  0  0  0  0
   46.0990   33.1670   37.4120 N   0  0  0  0  0  0  0  0  0  0  0  0
   46.9110   32.1940   37.8850 C   0  0  0  0  0  0  0  0  0  0  0  0
   47.6570   31.8400   46.4780 C   0  0  2  0  0  0  0  0  0  0  0  0
   47.5180   30.3590   46.0290 C   0  0  0  0  0  0  0  0  0  0  0  0
   48.3250   29.4880   46.9300 C   0  0  0  0  0  0  0  0  0  0  0  0
   48.2100   29.7740   48.3890 C   0  0  0  0  0  0  0  0  0  0  0  0
   48.1190   31.1770   48.7160 C   0  0  0  0  0  0  0  0  0  0  0  0
   47.1300   31.9590   47.8230 C   0  0  2  0  0  0  0  0  0  0  0  0
   48.7540   32.0030   46.4200 H   0  0  0  0  0  0  0  0  0  0  0  0
   46.4810   30.0320   46.0040 H   0  0  0  0  0  0  0  0  0  0  0  0
   47.9120   30.2990   44.9950 H   0  0  0  0  0  0  0  0  0  0  0  0
   49.3470   29.4720   46.5050 H   0  0  0  0  0  0  0  0  0  0  0  0
   47.9590   28.4290   46.7840 H   0  0  0  0  0  0  0  0  0  0  0  0
   47.8370   28.9870   49.0430 H   0  0  0  0  0  0  0  0  0  0  0  0
   49.3180   29.5870   48.6940 H   0  0  0  0  0  0  0  0  0  0  0  0
   49.0480   31.7970   48.6830 H   0  0  0  0  0  0  0  0  0  0  0  0
   47.7370   31.3370   49.7620 H   0  0  0  0  0  0  0  0  0  0  0  0
   47.1710   32.9460   48.2840 H   0  0  0  0  0  0  0  0  0  0  0  0
   45.8170   31.3150   47.9040 N   0  0  0  0  0  0  0  0  0  0  0  0
   45.1350   30.7170   48.9770 C   0  0  0  0  0  0  0  0  0  0  0  0
   44.5450   31.3940   49.8950 O   0  0  0  0  0  0  0  0  0  0  0  0
   45.1400   29.2890   48.9650 N   0  0  0  0  0  0  0  0  0  0  0  0
   45.1990   31.1630   47.0210 H   0  0  0  0  0  0  0  0  0  0  0  0
   44.8720   28.6330   48.2100 H   0  0  0  0  0  0  0  0  0  0  0  0
   45.4510   28.7530   49.8110 H   0  0  0  0  0  0  0  0  0  0  0  0
  1  2  1  0  0  0  0
  1 30  1  0  0  0  0
  2  7  1  0  0  0  0
  3  8  1  0  0  0  0
  3  2  2  0  0  0  0
  4  3  1  0  0  0  0
  5  4  2  0  0  0  0
  5  6  1  0  0  0  0
  6  1  2  0  0  0  0
  9  5  1  0  0  0  0
 10  9  1  0  0  0  0
 10 15  1  0  0  0  0
 11 10  2  0  0  0  0
 12 13  2  0  0  0  0
 12 11  1  0  0  0  0
 13 14  1  0  0  0  0
 14  9  2  0  0  0  0
 16 11  1  0  0  0  0
 17 12  1  0  0  0  0
 18 13  1  0  0  0  0
 19 18  1  0  0  0  0
 19 20  1  0  0  0  0
 21 19  2  0  0  0  0
 22 21  1  0  0  0  0
 22 29  1  0  0  0  0
 23 22  2  0  0  0  0
 24 23  1  0  0  0  0
 25 23  1  0  0  0  0
 25 26  2  0  0  0  0
 26 28  1  0  0  0  0
 27 26  1  0  0  0  0
 28 29  2  0  0  0  0
 29 18  1  0  0  0  0
 30 36  1  1  0  0  0
 30 35  1  0  0  0  0
 31 30  1  0  0  0  0
 31 32  1  0  0  0  0
 32 33  1  0  0  0  0
 33 42  1  0  0  0  0
 33 34  1  0  0  0  0
 33 41  1  0  0  0  0
 34 44  1  0  0  0  0
 35 46  1  0  0  0  0
 35 45  1  1  0  0  0
 35 34  1  0  0  0  0
 37 31  1  0  0  0  0
 38 31  1  0  0  0  0
 39 32  1  0  0  0  0
 40 32  1  0  0  0  0
 43 34  1  0  0  0  0
 46 47  1  0  0  0  0
 47 48  2  0  0  0  0
 49 47  1  0  0  0  0
 49 52  1  0  0  0  0
 50 46  1  0  0  0  0
 51 49  1  0  0  0  0
M  END
>  <minimizedAffinity>
-6.53887892

>  <minimizedRMSD>
1.22433829

$$$$
