
 OpenBabel03242516413D

 35 37  0  0  0  0  0  0  0  0999 V2000
   49.1190   32.6030   42.0050 O   0  0  0  0  0  0  0  0  0  0  0  0
   49.1810   33.9430   42.3250 C   0  0  0  0  0  0  0  0  0  0  0  0
   49.3880   34.0480   43.4280 H   0  0  0  0  0  0  0  0  0  0  0  0
   50.0610   34.4130   41.7980 H   0  0  0  0  0  0  0  0  0  0  0  0
   47.9080   34.6420   41.9720 C   0  0  0  0  0  0  0  0  0  0  0  0
   47.4800   34.2430   41.0260 H   0  0  0  0  0  0  0  0  0  0  0  0
   48.1320   35.7260   41.8610 H   0  0  0  0  0  0  0  0  0  0  0  0
   44.8650   35.1400   44.1430 C   0  0  0  0  0  0  0  0  0  0  0  0
   45.7900   35.2610   43.0590 C   0  0  0  0  0  0  0  0  0  0  0  0
   46.9570   34.5080   43.1000 C   0  0  0  0  0  0  0  0  0  0  0  0
   47.1600   33.7070   44.1500 N   0  0  0  0  0  0  0  0  0  0  0  0
   46.2760   33.6040   45.1660 C   0  0  0  0  0  0  0  0  0  0  0  0
   45.1360   34.3080   45.1730 N   0  0  0  0  0  0  0  0  0  0  0  0
   43.6760   35.8870   44.1310 N   0  0  0  0  0  0  0  0  0  0  0  0
   45.5160   35.9400   42.2660 H   0  0  0  0  0  0  0  0  0  0  0  0
   46.5070   32.9340   45.9850 H   0  0  0  0  0  0  0  0  0  0  0  0
   43.2470   36.1380   45.0500 H   0  0  0  0  0  0  0  0  0  0  0  0
   43.1660   36.2240   43.2830 H   0  0  0  0  0  0  0  0  0  0  0  0
   50.9440   30.7430   42.2400 O   0  0  0  0  0  0  0  0  0  0  0  0
   50.6120   31.9960   41.4870 P   0  0  2  0  0  0  0  0  0  0  0  0
   51.7490   33.2230   41.7440 O   0  0  0  0  0  0  0  0  0  0  0  0
   51.8620   33.8090   40.9410 H   0  0  0  0  0  0  0  0  0  0  0  0
   50.5740   31.7440   39.8100 O   0  0  0  0  0  0  0  0  0  0  0  0
   49.5460   34.0620   38.5160 H   0  0  0  0  0  0  0  0  0  0  0  0
   48.9680   33.1980   38.4890 N   0  0  0  0  0  0  0  0  0  0  0  0
   49.4370   32.0950   39.0940 C   0  0  0  0  0  0  0  0  0  0  0  0
   48.5390   31.0850   38.9450 N   0  0  0  0  0  0  0  0  0  0  0  0
   47.4770   31.5390   38.2360 C   0  0  0  0  0  0  0  0  0  0  0  0
   46.2730   31.0850   37.7450 C   0  0  0  0  0  0  0  0  0  0  0  0
   46.0420   30.0430   37.9600 H   0  0  0  0  0  0  0  0  0  0  0  0
   45.4590   31.8890   37.0540 N   0  0  0  0  0  0  0  0  0  0  0  0
   45.7580   33.1750   36.7960 C   0  0  0  0  0  0  0  0  0  0  0  0
   45.0930   33.8160   36.2360 H   0  0  0  0  0  0  0  0  0  0  0  0
   46.9400   33.6460   37.2690 N   0  0  0  0  0  0  0  0  0  0  0  0
   47.7800   32.8620   37.9680 C   0  0  0  0  0  0  0  0  0  0  0  0
  1  2  1  0  0  0  0
  2  3  1  0  0  0  0
  4  2  1  0  0  0  0
  5  2  1  0  0  0  0
  5 10  1  0  0  0  0
  6  5  1  0  0  0  0
  7  5  1  0  0  0  0
  8 13  1  0  0  0  0
  9 10  1  0  0  0  0
  9  8  2  0  0  0  0
 10 11  2  0  0  0  0
 11 12  1  0  0  0  0
 12 13  2  0  0  0  0
 12 16  1  0  0  0  0
 14  8  1  0  0  0  0
 14 17  1  0  0  0  0
 15  9  1  0  0  0  0
 18 14  1  0  0  0  0
 20 21  1  0  0  0  0
 20  1  1  0  0  0  0
 20 19  2  1  0  0  0
 22 21  1  0  0  0  0
 23 20  1  0  0  0  0
 25 24  1  0  0  0  0
 25 26  1  0  0  0  0
 26 23  1  0  0  0  0
 27 26  2  0  0  0  0
 28 27  1  0  0  0  0
 29 30  1  0  0  0  0
 29 28  2  0  0  0  0
 31 29  1  0  0  0  0
 32 31  2  0  0  0  0
 32 34  1  0  0  0  0
 33 32  1  0  0  0  0
 34 35  2  0  0  0  0
 35 28  1  0  0  0  0
 35 25  1  0  0  0  0
M  END
>  <minimizedAffinity>
-5.14318657

>  <minimizedRMSD>
1.36620212

$$$$
