
 OpenBabel03242514073D

 46 50  0  0  1  0  0  0  0  0999 V2000
   38.0840   29.2980   41.4330 C   0  0  1  0  0  0  0  0  0  0  0  0
   38.4570   29.5290   42.9120 C   0  0  0  0  0  0  0  0  0  0  0  0
   38.7510   28.1170   43.4370 C   0  0  0  0  0  0  0  0  0  0  0  0
   37.3870   27.4420   43.5320 C   0  0  0  0  0  0  0  0  0  0  0  0
   36.6760   27.3980   42.2380 C   0  0  0  0  0  0  0  0  0  0  0  0
   36.8560   28.5170   41.2870 C   0  0  2  0  0  0  0  0  0  0  0  0
   38.9700   28.6970   41.0600 H   0  0  0  0  0  0  0  0  0  0  0  0
   39.3490   30.1620   42.9540 H   0  0  0  0  0  0  0  0  0  0  0  0
   37.5600   29.9270   43.3870 H   0  0  0  0  0  0  0  0  0  0  0  0
   39.3810   27.5460   42.7530 H   0  0  0  0  0  0  0  0  0  0  0  0
   39.1300   28.2030   44.4770 H   0  0  0  0  0  0  0  0  0  0  0  0
   37.4800   26.4200   43.9460 H   0  0  0  0  0  0  0  0  0  0  0  0
   36.8230   28.0160   44.3090 H   0  0  0  0  0  0  0  0  0  0  0  0
   35.5770   27.2830   42.4760 H   0  0  0  0  0  0  0  0  0  0  0  0
   36.9300   26.4100   41.7630 H   0  0  0  0  0  0  0  0  0  0  0  0
   35.9640   29.1930   41.3540 H   0  0  0  0  0  0  0  0  0  0  0  0
   36.8170   27.8890   39.9500 N   0  0  0  0  0  0  0  0  0  0  0  0
   37.6710   27.0510   39.2960 C   0  0  0  0  0  0  0  0  0  0  0  0
   38.5840   26.7320   39.7720 H   0  0  0  0  0  0  0  0  0  0  0  0
   37.1410   26.7800   38.0910 N   0  0  0  0  0  0  0  0  0  0  0  0
   35.9790   27.4180   37.9580 C   0  0  0  0  0  0  0  0  0  0  0  0
   35.0070   27.5240   36.9770 C   0  0  0  0  0  0  0  0  0  0  0  0
   35.2060   26.9590   36.0730 H   0  0  0  0  0  0  0  0  0  0  0  0
   33.8910   28.2580   37.0980 N   0  0  0  0  0  0  0  0  0  0  0  0
   33.7100   28.9320   38.2480 C   0  0  0  0  0  0  0  0  0  0  0  0
   32.8020   29.5160   38.3230 H   0  0  0  0  0  0  0  0  0  0  0  0
   34.6190   28.8660   39.2350 N   0  0  0  0  0  0  0  0  0  0  0  0
   35.7540   28.1250   39.1210 C   0  0  0  0  0  0  0  0  0  0  0  0
   39.2250   32.0630   39.2820 C   0  0  0  0  0  0  0  0  0  0  0  0
   38.1000   32.8520   39.2450 C   0  0  0  0  0  0  0  0  0  0  0  0
   36.9230   32.5600   39.8980 C   0  0  0  0  0  0  0  0  0  0  0  0
   36.9600   31.3630   40.6240 C   0  0  0  0  0  0  0  0  0  0  0  0
   38.0990   30.5480   40.6670 C   0  0  0  0  0  0  0  0  0  0  0  0
   39.2180   30.9080   39.9950 N   0  0  0  0  0  0  0  0  0  0  0  0
   38.1650   33.7610   38.6570 H   0  0  0  0  0  0  0  0  0  0  0  0
   36.0460   33.1760   39.8710 H   0  0  0  0  0  0  0  0  0  0  0  0
   36.0360   31.1390   41.1410 H   0  0  0  0  0  0  0  0  0  0  0  0
   42.1460   32.0740   37.0760 C   0  0  0  0  0  0  0  0  0  0  0  0
   42.7150   33.3220   37.2770 C   0  0  0  0  0  0  0  0  0  0  0  0
   42.0780   34.1610   38.1850 C   0  0  0  0  0  0  0  0  0  0  0  0
   40.9440   33.7130   38.8160 N   0  0  0  0  0  0  0  0  0  0  0  0
   40.4350   32.4750   38.5750 C   0  0  0  0  0  0  0  0  0  0  0  0
   41.0230   31.6710   37.7220 N   0  0  0  0  0  0  0  0  0  0  0  0
   42.5730   31.3540   36.3890 H   0  0  0  0  0  0  0  0  0  0  0  0
   43.6050   33.5970   36.7420 H   0  0  0  0  0  0  0  0  0  0  0  0
   42.4730   35.1380   38.3790 H   0  0  0  0  0  0  0  0  0  0  0  0
  1  7  1  6  0  0  0
  1  2  1  0  0  0  0
  2  8  1  0  0  0  0
  2  9  1  0  0  0  0
  2  3  1  0  0  0  0
  3  4  1  0  0  0  0
  3 11  1  0  0  0  0
  4 12  1  0  0  0  0
  4 13  1  0  0  0  0
  5 14  1  0  0  0  0
  5  4  1  0  0  0  0
  6 16  1  1  0  0  0
  6  1  1  0  0  0  0
  6  5  1  0  0  0  0
 10  3  1  0  0  0  0
 15  5  1  0  0  0  0
 17  6  1  0  0  0  0
 18 19  1  0  0  0  0
 18 17  1  0  0  0  0
 20 18  2  0  0  0  0
 21 20  1  0  0  0  0
 21 28  1  0  0  0  0
 22 24  1  0  0  0  0
 22 21  2  0  0  0  0
 23 22  1  0  0  0  0
 24 25  2  0  0  0  0
 25 26  1  0  0  0  0
 25 27  1  0  0  0  0
 28 27  2  0  0  0  0
 28 17  1  0  0  0  0
 29 34  1  0  0  0  0
 30 29  2  0  0  0  0
 30 31  1  0  0  0  0
 31 32  2  0  0  0  0
 32 33  1  0  0  0  0
 32 37  1  0  0  0  0
 33  1  1  0  0  0  0
 34 33  2  0  0  0  0
 35 30  1  0  0  0  0
 36 31  1  0  0  0  0
 38 39  2  0  0  0  0
 38 43  1  0  0  0  0
 39 40  1  0  0  0  0
 40 46  1  0  0  0  0
 40 41  2  0  0  0  0
 42 41  1  0  0  0  0
 42 29  1  0  0  0  0
 43 42  2  0  0  0  0
 44 38  1  0  0  0  0
 45 39  1  0  0  0  0
M  END
>  <minimizedAffinity>
-6.16426611

$$$$

 OpenBabel03242514073D

 46 50  0  0  1  0  0  0  0  0999 V2000
   37.2920   30.3140   38.5080 C   0  0  1  0  0  0  0  0  0  0  0  0
   37.3170   30.5180   36.9790 C   0  0  0  0  0  0  0  0  0  0  0  0
   36.3830   29.4210   36.4500 C   0  0  0  0  0  0  0  0  0  0  0  0
   37.1620   28.1230   36.6330 C   0  0  0  0  0  0  0  0  0  0  0  0
   37.5440   27.8730   38.0380 C   0  0  0  0  0  0  0  0  0  0  0  0
   37.8650   29.0280   38.9040 C   0  0  2  0  0  0  0  0  0  0  0  0
   36.1800   30.3230   38.7260 H   0  0  0  0  0  0  0  0  0  0  0  0
   36.9270   31.5160   36.7520 H   0  0  0  0  0  0  0  0  0  0  0  0
   38.3430   30.3190   36.6690 H   0  0  0  0  0  0  0  0  0  0  0  0
   35.4550   29.3600   37.0210 H   0  0  0  0  0  0  0  0  0  0  0  0
   36.2630   29.5620   35.3560 H   0  0  0  0  0  0  0  0  0  0  0  0
   36.5900   27.2610   36.2390 H   0  0  0  0  0  0  0  0  0  0  0  0
   38.0500   28.2090   35.9590 H   0  0  0  0  0  0  0  0  0  0  0  0
   38.4250   27.1670   38.0130 H   0  0  0  0  0  0  0  0  0  0  0  0
   36.7300   27.2370   38.4860 H   0  0  0  0  0  0  0  0  0  0  0  0
   38.9800   29.1170   38.9860 H   0  0  0  0  0  0  0  0  0  0  0  0
   37.3680   28.6480   40.2430 N   0  0  0  0  0  0  0  0  0  0  0  0
   36.1170   28.5910   40.7840 C   0  0  0  0  0  0  0  0  0  0  0  0
   35.2600   28.8610   40.1890 H   0  0  0  0  0  0  0  0  0  0  0  0
   36.2370   28.1720   42.0550 N   0  0  0  0  0  0  0  0  0  0  0  0
   37.5210   27.9600   42.3400 C   0  0  0  0  0  0  0  0  0  0  0  0
   38.2400   27.5380   43.4460 C   0  0  0  0  0  0  0  0  0  0  0  0
   37.6420   27.3120   44.3210 H   0  0  0  0  0  0  0  0  0  0  0  0
   39.5740   27.4050   43.4710 N   0  0  0  0  0  0  0  0  0  0  0  0
   40.2510   27.7030   42.3480 C   0  0  0  0  0  0  0  0  0  0  0  0
   41.3270   27.5880   42.3910 H   0  0  0  0  0  0  0  0  0  0  0  0
   39.6070   28.1170   41.2440 N   0  0  0  0  0  0  0  0  0  0  0  0
   38.2540   28.2550   41.2090 C   0  0  0  0  0  0  0  0  0  0  0  0
   39.5340   32.4190   40.5360 C   0  0  0  0  0  0  0  0  0  0  0  0
   38.8620   33.6180   40.5150 C   0  0  0  0  0  0  0  0  0  0  0  0
   37.6660   33.8290   39.8660 C   0  0  0  0  0  0  0  0  0  0  0  0
   37.1710   32.6960   39.2090 C   0  0  0  0  0  0  0  0  0  0  0  0
   37.8470   31.4680   39.2200 C   0  0  0  0  0  0  0  0  0  0  0  0
   39.0210   31.3450   39.8840 N   0  0  0  0  0  0  0  0  0  0  0  0
   39.3220   34.4410   41.0520 H   0  0  0  0  0  0  0  0  0  0  0  0
   37.1420   34.7640   39.8500 H   0  0  0  0  0  0  0  0  0  0  0  0
   36.2280   32.8630   38.7040 H   0  0  0  0  0  0  0  0  0  0  0  0
   42.9480   32.9590   41.7410 C   0  0  0  0  0  0  0  0  0  0  0  0
   43.1170   31.9900   42.7190 C   0  0  0  0  0  0  0  0  0  0  0  0
   42.0370   31.1470   42.9570 C   0  0  0  0  0  0  0  0  0  0  0  0
   40.8890   31.3200   42.2250 N   0  0  0  0  0  0  0  0  0  0  0  0
   40.7850   32.2910   41.2780 C   0  0  0  0  0  0  0  0  0  0  0  0
   41.7940   33.0950   41.0410 N   0  0  0  0  0  0  0  0  0  0  0  0
   43.7330   33.6600   41.4870 H   0  0  0  0  0  0  0  0  0  0  0  0
   44.0490   31.9220   43.2470 H   0  0  0  0  0  0  0  0  0  0  0  0
   42.1120   30.3810   43.7020 H   0  0  0  0  0  0  0  0  0  0  0  0
  1  7  1  1  0  0  0
  1  6  1  0  0  0  0
  1 33  1  0  0  0  0
  2  1  1  0  0  0  0
  3  4  1  0  0  0  0
  3  2  1  0  0  0  0
  3 10  1  0  0  0  0
  4  5  1  0  0  0  0
  5 15  1  0  0  0  0
  5  6  1  0  0  0  0
  6 16  1  1  0  0  0
  6 17  1  0  0  0  0
  8  2  1  0  0  0  0
  9  2  1  0  0  0  0
 11  3  1  0  0  0  0
 12  4  1  0  0  0  0
 13  4  1  0  0  0  0
 14  5  1  0  0  0  0
 17 18  1  0  0  0  0
 17 28  1  0  0  0  0
 18 20  2  0  0  0  0
 19 18  1  0  0  0  0
 20 21  1  0  0  0  0
 21 22  1  0  0  0  0
 22 24  2  0  0  0  0
 22 23  1  0  0  0  0
 25 26  1  0  0  0  0
 25 24  1  0  0  0  0
 27 25  2  0  0  0  0
 28 27  1  0  0  0  0
 28 21  2  0  0  0  0
 29 42  1  0  0  0  0
 30 29  1  0  0  0  0
 30 35  1  0  0  0  0
 31 30  2  0  0  0  0
 32 33  2  0  0  0  0
 32 31  1  0  0  0  0
 33 34  1  0  0  0  0
 34 29  2  0  0  0  0
 36 31  1  0  0  0  0
 37 32  1  0  0  0  0
 38 39  1  0  0  0  0
 39 40  2  0  0  0  0
 39 45  1  0  0  0  0
 40 46  1  0  0  0  0
 41 40  1  0  0  0  0
 42 41  2  0  0  0  0
 43 42  1  0  0  0  0
 43 38  2  0  0  0  0
 44 38  1  0  0  0  0
M  END
>  <minimizedAffinity>
-6.07186937

$$$$

 OpenBabel03242514073D

 46 50  0  0  1  0  0  0  0  0999 V2000
   36.9030   27.3300   39.9670 C   0  0  1  0  0  0  0  0  0  0  0  0
   35.9300   26.9020   38.8480 C   0  0  0  0  0  0  0  0  0  0  0  0
   35.5800   28.2220   38.1470 C   0  0  0  0  0  0  0  0  0  0  0  0
   34.6700   28.9560   39.1260 C   0  0  0  0  0  0  0  0  0  0  0  0
   35.3090   29.1960   40.4360 C   0  0  0  0  0  0  0  0  0  0  0  0
   36.2600   28.1920   40.9590 C   0  0  2  0  0  0  0  0  0  0  0  0
   37.6780   27.9210   39.3890 H   0  0  0  0  0  0  0  0  0  0  0  0
   36.4540   26.2190   38.1710 H   0  0  0  0  0  0  0  0  0  0  0  0
   35.0520   26.5020   39.3550 H   0  0  0  0  0  0  0  0  0  0  0  0
   36.4640   28.8340   37.9580 H   0  0  0  0  0  0  0  0  0  0  0  0
   34.9590   27.9910   37.2560 H   0  0  0  0  0  0  0  0  0  0  0  0
   34.3200   29.9140   38.6960 H   0  0  0  0  0  0  0  0  0  0  0  0
   33.7500   28.3260   39.2090 H   0  0  0  0  0  0  0  0  0  0  0  0
   34.4730   29.3440   41.1810 H   0  0  0  0  0  0  0  0  0  0  0  0
   35.7770   30.2190   40.3850 H   0  0  0  0  0  0  0  0  0  0  0  0
   35.7350   27.5640   41.7260 H   0  0  0  0  0  0  0  0  0  0  0  0
   37.2840   28.9770   41.6790 N   0  0  0  0  0  0  0  0  0  0  0  0
   37.6710   29.0180   42.9860 C   0  0  0  0  0  0  0  0  0  0  0  0
   37.1860   28.3850   43.7110 H   0  0  0  0  0  0  0  0  0  0  0  0
   38.6620   29.9180   43.0950 N   0  0  0  0  0  0  0  0  0  0  0  0
   38.9190   30.4510   41.9020 C   0  0  0  0  0  0  0  0  0  0  0  0
   39.7980   31.3970   41.4010 C   0  0  0  0  0  0  0  0  0  0  0  0
   40.4630   31.8380   42.1360 H   0  0  0  0  0  0  0  0  0  0  0  0
   39.8540   31.7660   40.1130 N   0  0  0  0  0  0  0  0  0  0  0  0
   38.9990   31.1770   39.2580 C   0  0  0  0  0  0  0  0  0  0  0  0
   39.0630   31.4900   38.2240 H   0  0  0  0  0  0  0  0  0  0  0  0
   38.1240   30.2520   39.6870 N   0  0  0  0  0  0  0  0  0  0  0  0
   38.0600   29.8720   40.9910 C   0  0  0  0  0  0  0  0  0  0  0  0
   39.5830   25.2370   41.3820 C   0  0  0  0  0  0  0  0  0  0  0  0
   38.9120   24.0560   41.5970 C   0  0  0  0  0  0  0  0  0  0  0  0
   37.5820   23.8530   41.3060 C   0  0  0  0  0  0  0  0  0  0  0  0
   36.9450   24.9730   40.7570 C   0  0  0  0  0  0  0  0  0  0  0  0
   37.6170   26.1830   40.5350 C   0  0  0  0  0  0  0  0  0  0  0  0
   38.9280   26.3000   40.8500 N   0  0  0  0  0  0  0  0  0  0  0  0
   39.4870   23.2430   42.0270 H   0  0  0  0  0  0  0  0  0  0  0  0
   37.0580   22.9330   41.4730 H   0  0  0  0  0  0  0  0  0  0  0  0
   35.9010   24.8090   40.5230 H   0  0  0  0  0  0  0  0  0  0  0  0
   43.2160   25.5620   41.0700 C   0  0  0  0  0  0  0  0  0  0  0  0
   43.6700   25.5350   42.3800 C   0  0  0  0  0  0  0  0  0  0  0  0
   42.7060   25.4040   43.3730 C   0  0  0  0  0  0  0  0  0  0  0  0
   41.3870   25.3100   43.0060 N   0  0  0  0  0  0  0  0  0  0  0  0
   41.0040   25.3420   41.7010 C   0  0  0  0  0  0  0  0  0  0  0  0
   41.9010   25.4660   40.7510 N   0  0  0  0  0  0  0  0  0  0  0  0
   43.8930   25.6610   40.2310 H   0  0  0  0  0  0  0  0  0  0  0  0
   44.7210   25.6150   42.5820 H   0  0  0  0  0  0  0  0  0  0  0  0
   43.0000   25.3790   44.4030 H   0  0  0  0  0  0  0  0  0  0  0  0
  1  7  1  6  0  0  0
  1 33  1  0  0  0  0
  1  6  1  0  0  0  0
  2  9  1  0  0  0  0
  2  1  1  0  0  0  0
  3  2  1  0  0  0  0
  3  4  1  0  0  0  0
  4 13  1  0  0  0  0
  4  5  1  0  0  0  0
  5  6  1  0  0  0  0
  5 14  1  0  0  0  0
  6 17  1  0  0  0  0
  6 16  1  1  0  0  0
  8  2  1  0  0  0  0
 10  3  1  0  0  0  0
 11  3  1  0  0  0  0
 12  4  1  0  0  0  0
 15  5  1  0  0  0  0
 17 18  1  0  0  0  0
 18 20  2  0  0  0  0
 18 19  1  0  0  0  0
 21 20  1  0  0  0  0
 22 21  1  0  0  0  0
 22 23  1  0  0  0  0
 24 22  2  0  0  0  0
 25 27  2  0  0  0  0
 25 24  1  0  0  0  0
 26 25  1  0  0  0  0
 27 28  1  0  0  0  0
 28 17  1  0  0  0  0
 28 21  2  0  0  0  0
 29 30  1  0  0  0  0
 29 42  1  0  0  0  0
 30 35  1  0  0  0  0
 31 36  1  0  0  0  0
 31 30  2  0  0  0  0
 32 31  1  0  0  0  0
 33 32  2  0  0  0  0
 33 34  1  0  0  0  0
 34 29  2  0  0  0  0
 37 32  1  0  0  0  0
 38 39  1  0  0  0  0
 39 45  1  0  0  0  0
 39 40  2  0  0  0  0
 40 46  1  0  0  0  0
 41 40  1  0  0  0  0
 42 41  2  0  0  0  0
 43 38  2  0  0  0  0
 43 42  1  0  0  0  0
 44 38  1  0  0  0  0
M  END
>  <minimizedAffinity>
-6.00156784

$$$$

 OpenBabel03242514073D

 46 50  0  0  1  0  0  0  0  0999 V2000
   36.3290   29.4890   39.0930 C   0  0  1  0  0  0  0  0  0  0  0  0
   35.5630   29.4680   37.7540 C   0  0  0  0  0  0  0  0  0  0  0  0
   34.4640   28.4220   37.9800 C   0  0  0  0  0  0  0  0  0  0  0  0
   35.1910   27.0820   37.9770 C   0  0  0  0  0  0  0  0  0  0  0  0
   36.2400   26.9940   39.0130 C   0  0  0  0  0  0  0  0  0  0  0  0
   36.9930   28.2150   39.3700 C   0  0  2  0  0  0  0  0  0  0  0  0
   35.4920   29.6570   39.8380 H   0  0  0  0  0  0  0  0  0  0  0  0
   35.1370   30.4610   37.5790 H   0  0  0  0  0  0  0  0  0  0  0  0
   36.2740   29.1100   37.0090 H   0  0  0  0  0  0  0  0  0  0  0  0
   33.9650   28.5510   38.9430 H   0  0  0  0  0  0  0  0  0  0  0  0
   33.7960   28.4180   37.0940 H   0  0  0  0  0  0  0  0  0  0  0  0
   34.4770   26.2440   38.0910 H   0  0  0  0  0  0  0  0  0  0  0  0
   35.6030   26.9680   36.9430 H   0  0  0  0  0  0  0  0  0  0  0  0
   36.9630   26.1940   38.6740 H   0  0  0  0  0  0  0  0  0  0  0  0
   35.7620   26.5260   39.9180 H   0  0  0  0  0  0  0  0  0  0  0  0
   37.9900   28.1860   38.8590 H   0  0  0  0  0  0  0  0  0  0  0  0
   37.2530   28.0910   40.8200 N   0  0  0  0  0  0  0  0  0  0  0  0
   36.4350   28.0990   41.9110 C   0  0  0  0  0  0  0  0  0  0  0  0
   35.3710   28.2170   41.7860 H   0  0  0  0  0  0  0  0  0  0  0  0
   37.2020   27.9430   43.0030 N   0  0  0  0  0  0  0  0  0  0  0  0
   38.4800   27.8360   42.6420 C   0  0  0  0  0  0  0  0  0  0  0  0
   39.6900   27.6660   43.2960 C   0  0  0  0  0  0  0  0  0  0  0  0
   39.6200   27.5970   44.3760 H   0  0  0  0  0  0  0  0  0  0  0  0
   40.8760   27.5860   42.6770 N   0  0  0  0  0  0  0  0  0  0  0  0
   40.8870   27.6790   41.3350 C   0  0  0  0  0  0  0  0  0  0  0  0
   41.8550   27.6120   40.8570 H   0  0  0  0  0  0  0  0  0  0  0  0
   39.7440   27.8450   40.6470 N   0  0  0  0  0  0  0  0  0  0  0  0
   38.5360   27.9270   41.2670 C   0  0  0  0  0  0  0  0  0  0  0  0
   39.2040   31.7550   38.6760 C   0  0  0  0  0  0  0  0  0  0  0  0
   38.7900   32.8450   39.4040 C   0  0  0  0  0  0  0  0  0  0  0  0
   37.5870   32.9250   40.0690 C   0  0  0  0  0  0  0  0  0  0  0  0
   36.7930   31.7780   39.9440 C   0  0  0  0  0  0  0  0  0  0  0  0
   37.2020   30.6610   39.2020 C   0  0  0  0  0  0  0  0  0  0  0  0
   38.4030   30.6640   38.5770 N   0  0  0  0  0  0  0  0  0  0  0  0
   39.4720   33.6870   39.4450 H   0  0  0  0  0  0  0  0  0  0  0  0
   37.2640   33.7740   40.6380 H   0  0  0  0  0  0  0  0  0  0  0  0
   35.8510   31.8410   40.4720 H   0  0  0  0  0  0  0  0  0  0  0  0
   42.3760   32.8620   37.2250 C   0  0  0  0  0  0  0  0  0  0  0  0
   42.9800   31.6890   36.7990 C   0  0  0  0  0  0  0  0  0  0  0  0
   42.2780   30.5090   37.0190 C   0  0  0  0  0  0  0  0  0  0  0  0
   41.0520   30.5740   37.6330 N   0  0  0  0  0  0  0  0  0  0  0  0
   40.5130   31.7590   38.0280 C   0  0  0  0  0  0  0  0  0  0  0  0
   41.1620   32.8810   37.8280 N   0  0  0  0  0  0  0  0  0  0  0  0
   42.8480   33.8280   37.0950 H   0  0  0  0  0  0  0  0  0  0  0  0
   43.9430   31.7240   36.3260 H   0  0  0  0  0  0  0  0  0  0  0  0
   42.6970   29.5720   36.7120 H   0  0  0  0  0  0  0  0  0  0  0  0
  1 33  1  0  0  0  0
  1  6  1  0  0  0  0
  1  7  1  1  0  0  0
  2  3  1  0  0  0  0
  2  1  1  0  0  0  0
  3 10  1  0  0  0  0
  4  3  1  0  0  0  0
  4 12  1  0  0  0  0
  4  5  1  0  0  0  0
  5  6  1  0  0  0  0
  5 15  1  0  0  0  0
  6 16  1  6  0  0  0
  6 17  1  0  0  0  0
  8  2  1  0  0  0  0
  9  2  1  0  0  0  0
 11  3  1  0  0  0  0
 13  4  1  0  0  0  0
 14  5  1  0  0  0  0
 17 28  1  0  0  0  0
 17 18  1  0  0  0  0
 18 20  2  0  0  0  0
 19 18  1  0  0  0  0
 21 20  1  0  0  0  0
 21 22  1  0  0  0  0
 22 23  1  0  0  0  0
 24 22  2  0  0  0  0
 25 24  1  0  0  0  0
 26 25  1  0  0  0  0
 27 28  1  0  0  0  0
 27 25  2  0  0  0  0
 28 21  2  0  0  0  0
 29 30  1  0  0  0  0
 30 35  1  0  0  0  0
 30 31  2  0  0  0  0
 31 36  1  0  0  0  0
 32 31  1  0  0  0  0
 32 37  1  0  0  0  0
 33 32  2  0  0  0  0
 34 29  2  0  0  0  0
 34 33  1  0  0  0  0
 38 43  1  0  0  0  0
 39 40  1  0  0  0  0
 39 38  2  0  0  0  0
 40 41  2  0  0  0  0
 41 42  1  0  0  0  0
 42 29  1  0  0  0  0
 43 42  2  0  0  0  0
 44 38  1  0  0  0  0
 45 39  1  0  0  0  0
 46 40  1  0  0  0  0
M  END
>  <minimizedAffinity>
-5.99433517

$$$$

 OpenBabel03242514073D

 46 50  0  0  1  0  0  0  0  0999 V2000
   35.9380   27.2160   37.5700 C   0  0  1  0  0  0  0  0  0  0  0  0
   35.7440   26.6190   36.1610 C   0  0  0  0  0  0  0  0  0  0  0  0
   35.8620   27.8350   35.2310 C   0  0  0  0  0  0  0  0  0  0  0  0
   34.5740   28.6210   35.4490 C   0  0  0  0  0  0  0  0  0  0  0  0
   34.3820   29.0350   36.8540 C   0  0  0  0  0  0  0  0  0  0  0  0
   34.8670   28.1440   37.9310 C   0  0  2  0  0  0  0  0  0  0  0  0
   36.9140   27.7810   37.4510 H   0  0  0  0  0  0  0  0  0  0  0  0
   36.5440   25.8960   35.9730 H   0  0  0  0  0  0  0  0  0  0  0  0
   34.7260   26.2290   36.1410 H   0  0  0  0  0  0  0  0  0  0  0  0
   36.7120   28.4690   35.4900 H   0  0  0  0  0  0  0  0  0  0  0  0
   35.8370   27.4760   34.1810 H   0  0  0  0  0  0  0  0  0  0  0  0
   34.5360   29.5070   34.7870 H   0  0  0  0  0  0  0  0  0  0  0  0
   33.7530   27.9560   35.0840 H   0  0  0  0  0  0  0  0  0  0  0  0
   33.2750   29.2170   36.9890 H   0  0  0  0  0  0  0  0  0  0  0  0
   34.8160   30.0690   36.9490 H   0  0  0  0  0  0  0  0  0  0  0  0
   33.9950   27.5760   38.3480 H   0  0  0  0  0  0  0  0  0  0  0  0
   35.3320   29.0560   38.9960 N   0  0  0  0  0  0  0  0  0  0  0  0
   35.0190   29.1700   40.3190 C   0  0  0  0  0  0  0  0  0  0  0  0
   34.2960   28.5040   40.7610 H   0  0  0  0  0  0  0  0  0  0  0  0
   35.7470   30.1780   40.8290 N   0  0  0  0  0  0  0  0  0  0  0  0
   36.5120   30.7080   39.8760 C   0  0  0  0  0  0  0  0  0  0  0  0
   37.4390   31.7340   39.7970 C   0  0  0  0  0  0  0  0  0  0  0  0
   37.6150   32.2630   40.7280 H   0  0  0  0  0  0  0  0  0  0  0  0
   38.0910   32.0760   38.6770 N   0  0  0  0  0  0  0  0  0  0  0  0
   37.8220   31.3750   37.5610 C   0  0  0  0  0  0  0  0  0  0  0  0
   38.3600   31.6690   36.6690 H   0  0  0  0  0  0  0  0  0  0  0  0
   36.9320   30.3690   37.5770 N   0  0  0  0  0  0  0  0  0  0  0  0
   36.2660   30.0150   38.7090 C   0  0  0  0  0  0  0  0  0  0  0  0
   37.2800   25.4660   40.5210 C   0  0  0  0  0  0  0  0  0  0  0  0
   36.6540   24.2470   40.4130 C   0  0  0  0  0  0  0  0  0  0  0  0
   35.7800   23.9070   39.4050 C   0  0  0  0  0  0  0  0  0  0  0  0
   35.5700   24.9280   38.4700 C   0  0  0  0  0  0  0  0  0  0  0  0
   36.1990   26.1770   38.5690 C   0  0  0  0  0  0  0  0  0  0  0  0
   37.0470   26.4300   39.5940 N   0  0  0  0  0  0  0  0  0  0  0  0
   36.8780   23.5180   41.1850 H   0  0  0  0  0  0  0  0  0  0  0  0
   35.2930   22.9560   39.3200 H   0  0  0  0  0  0  0  0  0  0  0  0
   34.8880   24.6560   37.6740 H   0  0  0  0  0  0  0  0  0  0  0  0
   39.1320   27.1040   43.2200 C   0  0  0  0  0  0  0  0  0  0  0  0
   39.9990   26.1230   43.6780 C   0  0  0  0  0  0  0  0  0  0  0  0
   39.9350   24.8870   43.0420 C   0  0  0  0  0  0  0  0  0  0  0  0
   39.0370   24.7150   42.0190 N   0  0  0  0  0  0  0  0  0  0  0  0
   38.2120   25.7190   41.6160 C   0  0  0  0  0  0  0  0  0  0  0  0
   38.2580   26.8900   42.2050 N   0  0  0  0  0  0  0  0  0  0  0  0
   39.1100   28.0960   43.6540 H   0  0  0  0  0  0  0  0  0  0  0  0
   40.6730   26.3390   44.4850 H   0  0  0  0  0  0  0  0  0  0  0  0
   40.5810   24.0920   43.3550 H   0  0  0  0  0  0  0  0  0  0  0  0
  1  7  1  6  0  0  0
  1  6  1  0  0  0  0
  1 33  1  0  0  0  0
  2  1  1  0  0  0  0
  3  4  1  0  0  0  0
  3 10  1  0  0  0  0
  3  2  1  0  0  0  0
  4  5  1  0  0  0  0
  5 15  1  0  0  0  0
  5 14  1  0  0  0  0
  5  6  1  0  0  0  0
  6 16  1  1  0  0  0
  6 17  1  0  0  0  0
  8  2  1  0  0  0  0
  9  2  1  0  0  0  0
 11  3  1  0  0  0  0
 12  4  1  0  0  0  0
 13  4  1  0  0  0  0
 17 18  1  0  0  0  0
 18 19  1  0  0  0  0
 18 20  2  0  0  0  0
 21 20  1  0  0  0  0
 22 21  1  0  0  0  0
 22 23  1  0  0  0  0
 24 22  2  0  0  0  0
 25 27  2  0  0  0  0
 25 24  1  0  0  0  0
 26 25  1  0  0  0  0
 27 28  1  0  0  0  0
 28 17  1  0  0  0  0
 28 21  2  0  0  0  0
 29 42  1  0  0  0  0
 30 29  1  0  0  0  0
 30 35  1  0  0  0  0
 31 30  2  0  0  0  0
 32 33  2  0  0  0  0
 32 31  1  0  0  0  0
 33 34  1  0  0  0  0
 34 29  2  0  0  0  0
 36 31  1  0  0  0  0
 37 32  1  0  0  0  0
 38 44  1  0  0  0  0
 38 39  1  0  0  0  0
 39 45  1  0  0  0  0
 40 46  1  0  0  0  0
 40 39  2  0  0  0  0
 41 40  1  0  0  0  0
 42 41  2  0  0  0  0
 42 43  1  0  0  0  0
 43 38  2  0  0  0  0
M  END
>  <minimizedAffinity>
-5.86232471

$$$$

 OpenBabel03242514073D

 46 50  0  0  1  0  0  0  0  0999 V2000
   37.5420   25.6490   40.8540 C   0  0  1  0  0  0  0  0  0  0  0  0
   37.1620   24.4840   41.7910 C   0  0  0  0  0  0  0  0  0  0  0  0
   37.5130   23.2320   40.9750 C   0  0  0  0  0  0  0  0  0  0  0  0
   36.4450   23.1590   39.8890 C   0  0  0  0  0  0  0  0  0  0  0  0
   36.4070   24.3650   39.0360 C   0  0  0  0  0  0  0  0  0  0  0  0
   36.7220   25.6760   39.6430 C   0  0  2  0  0  0  0  0  0  0  0  0
   38.6140   25.3940   40.5880 H   0  0  0  0  0  0  0  0  0  0  0  0
   37.7700   24.5500   42.6980 H   0  0  0  0  0  0  0  0  0  0  0  0
   36.0820   24.5520   41.9270 H   0  0  0  0  0  0  0  0  0  0  0  0
   38.4940   23.3120   40.5010 H   0  0  0  0  0  0  0  0  0  0  0  0
   37.3650   22.3410   41.6200 H   0  0  0  0  0  0  0  0  0  0  0  0
   36.5810   22.2580   39.2620 H   0  0  0  0  0  0  0  0  0  0  0  0
   35.4810   22.9890   40.4300 H   0  0  0  0  0  0  0  0  0  0  0  0
   35.3760   24.4030   38.5760 H   0  0  0  0  0  0  0  0  0  0  0  0
   37.0660   24.1530   38.1480 H   0  0  0  0  0  0  0  0  0  0  0  0
   35.7620   26.2190   39.8450 H   0  0  0  0  0  0  0  0  0  0  0  0
   37.4230   26.4270   38.5810 N   0  0  0  0  0  0  0  0  0  0  0  0
   38.6350   26.2650   37.9770 C   0  0  0  0  0  0  0  0  0  0  0  0
   39.2800   25.4530   38.2720 H   0  0  0  0  0  0  0  0  0  0  0  0
   38.7740   27.2390   37.0620 N   0  0  0  0  0  0  0  0  0  0  0  0
   37.6910   28.0150   37.0640 C   0  0  0  0  0  0  0  0  0  0  0  0
   37.2670   29.1370   36.3700 C   0  0  0  0  0  0  0  0  0  0  0  0
   37.9650   29.5060   35.6270 H   0  0  0  0  0  0  0  0  0  0  0  0
   36.0900   29.7460   36.5700 N   0  0  0  0  0  0  0  0  0  0  0  0
   35.2730   29.2320   37.5080 C   0  0  0  0  0  0  0  0  0  0  0  0
   34.3290   29.7410   37.6520 H   0  0  0  0  0  0  0  0  0  0  0  0
   35.6310   28.1460   38.2130 N   0  0  0  0  0  0  0  0  0  0  0  0
   36.8230   27.5210   38.0160 C   0  0  0  0  0  0  0  0  0  0  0  0
   38.0360   29.2260   41.5830 C   0  0  0  0  0  0  0  0  0  0  0  0
   37.6910   29.2760   42.9130 C   0  0  0  0  0  0  0  0  0  0  0  0
   37.2890   28.1870   43.6540 C   0  0  0  0  0  0  0  0  0  0  0  0
   37.2560   26.9890   42.9290 C   0  0  0  0  0  0  0  0  0  0  0  0
   37.6020   26.9250   41.5710 C   0  0  0  0  0  0  0  0  0  0  0  0
   37.9880   28.0460   40.9160 N   0  0  0  0  0  0  0  0  0  0  0  0
   37.7460   30.2470   43.3920 H   0  0  0  0  0  0  0  0  0  0  0  0
   37.0200   28.2250   44.6910 H   0  0  0  0  0  0  0  0  0  0  0  0
   36.9450   26.1340   43.5140 H   0  0  0  0  0  0  0  0  0  0  0  0
   38.5840   31.7750   39.0140 C   0  0  0  0  0  0  0  0  0  0  0  0
   39.3420   32.7430   39.6560 C   0  0  0  0  0  0  0  0  0  0  0  0
   39.6620   32.5040   40.9880 C   0  0  0  0  0  0  0  0  0  0  0  0
   39.2180   31.3470   41.5780 N   0  0  0  0  0  0  0  0  0  0  0  0
   38.4760   30.4360   40.8930 C   0  0  0  0  0  0  0  0  0  0  0  0
   38.1640   30.6450   39.6360 N   0  0  0  0  0  0  0  0  0  0  0  0
   38.2870   31.8750   37.9780 H   0  0  0  0  0  0  0  0  0  0  0  0
   39.6510   33.6210   39.1220 H   0  0  0  0  0  0  0  0  0  0  0  0
   40.2460   33.2180   41.5330 H   0  0  0  0  0  0  0  0  0  0  0  0
  1  7  1  6  0  0  0
  1 33  1  0  0  0  0
  1  2  1  0  0  0  0
  2  9  1  0  0  0  0
  2  8  1  0  0  0  0
  3 11  1  0  0  0  0
  3  2  1  0  0  0  0
  4 13  1  0  0  0  0
  4  3  1  0  0  0  0
  5  6  1  0  0  0  0
  5  4  1  0  0  0  0
  6 16  1  1  0  0  0
  6  1  1  0  0  0  0
 10  3  1  0  0  0  0
 12  4  1  0  0  0  0
 14  5  1  0  0  0  0
 15  5  1  0  0  0  0
 17  6  1  0  0  0  0
 18 19  1  0  0  0  0
 18 17  1  0  0  0  0
 20 21  1  0  0  0  0
 20 18  2  0  0  0  0
 21 28  1  0  0  0  0
 22 24  1  0  0  0  0
 22 21  2  0  0  0  0
 23 22  1  0  0  0  0
 24 25  2  0  0  0  0
 25 26  1  0  0  0  0
 25 27  1  0  0  0  0
 28 27  2  0  0  0  0
 28 17  1  0  0  0  0
 29 30  1  0  0  0  0
 30 35  1  0  0  0  0
 30 31  2  0  0  0  0
 31 36  1  0  0  0  0
 32 37  1  0  0  0  0
 32 31  1  0  0  0  0
 33 32  2  0  0  0  0
 34 33  1  0  0  0  0
 34 29  2  0  0  0  0
 38 43  2  0  0  0  0
 38 39  1  0  0  0  0
 39 40  2  0  0  0  0
 40 46  1  0  0  0  0
 40 41  1  0  0  0  0
 42 41  2  0  0  0  0
 42 29  1  0  0  0  0
 43 42  1  0  0  0  0
 44 38  1  0  0  0  0
 45 39  1  0  0  0  0
M  END
>  <minimizedAffinity>
-5.83632088

$$$$

 OpenBabel03242514073D

 46 50  0  0  1  0  0  0  0  0999 V2000
   37.8870   30.4160   39.0210 C   0  0  1  0  0  0  0  0  0  0  0  0
   36.9940   30.4790   37.7640 C   0  0  0  0  0  0  0  0  0  0  0  0
   36.2210   29.1540   37.8010 C   0  0  0  0  0  0  0  0  0  0  0  0
   37.2500   28.0890   37.4340 C   0  0  0  0  0  0  0  0  0  0  0  0
   38.4050   28.0640   38.3560 C   0  0  0  0  0  0  0  0  0  0  0  0
   38.8710   29.3370   38.9480 C   0  0  2  0  0  0  0  0  0  0  0  0
   37.1290   30.1910   39.8340 H   0  0  0  0  0  0  0  0  0  0  0  0
   36.3190   31.3350   37.8570 H   0  0  0  0  0  0  0  0  0  0  0  0
   37.6770   30.4910   36.9150 H   0  0  0  0  0  0  0  0  0  0  0  0
   35.8250   28.9350   38.7940 H   0  0  0  0  0  0  0  0  0  0  0  0
   35.4740   29.1620   36.9800 H   0  0  0  0  0  0  0  0  0  0  0  0
   36.7830   27.0870   37.3890 H   0  0  0  0  0  0  0  0  0  0  0  0
   37.5500   28.3140   36.3810 H   0  0  0  0  0  0  0  0  0  0  0  0
   39.2560   27.5780   37.7930 H   0  0  0  0  0  0  0  0  0  0  0  0
   38.1680   27.3030   39.1500 H   0  0  0  0  0  0  0  0  0  0  0  0
   39.7770   29.6850   38.3850 H   0  0  0  0  0  0  0  0  0  0  0  0
   39.3250   28.9780   40.3070 N   0  0  0  0  0  0  0  0  0  0  0  0
   40.5470   29.0030   40.9120 C   0  0  0  0  0  0  0  0  0  0  0  0
   41.4130   29.3350   40.3630 H   0  0  0  0  0  0  0  0  0  0  0  0
   40.3910   28.5710   42.1750 N   0  0  0  0  0  0  0  0  0  0  0  0
   39.1110   28.2720   42.3930 C   0  0  0  0  0  0  0  0  0  0  0  0
   38.3660   27.7970   43.4600 C   0  0  0  0  0  0  0  0  0  0  0  0
   38.9330   27.6090   44.3660 H   0  0  0  0  0  0  0  0  0  0  0  0
   37.0450   27.5750   43.4160 N   0  0  0  0  0  0  0  0  0  0  0  0
   36.4070   27.8310   42.2600 C   0  0  0  0  0  0  0  0  0  0  0  0
   35.3410   27.6450   42.2480 H   0  0  0  0  0  0  0  0  0  0  0  0
   37.0780   28.2930   41.1920 N   0  0  0  0  0  0  0  0  0  0  0  0
   38.4190   28.5220   41.2260 C   0  0  0  0  0  0  0  0  0  0  0  0
   40.2610   33.2110   39.3660 C   0  0  0  0  0  0  0  0  0  0  0  0
   39.4670   34.1610   39.9630 C   0  0  0  0  0  0  0  0  0  0  0  0
   38.1430   33.9730   40.2940 C   0  0  0  0  0  0  0  0  0  0  0  0
   37.6520   32.7040   39.9660 C   0  0  0  0  0  0  0  0  0  0  0  0
   38.4510   31.7260   39.3540 C   0  0  0  0  0  0  0  0  0  0  0  0
   39.7460   31.9930   39.0620 N   0  0  0  0  0  0  0  0  0  0  0  0
   39.9330   35.1160   40.1800 H   0  0  0  0  0  0  0  0  0  0  0  0
   37.5240   34.7140   40.7600 H   0  0  0  0  0  0  0  0  0  0  0  0
   36.6140   32.5560   40.2320 H   0  0  0  0  0  0  0  0  0  0  0  0
   43.8300   33.9200   39.7640 C   0  0  0  0  0  0  0  0  0  0  0  0
   44.2950   34.0470   38.4640 C   0  0  0  0  0  0  0  0  0  0  0  0
   43.3610   33.8850   37.4470 C   0  0  0  0  0  0  0  0  0  0  0  0
   42.0580   33.6140   37.7830 N   0  0  0  0  0  0  0  0  0  0  0  0
   41.6630   33.5010   39.0800 C   0  0  0  0  0  0  0  0  0  0  0  0
   42.5320   33.6500   40.0520 N   0  0  0  0  0  0  0  0  0  0  0  0
   44.4840   34.0290   40.6200 H   0  0  0  0  0  0  0  0  0  0  0  0
   45.3320   34.2600   38.2860 H   0  0  0  0  0  0  0  0  0  0  0  0
   43.6650   33.9710   36.4230 H   0  0  0  0  0  0  0  0  0  0  0  0
  1 33  1  0  0  0  0
  1  7  1  1  0  0  0
  2  3  1  0  0  0  0
  2  8  1  0  0  0  0
  2  1  1  0  0  0  0
  3 10  1  0  0  0  0
  4  3  1  0  0  0  0
  4  5  1  0  0  0  0
  5  6  1  0  0  0  0
  5 15  1  0  0  0  0
  6 16  1  6  0  0  0
  6  1  1  0  0  0  0
  6 17  1  0  0  0  0
  9  2  1  0  0  0  0
 11  3  1  0  0  0  0
 12  4  1  0  0  0  0
 13  4  1  0  0  0  0
 14  5  1  0  0  0  0
 17 18  1  0  0  0  0
 17 28  1  0  0  0  0
 18 20  2  0  0  0  0
 19 18  1  0  0  0  0
 20 21  1  0  0  0  0
 21 22  1  0  0  0  0
 22 23  1  0  0  0  0
 24 22  2  0  0  0  0
 25 24  1  0  0  0  0
 26 25  1  0  0  0  0
 27 28  1  0  0  0  0
 27 25  2  0  0  0  0
 28 21  2  0  0  0  0
 29 30  1  0  0  0  0
 30 35  1  0  0  0  0
 30 31  2  0  0  0  0
 31 36  1  0  0  0  0
 32 37  1  0  0  0  0
 32 31  1  0  0  0  0
 33 32  2  0  0  0  0
 34 33  1  0  0  0  0
 34 29  2  0  0  0  0
 38 43  1  0  0  0  0
 38 44  1  0  0  0  0
 39 38  2  0  0  0  0
 40 41  2  0  0  0  0
 40 39  1  0  0  0  0
 41 42  1  0  0  0  0
 42 29  1  0  0  0  0
 42 43  2  0  0  0  0
 45 39  1  0  0  0  0
 46 40  1  0  0  0  0
M  END
>  <minimizedAffinity>
-5.78986025

$$$$

 OpenBabel03242514073D

 46 50  0  0  1  0  0  0  0  0999 V2000
   37.4020   25.6140   40.7520 C   0  0  1  0  0  0  0  0  0  0  0  0
   36.8850   24.3020   41.3780 C   0  0  0  0  0  0  0  0  0  0  0  0
   37.0800   23.2650   40.2640 C   0  0  0  0  0  0  0  0  0  0  0  0
   36.0080   23.5940   39.2310 C   0  0  0  0  0  0  0  0  0  0  0  0
   36.1150   24.9720   38.7090 C   0  0  0  0  0  0  0  0  0  0  0  0
   36.5890   26.0420   39.6140 C   0  0  2  0  0  0  0  0  0  0  0  0
   38.4340   25.3110   40.3950 H   0  0  0  0  0  0  0  0  0  0  0  0
   37.5000   24.0660   42.2530 H   0  0  0  0  0  0  0  0  0  0  0  0
   35.8220   24.4600   41.5640 H   0  0  0  0  0  0  0  0  0  0  0  0
   38.0610   23.3470   39.7930 H   0  0  0  0  0  0  0  0  0  0  0  0
   36.8270   22.2640   40.6700 H   0  0  0  0  0  0  0  0  0  0  0  0
   36.0310   22.8710   38.3940 H   0  0  0  0  0  0  0  0  0  0  0  0
   35.0320   23.4070   39.7440 H   0  0  0  0  0  0  0  0  0  0  0  0
   35.0950   25.2460   38.3070 H   0  0  0  0  0  0  0  0  0  0  0  0
   36.7410   24.9160   37.7750 H   0  0  0  0  0  0  0  0  0  0  0  0
   35.7020   26.6240   39.9770 H   0  0  0  0  0  0  0  0  0  0  0  0
   37.3720   26.9490   38.7500 N   0  0  0  0  0  0  0  0  0  0  0  0
   38.3720   26.7360   37.8480 C   0  0  0  0  0  0  0  0  0  0  0  0
   38.7280   25.7350   37.6650 H   0  0  0  0  0  0  0  0  0  0  0  0
   38.7280   27.9260   37.3370 N   0  0  0  0  0  0  0  0  0  0  0  0
   37.9870   28.8890   37.8830 C   0  0  0  0  0  0  0  0  0  0  0  0
   37.8960   30.2670   37.7630 C   0  0  0  0  0  0  0  0  0  0  0  0
   38.5850   30.7100   37.0510 H   0  0  0  0  0  0  0  0  0  0  0  0
   37.0350   31.0280   38.4530 N   0  0  0  0  0  0  0  0  0  0  0  0
   36.2100   30.4090   39.3170 C   0  0  0  0  0  0  0  0  0  0  0  0
   35.5240   31.0440   39.8620 H   0  0  0  0  0  0  0  0  0  0  0  0
   36.2530   29.0760   39.4760 N   0  0  0  0  0  0  0  0  0  0  0  0
   37.1240   28.2960   38.7800 C   0  0  0  0  0  0  0  0  0  0  0  0
   38.9840   28.2950   42.7220 C   0  0  0  0  0  0  0  0  0  0  0  0
   37.9920   28.5760   43.6310 C   0  0  0  0  0  0  0  0  0  0  0  0
   36.7730   27.9360   43.6770 C   0  0  0  0  0  0  0  0  0  0  0  0
   36.6160   26.9470   42.6980 C   0  0  0  0  0  0  0  0  0  0  0  0
   37.6190   26.6520   41.7630 C   0  0  0  0  0  0  0  0  0  0  0  0
   38.7910   27.3300   41.7870 N   0  0  0  0  0  0  0  0  0  0  0  0
   38.2030   29.3590   44.3520 H   0  0  0  0  0  0  0  0  0  0  0  0
   36.0000   28.1550   44.3860 H   0  0  0  0  0  0  0  0  0  0  0  0
   35.6610   26.4410   42.7390 H   0  0  0  0  0  0  0  0  0  0  0  0
   41.5000   30.9500   42.5770 C   0  0  0  0  0  0  0  0  0  0  0  0
   42.6870   30.3060   42.8930 C   0  0  0  0  0  0  0  0  0  0  0  0
   42.6080   28.9430   43.1560 C   0  0  0  0  0  0  0  0  0  0  0  0
   41.3840   28.3260   43.0900 N   0  0  0  0  0  0  0  0  0  0  0  0
   40.2540   29.0140   42.7740 C   0  0  0  0  0  0  0  0  0  0  0  0
   40.3100   30.3010   42.5230 N   0  0  0  0  0  0  0  0  0  0  0  0
   41.4630   32.0090   42.3570 H   0  0  0  0  0  0  0  0  0  0  0  0
   43.6040   30.8630   42.9230 H   0  0  0  0  0  0  0  0  0  0  0  0
   43.4940   28.3960   43.4070 H   0  0  0  0  0  0  0  0  0  0  0  0
  1  7  1  6  0  0  0
  1  2  1  0  0  0  0
  1 33  1  0  0  0  0
  2  9  1  0  0  0  0
  2  8  1  0  0  0  0
  3 11  1  0  0  0  0
  3  2  1  0  0  0  0
  4 13  1  0  0  0  0
  4  3  1  0  0  0  0
  5  4  1  0  0  0  0
  5  6  1  0  0  0  0
  6 16  1  1  0  0  0
  6  1  1  0  0  0  0
 10  3  1  0  0  0  0
 12  4  1  0  0  0  0
 14  5  1  0  0  0  0
 15  5  1  0  0  0  0
 17 28  1  0  0  0  0
 17  6  1  0  0  0  0
 18 17  1  0  0  0  0
 19 18  1  0  0  0  0
 20 18  2  0  0  0  0
 20 21  1  0  0  0  0
 21 28  1  0  0  0  0
 22 21  2  0  0  0  0
 22 24  1  0  0  0  0
 23 22  1  0  0  0  0
 24 25  2  0  0  0  0
 25 27  1  0  0  0  0
 25 26  1  0  0  0  0
 28 27  2  0  0  0  0
 29 42  1  0  0  0  0
 29 30  1  0  0  0  0
 30 31  2  0  0  0  0
 30 35  1  0  0  0  0
 31 36  1  0  0  0  0
 32 37  1  0  0  0  0
 32 31  1  0  0  0  0
 33 34  1  0  0  0  0
 33 32  2  0  0  0  0
 34 29  2  0  0  0  0
 38 39  1  0  0  0  0
 39 45  1  0  0  0  0
 39 40  2  0  0  0  0
 40 46  1  0  0  0  0
 41 40  1  0  0  0  0
 42 41  2  0  0  0  0
 43 38  2  0  0  0  0
 43 42  1  0  0  0  0
 44 38  1  0  0  0  0
M  END
>  <minimizedAffinity>
-5.7852397

$$$$

 OpenBabel03242514073D

 46 50  0  0  1  0  0  0  0  0999 V2000
   37.8420   30.1720   40.7680 C   0  0  1  0  0  0  0  0  0  0  0  0
   36.6660   31.1690   40.8290 C   0  0  0  0  0  0  0  0  0  0  0  0
   37.0010   32.1920   39.7350 C   0  0  0  0  0  0  0  0  0  0  0  0
   38.1630   33.0020   40.2990 C   0  0  0  0  0  0  0  0  0  0  0  0
   39.3360   32.1690   40.6340 C   0  0  0  0  0  0  0  0  0  0  0  0
   39.1150   30.7940   41.1310 C   0  0  2  0  0  0  0  0  0  0  0  0
   37.8510   29.8880   39.6710 H   0  0  0  0  0  0  0  0  0  0  0  0
   35.7400   30.6320   40.6010 H   0  0  0  0  0  0  0  0  0  0  0  0
   36.7240   31.6380   41.8120 H   0  0  0  0  0  0  0  0  0  0  0  0
   37.3200   31.7140   38.8070 H   0  0  0  0  0  0  0  0  0  0  0  0
   36.1470   32.8950   39.6400 H   0  0  0  0  0  0  0  0  0  0  0  0
   38.4600   33.8070   39.5990 H   0  0  0  0  0  0  0  0  0  0  0  0
   37.7510   33.5360   41.1910 H   0  0  0  0  0  0  0  0  0  0  0  0
   39.9390   32.7500   41.3930 H   0  0  0  0  0  0  0  0  0  0  0  0
   40.0070   32.1770   39.7290 H   0  0  0  0  0  0  0  0  0  0  0  0
   39.2370   30.7910   42.2460 H   0  0  0  0  0  0  0  0  0  0  0  0
   40.2350   30.0050   40.5770 N   0  0  0  0  0  0  0  0  0  0  0  0
   40.7070   29.8310   39.3100 C   0  0  0  0  0  0  0  0  0  0  0  0
   40.2270   30.3290   38.4830 H   0  0  0  0  0  0  0  0  0  0  0  0
   41.7630   29.0030   39.3730 N   0  0  0  0  0  0  0  0  0  0  0  0
   41.9780   28.6450   40.6380 C   0  0  0  0  0  0  0  0  0  0  0  0
   42.8860   27.8390   41.3060 C   0  0  0  0  0  0  0  0  0  0  0  0
   43.6260   27.3630   40.6720 H   0  0  0  0  0  0  0  0  0  0  0  0
   42.8850   27.6400   42.6310 N   0  0  0  0  0  0  0  0  0  0  0  0
   41.9380   28.2650   43.3540 C   0  0  0  0  0  0  0  0  0  0  0  0
   41.9560   28.0900   44.4220 H   0  0  0  0  0  0  0  0  0  0  0  0
   41.0300   29.0590   42.7610 N   0  0  0  0  0  0  0  0  0  0  0  0
   41.0240   29.2660   41.4170 C   0  0  0  0  0  0  0  0  0  0  0  0
   37.1830   26.6230   41.5020 C   0  0  0  0  0  0  0  0  0  0  0  0
   37.0110   26.6620   42.8660 C   0  0  0  0  0  0  0  0  0  0  0  0
   37.0880   27.8060   43.6280 C   0  0  0  0  0  0  0  0  0  0  0  0
   37.3640   28.9620   42.8870 C   0  0  0  0  0  0  0  0  0  0  0  0
   37.5450   28.9360   41.4970 C   0  0  0  0  0  0  0  0  0  0  0  0
   37.4510   27.7660   40.8220 N   0  0  0  0  0  0  0  0  0  0  0  0
   36.8000   25.7160   43.3540 H   0  0  0  0  0  0  0  0  0  0  0  0
   36.9530   27.8370   44.6910 H   0  0  0  0  0  0  0  0  0  0  0  0
   37.4190   29.8610   43.4870 H   0  0  0  0  0  0  0  0  0  0  0  0
   36.2520   24.1020   39.0170 C   0  0  0  0  0  0  0  0  0  0  0  0
   36.8530   22.9390   39.4750 C   0  0  0  0  0  0  0  0  0  0  0  0
   37.5840   23.0360   40.6540 C   0  0  0  0  0  0  0  0  0  0  0  0
   37.6670   24.2530   41.2820 N   0  0  0  0  0  0  0  0  0  0  0  0
   37.0530   25.3590   40.7820 C   0  0  0  0  0  0  0  0  0  0  0  0
   36.3590   25.2860   39.6710 N   0  0  0  0  0  0  0  0  0  0  0  0
   35.6630   24.1220   38.1090 H   0  0  0  0  0  0  0  0  0  0  0  0
   36.7400   22.0260   38.9230 H   0  0  0  0  0  0  0  0  0  0  0  0
   38.0710   22.1700   41.0530 H   0  0  0  0  0  0  0  0  0  0  0  0
  1  7  1  6  0  0  0
  1  2  1  0  0  0  0
  1  6  1  0  0  0  0
  1 33  1  0  0  0  0
  2  9  1  0  0  0  0
  3  4  1  0  0  0  0
  3  2  1  0  0  0  0
  4  5  1  0  0  0  0
  4 13  1  0  0  0  0
  5  6  1  0  0  0  0
  5 14  1  0  0  0  0
  6 16  1  1  0  0  0
  8  2  1  0  0  0  0
 10  3  1  0  0  0  0
 11  3  1  0  0  0  0
 12  4  1  0  0  0  0
 15  5  1  0  0  0  0
 17  6  1  0  0  0  0
 17 28  1  0  0  0  0
 18 20  2  0  0  0  0
 18 17  1  0  0  0  0
 19 18  1  0  0  0  0
 20 21  1  0  0  0  0
 21 22  2  0  0  0  0
 21 28  1  0  0  0  0
 22 24  1  0  0  0  0
 23 22  1  0  0  0  0
 24 25  2  0  0  0  0
 25 26  1  0  0  0  0
 27 25  1  0  0  0  0
 28 27  2  0  0  0  0
 29 30  1  0  0  0  0
 30 35  1  0  0  0  0
 30 31  2  0  0  0  0
 31 36  1  0  0  0  0
 32 37  1  0  0  0  0
 32 31  1  0  0  0  0
 33 32  2  0  0  0  0
 34 33  1  0  0  0  0
 34 29  2  0  0  0  0
 38 39  2  0  0  0  0
 38 43  1  0  0  0  0
 39 40  1  0  0  0  0
 40 46  1  0  0  0  0
 40 41  2  0  0  0  0
 42 41  1  0  0  0  0
 42 29  1  0  0  0  0
 43 42  2  0  0  0  0
 44 38  1  0  0  0  0
 45 39  1  0  0  0  0
M  END
>  <minimizedAffinity>
-5.77649307

$$$$
