
 OpenBabel03252502033D

 37 41  0  0  0  0  0  0  0  0999 V2000
   39.2700   31.5080   37.6880 C   0  0  0  0  0  0  0  0  0  0  0  0
   40.3640   32.2570   38.0640 C   0  0  0  0  0  0  0  0  0  0  0  0
   40.7200   32.1830   39.3780 C   0  0  0  0  0  0  0  0  0  0  0  0
   40.0250   31.4160   40.2320 N   0  0  0  0  0  0  0  0  0  0  0  0
   38.9660   30.6940   39.8590 C   0  0  0  0  0  0  0  0  0  0  0  0
   38.6200   30.7660   38.5810 N   0  0  0  0  0  0  0  0  0  0  0  0
   38.9860   31.5690   36.6290 H   0  0  0  0  0  0  0  0  0  0  0  0
   41.8090   32.8950   39.8800 N   0  0  0  0  0  0  0  0  0  0  0  0
   41.9790   33.5200   41.0600 C   0  0  0  0  0  0  0  0  0  0  0  0
   41.2410   33.5650   41.8500 H   0  0  0  0  0  0  0  0  0  0  0  0
   43.2020   34.0810   41.1120 N   0  0  0  0  0  0  0  0  0  0  0  0
   43.8430   33.8230   39.9590 C   0  0  0  0  0  0  0  0  0  0  0  0
   45.1020   34.1610   39.5020 C   0  0  0  0  0  0  0  0  0  0  0  0
   45.7540   34.7470   40.1450 H   0  0  0  0  0  0  0  0  0  0  0  0
   45.4340   33.7320   38.2720 N   0  0  0  0  0  0  0  0  0  0  0  0
   44.5940   33.0040   37.5040 C   0  0  0  0  0  0  0  0  0  0  0  0
   44.9250   32.6860   36.5100 H   0  0  0  0  0  0  0  0  0  0  0  0
   43.3810   32.6900   37.9680 N   0  0  0  0  0  0  0  0  0  0  0  0
   42.9790   33.0910   39.2040 C   0  0  0  0  0  0  0  0  0  0  0  0
   38.0740   29.8010   40.6120 C   0  0  0  0  0  0  0  0  0  0  0  0
   36.7360   29.7430   40.4180 N   0  0  0  0  0  0  0  0  0  0  0  0
   35.8950   28.9510   41.0780 C   0  0  0  0  0  0  0  0  0  0  0  0
   36.3720   28.1190   42.0270 N   0  0  0  0  0  0  0  0  0  0  0  0
   37.6880   28.0820   42.3150 C   0  0  0  0  0  0  0  0  0  0  0  0
   38.1710   27.2260   43.2890 C   0  0  0  0  0  0  0  0  0  0  0  0
   39.5080   27.1830   43.5840 C   0  0  0  0  0  0  0  0  0  0  0  0
   40.3430   28.0180   42.8800 C   0  0  0  0  0  0  0  0  0  0  0  0
   39.8270   28.8530   41.9220 C   0  0  0  0  0  0  0  0  0  0  0  0
   38.5000   28.9340   41.5880 C   0  0  0  0  0  0  0  0  0  0  0  0
   34.8400   28.9880   40.8410 H   0  0  0  0  0  0  0  0  0  0  0  0
   37.4910   26.5790   43.8290 H   0  0  0  0  0  0  0  0  0  0  0  0
   39.9360   26.5350   44.3340 H   0  0  0  0  0  0  0  0  0  0  0  0
   41.4060   28.0250   43.0730 H   0  0  0  0  0  0  0  0  0  0  0  0
   40.5320   29.4980   41.3890 H   0  0  0  0  0  0  0  0  0  0  0  0
   41.0540   33.0430   37.1230 N   0  0  0  0  0  0  0  0  0  0  0  0
   40.8490   34.0550   36.9810 H   0  0  0  0  0  0  0  0  0  0  0  0
   41.8250   32.7470   36.4680 H   0  0  0  0  0  0  0  0  0  0  0  0
  1  2  2  0  0  0  0
  1  6  1  0  0  0  0
  2  3  1  0  0  0  0
  3  8  1  0  0  0  0
  3  4  2  0  0  0  0
  5  4  1  0  0  0  0
  5 20  1  0  0  0  0
  6  5  2  0  0  0  0
  7  1  1  0  0  0  0
  8  9  1  0  0  0  0
  9 11  2  0  0  0  0
  9 10  1  0  0  0  0
 12 11  1  0  0  0  0
 13 12  1  0  0  0  0
 13 14  1  0  0  0  0
 15 13  2  0  0  0  0
 16 18  2  0  0  0  0
 16 15  1  0  0  0  0
 17 16  1  0  0  0  0
 18 19  1  0  0  0  0
 19  8  1  0  0  0  0
 19 12  2  0  0  0  0
 20 29  1  0  0  0  0
 21 20  2  0  0  0  0
 21 22  1  0  0  0  0
 22 23  2  0  0  0  0
 23 24  1  0  0  0  0
 24 25  1  0  0  0  0
 25 26  2  0  0  0  0
 25 31  1  0  0  0  0
 26 32  1  0  0  0  0
 27 33  1  0  0  0  0
 27 26  1  0  0  0  0
 28 27  2  0  0  0  0
 29 28  1  0  0  0  0
 29 24  2  0  0  0  0
 30 22  1  0  0  0  0
 34 28  1  0  0  0  0
 35  2  1  0  0  0  0
 36 35  1  0  0  0  0
 37 35  1  0  0  0  0
M  END
>  <minimizedAffinity>
-6.60413074

$$$$

 OpenBabel03252502033D

 37 41  0  0  0  0  0  0  0  0999 V2000
   36.2740   30.1490   41.3870 C   0  0  0  0  0  0  0  0  0  0  0  0
   36.9460   29.0970   41.9700 C   0  0  0  0  0  0  0  0  0  0  0  0
   36.8890   27.9070   41.3070 C   0  0  0  0  0  0  0  0  0  0  0  0
   36.2100   27.7980   40.1550 N   0  0  0  0  0  0  0  0  0  0  0  0
   35.5600   28.8230   39.5970 C   0  0  0  0  0  0  0  0  0  0  0  0
   35.6160   29.9810   40.2420 N   0  0  0  0  0  0  0  0  0  0  0  0
   36.3210   31.1070   41.9230 H   0  0  0  0  0  0  0  0  0  0  0  0
   37.5280   26.7690   41.7970 N   0  0  0  0  0  0  0  0  0  0  0  0
   37.1480   25.4770   41.7870 C   0  0  0  0  0  0  0  0  0  0  0  0
   36.2220   25.1060   41.3670 H   0  0  0  0  0  0  0  0  0  0  0  0
   38.0890   24.7150   42.3760 N   0  0  0  0  0  0  0  0  0  0  0  0
   39.0970   25.5100   42.7770 C   0  0  0  0  0  0  0  0  0  0  0  0
   40.2880   25.2430   43.4230 C   0  0  0  0  0  0  0  0  0  0  0  0
   40.5220   24.2150   43.6900 H   0  0  0  0  0  0  0  0  0  0  0  0
   41.0860   26.2940   43.6800 N   0  0  0  0  0  0  0  0  0  0  0  0
   40.7580   27.5580   43.3310 C   0  0  0  0  0  0  0  0  0  0  0  0
   41.4520   28.3700   43.5700 H   0  0  0  0  0  0  0  0  0  0  0  0
   39.6010   27.7910   42.7070 N   0  0  0  0  0  0  0  0  0  0  0  0
   38.7450   26.7740   42.4160 C   0  0  0  0  0  0  0  0  0  0  0  0
   34.7680   28.9280   38.3650 C   0  0  0  0  0  0  0  0  0  0  0  0
   33.4180   29.0240   38.3490 N   0  0  0  0  0  0  0  0  0  0  0  0
   32.6650   29.1190   37.2560 C   0  0  0  0  0  0  0  0  0  0  0  0
   33.2530   29.1250   36.0420 N   0  0  0  0  0  0  0  0  0  0  0  0
   34.5930   29.0350   35.9230 C   0  0  0  0  0  0  0  0  0  0  0  0
   35.1900   29.0420   34.6750 C   0  0  0  0  0  0  0  0  0  0  0  0
   36.5500   28.9530   34.5490 C   0  0  0  0  0  0  0  0  0  0  0  0
   37.2930   28.8560   35.7020 C   0  0  0  0  0  0  0  0  0  0  0  0
   36.6650   28.8510   36.9210 C   0  0  0  0  0  0  0  0  0  0  0  0
   35.3090   28.9390   37.1030 C   0  0  0  0  0  0  0  0  0  0  0  0
   31.5900   29.1910   37.3610 H   0  0  0  0  0  0  0  0  0  0  0  0
   34.5810   29.1200   33.7820 H   0  0  0  0  0  0  0  0  0  0  0  0
   37.0660   28.9540   33.6000 H   0  0  0  0  0  0  0  0  0  0  0  0
   38.3700   28.7820   35.6590 H   0  0  0  0  0  0  0  0  0  0  0  0
   37.2990   28.7720   37.8090 H   0  0  0  0  0  0  0  0  0  0  0  0
   37.6420   29.2720   43.1800 N   0  0  0  0  0  0  0  0  0  0  0  0
   37.2160   29.0570   44.1070 H   0  0  0  0  0  0  0  0  0  0  0  0
   38.6260   29.6210   43.3200 H   0  0  0  0  0  0  0  0  0  0  0  0
  1  7  1  0  0  0  0
  1  2  1  0  0  0  0
  2 35  1  0  0  0  0
  3  8  1  0  0  0  0
  3  2  2  0  0  0  0
  4  3  1  0  0  0  0
  5  4  2  0  0  0  0
  5  6  1  0  0  0  0
  6  1  2  0  0  0  0
  8 19  1  0  0  0  0
  9  8  1  0  0  0  0
  9 11  2  0  0  0  0
 10  9  1  0  0  0  0
 11 12  1  0  0  0  0
 12 13  1  0  0  0  0
 13 15  2  0  0  0  0
 13 14  1  0  0  0  0
 16 17  1  0  0  0  0
 16 15  1  0  0  0  0
 18 16  2  0  0  0  0
 19 18  1  0  0  0  0
 19 12  2  0  0  0  0
 20  5  1  0  0  0  0
 21 20  1  0  0  0  0
 22 30  1  0  0  0  0
 22 21  2  0  0  0  0
 23 22  1  0  0  0  0
 24 23  2  0  0  0  0
 24 29  1  0  0  0  0
 25 24  1  0  0  0  0
 26 25  2  0  0  0  0
 26 27  1  0  0  0  0
 27 28  2  0  0  0  0
 28 29  1  0  0  0  0
 28 34  1  0  0  0  0
 29 20  2  0  0  0  0
 31 25  1  0  0  0  0
 32 26  1  0  0  0  0
 33 27  1  0  0  0  0
 35 37  1  0  0  0  0
 35 36  1  0  0  0  0
M  END
>  <minimizedAffinity>
-6.48497438

$$$$

 OpenBabel03252502033D

 37 41  0  0  0  0  0  0  0  0999 V2000
   37.7370   32.2730   40.2740 C   0  0  0  0  0  0  0  0  0  0  0  0
   39.0350   32.7230   40.1580 C   0  0  0  0  0  0  0  0  0  0  0  0
   40.0030   31.8930   40.6420 C   0  0  0  0  0  0  0  0  0  0  0  0
   39.6790   30.7140   41.1920 N   0  0  0  0  0  0  0  0  0  0  0  0
   38.4190   30.2870   41.3020 C   0  0  0  0  0  0  0  0  0  0  0  0
   37.4770   31.0930   40.8310 N   0  0  0  0  0  0  0  0  0  0  0  0
   36.9590   32.9430   39.8840 H   0  0  0  0  0  0  0  0  0  0  0  0
   41.3530   32.2370   40.5820 N   0  0  0  0  0  0  0  0  0  0  0  0
   42.3500   32.0270   41.4620 C   0  0  0  0  0  0  0  0  0  0  0  0
   42.2420   31.5240   42.4140 H   0  0  0  0  0  0  0  0  0  0  0  0
   43.5020   32.5340   40.9820 N   0  0  0  0  0  0  0  0  0  0  0  0
   43.2620   33.0830   39.7780 C   0  0  0  0  0  0  0  0  0  0  0  0
   44.0820   33.7270   38.8720 C   0  0  0  0  0  0  0  0  0  0  0  0
   45.1350   33.8500   39.1130 H   0  0  0  0  0  0  0  0  0  0  0  0
   43.5060   34.1610   37.7380 N   0  0  0  0  0  0  0  0  0  0  0  0
   42.1920   33.9870   37.4760 C   0  0  0  0  0  0  0  0  0  0  0  0
   41.7840   34.3650   36.5340 H   0  0  0  0  0  0  0  0  0  0  0  0
   41.4190   33.3610   38.3680 N   0  0  0  0  0  0  0  0  0  0  0  0
   41.9360   32.8950   39.5370 C   0  0  0  0  0  0  0  0  0  0  0  0
   37.8460   29.0530   41.8590 C   0  0  0  0  0  0  0  0  0  0  0  0
   37.4180   28.9390   43.1370 N   0  0  0  0  0  0  0  0  0  0  0  0
   36.8950   27.8420   43.6800 C   0  0  0  0  0  0  0  0  0  0  0  0
   36.7620   26.7290   42.9300 N   0  0  0  0  0  0  0  0  0  0  0  0
   37.1530   26.7140   41.6390 C   0  0  0  0  0  0  0  0  0  0  0  0
   37.0140   25.5680   40.8760 C   0  0  0  0  0  0  0  0  0  0  0  0
   37.4070   25.5490   39.5640 C   0  0  0  0  0  0  0  0  0  0  0  0
   37.9420   26.7030   39.0420 C   0  0  0  0  0  0  0  0  0  0  0  0
   38.0650   27.8170   39.8310 C   0  0  0  0  0  0  0  0  0  0  0  0
   37.6870   27.8910   41.1460 C   0  0  0  0  0  0  0  0  0  0  0  0
   36.5850   27.8630   44.7160 H   0  0  0  0  0  0  0  0  0  0  0  0
   36.5880   24.6730   41.3130 H   0  0  0  0  0  0  0  0  0  0  0  0
   37.3210   24.6830   38.9250 H   0  0  0  0  0  0  0  0  0  0  0  0
   38.2690   26.7420   38.0130 H   0  0  0  0  0  0  0  0  0  0  0  0
   38.4970   28.7110   39.3690 H   0  0  0  0  0  0  0  0  0  0  0  0
   39.3130   33.9700   39.5700 N   0  0  0  0  0  0  0  0  0  0  0  0
   39.4320   34.8400   40.1320 H   0  0  0  0  0  0  0  0  0  0  0  0
   39.4330   34.1950   38.5480 H   0  0  0  0  0  0  0  0  0  0  0  0
  1  6  1  0  0  0  0
  2  1  2  0  0  0  0
  2  3  1  0  0  0  0
  3  4  2  0  0  0  0
  4  5  1  0  0  0  0
  5 20  1  0  0  0  0
  6  5  2  0  0  0  0
  7  1  1  0  0  0  0
  8  3  1  0  0  0  0
  8  9  1  0  0  0  0
  9 10  1  0  0  0  0
 11  9  2  0  0  0  0
 12 11  1  0  0  0  0
 13 14  1  0  0  0  0
 13 12  2  0  0  0  0
 15 13  1  0  0  0  0
 16 15  2  0  0  0  0
 16 18  1  0  0  0  0
 17 16  1  0  0  0  0
 18 19  2  0  0  0  0
 19 12  1  0  0  0  0
 19  8  1  0  0  0  0
 20 21  1  0  0  0  0
 21 22  2  0  0  0  0
 22 30  1  0  0  0  0
 23 22  1  0  0  0  0
 24 23  2  0  0  0  0
 25 31  1  0  0  0  0
 25 24  1  0  0  0  0
 26 25  2  0  0  0  0
 27 26  1  0  0  0  0
 27 28  2  0  0  0  0
 28 29  1  0  0  0  0
 29 24  1  0  0  0  0
 29 20  2  0  0  0  0
 32 26  1  0  0  0  0
 33 27  1  0  0  0  0
 34 28  1  0  0  0  0
 35 36  1  0  0  0  0
 35  2  1  0  0  0  0
 37 35  1  0  0  0  0
M  END
>  <minimizedAffinity>
-6.37725401

$$$$

 OpenBabel03252502033D

 37 41  0  0  0  0  0  0  0  0999 V2000
   37.1290   29.7210   36.4760 C   0  0  0  0  0  0  0  0  0  0  0  0
   37.7400   30.6450   37.2950 C   0  0  0  0  0  0  0  0  0  0  0  0
   37.9920   30.2410   38.5730 C   0  0  0  0  0  0  0  0  0  0  0  0
   37.6520   29.0090   38.9800 N   0  0  0  0  0  0  0  0  0  0  0  0
   37.0590   28.1200   38.1790 C   0  0  0  0  0  0  0  0  0  0  0  0
   36.8150   28.5130   36.9360 N   0  0  0  0  0  0  0  0  0  0  0  0
   36.9270   30.0490   35.4470 H   0  0  0  0  0  0  0  0  0  0  0  0
   38.6060   31.0860   39.4970 N   0  0  0  0  0  0  0  0  0  0  0  0
   38.3890   31.2480   40.8150 C   0  0  0  0  0  0  0  0  0  0  0  0
   37.6520   30.7070   41.3940 H   0  0  0  0  0  0  0  0  0  0  0  0
   39.2250   32.1830   41.3080 N   0  0  0  0  0  0  0  0  0  0  0  0
   39.9980   32.6400   40.3070 C   0  0  0  0  0  0  0  0  0  0  0  0
   41.0020   33.5870   40.2690 C   0  0  0  0  0  0  0  0  0  0  0  0
   41.2730   34.1020   41.1880 H   0  0  0  0  0  0  0  0  0  0  0  0
   41.5820   33.8050   39.0760 N   0  0  0  0  0  0  0  0  0  0  0  0
   41.2160   33.1430   37.9570 C   0  0  0  0  0  0  0  0  0  0  0  0
   41.7280   33.3680   37.0160 H   0  0  0  0  0  0  0  0  0  0  0  0
   40.2420   32.2310   38.0200 N   0  0  0  0  0  0  0  0  0  0  0  0
   39.6120   31.9590   39.1940 C   0  0  0  0  0  0  0  0  0  0  0  0
   36.6070   26.7410   38.4100 C   0  0  0  0  0  0  0  0  0  0  0  0
   36.0090   25.9810   37.4630 N   0  0  0  0  0  0  0  0  0  0  0  0
   35.5850   24.7310   37.6320 C   0  0  0  0  0  0  0  0  0  0  0  0
   35.7460   24.1310   38.8290 N   0  0  0  0  0  0  0  0  0  0  0  0
   36.3290   24.7820   39.8560 C   0  0  0  0  0  0  0  0  0  0  0  0
   36.4920   24.1600   41.0810 C   0  0  0  0  0  0  0  0  0  0  0  0
   37.0850   24.8170   42.1260 C   0  0  0  0  0  0  0  0  0  0  0  0
   37.5080   26.1070   41.9110 C   0  0  0  0  0  0  0  0  0  0  0  0
   37.3290   26.6890   40.6830 C   0  0  0  0  0  0  0  0  0  0  0  0
   36.7430   26.0780   39.6050 C   0  0  0  0  0  0  0  0  0  0  0  0
   35.1180   24.2160   36.8020 H   0  0  0  0  0  0  0  0  0  0  0  0
   36.1490   23.1430   41.2230 H   0  0  0  0  0  0  0  0  0  0  0  0
   37.2360   24.3790   43.1020 H   0  0  0  0  0  0  0  0  0  0  0  0
   37.9820   26.6710   42.7020 H   0  0  0  0  0  0  0  0  0  0  0  0
   37.6830   27.7180   40.5610 H   0  0  0  0  0  0  0  0  0  0  0  0
   38.0740   31.9240   36.8130 N   0  0  0  0  0  0  0  0  0  0  0  0
   37.4480   32.7490   36.9340 H   0  0  0  0  0  0  0  0  0  0  0  0
   38.9420   32.2170   36.2920 H   0  0  0  0  0  0  0  0  0  0  0  0
  1  6  2  0  0  0  0
  1  2  1  0  0  0  0
  2  3  2  0  0  0  0
  3  4  1  0  0  0  0
  3  8  1  0  0  0  0
  5 20  1  0  0  0  0
  5  4  2  0  0  0  0
  6  5  1  0  0  0  0
  7  1  1  0  0  0  0
  8  9  1  0  0  0  0
  9 11  2  0  0  0  0
  9 10  1  0  0  0  0
 12 11  1  0  0  0  0
 13 12  1  0  0  0  0
 13 14  1  0  0  0  0
 15 13  2  0  0  0  0
 16 18  2  0  0  0  0
 16 15  1  0  0  0  0
 17 16  1  0  0  0  0
 18 19  1  0  0  0  0
 19  8  1  0  0  0  0
 19 12  2  0  0  0  0
 20 29  1  0  0  0  0
 21 22  1  0  0  0  0
 21 20  2  0  0  0  0
 22 23  2  0  0  0  0
 23 24  1  0  0  0  0
 24 25  1  0  0  0  0
 25 31  1  0  0  0  0
 25 26  2  0  0  0  0
 26 32  1  0  0  0  0
 27 26  1  0  0  0  0
 27 33  1  0  0  0  0
 28 27  2  0  0  0  0
 29 24  2  0  0  0  0
 29 28  1  0  0  0  0
 30 22  1  0  0  0  0
 34 28  1  0  0  0  0
 35 36  1  0  0  0  0
 35  2  1  0  0  0  0
 37 35  1  0  0  0  0
M  END
>  <minimizedAffinity>
-6.36822939

$$$$

 OpenBabel03252502033D

 37 41  0  0  0  0  0  0  0  0999 V2000
   35.9370   30.0250   40.5940 C   0  0  0  0  0  0  0  0  0  0  0  0
   37.0460   30.8070   40.8340 C   0  0  0  0  0  0  0  0  0  0  0  0
   38.1970   30.1390   41.1350 C   0  0  0  0  0  0  0  0  0  0  0  0
   38.2160   28.8000   41.1870 N   0  0  0  0  0  0  0  0  0  0  0  0
   37.1360   28.0500   40.9540 C   0  0  0  0  0  0  0  0  0  0  0  0
   36.0170   28.6990   40.6600 N   0  0  0  0  0  0  0  0  0  0  0  0
   35.0120   30.5650   40.3510 H   0  0  0  0  0  0  0  0  0  0  0  0
   39.3860   30.8200   41.3980 N   0  0  0  0  0  0  0  0  0  0  0  0
   40.3640   30.5620   42.2860 C   0  0  0  0  0  0  0  0  0  0  0  0
   40.3720   29.7300   42.9770 H   0  0  0  0  0  0  0  0  0  0  0  0
   41.3320   31.4940   42.1890 N   0  0  0  0  0  0  0  0  0  0  0  0
   40.9890   32.3720   41.2290 C   0  0  0  0  0  0  0  0  0  0  0  0
   41.6160   33.4980   40.7350 C   0  0  0  0  0  0  0  0  0  0  0  0
   42.5750   33.7930   41.1560 H   0  0  0  0  0  0  0  0  0  0  0  0
   40.9830   34.1610   39.7510 N   0  0  0  0  0  0  0  0  0  0  0  0
   39.7920   33.7620   39.2550 C   0  0  0  0  0  0  0  0  0  0  0  0
   39.3280   34.3460   38.4540 H   0  0  0  0  0  0  0  0  0  0  0  0
   39.2050   32.6680   39.7500 N   0  0  0  0  0  0  0  0  0  0  0  0
   39.7890   31.9500   40.7460 C   0  0  0  0  0  0  0  0  0  0  0  0
   36.9340   26.5940   40.9570 C   0  0  0  0  0  0  0  0  0  0  0  0
   37.0900   25.8190   42.0540 N   0  0  0  0  0  0  0  0  0  0  0  0
   36.9180   24.5010   42.0990 C   0  0  0  0  0  0  0  0  0  0  0  0
   36.5550   23.8410   40.9800 N   0  0  0  0  0  0  0  0  0  0  0  0
   36.3670   24.5000   39.8180 C   0  0  0  0  0  0  0  0  0  0  0  0
   35.9960   23.8170   38.6740 C   0  0  0  0  0  0  0  0  0  0  0  0
   35.8020   24.4820   37.4930 C   0  0  0  0  0  0  0  0  0  0  0  0
   35.9910   25.8440   37.4900 C   0  0  0  0  0  0  0  0  0  0  0  0
   36.3600   26.4850   38.6440 C   0  0  0  0  0  0  0  0  0  0  0  0
   36.5660   25.8680   39.8510 C   0  0  0  0  0  0  0  0  0  0  0  0
   37.0710   23.9800   43.0350 H   0  0  0  0  0  0  0  0  0  0  0  0
   35.8530   22.7430   38.7050 H   0  0  0  0  0  0  0  0  0  0  0  0
   35.5120   23.9980   36.5720 H   0  0  0  0  0  0  0  0  0  0  0  0
   35.8520   26.4180   36.5850 H   0  0  0  0  0  0  0  0  0  0  0  0
   36.4980   27.5700   38.5900 H   0  0  0  0  0  0  0  0  0  0  0  0
   36.9660   32.2090   40.7640 N   0  0  0  0  0  0  0  0  0  0  0  0
   36.7980   32.8030   41.6040 H   0  0  0  0  0  0  0  0  0  0  0  0
   37.0540   32.8250   39.9140 H   0  0  0  0  0  0  0  0  0  0  0  0
  1  6  2  0  0  0  0
  1  2  1  0  0  0  0
  2  3  2  0  0  0  0
  3  4  1  0  0  0  0
  3  8  1  0  0  0  0
  5 20  1  0  0  0  0
  5  4  2  0  0  0  0
  6  5  1  0  0  0  0
  7  1  1  0  0  0  0
  8  9  1  0  0  0  0
  9 10  1  0  0  0  0
 11  9  2  0  0  0  0
 12 11  1  0  0  0  0
 13 14  1  0  0  0  0
 13 12  2  0  0  0  0
 15 13  1  0  0  0  0
 16 18  1  0  0  0  0
 16 15  2  0  0  0  0
 17 16  1  0  0  0  0
 18 19  2  0  0  0  0
 19 12  1  0  0  0  0
 19  8  1  0  0  0  0
 20 21  1  0  0  0  0
 21 22  2  0  0  0  0
 22 30  1  0  0  0  0
 23 22  1  0  0  0  0
 24 29  1  0  0  0  0
 24 23  2  0  0  0  0
 25 31  1  0  0  0  0
 25 24  1  0  0  0  0
 26 25  2  0  0  0  0
 27 26  1  0  0  0  0
 27 28  2  0  0  0  0
 28 29  1  0  0  0  0
 29 20  2  0  0  0  0
 32 26  1  0  0  0  0
 33 27  1  0  0  0  0
 34 28  1  0  0  0  0
 35  2  1  0  0  0  0
 35 36  1  0  0  0  0
 37 35  1  0  0  0  0
M  END
>  <minimizedAffinity>
-6.1812129

$$$$

 OpenBabel03252502033D

 37 41  0  0  0  0  0  0  0  0999 V2000
   38.3000   29.3270   43.0110 C   0  0  0  0  0  0  0  0  0  0  0  0
   37.7250   28.2430   42.3840 C   0  0  0  0  0  0  0  0  0  0  0  0
   37.6180   28.3210   41.0270 C   0  0  0  0  0  0  0  0  0  0  0  0
   38.0560   29.4040   40.3680 N   0  0  0  0  0  0  0  0  0  0  0  0
   38.6110   30.4510   40.9840 C   0  0  0  0  0  0  0  0  0  0  0  0
   38.7160   30.3750   42.3040 N   0  0  0  0  0  0  0  0  0  0  0  0
   38.3860   29.2620   44.1040 H   0  0  0  0  0  0  0  0  0  0  0  0
   37.0550   27.2870   40.2800 N   0  0  0  0  0  0  0  0  0  0  0  0
   36.2630   27.3240   39.1910 C   0  0  0  0  0  0  0  0  0  0  0  0
   35.9230   28.2260   38.7010 H   0  0  0  0  0  0  0  0  0  0  0  0
   35.9570   26.0710   38.8030 N   0  0  0  0  0  0  0  0  0  0  0  0
   36.5500   25.2030   39.6410 C   0  0  0  0  0  0  0  0  0  0  0  0
   36.5620   23.8230   39.6920 C   0  0  0  0  0  0  0  0  0  0  0  0
   36.0050   23.2650   38.9420 H   0  0  0  0  0  0  0  0  0  0  0  0
   37.2740   23.2600   40.6840 N   0  0  0  0  0  0  0  0  0  0  0  0
   37.9520   23.9900   41.5960 C   0  0  0  0  0  0  0  0  0  0  0  0
   38.5130   23.4700   42.3800 H   0  0  0  0  0  0  0  0  0  0  0  0
   37.9260   25.3230   41.5260 N   0  0  0  0  0  0  0  0  0  0  0  0
   37.2260   25.9590   40.5490 C   0  0  0  0  0  0  0  0  0  0  0  0
   39.1500   31.7180   40.4700 C   0  0  0  0  0  0  0  0  0  0  0  0
   38.8640   32.9260   41.0090 N   0  0  0  0  0  0  0  0  0  0  0  0
   39.3300   34.0940   40.5740 C   0  0  0  0  0  0  0  0  0  0  0  0
   40.1590   34.1240   39.5110 N   0  0  0  0  0  0  0  0  0  0  0  0
   40.5200   32.9870   38.8840 C   0  0  0  0  0  0  0  0  0  0  0  0
   41.3720   33.0240   37.7940 C   0  0  0  0  0  0  0  0  0  0  0  0
   41.7430   31.8720   37.1550 C   0  0  0  0  0  0  0  0  0  0  0  0
   41.2390   30.6860   37.6350 C   0  0  0  0  0  0  0  0  0  0  0  0
   40.3980   30.6890   38.7180 C   0  0  0  0  0  0  0  0  0  0  0  0
   39.9960   31.8120   39.3930 C   0  0  0  0  0  0  0  0  0  0  0  0
   39.0340   35.0020   41.0840 H   0  0  0  0  0  0  0  0  0  0  0  0
   41.7540   33.9730   37.4360 H   0  0  0  0  0  0  0  0  0  0  0  0
   42.4040   31.8450   36.3010 H   0  0  0  0  0  0  0  0  0  0  0  0
   41.5000   29.7470   37.1680 H   0  0  0  0  0  0  0  0  0  0  0  0
   40.0240   29.7200   39.0620 H   0  0  0  0  0  0  0  0  0  0  0  0
   37.2850   27.1330   43.1280 N   0  0  0  0  0  0  0  0  0  0  0  0
   36.2980   27.0290   43.4470 H   0  0  0  0  0  0  0  0  0  0  0  0
   37.8470   26.3020   43.4520 H   0  0  0  0  0  0  0  0  0  0  0  0
  1  7  1  0  0  0  0
  2  1  1  0  0  0  0
  2 35  1  0  0  0  0
  3  2  2  0  0  0  0
  4  5  2  0  0  0  0
  4  3  1  0  0  0  0
  5  6  1  0  0  0  0
  6  1  2  0  0  0  0
  8 19  1  0  0  0  0
  8  3  1  0  0  0  0
  9  8  1  0  0  0  0
 10  9  1  0  0  0  0
 11  9  2  0  0  0  0
 11 12  1  0  0  0  0
 12 13  2  0  0  0  0
 12 19  1  0  0  0  0
 13 15  1  0  0  0  0
 14 13  1  0  0  0  0
 15 16  2  0  0  0  0
 16 17  1  0  0  0  0
 18 16  1  0  0  0  0
 19 18  2  0  0  0  0
 20  5  1  0  0  0  0
 20 21  1  0  0  0  0
 22 21  2  0  0  0  0
 22 30  1  0  0  0  0
 23 22  1  0  0  0  0
 24 29  1  0  0  0  0
 24 23  2  0  0  0  0
 25 24  1  0  0  0  0
 26 27  1  0  0  0  0
 26 25  2  0  0  0  0
 27 28  2  0  0  0  0
 28 34  1  0  0  0  0
 28 29  1  0  0  0  0
 29 20  2  0  0  0  0
 31 25  1  0  0  0  0
 32 26  1  0  0  0  0
 33 27  1  0  0  0  0
 35 36  1  0  0  0  0
 35 37  1  0  0  0  0
M  END
>  <minimizedAffinity>
-6.17033911

$$$$

 OpenBabel03252502033D

 37 41  0  0  0  0  0  0  0  0999 V2000
   36.9250   30.9780   38.4030 C   0  0  0  0  0  0  0  0  0  0  0  0
   37.9630   31.5600   39.0990 C   0  0  0  0  0  0  0  0  0  0  0  0
   38.7730   30.7080   39.7920 C   0  0  0  0  0  0  0  0  0  0  0  0
   38.5470   29.3870   39.7760 N   0  0  0  0  0  0  0  0  0  0  0  0
   37.5390   28.8310   39.0990 C   0  0  0  0  0  0  0  0  0  0  0  0
   36.7510   29.6590   38.4260 N   0  0  0  0  0  0  0  0  0  0  0  0
   36.2750   31.6660   37.8460 H   0  0  0  0  0  0  0  0  0  0  0  0
   39.8560   31.1770   40.5350 N   0  0  0  0  0  0  0  0  0  0  0  0
   40.3460   30.7690   41.7200 C   0  0  0  0  0  0  0  0  0  0  0  0
   39.9430   29.9600   42.3140 H   0  0  0  0  0  0  0  0  0  0  0  0
   41.4140   31.5170   42.0590 N   0  0  0  0  0  0  0  0  0  0  0  0
   41.6290   32.4240   41.0890 C   0  0  0  0  0  0  0  0  0  0  0  0
   42.5780   33.4160   40.9410 C   0  0  0  0  0  0  0  0  0  0  0  0
   43.3270   33.5470   41.7190 H   0  0  0  0  0  0  0  0  0  0  0  0
   42.5050   34.1610   39.8240 N   0  0  0  0  0  0  0  0  0  0  0  0
   41.5570   33.9660   38.8810 C   0  0  0  0  0  0  0  0  0  0  0  0
   41.5520   34.6080   37.9940 H   0  0  0  0  0  0  0  0  0  0  0  0
   40.6500   33.0000   39.0470 N   0  0  0  0  0  0  0  0  0  0  0  0
   40.6650   32.2080   40.1530 C   0  0  0  0  0  0  0  0  0  0  0  0
   37.1130   27.4340   38.9460 C   0  0  0  0  0  0  0  0  0  0  0  0
   36.7660   26.8830   37.7590 N   0  0  0  0  0  0  0  0  0  0  0  0
   36.3750   25.6250   37.5780 C   0  0  0  0  0  0  0  0  0  0  0  0
   36.3040   24.7920   38.6370 N   0  0  0  0  0  0  0  0  0  0  0  0
   36.6240   25.2200   39.8750 C   0  0  0  0  0  0  0  0  0  0  0  0
   36.5490   24.3610   40.9570 C   0  0  0  0  0  0  0  0  0  0  0  0
   36.8750   24.7900   42.2160 C   0  0  0  0  0  0  0  0  0  0  0  0
   37.2740   26.0970   42.3600 C   0  0  0  0  0  0  0  0  0  0  0  0
   37.3350   26.9190   41.2640 C   0  0  0  0  0  0  0  0  0  0  0  0
   37.0210   26.5400   39.9840 C   0  0  0  0  0  0  0  0  0  0  0  0
   36.1200   25.2900   36.5810 H   0  0  0  0  0  0  0  0  0  0  0  0
   36.2310   23.3340   40.8150 H   0  0  0  0  0  0  0  0  0  0  0  0
   36.8340   24.1610   43.0930 H   0  0  0  0  0  0  0  0  0  0  0  0
   37.5420   26.4880   43.3320 H   0  0  0  0  0  0  0  0  0  0  0  0
   37.6580   27.9510   41.4310 H   0  0  0  0  0  0  0  0  0  0  0  0
   38.1500   32.9540   39.0780 N   0  0  0  0  0  0  0  0  0  0  0  0
   37.7660   33.5820   39.8150 H   0  0  0  0  0  0  0  0  0  0  0  0
   38.6680   33.5300   38.3640 H   0  0  0  0  0  0  0  0  0  0  0  0
  1  6  2  0  0  0  0
  1  2  1  0  0  0  0
  2  3  2  0  0  0  0
  3  8  1  0  0  0  0
  4  3  1  0  0  0  0
  5  4  2  0  0  0  0
  6  5  1  0  0  0  0
  7  1  1  0  0  0  0
  8  9  1  0  0  0  0
  9 11  2  0  0  0  0
  9 10  1  0  0  0  0
 12 11  1  0  0  0  0
 13 12  1  0  0  0  0
 13 14  1  0  0  0  0
 15 13  2  0  0  0  0
 16 18  2  0  0  0  0
 16 15  1  0  0  0  0
 17 16  1  0  0  0  0
 18 19  1  0  0  0  0
 19  8  1  0  0  0  0
 19 12  2  0  0  0  0
 20  5  1  0  0  0  0
 20 29  1  0  0  0  0
 21 20  2  0  0  0  0
 22 21  1  0  0  0  0
 22 23  2  0  0  0  0
 23 24  1  0  0  0  0
 24 29  2  0  0  0  0
 24 25  1  0  0  0  0
 25 26  2  0  0  0  0
 26 27  1  0  0  0  0
 26 32  1  0  0  0  0
 27 33  1  0  0  0  0
 28 34  1  0  0  0  0
 28 27  2  0  0  0  0
 29 28  1  0  0  0  0
 30 22  1  0  0  0  0
 31 25  1  0  0  0  0
 35  2  1  0  0  0  0
 35 36  1  0  0  0  0
 37 35  1  0  0  0  0
M  END
>  <minimizedAffinity>
-6.11996603

$$$$

 OpenBabel03252502033D

 37 41  0  0  0  0  0  0  0  0999 V2000
   34.8790   26.8830   37.5420 C   0  0  0  0  0  0  0  0  0  0  0  0
   35.6750   27.4100   38.5370 C   0  0  0  0  0  0  0  0  0  0  0  0
   35.4140   28.7010   38.8920 C   0  0  0  0  0  0  0  0  0  0  0  0
   34.4350   29.3910   38.2910 N   0  0  0  0  0  0  0  0  0  0  0  0
   33.6700   28.8730   37.3270 C   0  0  0  0  0  0  0  0  0  0  0  0
   33.9220   27.6170   36.9810 N   0  0  0  0  0  0  0  0  0  0  0  0
   35.0910   25.8430   37.2570 H   0  0  0  0  0  0  0  0  0  0  0  0
   36.1500   29.3450   39.8860 N   0  0  0  0  0  0  0  0  0  0  0  0
   36.5760   30.6190   39.9740 C   0  0  0  0  0  0  0  0  0  0  0  0
   36.3960   31.3860   39.2330 H   0  0  0  0  0  0  0  0  0  0  0  0
   37.2580   30.7990   41.1220 N   0  0  0  0  0  0  0  0  0  0  0  0
   37.2820   29.6350   41.7940 C   0  0  0  0  0  0  0  0  0  0  0  0
   37.8400   29.2750   43.0050 C   0  0  0  0  0  0  0  0  0  0  0  0
   38.3770   30.0260   43.5800 H   0  0  0  0  0  0  0  0  0  0  0  0
   37.6730   27.9980   43.3930 N   0  0  0  0  0  0  0  0  0  0  0  0
   36.9980   27.0950   42.6490 C   0  0  0  0  0  0  0  0  0  0  0  0
   36.8980   26.0700   43.0200 H   0  0  0  0  0  0  0  0  0  0  0  0
   36.4680   27.4670   41.4810 N   0  0  0  0  0  0  0  0  0  0  0  0
   36.5970   28.7430   41.0280 C   0  0  0  0  0  0  0  0  0  0  0  0
   32.5610   29.4370   36.5440 C   0  0  0  0  0  0  0  0  0  0  0  0
   32.6110   29.6290   35.2060 N   0  0  0  0  0  0  0  0  0  0  0  0
   31.6320   30.1370   34.4620 C   0  0  0  0  0  0  0  0  0  0  0  0
   30.4740   30.5040   35.0490 N   0  0  0  0  0  0  0  0  0  0  0  0
   30.2990   30.3630   36.3790 C   0  0  0  0  0  0  0  0  0  0  0  0
   29.1090   30.7420   36.9750 C   0  0  0  0  0  0  0  0  0  0  0  0
   28.9250   30.5990   38.3240 C   0  0  0  0  0  0  0  0  0  0  0  0
   29.9620   30.0710   39.0570 C   0  0  0  0  0  0  0  0  0  0  0  0
   31.1260   29.7080   38.4300 C   0  0  0  0  0  0  0  0  0  0  0  0
   31.3610   29.8290   37.0850 C   0  0  0  0  0  0  0  0  0  0  0  0
   31.7820   30.2460   33.3960 H   0  0  0  0  0  0  0  0  0  0  0  0
   28.3080   31.1560   36.3740 H   0  0  0  0  0  0  0  0  0  0  0  0
   28.0170   30.8780   38.8390 H   0  0  0  0  0  0  0  0  0  0  0  0
   29.8700   29.9370   40.1250 H   0  0  0  0  0  0  0  0  0  0  0  0
   31.9220   29.2920   39.0570 H   0  0  0  0  0  0  0  0  0  0  0  0
   36.6870   26.6370   39.1320 N   0  0  0  0  0  0  0  0  0  0  0  0
   37.6780   26.6660   38.8080 H   0  0  0  0  0  0  0  0  0  0  0  0
   36.6030   25.9610   39.9360 H   0  0  0  0  0  0  0  0  0  0  0  0
  1  2  1  0  0  0  0
  2  3  2  0  0  0  0
  2 35  1  0  0  0  0
  3  8  1  0  0  0  0
  4  3  1  0  0  0  0
  5  4  2  0  0  0  0
  6  5  1  0  0  0  0
  6  1  2  0  0  0  0
  7  1  1  0  0  0  0
  8  9  1  0  0  0  0
  8 19  1  0  0  0  0
  9 11  2  0  0  0  0
 10  9  1  0  0  0  0
 11 12  1  0  0  0  0
 12 13  1  0  0  0  0
 13 15  2  0  0  0  0
 13 14  1  0  0  0  0
 16 17  1  0  0  0  0
 16 15  1  0  0  0  0
 18 16  2  0  0  0  0
 19 18  1  0  0  0  0
 19 12  2  0  0  0  0
 20 29  1  0  0  0  0
 20  5  1  0  0  0  0
 21 20  2  0  0  0  0
 22 23  2  0  0  0  0
 22 21  1  0  0  0  0
 23 24  1  0  0  0  0
 24 25  2  0  0  0  0
 24 29  1  0  0  0  0
 25 26  1  0  0  0  0
 26 32  1  0  0  0  0
 26 27  2  0  0  0  0
 27 33  1  0  0  0  0
 28 27  1  0  0  0  0
 28 34  1  0  0  0  0
 29 28  2  0  0  0  0
 30 22  1  0  0  0  0
 31 25  1  0  0  0  0
 35 37  1  0  0  0  0
 36 35  1  0  0  0  0
M  END
>  <minimizedAffinity>
-6.04454851

$$$$

 OpenBabel03252502033D

 37 41  0  0  0  0  0  0  0  0999 V2000
   38.6930   33.1940   40.6960 C   0  0  0  0  0  0  0  0  0  0  0  0
   40.0270   32.9140   40.4910 C   0  0  0  0  0  0  0  0  0  0  0  0
   40.3060   31.7020   39.9310 C   0  0  0  0  0  0  0  0  0  0  0  0
   39.3190   30.8540   39.6100 N   0  0  0  0  0  0  0  0  0  0  0  0
   38.0290   31.1340   39.8130 C   0  0  0  0  0  0  0  0  0  0  0  0
   37.7570   32.3120   40.3570 N   0  0  0  0  0  0  0  0  0  0  0  0
   38.4710   34.1710   41.1470 H   0  0  0  0  0  0  0  0  0  0  0  0
   41.6180   31.3040   39.6740 N   0  0  0  0  0  0  0  0  0  0  0  0
   42.2040   30.0960   39.7840 C   0  0  0  0  0  0  0  0  0  0  0  0
   41.7070   29.1930   40.1120 H   0  0  0  0  0  0  0  0  0  0  0  0
   43.4990   30.1790   39.4260 N   0  0  0  0  0  0  0  0  0  0  0  0
   43.7690   31.4500   39.0770 C   0  0  0  0  0  0  0  0  0  0  0  0
   44.9250   32.0660   38.6390 C   0  0  0  0  0  0  0  0  0  0  0  0
   45.8290   31.4710   38.5320 H   0  0  0  0  0  0  0  0  0  0  0  0
   44.8450   33.3810   38.3720 N   0  0  0  0  0  0  0  0  0  0  0  0
   43.7010   34.0850   38.5180 C   0  0  0  0  0  0  0  0  0  0  0  0
   43.7030   35.1540   38.2850 H   0  0  0  0  0  0  0  0  0  0  0  0
   42.5960   33.4660   38.9440 N   0  0  0  0  0  0  0  0  0  0  0  0
   42.6050   32.1370   39.2320 C   0  0  0  0  0  0  0  0  0  0  0  0
   36.8050   30.3670   39.5430 C   0  0  0  0  0  0  0  0  0  0  0  0
   35.9600   29.9410   40.5100 N   0  0  0  0  0  0  0  0  0  0  0  0
   34.8440   29.2450   40.3080 C   0  0  0  0  0  0  0  0  0  0  0  0
   34.4860   28.9150   39.0500 N   0  0  0  0  0  0  0  0  0  0  0  0
   35.2450   29.2810   37.9970 C   0  0  0  0  0  0  0  0  0  0  0  0
   34.8720   28.9400   36.7090 C   0  0  0  0  0  0  0  0  0  0  0  0
   35.6380   29.3110   35.6360 C   0  0  0  0  0  0  0  0  0  0  0  0
   36.7830   30.0280   35.8890 C   0  0  0  0  0  0  0  0  0  0  0  0
   37.1200   30.3470   37.1790 C   0  0  0  0  0  0  0  0  0  0  0  0
   36.3890   30.0020   38.2860 C   0  0  0  0  0  0  0  0  0  0  0  0
   34.2420   28.9550   41.1590 H   0  0  0  0  0  0  0  0  0  0  0  0
   33.9640   28.3730   36.5380 H   0  0  0  0  0  0  0  0  0  0  0  0
   35.3930   29.0700   34.6120 H   0  0  0  0  0  0  0  0  0  0  0  0
   37.4240   30.3460   35.0780 H   0  0  0  0  0  0  0  0  0  0  0  0
   38.0410   30.9200   37.3280 H   0  0  0  0  0  0  0  0  0  0  0  0
   41.0200   33.8440   40.8480 N   0  0  0  0  0  0  0  0  0  0  0  0
   41.5140   33.8110   41.7650 H   0  0  0  0  0  0  0  0  0  0  0  0
   41.3850   34.6550   40.2830 H   0  0  0  0  0  0  0  0  0  0  0  0
  1  7  1  0  0  0  0
  2  1  1  0  0  0  0
  2 35  1  0  0  0  0
  3  2  2  0  0  0  0
  4  5  2  0  0  0  0
  4  3  1  0  0  0  0
  5  6  1  0  0  0  0
  6  1  2  0  0  0  0
  8  9  1  0  0  0  0
  8  3  1  0  0  0  0
  9 10  1  0  0  0  0
 11  9  2  0  0  0  0
 12 19  1  0  0  0  0
 12 11  1  0  0  0  0
 13 12  2  0  0  0  0
 14 13  1  0  0  0  0
 15 16  2  0  0  0  0
 15 13  1  0  0  0  0
 16 18  1  0  0  0  0
 17 16  1  0  0  0  0
 18 19  2  0  0  0  0
 19  8  1  0  0  0  0
 20  5  1  0  0  0  0
 20 21  1  0  0  0  0
 22 21  2  0  0  0  0
 22 30  1  0  0  0  0
 23 22  1  0  0  0  0
 24 29  1  0  0  0  0
 24 23  2  0  0  0  0
 25 24  1  0  0  0  0
 26 27  1  0  0  0  0
 26 25  2  0  0  0  0
 27 28  2  0  0  0  0
 28 34  1  0  0  0  0
 28 29  1  0  0  0  0
 29 20  2  0  0  0  0
 31 25  1  0  0  0  0
 32 26  1  0  0  0  0
 33 27  1  0  0  0  0
 35 36  1  0  0  0  0
 37 35  1  0  0  0  0
M  END
>  <minimizedAffinity>
-5.88432026

$$$$
