
     RDKit          3D

 34 37  0  0  0  0  0  0  0  0999 V2000
   47.5899   33.2318   43.3772 C   0  0  0  0  0  0  0  0  0  0  0  0
   46.6649   34.1246   43.9431 C   0  0  0  0  0  0  0  0  0  0  0  0
   45.9492   34.9504   43.0812 C   0  0  0  0  0  0  0  0  0  0  0  0
   46.1655   34.8668   41.7427 N   0  0  0  0  0  0  0  0  0  0  0  0
   47.0780   33.9815   41.2275 C   0  0  0  0  0  0  0  0  0  0  0  0
   47.7755   33.1793   42.0436 N   0  0  0  0  0  0  0  0  0  0  0  0
   45.1057   32.3058   39.7483 Cl  0  0  0  0  0  0  0  0  0  0  0  0
   46.4069   33.1731   39.0061 C   0  0  0  0  0  0  0  0  0  0  0  0
   47.2772   33.9279   39.7702 C   0  0  0  0  0  0  0  0  0  0  0  0
   48.3297   34.6356   39.2145 C   0  0  0  0  0  0  0  0  0  0  0  0
   48.4725   34.5519   37.8430 C   0  0  0  0  0  0  0  0  0  0  0  0
   47.6132   33.8042   37.0710 C   0  0  0  0  0  0  0  0  0  0  0  0
   46.5985   33.1264   37.6387 C   0  0  0  0  0  0  0  0  0  0  0  0
   44.9288   35.9495   43.5696 C   0  0  0  0  0  0  0  0  0  0  0  0
   45.2664   37.2149   43.1754 F   0  0  0  0  0  0  0  0  0  0  0  0
   43.7034   35.6211   43.0230 F   0  0  0  0  0  0  0  0  0  0  0  0
   44.8766   35.8302   44.9370 F   0  0  0  0  0  0  0  0  0  0  0  0
   48.1521   32.5850   44.0366 H   0  0  0  0  0  0  0  0  0  0  0  0
   46.4786   34.2079   44.9880 H   0  0  0  0  0  0  0  0  0  0  0  0
   49.0150   35.2252   39.7818 H   0  0  0  0  0  0  0  0  0  0  0  0
   49.2685   35.0767   37.3475 H   0  0  0  0  0  0  0  0  0  0  0  0
   47.6918   33.7131   35.9911 H   0  0  0  0  0  0  0  0  0  0  0  0
   45.6696   32.3284   36.8790 N   0  0  0  0  0  0  0  0  0  0  0  0
   45.8151   31.4468   35.8709 C   0  0  0  0  0  0  0  0  0  0  0  0
   46.8126   31.2222   35.4756 H   0  0  0  0  0  0  0  0  0  0  0  0
   44.5910   30.9877   35.5332 N   0  0  0  0  0  0  0  0  0  0  0  0
   43.6817   31.5858   36.3342 C   0  0  0  0  0  0  0  0  0  0  0  0
   42.3086   31.4503   36.3804 C   0  0  0  0  0  0  0  0  0  0  0  0
   41.7525   30.7799   35.7099 H   0  0  0  0  0  0  0  0  0  0  0  0
   41.6174   32.1794   37.2965 N   0  0  0  0  0  0  0  0  0  0  0  0
   42.2680   33.0162   38.1397 C   0  0  0  0  0  0  0  0  0  0  0  0
   41.8083   33.6345   38.8984 H   0  0  0  0  0  0  0  0  0  0  0  0
   43.6081   33.1466   38.0925 N   0  0  0  0  0  0  0  0  0  0  0  0
   44.3488   32.4433   37.1982 C   0  0  0  0  0  0  0  0  0  0  0  0
  1  2  2  0
  3 14  1  0
  3  2  1  0
  4  3  2  0
  5  4  1  0
  5  6  2  0
  6  1  1  0
  8  7  1  0
  8  9  2  0
  9  5  1  0
 10  9  1  0
 11 10  2  0
 12 13  2  0
 12 11  1  0
 13  8  1  0
 14 17  1  0
 15 14  1  0
 16 14  1  0
  1 18  1  0
  2 19  1  0
 10 20  1  0
 11 21  1  0
 12 22  1  0
 23 24  1  0
 24 25  1  0
 24 26  2  0
 26 27  1  0
 27 28  2  0
 28 29  1  0
 28 30  1  0
 30 31  2  0
 31 32  1  0
 31 33  1  0
 33 34  2  0
 34 23  1  0
 34 27  1  0
 13 23  1  0
M  ISO  8  18  14  19  14  20  14  21  14  22  14  25  15  29  16  32  16
M  END
>  <DihAtoms>  (1) 
11,12,22,23

>  <DihDeg>  (1) 
88.81148936474331

$$$$
