
 OpenBabel03252503193D

 42 46  0  0  0  0  0  0  0  0999 V2000
   46.0470   34.0820   40.6070 C   0  0  0  0  0  0  0  0  0  0  0  0
   44.7140   33.8040   40.4730 C   0  0  0  0  0  0  0  0  0  0  0  0
   44.5830   33.1840   39.2800 N   0  0  0  0  0  0  0  0  0  0  0  0
   45.7820   33.0900   38.7130 C   0  0  0  0  0  0  0  0  0  0  0  0
   46.6990   33.6420   39.5260 N   0  0  0  0  0  0  0  0  0  0  0  0
   46.1670   32.5240   37.4670 N   0  0  0  0  0  0  0  0  0  0  0  0
   43.9250   34.0300   41.1710 H   0  0  0  0  0  0  0  0  0  0  0  0
   45.7920   31.5450   37.2990 H   0  0  0  0  0  0  0  0  0  0  0  0
   46.7690   33.0910   36.8290 H   0  0  0  0  0  0  0  0  0  0  0  0
   43.3800   32.6840   38.6610 C   0  0  0  0  0  0  0  0  0  0  0  0
   43.0060   31.7720   39.1750 H   0  0  0  0  0  0  0  0  0  0  0  0
   43.5660   32.4020   37.6130 H   0  0  0  0  0  0  0  0  0  0  0  0
   42.3890   33.7400   38.7800 N   0  0  0  0  0  0  0  0  0  0  0  0
   42.3630   35.0090   38.3380 C   0  0  0  0  0  0  0  0  0  0  0  0
   43.2220   35.3590   37.7810 H   0  0  0  0  0  0  0  0  0  0  0  0
   41.2140   35.6080   38.7000 N   0  0  0  0  0  0  0  0  0  0  0  0
   40.4610   34.7300   39.3940 C   0  0  0  0  0  0  0  0  0  0  0  0
   39.2150   34.8340   39.9820 C   0  0  0  0  0  0  0  0  0  0  0  0
   38.6670   35.7660   39.9240 H   0  0  0  0  0  0  0  0  0  0  0  0
   38.7320   33.7300   40.6210 N   0  0  0  0  0  0  0  0  0  0  0  0
   39.4840   32.5940   40.6510 C   0  0  0  0  0  0  0  0  0  0  0  0
   39.0500   31.7340   41.1780 H   0  0  0  0  0  0  0  0  0  0  0  0
   40.6980   32.4710   40.0850 N   0  0  0  0  0  0  0  0  0  0  0  0
   41.2070   33.5560   39.4400 C   0  0  0  0  0  0  0  0  0  0  0  0
   46.7200   34.7630   41.7540 C   0  0  0  0  0  0  0  0  0  0  0  0
   47.9090   35.2000   41.7500 O   0  0  0  0  0  0  0  0  0  0  0  0
   45.3590   36.1810   43.2340 C   0  0  0  0  0  0  0  0  0  0  0  0
   46.0100   34.9590   42.9700 C   0  0  0  0  0  0  0  0  0  0  0  0
   45.8770   34.0250   43.9910 C   0  0  0  0  0  0  0  0  0  0  0  0
   45.2030   34.2520   45.1100 N   0  0  0  0  0  0  0  0  0  0  0  0
   44.5970   35.4600   45.3020 C   0  0  0  0  0  0  0  0  0  0  0  0
   44.6810   36.4070   44.3650 N   0  0  0  0  0  0  0  0  0  0  0  0
   45.4460   36.9400   42.4470 H   0  0  0  0  0  0  0  0  0  0  0  0
   44.0430   35.6810   46.1940 H   0  0  0  0  0  0  0  0  0  0  0  0
   46.5060   32.7550   43.8140 C   0  0  0  0  0  0  0  0  0  0  0  0
   47.7590   32.2560   43.9470 C   0  0  0  0  0  0  0  0  0  0  0  0
   48.0720   31.0030   43.7120 C   0  0  0  0  0  0  0  0  0  0  0  0
   47.0560   30.2210   43.3210 C   0  0  0  0  0  0  0  0  0  0  0  0
   45.6020   31.3070   43.2880 S   0  0  0  0  0  0  0  0  0  0  0  0
   48.4880   33.0260   44.2760 H   0  0  0  0  0  0  0  0  0  0  0  0
   49.0570   30.5630   43.8040 H   0  0  0  0  0  0  0  0  0  0  0  0
   47.0860   29.0760   43.0550 H   0  0  0  0  0  0  0  0  0  0  0  0
  1 25  1  0  0  0  0
  2  1  2  0  0  0  0
  2  7  1  0  0  0  0
  3  2  1  0  0  0  0
  4  3  1  0  0  0  0
  4  5  2  0  0  0  0
  5  1  1  0  0  0  0
  6  4  1  0  0  0  0
  8  6  1  0  0  0  0
  9  6  1  0  0  0  0
 10 13  1  0  0  0  0
 10 11  1  0  0  0  0
 10  3  1  0  0  0  0
 12 10  1  0  0  0  0
 13 24  1  0  0  0  0
 14 16  2  0  0  0  0
 14 13  1  0  0  0  0
 15 14  1  0  0  0  0
 16 17  1  0  0  0  0
 17 24  2  0  0  0  0
 17 18  1  0  0  0  0
 18 20  2  0  0  0  0
 19 18  1  0  0  0  0
 20 21  1  0  0  0  0
 21 22  1  0  0  0  0
 23 21  2  0  0  0  0
 24 23  1  0  0  0  0
 25 28  1  0  0  0  0
 26 25  2  0  0  0  0
 27 32  1  0  0  0  0
 28 27  2  0  0  0  0
 28 29  1  0  0  0  0
 29 30  2  0  0  0  0
 30 31  1  0  0  0  0
 31 34  1  0  0  0  0
 32 31  2  0  0  0  0
 33 27  1  0  0  0  0
 35 36  2  0  0  0  0
 35 29  1  0  0  0  0
 36 40  1  0  0  0  0
 37 41  1  0  0  0  0
 37 36  1  0  0  0  0
 38 37  2  0  0  0  0
 39 38  1  0  0  0  0
 39 35  1  0  0  0  0
 42 38  1  0  0  0  0
M  END
>  <minimizedAffinity>
-6.04997253

>  <minimizedRMSD>
1.72685516

$$$$
