
     RDKit          3D

 41 46  0  0  0  0  0  0  0  0999 V2000
   45.4847   34.8319   43.5469 C   0  0  0  0  0  0  0  0  0  0  0  0
   46.1978   33.7429   44.1235 C   0  0  0  0  0  0  0  0  0  0  0  0
   46.0021   33.5269   45.4806 C   0  0  0  0  0  0  0  0  0  0  0  0
   45.1795   34.3237   46.1669 N   0  0  0  0  0  0  0  0  0  0  0  0
   44.5139   35.3535   45.5891 C   0  0  0  0  0  0  0  0  0  0  0  0
   44.6769   35.5885   44.2974 N   0  0  0  0  0  0  0  0  0  0  0  0
   46.9952   32.6919   47.5428 C   0  0  0  0  0  0  0  0  0  0  0  0
   46.6755   32.4390   46.2049 C   0  0  0  0  0  0  0  0  0  0  0  0
   47.0035   31.2299   45.6736 C   0  0  0  0  0  0  0  0  0  0  0  0
   47.6375   30.2424   46.3957 C   0  0  0  0  0  0  0  0  0  0  0  0
   48.0521   28.9967   46.0857 N   0  0  0  0  0  0  0  0  0  0  0  0
   48.6313   28.4583   47.2147 C   0  0  0  0  0  0  0  0  0  0  0  0
   48.5623   29.3744   48.1871 N   0  0  0  0  0  0  0  0  0  0  0  0
   47.9588   30.4725   47.7086 C   0  0  0  0  0  0  0  0  0  0  0  0
   47.6393   31.6913   48.2799 C   0  0  0  0  0  0  0  0  0  0  0  0
   45.6713   35.0596   42.1898 O   0  0  0  0  0  0  0  0  0  0  0  0
   44.6460   34.8981   41.2983 C   0  0  0  0  0  0  0  0  0  0  0  0
   44.9747   33.7764   40.6254 C   0  0  0  0  0  0  0  0  0  0  0  0
   43.5458   33.5816   39.4003 S   0  0  0  0  0  0  0  0  0  0  0  0
   42.7560   35.1608   40.1046 C   0  0  0  0  0  0  0  0  0  0  0  0
   43.5110   35.4108   40.8722 N   0  0  0  0  0  0  0  0  0  0  0  0
   46.8580   33.0977   43.5895 H   0  0  0  0  0  0  0  0  0  0  0  0
   43.8846   35.9082   46.2755 H   0  0  0  0  0  0  0  0  0  0  0  0
   46.7795   33.6186   48.0631 H   0  0  0  0  0  0  0  0  0  0  0  0
   46.7442   31.0509   44.6227 H   0  0  0  0  0  0  0  0  0  0  0  0
   47.9096   28.6065   45.1292 H   0  0  0  0  0  0  0  0  0  0  0  0
   49.0109   27.4508   47.1039 H   0  0  0  0  0  0  0  0  0  0  0  0
   47.9087   31.8357   49.3184 H   0  0  0  0  0  0  0  0  0  0  0  0
   45.6663   32.8590   40.3905 H   0  0  0  0  0  0  0  0  0  0  0  0
   41.5187   35.8760   39.7679 N   0  0  0  0  0  0  0  0  0  0  0  0
   41.0653   35.9907   38.5246 C   0  0  0  0  0  0  0  0  0  0  0  0
   41.5022   35.6016   37.6056 H   0  0  0  0  0  0  0  0  0  0  0  0
   39.9328   36.7021   38.6478 N   0  0  0  0  0  0  0  0  0  0  0  0
   39.7192   37.0026   39.9353 C   0  0  0  0  0  0  0  0  0  0  0  0
   38.7170   37.7045   40.5943 C   0  0  0  0  0  0  0  0  0  0  0  0
   37.8921   38.1404   40.0598 H   0  0  0  0  0  0  0  0  0  0  0  0
   38.7344   37.8693   41.9283 N   0  0  0  0  0  0  0  0  0  0  0  0
   39.7561   37.3368   42.6479 C   0  0  0  0  0  0  0  0  0  0  0  0
   39.7765   37.4668   43.7314 H   0  0  0  0  0  0  0  0  0  0  0  0
   40.7446   36.6463   42.0118 N   0  0  0  0  0  0  0  0  0  0  0  0
   40.7503   36.4674   40.6784 C   0  0  0  0  0  0  0  0  0  0  0  0
  1  2  2  0
  1  6  1  0
  2  3  1  0
  3  4  2  0
  3  8  1  0
  5  4  1  0
  6  5  2  0
  7 15  2  0
  8  7  1  0
  9  8  2  0
  9 10  1  0
 10 14  2  0
 11 10  1  0
 11 12  1  0
 12 13  2  0
 14 13  1  0
 14 15  1  0
 16  1  1  0
 17 16  1  0
 18 17  2  0
 19 20  1  0
 19 18  1  0
 20 21  2  0
 21 17  1  0
  2 22  1  0
  5 23  1  0
  7 24  1  0
  9 25  1  0
 11 26  1  0
 12 27  1  0
 15 28  1  0
 18 29  1  0
 30 31  1  0
 31 32  1  0
 31 33  2  0
 33 34  1  0
 34 35  2  0
 35 36  1  0
 35 37  1  0
 37 38  2  0
 38 39  1  0
 38 40  1  0
 40 41  2  0
 41 30  1  0
 41 34  1  0
 20 30  1  0
M  ISO  8  22  14  23  14  24  14  25  14  26   9  27  14  28  14  29  14
M  ISO  3  32  15  36  16  39  16
M  END
>  <DihAtoms>  (1) 
18,19,29,30

>  <DihDeg>  (1) 
98.05670506928978

$$$$
