
 OpenBabel03252504323D

 43 46  0  0  0  0  0  0  0  0999 V2000
   41.1610   35.5760   41.3810 C   0  0  0  0  0  0  0  0  0  0  0  0
   40.5360   36.4380   40.9490 H   0  0  0  0  0  0  0  0  0  0  0  0
   41.1450   35.7090   42.4640 H   0  0  0  0  0  0  0  0  0  0  0  0
   40.5860   33.2400   41.7560 C   0  0  0  0  0  0  0  0  0  0  0  0
   40.2610   34.4060   41.0800 C   0  0  0  0  0  0  0  0  0  0  0  0
   39.1930   34.4190   40.2440 C   0  0  0  0  0  0  0  0  0  0  0  0
   38.5210   33.2770   40.1360 N   0  0  0  0  0  0  0  0  0  0  0  0
   38.8070   32.1410   40.7720 C   0  0  0  0  0  0  0  0  0  0  0  0
   39.9000   32.1010   41.6360 N   0  0  0  0  0  0  0  0  0  0  0  0
   41.4180   33.1230   42.4450 H   0  0  0  0  0  0  0  0  0  0  0  0
   38.9770   35.3310   39.7440 H   0  0  0  0  0  0  0  0  0  0  0  0
   38.0080   30.9760   40.5750 N   0  0  0  0  0  0  0  0  0  0  0  0
   37.1270   30.3550   41.3800 C   0  0  0  0  0  0  0  0  0  0  0  0
   36.9470   30.7550   42.3520 H   0  0  0  0  0  0  0  0  0  0  0  0
   36.6110   29.2690   40.7440 N   0  0  0  0  0  0  0  0  0  0  0  0
   37.1740   29.2070   39.5230 C   0  0  0  0  0  0  0  0  0  0  0  0
   37.0530   28.3490   38.4500 C   0  0  0  0  0  0  0  0  0  0  0  0
   36.3630   27.5180   38.5500 H   0  0  0  0  0  0  0  0  0  0  0  0
   37.7370   28.4870   37.2970 N   0  0  0  0  0  0  0  0  0  0  0  0
   38.5810   29.5370   37.2240 C   0  0  0  0  0  0  0  0  0  0  0  0
   39.1250   29.6400   36.2980 H   0  0  0  0  0  0  0  0  0  0  0  0
   38.7160   30.3860   38.2590 N   0  0  0  0  0  0  0  0  0  0  0  0
   38.0500   30.2790   39.4230 C   0  0  0  0  0  0  0  0  0  0  0  0
   42.3340   35.5670   40.7060 O   0  0  0  0  0  0  0  0  0  0  0  0
   43.6300   35.4330   41.1860 C   0  0  0  0  0  0  0  0  0  0  0  0
   43.7670   35.6390   42.4940 C   0  0  0  0  0  0  0  0  0  0  0  0
   45.0660   35.5590   43.2650 C   0  0  0  0  0  0  0  0  0  0  0  0
   45.8750   35.2670   42.5510 H   0  0  0  0  0  0  0  0  0  0  0  0
   45.3630   36.5220   43.6920 H   0  0  0  0  0  0  0  0  0  0  0  0
   44.9090   34.6610   44.2910 O   0  0  0  0  0  0  0  0  0  0  0  0
   45.6670   32.5670   42.8370 O   0  0  0  0  0  0  0  0  0  0  0  0
   45.9540   33.3520   44.0930 P   0  0  1  0  0  0  0  0  0  0  0  0
   47.5660   33.9000   43.9820 O   0  0  0  0  0  0  0  0  0  0  0  0
   47.6590   34.8130   44.3340 H   0  0  0  0  0  0  0  0  0  0  0  0
   45.8680   32.3420   45.4400 O   0  0  0  0  0  0  0  0  0  0  0  0
   46.1510   33.0090   46.6180 C   0  0  0  0  0  0  0  0  0  0  0  0
   47.0390   32.3540   47.6300 C   0  0  0  0  0  0  0  0  0  0  0  0
   45.5430   32.3950   47.8580 C   0  0  0  0  0  0  0  0  0  0  0  0
   46.2350   34.1080   46.5040 H   0  0  0  0  0  0  0  0  0  0  0  0
   47.7170   33.0090   48.2030 H   0  0  0  0  0  0  0  0  0  0  0  0
   47.4750   31.3850   47.3610 H   0  0  0  0  0  0  0  0  0  0  0  0
   45.2810   33.0800   48.7080 H   0  0  0  0  0  0  0  0  0  0  0  0
   44.9770   31.4570   47.7760 H   0  0  0  0  0  0  0  0  0  0  0  0
  1  3  1  0  0  0  0
  2  1  1  0  0  0  0
  4 10  1  0  0  0  0
  5  1  1  0  0  0  0
  5  4  2  0  0  0  0
  6  5  1  0  0  0  0
  7  6  2  0  0  0  0
  7  8  1  0  0  0  0
  8  9  2  0  0  0  0
  9  4  1  0  0  0  0
 11  6  1  0  0  0  0
 12  8  1  0  0  0  0
 12 13  1  0  0  0  0
 13 14  1  0  0  0  0
 15 13  2  0  0  0  0
 16 15  1  0  0  0  0
 17 18  1  0  0  0  0
 17 16  2  0  0  0  0
 19 17  1  0  0  0  0
 20 19  2  0  0  0  0
 20 22  1  0  0  0  0
 21 20  1  0  0  0  0
 22 23  2  0  0  0  0
 23 16  1  0  0  0  0
 23 12  1  0  0  0  0
 24 25  1  0  0  0  0
 24  1  1  0  0  0  0
 25 26  1  0  0  0  0
 26 27  1  0  0  0  0
 27 29  1  0  0  0  0
 27 30  1  0  0  0  0
 28 27  1  0  0  0  0
 32 31  2  6  0  0  0
 32 30  1  0  0  0  0
 32 35  1  0  0  0  0
 33 32  1  0  0  0  0
 33 34  1  0  0  0  0
 35 36  1  0  0  0  0
 36 37  1  0  0  0  0
 36 38  1  0  0  0  0
 37 38  1  0  0  0  0
 37 40  1  0  0  0  0
 38 42  1  0  0  0  0
 39 36  1  0  0  0  0
 41 37  1  0  0  0  0
 43 38  1  0  0  0  0
M  END
>  <minimizedAffinity>
-5.56537914

>  <minimizedRMSD>
0.840602279

$$$$
