
     RDKit          3D

 52 57  0  0  0  0  0  0  0  0999 V2000
   45.7586   33.1351   46.2340 C   0  0  0  0  0  0  0  0  0  0  0  0
   45.9214   31.9453   45.8304 C   0  0  0  0  0  0  0  0  0  0  0  0
   44.5371   36.1443   44.4896 C   0  0  0  0  0  0  0  0  0  0  0  0
   45.2068   36.0949   43.2734 C   0  0  0  0  0  0  0  0  0  0  0  0
   46.0450   35.0430   43.0945 C   0  0  0  0  0  0  0  0  0  0  0  0
   46.2025   34.1041   44.0664 N   0  0  0  0  0  0  0  0  0  0  0  0
   45.5328   34.1857   45.2390 C   0  0  0  0  0  0  0  0  0  0  0  0
   44.7176   35.2078   45.4143 N   0  0  0  0  0  0  0  0  0  0  0  0
   46.8169   34.8571   41.8674 C   0  0  0  0  0  0  0  0  0  0  0  0
   48.0490   35.4119   41.6300 C   0  0  0  0  0  0  0  0  0  0  0  0
   48.7706   35.2309   40.4714 C   0  0  0  0  0  0  0  0  0  0  0  0
   48.2467   34.4421   39.4579 C   0  0  0  0  0  0  0  0  0  0  0  0
   47.0174   33.8635   39.6439 C   0  0  0  0  0  0  0  0  0  0  0  0
   46.3465   34.0855   40.8296 C   0  0  0  0  0  0  0  0  0  0  0  0
   46.0871   30.9009   46.9103 C   0  0  0  0  0  0  0  0  0  0  0  0
   45.8921   31.5011   48.2585 C   0  0  1  0  0  0  0  0  0  0  0  0
   45.7133   30.5097   49.3576 C   0  0  0  0  0  0  0  0  0  0  0  0
   46.9208   31.3317   49.3049 C   0  0  1  0  0  0  0  0  0  0  0  0
   48.2373   30.7450   48.9048 C   0  0  2  0  0  0  0  0  0  0  0  0
   49.1842   30.4759   50.1027 C   0  0  0  0  0  0  0  0  0  0  0  0
   49.4932   31.5725   49.1795 C   0  0  1  0  0  0  0  0  0  0  0  0
   45.7613   33.6091   47.2044 H   0  0  0  0  0  0  0  0  0  0  0  0
   45.9182   31.6009   44.8217 H   0  0  0  0  0  0  0  0  0  0  0  0
   43.8608   36.9660   44.6706 H   0  0  0  0  0  0  0  0  0  0  0  0
   45.1092   36.8131   42.4861 H   0  0  0  0  0  0  0  0  0  0  0  0
   48.4916   36.0434   42.4158 H   0  0  0  0  0  0  0  0  0  0  0  0
   49.7470   35.6884   40.3194 H   0  0  0  0  0  0  0  0  0  0  0  0
   48.7992   34.2945   38.5527 H   0  0  0  0  0  0  0  0  0  0  0  0
   46.5778   33.2472   38.8853 H   0  0  0  0  0  0  0  0  0  0  0  0
   45.3690   33.6014   40.9291 H   0  0  0  0  0  0  0  0  0  0  0  0
   45.2213   30.2004   46.7433 H   0  0  0  0  0  0  0  0  0  0  0  0
   47.0252   30.4182   46.7006 H   0  0  0  0  0  0  0  0  0  0  0  0
   45.0676   32.2719   48.3232 H   0  0  0  0  0  0  0  0  0  0  0  0
   45.8722   29.4237   49.1346 H   0  0  0  0  0  0  0  0  0  0  0  0
   44.9893   30.6436   50.1717 H   0  0  0  0  0  0  0  0  0  0  0  0
   46.9975   32.1438   50.0577 H   0  0  0  0  0  0  0  0  0  0  0  0
   48.2842   29.8943   48.2010 H   0  0  0  0  0  0  0  0  0  0  0  0
   48.8352   30.7780   51.1102 H   0  0  0  0  0  0  0  0  0  0  0  0
   49.8571   29.6249   50.0904 H   0  0  0  0  0  0  0  0  0  0  0  0
   49.2894   32.6447   49.4550 H   0  0  0  0  0  0  0  0  0  0  0  0
   50.4842   31.4524   48.1274 N   0  0  0  0  0  0  0  0  0  0  0  0
   50.2160   30.9261   46.9178 C   0  0  0  0  0  0  0  0  0  0  0  0
   49.2828   30.5281   46.5419 H   0  0  0  0  0  0  0  0  0  0  0  0
   51.3359   30.9538   46.1656 N   0  0  0  0  0  0  0  0  0  0  0  0
   52.2788   31.5049   46.9439 C   0  0  0  0  0  0  0  0  0  0  0  0
   53.6159   31.7631   46.6475 C   0  0  0  0  0  0  0  0  0  0  0  0
   54.0890   31.5388   45.6988 H   0  0  0  0  0  0  0  0  0  0  0  0
   54.3550   32.3312   47.6216 N   0  0  0  0  0  0  0  0  0  0  0  0
   53.8356   32.6351   48.8172 C   0  0  0  0  0  0  0  0  0  0  0  0
   54.4308   33.0911   49.5978 H   0  0  0  0  0  0  0  0  0  0  0  0
   52.5453   32.3990   49.1379 N   0  0  0  0  0  0  0  0  0  0  0  0
   51.7744   31.8351   48.1990 C   0  0  0  0  0  0  0  0  0  0  0  0
  2  1  2  0
  2 15  1  0
  3  8  2  0
  4  3  1  0
  5  4  2  0
  5  6  1  0
  6  7  2  0
  7  8  1  0
  7  1  1  0
  9  5  1  0
 10  9  2  0
 11 10  1  0
 12 13  1  0
 12 11  2  0
 13 14  2  0
 14  9  1  0
 15 16  1  0
 16 18  1  0
 16 17  1  0
 18 17  1  0
 19 21  1  0
 19 18  1  0
 19 20  1  0
 21 20  1  0
  1 22  1  0
  2 23  1  0
  3 24  1  0
  4 25  1  0
 10 26  1  0
 11 27  1  0
 12 28  1  0
 13 29  1  0
 14 30  1  0
 15 31  1  0
 15 32  1  0
 16 33  1  6
 17 34  1  0
 17 35  1  0
 18 36  1  1
 19 37  1  6
 20 38  1  0
 20 39  1  0
 21 40  1  1
 41 42  1  0
 42 43  1  0
 42 44  2  0
 44 45  1  0
 45 46  2  0
 46 47  1  0
 46 48  1  0
 48 49  2  0
 49 50  1  0
 49 51  1  0
 51 52  2  0
 52 41  1  0
 52 45  1  0
 21 41  1  0
M  ISO  8  24  14  25  14  26  14  27  14  28  14  29  14  30  14  31   8
M  ISO  8  32   8  33  13  34  13  35  13  36  13  37  13  38  13  39  13
M  ISO  4  40  13  43  15  47  16  50  16
M  END
>  <DihAtoms>  (1) 
18,20,40,41

>  <DihDeg>  (1) 
89.08195537133669

$$$$
