
 OpenBabel03252509083D

 44 48  0  0  0  0  0  0  0  0999 V2000
   48.6270   31.7820   38.4000 C   0  0  0  0  0  0  0  0  0  0  0  0
   47.6270   32.5270   37.8500 C   0  0  0  0  0  0  0  0  0  0  0  0
   47.1940   33.6750   38.4910 C   0  0  0  0  0  0  0  0  0  0  0  0
   47.7670   34.0650   39.6760 C   0  0  0  0  0  0  0  0  0  0  0  0
   48.7920   33.3310   40.2680 C   0  0  0  0  0  0  0  0  0  0  0  0
   49.2160   32.1740   39.6060 C   0  0  0  0  0  0  0  0  0  0  0  0
   46.4010   34.2960   38.0900 H   0  0  0  0  0  0  0  0  0  0  0  0
   47.5110   34.9330   40.2580 H   0  0  0  0  0  0  0  0  0  0  0  0
   49.2820   33.5760   41.1850 H   0  0  0  0  0  0  0  0  0  0  0  0
   50.0200   31.5870   40.0580 H   0  0  0  0  0  0  0  0  0  0  0  0
   43.5030   30.6650   35.3630 Cl  0  0  0  0  0  0  0  0  0  0  0  0
   45.0980   31.3720   35.4420 C   0  0  0  0  0  0  0  0  0  0  0  0
   45.6800   31.6630   36.6330 C   0  0  0  0  0  0  0  0  0  0  0  0
   46.9520   32.2060   36.5900 C   0  0  0  0  0  0  0  0  0  0  0  0
   47.6010   32.4450   35.4030 C   0  0  0  0  0  0  0  0  0  0  0  0
   47.0030   32.1480   34.2240 C   0  0  0  0  0  0  0  0  0  0  0  0
   45.7380   31.6070   34.2500 C   0  0  0  0  0  0  0  0  0  0  0  0
   48.6020   32.8760   35.4500 H   0  0  0  0  0  0  0  0  0  0  0  0
   47.5600   32.3580   33.3370 H   0  0  0  0  0  0  0  0  0  0  0  0
   45.2840   31.3800   33.2920 H   0  0  0  0  0  0  0  0  0  0  0  0
   43.3730   31.9900   39.6000 C   0  0  0  0  0  0  0  0  0  0  0  0
   44.0630   32.2700   38.4170 C   0  0  0  0  0  0  0  0  0  0  0  0
   44.9580   31.3830   37.8600 C   0  0  0  0  0  0  0  0  0  0  0  0
   45.1120   30.2230   38.5550 N   0  0  0  0  0  0  0  0  0  0  0  0
   44.4590   29.9460   39.6840 C   0  0  0  0  0  0  0  0  0  0  0  0
   43.5960   30.8280   40.1990 N   0  0  0  0  0  0  0  0  0  0  0  0
   42.6970   32.7810   39.9250 H   0  0  0  0  0  0  0  0  0  0  0  0
   43.9120   33.2020   37.8960 H   0  0  0  0  0  0  0  0  0  0  0  0
   44.6640   28.9910   40.1450 H   0  0  0  0  0  0  0  0  0  0  0  0
   49.2070   30.4050   37.6290 S   0  0  0  0  0  0  0  0  0  0  0  0
   49.8140   29.4090   38.5910 O   0  0  0  0  0  0  0  0  0  0  0  0
   47.9000   29.6680   37.1530 O   0  0  0  0  0  0  0  0  0  0  0  0
   51.9470   29.4000   37.1220 H   0  0  0  0  0  0  0  0  0  0  0  0
   51.4400   29.8600   36.2980 N   0  0  0  0  0  0  0  0  0  0  0  0
   50.1740   30.4070   36.2120 C   0  0  0  0  0  0  0  0  0  0  0  0
   50.2170   30.7820   34.9220 N   0  0  0  0  0  0  0  0  0  0  0  0
   51.3430   30.5070   34.3040 C   0  0  0  0  0  0  0  0  0  0  0  0
   51.6560   30.7830   32.9740 C   0  0  0  0  0  0  0  0  0  0  0  0
   50.9600   31.2730   32.3050 H   0  0  0  0  0  0  0  0  0  0  0  0
   52.8900   30.4060   32.5430 N   0  0  0  0  0  0  0  0  0  0  0  0
   53.7240   29.8000   33.4070 C   0  0  0  0  0  0  0  0  0  0  0  0
   54.6960   29.5070   33.0570 H   0  0  0  0  0  0  0  0  0  0  0  0
   53.3860   29.5440   34.7060 N   0  0  0  0  0  0  0  0  0  0  0  0
   52.1870   29.8910   35.1870 C   0  0  0  0  0  0  0  0  0  0  0  0
  1  6  1  0  0  0  0
  2  1  2  0  0  0  0
  2  3  1  0  0  0  0
  3  4  2  0  0  0  0
  4  8  1  0  0  0  0
  4  5  1  0  0  0  0
  5  9  1  0  0  0  0
  6 10  1  0  0  0  0
  6  5  2  0  0  0  0
  7  3  1  0  0  0  0
 11 12  1  0  0  0  0
 12 13  1  0  0  0  0
 13 23  1  0  0  0  0
 14 13  2  0  0  0  0
 14  2  1  0  0  0  0
 15 18  1  0  0  0  0
 15 14  1  0  0  0  0
 16 17  1  0  0  0  0
 16 15  2  0  0  0  0
 17 12  2  0  0  0  0
 19 16  1  0  0  0  0
 20 17  1  0  0  0  0
 21 27  1  0  0  0  0
 21 26  1  0  0  0  0
 22 21  2  0  0  0  0
 23 22  1  0  0  0  0
 23 24  2  0  0  0  0
 24 25  1  0  0  0  0
 25 29  1  0  0  0  0
 25 26  2  0  0  0  0
 28 22  1  0  0  0  0
 30  1  1  0  0  0  0
 30 31  2  0  0  0  0
 32 30  2  0  0  0  0
 34 33  1  0  0  0  0
 35 34  1  0  0  0  0
 35 30  1  0  0  0  0
 36 35  2  0  0  0  0
 37 36  1  0  0  0  0
 37 44  1  0  0  0  0
 38 37  2  0  0  0  0
 39 38  1  0  0  0  0
 40 38  1  0  0  0  0
 40 41  2  0  0  0  0
 41 43  1  0  0  0  0
 42 41  1  0  0  0  0
 43 44  2  0  0  0  0
 44 34  1  0  0  0  0
M  END
>  <minimizedAffinity>
-3.90679908

>  <minimizedRMSD>
7.7959013

$$$$
