
 OpenBabel03252508173D

 50 55  0  0  1  0  0  0  0  0999 V2000
   46.5250   31.7350   48.3040 C   0  0  1  0  0  0  0  0  0  0  0  0
   45.8970   30.9060   49.3720 C   0  0  0  0  0  0  0  0  0  0  0  0
   47.3260   31.2080   49.4280 C   0  0  1  0  0  0  0  0  0  0  0  0
   46.0520   32.7620   48.3120 H   0  0  0  0  0  0  0  0  0  0  0  0
   45.6490   29.8370   49.1490 H   0  0  0  0  0  0  0  0  0  0  0  0
   45.2150   31.3200   50.1270 H   0  0  0  0  0  0  0  0  0  0  0  0
   47.6450   31.9440   50.1950 H   0  0  0  0  0  0  0  0  0  0  0  0
   48.3490   30.1590   49.1270 C   0  0  2  0  0  0  0  0  0  0  0  0
   49.4940   30.0960   50.1700 C   0  0  0  0  0  0  0  0  0  0  0  0
   49.7740   30.6260   48.8310 C   0  0  1  0  0  0  0  0  0  0  0  0
   48.0400   29.1330   48.8570 H   0  0  0  0  0  0  0  0  0  0  0  0
   49.4830   30.8400   50.9910 H   0  0  0  0  0  0  0  0  0  0  0  0
   49.9540   29.1460   50.4230 H   0  0  0  0  0  0  0  0  0  0  0  0
   49.8700   31.7320   48.6490 H   0  0  0  0  0  0  0  0  0  0  0  0
   50.4180   29.8370   47.7980 N   0  0  0  0  0  0  0  0  0  0  0  0
   49.7410   29.2080   46.8200 C   0  0  0  0  0  0  0  0  0  0  0  0
   48.6740   29.1800   46.6430 H   0  0  0  0  0  0  0  0  0  0  0  0
   50.6170   28.5650   46.0200 N   0  0  0  0  0  0  0  0  0  0  0  0
   51.8290   28.8180   46.5350 C   0  0  0  0  0  0  0  0  0  0  0  0
   53.0760   28.3890   46.0860 C   0  0  0  0  0  0  0  0  0  0  0  0
   53.2340   27.7610   45.2170 H   0  0  0  0  0  0  0  0  0  0  0  0
   54.1490   28.7930   46.7960 N   0  0  0  0  0  0  0  0  0  0  0  0
   54.0280   29.5690   47.8800 C   0  0  0  0  0  0  0  0  0  0  0  0
   54.8910   29.8920   48.4480 H   0  0  0  0  0  0  0  0  0  0  0  0
   52.8360   30.0030   48.3420 N   0  0  0  0  0  0  0  0  0  0  0  0
   51.7430   29.6250   47.6670 C   0  0  0  0  0  0  0  0  0  0  0  0
   46.5840   31.0820   46.9680 C   0  0  0  0  0  0  0  0  0  0  0  0
   45.6820   30.4110   46.8990 H   0  0  0  0  0  0  0  0  0  0  0  0
   47.4830   30.5540   46.7020 H   0  0  0  0  0  0  0  0  0  0  0  0
   45.8760   33.2040   46.2270 C   0  0  0  0  0  3  0  0  0  0  0  0
   46.3690   32.0940   45.8660 C   0  0  0  0  0  3  0  0  0  0  0  0
   44.4920   36.0900   44.3970 C   0  0  0  0  0  0  0  0  0  0  0  0
   45.1440   36.0260   43.1710 C   0  0  0  0  0  0  0  0  0  0  0  0
   46.0250   35.0060   43.0160 C   0  0  0  0  0  0  0  0  0  0  0  0
   46.2410   34.1110   44.0180 N   0  0  0  0  0  0  0  0  0  0  0  0
   45.5870   34.2070   45.1990 C   0  0  0  0  0  0  0  0  0  0  0  0
   44.7290   35.1970   45.3510 N   0  0  0  0  0  0  0  0  0  0  0  0
   43.7820   36.8870   44.5610 H   0  0  0  0  0  0  0  0  0  0  0  0
   45.0010   36.7090   42.3610 H   0  0  0  0  0  0  0  0  0  0  0  0
   46.7850   34.8100   41.7830 C   0  0  0  0  0  0  0  0  0  0  0  0
   48.0140   35.3640   41.5290 C   0  0  0  0  0  0  0  0  0  0  0  0
   48.7250   35.1730   40.3640 C   0  0  0  0  0  0  0  0  0  0  0  0
   48.1920   34.3740   39.3640 C   0  0  0  0  0  0  0  0  0  0  0  0
   46.9650   33.7970   39.5670 C   0  0  0  0  0  0  0  0  0  0  0  0
   46.3050   34.0290   40.7580 C   0  0  0  0  0  0  0  0  0  0  0  0
   48.4650   36.0030   42.3040 H   0  0  0  0  0  0  0  0  0  0  0  0
   49.6990   35.6300   40.1980 H   0  0  0  0  0  0  0  0  0  0  0  0
   48.7350   34.2190   38.4550 H   0  0  0  0  0  0  0  0  0  0  0  0
   46.5190   33.1730   38.8180 H   0  0  0  0  0  0  0  0  0  0  0  0
   45.3300   33.5440   40.8710 H   0  0  0  0  0  0  0  0  0  0  0  0
  1  4  1  1  0  0  0
  1  2  1  0  0  0  0
  1  3  1  0  0  0  0
  2  3  1  0  0  0  0
  2  6  1  0  0  0  0
  3  7  1  1  0  0  0
  5  2  1  0  0  0  0
  8 11  1  6  0  0  0
  8  3  1  0  0  0  0
  8  9  1  0  0  0  0
  9 13  1  0  0  0  0
  9 12  1  0  0  0  0
 10 14  1  6  0  0  0
 10  8  1  0  0  0  0
 10  9  1  0  0  0  0
 15 10  1  0  0  0  0
 16 15  1  0  0  0  0
 17 16  1  0  0  0  0
 18 19  1  0  0  0  0
 18 16  2  0  0  0  0
 19 26  1  0  0  0  0
 20 19  2  0  0  0  0
 20 22  1  0  0  0  0
 21 20  1  0  0  0  0
 22 23  2  0  0  0  0
 23 25  1  0  0  0  0
 23 24  1  0  0  0  0
 26 15  1  0  0  0  0
 26 25  2  0  0  0  0
 27  1  1  0  0  0  0
 28 27  1  0  0  0  0
 29 27  1  0  0  0  0
 31 30  2  0  0  0  0
 31 27  1  0  0  0  0
 32 38  1  0  0  0  0
 32 37  1  0  0  0  0
 33 32  2  0  0  0  0
 34 33  1  0  0  0  0
 34 35  2  0  0  0  0
 35 36  1  0  0  0  0
 36 37  2  0  0  0  0
 36 30  1  0  0  0  0
 39 33  1  0  0  0  0
 40 34  1  0  0  0  0
 41 40  1  0  0  0  0
 41 46  1  0  0  0  0
 42 41  2  0  0  0  0
 43 44  2  0  0  0  0
 43 42  1  0  0  0  0
 44 45  1  0  0  0  0
 45 50  1  0  0  0  0
 45 40  2  0  0  0  0
 47 42  1  0  0  0  0
 48 43  1  0  0  0  0
 49 44  1  0  0  0  0
M  END
>  <minimizedAffinity>
-6.26330328

>  <minimizedRMSD>
1.52940571

$$$$
