
 OpenBabel03242523543D

 48 52  0  0  1  0  0  0  0  0999 V2000
   42.7940   34.4510   38.8640 C   0  0  1  0  0  0  0  0  0  0  0  0
   43.0050   35.2200   40.1590 C   0  0  1  0  0  0  0  0  0  0  0  0
   41.7370   35.6010   40.6550 O   0  0  0  0  0  0  0  0  0  0  0  0
   40.8370   35.9270   39.6350 C   0  0  0  0  0  0  0  0  0  0  0  0
   40.4270   34.7060   38.8320 C   0  0  2  0  0  0  0  0  0  0  0  0
   41.5550   33.6410   39.0570 C   0  0  1  0  0  0  0  0  0  0  0  0
   43.6860   33.7950   38.7050 H   0  0  0  0  0  0  0  0  0  0  0  0
   43.6560   36.1030   40.0310 H   0  0  0  0  0  0  0  0  0  0  0  0
   39.9420   36.2980   40.1440 H   0  0  0  0  0  0  0  0  0  0  0  0
   41.2230   36.7380   38.9880 H   0  0  0  0  0  0  0  0  0  0  0  0
   39.4650   34.2740   39.1440 H   0  0  0  0  0  0  0  0  0  0  0  0
   41.3290   33.4950   40.1660 H   0  0  0  0  0  0  0  0  0  0  0  0
   42.6540   35.3320   37.7790 O   0  0  0  0  0  0  0  0  0  0  0  0
   42.7980   34.7970   36.9490 H   0  0  0  0  0  0  0  0  0  0  0  0
   40.4720   35.0020   37.4790 O   0  0  0  0  0  0  0  0  0  0  0  0
   39.9180   34.3460   37.0160 H   0  0  0  0  0  0  0  0  0  0  0  0
   43.4590   34.2760   41.0830 O   0  0  0  0  0  0  0  0  0  0  0  0
   44.5900   34.3730   41.7920 C   0  0  0  0  0  0  0  0  0  0  0  0
   45.8340   34.4860   41.1530 C   0  0  0  0  0  0  0  0  0  0  0  0
   46.9720   34.5840   41.9360 C   0  0  0  0  0  0  0  0  0  0  0  0
   46.8500   34.5700   43.3150 N   0  0  0  0  0  0  0  0  0  0  0  0
   45.6330   34.4610   43.8940 C   0  0  0  0  0  0  0  0  0  0  0  0
   44.5110   34.3630   43.1380 N   0  0  0  0  0  0  0  0  0  0  0  0
   45.9160   34.4950   40.0740 H   0  0  0  0  0  0  0  0  0  0  0  0
   45.6070   34.4560   44.9800 H   0  0  0  0  0  0  0  0  0  0  0  0
   48.3370   34.6960   41.3170 C   0  0  0  0  0  0  0  0  0  0  0  0
   49.0630   36.0230   41.5160 C   0  0  0  0  0  0  0  0  0  0  0  0
   49.5080   34.6890   42.1390 C   0  0  0  0  0  0  0  0  0  0  0  0
   48.3200   34.4190   40.2340 H   0  0  0  0  0  0  0  0  0  0  0  0
   48.6250   36.7170   42.2860 H   0  0  0  0  0  0  0  0  0  0  0  0
   49.6650   36.4410   40.7130 H   0  0  0  0  0  0  0  0  0  0  0  0
   50.4780   34.3250   41.7340 H   0  0  0  0  0  0  0  0  0  0  0  0
   49.4230   34.5480   43.2200 H   0  0  0  0  0  0  0  0  0  0  0  0
   41.3320   32.6320   38.2010 O   0  0  0  0  0  0  0  0  0  0  0  0
   40.6290   31.5030   38.3170 C   0  0  0  0  0  0  0  0  0  0  0  0
   39.8560   31.0530   37.3340 O   0  0  0  0  0  0  0  0  0  0  0  0
   39.7820   28.6860   38.4640 H   0  0  0  0  0  0  0  0  0  0  0  0
   40.0920   29.2600   39.2550 N   0  0  0  0  0  0  0  0  0  0  0  0
   40.5000   30.4940   39.4420 C   0  0  0  0  0  0  0  0  0  0  0  0
   40.7680   30.6200   40.7800 N   0  0  0  0  0  0  0  0  0  0  0  0
   40.5280   29.4740   41.4110 C   0  0  0  0  0  0  0  0  0  0  0  0
   40.6740   29.1970   42.7530 C   0  0  0  0  0  0  0  0  0  0  0  0
   41.0140   29.9040   43.4800 H   0  0  0  0  0  0  0  0  0  0  0  0
   40.3500   27.9260   43.1200 N   0  0  0  0  0  0  0  0  0  0  0  0
   39.9210   27.0310   42.2050 C   0  0  0  0  0  0  0  0  0  0  0  0
   39.6500   26.0100   42.4370 H   0  0  0  0  0  0  0  0  0  0  0  0
   39.8080   27.3870   40.9170 N   0  0  0  0  0  0  0  0  0  0  0  0
   40.0950   28.5950   40.4500 C   0  0  0  0  0  0  0  0  0  0  0  0
  1  7  1  6  0  0  0
  1  6  1  0  0  0  0
  1  2  1  0  0  0  0
  2  8  1  6  0  0  0
  2  3  1  0  0  0  0
  2 17  1  0  0  0  0
  4  9  1  0  0  0  0
  4  3  1  0  0  0  0
  5  6  1  0  0  0  0
  5 11  1  1  0  0  0
  5  4  1  0  0  0  0
  6 12  1  1  0  0  0
 10  4  1  0  0  0  0
 13  1  1  0  0  0  0
 14 13  1  0  0  0  0
 15  5  1  0  0  0  0
 16 15  1  0  0  0  0
 17 18  1  0  0  0  0
 18 23  1  0  0  0  0
 19 18  2  0  0  0  0
 19 20  1  0  0  0  0
 20 21  2  0  0  0  0
 21 22  1  0  0  0  0
 22 25  1  0  0  0  0
 23 22  2  0  0  0  0
 24 19  1  0  0  0  0
 26 27  1  0  0  0  0
 26 20  1  0  0  0  0
 26 28  1  0  0  0  0
 27 28  1  0  0  0  0
 27 30  1  0  0  0  0
 28 33  1  0  0  0  0
 29 26  1  0  0  0  0
 31 27  1  0  0  0  0
 32 28  1  0  0  0  0
 34 35  1  0  0  0  0
 34  6  1  0  0  0  0
 35 39  1  0  0  0  0
 36 35  2  0  0  0  0
 37 38  1  0  0  0  0
 38 39  1  0  0  0  0
 38 48  1  0  0  0  0
 39 40  2  0  0  0  0
 40 41  1  0  0  0  0
 41 42  1  0  0  0  0
 42 44  2  0  0  0  0
 42 43  1  0  0  0  0
 45 46  1  0  0  0  0
 45 44  1  0  0  0  0
 47 45  2  0  0  0  0
 48 47  1  0  0  0  0
 48 41  2  0  0  0  0
M  END
>  <minimizedAffinity>
-6.19660425

>  <minimizedRMSD>
1.83113611

$$$$
