REMARK  Name = 
REMARK  3 active torsions:
REMARK  status: ('A' for Active; 'I' for Inactive)
REMARK    1  A    between atoms: C_1  and  C_11
REMARK    2  A    between atoms: C_6  and  N_19
REMARK    3  A    between atoms: C_9  and  C_13
REMARK                            x       y       z     vdW  Elec       q    Type
REMARK                         _______ _______ _______ _____ _____    ______ ____
ROOT
ATOM      1  C   UNL     1      44.570  35.565  44.609  0.00  0.00    +0.000 A 
ATOM      2  C   UNL     1      45.222  35.574  43.356  0.00  0.00    +0.000 A 
ATOM      3  C   UNL     1      46.311  34.664  43.185  0.00  0.00    +0.000 A 
ATOM      4  N   UNL     1      46.668  33.849  44.202  0.00  0.00    +0.000 NA
ATOM      5  C   UNL     1      46.008  33.882  45.384  0.00  0.00    +0.000 A 
ATOM      6  N   UNL     1      44.959  34.737  45.593  0.00  0.00    +0.000 NA
ATOM      7  H   UNL     1      43.754  36.263  44.704  0.00  0.00    +0.000 HD
ATOM      8  H   UNL     1      44.967  36.201  42.536  0.00  0.00    +0.000 HD
ENDROOT
BRANCH   3   9
ATOM      9  C   UNL     1      47.005  34.647  41.894  0.00  0.00    +0.000 A 
ATOM     10  C   UNL     1      48.139  35.383  41.767  0.00  0.00    +0.000 A 
ATOM     11  C   UNL     1      48.764  35.340  40.521  0.00  0.00    +0.000 A 
ATOM     12  C   UNL     1      48.178  34.562  39.546  0.00  0.00    +0.000 A 
ATOM     13  C   UNL     1      47.038  33.824  39.681  0.00  0.00    +0.000 A 
ATOM     14  N   UNL     1      46.453  33.894  40.923  0.00  0.00    +0.000 NA
ATOM     15  H   UNL     1      48.531  35.967  42.585  0.00  0.00    +0.000 HD
ATOM     16  H   UNL     1      49.676  35.907  40.353  0.00  0.00    +0.000 HD
ATOM     17  H   UNL     1      48.655  34.520  38.572  0.00  0.00    +0.000 HD
ATOM     18  N   UNL     1      46.476  33.036  38.636  0.00  0.00    +0.000 N 
ATOM     19  C   UNL     1      45.570  32.050  38.796  0.00  0.00    +0.000 A 
ATOM     20  H   UNL     1      45.127  31.697  39.722  0.00  0.00    +0.000 HD
ATOM     21  N   UNL     1      45.251  31.513  37.624  0.00  0.00    +0.000 NA
ATOM     22  C   UNL     1      45.939  32.132  36.645  0.00  0.00    +0.000 A 
ATOM     23  C   UNL     1      46.053  32.048  35.261  0.00  0.00    +0.000 A 
ATOM     24  H   UNL     1      45.438  31.291  34.804  0.00  0.00    +0.000 HD
ATOM     25  N   UNL     1      46.888  32.879  34.602  0.00  0.00    +0.000 NA
ATOM     26  C   UNL     1      47.612  33.787  35.256  0.00  0.00    +0.000 A 
ATOM     27  H   UNL     1      48.272  34.439  34.699  0.00  0.00    +0.000 HD
ATOM     28  N   UNL     1      47.522  33.893  36.606  0.00  0.00    +0.000 NA
ATOM     29  C   UNL     1      46.702  33.088  37.321  0.00  0.00    +0.000 A 
ENDBRANCH   3   9
BRANCH   5  30
ATOM     30  C   UNL     1      46.446  32.968  46.469  0.00  0.00    +0.000 C 
ATOM     31  C   UNL     1      46.977  31.738  45.787  0.00  0.00    +0.000 C 
ATOM     32  C   UNL     1      46.110  30.548  45.810  0.00  0.00    +0.000 C 
ATOM     33  C   UNL     1      45.809  30.293  47.281  0.00  0.00    +0.000 C 
ATOM     34  C   UNL     1      45.016  31.362  47.885  0.00  0.00    +0.000 C 
ATOM     35  C   UNL     1      45.388  32.736  47.428  0.00  0.00    +0.000 C 
ATOM     36  H   UNL     1      47.286  33.503  46.975  0.00  0.00    +0.000 HD
ATOM     37  H   UNL     1      47.942  31.474  46.266  0.00  0.00    +0.000 HD
ATOM     38  H   UNL     1      47.253  31.934  44.714  0.00  0.00    +0.000 HD
ATOM     39  H   UNL     1      46.697  29.680  45.477  0.00  0.00    +0.000 HD
ATOM     40  H   UNL     1      45.197  30.718  45.229  0.00  0.00    +0.000 HD
ATOM     41  H   UNL     1      46.762  30.102  47.794  0.00  0.00    +0.000 HD
ATOM     42  H   UNL     1      45.167  29.398  47.291  0.00  0.00    +0.000 HD
ATOM     43  H   UNL     1      44.208  31.341  48.603  0.00  0.00    +0.000 HD
BRANCH  35  44
ATOM     44  N   UNL     1      44.690  33.866  47.941  0.00  0.00    +0.000 N 
ATOM     45  H   UNL     1      45.041  34.473  48.717  0.00  0.00    +0.000 HD
ATOM     46  H   UNL     1      43.773  34.199  47.602  0.00  0.00    +0.000 HD
ENDBRANCH  35  44
ENDBRANCH   5  30
TORSDOF 3
