
     RDKit          3D

 41 45  0  0  0  0  0  0  0  0999 V2000
   45.4948   32.3095   40.5787 Cl  0  0  0  0  0  0  0  0  0  0  0  0
   46.7823   33.4195   40.2022 C   0  0  0  0  0  0  0  0  0  0  0  0
   47.3592   34.1773   41.1907 C   0  0  0  0  0  0  0  0  0  0  0  0
   48.3905   35.0744   40.9248 C   0  0  0  0  0  0  0  0  0  0  0  0
   48.7972   35.1558   39.6100 C   0  0  0  0  0  0  0  0  0  0  0  0
   48.2179   34.3936   38.6119 C   0  0  0  0  0  0  0  0  0  0  0  0
   47.2317   33.5419   38.8935 C   0  0  0  0  0  0  0  0  0  0  0  0
   46.9098   32.9121   44.6236 C   0  0  0  0  0  0  0  0  0  0  0  0
   45.9718   33.8213   45.1596 C   0  0  0  0  0  0  0  0  0  0  0  0
   45.5103   34.8488   44.3401 C   0  0  0  0  0  0  0  0  0  0  0  0
   45.9851   34.9292   43.0592 N   0  0  0  0  0  0  0  0  0  0  0  0
   46.8821   34.0457   42.5727 C   0  0  0  0  0  0  0  0  0  0  0  0
   47.3337   33.0482   43.3599 N   0  0  0  0  0  0  0  0  0  0  0  0
   44.5177   35.8702   44.7970 C   0  0  0  0  0  0  0  0  0  0  0  0
   44.9759   37.1296   44.5660 F   0  0  0  0  0  0  0  0  0  0  0  0
   43.3444   35.6766   44.0955 F   0  0  0  0  0  0  0  0  0  0  0  0
   44.3029   35.6346   46.1335 F   0  0  0  0  0  0  0  0  0  0  0  0
   46.5956   32.7224   37.8746 C   0  0  0  0  0  0  0  0  0  0  0  0
   45.5909   33.1693   37.0059 C   0  0  0  0  0  0  0  0  0  0  0  0
   45.2112   32.1405   36.1706 C   0  0  0  0  0  0  0  0  0  0  0  0
   46.0170   31.1011   36.5791 C   0  0  0  0  0  0  0  0  0  0  0  0
   46.8098   31.4672   37.5680 O   0  0  0  0  0  0  0  0  0  0  0  0
   48.8253   35.6580   41.7252 H   0  0  0  0  0  0  0  0  0  0  0  0
   49.5938   35.8464   39.3943 H   0  0  0  0  0  0  0  0  0  0  0  0
   48.5562   34.4772   37.5890 H   0  0  0  0  0  0  0  0  0  0  0  0
   47.2425   32.1299   45.2918 H   0  0  0  0  0  0  0  0  0  0  0  0
   45.6024   33.7531   46.1669 H   0  0  0  0  0  0  0  0  0  0  0  0
   45.1413   34.1747   36.9581 H   0  0  0  0  0  0  0  0  0  0  0  0
   44.4800   32.0953   35.3814 H   0  0  0  0  0  0  0  0  0  0  0  0
   46.0303   29.7797   36.0345 N   0  0  0  0  0  0  0  0  0  0  0  0
   47.1208   29.1542   35.5530 C   0  0  0  0  0  0  0  0  0  0  0  0
   48.1454   29.4882   35.4785 H   0  0  0  0  0  0  0  0  0  0  0  0
   46.7523   27.9132   35.1201 N   0  0  0  0  0  0  0  0  0  0  0  0
   45.4300   27.7516   35.3267 C   0  0  0  0  0  0  0  0  0  0  0  0
   44.4537   26.7938   35.1354 C   0  0  0  0  0  0  0  0  0  0  0  0
   44.7902   25.8582   34.6823 H   0  0  0  0  0  0  0  0  0  0  0  0
   43.1670   27.0103   35.4897 N   0  0  0  0  0  0  0  0  0  0  0  0
   42.7783   28.1706   36.0457 C   0  0  0  0  0  0  0  0  0  0  0  0
   41.7665   28.3910   36.3449 H   0  0  0  0  0  0  0  0  0  0  0  0
   43.7057   29.1353   36.2499 N   0  0  0  0  0  0  0  0  0  0  0  0
   44.9898   28.9340   35.9025 C   0  0  0  0  0  0  0  0  0  0  0  0
  2  1  1  0
  2  3  2  0
  3 12  1  0
  4  3  1  0
  5  4  2  0
  6  7  2  0
  6  5  1  0
  7  2  1  0
  8  9  2  0
 10 14  1  0
 10  9  1  0
 11 10  2  0
 12 11  1  0
 12 13  2  0
 13  8  1  0
 14 17  1  0
 15 14  1  0
 16 14  1  0
 18  7  1  0
 19 18  2  0
 20 21  2  0
 20 19  1  0
 21 22  1  0
 22 18  1  0
  4 23  1  0
  5 24  1  0
  6 25  1  0
  8 26  1  0
  9 27  1  0
 19 28  1  0
 20 29  1  0
 30 31  1  0
 31 32  1  0
 31 33  2  0
 33 34  1  0
 34 35  2  0
 35 36  1  0
 35 37  1  0
 37 38  2  0
 38 39  1  0
 38 40  1  0
 40 41  2  0
 41 30  1  0
 41 34  1  0
 21 30  1  0
M  ISO  8  23  14  24  14  25  14  26  14  27  14  28  14  29  14  32  15
M  ISO  2  36  16  39  16
M  END
>  <DihAtoms>  (1) 
19,20,29,30

>  <DihDeg>  (1) 
20.08458095125184

$$$$
