
 OpenBabel03252507563D

 47 51  0  0  1  0  0  0  0  0999 V2000
   36.7990   31.3650   39.8100 C   0  0  2  0  0  0  0  0  0  0  0  0
   37.9170   30.7970   39.0630 C   0  0  0  0  0  0  0  0  0  0  0  0
   38.1260   31.9620   39.9690 C   0  0  1  0  0  0  0  0  0  0  0  0
   36.0510   31.9610   39.2610 H   0  0  0  0  0  0  0  0  0  0  0  0
   37.9560   30.9620   37.9470 H   0  0  0  0  0  0  0  0  0  0  0  0
   38.2900   29.7900   39.3240 H   0  0  0  0  0  0  0  0  0  0  0  0
   38.6580   31.8260   40.9300 H   0  0  0  0  0  0  0  0  0  0  0  0
   36.7150   28.4950   41.9880 C   0  0  2  0  0  0  0  0  0  0  0  0
   36.1270   28.0740   40.6400 C   0  0  0  0  0  0  0  0  0  0  0  0
   35.3360   29.3690   40.3480 C   0  0  0  0  0  0  0  0  0  0  0  0
   36.2000   30.4720   40.8720 C   0  0  1  0  0  0  0  0  0  0  0  0
   37.3390   29.8020   41.5820 C   0  0  0  0  0  0  0  0  0  0  0  0
   35.8620   28.5940   42.6740 H   0  0  0  0  0  0  0  0  0  0  0  0
   36.9100   27.9950   39.8820 H   0  0  0  0  0  0  0  0  0  0  0  0
   35.4540   27.2130   40.7360 H   0  0  0  0  0  0  0  0  0  0  0  0
   34.4310   29.2890   41.0100 H   0  0  0  0  0  0  0  0  0  0  0  0
   35.0730   29.4340   39.2930 H   0  0  0  0  0  0  0  0  0  0  0  0
   35.6740   31.1220   41.5980 H   0  0  0  0  0  0  0  0  0  0  0  0
   37.6680   30.3400   42.4950 H   0  0  0  0  0  0  0  0  0  0  0  0
   38.1560   29.5940   40.8840 H   0  0  0  0  0  0  0  0  0  0  0  0
   39.6180   26.8720   43.7540 C   0  0  0  0  0  0  0  0  0  0  0  0
   38.7170   27.8790   43.3820 C   0  0  0  0  0  0  0  0  0  0  0  0
   37.7180   27.5190   42.4870 C   0  0  0  0  0  0  0  0  0  0  0  0
   37.6330   26.2110   41.9930 N   0  0  0  0  0  0  0  0  0  0  0  0
   38.5380   25.2820   42.3920 C   0  0  0  0  0  0  0  0  0  0  0  0
   39.5220   25.6210   43.2700 N   0  0  0  0  0  0  0  0  0  0  0  0
   40.4040   27.1280   44.4500 H   0  0  0  0  0  0  0  0  0  0  0  0
   38.7530   28.8960   43.7430 H   0  0  0  0  0  0  0  0  0  0  0  0
   38.3770   24.3090   41.9480 H   0  0  0  0  0  0  0  0  0  0  0  0
   38.3450   33.2250   39.3690 O   0  0  0  0  0  0  0  0  0  0  0  0
   38.8250   35.0960   41.1150 O   0  0  0  0  0  0  0  0  0  0  0  0
   39.5040   34.0440   40.2710 P   0  0  1  0  0  0  0  0  0  0  0  0
   40.2780   32.9530   41.3460 O   0  0  0  0  0  0  0  0  0  0  0  0
   41.1020   32.5750   40.9550 H   0  0  0  0  0  0  0  0  0  0  0  0
   40.6960   34.7700   39.3770 O   0  0  0  0  0  0  0  0  0  0  0  0
   43.3930   35.3600   39.1170 H   0  0  0  0  0  0  0  0  0  0  0  0
   43.0060   34.4960   38.6860 N   0  0  0  0  0  0  0  0  0  0  0  0
   41.7330   34.0860   38.7300 C   0  0  0  0  0  0  0  0  0  0  0  0
   41.6130   32.9170   38.0540 N   0  0  0  0  0  0  0  0  0  0  0  0
   42.8020   32.5520   37.5630 C   0  0  0  0  0  0  0  0  0  0  0  0
   43.3660   31.5290   36.8190 C   0  0  0  0  0  0  0  0  0  0  0  0
   42.7020   30.7500   36.5020 H   0  0  0  0  0  0  0  0  0  0  0  0
   44.6790   31.5150   36.5120 N   0  0  0  0  0  0  0  0  0  0  0  0
   45.4860   32.5080   36.9250 C   0  0  0  0  0  0  0  0  0  0  0  0
   46.5510   32.4740   36.6620 H   0  0  0  0  0  0  0  0  0  0  0  0
   44.9690   33.5210   37.6520 N   0  0  0  0  0  0  0  0  0  0  0  0
   43.6630   33.5690   37.9780 C   0  0  0  0  0  0  0  0  0  0  0  0
  1  4  1  6  0  0  0
  1  3  1  0  0  0  0
  1 11  1  0  0  0  0
  2  6  1  0  0  0  0
  2  1  1  0  0  0  0
  2  3  1  0  0  0  0
  3  7  1  1  0  0  0
  5  2  1  0  0  0  0
  8 23  1  0  0  0  0
  8 13  1  1  0  0  0
  9 15  1  0  0  0  0
  9  8  1  0  0  0  0
 10  9  1  0  0  0  0
 10 11  1  0  0  0  0
 10 16  1  0  0  0  0
 11 12  1  0  0  0  0
 11 18  1  1  0  0  0
 12  8  1  0  0  0  0
 12 19  1  0  0  0  0
 14  9  1  0  0  0  0
 17 10  1  0  0  0  0
 20 12  1  0  0  0  0
 21 27  1  0  0  0  0
 22 28  1  0  0  0  0
 22 21  1  0  0  0  0
 23 22  2  0  0  0  0
 24 25  2  0  0  0  0
 24 23  1  0  0  0  0
 25 26  1  0  0  0  0
 26 21  2  0  0  0  0
 29 25  1  0  0  0  0
 30  3  1  0  0  0  0
 30 32  1  0  0  0  0
 32 31  2  1  0  0  0
 32 33  1  0  0  0  0
 34 33  1  0  0  0  0
 35 32  1  0  0  0  0
 37 38  1  0  0  0  0
 37 36  1  0  0  0  0
 38 35  1  0  0  0  0
 39 38  2  0  0  0  0
 40 47  1  0  0  0  0
 40 39  1  0  0  0  0
 41 40  2  0  0  0  0
 42 41  1  0  0  0  0
 43 41  1  0  0  0  0
 43 44  2  0  0  0  0
 44 46  1  0  0  0  0
 45 44  1  0  0  0  0
 46 47  2  0  0  0  0
 47 37  1  0  0  0  0
M  END
>  <minimizedAffinity>
-6.595469

$$$$

 OpenBabel03252507563D

 47 51  0  0  1  0  0  0  0  0999 V2000
   37.1660   31.2430   39.7220 C   0  0  2  0  0  0  0  0  0  0  0  0
   37.7780   30.4040   38.6970 C   0  0  0  0  0  0  0  0  0  0  0  0
   38.6060   31.3600   39.4870 C   0  0  1  0  0  0  0  0  0  0  0  0
   36.5410   32.0920   39.3980 H   0  0  0  0  0  0  0  0  0  0  0  0
   37.5650   30.6350   37.6140 H   0  0  0  0  0  0  0  0  0  0  0  0
   37.8480   29.3120   38.8590 H   0  0  0  0  0  0  0  0  0  0  0  0
   39.3030   30.9820   40.2590 H   0  0  0  0  0  0  0  0  0  0  0  0
   36.9890   28.5290   42.0870 C   0  0  2  0  0  0  0  0  0  0  0  0
   36.1270   28.1530   40.8810 C   0  0  0  0  0  0  0  0  0  0  0  0
   35.5150   29.5480   40.6230 C   0  0  0  0  0  0  0  0  0  0  0  0
   36.6170   30.5130   40.9260 C   0  0  1  0  0  0  0  0  0  0  0  0
   37.7370   29.6930   41.4950 C   0  0  0  0  0  0  0  0  0  0  0  0
   36.2880   28.8010   42.8880 H   0  0  0  0  0  0  0  0  0  0  0  0
   36.7520   27.9090   40.0170 H   0  0  0  0  0  0  0  0  0  0  0  0
   35.3510   27.4230   41.1420 H   0  0  0  0  0  0  0  0  0  0  0  0
   34.7300   29.6520   41.4220 H   0  0  0  0  0  0  0  0  0  0  0  0
   35.0940   29.6090   39.6200 H   0  0  0  0  0  0  0  0  0  0  0  0
   36.3280   31.2740   41.6750 H   0  0  0  0  0  0  0  0  0  0  0  0
   38.2940   30.2090   42.3050 H   0  0  0  0  0  0  0  0  0  0  0  0
   38.3830   29.3200   40.6960 H   0  0  0  0  0  0  0  0  0  0  0  0
   38.6100   25.1610   42.5370 C   0  0  0  0  0  0  0  0  0  0  0  0
   37.7040   26.1170   42.0600 C   0  0  0  0  0  0  0  0  0  0  0  0
   37.8940   27.4230   42.4930 C   0  0  0  0  0  0  0  0  0  0  0  0
   38.9430   27.7470   43.3620 N   0  0  0  0  0  0  0  0  0  0  0  0
   39.7870   26.7720   43.7890 C   0  0  0  0  0  0  0  0  0  0  0  0
   39.6120   25.4890   43.3720 N   0  0  0  0  0  0  0  0  0  0  0  0
   38.4830   24.1370   42.2140 H   0  0  0  0  0  0  0  0  0  0  0  0
   36.8840   25.9030   41.3890 H   0  0  0  0  0  0  0  0  0  0  0  0
   40.5570   27.1360   44.4550 H   0  0  0  0  0  0  0  0  0  0  0  0
   39.0630   32.5260   38.8280 O   0  0  0  0  0  0  0  0  0  0  0  0
   38.0060   34.5580   40.0670 O   0  0  0  0  0  0  0  0  0  0  0  0
   39.2690   33.7350   39.9770 P   0  0  1  0  0  0  0  0  0  0  0  0
   39.5240   33.0290   41.5210 O   0  0  0  0  0  0  0  0  0  0  0  0
   40.4860   32.9180   41.7200 H   0  0  0  0  0  0  0  0  0  0  0  0
   40.5450   34.7550   39.6950 O   0  0  0  0  0  0  0  0  0  0  0  0
   41.3170   35.5270   42.2450 H   0  0  0  0  0  0  0  0  0  0  0  0
   42.0110   35.0980   41.5990 N   0  0  0  0  0  0  0  0  0  0  0  0
   41.7820   34.6790   40.3480 C   0  0  0  0  0  0  0  0  0  0  0  0
   42.9280   34.1790   39.8250 N   0  0  0  0  0  0  0  0  0  0  0  0
   43.9140   34.2640   40.7240 C   0  0  0  0  0  0  0  0  0  0  0  0
   45.2600   33.9580   40.8460 C   0  0  0  0  0  0  0  0  0  0  0  0
   45.7230   33.5090   39.9900 H   0  0  0  0  0  0  0  0  0  0  0  0
   45.9450   34.2100   41.9780 N   0  0  0  0  0  0  0  0  0  0  0  0
   45.3330   34.7750   43.0350 C   0  0  0  0  0  0  0  0  0  0  0  0
   45.9130   34.9710   43.9450 H   0  0  0  0  0  0  0  0  0  0  0  0
   44.0220   35.0860   42.9500 N   0  0  0  0  0  0  0  0  0  0  0  0
   43.3050   34.8490   41.8350 C   0  0  0  0  0  0  0  0  0  0  0  0
  1  4  1  6  0  0  0
  1 11  1  0  0  0  0
  2  6  1  0  0  0  0
  2  3  1  0  0  0  0
  2  1  1  0  0  0  0
  3  1  1  0  0  0  0
  3  7  1  1  0  0  0
  5  2  1  0  0  0  0
  8 23  1  0  0  0  0
  8 13  1  1  0  0  0
  9 15  1  0  0  0  0
  9  8  1  0  0  0  0
 10  9  1  0  0  0  0
 10 11  1  0  0  0  0
 10 16  1  0  0  0  0
 11 12  1  0  0  0  0
 11 18  1  1  0  0  0
 12  8  1  0  0  0  0
 12 19  1  0  0  0  0
 14  9  1  0  0  0  0
 17 10  1  0  0  0  0
 20 12  1  0  0  0  0
 21 26  1  0  0  0  0
 22 23  1  0  0  0  0
 22 21  2  0  0  0  0
 23 24  2  0  0  0  0
 24 25  1  0  0  0  0
 25 29  1  0  0  0  0
 26 25  2  0  0  0  0
 27 21  1  0  0  0  0
 28 22  1  0  0  0  0
 30  3  1  0  0  0  0
 30 32  1  0  0  0  0
 32 31  2  1  0  0  0
 32 33  1  0  0  0  0
 33 34  1  0  0  0  0
 35 32  1  0  0  0  0
 35 38  1  0  0  0  0
 37 47  1  0  0  0  0
 37 36  1  0  0  0  0
 38 37  1  0  0  0  0
 39 38  2  0  0  0  0
 39 40  1  0  0  0  0
 40 41  2  0  0  0  0
 40 47  1  0  0  0  0
 41 43  1  0  0  0  0
 42 41  1  0  0  0  0
 43 44  2  0  0  0  0
 44 45  1  0  0  0  0
 46 44  1  0  0  0  0
 47 46  2  0  0  0  0
M  END
>  <minimizedAffinity>
-6.56561756

$$$$

 OpenBabel03252507563D

 47 51  0  0  1  0  0  0  0  0999 V2000
   39.0360   28.1270   43.2620 C   0  0  2  0  0  0  0  0  0  0  0  0
   37.7430   27.6550   43.7470 C   0  0  0  0  0  0  0  0  0  0  0  0
   37.8330   28.4660   42.4990 C   0  0  1  0  0  0  0  0  0  0  0  0
   39.5280   28.9530   43.8030 H   0  0  0  0  0  0  0  0  0  0  0  0
   37.3100   28.1300   44.6740 H   0  0  0  0  0  0  0  0  0  0  0  0
   37.5120   26.5750   43.7150 H   0  0  0  0  0  0  0  0  0  0  0  0
   37.6760   27.9860   41.5140 H   0  0  0  0  0  0  0  0  0  0  0  0
   39.9290   25.0460   41.6200 C   0  0  2  0  0  0  0  0  0  0  0  0
   39.5100   24.7060   43.0520 C   0  0  0  0  0  0  0  0  0  0  0  0
   40.1690   25.9160   43.7510 C   0  0  0  0  0  0  0  0  0  0  0  0
   39.9930   27.0540   42.7960 C   0  0  1  0  0  0  0  0  0  0  0  0
   39.4150   26.4570   41.5470 C   0  0  0  0  0  0  0  0  0  0  0  0
   41.0240   24.9600   41.5960 H   0  0  0  0  0  0  0  0  0  0  0  0
   38.4290   24.8110   43.1750 H   0  0  0  0  0  0  0  0  0  0  0  0
   39.9500   23.7620   43.3960 H   0  0  0  0  0  0  0  0  0  0  0  0
   41.2620   25.6500   43.7790 H   0  0  0  0  0  0  0  0  0  0  0  0
   39.7530   26.0640   44.7470 H   0  0  0  0  0  0  0  0  0  0  0  0
   40.9480   27.5480   42.5350 H   0  0  0  0  0  0  0  0  0  0  0  0
   39.7960   26.9280   40.6160 H   0  0  0  0  0  0  0  0  0  0  0  0
   38.3230   26.4320   41.6030 H   0  0  0  0  0  0  0  0  0  0  0  0
   39.0060   23.2150   38.4610 C   0  0  0  0  0  0  0  0  0  0  0  0
   39.7200   24.0730   39.3090 C   0  0  0  0  0  0  0  0  0  0  0  0
   39.2810   24.1540   40.6240 C   0  0  0  0  0  0  0  0  0  0  0  0
   38.1770   23.4100   41.0600 N   0  0  0  0  0  0  0  0  0  0  0  0
   37.5270   22.5980   40.1880 C   0  0  0  0  0  0  0  0  0  0  0  0
   37.9480   22.5090   38.8970 N   0  0  0  0  0  0  0  0  0  0  0  0
   39.3300   23.1350   37.4330 H   0  0  0  0  0  0  0  0  0  0  0  0
   40.5750   24.6610   39.0070 H   0  0  0  0  0  0  0  0  0  0  0  0
   36.6920   22.0730   40.6330 H   0  0  0  0  0  0  0  0  0  0  0  0
   37.3850   29.8070   42.5580 O   0  0  0  0  0  0  0  0  0  0  0  0
   37.5650   29.4610   39.9840 O   0  0  0  0  0  0  0  0  0  0  0  0
   36.8150   30.2410   41.0380 P   0  0  1  0  0  0  0  0  0  0  0  0
   35.1570   29.8160   40.8980 O   0  0  0  0  0  0  0  0  0  0  0  0
   34.5640   30.5680   41.1410 H   0  0  0  0  0  0  0  0  0  0  0  0
   36.9320   31.8560   40.6840 O   0  0  0  0  0  0  0  0  0  0  0  0
   38.7140   31.0840   38.7030 H   0  0  0  0  0  0  0  0  0  0  0  0
   38.8570   31.9800   39.2100 N   0  0  0  0  0  0  0  0  0  0  0  0
   38.0840   32.4780   40.1830 C   0  0  0  0  0  0  0  0  0  0  0  0
   38.5890   33.6650   40.5980 N   0  0  0  0  0  0  0  0  0  0  0  0
   39.6950   33.9550   39.9040 C   0  0  0  0  0  0  0  0  0  0  0  0
   40.6560   34.9500   39.8180 C   0  0  0  0  0  0  0  0  0  0  0  0
   40.5410   35.7790   40.4870 H   0  0  0  0  0  0  0  0  0  0  0  0
   41.6760   34.8780   38.9400 N   0  0  0  0  0  0  0  0  0  0  0  0
   41.7910   33.8230   38.1140 C   0  0  0  0  0  0  0  0  0  0  0  0
   42.6310   33.7870   37.4080 H   0  0  0  0  0  0  0  0  0  0  0  0
   40.8720   32.8350   38.1710 N   0  0  0  0  0  0  0  0  0  0  0  0
   39.8400   32.8730   39.0350 C   0  0  0  0  0  0  0  0  0  0  0  0
  1  2  1  0  0  0  0
  1  4  1  1  0  0  0
  2  5  1  0  0  0  0
  3  7  1  6  0  0  0
  3 30  1  0  0  0  0
  3  1  1  0  0  0  0
  3  2  1  0  0  0  0
  6  2  1  0  0  0  0
  8 13  1  6  0  0  0
  8  9  1  0  0  0  0
  9 14  1  0  0  0  0
  9 15  1  0  0  0  0
  9 10  1  0  0  0  0
 10 16  1  0  0  0  0
 10 17  1  0  0  0  0
 11 18  1  6  0  0  0
 11  1  1  0  0  0  0
 11 10  1  0  0  0  0
 12 20  1  0  0  0  0
 12  8  1  0  0  0  0
 12 11  1  0  0  0  0
 19 12  1  0  0  0  0
 21 26  2  0  0  0  0
 21 22  1  0  0  0  0
 22 23  2  0  0  0  0
 23 24  1  0  0  0  0
 23  8  1  0  0  0  0
 25 29  1  0  0  0  0
 25 24  2  0  0  0  0
 26 25  1  0  0  0  0
 27 21  1  0  0  0  0
 28 22  1  0  0  0  0
 32 31  2  6  0  0  0
 32 30  1  0  0  0  0
 33 32  1  0  0  0  0
 33 34  1  0  0  0  0
 35 32  1  0  0  0  0
 36 37  1  0  0  0  0
 37 38  1  0  0  0  0
 38 39  2  0  0  0  0
 38 35  1  0  0  0  0
 40 39  1  0  0  0  0
 41 40  1  0  0  0  0
 41 42  1  0  0  0  0
 43 41  2  0  0  0  0
 44 46  2  0  0  0  0
 44 43  1  0  0  0  0
 45 44  1  0  0  0  0
 46 47  1  0  0  0  0
 47 37  1  0  0  0  0
 47 40  2  0  0  0  0
M  END
>  <minimizedAffinity>
-6.39189005

$$$$

 OpenBabel03252507563D

 47 51  0  0  1  0  0  0  0  0999 V2000
   36.4550   30.9080   39.4590 C   0  0  2  0  0  0  0  0  0  0  0  0
   36.1320   29.9740   38.3850 C   0  0  0  0  0  0  0  0  0  0  0  0
   37.5300   30.4560   38.5740 C   0  0  1  0  0  0  0  0  0  0  0  0
   36.1350   31.9580   39.3530 H   0  0  0  0  0  0  0  0  0  0  0  0
   35.5400   30.3530   37.5030 H   0  0  0  0  0  0  0  0  0  0  0  0
   35.8410   28.9370   38.6360 H   0  0  0  0  0  0  0  0  0  0  0  0
   38.3000   29.7730   38.9790 H   0  0  0  0  0  0  0  0  0  0  0  0
   37.4670   28.9940   42.3390 C   0  0  2  0  0  0  0  0  0  0  0  0
   36.7110   28.0540   41.3990 C   0  0  0  0  0  0  0  0  0  0  0  0
   35.6130   29.0480   40.9560 C   0  0  0  0  0  0  0  0  0  0  0  0
   36.3070   30.3700   40.8630 C   0  0  1  0  0  0  0  0  0  0  0  0
   37.6900   30.1480   41.4010 C   0  0  0  0  0  0  0  0  0  0  0  0
   36.7800   29.2100   43.1700 H   0  0  0  0  0  0  0  0  0  0  0  0
   37.3120   27.8220   40.5160 H   0  0  0  0  0  0  0  0  0  0  0  0
   36.2780   27.1990   41.9320 H   0  0  0  0  0  0  0  0  0  0  0  0
   34.9100   29.0830   41.8330 H   0  0  0  0  0  0  0  0  0  0  0  0
   35.1220   28.7050   40.0460 H   0  0  0  0  0  0  0  0  0  0  0  0
   35.8190   31.1550   41.4720 H   0  0  0  0  0  0  0  0  0  0  0  0
   38.0810   31.0100   41.9810 H   0  0  0  0  0  0  0  0  0  0  0  0
   38.3630   29.8220   40.6040 H   0  0  0  0  0  0  0  0  0  0  0  0
   41.1020   28.3160   43.0530 C   0  0  0  0  0  0  0  0  0  0  0  0
   39.9720   28.9940   42.5750 C   0  0  0  0  0  0  0  0  0  0  0  0
   38.7420   28.3970   42.8160 C   0  0  0  0  0  0  0  0  0  0  0  0
   38.6560   27.1800   43.5030 N   0  0  0  0  0  0  0  0  0  0  0  0
   39.7900   26.5730   43.9400 C   0  0  0  0  0  0  0  0  0  0  0  0
   41.0020   27.1480   43.7100 N   0  0  0  0  0  0  0  0  0  0  0  0
   42.0720   28.7620   42.8770 H   0  0  0  0  0  0  0  0  0  0  0  0
   40.0020   29.9330   42.0420 H   0  0  0  0  0  0  0  0  0  0  0  0
   39.6040   25.6410   44.4560 H   0  0  0  0  0  0  0  0  0  0  0  0
   38.0310   31.3880   37.6340 O   0  0  0  0  0  0  0  0  0  0  0  0
   40.3460   30.4840   38.4110 O   0  0  0  0  0  0  0  0  0  0  0  0
   39.6170   31.7560   38.0510 P   0  0  1  0  0  0  0  0  0  0  0  0
   40.4270   32.4400   36.7010 O   0  0  0  0  0  0  0  0  0  0  0  0
   40.3810   33.4270   36.7070 H   0  0  0  0  0  0  0  0  0  0  0  0
   39.7760   32.8290   39.3050 O   0  0  0  0  0  0  0  0  0  0  0  0
   42.3790   32.3900   38.4560 H   0  0  0  0  0  0  0  0  0  0  0  0
   42.1970   33.0030   39.2750 N   0  0  0  0  0  0  0  0  0  0  0  0
   41.0000   33.3040   39.7940 C   0  0  0  0  0  0  0  0  0  0  0  0
   41.1640   34.1310   40.8550 N   0  0  0  0  0  0  0  0  0  0  0  0
   42.4650   34.3790   41.0410 C   0  0  0  0  0  0  0  0  0  0  0  0
   43.2910   35.0980   41.8900 C   0  0  0  0  0  0  0  0  0  0  0  0
   42.8040   35.6540   42.6670 H   0  0  0  0  0  0  0  0  0  0  0  0
   44.6310   35.0970   41.7460 N   0  0  0  0  0  0  0  0  0  0  0  0
   45.2100   34.3880   40.7600 C   0  0  0  0  0  0  0  0  0  0  0  0
   46.3030   34.4030   40.6640 H   0  0  0  0  0  0  0  0  0  0  0  0
   44.4350   33.6760   39.9150 N   0  0  0  0  0  0  0  0  0  0  0  0
   43.0930   33.6530   40.0280 C   0  0  0  0  0  0  0  0  0  0  0  0
  1  4  1  6  0  0  0
  1 11  1  0  0  0  0
  2  3  1  0  0  0  0
  2  6  1  0  0  0  0
  2  1  1  0  0  0  0
  3  7  1  1  0  0  0
  3  1  1  0  0  0  0
  5  2  1  0  0  0  0
  8 23  1  0  0  0  0
  8 13  1  1  0  0  0
  9 15  1  0  0  0  0
  9  8  1  0  0  0  0
 10  9  1  0  0  0  0
 10 16  1  0  0  0  0
 11 10  1  0  0  0  0
 11 12  1  0  0  0  0
 11 18  1  1  0  0  0
 12 19  1  0  0  0  0
 12  8  1  0  0  0  0
 14  9  1  0  0  0  0
 17 10  1  0  0  0  0
 20 12  1  0  0  0  0
 21 26  1  0  0  0  0
 22 23  1  0  0  0  0
 22 21  2  0  0  0  0
 23 24  2  0  0  0  0
 24 25  1  0  0  0  0
 25 29  1  0  0  0  0
 26 25  2  0  0  0  0
 27 21  1  0  0  0  0
 28 22  1  0  0  0  0
 30 32  1  0  0  0  0
 30  3  1  0  0  0  0
 32 31  2  1  0  0  0
 32 35  1  0  0  0  0
 33 34  1  0  0  0  0
 33 32  1  0  0  0  0
 35 38  1  0  0  0  0
 36 37  1  0  0  0  0
 37 38  1  0  0  0  0
 37 47  1  0  0  0  0
 38 39  2  0  0  0  0
 39 40  1  0  0  0  0
 40 41  1  0  0  0  0
 41 42  1  0  0  0  0
 43 41  2  0  0  0  0
 44 43  1  0  0  0  0
 45 44  1  0  0  0  0
 46 47  1  0  0  0  0
 46 44  2  0  0  0  0
 47 40  2  0  0  0  0
M  END
>  <minimizedAffinity>
-6.38221025

$$$$

 OpenBabel03252507563D

 47 51  0  0  1  0  0  0  0  0999 V2000
   36.7260   31.4140   40.0360 C   0  0  2  0  0  0  0  0  0  0  0  0
   36.9100   31.0100   38.6450 C   0  0  0  0  0  0  0  0  0  0  0  0
   38.0880   31.2380   39.5300 C   0  0  1  0  0  0  0  0  0  0  0  0
   36.4040   32.4490   40.2420 H   0  0  0  0  0  0  0  0  0  0  0  0
   36.6860   31.7610   37.8330 H   0  0  0  0  0  0  0  0  0  0  0  0
   36.6140   29.9920   38.3310 H   0  0  0  0  0  0  0  0  0  0  0  0
   38.6820   30.3780   39.8920 H   0  0  0  0  0  0  0  0  0  0  0  0
   36.5680   28.3050   41.8510 C   0  0  2  0  0  0  0  0  0  0  0  0
   36.0970   28.0330   40.4210 C   0  0  0  0  0  0  0  0  0  0  0  0
   35.2910   29.3360   40.2200 C   0  0  0  0  0  0  0  0  0  0  0  0
   36.0760   30.3880   40.9360 C   0  0  1  0  0  0  0  0  0  0  0  0
   37.1800   29.6640   41.6500 C   0  0  0  0  0  0  0  0  0  0  0  0
   35.6630   28.3020   42.4740 H   0  0  0  0  0  0  0  0  0  0  0  0
   36.9390   28.0620   39.7230 H   0  0  0  0  0  0  0  0  0  0  0  0
   35.4470   27.1520   40.3620 H   0  0  0  0  0  0  0  0  0  0  0  0
   34.3410   29.1570   40.7950 H   0  0  0  0  0  0  0  0  0  0  0  0
   35.1060   29.5200   39.1620 H   0  0  0  0  0  0  0  0  0  0  0  0
   35.4770   30.9350   41.6880 H   0  0  0  0  0  0  0  0  0  0  0  0
   37.4210   30.0980   42.6430 H   0  0  0  0  0  0  0  0  0  0  0  0
   38.0530   29.5590   41.0000 H   0  0  0  0  0  0  0  0  0  0  0  0
   38.5320   25.1350   42.3770 C   0  0  0  0  0  0  0  0  0  0  0  0
   37.5610   25.9920   41.8430 C   0  0  0  0  0  0  0  0  0  0  0  0
   37.5610   27.3000   42.3110 C   0  0  0  0  0  0  0  0  0  0  0  0
   38.4940   27.7200   43.2670 N   0  0  0  0  0  0  0  0  0  0  0  0
   39.4100   26.8390   43.7460 C   0  0  0  0  0  0  0  0  0  0  0  0
   39.4200   25.5550   43.2950 N   0  0  0  0  0  0  0  0  0  0  0  0
   38.5510   24.1120   42.0270 H   0  0  0  0  0  0  0  0  0  0  0  0
   36.8270   25.7020   41.1050 H   0  0  0  0  0  0  0  0  0  0  0  0
   40.0770   27.2720   44.4790 H   0  0  0  0  0  0  0  0  0  0  0  0
   38.8540   32.4080   39.3080 O   0  0  0  0  0  0  0  0  0  0  0  0
   41.0220   33.2770   40.4580 O   0  0  0  0  0  0  0  0  0  0  0  0
   39.6120   32.8220   40.7500 P   0  0  1  0  0  0  0  0  0  0  0  0
   38.7930   34.1440   41.4770 O   0  0  0  0  0  0  0  0  0  0  0  0
   38.1110   33.8420   42.1250 H   0  0  0  0  0  0  0  0  0  0  0  0
   39.6710   31.6100   41.8790 O   0  0  0  0  0  0  0  0  0  0  0  0
   41.7970   32.9050   43.1020 H   0  0  0  0  0  0  0  0  0  0  0  0
   41.8020   31.8680   43.0130 N   0  0  0  0  0  0  0  0  0  0  0  0
   40.8500   31.1130   42.4510 C   0  0  0  0  0  0  0  0  0  0  0  0
   41.2090   29.8080   42.5240 N   0  0  0  0  0  0  0  0  0  0  0  0
   42.3950   29.6970   43.1330 C   0  0  0  0  0  0  0  0  0  0  0  0
   43.2950   28.7160   43.5160 C   0  0  0  0  0  0  0  0  0  0  0  0
   43.0220   27.7050   43.2860 H   0  0  0  0  0  0  0  0  0  0  0  0
   44.4480   29.0180   44.1450 N   0  0  0  0  0  0  0  0  0  0  0  0
   44.7610   30.2970   44.4200 C   0  0  0  0  0  0  0  0  0  0  0  0
   45.7060   30.5170   44.9320 H   0  0  0  0  0  0  0  0  0  0  0  0
   43.9060   31.2780   44.0600 N   0  0  0  0  0  0  0  0  0  0  0  0
   42.7450   31.0140   43.4300 C   0  0  0  0  0  0  0  0  0  0  0  0
  1  4  1  1  0  0  0
  1 11  1  0  0  0  0
  2  3  1  0  0  0  0
  2  1  1  0  0  0  0
  3  7  1  1  0  0  0
  3  1  1  0  0  0  0
  5  2  1  0  0  0  0
  6  2  1  0  0  0  0
  8 23  1  0  0  0  0
  8 13  1  1  0  0  0
  9  8  1  0  0  0  0
 10  9  1  0  0  0  0
 10 16  1  0  0  0  0
 10 11  1  0  0  0  0
 11 12  1  0  0  0  0
 11 18  1  1  0  0  0
 12  8  1  0  0  0  0
 12 19  1  0  0  0  0
 14  9  1  0  0  0  0
 15  9  1  0  0  0  0
 17 10  1  0  0  0  0
 20 12  1  0  0  0  0
 21 26  1  0  0  0  0
 22 23  1  0  0  0  0
 22 21  2  0  0  0  0
 23 24  2  0  0  0  0
 24 25  1  0  0  0  0
 25 29  1  0  0  0  0
 26 25  2  0  0  0  0
 27 21  1  0  0  0  0
 28 22  1  0  0  0  0
 30  3  1  0  0  0  0
 30 32  1  0  0  0  0
 32 31  2  6  0  0  0
 32 33  1  0  0  0  0
 32 35  1  0  0  0  0
 33 34  1  0  0  0  0
 35 38  1  0  0  0  0
 37 36  1  0  0  0  0
 37 47  1  0  0  0  0
 38 39  2  0  0  0  0
 38 37  1  0  0  0  0
 39 40  1  0  0  0  0
 40 47  2  0  0  0  0
 40 41  1  0  0  0  0
 41 43  2  0  0  0  0
 42 41  1  0  0  0  0
 43 44  1  0  0  0  0
 44 45  1  0  0  0  0
 46 44  2  0  0  0  0
 47 46  1  0  0  0  0
M  END
>  <minimizedAffinity>
-6.37512875

$$$$

 OpenBabel03252507563D

 47 51  0  0  1  0  0  0  0  0999 V2000
   36.5480   27.7050   41.3040 C   0  0  2  0  0  0  0  0  0  0  0  0
   36.8630   27.0090   40.0610 C   0  0  0  0  0  0  0  0  0  0  0  0
   37.3800   28.3850   40.3100 C   0  0  1  0  0  0  0  0  0  0  0  0
   35.5240   28.0920   41.4410 H   0  0  0  0  0  0  0  0  0  0  0  0
   36.0420   26.8660   39.3010 H   0  0  0  0  0  0  0  0  0  0  0  0
   37.5330   26.1300   40.0850 H   0  0  0  0  0  0  0  0  0  0  0  0
   38.4520   28.5410   40.5330 H   0  0  0  0  0  0  0  0  0  0  0  0
   39.2390   26.7630   43.5070 C   0  0  2  0  0  0  0  0  0  0  0  0
   39.0440   25.6280   42.4990 C   0  0  0  0  0  0  0  0  0  0  0  0
   37.5000   25.6590   42.4530 C   0  0  0  0  0  0  0  0  0  0  0  0
   37.1410   27.1070   42.5590 C   0  0  1  0  0  0  0  0  0  0  0  0
   38.4280   27.8320   42.8280 C   0  0  0  0  0  0  0  0  0  0  0  0
   38.8140   26.4030   44.4550 H   0  0  0  0  0  0  0  0  0  0  0  0
   39.4030   25.9220   41.5090 H   0  0  0  0  0  0  0  0  0  0  0  0
   39.4090   24.6690   42.8840 H   0  0  0  0  0  0  0  0  0  0  0  0
   37.1900   25.1520   43.4080 H   0  0  0  0  0  0  0  0  0  0  0  0
   37.1260   25.1420   41.5700 H   0  0  0  0  0  0  0  0  0  0  0  0
   36.4440   27.3180   43.3920 H   0  0  0  0  0  0  0  0  0  0  0  0
   38.3130   28.6900   43.5240 H   0  0  0  0  0  0  0  0  0  0  0  0
   38.9210   28.0980   41.8900 H   0  0  0  0  0  0  0  0  0  0  0  0
   42.8900   26.8370   44.4290 C   0  0  0  0  0  0  0  0  0  0  0  0
   41.5770   26.3540   44.3440 C   0  0  0  0  0  0  0  0  0  0  0  0
   40.6690   27.1420   43.6490 C   0  0  0  0  0  0  0  0  0  0  0  0
   41.0650   28.3540   43.0690 N   0  0  0  0  0  0  0  0  0  0  0  0
   42.3530   28.7660   43.1890 C   0  0  0  0  0  0  0  0  0  0  0  0
   43.2530   28.0040   43.8680 N   0  0  0  0  0  0  0  0  0  0  0  0
   43.6140   26.2410   44.9660 H   0  0  0  0  0  0  0  0  0  0  0  0
   41.2370   25.4250   44.7790 H   0  0  0  0  0  0  0  0  0  0  0  0
   42.5450   29.7140   42.7040 H   0  0  0  0  0  0  0  0  0  0  0  0
   36.7870   29.4460   39.5850 O   0  0  0  0  0  0  0  0  0  0  0  0
   36.9470   32.0450   39.5740 O   0  0  0  0  0  0  0  0  0  0  0  0
   36.9240   30.8500   40.4980 P   0  0  1  0  0  0  0  0  0  0  0  0
   35.5490   31.0190   41.5110 O   0  0  0  0  0  0  0  0  0  0  0  0
   35.7020   30.6300   42.4060 H   0  0  0  0  0  0  0  0  0  0  0  0
   38.2590   30.9160   41.4800 O   0  0  0  0  0  0  0  0  0  0  0  0
   38.9280   33.6050   41.3720 H   0  0  0  0  0  0  0  0  0  0  0  0
   39.6390   32.8830   41.1380 N   0  0  0  0  0  0  0  0  0  0  0  0
   39.4590   31.5560   41.1470 C   0  0  0  0  0  0  0  0  0  0  0  0
   40.6130   30.9430   40.7850 N   0  0  0  0  0  0  0  0  0  0  0  0
   41.5550   31.8590   40.5370 C   0  0  0  0  0  0  0  0  0  0  0  0
   42.8830   31.9270   40.1460 C   0  0  0  0  0  0  0  0  0  0  0  0
   43.3740   30.9910   39.9700 H   0  0  0  0  0  0  0  0  0  0  0  0
   43.5200   33.1050   39.9980 N   0  0  0  0  0  0  0  0  0  0  0  0
   42.8750   34.2630   40.2280 C   0  0  0  0  0  0  0  0  0  0  0  0
   43.4150   35.2090   40.1000 H   0  0  0  0  0  0  0  0  0  0  0  0
   41.5800   34.2330   40.6100 N   0  0  0  0  0  0  0  0  0  0  0  0
   40.9110   33.0750   40.7680 C   0  0  0  0  0  0  0  0  0  0  0  0
  1  4  1  1  0  0  0
  1 11  1  0  0  0  0
  2  6  1  0  0  0  0
  2  3  1  0  0  0  0
  2  1  1  0  0  0  0
  3  7  1  1  0  0  0
  3  1  1  0  0  0  0
  5  2  1  0  0  0  0
  8 23  1  0  0  0  0
  8 13  1  1  0  0  0
  9 15  1  0  0  0  0
  9  8  1  0  0  0  0
 10  9  1  0  0  0  0
 10 11  1  0  0  0  0
 10 16  1  0  0  0  0
 11 12  1  0  0  0  0
 11 18  1  1  0  0  0
 12  8  1  0  0  0  0
 12 19  1  0  0  0  0
 14  9  1  0  0  0  0
 17 10  1  0  0  0  0
 20 12  1  0  0  0  0
 21 27  1  0  0  0  0
 22 21  1  0  0  0  0
 22 28  1  0  0  0  0
 23 22  2  0  0  0  0
 24 25  2  0  0  0  0
 24 23  1  0  0  0  0
 25 26  1  0  0  0  0
 26 21  2  0  0  0  0
 29 25  1  0  0  0  0
 30  3  1  0  0  0  0
 30 32  1  0  0  0  0
 32 31  2  6  0  0  0
 32 35  1  0  0  0  0
 32 33  1  0  0  0  0
 33 34  1  0  0  0  0
 37 38  1  0  0  0  0
 37 36  1  0  0  0  0
 38 35  1  0  0  0  0
 39 38  2  0  0  0  0
 40 47  1  0  0  0  0
 40 39  1  0  0  0  0
 41 40  2  0  0  0  0
 42 41  1  0  0  0  0
 43 41  1  0  0  0  0
 43 44  2  0  0  0  0
 44 46  1  0  0  0  0
 45 44  1  0  0  0  0
 46 47  2  0  0  0  0
 47 37  1  0  0  0  0
M  END
>  <minimizedAffinity>
-6.33810472

$$$$

 OpenBabel03252507563D

 47 51  0  0  1  0  0  0  0  0999 V2000
   36.0430   29.2020   38.5690 C   0  0  2  0  0  0  0  0  0  0  0  0
   37.1220   29.0540   37.5970 C   0  0  0  0  0  0  0  0  0  0  0  0
   37.2430   30.0280   38.7190 C   0  0  1  0  0  0  0  0  0  0  0  0
   35.1220   29.7200   38.2520 H   0  0  0  0  0  0  0  0  0  0  0  0
   36.9620   29.4460   36.5510 H   0  0  0  0  0  0  0  0  0  0  0  0
   37.7130   28.1200   37.5800 H   0  0  0  0  0  0  0  0  0  0  0  0
   37.9290   29.8190   39.5620 H   0  0  0  0  0  0  0  0  0  0  0  0
   36.9450   26.6930   40.9930 C   0  0  2  0  0  0  0  0  0  0  0  0
   37.3480   26.1720   39.6120 C   0  0  0  0  0  0  0  0  0  0  0  0
   36.1170   26.6850   38.8320 C   0  0  0  0  0  0  0  0  0  0  0  0
   35.7900   28.0040   39.4550 C   0  0  1  0  0  0  0  0  0  0  0  0
   36.6950   28.1340   40.6440 C   0  0  0  0  0  0  0  0  0  0  0  0
   36.0430   26.1320   41.2770 H   0  0  0  0  0  0  0  0  0  0  0  0
   38.2200   26.7130   39.2330 H   0  0  0  0  0  0  0  0  0  0  0  0
   37.4060   25.0770   39.5860 H   0  0  0  0  0  0  0  0  0  0  0  0
   35.3020   25.9580   39.1040 H   0  0  0  0  0  0  0  0  0  0  0  0
   36.3150   26.7020   37.7610 H   0  0  0  0  0  0  0  0  0  0  0  0
   34.7430   28.0660   39.8080 H   0  0  0  0  0  0  0  0  0  0  0  0
   36.2150   28.6340   41.5120 H   0  0  0  0  0  0  0  0  0  0  0  0
   37.6460   28.5900   40.3540 H   0  0  0  0  0  0  0  0  0  0  0  0
   39.6000   27.3270   43.5870 C   0  0  0  0  0  0  0  0  0  0  0  0
   38.5550   27.6080   42.6960 C   0  0  0  0  0  0  0  0  0  0  0  0
   38.0350   26.5320   41.9900 C   0  0  0  0  0  0  0  0  0  0  0  0
   38.5420   25.2390   42.1730 N   0  0  0  0  0  0  0  0  0  0  0  0
   39.5560   25.0330   43.0510 C   0  0  0  0  0  0  0  0  0  0  0  0
   40.0750   26.0800   43.7500 N   0  0  0  0  0  0  0  0  0  0  0  0
   40.0220   28.1490   44.1480 H   0  0  0  0  0  0  0  0  0  0  0  0
   38.1400   28.5910   42.5300 H   0  0  0  0  0  0  0  0  0  0  0  0
   39.8670   23.9990   43.1110 H   0  0  0  0  0  0  0  0  0  0  0  0
   37.1270   31.4030   38.4050 O   0  0  0  0  0  0  0  0  0  0  0  0
   36.9540   33.7350   39.5500 O   0  0  0  0  0  0  0  0  0  0  0  0
   37.2560   32.2830   39.8310 P   0  0  1  0  0  0  0  0  0  0  0  0
   36.0860   31.7310   40.9600 O   0  0  0  0  0  0  0  0  0  0  0  0
   36.4530   31.0380   41.5600 H   0  0  0  0  0  0  0  0  0  0  0  0
   38.7320   32.1850   40.5790 O   0  0  0  0  0  0  0  0  0  0  0  0
   39.3300   33.1490   38.0480 H   0  0  0  0  0  0  0  0  0  0  0  0
   40.0770   33.0840   38.7690 N   0  0  0  0  0  0  0  0  0  0  0  0
   39.9360   32.6410   40.0240 C   0  0  0  0  0  0  0  0  0  0  0  0
   41.1300   32.7050   40.6610 N   0  0  0  0  0  0  0  0  0  0  0  0
   42.0620   33.1880   39.8320 C   0  0  0  0  0  0  0  0  0  0  0  0
   43.4130   33.4960   39.8290 C   0  0  0  0  0  0  0  0  0  0  0  0
   43.9420   33.3180   40.7440 H   0  0  0  0  0  0  0  0  0  0  0  0
   44.0240   33.9940   38.7360 N   0  0  0  0  0  0  0  0  0  0  0  0
   43.3310   34.2070   37.6040 C   0  0  0  0  0  0  0  0  0  0  0  0
   43.8510   34.6120   36.7270 H   0  0  0  0  0  0  0  0  0  0  0  0
   42.0120   33.9160   37.5720 N   0  0  0  0  0  0  0  0  0  0  0  0
   41.3670   33.4180   38.6440 C   0  0  0  0  0  0  0  0  0  0  0  0
  1  4  1  6  0  0  0
  1  3  1  0  0  0  0
  1 11  1  0  0  0  0
  2  1  1  0  0  0  0
  2  3  1  0  0  0  0
  3  7  1  1  0  0  0
  5  2  1  0  0  0  0
  6  2  1  0  0  0  0
  8 13  1  1  0  0  0
  8 23  1  0  0  0  0
  9  8  1  0  0  0  0
 10 16  1  0  0  0  0
 10 11  1  0  0  0  0
 10  9  1  0  0  0  0
 11 18  1  1  0  0  0
 11 12  1  0  0  0  0
 12  8  1  0  0  0  0
 12 19  1  0  0  0  0
 14  9  1  0  0  0  0
 15  9  1  0  0  0  0
 17 10  1  0  0  0  0
 20 12  1  0  0  0  0
 21 26  1  0  0  0  0
 21 27  1  0  0  0  0
 22 21  2  0  0  0  0
 23 24  2  0  0  0  0
 23 22  1  0  0  0  0
 24 25  1  0  0  0  0
 25 29  1  0  0  0  0
 25 26  2  0  0  0  0
 28 22  1  0  0  0  0
 30  3  1  0  0  0  0
 30 32  1  0  0  0  0
 32 31  2  6  0  0  0
 32 35  1  0  0  0  0
 32 33  1  0  0  0  0
 33 34  1  0  0  0  0
 36 37  1  0  0  0  0
 37 38  1  0  0  0  0
 38 35  1  0  0  0  0
 38 39  2  0  0  0  0
 40 39  1  0  0  0  0
 41 40  1  0  0  0  0
 41 42  1  0  0  0  0
 43 41  2  0  0  0  0
 44 43  1  0  0  0  0
 45 44  1  0  0  0  0
 46 44  2  0  0  0  0
 46 47  1  0  0  0  0
 47 37  1  0  0  0  0
 47 40  2  0  0  0  0
M  END
>  <minimizedAffinity>
-6.17053413

$$$$

 OpenBabel03252507563D

 47 51  0  0  1  0  0  0  0  0999 V2000
   37.0840   29.8950   41.9920 C   0  0  2  0  0  0  0  0  0  0  0  0
   36.2930   29.6960   40.7820 C   0  0  0  0  0  0  0  0  0  0  0  0
   37.4930   30.5810   40.7650 C   0  0  1  0  0  0  0  0  0  0  0  0
   36.6630   30.5240   42.7940 H   0  0  0  0  0  0  0  0  0  0  0  0
   35.2690   30.1660   40.7250 H   0  0  0  0  0  0  0  0  0  0  0  0
   36.2990   28.7080   40.2850 H   0  0  0  0  0  0  0  0  0  0  0  0
   38.4170   30.2500   40.2550 H   0  0  0  0  0  0  0  0  0  0  0  0
   37.8040   26.3700   42.1960 C   0  0  2  0  0  0  0  0  0  0  0  0
   36.6680   26.6700   43.1760 C   0  0  0  0  0  0  0  0  0  0  0  0
   37.1990   28.0250   43.6960 C   0  0  0  0  0  0  0  0  0  0  0  0
   37.8200   28.6770   42.5020 C   0  0  1  0  0  0  0  0  0  0  0  0
   37.7890   27.6510   41.4080 C   0  0  0  0  0  0  0  0  0  0  0  0
   38.7040   26.2260   42.8100 H   0  0  0  0  0  0  0  0  0  0  0  0
   35.7360   26.8720   42.6410 H   0  0  0  0  0  0  0  0  0  0  0  0
   36.6150   25.9300   43.9840 H   0  0  0  0  0  0  0  0  0  0  0  0
   38.0240   27.7390   44.4060 H   0  0  0  0  0  0  0  0  0  0  0  0
   36.4080   28.5910   44.1870 H   0  0  0  0  0  0  0  0  0  0  0  0
   38.8740   28.9710   42.6710 H   0  0  0  0  0  0  0  0  0  0  0  0
   38.6840   27.6780   40.7520 H   0  0  0  0  0  0  0  0  0  0  0  0
   36.8460   27.7070   40.8570 H   0  0  0  0  0  0  0  0  0  0  0  0
   37.7510   22.9100   40.7110 C   0  0  0  0  0  0  0  0  0  0  0  0
   38.0860   23.9420   41.5980 C   0  0  0  0  0  0  0  0  0  0  0  0
   37.5120   25.1820   41.3520 C   0  0  0  0  0  0  0  0  0  0  0  0
   36.6440   25.3710   40.2690 N   0  0  0  0  0  0  0  0  0  0  0  0
   36.3600   24.3290   39.4460 C   0  0  0  0  0  0  0  0  0  0  0  0
   36.9160   23.1080   39.6760 N   0  0  0  0  0  0  0  0  0  0  0  0
   38.1860   21.9350   40.8820 H   0  0  0  0  0  0  0  0  0  0  0  0
   38.7510   23.8320   42.4420 H   0  0  0  0  0  0  0  0  0  0  0  0
   35.6810   24.5900   38.6450 H   0  0  0  0  0  0  0  0  0  0  0  0
   37.2720   31.9770   40.6990 O   0  0  0  0  0  0  0  0  0  0  0  0
   38.9540   33.0980   39.0560 O   0  0  0  0  0  0  0  0  0  0  0  0
   38.7590   32.7380   40.5100 P   0  0  1  0  0  0  0  0  0  0  0  0
   38.7780   34.2040   41.4020 O   0  0  0  0  0  0  0  0  0  0  0  0
   39.1540   34.0780   42.3070 H   0  0  0  0  0  0  0  0  0  0  0  0
   40.0650   31.8480   41.0130 O   0  0  0  0  0  0  0  0  0  0  0  0
   41.8910   31.0340   42.9360 H   0  0  0  0  0  0  0  0  0  0  0  0
   42.0780   31.8860   42.3690 N   0  0  0  0  0  0  0  0  0  0  0  0
   41.2920   32.3940   41.4120 C   0  0  0  0  0  0  0  0  0  0  0  0
   41.8700   33.5090   40.9000 N   0  0  0  0  0  0  0  0  0  0  0  0
   43.0350   33.7390   41.5140 C   0  0  0  0  0  0  0  0  0  0  0  0
   44.0780   34.6510   41.4880 C   0  0  0  0  0  0  0  0  0  0  0  0
   43.9940   35.4490   40.7780 H   0  0  0  0  0  0  0  0  0  0  0  0
   45.1400   34.5380   42.3110 N   0  0  0  0  0  0  0  0  0  0  0  0
   45.2160   33.5240   43.1910 C   0  0  0  0  0  0  0  0  0  0  0  0
   46.0900   33.4540   43.8500 H   0  0  0  0  0  0  0  0  0  0  0  0
   44.2160   32.6180   43.2430 N   0  0  0  0  0  0  0  0  0  0  0  0
   43.1400   32.6980   42.4370 C   0  0  0  0  0  0  0  0  0  0  0  0
  1 11  1  0  0  0  0
  1  4  1  1  0  0  0
  2  1  1  0  0  0  0
  3  7  1  6  0  0  0
  3  2  1  0  0  0  0
  3  1  1  0  0  0  0
  5  2  1  0  0  0  0
  6  2  1  0  0  0  0
  8 13  1  1  0  0  0
  8  9  1  0  0  0  0
  9 10  1  0  0  0  0
  9 15  1  0  0  0  0
 10 17  1  0  0  0  0
 10 16  1  0  0  0  0
 11 18  1  1  0  0  0
 11 10  1  0  0  0  0
 12  8  1  0  0  0  0
 12 11  1  0  0  0  0
 14  9  1  0  0  0  0
 19 12  1  0  0  0  0
 20 12  1  0  0  0  0
 21 27  1  0  0  0  0
 21 22  1  0  0  0  0
 22 28  1  0  0  0  0
 23 22  2  0  0  0  0
 23  8  1  0  0  0  0
 24 23  1  0  0  0  0
 25 26  1  0  0  0  0
 25 24  2  0  0  0  0
 26 21  2  0  0  0  0
 29 25  1  0  0  0  0
 30  3  1  0  0  0  0
 32 31  2  6  0  0  0
 32 30  1  0  0  0  0
 32 35  1  0  0  0  0
 32 33  1  0  0  0  0
 33 34  1  0  0  0  0
 35 38  1  0  0  0  0
 37 47  1  0  0  0  0
 37 36  1  0  0  0  0
 38 37  1  0  0  0  0
 39 38  2  0  0  0  0
 39 40  1  0  0  0  0
 40 47  1  0  0  0  0
 41 40  2  0  0  0  0
 41 43  1  0  0  0  0
 42 41  1  0  0  0  0
 43 44  2  0  0  0  0
 44 46  1  0  0  0  0
 44 45  1  0  0  0  0
 47 46  2  0  0  0  0
M  END
>  <minimizedAffinity>
-6.16558456

$$$$

 OpenBabel03252507563D

 47 51  0  0  1  0  0  0  0  0999 V2000
   36.8400   31.5400   40.2790 C   0  0  2  0  0  0  0  0  0  0  0  0
   36.9680   31.2800   38.8490 C   0  0  0  0  0  0  0  0  0  0  0  0
   38.1790   31.3620   39.7150 C   0  0  1  0  0  0  0  0  0  0  0  0
   36.5710   32.5600   40.6030 H   0  0  0  0  0  0  0  0  0  0  0  0
   36.7570   32.1220   38.1280 H   0  0  0  0  0  0  0  0  0  0  0  0
   36.6190   30.3150   38.4390 H   0  0  0  0  0  0  0  0  0  0  0  0
   38.7430   30.4440   39.9660 H   0  0  0  0  0  0  0  0  0  0  0  0
   36.6820   28.3580   41.9620 C   0  0  2  0  0  0  0  0  0  0  0  0
   36.3390   28.1230   40.4900 C   0  0  0  0  0  0  0  0  0  0  0  0
   35.4920   29.3970   40.2720 C   0  0  0  0  0  0  0  0  0  0  0  0
   36.1690   30.4530   41.0860 C   0  0  1  0  0  0  0  0  0  0  0  0
   37.2450   29.7490   41.8600 C   0  0  0  0  0  0  0  0  0  0  0  0
   35.7320   28.2920   42.5090 H   0  0  0  0  0  0  0  0  0  0  0  0
   37.2300   28.2160   39.8630 H   0  0  0  0  0  0  0  0  0  0  0  0
   35.7360   27.2180   40.3470 H   0  0  0  0  0  0  0  0  0  0  0  0
   34.5080   29.1560   40.7610 H   0  0  0  0  0  0  0  0  0  0  0  0
   35.3830   29.6150   39.2100 H   0  0  0  0  0  0  0  0  0  0  0  0
   35.4880   30.9440   41.8070 H   0  0  0  0  0  0  0  0  0  0  0  0
   37.3870   30.1530   42.8850 H   0  0  0  0  0  0  0  0  0  0  0  0
   38.1700   29.7070   41.2800 H   0  0  0  0  0  0  0  0  0  0  0  0
   39.5290   26.7070   43.7920 C   0  0  0  0  0  0  0  0  0  0  0  0
   38.6260   27.7130   43.4240 C   0  0  0  0  0  0  0  0  0  0  0  0
   37.6810   27.3780   42.4640 C   0  0  0  0  0  0  0  0  0  0  0  0
   37.6490   26.0950   41.9030 N   0  0  0  0  0  0  0  0  0  0  0  0
   38.5540   25.1650   42.3030 C   0  0  0  0  0  0  0  0  0  0  0  0
   39.4850   25.4800   43.2440 N   0  0  0  0  0  0  0  0  0  0  0  0
   40.2750   26.9450   44.5390 H   0  0  0  0  0  0  0  0  0  0  0  0
   38.6210   28.7130   43.8350 H   0  0  0  0  0  0  0  0  0  0  0  0
   38.4360   24.2120   41.8050 H   0  0  0  0  0  0  0  0  0  0  0  0
   38.9910   32.5160   39.5940 O   0  0  0  0  0  0  0  0  0  0  0  0
   41.1430   33.6010   40.5790 O   0  0  0  0  0  0  0  0  0  0  0  0
   40.3100   32.3410   40.6210 P   0  0  1  0  0  0  0  0  0  0  0  0
   39.7650   32.1470   42.2370 O   0  0  0  0  0  0  0  0  0  0  0  0
   39.6720   31.1940   42.4800 H   0  0  0  0  0  0  0  0  0  0  0  0
   41.2910   31.0490   40.2810 O   0  0  0  0  0  0  0  0  0  0  0  0
   40.7240   29.7180   37.9150 H   0  0  0  0  0  0  0  0  0  0  0  0
   41.6280   30.2210   38.0250 N   0  0  0  0  0  0  0  0  0  0  0  0
   42.0340   30.9030   39.1030 C   0  0  0  0  0  0  0  0  0  0  0  0
   43.2660   31.4200   38.8710 N   0  0  0  0  0  0  0  0  0  0  0  0
   43.6760   31.0840   37.6430 C   0  0  0  0  0  0  0  0  0  0  0  0
   44.7680   31.2650   36.8100 C   0  0  0  0  0  0  0  0  0  0  0  0
   45.5760   31.8470   37.2070 H   0  0  0  0  0  0  0  0  0  0  0  0
   44.8090   30.7390   35.5700 N   0  0  0  0  0  0  0  0  0  0  0  0
   43.7780   30.0130   35.1020 C   0  0  0  0  0  0  0  0  0  0  0  0
   43.8360   29.5950   34.0900 H   0  0  0  0  0  0  0  0  0  0  0  0
   42.6980   29.8170   35.8890 N   0  0  0  0  0  0  0  0  0  0  0  0
   42.6210   30.3270   37.1330 C   0  0  0  0  0  0  0  0  0  0  0  0
  1  4  1  1  0  0  0
  1 11  1  0  0  0  0
  2  3  1  0  0  0  0
  2  1  1  0  0  0  0
  3  7  1  1  0  0  0
  3  1  1  0  0  0  0
  5  2  1  0  0  0  0
  6  2  1  0  0  0  0
  8 23  1  0  0  0  0
  8 13  1  1  0  0  0
  9  8  1  0  0  0  0
 10  9  1  0  0  0  0
 10 16  1  0  0  0  0
 10 11  1  0  0  0  0
 11 18  1  1  0  0  0
 11 12  1  0  0  0  0
 12  8  1  0  0  0  0
 12 19  1  0  0  0  0
 14  9  1  0  0  0  0
 15  9  1  0  0  0  0
 17 10  1  0  0  0  0
 20 12  1  0  0  0  0
 21 27  1  0  0  0  0
 22 21  1  0  0  0  0
 22 28  1  0  0  0  0
 23 22  2  0  0  0  0
 24 25  2  0  0  0  0
 24 23  1  0  0  0  0
 25 26  1  0  0  0  0
 26 21  2  0  0  0  0
 29 25  1  0  0  0  0
 30  3  1  0  0  0  0
 30 32  1  0  0  0  0
 32 31  2  6  0  0  0
 32 33  1  0  0  0  0
 33 34  1  0  0  0  0
 35 32  1  0  0  0  0
 36 37  1  0  0  0  0
 37 38  1  0  0  0  0
 38 35  1  0  0  0  0
 39 38  2  0  0  0  0
 40 39  1  0  0  0  0
 41 42  1  0  0  0  0
 41 40  2  0  0  0  0
 43 41  1  0  0  0  0
 44 43  2  0  0  0  0
 44 46  1  0  0  0  0
 45 44  1  0  0  0  0
 46 47  2  0  0  0  0
 47 40  1  0  0  0  0
 47 37  1  0  0  0  0
M  END
>  <minimizedAffinity>
-6.02966118

$$$$
