
     RDKit          3D

 36 39  0  0  0  0  0  0  0  0999 V2000
   44.4855   35.7417   44.9931 C   0  0  0  0  0  0  0  0  0  0  0  0
   45.1246   35.7135   43.7468 C   0  0  0  0  0  0  0  0  0  0  0  0
   46.0174   34.7230   43.4879 C   0  0  0  0  0  0  0  0  0  0  0  0
   46.2262   33.8169   44.4789 N   0  0  0  0  0  0  0  0  0  0  0  0
   45.6221   33.8456   45.6547 C   0  0  0  0  0  0  0  0  0  0  0  0
   44.7320   34.8106   45.9479 N   0  0  0  0  0  0  0  0  0  0  0  0
   45.9366   32.8438   46.5990 N   0  0  0  0  0  0  0  0  0  0  0  0
   45.1608   32.5585   47.8142 C   0  0  0  0  0  0  0  0  0  0  0  0
   46.2599   32.2383   48.8064 C   0  0  0  0  0  0  0  0  0  0  0  0
   47.5332   32.0721   48.0320 C   0  0  0  0  0  0  0  0  0  0  0  0
   47.0319   31.9002   46.6194 C   0  0  1  0  0  0  0  0  0  0  0  0
   44.7725   36.7617   42.8349 N   0  0  0  0  0  0  0  0  0  0  0  0
   46.4793   30.1980   46.3959 S   0  0  0  0  0  0  0  0  0  0  0  0
   43.7611   36.5420   45.2074 H   0  0  0  0  0  0  0  0  0  0  0  0
   46.4897   34.7241   42.5336 H   0  0  0  0  0  0  0  0  0  0  0  0
   44.4626   31.7193   47.6704 H   0  0  0  0  0  0  0  0  0  0  0  0
   44.5737   33.4563   48.0772 H   0  0  0  0  0  0  0  0  0  0  0  0
   45.9937   31.2956   49.3534 H   0  0  0  0  0  0  0  0  0  0  0  0
   46.3421   33.1053   49.4950 H   0  0  0  0  0  0  0  0  0  0  0  0
   48.2155   32.9411   48.1295 H   0  0  0  0  0  0  0  0  0  0  0  0
   48.0798   31.1385   48.2975 H   0  0  0  0  0  0  0  0  0  0  0  0
   47.7716   32.2022   45.8609 H   0  0  0  0  0  0  0  0  0  0  0  0
   44.4061   37.6733   43.1855 H   0  0  0  0  0  0  0  0  0  0  0  0
   44.8846   36.6122   41.8002 H   0  0  0  0  0  0  0  0  0  0  0  0
   46.7927   28.0250   44.3485 H   0  0  0  0  0  0  0  0  0  0  0  0
   46.1514   28.8032   44.0903 N   0  0  0  0  0  0  0  0  0  0  0  0
   45.8064   29.9052   44.7765 C   0  0  0  0  0  0  0  0  0  0  0  0
   44.9323   30.6533   44.0430 N   0  0  0  0  0  0  0  0  0  0  0  0
   44.7333   29.9866   42.8648 C   0  0  0  0  0  0  0  0  0  0  0  0
   44.0125   30.1485   41.7159 C   0  0  0  0  0  0  0  0  0  0  0  0
   43.3982   31.0578   41.6632 H   0  0  0  0  0  0  0  0  0  0  0  0
   44.0386   29.2699   40.7071 N   0  0  0  0  0  0  0  0  0  0  0  0
   44.7841   28.1613   40.7636 C   0  0  0  0  0  0  0  0  0  0  0  0
   44.7191   27.5323   39.8873 H   0  0  0  0  0  0  0  0  0  0  0  0
   45.5118   27.9486   41.8642 N   0  0  0  0  0  0  0  0  0  0  0  0
   45.5042   28.8285   42.9091 C   0  0  0  0  0  0  0  0  0  0  0  0
  1  6  2  0
  2  1  1  0
  3  2  2  0
  3  4  1  0
  4  5  2  0
  5  6  1  0
  5  7  1  0
  7 11  1  0
  7  8  1  0
  8  9  1  0
 10  9  1  0
 11 10  1  0
 12  2  1  0
 13 11  1  0
  1 14  1  0
  3 15  1  0
  8 16  1  0
  8 17  1  0
  9 18  1  0
  9 19  1  0
 10 20  1  0
 10 21  1  0
 11 22  1  6
 12 23  1  0
 12 24  1  0
 25 26  1  0
 26 27  1  0
 27 28  2  0
 28 29  1  0
 29 30  2  0
 30 31  1  0
 30 32  1  0
 32 33  2  0
 33 34  1  0
 33 35  1  0
 35 36  2  0
 36 26  1  0
 36 29  1  0
 13 27  1  0
M  ISO  8  14  14  15  14  16  13  17  13  18  13  19  13  20  13  21  13
M  ISO  4  22  13  25   9  31  16  34  16
M  END
>  <DihAtoms>  (1) 
10,12,26,25

>  <DihDeg>  (1) 
90.14162354454461

$$$$
