
     RDKit          3D

 40 43  0  0  0  0  0  0  0  0999 V2000
   46.3180   34.9896   41.9213 C   0  0  0  0  0  0  0  0  0  0  0  0
   44.8543   34.9375   41.6994 C   0  0  0  0  0  0  0  0  0  0  0  0
   43.9740   35.4269   42.7034 C   0  0  0  0  0  0  0  0  0  0  0  0
   42.3134   35.1528   41.9765 S   0  0  0  0  0  0  0  0  0  0  0  0
   43.1051   34.4084   40.4082 C   0  0  0  0  0  0  0  0  0  0  0  0
   44.2153   34.4822   40.6544 N   0  0  0  0  0  0  0  0  0  0  0  0
   42.3539   33.9458   39.3389 O   0  0  0  0  0  0  0  0  0  0  0  0
   40.3999   34.3912   37.6050 O   0  0  0  0  0  0  0  0  0  0  0  0
   41.4874   35.0706   38.4178 P   0  0  0  0  0  0  0  0  0  0  0  0
   40.7674   36.1685   39.4911 O   0  0  0  0  0  0  0  0  0  0  0  0
   42.5659   35.9300   37.4173 O   0  0  0  0  0  0  0  0  0  0  0  0
   47.1303   34.3383   40.8291 C   0  0  0  0  0  0  0  0  0  0  0  0
   48.4651   33.9268   41.2883 C   0  0  0  0  0  0  0  0  0  0  0  0
   48.9355   32.7213   40.8036 C   0  0  0  0  0  0  0  0  0  0  0  0
   50.1781   32.2051   41.1510 C   0  0  0  0  0  0  0  0  0  0  0  0
   50.9184   32.9847   42.0202 N   0  0  0  0  0  0  0  0  0  0  0  0
   50.4336   34.1545   42.4749 C   0  0  0  0  0  0  0  0  0  0  0  0
   49.2357   34.6070   42.1131 N   0  0  0  0  0  0  0  0  0  0  0  0
   47.9288   31.7477   39.6442 S   0  0  0  0  0  0  0  0  0  0  0  0
   46.5971   36.0636   41.9488 H   0  0  0  0  0  0  0  0  0  0  0  0
   46.6039   34.6017   42.9381 H   0  0  0  0  0  0  0  0  0  0  0  0
   44.2346   35.8558   43.6622 H   0  0  0  0  0  0  0  0  0  0  0  0
   40.4097   35.6294   40.2434 H   0  0  0  0  0  0  0  0  0  0  0  0
   42.8536   35.3281   36.6665 H   0  0  0  0  0  0  0  0  0  0  0  0
   47.1606   35.0449   39.9576 H   0  0  0  0  0  0  0  0  0  0  0  0
   46.5212   33.4762   40.4870 H   0  0  0  0  0  0  0  0  0  0  0  0
   50.4964   31.2676   40.7493 H   0  0  0  0  0  0  0  0  0  0  0  0
   51.1135   34.6661   43.1484 H   0  0  0  0  0  0  0  0  0  0  0  0
   47.3556   28.7952   38.7909 H   0  0  0  0  0  0  0  0  0  0  0  0
   48.3664   29.0486   38.8446 N   0  0  0  0  0  0  0  0  0  0  0  0
   48.8191   30.2673   39.1924 C   0  0  0  0  0  0  0  0  0  0  0  0
   50.1635   30.2764   39.1677 N   0  0  0  0  0  0  0  0  0  0  0  0
   50.6168   29.0625   38.8029 C   0  0  0  0  0  0  0  0  0  0  0  0
   51.8654   28.5014   38.6131 C   0  0  0  0  0  0  0  0  0  0  0  0
   52.7114   29.1803   38.7947 H   0  0  0  0  0  0  0  0  0  0  0  0
   51.9825   27.2011   38.2298 N   0  0  0  0  0  0  0  0  0  0  0  0
   50.8381   26.4982   38.0472 C   0  0  0  0  0  0  0  0  0  0  0  0
   51.0241   25.4659   37.7409 H   0  0  0  0  0  0  0  0  0  0  0  0
   49.5874   27.0064   38.2215 N   0  0  0  0  0  0  0  0  0  0  0  0
   49.4708   28.3085   38.6053 C   0  0  0  0  0  0  0  0  0  0  0  0
  2  1  1  0
  2  3  2  0
  4  3  1  0
  5  6  2  0
  5  4  1  0
  6  2  1  0
  7  5  1  0
  8  9  2  0
  9  7  1  0
  9 10  1  0
 11  9  1  0
 12 13  1  0
 12  1  1  0
 13 18  2  0
 14 15  2  0
 14 13  1  0
 15 16  1  0
 16 17  2  0
 18 17  1  0
 19 14  1  0
  1 20  1  0
  1 21  1  0
  3 22  1  0
 10 23  1  0
 11 24  1  0
 12 25  1  0
 12 26  1  0
 15 27  1  0
 17 28  1  0
 29 30  1  0
 30 31  1  0
 31 32  2  0
 32 33  1  0
 33 34  2  0
 34 35  1  0
 34 36  1  0
 36 37  2  0
 37 38  1  0
 37 39  1  0
 39 40  2  0
 40 30  1  0
 40 33  1  0
 19 31  1  0
M  ISO  8  20   8  21   8  22  14  23   3  24   3  25   8  26   8  27  14
M  ISO  4  28  14  29   9  35  16  38  16
M  END
>  <DihAtoms>  (1) 
13,18,30,29

>  <DihDeg>  (1) 
-90.00113055935671

$$$$
