
 OpenBabel03252505093D

 46 50  0  0  1  0  0  0  0  0999 V2000
   38.2940   34.9470   40.1010 C   0  0  0  0  0  0  0  0  0  0  0  0
   37.6630   33.7160   39.8130 C   0  0  0  0  0  0  0  0  0  0  0  0
   38.5060   32.6310   39.4210 C   0  0  0  0  0  0  0  0  0  0  0  0
   39.8420   32.8160   39.3410 N   0  0  0  0  0  0  0  0  0  0  0  0
   40.3960   34.0180   39.6290 C   0  0  0  0  0  0  0  0  0  0  0  0
   39.6280   35.0860   40.0090 N   0  0  0  0  0  0  0  0  0  0  0  0
   37.6300   35.7430   40.3940 H   0  0  0  0  0  0  0  0  0  0  0  0
   36.6160   33.5370   39.8660 H   0  0  0  0  0  0  0  0  0  0  0  0
   37.8810   31.3400   39.1190 C   0  0  0  0  0  0  0  0  0  0  0  0
   37.3080   31.1750   37.8990 C   0  0  0  0  0  0  0  0  0  0  0  0
   36.7220   29.9330   37.6580 C   0  0  0  0  0  0  0  0  0  0  0  0
   36.7790   28.9990   38.6690 C   0  0  0  0  0  0  0  0  0  0  0  0
   37.3580   29.1710   39.8930 C   0  0  0  0  0  0  0  0  0  0  0  0
   37.9230   30.4080   40.0920 N   0  0  0  0  0  0  0  0  0  0  0  0
   37.3070   31.9630   37.1620 H   0  0  0  0  0  0  0  0  0  0  0  0
   36.2460   29.7360   36.7000 H   0  0  0  0  0  0  0  0  0  0  0  0
   36.3270   28.0280   38.4930 H   0  0  0  0  0  0  0  0  0  0  0  0
   37.3880   28.1680   40.9030 N   0  0  0  0  0  0  0  0  0  0  0  0
   37.7300   28.3620   42.1940 C   0  0  0  0  0  0  0  0  0  0  0  0
   38.0310   29.2890   42.6700 H   0  0  0  0  0  0  0  0  0  0  0  0
   37.6540   27.2230   42.8740 N   0  0  0  0  0  0  0  0  0  0  0  0
   37.2580   26.2330   42.0500 C   0  0  0  0  0  0  0  0  0  0  0  0
   36.9980   24.8700   42.1360 C   0  0  0  0  0  0  0  0  0  0  0  0
   37.1390   24.4460   43.1160 H   0  0  0  0  0  0  0  0  0  0  0  0
   36.6020   24.1890   41.0400 N   0  0  0  0  0  0  0  0  0  0  0  0
   36.4520   24.8020   39.8660 C   0  0  0  0  0  0  0  0  0  0  0  0
   36.1340   24.2280   39.0060 H   0  0  0  0  0  0  0  0  0  0  0  0
   36.6990   26.1310   39.7510 N   0  0  0  0  0  0  0  0  0  0  0  0
   37.0990   26.8660   40.8140 C   0  0  0  0  0  0  0  0  0  0  0  0
   41.8690   34.1670   39.5200 C   0  0  2  0  0  0  0  0  0  0  0  0
   42.1740   34.2140   38.0480 C   0  0  0  0  0  0  0  0  0  0  0  0
   42.7520   32.9950   37.4580 C   0  0  0  0  0  0  0  0  0  0  0  0
   43.9950   32.6930   38.2840 C   0  0  0  0  0  0  0  0  0  0  0  0
   43.6790   32.3420   39.6670 C   0  0  0  0  0  0  0  0  0  0  0  0
   42.5640   33.1390   40.2630 C   0  0  0  0  0  0  0  0  0  0  0  0
   42.0930   35.1620   39.9760 H   0  0  0  0  0  0  0  0  0  0  0  0
   42.8800   35.0520   37.8750 H   0  0  0  0  0  0  0  0  0  0  0  0
   41.2710   34.4910   37.4370 H   0  0  0  0  0  0  0  0  0  0  0  0
   43.1210   33.2340   36.4500 H   0  0  0  0  0  0  0  0  0  0  0  0
   42.0320   32.1690   37.4850 H   0  0  0  0  0  0  0  0  0  0  0  0
   44.6810   33.5460   38.1880 H   0  0  0  0  0  0  0  0  0  0  0  0
   44.4250   31.7850   37.8320 H   0  0  0  0  0  0  0  0  0  0  0  0
   44.1040   31.6090   40.3390 H   0  0  0  0  0  0  0  0  0  0  0  0
   42.1570   32.8940   41.6060 N   0  0  0  0  0  0  0  0  0  0  0  0
   42.4590   33.4660   42.4270 H   0  0  0  0  0  0  0  0  0  0  0  0
   41.5270   32.1310   41.9030 H   0  0  0  0  0  0  0  0  0  0  0  0
  1  7  1  0  0  0  0
  2  8  1  0  0  0  0
  2  1  2  0  0  0  0
  3  2  1  0  0  0  0
  4  3  2  0  0  0  0
  4  5  1  0  0  0  0
  5  6  2  0  0  0  0
  6  1  1  0  0  0  0
  9  3  1  0  0  0  0
  9 14  1  0  0  0  0
 10  9  2  0  0  0  0
 11 10  1  0  0  0  0
 11 12  2  0  0  0  0
 12 13  1  0  0  0  0
 13 14  2  0  0  0  0
 13 18  1  0  0  0  0
 15 10  1  0  0  0  0
 16 11  1  0  0  0  0
 17 12  1  0  0  0  0
 18 19  1  0  0  0  0
 19 20  1  0  0  0  0
 19 21  2  0  0  0  0
 22 23  1  0  0  0  0
 22 21  1  0  0  0  0
 23 24  1  0  0  0  0
 25 23  2  0  0  0  0
 26 25  1  0  0  0  0
 27 26  1  0  0  0  0
 28 26  2  0  0  0  0
 28 29  1  0  0  0  0
 29 18  1  0  0  0  0
 29 22  2  0  0  0  0
 30  5  1  0  0  0  0
 30 36  1  1  0  0  0
 30 35  1  0  0  0  0
 31 30  1  0  0  0  0
 32 40  1  0  0  0  0
 32 31  1  0  0  0  0
 32 33  1  0  0  0  0
 33 34  1  0  0  0  0
 34 35  2  0  0  0  0
 34 43  1  0  0  0  0
 35 44  1  0  0  0  0
 37 31  1  0  0  0  0
 38 31  1  0  0  0  0
 39 32  1  0  0  0  0
 41 33  1  0  0  0  0
 42 33  1  0  0  0  0
 44 46  1  0  0  0  0
 44 45  1  0  0  0  0
M  END
>  <minimizedAffinity>
-6.9702549

$$$$

 OpenBabel03252505093D

 46 50  0  0  1  0  0  0  0  0999 V2000
   39.0470   35.0970   40.2180 C   0  0  0  0  0  0  0  0  0  0  0  0
   38.2630   33.9420   40.4320 C   0  0  0  0  0  0  0  0  0  0  0  0
   38.9610   32.7050   40.5950 C   0  0  0  0  0  0  0  0  0  0  0  0
   40.3110   32.6870   40.5400 N   0  0  0  0  0  0  0  0  0  0  0  0
   41.0140   33.8250   40.3320 C   0  0  0  0  0  0  0  0  0  0  0  0
   40.3880   35.0320   40.1700 N   0  0  0  0  0  0  0  0  0  0  0  0
   38.4890   36.0120   40.0990 H   0  0  0  0  0  0  0  0  0  0  0  0
   37.2010   33.9220   40.4810 H   0  0  0  0  0  0  0  0  0  0  0  0
   38.1750   31.4900   40.8220 C   0  0  0  0  0  0  0  0  0  0  0  0
   36.8400   31.5350   40.5780 C   0  0  0  0  0  0  0  0  0  0  0  0
   36.1310   30.3570   40.8120 C   0  0  0  0  0  0  0  0  0  0  0  0
   36.8450   29.2680   41.2630 C   0  0  0  0  0  0  0  0  0  0  0  0
   38.1870   29.2290   41.5050 C   0  0  0  0  0  0  0  0  0  0  0  0
   38.8490   30.4100   41.2640 N   0  0  0  0  0  0  0  0  0  0  0  0
   36.3580   32.4340   40.2250 H   0  0  0  0  0  0  0  0  0  0  0  0
   35.0590   30.3270   40.6360 H   0  0  0  0  0  0  0  0  0  0  0  0
   36.3050   28.3450   41.4480 H   0  0  0  0  0  0  0  0  0  0  0  0
   38.8750   28.0720   41.9720 N   0  0  0  0  0  0  0  0  0  0  0  0
   40.1370   28.0470   42.4480 C   0  0  0  0  0  0  0  0  0  0  0  0
   40.8250   28.8790   42.5530 H   0  0  0  0  0  0  0  0  0  0  0  0
   40.4790   26.8130   42.8000 N   0  0  0  0  0  0  0  0  0  0  0  0
   39.4480   25.9770   42.5680 C   0  0  0  0  0  0  0  0  0  0  0  0
   39.1730   24.6210   42.7120 C   0  0  0  0  0  0  0  0  0  0  0  0
   39.9830   24.0400   43.1210 H   0  0  0  0  0  0  0  0  0  0  0  0
   37.9680   24.1360   42.3510 N   0  0  0  0  0  0  0  0  0  0  0  0
   37.0240   24.9350   41.8540 C   0  0  0  0  0  0  0  0  0  0  0  0
   36.0680   24.5150   41.5740 H   0  0  0  0  0  0  0  0  0  0  0  0
   37.2620   26.2620   41.7010 N   0  0  0  0  0  0  0  0  0  0  0  0
   38.4520   26.8070   42.0450 C   0  0  0  0  0  0  0  0  0  0  0  0
   42.4960   33.7460   40.2750 C   0  0  2  0  0  0  0  0  0  0  0  0
   42.8460   33.5370   38.8280 C   0  0  0  0  0  0  0  0  0  0  0  0
   43.2530   32.1760   38.4400 C   0  0  0  0  0  0  0  0  0  0  0  0
   44.4140   31.8220   39.3600 C   0  0  0  0  0  0  0  0  0  0  0  0
   44.0110   31.7210   40.7610 C   0  0  0  0  0  0  0  0  0  0  0  0
   43.0100   32.7470   41.1870 C   0  0  0  0  0  0  0  0  0  0  0  0
   42.8510   34.7540   40.6010 H   0  0  0  0  0  0  0  0  0  0  0  0
   43.6720   34.2320   38.5750 H   0  0  0  0  0  0  0  0  0  0  0  0
   42.0110   33.8480   38.1410 H   0  0  0  0  0  0  0  0  0  0  0  0
   43.6810   32.2130   37.4290 H   0  0  0  0  0  0  0  0  0  0  0  0
   42.4190   31.4730   38.5460 H   0  0  0  0  0  0  0  0  0  0  0  0
   45.2220   32.5460   39.1800 H   0  0  0  0  0  0  0  0  0  0  0  0
   44.7180   30.8060   39.0590 H   0  0  0  0  0  0  0  0  0  0  0  0
   44.3040   31.0400   41.5470 H   0  0  0  0  0  0  0  0  0  0  0  0
   42.5340   32.7570   42.5280 N   0  0  0  0  0  0  0  0  0  0  0  0
   42.8940   33.3930   43.2770 H   0  0  0  0  0  0  0  0  0  0  0  0
   41.7900   32.1420   42.8970 H   0  0  0  0  0  0  0  0  0  0  0  0
  1  2  1  0  0  0  0
  2  8  1  0  0  0  0
  2  3  2  0  0  0  0
  3  9  1  0  0  0  0
  4  3  1  0  0  0  0
  5  4  2  0  0  0  0
  6  1  2  0  0  0  0
  6  5  1  0  0  0  0
  7  1  1  0  0  0  0
  9 14  1  0  0  0  0
 10 11  1  0  0  0  0
 10  9  2  0  0  0  0
 11 12  2  0  0  0  0
 12 17  1  0  0  0  0
 12 13  1  0  0  0  0
 13 18  1  0  0  0  0
 14 13  2  0  0  0  0
 15 10  1  0  0  0  0
 16 11  1  0  0  0  0
 18 29  1  0  0  0  0
 18 19  1  0  0  0  0
 19 20  1  0  0  0  0
 19 21  2  0  0  0  0
 22 23  1  0  0  0  0
 22 21  1  0  0  0  0
 23 24  1  0  0  0  0
 25 23  2  0  0  0  0
 26 25  1  0  0  0  0
 27 26  1  0  0  0  0
 28 26  2  0  0  0  0
 28 29  1  0  0  0  0
 29 22  2  0  0  0  0
 30  5  1  0  0  0  0
 30 36  1  1  0  0  0
 30 35  1  0  0  0  0
 31 30  1  0  0  0  0
 32 40  1  0  0  0  0
 32 31  1  0  0  0  0
 32 33  1  0  0  0  0
 33 34  1  0  0  0  0
 34 35  2  0  0  0  0
 34 43  1  0  0  0  0
 35 44  1  0  0  0  0
 37 31  1  0  0  0  0
 38 31  1  0  0  0  0
 39 32  1  0  0  0  0
 41 33  1  0  0  0  0
 42 33  1  0  0  0  0
 44 46  1  0  0  0  0
 44 45  1  0  0  0  0
M  END
>  <minimizedAffinity>
-6.96722889

$$$$

 OpenBabel03252505093D

 46 50  0  0  1  0  0  0  0  0999 V2000
   35.2620   29.4990   40.2100 C   0  0  0  0  0  0  0  0  0  0  0  0
   36.1990   30.5080   39.8950 C   0  0  0  0  0  0  0  0  0  0  0  0
   37.4840   30.4160   40.5150 C   0  0  0  0  0  0  0  0  0  0  0  0
   37.7490   29.3940   41.3580 N   0  0  0  0  0  0  0  0  0  0  0  0
   36.8130   28.4530   41.6250 C   0  0  0  0  0  0  0  0  0  0  0  0
   35.5690   28.5000   41.0550 N   0  0  0  0  0  0  0  0  0  0  0  0
   34.3040   29.5990   39.7260 H   0  0  0  0  0  0  0  0  0  0  0  0
   36.0240   31.3250   39.2380 H   0  0  0  0  0  0  0  0  0  0  0  0
   38.4800   31.4470   40.2050 C   0  0  0  0  0  0  0  0  0  0  0  0
   38.2710   32.7020   40.6800 C   0  0  0  0  0  0  0  0  0  0  0  0
   39.2420   33.6500   40.3580 C   0  0  0  0  0  0  0  0  0  0  0  0
   40.3100   33.2290   39.5960 C   0  0  0  0  0  0  0  0  0  0  0  0
   40.5130   31.9650   39.1230 C   0  0  0  0  0  0  0  0  0  0  0  0
   39.5350   31.0610   39.4610 N   0  0  0  0  0  0  0  0  0  0  0  0
   37.4030   32.9480   41.2710 H   0  0  0  0  0  0  0  0  0  0  0  0
   39.1350   34.6740   40.7070 H   0  0  0  0  0  0  0  0  0  0  0  0
   41.0720   33.9570   39.3390 H   0  0  0  0  0  0  0  0  0  0  0  0
   41.6390   31.5840   38.3380 N   0  0  0  0  0  0  0  0  0  0  0  0
   41.7670   30.4280   37.6550 C   0  0  0  0  0  0  0  0  0  0  0  0
   41.0540   29.6120   37.5890 H   0  0  0  0  0  0  0  0  0  0  0  0
   42.9360   30.3820   37.0260 N   0  0  0  0  0  0  0  0  0  0  0  0
   43.6230   31.5140   37.2740 C   0  0  0  0  0  0  0  0  0  0  0  0
   44.8540   32.0630   36.9300 C   0  0  0  0  0  0  0  0  0  0  0  0
   45.4590   31.4440   36.2870 H   0  0  0  0  0  0  0  0  0  0  0  0
   45.2040   33.2790   37.3970 N   0  0  0  0  0  0  0  0  0  0  0  0
   44.3870   33.9740   38.1890 C   0  0  0  0  0  0  0  0  0  0  0  0
   44.6960   34.9460   38.5470 H   0  0  0  0  0  0  0  0  0  0  0  0
   43.1800   33.4640   38.5430 N   0  0  0  0  0  0  0  0  0  0  0  0
   42.7740   32.2500   38.1050 C   0  0  0  0  0  0  0  0  0  0  0  0
   37.1560   27.3540   42.5630 C   0  0  2  0  0  0  0  0  0  0  0  0
   38.0810   27.9540   43.5850 C   0  0  0  0  0  0  0  0  0  0  0  0
   39.5100   27.6210   43.4540 C   0  0  0  0  0  0  0  0  0  0  0  0
   39.5740   26.1000   43.4570 C   0  0  0  0  0  0  0  0  0  0  0  0
   38.9300   25.5080   42.2860 C   0  0  0  0  0  0  0  0  0  0  0  0
   37.6740   26.1990   41.8620 C   0  0  0  0  0  0  0  0  0  0  0  0
   36.1900   27.0800   43.0530 H   0  0  0  0  0  0  0  0  0  0  0  0
   37.7390   27.6250   44.5870 H   0  0  0  0  0  0  0  0  0  0  0  0
   37.9980   29.0750   43.6260 H   0  0  0  0  0  0  0  0  0  0  0  0
   40.0290   27.9380   44.3700 H   0  0  0  0  0  0  0  0  0  0  0  0
   39.9270   28.0460   42.5350 H   0  0  0  0  0  0  0  0  0  0  0  0
   39.1690   25.7450   44.4150 H   0  0  0  0  0  0  0  0  0  0  0  0
   40.6450   25.8580   43.3660 H   0  0  0  0  0  0  0  0  0  0  0  0
   39.1950   24.6600   41.6700 H   0  0  0  0  0  0  0  0  0  0  0  0
   36.9490   25.7210   40.7330 N   0  0  0  0  0  0  0  0  0  0  0  0
   36.1050   25.1060   40.7920 H   0  0  0  0  0  0  0  0  0  0  0  0
   37.1820   25.9310   39.7490 H   0  0  0  0  0  0  0  0  0  0  0  0
  1  6  1  0  0  0  0
  2  1  2  0  0  0  0
  2  3  1  0  0  0  0
  3  4  2  0  0  0  0
  4  5  1  0  0  0  0
  5 30  1  0  0  0  0
  6  5  2  0  0  0  0
  7  1  1  0  0  0  0
  8  2  1  0  0  0  0
  9  3  1  0  0  0  0
  9 10  1  0  0  0  0
 10 15  1  0  0  0  0
 11 10  2  0  0  0  0
 11 16  1  0  0  0  0
 12 11  1  0  0  0  0
 13 14  1  0  0  0  0
 13 12  2  0  0  0  0
 14  9  2  0  0  0  0
 17 12  1  0  0  0  0
 18 13  1  0  0  0  0
 19 18  1  0  0  0  0
 20 19  1  0  0  0  0
 21 22  1  0  0  0  0
 21 19  2  0  0  0  0
 22 29  1  0  0  0  0
 23 22  2  0  0  0  0
 23 25  1  0  0  0  0
 24 23  1  0  0  0  0
 25 26  2  0  0  0  0
 26 28  1  0  0  0  0
 26 27  1  0  0  0  0
 29 18  1  0  0  0  0
 29 28  2  0  0  0  0
 30 36  1  1  0  0  0
 30 31  1  0  0  0  0
 31 38  1  0  0  0  0
 31 37  1  0  0  0  0
 32 33  1  0  0  0  0
 32 31  1  0  0  0  0
 32 39  1  0  0  0  0
 33 41  1  0  0  0  0
 34 33  1  0  0  0  0
 35 34  2  0  0  0  0
 35 30  1  0  0  0  0
 40 32  1  0  0  0  0
 42 33  1  0  0  0  0
 43 34  1  0  0  0  0
 44 45  1  0  0  0  0
 44 35  1  0  0  0  0
 46 44  1  0  0  0  0
M  END
>  <minimizedAffinity>
-6.82129145

$$$$

 OpenBabel03252505093D

 46 50  0  0  1  0  0  0  0  0999 V2000
   39.9540   34.8950   39.9330 C   0  0  0  0  0  0  0  0  0  0  0  0
   39.0600   33.8770   40.3300 C   0  0  0  0  0  0  0  0  0  0  0  0
   39.5310   32.5300   40.2420 C   0  0  0  0  0  0  0  0  0  0  0  0
   40.7820   32.2860   39.7940 N   0  0  0  0  0  0  0  0  0  0  0  0
   41.5990   33.3020   39.4260 C   0  0  0  0  0  0  0  0  0  0  0  0
   41.1900   34.6070   39.4930 N   0  0  0  0  0  0  0  0  0  0  0  0
   39.5670   35.8980   40.0120 H   0  0  0  0  0  0  0  0  0  0  0  0
   38.0710   34.0330   40.6870 H   0  0  0  0  0  0  0  0  0  0  0  0
   38.6270   31.4510   40.6510 C   0  0  0  0  0  0  0  0  0  0  0  0
   37.2920   31.7000   40.6560 C   0  0  0  0  0  0  0  0  0  0  0  0
   36.4710   30.6460   41.0550 C   0  0  0  0  0  0  0  0  0  0  0  0
   37.0850   29.4630   41.4030 C   0  0  0  0  0  0  0  0  0  0  0  0
   38.4270   29.2190   41.3960 C   0  0  0  0  0  0  0  0  0  0  0  0
   39.2020   30.2820   40.9970 N   0  0  0  0  0  0  0  0  0  0  0  0
   36.8940   32.6600   40.3670 H   0  0  0  0  0  0  0  0  0  0  0  0
   35.3920   30.7810   41.0800 H   0  0  0  0  0  0  0  0  0  0  0  0
   36.4560   28.6350   41.7150 H   0  0  0  0  0  0  0  0  0  0  0  0
   39.0080   27.9720   41.7670 N   0  0  0  0  0  0  0  0  0  0  0  0
   40.3180   27.7550   42.0030 C   0  0  0  0  0  0  0  0  0  0  0  0
   41.1310   28.4720   41.9520 H   0  0  0  0  0  0  0  0  0  0  0  0
   40.5310   26.4850   42.3270 N   0  0  0  0  0  0  0  0  0  0  0  0
   39.3610   25.8170   42.3170 C   0  0  0  0  0  0  0  0  0  0  0  0
   38.9170   24.5200   42.5550 C   0  0  0  0  0  0  0  0  0  0  0  0
   39.6920   23.8220   42.8270 H   0  0  0  0  0  0  0  0  0  0  0  0
   37.6060   24.2240   42.4370 N   0  0  0  0  0  0  0  0  0  0  0  0
   36.7180   25.1570   42.0960 C   0  0  0  0  0  0  0  0  0  0  0  0
   35.6730   24.8880   42.0110 H   0  0  0  0  0  0  0  0  0  0  0  0
   37.1200   26.4310   41.8570 N   0  0  0  0  0  0  0  0  0  0  0  0
   38.4210   26.7870   41.9590 C   0  0  0  0  0  0  0  0  0  0  0  0
   42.9620   32.9770   38.9360 C   0  0  2  0  0  0  0  0  0  0  0  0
   43.8120   32.7940   40.1620 C   0  0  0  0  0  0  0  0  0  0  0  0
   44.7310   33.8950   40.4940 C   0  0  0  0  0  0  0  0  0  0  0  0
   45.5780   34.1070   39.2460 C   0  0  0  0  0  0  0  0  0  0  0  0
   44.7940   34.5870   38.1100 C   0  0  0  0  0  0  0  0  0  0  0  0
   43.4380   33.9660   37.9940 C   0  0  0  0  0  0  0  0  0  0  0  0
   42.8530   31.9970   38.4110 H   0  0  0  0  0  0  0  0  0  0  0  0
   44.4100   31.8700   40.0260 H   0  0  0  0  0  0  0  0  0  0  0  0
   43.1940   32.5820   41.0780 H   0  0  0  0  0  0  0  0  0  0  0  0
   45.4310   33.5460   41.2670 H   0  0  0  0  0  0  0  0  0  0  0  0
   44.1760   34.7980   40.7700 H   0  0  0  0  0  0  0  0  0  0  0  0
   46.1270   33.1760   39.0460 H   0  0  0  0  0  0  0  0  0  0  0  0
   46.2680   34.9260   39.5040 H   0  0  0  0  0  0  0  0  0  0  0  0
   45.0140   35.3100   37.3370 H   0  0  0  0  0  0  0  0  0  0  0  0
   42.5730   34.3490   36.9300 N   0  0  0  0  0  0  0  0  0  0  0  0
   42.4490   33.8030   36.0460 H   0  0  0  0  0  0  0  0  0  0  0  0
   41.9850   35.1980   36.9210 H   0  0  0  0  0  0  0  0  0  0  0  0
  1  7  1  0  0  0  0
  1  2  1  0  0  0  0
  2  8  1  0  0  0  0
  3  2  2  0  0  0  0
  3  9  1  0  0  0  0
  4  3  1  0  0  0  0
  5  6  1  0  0  0  0
  5  4  2  0  0  0  0
  6  1  2  0  0  0  0
  9 10  2  0  0  0  0
  9 14  1  0  0  0  0
 10 11  1  0  0  0  0
 11 16  1  0  0  0  0
 11 12  2  0  0  0  0
 12 17  1  0  0  0  0
 13 12  1  0  0  0  0
 13 18  1  0  0  0  0
 14 13  2  0  0  0  0
 15 10  1  0  0  0  0
 18 29  1  0  0  0  0
 18 19  1  0  0  0  0
 19 21  2  0  0  0  0
 20 19  1  0  0  0  0
 22 21  1  0  0  0  0
 22 23  1  0  0  0  0
 23 24  1  0  0  0  0
 25 23  2  0  0  0  0
 26 25  1  0  0  0  0
 27 26  1  0  0  0  0
 28 29  1  0  0  0  0
 28 26  2  0  0  0  0
 29 22  2  0  0  0  0
 30 36  1  6  0  0  0
 30  5  1  0  0  0  0
 30 31  1  0  0  0  0
 31 32  1  0  0  0  0
 31 38  1  0  0  0  0
 32 40  1  0  0  0  0
 32 39  1  0  0  0  0
 33 42  1  0  0  0  0
 33 32  1  0  0  0  0
 34 33  1  0  0  0  0
 35 34  2  0  0  0  0
 35 30  1  0  0  0  0
 37 31  1  0  0  0  0
 41 33  1  0  0  0  0
 43 34  1  0  0  0  0
 44 35  1  0  0  0  0
 45 44  1  0  0  0  0
 46 44  1  0  0  0  0
M  END
>  <minimizedAffinity>
-6.77553082

$$$$

 OpenBabel03252505093D

 46 50  0  0  1  0  0  0  0  0999 V2000
   38.2210   34.2120   40.1190 C   0  0  0  0  0  0  0  0  0  0  0  0
   38.1410   32.8760   40.5700 C   0  0  0  0  0  0  0  0  0  0  0  0
   39.3760   32.1890   40.7840 C   0  0  0  0  0  0  0  0  0  0  0  0
   40.5450   32.8260   40.5520 N   0  0  0  0  0  0  0  0  0  0  0  0
   40.5640   34.1090   40.1190 C   0  0  0  0  0  0  0  0  0  0  0  0
   39.4060   34.8070   39.9010 N   0  0  0  0  0  0  0  0  0  0  0  0
   37.2720   34.7010   39.9680 H   0  0  0  0  0  0  0  0  0  0  0  0
   37.2390   32.3460   40.7620 H   0  0  0  0  0  0  0  0  0  0  0  0
   39.3250   30.8020   41.2570 C   0  0  0  0  0  0  0  0  0  0  0  0
   40.0090   30.4860   42.3870 C   0  0  0  0  0  0  0  0  0  0  0  0
   39.9350   29.1550   42.7970 C   0  0  0  0  0  0  0  0  0  0  0  0
   39.1840   28.2950   42.0260 C   0  0  0  0  0  0  0  0  0  0  0  0
   38.4990   28.6210   40.8910 C   0  0  0  0  0  0  0  0  0  0  0  0
   38.5970   29.9410   40.5200 N   0  0  0  0  0  0  0  0  0  0  0  0
   40.5750   31.2240   42.9330 H   0  0  0  0  0  0  0  0  0  0  0  0
   40.4600   28.8360   43.6940 H   0  0  0  0  0  0  0  0  0  0  0  0
   39.1190   27.2570   42.3350 H   0  0  0  0  0  0  0  0  0  0  0  0
   37.7360   27.6880   40.1310 N   0  0  0  0  0  0  0  0  0  0  0  0
   37.2440   27.9000   38.8930 C   0  0  0  0  0  0  0  0  0  0  0  0
   37.3420   28.7900   38.2810 H   0  0  0  0  0  0  0  0  0  0  0  0
   36.5790   26.8320   38.4660 N   0  0  0  0  0  0  0  0  0  0  0  0
   36.6100   25.8750   39.4130 C   0  0  0  0  0  0  0  0  0  0  0  0
   36.1280   24.5810   39.5800 C   0  0  0  0  0  0  0  0  0  0  0  0
   35.5680   24.1980   38.7430 H   0  0  0  0  0  0  0  0  0  0  0  0
   36.3770   23.9120   40.7250 N   0  0  0  0  0  0  0  0  0  0  0  0
   37.0830   24.4690   41.7090 C   0  0  0  0  0  0  0  0  0  0  0  0
   37.2660   23.9060   42.6140 H   0  0  0  0  0  0  0  0  0  0  0  0
   37.5670   25.7300   41.5750 N   0  0  0  0  0  0  0  0  0  0  0  0
   37.3490   26.4500   40.4500 C   0  0  0  0  0  0  0  0  0  0  0  0
   41.8770   34.7580   39.8760 C   0  0  2  0  0  0  0  0  0  0  0  0
   42.1400   34.6230   38.4020 C   0  0  0  0  0  0  0  0  0  0  0  0
   43.1270   33.6060   38.0020 C   0  0  0  0  0  0  0  0  0  0  0  0
   44.3960   33.9440   38.7740 C   0  0  0  0  0  0  0  0  0  0  0  0
   44.2340   33.7810   40.2170 C   0  0  0  0  0  0  0  0  0  0  0  0
   42.9040   34.2190   40.7410 C   0  0  0  0  0  0  0  0  0  0  0  0
   41.7170   35.8350   40.1270 H   0  0  0  0  0  0  0  0  0  0  0  0
   42.4850   35.6080   38.0270 H   0  0  0  0  0  0  0  0  0  0  0  0
   41.1980   34.4270   37.8190 H   0  0  0  0  0  0  0  0  0  0  0  0
   43.3800   33.7600   36.9430 H   0  0  0  0  0  0  0  0  0  0  0  0
   42.7650   32.5980   38.2320 H   0  0  0  0  0  0  0  0  0  0  0  0
   44.7170   34.9510   38.4740 H   0  0  0  0  0  0  0  0  0  0  0  0
   45.1310   33.1850   38.4640 H   0  0  0  0  0  0  0  0  0  0  0  0
   44.9020   33.4000   40.9780 H   0  0  0  0  0  0  0  0  0  0  0  0
   42.6200   34.1120   42.1310 N   0  0  0  0  0  0  0  0  0  0  0  0
   42.6900   34.9040   42.8100 H   0  0  0  0  0  0  0  0  0  0  0  0
   42.3180   33.2470   42.6080 H   0  0  0  0  0  0  0  0  0  0  0  0
  1  2  1  0  0  0  0
  2  8  1  0  0  0  0
  2  3  2  0  0  0  0
  3  9  1  0  0  0  0
  4  3  1  0  0  0  0
  5  4  2  0  0  0  0
  6  1  2  0  0  0  0
  6  5  1  0  0  0  0
  7  1  1  0  0  0  0
  9 10  1  0  0  0  0
 10 11  2  0  0  0  0
 10 15  1  0  0  0  0
 11 16  1  0  0  0  0
 12 17  1  0  0  0  0
 12 11  1  0  0  0  0
 13 12  2  0  0  0  0
 14 13  1  0  0  0  0
 14  9  2  0  0  0  0
 18 29  1  0  0  0  0
 18 13  1  0  0  0  0
 19 18  1  0  0  0  0
 20 19  1  0  0  0  0
 21 19  2  0  0  0  0
 21 22  1  0  0  0  0
 22 23  2  0  0  0  0
 22 29  1  0  0  0  0
 23 25  1  0  0  0  0
 24 23  1  0  0  0  0
 25 26  2  0  0  0  0
 26 27  1  0  0  0  0
 28 26  1  0  0  0  0
 29 28  2  0  0  0  0
 30  5  1  0  0  0  0
 30 36  1  1  0  0  0
 30 35  1  0  0  0  0
 31 30  1  0  0  0  0
 32 40  1  0  0  0  0
 32 31  1  0  0  0  0
 32 33  1  0  0  0  0
 33 34  1  0  0  0  0
 34 35  2  0  0  0  0
 34 43  1  0  0  0  0
 35 44  1  0  0  0  0
 37 31  1  0  0  0  0
 38 31  1  0  0  0  0
 39 32  1  0  0  0  0
 41 33  1  0  0  0  0
 42 33  1  0  0  0  0
 44 46  1  0  0  0  0
 44 45  1  0  0  0  0
M  END
>  <minimizedAffinity>
-6.71222925

$$$$

 OpenBabel03252505093D

 46 50  0  0  1  0  0  0  0  0999 V2000
   36.2240   25.8470   38.9220 C   0  0  0  0  0  0  0  0  0  0  0  0
   36.6640   27.0840   38.4020 C   0  0  0  0  0  0  0  0  0  0  0  0
   37.4500   27.9080   39.2650 C   0  0  0  0  0  0  0  0  0  0  0  0
   37.7380   27.4840   40.5150 N   0  0  0  0  0  0  0  0  0  0  0  0
   37.2890   26.2880   40.9640 C   0  0  0  0  0  0  0  0  0  0  0  0
   36.5330   25.4660   40.1730 N   0  0  0  0  0  0  0  0  0  0  0  0
   35.6330   25.2510   38.2460 H   0  0  0  0  0  0  0  0  0  0  0  0
   36.4560   27.4470   37.4240 H   0  0  0  0  0  0  0  0  0  0  0  0
   37.9250   29.1960   38.7510 C   0  0  0  0  0  0  0  0  0  0  0  0
   37.0000   30.1160   38.3750 C   0  0  0  0  0  0  0  0  0  0  0  0
   37.4960   31.3250   37.8900 C   0  0  0  0  0  0  0  0  0  0  0  0
   38.8660   31.4720   37.8380 C   0  0  0  0  0  0  0  0  0  0  0  0
   39.7900   30.5430   38.2190 C   0  0  0  0  0  0  0  0  0  0  0  0
   39.2600   29.3650   38.6900 N   0  0  0  0  0  0  0  0  0  0  0  0
   35.9420   29.9190   38.4490 H   0  0  0  0  0  0  0  0  0  0  0  0
   36.8080   32.1040   37.5720 H   0  0  0  0  0  0  0  0  0  0  0  0
   39.2650   32.4090   37.4630 H   0  0  0  0  0  0  0  0  0  0  0  0
   41.1980   30.7490   38.1430 N   0  0  0  0  0  0  0  0  0  0  0  0
   42.1400   29.7930   38.2790 C   0  0  0  0  0  0  0  0  0  0  0  0
   41.9920   28.7340   38.4630 H   0  0  0  0  0  0  0  0  0  0  0  0
   43.3560   30.3140   38.1550 N   0  0  0  0  0  0  0  0  0  0  0  0
   43.2560   31.6390   37.9320 C   0  0  0  0  0  0  0  0  0  0  0  0
   44.1160   32.7120   37.7250 C   0  0  0  0  0  0  0  0  0  0  0  0
   45.1630   32.4580   37.7380 H   0  0  0  0  0  0  0  0  0  0  0  0
   43.6150   33.9500   37.5290 N   0  0  0  0  0  0  0  0  0  0  0  0
   42.3000   34.1680   37.5290 C   0  0  0  0  0  0  0  0  0  0  0  0
   41.9290   35.1710   37.3690 H   0  0  0  0  0  0  0  0  0  0  0  0
   41.4350   33.1410   37.7290 N   0  0  0  0  0  0  0  0  0  0  0  0
   41.8790   31.8780   37.9310 C   0  0  0  0  0  0  0  0  0  0  0  0
   37.6310   25.8750   42.3490 C   0  0  2  0  0  0  0  0  0  0  0  0
   38.0510   27.1280   43.0650 C   0  0  0  0  0  0  0  0  0  0  0  0
   39.4950   27.3030   43.2910 C   0  0  0  0  0  0  0  0  0  0  0  0
   39.9450   26.0510   44.0320 C   0  0  0  0  0  0  0  0  0  0  0  0
   39.8230   24.8430   43.2190 C   0  0  0  0  0  0  0  0  0  0  0  0
   38.6000   24.8010   42.3600 C   0  0  0  0  0  0  0  0  0  0  0  0
   36.6710   25.5040   42.7840 H   0  0  0  0  0  0  0  0  0  0  0  0
   37.5410   27.1440   44.0500 H   0  0  0  0  0  0  0  0  0  0  0  0
   37.6740   28.0560   42.5520 H   0  0  0  0  0  0  0  0  0  0  0  0
   39.6420   28.1310   43.9990 H   0  0  0  0  0  0  0  0  0  0  0  0
   40.0270   27.4300   42.3410 H   0  0  0  0  0  0  0  0  0  0  0  0
   39.3960   26.0050   44.9830 H   0  0  0  0  0  0  0  0  0  0  0  0
   41.0240   26.1920   44.2040 H   0  0  0  0  0  0  0  0  0  0  0  0
   40.4570   23.9720   43.1240 H   0  0  0  0  0  0  0  0  0  0  0  0
   38.3640   23.6780   41.5180 N   0  0  0  0  0  0  0  0  0  0  0  0
   37.7240   22.8860   41.7580 H   0  0  0  0  0  0  0  0  0  0  0  0
   38.7970   23.5300   40.5920 H   0  0  0  0  0  0  0  0  0  0  0  0
  1  6  1  0  0  0  0
  2  1  2  0  0  0  0
  2  3  1  0  0  0  0
  3  4  2  0  0  0  0
  4  5  1  0  0  0  0
  5 30  1  0  0  0  0
  6  5  2  0  0  0  0
  7  1  1  0  0  0  0
  8  2  1  0  0  0  0
  9  3  1  0  0  0  0
 10 15  1  0  0  0  0
 10  9  2  0  0  0  0
 11 10  1  0  0  0  0
 12 11  2  0  0  0  0
 12 13  1  0  0  0  0
 13 14  2  0  0  0  0
 14  9  1  0  0  0  0
 16 11  1  0  0  0  0
 17 12  1  0  0  0  0
 18 13  1  0  0  0  0
 18 19  1  0  0  0  0
 19 20  1  0  0  0  0
 21 19  2  0  0  0  0
 22 21  1  0  0  0  0
 23 24  1  0  0  0  0
 23 22  2  0  0  0  0
 25 23  1  0  0  0  0
 26 25  2  0  0  0  0
 26 28  1  0  0  0  0
 27 26  1  0  0  0  0
 28 29  2  0  0  0  0
 29 22  1  0  0  0  0
 29 18  1  0  0  0  0
 30 35  1  0  0  0  0
 30 36  1  1  0  0  0
 30 31  1  0  0  0  0
 31 32  1  0  0  0  0
 31 37  1  0  0  0  0
 32 39  1  0  0  0  0
 32 33  1  0  0  0  0
 33 42  1  0  0  0  0
 33 41  1  0  0  0  0
 34 33  1  0  0  0  0
 35 34  2  0  0  0  0
 38 31  1  0  0  0  0
 40 32  1  0  0  0  0
 43 34  1  0  0  0  0
 44 45  1  0  0  0  0
 44 35  1  0  0  0  0
 46 44  1  0  0  0  0
M  END
>  <minimizedAffinity>
-6.59794378

$$$$

 OpenBabel03252505093D

 46 50  0  0  1  0  0  0  0  0999 V2000
   34.9620   26.6570   37.4810 C   0  0  0  0  0  0  0  0  0  0  0  0
   35.2890   27.9530   37.9400 C   0  0  0  0  0  0  0  0  0  0  0  0
   36.2690   28.0450   38.9770 C   0  0  0  0  0  0  0  0  0  0  0  0
   36.8320   26.9190   39.4680 N   0  0  0  0  0  0  0  0  0  0  0  0
   36.4810   25.7010   38.9910 C   0  0  0  0  0  0  0  0  0  0  0  0
   35.5480   25.5640   37.9980 N   0  0  0  0  0  0  0  0  0  0  0  0
   34.2210   26.6240   36.7000 H   0  0  0  0  0  0  0  0  0  0  0  0
   34.8660   28.8580   37.5770 H   0  0  0  0  0  0  0  0  0  0  0  0
   36.6320   29.3760   39.4720 C   0  0  0  0  0  0  0  0  0  0  0  0
   35.8650   29.9280   40.4470 C   0  0  0  0  0  0  0  0  0  0  0  0
   36.2460   31.1970   40.8840 C   0  0  0  0  0  0  0  0  0  0  0  0
   37.3540   31.7640   40.2930 C   0  0  0  0  0  0  0  0  0  0  0  0
   38.1210   31.2020   39.3140 C   0  0  0  0  0  0  0  0  0  0  0  0
   37.7120   29.9540   38.9100 N   0  0  0  0  0  0  0  0  0  0  0  0
   35.0110   29.4130   40.8560 H   0  0  0  0  0  0  0  0  0  0  0  0
   35.6740   31.6950   41.6630 H   0  0  0  0  0  0  0  0  0  0  0  0
   37.6600   32.7510   40.6250 H   0  0  0  0  0  0  0  0  0  0  0  0
   39.2580   31.8370   38.7370 N   0  0  0  0  0  0  0  0  0  0  0  0
   39.8990   31.4360   37.6200 C   0  0  0  0  0  0  0  0  0  0  0  0
   39.6640   30.5860   36.9860 H   0  0  0  0  0  0  0  0  0  0  0  0
   40.9190   32.2430   37.3510 N   0  0  0  0  0  0  0  0  0  0  0  0
   40.9870   33.2090   38.2870 C   0  0  0  0  0  0  0  0  0  0  0  0
   41.7870   34.3110   38.5680 C   0  0  0  0  0  0  0  0  0  0  0  0
   42.5880   34.4760   37.8670 H   0  0  0  0  0  0  0  0  0  0  0  0
   41.5270   35.0740   39.6500 N   0  0  0  0  0  0  0  0  0  0  0  0
   40.5090   34.7920   40.4630 C   0  0  0  0  0  0  0  0  0  0  0  0
   40.3270   35.4240   41.3220 H   0  0  0  0  0  0  0  0  0  0  0  0
   39.7110   33.7230   40.2160 N   0  0  0  0  0  0  0  0  0  0  0  0
   39.9220   32.9210   39.1460 C   0  0  0  0  0  0  0  0  0  0  0  0
   37.1280   24.4970   39.5700 C   0  0  2  0  0  0  0  0  0  0  0  0
   36.3990   24.2100   40.8530 C   0  0  0  0  0  0  0  0  0  0  0  0
   37.0940   24.5740   42.0990 C   0  0  0  0  0  0  0  0  0  0  0  0
   38.4370   23.8580   42.0400 C   0  0  0  0  0  0  0  0  0  0  0  0
   39.2900   24.3530   40.9620 C   0  0  0  0  0  0  0  0  0  0  0  0
   38.5590   24.6710   39.6970 C   0  0  0  0  0  0  0  0  0  0  0  0
   36.9240   23.6790   38.8370 H   0  0  0  0  0  0  0  0  0  0  0  0
   36.1790   23.1230   40.8830 H   0  0  0  0  0  0  0  0  0  0  0  0
   35.3830   24.6920   40.8800 H   0  0  0  0  0  0  0  0  0  0  0  0
   36.5580   24.1210   42.9450 H   0  0  0  0  0  0  0  0  0  0  0  0
   37.2130   25.6600   42.1780 H   0  0  0  0  0  0  0  0  0  0  0  0
   38.2430   22.7770   41.9930 H   0  0  0  0  0  0  0  0  0  0  0  0
   38.9470   24.1280   42.9780 H   0  0  0  0  0  0  0  0  0  0  0  0
   40.3550   24.5320   40.9110 H   0  0  0  0  0  0  0  0  0  0  0  0
   39.2760   25.1630   38.5690 N   0  0  0  0  0  0  0  0  0  0  0  0
   39.5810   24.5730   37.7620 H   0  0  0  0  0  0  0  0  0  0  0  0
   39.5650   26.1460   38.4350 H   0  0  0  0  0  0  0  0  0  0  0  0
  1  2  2  0  0  0  0
  1  6  1  0  0  0  0
  2  3  1  0  0  0  0
  3  4  2  0  0  0  0
  3  9  1  0  0  0  0
  5  4  1  0  0  0  0
  5 30  1  0  0  0  0
  6  5  2  0  0  0  0
  7  1  1  0  0  0  0
  8  2  1  0  0  0  0
  9 10  1  0  0  0  0
 10 15  1  0  0  0  0
 10 11  2  0  0  0  0
 11 16  1  0  0  0  0
 12 17  1  0  0  0  0
 12 11  1  0  0  0  0
 13 12  2  0  0  0  0
 14 13  1  0  0  0  0
 14  9  2  0  0  0  0
 18 29  1  0  0  0  0
 18 13  1  0  0  0  0
 19 18  1  0  0  0  0
 20 19  1  0  0  0  0
 21 19  2  0  0  0  0
 21 22  1  0  0  0  0
 22 23  2  0  0  0  0
 22 29  1  0  0  0  0
 23 25  1  0  0  0  0
 24 23  1  0  0  0  0
 25 26  2  0  0  0  0
 26 27  1  0  0  0  0
 28 26  1  0  0  0  0
 29 28  2  0  0  0  0
 30 36  1  6  0  0  0
 30 35  1  0  0  0  0
 30 31  1  0  0  0  0
 31 38  1  0  0  0  0
 31 37  1  0  0  0  0
 31 32  1  0  0  0  0
 32 40  1  0  0  0  0
 32 39  1  0  0  0  0
 33 32  1  0  0  0  0
 33 42  1  0  0  0  0
 34 33  1  0  0  0  0
 35 34  2  0  0  0  0
 41 33  1  0  0  0  0
 43 34  1  0  0  0  0
 44 35  1  0  0  0  0
 45 44  1  0  0  0  0
 46 44  1  0  0  0  0
M  END
>  <minimizedAffinity>
-6.59711981

$$$$

 OpenBabel03252505093D

 46 50  0  0  1  0  0  0  0  0999 V2000
   39.9220   34.9930   39.9970 C   0  0  0  0  0  0  0  0  0  0  0  0
   38.8090   34.1230   39.9910 C   0  0  0  0  0  0  0  0  0  0  0  0
   39.0350   32.7840   39.5440 C   0  0  0  0  0  0  0  0  0  0  0  0
   40.2730   32.4090   39.1540 N   0  0  0  0  0  0  0  0  0  0  0  0
   41.3060   33.2850   39.1800 C   0  0  0  0  0  0  0  0  0  0  0  0
   41.1360   34.5770   39.6010 N   0  0  0  0  0  0  0  0  0  0  0  0
   39.7160   35.9950   40.3400 H   0  0  0  0  0  0  0  0  0  0  0  0
   37.8230   34.3860   40.2910 H   0  0  0  0  0  0  0  0  0  0  0  0
   37.9000   31.8570   39.5300 C   0  0  0  0  0  0  0  0  0  0  0  0
   37.2170   31.6630   40.6880 C   0  0  0  0  0  0  0  0  0  0  0  0
   36.1480   30.7700   40.6290 C   0  0  0  0  0  0  0  0  0  0  0  0
   35.8870   30.1740   39.4140 C   0  0  0  0  0  0  0  0  0  0  0  0
   36.5780   30.3740   38.2540 C   0  0  0  0  0  0  0  0  0  0  0  0
   37.6240   31.2600   38.3540 N   0  0  0  0  0  0  0  0  0  0  0  0
   37.4890   32.1730   41.5990 H   0  0  0  0  0  0  0  0  0  0  0  0
   35.5590   30.5710   41.5210 H   0  0  0  0  0  0  0  0  0  0  0  0
   35.0570   29.4770   39.3550 H   0  0  0  0  0  0  0  0  0  0  0  0
   36.2640   29.7290   37.0230 N   0  0  0  0  0  0  0  0  0  0  0  0
   37.0470   29.7080   35.9250 C   0  0  0  0  0  0  0  0  0  0  0  0
   38.0220   30.1650   35.7940 H   0  0  0  0  0  0  0  0  0  0  0  0
   36.4640   29.0220   34.9480 N   0  0  0  0  0  0  0  0  0  0  0  0
   35.2690   28.5640   35.3720 C   0  0  0  0  0  0  0  0  0  0  0  0
   34.2170   27.8140   34.8580 C   0  0  0  0  0  0  0  0  0  0  0  0
   34.3530   27.4870   33.8400 H   0  0  0  0  0  0  0  0  0  0  0  0
   33.1380   27.5520   35.6250 N   0  0  0  0  0  0  0  0  0  0  0  0
   33.0600   27.9990   36.8780 C   0  0  0  0  0  0  0  0  0  0  0  0
   32.1820   27.7720   37.4680 H   0  0  0  0  0  0  0  0  0  0  0  0
   34.0700   28.7340   37.4080 N   0  0  0  0  0  0  0  0  0  0  0  0
   35.1770   29.0300   36.6870 C   0  0  0  0  0  0  0  0  0  0  0  0
   42.6440   32.8200   38.7360 C   0  0  2  0  0  0  0  0  0  0  0  0
   43.3540   32.3530   39.9760 C   0  0  0  0  0  0  0  0  0  0  0  0
   44.3920   33.2480   40.5150 C   0  0  0  0  0  0  0  0  0  0  0  0
   45.3610   33.4870   39.3650 C   0  0  0  0  0  0  0  0  0  0  0  0
   44.7500   34.2230   38.2600 C   0  0  0  0  0  0  0  0  0  0  0  0
   43.3340   33.8380   37.9740 C   0  0  0  0  0  0  0  0  0  0  0  0
   42.4400   31.9440   38.0740 H   0  0  0  0  0  0  0  0  0  0  0  0
   43.8240   31.3740   39.7490 H   0  0  0  0  0  0  0  0  0  0  0  0
   42.6390   32.1220   40.8130 H   0  0  0  0  0  0  0  0  0  0  0  0
   44.9680   32.6990   41.2740 H   0  0  0  0  0  0  0  0  0  0  0  0
   43.9510   34.1820   40.8800 H   0  0  0  0  0  0  0  0  0  0  0  0
   45.7850   32.5160   39.0710 H   0  0  0  0  0  0  0  0  0  0  0  0
   46.1370   34.1500   39.7770 H   0  0  0  0  0  0  0  0  0  0  0  0
   45.1350   34.9970   37.6110 H   0  0  0  0  0  0  0  0  0  0  0  0
   42.6240   34.4820   36.9210 N   0  0  0  0  0  0  0  0  0  0  0  0
   42.4960   34.0800   35.9640 H   0  0  0  0  0  0  0  0  0  0  0  0
   42.1660   35.4050   36.9940 H   0  0  0  0  0  0  0  0  0  0  0  0
  1  7  1  0  0  0  0
  2  1  1  0  0  0  0
  2  8  1  0  0  0  0
  3  2  2  0  0  0  0
  4  5  2  0  0  0  0
  4  3  1  0  0  0  0
  5  6  1  0  0  0  0
  6  1  2  0  0  0  0
  9  3  1  0  0  0  0
  9 10  1  0  0  0  0
 10 15  1  0  0  0  0
 11 10  2  0  0  0  0
 11 16  1  0  0  0  0
 12 11  1  0  0  0  0
 13 14  1  0  0  0  0
 13 12  2  0  0  0  0
 14  9  2  0  0  0  0
 17 12  1  0  0  0  0
 18 13  1  0  0  0  0
 19 18  1  0  0  0  0
 20 19  1  0  0  0  0
 21 22  1  0  0  0  0
 21 19  2  0  0  0  0
 22 29  1  0  0  0  0
 23 22  2  0  0  0  0
 23 25  1  0  0  0  0
 24 23  1  0  0  0  0
 25 26  2  0  0  0  0
 26 28  1  0  0  0  0
 26 27  1  0  0  0  0
 29 18  1  0  0  0  0
 29 28  2  0  0  0  0
 30 36  1  6  0  0  0
 30  5  1  0  0  0  0
 30 31  1  0  0  0  0
 31 32  1  0  0  0  0
 31 38  1  0  0  0  0
 32 40  1  0  0  0  0
 32 39  1  0  0  0  0
 33 42  1  0  0  0  0
 33 32  1  0  0  0  0
 34 33  1  0  0  0  0
 35 34  2  0  0  0  0
 35 30  1  0  0  0  0
 37 31  1  0  0  0  0
 41 33  1  0  0  0  0
 43 34  1  0  0  0  0
 44 46  1  0  0  0  0
 44 35  1  0  0  0  0
 45 44  1  0  0  0  0
M  END
>  <minimizedAffinity>
-6.56105185

$$$$

 OpenBabel03252505093D

 46 50  0  0  1  0  0  0  0  0999 V2000
   37.3770   24.8720   42.2450 C   0  0  0  0  0  0  0  0  0  0  0  0
   37.3130   26.2780   42.1290 C   0  0  0  0  0  0  0  0  0  0  0  0
   36.9170   26.8060   40.8610 C   0  0  0  0  0  0  0  0  0  0  0  0
   36.6270   25.9630   39.8450 N   0  0  0  0  0  0  0  0  0  0  0  0
   36.7060   24.6210   40.0120 C   0  0  0  0  0  0  0  0  0  0  0  0
   37.0800   24.0700   41.2080 N   0  0  0  0  0  0  0  0  0  0  0  0
   37.6790   24.5070   43.2140 H   0  0  0  0  0  0  0  0  0  0  0  0
   37.5340   26.9690   42.9060 H   0  0  0  0  0  0  0  0  0  0  0  0
   36.8370   28.2620   40.7100 C   0  0  0  0  0  0  0  0  0  0  0  0
   35.6060   28.8350   40.6760 C   0  0  0  0  0  0  0  0  0  0  0  0
   35.5770   30.2210   40.5280 C   0  0  0  0  0  0  0  0  0  0  0  0
   36.7880   30.8730   40.4320 C   0  0  0  0  0  0  0  0  0  0  0  0
   38.0210   30.2900   40.4680 C   0  0  0  0  0  0  0  0  0  0  0  0
   38.0060   28.9230   40.6140 N   0  0  0  0  0  0  0  0  0  0  0  0
   34.7050   28.2480   40.7580 H   0  0  0  0  0  0  0  0  0  0  0  0
   34.6240   30.7420   40.4930 H   0  0  0  0  0  0  0  0  0  0  0  0
   36.7780   31.9520   40.3170 H   0  0  0  0  0  0  0  0  0  0  0  0
   39.2430   31.0150   40.3630 N   0  0  0  0  0  0  0  0  0  0  0  0
   40.4620   30.4750   40.1570 C   0  0  0  0  0  0  0  0  0  0  0  0
   40.7130   29.4260   40.0370 H   0  0  0  0  0  0  0  0  0  0  0  0
   41.3910   31.4230   40.1100 N   0  0  0  0  0  0  0  0  0  0  0  0
   40.8140   32.6270   40.2850 C   0  0  0  0  0  0  0  0  0  0  0  0
   41.2140   33.9580   40.3400 C   0  0  0  0  0  0  0  0  0  0  0  0
   42.2720   34.1160   40.2110 H   0  0  0  0  0  0  0  0  0  0  0  0
   40.2980   34.9290   40.5410 N   0  0  0  0  0  0  0  0  0  0  0  0
   39.0060   34.6370   40.6890 C   0  0  0  0  0  0  0  0  0  0  0  0
   38.2970   35.4380   40.8500 H   0  0  0  0  0  0  0  0  0  0  0  0
   38.5860   33.3480   40.6410 N   0  0  0  0  0  0  0  0  0  0  0  0
   39.4570   32.3310   40.4420 C   0  0  0  0  0  0  0  0  0  0  0  0
   36.3810   23.7420   38.8610 C   0  0  2  0  0  0  0  0  0  0  0  0
   34.8830   23.6190   38.8410 C   0  0  0  0  0  0  0  0  0  0  0  0
   34.3210   22.3500   39.3330 C   0  0  0  0  0  0  0  0  0  0  0  0
   34.9880   21.2620   38.5020 C   0  0  0  0  0  0  0  0  0  0  0  0
   36.4260   21.1700   38.7480 C   0  0  0  0  0  0  0  0  0  0  0  0
   37.1040   22.4900   38.9280 C   0  0  0  0  0  0  0  0  0  0  0  0
   36.7180   24.3090   37.9600 H   0  0  0  0  0  0  0  0  0  0  0  0
   34.5440   23.7670   37.7960 H   0  0  0  0  0  0  0  0  0  0  0  0
   34.3820   24.4520   39.4080 H   0  0  0  0  0  0  0  0  0  0  0  0
   33.2550   22.3110   39.0650 H   0  0  0  0  0  0  0  0  0  0  0  0
   34.5160   22.2250   40.4040 H   0  0  0  0  0  0  0  0  0  0  0  0
   34.7260   21.4310   37.4490 H   0  0  0  0  0  0  0  0  0  0  0  0
   34.5570   20.3170   38.8700 H   0  0  0  0  0  0  0  0  0  0  0  0
   37.0900   20.3200   38.8240 H   0  0  0  0  0  0  0  0  0  0  0  0
   38.5050   22.5380   39.1740 N   0  0  0  0  0  0  0  0  0  0  0  0
   39.2260   22.7300   38.4410 H   0  0  0  0  0  0  0  0  0  0  0  0
   38.9490   22.3910   40.0950 H   0  0  0  0  0  0  0  0  0  0  0  0
  1  7  1  0  0  0  0
  2  1  1  0  0  0  0
  2  8  1  0  0  0  0
  3  2  2  0  0  0  0
  4  5  2  0  0  0  0
  4  3  1  0  0  0  0
  5  6  1  0  0  0  0
  6  1  2  0  0  0  0
  9  3  1  0  0  0  0
 10  9  1  0  0  0  0
 10 15  1  0  0  0  0
 11 10  2  0  0  0  0
 12 13  2  0  0  0  0
 12 11  1  0  0  0  0
 13 14  1  0  0  0  0
 14  9  2  0  0  0  0
 16 11  1  0  0  0  0
 17 12  1  0  0  0  0
 18 29  1  0  0  0  0
 18 13  1  0  0  0  0
 19 18  1  0  0  0  0
 20 19  1  0  0  0  0
 21 19  2  0  0  0  0
 21 22  1  0  0  0  0
 22 23  2  0  0  0  0
 22 29  1  0  0  0  0
 23 25  1  0  0  0  0
 24 23  1  0  0  0  0
 25 26  2  0  0  0  0
 26 27  1  0  0  0  0
 28 26  1  0  0  0  0
 29 28  2  0  0  0  0
 30 36  1  6  0  0  0
 30 35  1  0  0  0  0
 30  5  1  0  0  0  0
 31 30  1  0  0  0  0
 31 32  1  0  0  0  0
 31 38  1  0  0  0  0
 32 40  1  0  0  0  0
 33 34  1  0  0  0  0
 33 42  1  0  0  0  0
 33 32  1  0  0  0  0
 34 43  1  0  0  0  0
 34 35  2  0  0  0  0
 35 44  1  0  0  0  0
 37 31  1  0  0  0  0
 39 32  1  0  0  0  0
 41 33  1  0  0  0  0
 44 46  1  0  0  0  0
 45 44  1  0  0  0  0
M  END
>  <minimizedAffinity>
-6.47564745

$$$$
