
     RDKit          3D

 35 37  0  0  0  0  0  0  0  0999 V2000
   47.8767   34.1561   42.2543 C   0  0  0  0  0  0  0  0  0  0  0  0
   44.8887   35.0859   44.3577 C   0  0  0  0  0  0  0  0  0  0  0  0
   45.8206   35.0400   43.2740 C   0  0  0  0  0  0  0  0  0  0  0  0
   46.9189   34.1950   43.3831 C   0  0  0  0  0  0  0  0  0  0  0  0
   47.0522   33.4663   44.4937 N   0  0  0  0  0  0  0  0  0  0  0  0
   46.1626   33.5210   45.5088 C   0  0  0  0  0  0  0  0  0  0  0  0
   45.0876   34.3193   45.4526 N   0  0  0  0  0  0  0  0  0  0  0  0
   43.7691   35.9295   44.2788 N   0  0  0  0  0  0  0  0  0  0  0  0
   49.1746   33.5959   42.7377 C   0  0  0  0  0  0  0  0  0  0  0  0
   49.2921   32.2595   42.4169 O   0  0  0  0  0  0  0  0  0  0  0  0
   50.8739   30.5382   41.2443 O   0  0  0  0  0  0  0  0  0  0  0  0
   50.4741   31.9824   41.2384 P   0  0  2  0  0  0  0  0  0  0  0  0
   51.7691   33.0106   41.5993 O   0  0  0  0  0  0  0  0  0  0  0  0
   49.8958   32.4802   39.7233 O   0  0  0  0  0  0  0  0  0  0  0  0
   47.4786   33.5660   41.3992 H   0  0  0  0  0  0  0  0  0  0  0  0
   48.0541   35.2093   41.9402 H   0  0  0  0  0  0  0  0  0  0  0  0
   45.6063   35.6753   42.4284 H   0  0  0  0  0  0  0  0  0  0  0  0
   46.3349   32.9006   46.3807 H   0  0  0  0  0  0  0  0  0  0  0  0
   43.3640   36.2894   45.1723 H   0  0  0  0  0  0  0  0  0  0  0  0
   43.2904   36.2403   43.4038 H   0  0  0  0  0  0  0  0  0  0  0  0
   49.2554   33.7126   43.8566 H   0  0  0  0  0  0  0  0  0  0  0  0
   50.0493   34.1622   42.3044 H   0  0  0  0  0  0  0  0  0  0  0  0
   51.6974   33.8901   41.1269 H   0  0  0  0  0  0  0  0  0  0  0  0
   49.0341   30.5768   37.7893 H   0  0  0  0  0  0  0  0  0  0  0  0
   48.3030   31.0719   38.3368 N   0  0  0  0  0  0  0  0  0  0  0  0
   48.6910   31.9738   39.2542 C   0  0  0  0  0  0  0  0  0  0  0  0
   47.5934   32.5038   39.8551 N   0  0  0  0  0  0  0  0  0  0  0  0
   46.4813   31.9399   39.3221 C   0  0  0  0  0  0  0  0  0  0  0  0
   45.1104   32.0002   39.4486 C   0  0  0  0  0  0  0  0  0  0  0  0
   44.7396   32.7019   40.1935 H   0  0  0  0  0  0  0  0  0  0  0  0
   44.3118   31.2387   38.6960 N   0  0  0  0  0  0  0  0  0  0  0  0
   44.7845   30.3753   37.7783 C   0  0  0  0  0  0  0  0  0  0  0  0
   44.1298   29.7647   37.1756 H   0  0  0  0  0  0  0  0  0  0  0  0
   46.1326   30.2973   37.6347 N   0  0  0  0  0  0  0  0  0  0  0  0
   46.9641   31.0508   38.3774 C   0  0  0  0  0  0  0  0  0  0  0  0
  1  9  1  0
  1  4  1  0
  2  7  2  0
  3  4  2  0
  3  2  1  0
  4  5  1  0
  5  6  2  0
  7  6  1  0
  8  2  1  0
 10  9  1  0
 11 12  2  0
 12 13  1  1
 12 10  1  0
 14 12  1  0
  1 15  1  0
  1 16  1  0
  3 17  1  0
  6 18  1  0
  8 19  1  0
  8 20  1  0
  9 21  1  0
  9 22  1  0
 13 23  1  0
 24 25  1  0
 25 26  1  0
 26 27  2  0
 27 28  1  0
 28 29  2  0
 29 30  1  0
 29 31  1  0
 31 32  2  0
 32 33  1  0
 32 34  1  0
 34 35  2  0
 35 25  1  0
 35 28  1  0
 14 26  1  0
M  ISO  8  15   8  16   8  17  14  18  14  21   8  22   8  23   3  24   9
M  ISO  2  30  16  33  16
M  END
>  <DihAtoms>  (1) 
11,13,25,24

>  <DihDeg>  (1) 
-0.00022071622531789862

$$$$
