
 OpenBabel03252507463D

 40 43  0  0  0  0  0  0  0  0999 V2000
   48.4460   33.9770   41.4120 C   0  0  0  0  0  0  0  0  0  0  0  0
   49.0180   32.7900   40.9950 C   0  0  0  0  0  0  0  0  0  0  0  0
   50.2940   32.3950   41.3780 C   0  0  0  0  0  0  0  0  0  0  0  0
   50.9580   33.2760   42.2110 N   0  0  0  0  0  0  0  0  0  0  0  0
   50.3770   34.4230   42.6000 C   0  0  0  0  0  0  0  0  0  0  0  0
   49.1500   34.7590   42.2060 N   0  0  0  0  0  0  0  0  0  0  0  0
   50.6910   31.4670   41.0280 H   0  0  0  0  0  0  0  0  0  0  0  0
   51.0050   35.0230   43.2510 H   0  0  0  0  0  0  0  0  0  0  0  0
   47.0880   34.2550   40.9220 C   0  0  0  0  0  0  0  0  0  0  0  0
   47.0760   34.8080   39.9460 H   0  0  0  0  0  0  0  0  0  0  0  0
   46.5100   33.3250   40.7400 H   0  0  0  0  0  0  0  0  0  0  0  0
   46.2670   35.0470   41.9090 C   0  0  0  0  0  0  0  0  0  0  0  0
   46.5430   36.1160   41.7920 H   0  0  0  0  0  0  0  0  0  0  0  0
   46.5480   34.8030   42.9720 H   0  0  0  0  0  0  0  0  0  0  0  0
   44.8050   34.9590   41.6880 C   0  0  0  0  0  0  0  0  0  0  0  0
   43.9130   35.3880   42.7090 C   0  0  0  0  0  0  0  0  0  0  0  0
   42.2590   35.0890   41.9770 S   0  0  0  0  0  0  0  0  0  0  0  0
   43.0690   34.4200   40.3830 C   0  0  0  0  0  0  0  0  0  0  0  0
   44.1770   34.5190   40.6300 N   0  0  0  0  0  0  0  0  0  0  0  0
   44.1640   35.7930   43.6810 H   0  0  0  0  0  0  0  0  0  0  0  0
   42.3290   33.9720   39.3000 O   0  0  0  0  0  0  0  0  0  0  0  0
   40.3720   34.4370   37.5750 O   0  0  0  0  0  0  0  0  0  0  0  0
   41.4620   35.1070   38.3920 P   0  0  0  0  0  0  0  0  0  0  0  0
   40.7460   36.1960   39.4770 O   0  0  0  0  0  0  0  0  0  0  0  0
   40.3890   35.6490   40.2250 H   0  0  0  0  0  0  0  0  0  0  0  0
   42.5400   35.9740   37.3970 O   0  0  0  0  0  0  0  0  0  0  0  0
   42.8260   35.3790   36.6400 H   0  0  0  0  0  0  0  0  0  0  0  0
   48.1070   31.6800   39.8790 S   0  0  0  0  0  0  0  0  0  0  0  0
   49.4590   28.8710   39.6400 H   0  0  0  0  0  0  0  0  0  0  0  0
   49.7370   29.5570   38.9050 N   0  0  0  0  0  0  0  0  0  0  0  0
   49.2670   30.8160   38.8330 C   0  0  0  0  0  0  0  0  0  0  0  0
   49.8140   31.4450   37.7780 N   0  0  0  0  0  0  0  0  0  0  0  0
   50.6520   30.6080   37.1370 C   0  0  0  0  0  0  0  0  0  0  0  0
   51.4650   30.7010   36.0240 C   0  0  0  0  0  0  0  0  0  0  0  0
   51.4470   31.6780   35.5170 H   0  0  0  0  0  0  0  0  0  0  0  0
   52.2120   29.6360   35.6270 N   0  0  0  0  0  0  0  0  0  0  0  0
   52.1200   28.5010   36.3640 C   0  0  0  0  0  0  0  0  0  0  0  0
   52.7510   27.6980   35.9760 H   0  0  0  0  0  0  0  0  0  0  0  0
   51.3340   28.3600   37.4660 N   0  0  0  0  0  0  0  0  0  0  0  0
   50.5870   29.4290   37.8620 C   0  0  0  0  0  0  0  0  0  0  0  0
  1  6  1  0  0  0  0
  2  3  1  0  0  0  0
  2  1  2  0  0  0  0
  3  4  2  0  0  0  0
  4  5  1  0  0  0  0
  5  8  1  0  0  0  0
  6  5  2  0  0  0  0
  7  3  1  0  0  0  0
  9  1  1  0  0  0  0
  9 12  1  0  0  0  0
 10  9  1  0  0  0  0
 11  9  1  0  0  0  0
 12 14  1  0  0  0  0
 13 12  1  0  0  0  0
 15 12  1  0  0  0  0
 15 16  2  0  0  0  0
 16 20  1  0  0  0  0
 17 16  1  0  0  0  0
 18 19  2  0  0  0  0
 18 17  1  0  0  0  0
 19 15  1  0  0  0  0
 21 18  1  0  0  0  0
 22 23  2  0  0  0  0
 23 21  1  0  0  0  0
 23 24  1  0  0  0  0
 24 25  1  0  0  0  0
 26 23  1  0  0  0  0
 27 26  1  0  0  0  0
 28  2  1  0  0  0  0
 30 29  1  0  0  0  0
 31 30  1  0  0  0  0
 31 28  1  0  0  0  0
 32 31  2  0  0  0  0
 33 32  1  0  0  0  0
 33 40  1  0  0  0  0
 34 33  2  0  0  0  0
 35 34  1  0  0  0  0
 36 34  1  0  0  0  0
 36 37  2  0  0  0  0
 37 39  1  0  0  0  0
 38 37  1  0  0  0  0
 39 40  2  0  0  0  0
 40 30  1  0  0  0  0
M  END
>  <minimizedAffinity>
-4.71835661

>  <minimizedRMSD>
1.38083625

$$$$
