REMARK  Name = 
REMARK  9 active torsions:
REMARK  status: ('A' for Active; 'I' for Inactive)
REMARK    1  A    between atoms: C_1  and  C_2
REMARK    2  A    between atoms: C_1  and  C_12
REMARK    3  A    between atoms: C_5  and  O_7
REMARK    4  A    between atoms: O_7  and  P_9
REMARK    5  A    between atoms: P_9  and  O_10
REMARK    6  A    between atoms: P_9  and  O_11
REMARK    7  A    between atoms: C_12  and  C_13
REMARK    8  A    between atoms: C_14  and  S_19
REMARK    9  A    between atoms: S_19  and  C_31
REMARK                            x       y       z     vdW  Elec       q    Type
REMARK                         _______ _______ _______ _____ _____    ______ ____
ROOT
ATOM      1  C   UNL     1      48.465  33.927  41.288  0.00  0.00    +0.000 A 
ATOM      2  C   UNL     1      48.935  32.721  40.804  0.00  0.00    +0.000 A 
ATOM      3  C   UNL     1      50.178  32.205  41.151  0.00  0.00    +0.000 A 
ATOM      4  N   UNL     1      50.918  32.985  42.020  0.00  0.00    +0.000 NA
ATOM      5  C   UNL     1      50.434  34.154  42.475  0.00  0.00    +0.000 A 
ATOM      6  N   UNL     1      49.236  34.607  42.113  0.00  0.00    +0.000 NA
ATOM      7  H   UNL     1      50.496  31.268  40.749  0.00  0.00    +0.000 HD
ATOM      8  H   UNL     1      51.114  34.666  43.148  0.00  0.00    +0.000 HD
ENDROOT
BRANCH   1   9
ATOM      9  C   UNL     1      47.130  34.338  40.829  0.00  0.00    +0.000 C 
ATOM     10  H   UNL     1      47.161  35.045  39.958  0.00  0.00    +0.000 HD
ATOM     11  H   UNL     1      46.521  33.476  40.487  0.00  0.00    +0.000 HD
BRANCH   9  12
ATOM     12  C   UNL     1      46.318  34.990  41.921  0.00  0.00    +0.000 C 
ATOM     13  H   UNL     1      46.597  36.064  41.949  0.00  0.00    +0.000 HD
ATOM     14  H   UNL     1      46.604  34.602  42.938  0.00  0.00    +0.000 HD
BRANCH  12  15
ATOM     15  C   UNL     1      44.854  34.938  41.699  0.00  0.00    +0.000 A 
ATOM     16  C   UNL     1      43.974  35.427  42.703  0.00  0.00    +0.000 A 
ATOM     17  S   UNL     1      42.313  35.153  41.977  0.00  0.00    +0.000 S 
ATOM     18  C   UNL     1      43.105  34.408  40.408  0.00  0.00    +0.000 A 
ATOM     19  N   UNL     1      44.215  34.482  40.654  0.00  0.00    +0.000 NA
ATOM     20  H   UNL     1      44.235  35.856  43.662  0.00  0.00    +0.000 HD
BRANCH  18  21
ATOM     21  O   UNL     1      42.354  33.946  39.339  0.00  0.00    +0.000 OA
BRANCH  21  23
ATOM     22  O   UNL     1      40.400  34.391  37.605  0.00  0.00    +0.000 OA
ATOM     23  P   UNL     1      41.487  35.071  38.418  0.00  0.00    +0.000 P 
BRANCH  23  24
ATOM     24  O   UNL     1      40.767  36.169  39.491  0.00  0.00    +0.000 OA
ATOM     25  H   UNL     1      40.410  35.629  40.243  0.00  0.00    +0.000 HD
ENDBRANCH  23  24
BRANCH  23  26
ATOM     26  O   UNL     1      42.566  35.930  37.417  0.00  0.00    +0.000 OA
ATOM     27  H   UNL     1      42.854  35.328  36.666  0.00  0.00    +0.000 HD
ENDBRANCH  23  26
ENDBRANCH  21  23
ENDBRANCH  18  21
ENDBRANCH  12  15
ENDBRANCH   9  12
ENDBRANCH   1   9
BRANCH   2  28
ATOM     28  S   UNL     1      47.929  31.748  39.644  0.00  0.00    +0.000 S 
BRANCH  28  31
ATOM     29  H   UNL     1      47.899  28.679  40.242  0.00  0.00    +0.000 HD
ATOM     30  N   UNL     1      48.641  28.990  39.577  0.00  0.00    +0.000 N 
ATOM     31  C   UNL     1      48.819  30.267  39.192  0.00  0.00    +0.000 A 
ATOM     32  N   UNL     1      49.851  30.343  38.334  0.00  0.00    +0.000 NA
ATOM     33  C   UNL     1      50.369  29.116  38.140  0.00  0.00    +0.000 A 
ATOM     34  C   UNL     1      51.407  28.599  37.388  0.00  0.00    +0.000 A 
ATOM     35  H   UNL     1      51.962  29.340  36.794  0.00  0.00    +0.000 HD
ATOM     36  N   UNL     1      51.677  27.266  37.415  0.00  0.00    +0.000 NA
ATOM     37  C   UNL     1      50.895  26.486  38.200  0.00  0.00    +0.000 A 
ATOM     38  H   UNL     1      51.182  25.432  38.162  0.00  0.00    +0.000 HD
ATOM     39  N   UNL     1      49.863  26.948  38.958  0.00  0.00    +0.000 NA
ATOM     40  C   UNL     1      49.593  28.282  38.930  0.00  0.00    +0.000 A 
ENDBRANCH  28  31
ENDBRANCH   2  28
TORSDOF 9
