
 OpenBabel03252506353D

 36 39  0  0  1  0  0  0  0  0999 V2000
   44.4760   35.7430   44.9910 C   0  0  0  0  0  0  0  0  0  0  0  0
   45.1260   35.7240   43.7500 C   0  0  0  0  0  0  0  0  0  0  0  0
   46.0320   34.7440   43.4980 C   0  0  0  0  0  0  0  0  0  0  0  0
   46.2430   33.8390   44.4890 N   0  0  0  0  0  0  0  0  0  0  0  0
   45.6280   33.8590   45.6600 C   0  0  0  0  0  0  0  0  0  0  0  0
   44.7240   34.8130   45.9460 N   0  0  0  0  0  0  0  0  0  0  0  0
   45.9460   32.8590   46.6050 N   0  0  0  0  0  0  0  0  0  0  0  0
   45.1630   32.5630   47.8120 C   0  0  0  0  0  0  0  0  0  0  0  0
   46.2560   32.2530   48.8140 C   0  0  0  0  0  0  0  0  0  0  0  0
   47.5380   32.1030   48.0510 C   0  0  0  0  0  0  0  0  0  0  0  0
   47.0520   31.9280   46.6330 C   0  0  1  0  0  0  0  0  0  0  0  0
   43.7400   36.5340   45.1990 H   0  0  0  0  0  0  0  0  0  0  0  0
   46.5130   34.7520   42.5480 H   0  0  0  0  0  0  0  0  0  0  0  0
   44.4760   31.7150   47.6610 H   0  0  0  0  0  0  0  0  0  0  0  0
   44.5630   33.4530   48.0720 H   0  0  0  0  0  0  0  0  0  0  0  0
   45.9970   31.3070   49.3570 H   0  0  0  0  0  0  0  0  0  0  0  0
   46.3220   33.1200   49.5050 H   0  0  0  0  0  0  0  0  0  0  0  0
   48.2090   32.9800   48.1560 H   0  0  0  0  0  0  0  0  0  0  0  0
   48.0940   31.1760   48.3190 H   0  0  0  0  0  0  0  0  0  0  0  0
   47.7950   32.2400   45.8820 H   0  0  0  0  0  0  0  0  0  0  0  0
   44.7700   36.7700   42.8370 N   0  0  0  0  0  0  0  0  0  0  0  0
   44.3890   37.6760   43.1850 H   0  0  0  0  0  0  0  0  0  0  0  0
   44.8930   36.6230   41.8030 H   0  0  0  0  0  0  0  0  0  0  0  0
   46.5210   30.2200   46.4030 S   0  0  0  0  0  0  0  0  0  0  0  0
   47.0620   28.0750   44.3740 H   0  0  0  0  0  0  0  0  0  0  0  0
   46.3950   28.8180   44.0810 N   0  0  0  0  0  0  0  0  0  0  0  0
   45.9540   29.8980   44.7480 C   0  0  0  0  0  0  0  0  0  0  0  0
   45.0840   30.6020   43.9680 N   0  0  0  0  0  0  0  0  0  0  0  0
   44.9860   29.9300   42.7800 C   0  0  0  0  0  0  0  0  0  0  0  0
   44.3220   30.0580   41.5930 C   0  0  0  0  0  0  0  0  0  0  0  0
   43.6640   30.9340   41.5070 H   0  0  0  0  0  0  0  0  0  0  0  0
   44.4500   29.1860   40.5870 N   0  0  0  0  0  0  0  0  0  0  0  0
   45.2490   28.1190   40.6830 C   0  0  0  0  0  0  0  0  0  0  0  0
   45.2660   27.4900   39.8040 H   0  0  0  0  0  0  0  0  0  0  0  0
   45.9250   27.9410   41.8230 N   0  0  0  0  0  0  0  0  0  0  0  0
   45.8140   28.8150   42.8660 C   0  0  0  0  0  0  0  0  0  0  0  0
  1 12  1  0  0  0  0
  1  6  1  0  0  0  0
  2  1  2  0  0  0  0
  3  2  1  0  0  0  0
  3  4  2  0  0  0  0
  4  5  1  0  0  0  0
  5  6  2  0  0  0  0
  5  7  1  0  0  0  0
  7 11  1  0  0  0  0
  7  8  1  0  0  0  0
  8 15  1  0  0  0  0
  8  9  1  0  0  0  0
  9 16  1  0  0  0  0
  9 17  1  0  0  0  0
 10 18  1  0  0  0  0
 10 19  1  0  0  0  0
 10  9  1  0  0  0  0
 11 20  1  6  0  0  0
 11 10  1  0  0  0  0
 13  3  1  0  0  0  0
 14  8  1  0  0  0  0
 21 22  1  0  0  0  0
 21  2  1  0  0  0  0
 23 21  1  0  0  0  0
 24 11  1  0  0  0  0
 26 25  1  0  0  0  0
 26 27  1  0  0  0  0
 27 24  1  0  0  0  0
 28 27  2  0  0  0  0
 29 36  1  0  0  0  0
 29 28  1  0  0  0  0
 30 29  2  0  0  0  0
 31 30  1  0  0  0  0
 32 33  2  0  0  0  0
 32 30  1  0  0  0  0
 33 35  1  0  0  0  0
 34 33  1  0  0  0  0
 35 36  2  0  0  0  0
 36 26  1  0  0  0  0
M  END
>  <minimizedAffinity>
-4.84396887

>  <minimizedRMSD>
0.226825461

$$$$
