
 OpenBabel03242513073D

 44 49  0  0  0  0  0  0  0  0999 V2000
   45.9500   33.3180   41.5930 C   0  0  0  0  0  0  0  0  0  0  0  0
   47.1480   33.9870   41.3110 C   0  0  0  0  0  0  0  0  0  0  0  0
   48.1190   33.9970   42.3030 C   0  0  0  0  0  0  0  0  0  0  0  0
   47.8300   33.3540   43.4750 N   0  0  0  0  0  0  0  0  0  0  0  0
   46.6860   32.7210   43.7300 C   0  0  0  0  0  0  0  0  0  0  0  0
   45.7330   32.6990   42.7840 N   0  0  0  0  0  0  0  0  0  0  0  0
   45.1960   33.3080   40.8270 H   0  0  0  0  0  0  0  0  0  0  0  0
   46.6480   30.7300   45.1580 C   0  0  0  0  0  0  0  0  0  0  0  0
   46.4820   32.0710   45.0090 C   0  0  0  0  0  0  0  0  0  0  0  0
   46.1040   32.9170   46.0820 C   0  0  0  0  0  0  0  0  0  0  0  0
   45.8880   32.3810   47.3410 C   0  0  0  0  0  0  0  0  0  0  0  0
   45.5300   32.8480   48.5630 N   0  0  0  0  0  0  0  0  0  0  0  0
   45.4860   31.7950   49.4220 C   0  0  0  0  0  0  0  0  0  0  0  0
   45.8170   30.6840   48.7230 N   0  0  0  0  0  0  0  0  0  0  0  0
   46.0670   31.0210   47.4460 C   0  0  0  0  0  0  0  0  0  0  0  0
   46.4370   30.1640   46.4140 C   0  0  0  0  0  0  0  0  0  0  0  0
   46.9340   30.1240   44.3310 H   0  0  0  0  0  0  0  0  0  0  0  0
   45.9720   33.9930   45.9590 H   0  0  0  0  0  0  0  0  0  0  0  0
   45.3540   33.8750   48.6650 H   0  0  0  0  0  0  0  0  0  0  0  0
   45.2190   31.9330   50.4690 H   0  0  0  0  0  0  0  0  0  0  0  0
   46.5570   29.1050   46.5810 H   0  0  0  0  0  0  0  0  0  0  0  0
   49.4030   34.6850   42.0670 C   0  0  0  0  0  0  0  0  0  0  0  0
   49.2090   35.8130   41.2500 F   0  0  0  0  0  0  0  0  0  0  0  0
   49.9260   35.1500   43.2500 F   0  0  0  0  0  0  0  0  0  0  0  0
   50.2540   33.8120   41.4520 F   0  0  0  0  0  0  0  0  0  0  0  0
   47.3060   34.5860   40.1060 O   0  0  0  0  0  0  0  0  0  0  0  0
   47.3130   33.8650   38.9250 C   0  0  0  0  0  0  0  0  0  0  0  0
   48.4440   34.3340   38.2720 C   0  0  0  0  0  0  0  0  0  0  0  0
   48.4590   33.3720   36.6990 S   0  0  0  0  0  0  0  0  0  0  0  0
   46.8910   32.4820   37.2110 C   0  0  0  0  0  0  0  0  0  0  0  0
   46.7340   32.9650   38.1890 N   0  0  0  0  0  0  0  0  0  0  0  0
   49.4340   35.0350   38.1720 H   0  0  0  0  0  0  0  0  0  0  0  0
   46.1390   31.4580   36.4930 N   0  0  0  0  0  0  0  0  0  0  0  0
   45.0920   30.8100   37.0250 C   0  0  0  0  0  0  0  0  0  0  0  0
   44.7080   30.9870   38.0400 H   0  0  0  0  0  0  0  0  0  0  0  0
   44.6560   29.9530   36.0840 N   0  0  0  0  0  0  0  0  0  0  0  0
   45.4420   30.1030   35.0220 C   0  0  0  0  0  0  0  0  0  0  0  0
   45.4210   29.4570   33.7820 C   0  0  0  0  0  0  0  0  0  0  0  0
   44.6680   28.6930   33.5780 H   0  0  0  0  0  0  0  0  0  0  0  0
   46.3430   29.8000   32.8630 N   0  0  0  0  0  0  0  0  0  0  0  0
   47.2810   30.7380   33.0910 C   0  0  0  0  0  0  0  0  0  0  0  0
   47.9840   30.9470   32.2830 H   0  0  0  0  0  0  0  0  0  0  0  0
   47.2930   31.3610   34.3010 N   0  0  0  0  0  0  0  0  0  0  0  0
   46.4030   31.0650   35.2570 C   0  0  0  0  0  0  0  0  0  0  0  0
  1  6  1  0  0  0  0
  2  1  2  0  0  0  0
  2  3  1  0  0  0  0
  3  4  2  0  0  0  0
  4  5  1  0  0  0  0
  5  9  1  0  0  0  0
  6  5  2  0  0  0  0
  7  1  1  0  0  0  0
  8 16  1  0  0  0  0
  9  8  2  0  0  0  0
  9 10  1  0  0  0  0
 10 11  2  0  0  0  0
 11 15  1  0  0  0  0
 11 12  1  0  0  0  0
 12 19  1  0  0  0  0
 12 13  1  0  0  0  0
 13 20  1  0  0  0  0
 14 13  2  0  0  0  0
 15 14  1  0  0  0  0
 16 21  1  0  0  0  0
 16 15  2  0  0  0  0
 17  8  1  0  0  0  0
 18 10  1  0  0  0  0
 22  3  1  0  0  0  0
 22 24  1  0  0  0  0
 23 22  1  0  0  0  0
 25 22  1  0  0  0  0
 26  2  1  0  0  0  0
 27 26  1  0  0  0  0
 28 27  2  0  0  0  0
 29 30  1  0  0  0  0
 29 28  1  0  0  0  0
 30 31  2  0  0  0  0
 31 27  1  0  0  0  0
 32 28  1  0  0  0  0
 33 34  1  0  0  0  0
 33 30  1  0  0  0  0
 34 35  1  0  0  0  0
 36 34  2  0  0  0  0
 37 44  1  0  0  0  0
 37 36  1  0  0  0  0
 38 37  2  0  0  0  0
 39 38  1  0  0  0  0
 40 41  2  0  0  0  0
 40 38  1  0  0  0  0
 41 43  1  0  0  0  0
 42 41  1  0  0  0  0
 43 44  2  0  0  0  0
 44 33  1  0  0  0  0
M  END
>  <minimizedAffinity>
-7.08165646

>  <minimizedRMSD>
0.55026567

$$$$
