REMARK  Name = 
REMARK  6 active torsions:
REMARK  status: ('A' for Active; 'I' for Inactive)
REMARK    1  A    between atoms: C_2  and  C_14
REMARK    2  A    between atoms: C_5  and  C_8
REMARK    3  A    between atoms: C_7  and  O_12
REMARK    4  A    between atoms: C_11  and  O_13
REMARK    5  A    between atoms: C_14  and  C_15
REMARK    6  A    between atoms: C_20  and  N_36
REMARK                            x       y       z     vdW  Elec       q    Type
REMARK                         _______ _______ _______ _____ _____    ______ ____
ROOT
ATOM      1  C   UNL     1      45.921  35.614  42.716  0.00  0.00    +0.000 C 
ATOM      2  H   UNL     1      46.941  35.592  42.275  0.00  0.00    +0.000 HD
ATOM      3  H   UNL     1      45.762  36.676  43.004  0.00  0.00    +0.000 HD
ENDROOT
BRANCH   1   4
ATOM      4  C   UNL     1      44.939  35.173  41.715  0.00  0.00    +0.000 A 
ATOM      5  C   UNL     1      43.664  35.674  41.580  0.00  0.00    +0.000 A 
ATOM      6  C   UNL     1      42.781  35.221  40.632  0.00  0.00    +0.000 A 
ATOM      7  C   UNL     1      43.188  34.226  39.783  0.00  0.00    +0.000 A 
ATOM      8  C   UNL     1      44.474  33.701  39.897  0.00  0.00    +0.000 A 
ATOM      9  C   UNL     1      45.360  34.173  40.866  0.00  0.00    +0.000 A 
ATOM     10  H   UNL     1      43.429  36.458  42.295  0.00  0.00    +0.000 HD
ATOM     11  H   UNL     1      41.796  35.666  40.589  0.00  0.00    +0.000 HD
ATOM     12  H   UNL     1      42.450  33.913  39.060  0.00  0.00    +0.000 HD
ATOM     13  H   UNL     1      44.630  32.923  39.148  0.00  0.00    +0.000 HD
BRANCH   9  14
ATOM     14  N   UNL     1      46.586  33.468  40.727  0.00  0.00    +0.000 N 
ATOM     15  C   UNL     1      47.380  32.921  41.693  0.00  0.00    +0.000 A 
ATOM     16  H   UNL     1      47.193  32.941  42.750  0.00  0.00    +0.000 HD
ATOM     17  N   UNL     1      48.458  32.336  41.190  0.00  0.00    +0.000 NA
ATOM     18  C   UNL     1      48.382  32.496  39.857  0.00  0.00    +0.000 A 
ATOM     19  C   UNL     1      49.161  32.135  38.776  0.00  0.00    +0.000 A 
ATOM     20  H   UNL     1      50.078  31.584  38.954  0.00  0.00    +0.000 HD
ATOM     21  N   UNL     1      48.822  32.442  37.511  0.00  0.00    +0.000 NA
ATOM     22  C   UNL     1      47.691  33.125  37.241  0.00  0.00    +0.000 A 
ATOM     23  H   UNL     1      47.509  33.321  36.203  0.00  0.00    +0.000 HD
ATOM     24  N   UNL     1      46.898  33.497  38.287  0.00  0.00    +0.000 NA
ATOM     25  C   UNL     1      47.216  33.203  39.543  0.00  0.00    +0.000 A 
ENDBRANCH   9  14
ENDBRANCH   1   4
BRANCH   1  27
ATOM     26  C   UNL     1      45.004  34.909  44.902  0.00  0.00    +0.000 A 
ATOM     27  C   UNL     1      45.908  34.725  43.861  0.00  0.00    +0.000 A 
ATOM     28  C   UNL     1      46.792  33.653  43.977  0.00  0.00    +0.000 A 
ATOM     29  N   UNL     1      46.769  32.829  45.049  0.00  0.00    +0.000 NA
ATOM     30  C   UNL     1      45.870  33.042  46.042  0.00  0.00    +0.000 A 
ATOM     31  N   UNL     1      44.987  34.078  45.977  0.00  0.00    +0.000 NA
ATOM     32  H   UNL     1      44.327  35.743  44.799  0.00  0.00    +0.000 HD
ATOM     33  H   UNL     1      47.541  33.408  43.272  0.00  0.00    +0.000 HD
BRANCH  30  35
ATOM     34  C   UNL     1      47.326  31.838  47.659  0.00  0.00    +0.000 C 
ATOM     35  C   UNL     1      45.873  32.127  47.181  0.00  0.00    +0.000 C 
ATOM     36  O   UNL     1      45.367  32.617  48.336  0.00  0.00    +0.000 OA
ATOM     37  C   UNL     1      45.753  31.786  49.348  0.00  0.00    +0.000 C 
ATOM     38  C   UNL     1      46.950  30.990  48.880  0.00  0.00    +0.000 C 
ATOM     39  H   UNL     1      47.877  31.260  46.898  0.00  0.00    +0.000 HD
ATOM     40  H   UNL     1      45.419  31.133  46.956  0.00  0.00    +0.000 HD
ATOM     41  H   UNL     1      44.911  31.142  49.672  0.00  0.00    +0.000 HD
ATOM     42  H   UNL     1      46.019  32.402  50.233  0.00  0.00    +0.000 HD
ATOM     43  H   UNL     1      46.610  29.995  48.589  0.00  0.00    +0.000 HD
BRANCH  34  44
ATOM     44  O   UNL     1      47.908  32.966  48.098  0.00  0.00    +0.000 OA
ATOM     45  H   UNL     1      48.733  33.239  47.642  0.00  0.00    +0.000 HD
ENDBRANCH  34  44
BRANCH  38  46
ATOM     46  O   UNL     1      47.959  30.909  49.801  0.00  0.00    +0.000 OA
ATOM     47  H   UNL     1      47.560  30.709  50.694  0.00  0.00    +0.000 HD
ENDBRANCH  38  46
ENDBRANCH  30  35
ENDBRANCH   1  27
TORSDOF 6
