REMARK  Name = 
REMARK  6 active torsions:
REMARK  status: ('A' for Active; 'I' for Inactive)
REMARK    1  A    between atoms: C_1  and  C_7
REMARK    2  A    between atoms: C_2  and  C_15
REMARK    3  A    between atoms: C_5  and  C_9
REMARK    4  A    between atoms: C_15  and  C_16
REMARK    5  A    between atoms: C_18  and  C_19
REMARK    6  A    between atoms: C_21  and  N_41
REMARK                            x       y       z     vdW  Elec       q    Type
REMARK                         _______ _______ _______ _____ _____    ______ ____
ROOT
ATOM      1  C   UNL     1      45.892  31.501  48.258  0.00  0.00    +0.000 C 
ATOM      2  C   UNL     1      45.713  30.510  49.358  0.00  0.00    +0.000 C 
ATOM      3  C   UNL     1      46.921  31.332  49.305  0.00  0.00    +0.000 C 
ATOM      4  H   UNL     1      45.068  32.272  48.323  0.00  0.00    +0.000 HD
ATOM      5  H   UNL     1      45.872  29.424  49.135  0.00  0.00    +0.000 HD
ATOM      6  H   UNL     1      44.989  30.644  50.172  0.00  0.00    +0.000 HD
ATOM      7  H   UNL     1      46.998  32.144  50.058  0.00  0.00    +0.000 HD
ENDROOT
BRANCH   3   8
ATOM      8  C   UNL     1      48.237  30.745  48.905  0.00  0.00    +0.000 C 
ATOM      9  C   UNL     1      49.184  30.476  50.103  0.00  0.00    +0.000 C 
ATOM     10  C   UNL     1      49.493  31.573  49.179  0.00  0.00    +0.000 C 
ATOM     11  H   UNL     1      48.284  29.894  48.201  0.00  0.00    +0.000 HD
ATOM     12  H   UNL     1      48.835  30.778  51.110  0.00  0.00    +0.000 HD
ATOM     13  H   UNL     1      49.857  29.625  50.090  0.00  0.00    +0.000 HD
ATOM     14  H   UNL     1      49.289  32.645  49.455  0.00  0.00    +0.000 HD
BRANCH  10  15
ATOM     15  N   UNL     1      50.484  31.452  48.127  0.00  0.00    +0.000 N 
ATOM     16  C   UNL     1      50.179  31.499  46.817  0.00  0.00    +0.000 A 
ATOM     17  H   UNL     1      49.211  31.625  46.349  0.00  0.00    +0.000 HD
ATOM     18  N   UNL     1      51.309  31.359  46.094  0.00  0.00    +0.000 NA
ATOM     19  C   UNL     1      52.297  31.228  46.992  0.00  0.00    +0.000 A 
ATOM     20  C   UNL     1      53.662  31.056  46.772  0.00  0.00    +0.000 A 
ATOM     21  H   UNL     1      54.124  31.003  45.793  0.00  0.00    +0.000 HD
ATOM     22  N   UNL     1      54.445  30.950  47.864  0.00  0.00    +0.000 NA
ATOM     23  C   UNL     1      53.942  31.007  49.103  0.00  0.00    +0.000 A 
ATOM     24  H   UNL     1      54.572  30.921  49.979  0.00  0.00    +0.000 HD
ATOM     25  N   UNL     1      52.625  31.173  49.353  0.00  0.00    +0.000 NA
ATOM     26  C   UNL     1      51.810  31.283  48.296  0.00  0.00    +0.000 A 
ENDBRANCH  10  15
ENDBRANCH   3   8
BRANCH   1  27
ATOM     27  C   UNL     1      46.087  30.901  46.910  0.00  0.00    +0.000 C 
ATOM     28  H   UNL     1      45.221  30.200  46.743  0.00  0.00    +0.000 HD
ATOM     29  H   UNL     1      47.025  30.418  46.701  0.00  0.00    +0.000 HD
BRANCH  27  31
ATOM     30  C   UNL     1      45.759  33.135  46.234  0.00  0.00    +0.000 C 
ATOM     31  C   UNL     1      45.921  31.945  45.830  0.00  0.00    +0.000 C 
BRANCH  30  36
ATOM     32  C   UNL     1      44.537  36.144  44.490  0.00  0.00    +0.000 A 
ATOM     33  C   UNL     1      45.207  36.095  43.273  0.00  0.00    +0.000 A 
ATOM     34  C   UNL     1      46.045  35.043  43.094  0.00  0.00    +0.000 A 
ATOM     35  N   UNL     1      46.203  34.104  44.066  0.00  0.00    +0.000 NA
ATOM     36  C   UNL     1      45.533  34.186  45.239  0.00  0.00    +0.000 A 
ATOM     37  N   UNL     1      44.718  35.208  45.414  0.00  0.00    +0.000 NA
ATOM     38  H   UNL     1      43.861  36.966  44.671  0.00  0.00    +0.000 HD
ATOM     39  H   UNL     1      45.109  36.813  42.486  0.00  0.00    +0.000 HD
BRANCH  34  40
ATOM     40  C   UNL     1      46.817  34.857  41.867  0.00  0.00    +0.000 A 
ATOM     41  C   UNL     1      48.049  35.412  41.630  0.00  0.00    +0.000 A 
ATOM     42  C   UNL     1      48.771  35.231  40.471  0.00  0.00    +0.000 A 
ATOM     43  C   UNL     1      48.247  34.442  39.458  0.00  0.00    +0.000 A 
ATOM     44  C   UNL     1      47.017  33.864  39.644  0.00  0.00    +0.000 A 
ATOM     45  C   UNL     1      46.346  34.086  40.830  0.00  0.00    +0.000 A 
ATOM     46  H   UNL     1      48.492  36.043  42.416  0.00  0.00    +0.000 HD
ATOM     47  H   UNL     1      49.747  35.688  40.319  0.00  0.00    +0.000 HD
ATOM     48  H   UNL     1      48.799  34.294  38.553  0.00  0.00    +0.000 HD
ATOM     49  H   UNL     1      46.578  33.247  38.885  0.00  0.00    +0.000 HD
ATOM     50  H   UNL     1      45.369  33.601  40.929  0.00  0.00    +0.000 HD
ENDBRANCH  34  40
ENDBRANCH  30  36
ENDBRANCH  27  31
ENDBRANCH   1  27
TORSDOF 6
