
     RDKit          3D

 34 37  0  0  0  0  0  0  0  0999 V2000
   46.7020   34.2532   40.6858 C   0  0  0  0  0  0  0  0  0  0  0  0
   48.0445   34.1894   41.2957 C   0  0  0  0  0  0  0  0  0  0  0  0
   48.7372   32.9812   41.1851 C   0  0  0  0  0  0  0  0  0  0  0  0
   49.9974   32.8600   41.7355 C   0  0  0  0  0  0  0  0  0  0  0  0
   50.5219   33.9437   42.3751 N   0  0  0  0  0  0  0  0  0  0  0  0
   49.8301   35.0952   42.4656 C   0  0  0  0  0  0  0  0  0  0  0  0
   48.6136   35.2048   41.9316 N   0  0  0  0  0  0  0  0  0  0  0  0
   47.9903   31.5850   40.3272 S   0  0  0  0  0  0  0  0  0  0  0  0
   45.6202   34.6048   41.6624 C   0  0  0  0  0  0  0  0  0  0  0  0
   44.2555   34.6700   41.0646 C   0  0  0  0  0  0  0  0  0  0  0  0
   43.2157   35.3924   41.7278 C   0  0  0  0  0  0  0  0  0  0  0  0
   41.7741   35.1564   40.5893 S   0  0  0  0  0  0  0  0  0  0  0  0
   42.8344   34.1283   39.4284 C   0  0  0  0  0  0  0  0  0  0  0  0
   43.8452   34.1236   39.9438 N   0  0  0  0  0  0  0  0  0  0  0  0
   46.7522   35.1263   39.9700 H   0  0  0  0  0  0  0  0  0  0  0  0
   46.4840   33.3900   40.0666 H   0  0  0  0  0  0  0  0  0  0  0  0
   50.5039   31.9122   41.6313 H   0  0  0  0  0  0  0  0  0  0  0  0
   50.3322   35.9155   42.9993 H   0  0  0  0  0  0  0  0  0  0  0  0
   48.0028   30.4902   41.1943 H   0  0  0  0  0  0  0  0  0  0  0  0
   45.8618   35.6553   42.0022 H   0  0  0  0  0  0  0  0  0  0  0  0
   45.6568   33.9951   42.5899 H   0  0  0  0  0  0  0  0  0  0  0  0
   43.3093   35.9280   42.6667 H   0  0  0  0  0  0  0  0  0  0  0  0
   42.4177   33.5036   38.1740 N   0  0  0  0  0  0  0  0  0  0  0  0
   41.1513   33.3949   37.8018 C   0  0  0  0  0  0  0  0  0  0  0  0
   40.2349   33.6987   38.2674 H   0  0  0  0  0  0  0  0  0  0  0  0
   41.1565   32.7736   36.6087 N   0  0  0  0  0  0  0  0  0  0  0  0
   42.4248   32.5122   36.2701 C   0  0  0  0  0  0  0  0  0  0  0  0
   43.0526   31.9067   35.1878 C   0  0  0  0  0  0  0  0  0  0  0  0
   42.4170   31.5333   34.3883 H   0  0  0  0  0  0  0  0  0  0  0  0
   44.3778   31.7606   35.0783 N   0  0  0  0  0  0  0  0  0  0  0  0
   45.1486   32.2286   36.0768 C   0  0  0  0  0  0  0  0  0  0  0  0
   46.2367   32.1229   36.0142 H   0  0  0  0  0  0  0  0  0  0  0  0
   44.5801   32.8293   37.1575 N   0  0  0  0  0  0  0  0  0  0  0  0
   43.2584   32.9742   37.2654 C   0  0  0  0  0  0  0  0  0  0  0  0
  1  2  1  0
  1  9  1  0
  2  7  1  0
  3  2  2  0
  3  4  1  0
  4  5  2  0
  5  6  1  0
  7  6  2  0
  8  3  1  0
 10  9  1  0
 10 11  2  0
 12 11  1  0
 13 14  2  0
 13 12  1  0
 14 10  1  0
  1 15  1  0
  1 16  1  0
  4 17  1  0
  6 18  1  0
  8 19  1  0
  9 20  1  0
  9 21  1  0
 11 22  1  0
 23 24  1  0
 24 25  1  0
 24 26  2  0
 26 27  1  0
 27 28  2  0
 28 29  1  0
 28 30  1  0
 30 31  2  0
 31 32  1  0
 31 33  1  0
 33 34  2  0
 34 23  1  0
 34 27  1  0
 13 23  1  0
M  ISO  8  15   8  16   8  17  14  18  14  19  11  20   8  21   8  22  14
M  ISO  3  25  15  29  16  32  16
M  END
>  <DihAtoms>  (1) 
13,12,22,23

>  <DihDeg>  (1) 
-57.04801136164335

$$$$
