
 OpenBabel03252507433D

 34 37  0  0  0  0  0  0  0  0999 V2000
   44.4440   34.7480   41.4350 C   0  0  0  0  0  0  0  0  0  0  0  0
   43.5100   35.6810   41.9810 C   0  0  0  0  0  0  0  0  0  0  0  0
   41.9360   35.2260   41.1170 S   0  0  0  0  0  0  0  0  0  0  0  0
   42.8230   33.8630   40.1770 C   0  0  0  0  0  0  0  0  0  0  0  0
   43.8880   33.9420   40.5610 N   0  0  0  0  0  0  0  0  0  0  0  0
   43.7290   36.4470   42.7190 H   0  0  0  0  0  0  0  0  0  0  0  0
   42.2430   32.9450   39.1990 N   0  0  0  0  0  0  0  0  0  0  0  0
   42.9710   32.1660   38.4120 C   0  0  0  0  0  0  0  0  0  0  0  0
   44.0290   32.0320   38.3110 H   0  0  0  0  0  0  0  0  0  0  0  0
   42.1030   31.4710   37.6550 N   0  0  0  0  0  0  0  0  0  0  0  0
   40.8590   31.8360   37.9900 C   0  0  0  0  0  0  0  0  0  0  0  0
   39.5800   31.4810   37.5740 C   0  0  0  0  0  0  0  0  0  0  0  0
   39.5020   30.7320   36.7900 H   0  0  0  0  0  0  0  0  0  0  0  0
   38.4580   32.0050   38.0790 N   0  0  0  0  0  0  0  0  0  0  0  0
   38.5740   32.9290   39.0490 C   0  0  0  0  0  0  0  0  0  0  0  0
   37.6730   33.3750   39.4810 H   0  0  0  0  0  0  0  0  0  0  0  0
   39.8040   33.3090   39.4900 N   0  0  0  0  0  0  0  0  0  0  0  0
   40.9230   32.7860   38.9860 C   0  0  0  0  0  0  0  0  0  0  0  0
   45.8690   34.7710   41.8730 C   0  0  0  0  0  0  0  0  0  0  0  0
   46.1390   35.8610   41.9990 H   0  0  0  0  0  0  0  0  0  0  0  0
   46.0180   34.3280   42.8810 H   0  0  0  0  0  0  0  0  0  0  0  0
   46.8350   34.2460   40.8540 C   0  0  0  0  0  0  0  0  0  0  0  0
   46.9310   35.0680   40.0840 H   0  0  0  0  0  0  0  0  0  0  0  0
   46.4800   33.3820   40.3040 H   0  0  0  0  0  0  0  0  0  0  0  0
   48.2000   34.0610   41.3810 C   0  0  0  0  0  0  0  0  0  0  0  0
   48.8440   32.8600   41.0740 C   0  0  0  0  0  0  0  0  0  0  0  0
   50.1240   32.6290   41.5380 C   0  0  0  0  0  0  0  0  0  0  0  0
   50.7160   33.6010   42.2890 N   0  0  0  0  0  0  0  0  0  0  0  0
   50.0700   34.7480   42.5690 C   0  0  0  0  0  0  0  0  0  0  0  0
   48.8350   34.9650   42.1170 N   0  0  0  0  0  0  0  0  0  0  0  0
   50.5910   31.6900   41.2810 H   0  0  0  0  0  0  0  0  0  0  0  0
   50.6250   35.4740   43.1810 H   0  0  0  0  0  0  0  0  0  0  0  0
   48.0090   31.6150   40.0750 S   0  0  0  0  0  0  0  0  0  0  0  0
   48.0240   30.4130   40.7860 H   0  0  0  0  0  0  0  0  0  0  0  0
  1 19  1  0  0  0  0
  1  2  2  0  0  0  0
  2  6  1  0  0  0  0
  3  2  1  0  0  0  0
  4  5  2  0  0  0  0
  4  3  1  0  0  0  0
  5  1  1  0  0  0  0
  7  4  1  0  0  0  0
  8  7  1  0  0  0  0
  9  8  1  0  0  0  0
 10 11  1  0  0  0  0
 10  8  2  0  0  0  0
 11 18  1  0  0  0  0
 12 11  2  0  0  0  0
 12 14  1  0  0  0  0
 13 12  1  0  0  0  0
 14 15  2  0  0  0  0
 15 16  1  0  0  0  0
 15 17  1  0  0  0  0
 18  7  1  0  0  0  0
 18 17  2  0  0  0  0
 19 20  1  0  0  0  0
 19 21  1  0  0  0  0
 22 25  1  0  0  0  0
 22 19  1  0  0  0  0
 23 22  1  0  0  0  0
 24 22  1  0  0  0  0
 25 30  1  0  0  0  0
 26 25  2  0  0  0  0
 26 27  1  0  0  0  0
 27 28  2  0  0  0  0
 28 29  1  0  0  0  0
 29 32  1  0  0  0  0
 30 29  2  0  0  0  0
 31 27  1  0  0  0  0
 33 34  1  0  0  0  0
 33 26  1  0  0  0  0
M  END
>  <minimizedAffinity>
-5.02540684

>  <minimizedRMSD>
1.06293261

$$$$
