
 OpenBabel03252502153D

 27 29  0  0  0  0  0  0  0  0999 V2000
   46.9220   34.8770   42.7400 C   0  0  0  0  0  0  0  0  0  0  0  0
   47.2710   33.7510   43.4920 C   0  0  0  0  0  0  0  0  0  0  0  0
   46.4090   33.3650   44.5180 C   0  0  0  0  0  0  0  0  0  0  0  0
   45.2840   34.0760   44.7480 N   0  0  0  0  0  0  0  0  0  0  0  0
   44.9710   35.1610   44.0030 C   0  0  0  0  0  0  0  0  0  0  0  0
   45.7900   35.5660   42.9960 N   0  0  0  0  0  0  0  0  0  0  0  0
   47.5240   35.2580   41.9220 H   0  0  0  0  0  0  0  0  0  0  0  0
   44.0440   35.6440   44.2890 H   0  0  0  0  0  0  0  0  0  0  0  0
   46.8050   32.2150   45.2560 N   0  0  0  0  0  0  0  0  0  0  0  0
   47.4540   31.1510   44.7500 C   0  0  0  0  0  0  0  0  0  0  0  0
   47.7930   30.9470   43.7470 H   0  0  0  0  0  0  0  0  0  0  0  0
   47.6600   30.2530   45.7600 N   0  0  0  0  0  0  0  0  0  0  0  0
   47.1290   30.7960   46.8620 C   0  0  0  0  0  0  0  0  0  0  0  0
   47.0610   30.3090   48.1710 C   0  0  0  0  0  0  0  0  0  0  0  0
   47.4680   29.3510   48.4600 H   0  0  0  0  0  0  0  0  0  0  0  0
   46.4510   31.0970   49.0930 N   0  0  0  0  0  0  0  0  0  0  0  0
   45.9280   32.2970   48.7840 C   0  0  0  0  0  0  0  0  0  0  0  0
   45.4470   32.9070   49.5340 H   0  0  0  0  0  0  0  0  0  0  0  0
   45.9740   32.8080   47.5190 N   0  0  0  0  0  0  0  0  0  0  0  0
   46.5790   32.0470   46.5640 C   0  0  0  0  0  0  0  0  0  0  0  0
   48.4460   33.1050   43.1630 O   0  0  0  0  0  0  0  0  0  0  0  0
   50.9220   33.0450   42.2670 O   0  0  0  0  0  0  0  0  0  0  0  0
   49.7260   33.9210   42.3900 P   0  0  0  0  0  0  0  0  0  0  0  0
   49.2890   34.4000   40.8180 O   0  0  0  0  0  0  0  0  0  0  0  0
   49.6200   35.3080   40.6170 H   0  0  0  0  0  0  0  0  0  0  0  0
   50.1430   35.3190   43.2570 O   0  0  0  0  0  0  0  0  0  0  0  0
   49.5420   36.0520   42.9630 H   0  0  0  0  0  0  0  0  0  0  0  0
  1  6  2  0  0  0  0
  1  2  1  0  0  0  0
  2  3  2  0  0  0  0
  3  4  1  0  0  0  0
  3  9  1  0  0  0  0
  5  8  1  0  0  0  0
  5  4  2  0  0  0  0
  6  5  1  0  0  0  0
  7  1  1  0  0  0  0
  9 20  1  0  0  0  0
 10  9  1  0  0  0  0
 10 12  2  0  0  0  0
 11 10  1  0  0  0  0
 12 13  1  0  0  0  0
 13 14  1  0  0  0  0
 14 15  1  0  0  0  0
 14 16  2  0  0  0  0
 17 16  1  0  0  0  0
 17 18  1  0  0  0  0
 19 17  2  0  0  0  0
 20 13  2  0  0  0  0
 20 19  1  0  0  0  0
 21  2  1  0  0  0  0
 22 23  2  0  0  0  0
 23 21  1  0  0  0  0
 23 26  1  0  0  0  0
 24 23  1  0  0  0  0
 25 24  1  0  0  0  0
 27 26  1  0  0  0  0
M  END
>  <minimizedAffinity>
-5.9528141

>  <minimizedRMSD>
1.02492714

$$$$
