
 OpenBabel03252501093D

 43 47  0  0  1  0  0  0  0  0999 V2000
   37.5210   29.5030   42.5380 O   0  0  0  0  0  0  0  0  0  0  0  0
   38.8930   29.6440   42.6050 C   0  0  0  0  0  0  0  0  0  0  0  0
   39.6290   30.8160   42.5280 C   0  0  0  0  0  0  0  0  0  0  0  0
   40.9880   30.7940   42.6100 C   0  0  0  0  0  0  0  0  0  0  0  0
   41.6670   29.6010   42.7740 C   0  0  0  0  0  0  0  0  0  0  0  0
   40.8820   28.4470   42.8470 C   0  0  0  0  0  0  0  0  0  0  0  0
   39.5320   28.4890   42.7630 N   0  0  0  0  0  0  0  0  0  0  0  0
   39.0320   31.7100   42.4000 H   0  0  0  0  0  0  0  0  0  0  0  0
   41.5040   31.7350   42.5430 H   0  0  0  0  0  0  0  0  0  0  0  0
   42.7460   29.5690   42.8410 H   0  0  0  0  0  0  0  0  0  0  0  0
   41.6220   27.2420   43.0150 N   0  0  0  0  0  0  0  0  0  0  0  0
   41.2280   25.9440   43.1630 C   0  0  0  0  0  0  0  0  0  0  0  0
   40.1780   25.6770   43.1670 H   0  0  0  0  0  0  0  0  0  0  0  0
   42.3360   25.1900   43.2880 N   0  0  0  0  0  0  0  0  0  0  0  0
   43.4460   25.9580   43.2240 C   0  0  0  0  0  0  0  0  0  0  0  0
   44.8010   25.7050   43.2940 C   0  0  0  0  0  0  0  0  0  0  0  0
   45.1330   24.6880   43.4270 H   0  0  0  0  0  0  0  0  0  0  0  0
   45.6780   26.7120   43.1950 N   0  0  0  0  0  0  0  0  0  0  0  0
   45.2210   27.9620   43.0280 C   0  0  0  0  0  0  0  0  0  0  0  0
   45.7850   28.8790   42.9310 H   0  0  0  0  0  0  0  0  0  0  0  0
   43.9030   28.2250   42.9590 N   0  0  0  0  0  0  0  0  0  0  0  0
   42.9760   27.2480   43.0530 C   0  0  0  0  0  0  0  0  0  0  0  0
   35.6860   28.5260   41.0720 O   0  0  0  0  0  0  0  0  0  0  0  0
   36.6070   29.7440   41.1500 P   0  0  1  0  0  0  0  0  0  0  0  0
   35.5820   31.0630   41.4330 O   0  0  0  0  0  0  0  0  0  0  0  0
   36.0460   31.7850   41.9390 H   0  0  0  0  0  0  0  0  0  0  0  0
   37.5610   29.8900   39.8300 O   0  0  0  0  0  0  0  0  0  0  0  0
   37.3490   31.6640   38.1950 C   0  0  1  0  0  0  0  0  0  0  0  0
   37.8820   30.5290   37.4320 C   0  0  0  0  0  0  0  0  0  0  0  0
   37.0110   30.3210   38.6820 C   0  0  1  0  0  0  0  0  0  0  0  0
   36.5110   32.2530   37.7900 H   0  0  0  0  0  0  0  0  0  0  0  0
   38.9170   30.1440   37.5940 H   0  0  0  0  0  0  0  0  0  0  0  0
   37.4990   30.2790   36.4450 H   0  0  0  0  0  0  0  0  0  0  0  0
   36.0590   29.8380   38.3880 H   0  0  0  0  0  0  0  0  0  0  0  0
   38.8820   34.0530   40.7040 C   0  0  0  0  0  0  0  0  0  0  0  0
   37.9300   33.3490   39.9730 C   0  0  0  0  0  0  0  0  0  0  0  0
   38.3630   32.4250   39.0010 C   0  0  0  0  0  0  0  0  0  0  0  0
   39.6900   32.2460   38.8010 N   0  0  0  0  0  0  0  0  0  0  0  0
   40.6020   32.9470   39.5270 C   0  0  0  0  0  0  0  0  0  0  0  0
   40.1950   33.8490   40.4790 N   0  0  0  0  0  0  0  0  0  0  0  0
   38.5950   34.7700   41.4590 H   0  0  0  0  0  0  0  0  0  0  0  0
   36.8880   33.5200   40.1640 H   0  0  0  0  0  0  0  0  0  0  0  0
   41.6410   32.7400   39.3000 H   0  0  0  0  0  0  0  0  0  0  0  0
  1  2  1  0  0  0  0
  2  7  1  0  0  0  0
  3  2  2  0  0  0  0
  3  4  1  0  0  0  0
  4  5  2  0  0  0  0
  5 10  1  0  0  0  0
  5  6  1  0  0  0  0
  6 11  1  0  0  0  0
  7  6  2  0  0  0  0
  8  3  1  0  0  0  0
  9  4  1  0  0  0  0
 11 22  1  0  0  0  0
 11 12  1  0  0  0  0
 12 13  1  0  0  0  0
 12 14  2  0  0  0  0
 15 14  1  0  0  0  0
 15 16  1  0  0  0  0
 16 17  1  0  0  0  0
 18 16  2  0  0  0  0
 19 18  1  0  0  0  0
 20 19  1  0  0  0  0
 21 19  2  0  0  0  0
 21 22  1  0  0  0  0
 22 15  2  0  0  0  0
 24 23  2  6  0  0  0
 24 25  1  0  0  0  0
 24  1  1  0  0  0  0
 25 26  1  0  0  0  0
 27 24  1  0  0  0  0
 28 31  1  6  0  0  0
 28 30  1  0  0  0  0
 28 37  1  0  0  0  0
 29 32  1  0  0  0  0
 29 28  1  0  0  0  0
 29 30  1  0  0  0  0
 30 34  1  6  0  0  0
 30 27  1  0  0  0  0
 33 29  1  0  0  0  0
 35 41  1  0  0  0  0
 36 42  1  0  0  0  0
 36 35  2  0  0  0  0
 37 36  1  0  0  0  0
 38 37  2  0  0  0  0
 38 39  1  0  0  0  0
 39 40  2  0  0  0  0
 40 35  1  0  0  0  0
 43 39  1  0  0  0  0
M  END
>  <minimizedAffinity>
-6.3810215

$$$$

 OpenBabel03252501093D

 43 47  0  0  1  0  0  0  0  0999 V2000
   36.1400   30.7360   40.2710 O   0  0  0  0  0  0  0  0  0  0  0  0
   37.3410   31.3300   39.9410 C   0  0  0  0  0  0  0  0  0  0  0  0
   37.7960   32.5860   40.3120 C   0  0  0  0  0  0  0  0  0  0  0  0
   39.0140   33.0370   39.9040 C   0  0  0  0  0  0  0  0  0  0  0  0
   39.8280   32.2520   39.1090 C   0  0  0  0  0  0  0  0  0  0  0  0
   39.3270   30.9940   38.7610 C   0  0  0  0  0  0  0  0  0  0  0  0
   38.1130   30.5630   39.1770 N   0  0  0  0  0  0  0  0  0  0  0  0
   37.1060   33.1440   40.9330 H   0  0  0  0  0  0  0  0  0  0  0  0
   39.3110   34.0200   40.2230 H   0  0  0  0  0  0  0  0  0  0  0  0
   40.7980   32.5970   38.7770 H   0  0  0  0  0  0  0  0  0  0  0  0
   40.1980   30.2200   37.9420 N   0  0  0  0  0  0  0  0  0  0  0  0
   40.0900   28.9570   37.4360 C   0  0  0  0  0  0  0  0  0  0  0  0
   39.2160   28.3480   37.6380 H   0  0  0  0  0  0  0  0  0  0  0  0
   41.2020   28.7040   36.7210 N   0  0  0  0  0  0  0  0  0  0  0  0
   42.0360   29.7670   36.7440 C   0  0  0  0  0  0  0  0  0  0  0  0
   43.2730   30.0360   36.1940 C   0  0  0  0  0  0  0  0  0  0  0  0
   43.7510   29.2770   35.5940 H   0  0  0  0  0  0  0  0  0  0  0  0
   43.8590   31.2210   36.4060 N   0  0  0  0  0  0  0  0  0  0  0  0
   43.2280   32.1360   37.1570 C   0  0  0  0  0  0  0  0  0  0  0  0
   43.5560   33.1310   37.4240 H   0  0  0  0  0  0  0  0  0  0  0  0
   42.0220   31.8890   37.7010 N   0  0  0  0  0  0  0  0  0  0  0  0
   41.3860   30.7120   37.5190 C   0  0  0  0  0  0  0  0  0  0  0  0
   34.2080   29.0940   40.0600 O   0  0  0  0  0  0  0  0  0  0  0  0
   35.7260   29.1520   39.8920 P   0  0  1  0  0  0  0  0  0  0  0  0
   36.0020   28.9340   38.2340 O   0  0  0  0  0  0  0  0  0  0  0  0
   36.8380   29.3880   37.9390 H   0  0  0  0  0  0  0  0  0  0  0  0
   36.5030   28.0880   40.8600 O   0  0  0  0  0  0  0  0  0  0  0  0
   36.9080   27.1600   43.0600 C   0  0  1  0  0  0  0  0  0  0  0  0
   37.6250   28.4400   43.0690 C   0  0  0  0  0  0  0  0  0  0  0  0
   36.3820   28.2200   42.1910 C   0  0  1  0  0  0  0  0  0  0  0  0
   36.2730   26.8800   43.9150 H   0  0  0  0  0  0  0  0  0  0  0  0
   38.5340   28.6110   42.4430 H   0  0  0  0  0  0  0  0  0  0  0  0
   37.5840   29.1070   43.9270 H   0  0  0  0  0  0  0  0  0  0  0  0
   35.5660   28.8820   42.5410 H   0  0  0  0  0  0  0  0  0  0  0  0
   37.6040   23.8040   41.4450 C   0  0  0  0  0  0  0  0  0  0  0  0
   36.9250   24.8420   42.0760 C   0  0  0  0  0  0  0  0  0  0  0  0
   37.6220   26.0320   42.3690 C   0  0  0  0  0  0  0  0  0  0  0  0
   38.9290   26.1360   42.0330 N   0  0  0  0  0  0  0  0  0  0  0  0
   39.5710   25.1060   41.4180 C   0  0  0  0  0  0  0  0  0  0  0  0
   38.9060   23.9410   41.1250 N   0  0  0  0  0  0  0  0  0  0  0  0
   37.1090   22.8750   41.2010 H   0  0  0  0  0  0  0  0  0  0  0  0
   35.8890   24.7190   42.3250 H   0  0  0  0  0  0  0  0  0  0  0  0
   40.6150   25.2760   41.1870 H   0  0  0  0  0  0  0  0  0  0  0  0
  2  1  1  0  0  0  0
  2  3  1  0  0  0  0
  3  8  1  0  0  0  0
  4  9  1  0  0  0  0
  4  3  2  0  0  0  0
  5  4  1  0  0  0  0
  6  5  2  0  0  0  0
  6  7  1  0  0  0  0
  7  2  2  0  0  0  0
 10  5  1  0  0  0  0
 11  6  1  0  0  0  0
 12 13  1  0  0  0  0
 12 11  1  0  0  0  0
 14 15  1  0  0  0  0
 14 12  2  0  0  0  0
 15 22  1  0  0  0  0
 16 18  1  0  0  0  0
 16 15  2  0  0  0  0
 17 16  1  0  0  0  0
 18 19  2  0  0  0  0
 19 20  1  0  0  0  0
 19 21  1  0  0  0  0
 22 21  2  0  0  0  0
 22 11  1  0  0  0  0
 24 23  2  1  0  0  0
 24  1  1  0  0  0  0
 24 27  1  0  0  0  0
 25 24  1  0  0  0  0
 26 25  1  0  0  0  0
 27 30  1  0  0  0  0
 28 29  1  0  0  0  0
 28 31  1  1  0  0  0
 29 33  1  0  0  0  0
 30 34  1  1  0  0  0
 30 28  1  0  0  0  0
 30 29  1  0  0  0  0
 32 29  1  0  0  0  0
 35 36  1  0  0  0  0
 36 42  1  0  0  0  0
 36 37  2  0  0  0  0
 37 28  1  0  0  0  0
 38 37  1  0  0  0  0
 39 38  2  0  0  0  0
 40 39  1  0  0  0  0
 40 35  2  0  0  0  0
 41 35  1  0  0  0  0
 43 39  1  0  0  0  0
M  END
>  <minimizedAffinity>
-6.06683397

$$$$

 OpenBabel03252501093D

 43 47  0  0  1  0  0  0  0  0999 V2000
   37.0930   32.0990   40.7020 O   0  0  0  0  0  0  0  0  0  0  0  0
   36.9060   30.7350   40.7990 C   0  0  0  0  0  0  0  0  0  0  0  0
   35.8080   29.9980   40.3830 C   0  0  0  0  0  0  0  0  0  0  0  0
   35.7700   28.6470   40.5480 C   0  0  0  0  0  0  0  0  0  0  0  0
   36.8270   27.9770   41.1340 C   0  0  0  0  0  0  0  0  0  0  0  0
   37.9120   28.7610   41.5370 C   0  0  0  0  0  0  0  0  0  0  0  0
   37.9310   30.1040   41.3640 N   0  0  0  0  0  0  0  0  0  0  0  0
   35.0190   30.5890   39.9340 H   0  0  0  0  0  0  0  0  0  0  0  0
   34.8910   28.1310   40.2060 H   0  0  0  0  0  0  0  0  0  0  0  0
   36.8100   26.9040   41.2710 H   0  0  0  0  0  0  0  0  0  0  0  0
   38.9770   28.0300   42.1350 N   0  0  0  0  0  0  0  0  0  0  0  0
   40.1940   28.4200   42.6120 C   0  0  0  0  0  0  0  0  0  0  0  0
   40.5020   29.4590   42.5740 H   0  0  0  0  0  0  0  0  0  0  0  0
   40.8240   27.3250   43.0770 N   0  0  0  0  0  0  0  0  0  0  0  0
   40.0520   26.2270   42.9180 C   0  0  0  0  0  0  0  0  0  0  0  0
   40.2060   24.8880   43.2120 C   0  0  0  0  0  0  0  0  0  0  0  0
   41.1220   24.5600   43.6770 H   0  0  0  0  0  0  0  0  0  0  0  0
   39.2280   24.0200   42.9220 N   0  0  0  0  0  0  0  0  0  0  0  0
   38.1040   24.4710   42.3460 C   0  0  0  0  0  0  0  0  0  0  0  0
   37.2280   23.9130   42.0490 H   0  0  0  0  0  0  0  0  0  0  0  0
   37.9400   25.7750   42.0520 N   0  0  0  0  0  0  0  0  0  0  0  0
   38.8920   26.6920   42.3230 C   0  0  0  0  0  0  0  0  0  0  0  0
   37.4290   31.8860   38.1900 O   0  0  0  0  0  0  0  0  0  0  0  0
   37.6390   32.8890   39.3240 P   0  0  1  0  0  0  0  0  0  0  0  0
   36.5650   34.1600   39.0020 O   0  0  0  0  0  0  0  0  0  0  0  0
   36.2750   34.6150   39.8400 H   0  0  0  0  0  0  0  0  0  0  0  0
   39.2030   33.3380   39.4780 O   0  0  0  0  0  0  0  0  0  0  0  0
   40.8760   31.9980   40.6060 C   0  0  1  0  0  0  0  0  0  0  0  0
   41.3410   33.3790   40.7780 C   0  0  0  0  0  0  0  0  0  0  0  0
   39.8480   33.0470   40.6200 C   0  0  1  0  0  0  0  0  0  0  0  0
   40.8720   31.3090   41.4650 H   0  0  0  0  0  0  0  0  0  0  0  0
   41.7110   33.9880   39.9180 H   0  0  0  0  0  0  0  0  0  0  0  0
   41.7300   33.7320   41.7300 H   0  0  0  0  0  0  0  0  0  0  0  0
   39.3160   33.3010   41.5570 H   0  0  0  0  0  0  0  0  0  0  0  0
   40.8240   29.6340   37.6460 C   0  0  0  0  0  0  0  0  0  0  0  0
   40.5260   30.1940   38.8840 C   0  0  0  0  0  0  0  0  0  0  0  0
   41.1770   31.3850   39.2680 C   0  0  0  0  0  0  0  0  0  0  0  0
   42.0730   31.9510   38.4260 N   0  0  0  0  0  0  0  0  0  0  0  0
   42.3490   31.3830   37.2210 C   0  0  0  0  0  0  0  0  0  0  0  0
   41.7220   30.2240   36.8330 N   0  0  0  0  0  0  0  0  0  0  0  0
   40.3480   28.7230   37.3120 H   0  0  0  0  0  0  0  0  0  0  0  0
   39.8080   29.7140   39.5200 H   0  0  0  0  0  0  0  0  0  0  0  0
   43.0790   31.9030   36.6130 H   0  0  0  0  0  0  0  0  0  0  0  0
  1  2  1  0  0  0  0
  2  7  1  0  0  0  0
  3  4  1  0  0  0  0
  3  2  2  0  0  0  0
  4  5  2  0  0  0  0
  5 10  1  0  0  0  0
  5  6  1  0  0  0  0
  6 11  1  0  0  0  0
  7  6  2  0  0  0  0
  8  3  1  0  0  0  0
  9  4  1  0  0  0  0
 11 22  1  0  0  0  0
 11 12  1  0  0  0  0
 12 14  2  0  0  0  0
 13 12  1  0  0  0  0
 15 14  1  0  0  0  0
 15 16  1  0  0  0  0
 16 17  1  0  0  0  0
 18 16  2  0  0  0  0
 19 18  1  0  0  0  0
 20 19  1  0  0  0  0
 21 22  1  0  0  0  0
 21 19  2  0  0  0  0
 22 15  2  0  0  0  0
 24 23  2  6  0  0  0
 24 27  1  0  0  0  0
 24  1  1  0  0  0  0
 25 24  1  0  0  0  0
 25 26  1  0  0  0  0
 27 30  1  0  0  0  0
 28 30  1  0  0  0  0
 28 29  1  0  0  0  0
 28 31  1  1  0  0  0
 29 33  1  0  0  0  0
 30 29  1  0  0  0  0
 30 34  1  1  0  0  0
 32 29  1  0  0  0  0
 35 36  1  0  0  0  0
 36 37  2  0  0  0  0
 36 42  1  0  0  0  0
 37 28  1  0  0  0  0
 38 37  1  0  0  0  0
 39 38  2  0  0  0  0
 40 39  1  0  0  0  0
 40 35  2  0  0  0  0
 41 35  1  0  0  0  0
 43 39  1  0  0  0  0
M  END
>  <minimizedAffinity>
-6.04997158

$$$$

 OpenBabel03252501093D

 43 47  0  0  1  0  0  0  0  0999 V2000
   36.7510   29.9080   38.8220 O   0  0  0  0  0  0  0  0  0  0  0  0
   38.0530   29.8340   38.3680 C   0  0  0  0  0  0  0  0  0  0  0  0
   38.6690   28.7670   37.7330 C   0  0  0  0  0  0  0  0  0  0  0  0
   39.9710   28.8450   37.3420 C   0  0  0  0  0  0  0  0  0  0  0  0
   40.7100   29.9910   37.5680 C   0  0  0  0  0  0  0  0  0  0  0  0
   40.0450   31.0400   38.2110 C   0  0  0  0  0  0  0  0  0  0  0  0
   38.7500   30.9430   38.5920 N   0  0  0  0  0  0  0  0  0  0  0  0
   38.0310   27.9040   37.5900 H   0  0  0  0  0  0  0  0  0  0  0  0
   40.3940   27.9850   36.8550 H   0  0  0  0  0  0  0  0  0  0  0  0
   41.7440   30.0670   37.2630 H   0  0  0  0  0  0  0  0  0  0  0  0
   40.8430   32.1990   38.4230 N   0  0  0  0  0  0  0  0  0  0  0  0
   40.5560   33.4160   38.9700 C   0  0  0  0  0  0  0  0  0  0  0  0
   39.5620   33.6390   39.3420 H   0  0  0  0  0  0  0  0  0  0  0  0
   41.6760   34.1600   38.9310 N   0  0  0  0  0  0  0  0  0  0  0  0
   42.6920   33.4650   38.3730 C   0  0  0  0  0  0  0  0  0  0  0  0
   44.0150   33.7420   38.0970 C   0  0  0  0  0  0  0  0  0  0  0  0
   44.4070   34.7130   38.3550 H   0  0  0  0  0  0  0  0  0  0  0  0
   44.7900   32.8140   37.5200 N   0  0  0  0  0  0  0  0  0  0  0  0
   44.2610   31.6190   37.2170 C   0  0  0  0  0  0  0  0  0  0  0  0
   44.7400   30.7680   36.7540 H   0  0  0  0  0  0  0  0  0  0  0  0
   42.9720   31.3340   37.4790 N   0  0  0  0  0  0  0  0  0  0  0  0
   42.1470   32.2320   38.0600 C   0  0  0  0  0  0  0  0  0  0  0  0
   36.3480   31.2430   40.9500 O   0  0  0  0  0  0  0  0  0  0  0  0
   36.2990   29.8040   40.4360 P   0  0  1  0  0  0  0  0  0  0  0  0
   34.6620   29.3670   40.4830 O   0  0  0  0  0  0  0  0  0  0  0  0
   34.4440   28.6870   39.7880 H   0  0  0  0  0  0  0  0  0  0  0  0
   37.2960   28.8110   41.2680 O   0  0  0  0  0  0  0  0  0  0  0  0
   38.0380   28.0990   43.4610 C   0  0  1  0  0  0  0  0  0  0  0  0
   39.1110   28.9800   42.9830 C   0  0  0  0  0  0  0  0  0  0  0  0
   37.6560   29.1560   42.5150 C   0  0  1  0  0  0  0  0  0  0  0  0
   37.6530   28.2110   44.4870 H   0  0  0  0  0  0  0  0  0  0  0  0
   39.7740   28.6920   42.1330 H   0  0  0  0  0  0  0  0  0  0  0  0
   39.5730   29.7160   43.6360 H   0  0  0  0  0  0  0  0  0  0  0  0
   37.2700   30.1270   42.8810 H   0  0  0  0  0  0  0  0  0  0  0  0
   39.3150   24.7660   42.1920 C   0  0  0  0  0  0  0  0  0  0  0  0
   39.3050   26.0570   42.7100 C   0  0  0  0  0  0  0  0  0  0  0  0
   38.0680   26.7010   42.9140 C   0  0  0  0  0  0  0  0  0  0  0  0
   36.9230   26.0500   42.6010 N   0  0  0  0  0  0  0  0  0  0  0  0
   36.9580   24.7870   42.0940 C   0  0  0  0  0  0  0  0  0  0  0  0
   38.1560   24.1470   41.8920 N   0  0  0  0  0  0  0  0  0  0  0  0
   40.2400   24.2350   42.0210 H   0  0  0  0  0  0  0  0  0  0  0  0
   40.2350   26.5370   42.9450 H   0  0  0  0  0  0  0  0  0  0  0  0
   35.9950   24.3440   41.8720 H   0  0  0  0  0  0  0  0  0  0  0  0
  1 24  1  0  0  0  0
  2  7  1  0  0  0  0
  2  1  1  0  0  0  0
  3  2  2  0  0  0  0
  4  5  2  0  0  0  0
  4  3  1  0  0  0  0
  5  6  1  0  0  0  0
  6 11  1  0  0  0  0
  6  7  2  0  0  0  0
  8  3  1  0  0  0  0
  9  4  1  0  0  0  0
 10  5  1  0  0  0  0
 11 12  1  0  0  0  0
 12 13  1  0  0  0  0
 14 12  2  0  0  0  0
 15 14  1  0  0  0  0
 16 17  1  0  0  0  0
 16 15  1  0  0  0  0
 18 16  2  0  0  0  0
 19 21  2  0  0  0  0
 19 18  1  0  0  0  0
 20 19  1  0  0  0  0
 21 22  1  0  0  0  0
 22 15  2  0  0  0  0
 22 11  1  0  0  0  0
 24 25  1  0  0  0  0
 24 23  2  1  0  0  0
 24 27  1  0  0  0  0
 26 25  1  0  0  0  0
 27 30  1  0  0  0  0
 28 31  1  1  0  0  0
 29 28  1  0  0  0  0
 29 33  1  0  0  0  0
 30 34  1  1  0  0  0
 30 29  1  0  0  0  0
 30 28  1  0  0  0  0
 32 29  1  0  0  0  0
 35 36  1  0  0  0  0
 36 37  2  0  0  0  0
 36 42  1  0  0  0  0
 37 28  1  0  0  0  0
 38 37  1  0  0  0  0
 39 38  2  0  0  0  0
 40 39  1  0  0  0  0
 40 35  2  0  0  0  0
 41 35  1  0  0  0  0
 43 39  1  0  0  0  0
M  END
>  <minimizedAffinity>
-6.0403223

$$$$

 OpenBabel03252501093D

 43 47  0  0  1  0  0  0  0  0999 V2000
   35.4710   28.0080   39.0280 O   0  0  0  0  0  0  0  0  0  0  0  0
   34.9030   28.3420   37.8150 C   0  0  0  0  0  0  0  0  0  0  0  0
   35.4520   28.1920   36.5510 C   0  0  0  0  0  0  0  0  0  0  0  0
   34.7620   28.5720   35.4400 C   0  0  0  0  0  0  0  0  0  0  0  0
   33.4970   29.1170   35.5460 C   0  0  0  0  0  0  0  0  0  0  0  0
   32.9850   29.2480   36.8400 C   0  0  0  0  0  0  0  0  0  0  0  0
   33.6860   28.8640   37.9330 N   0  0  0  0  0  0  0  0  0  0  0  0
   36.4450   27.7590   36.5450 H   0  0  0  0  0  0  0  0  0  0  0  0
   35.2410   28.4310   34.4880 H   0  0  0  0  0  0  0  0  0  0  0  0
   32.9380   29.4230   34.6720 H   0  0  0  0  0  0  0  0  0  0  0  0
   31.6800   29.8140   36.9020 N   0  0  0  0  0  0  0  0  0  0  0  0
   30.8440   30.0640   37.9510 C   0  0  0  0  0  0  0  0  0  0  0  0
   31.1360   29.8230   38.9670 H   0  0  0  0  0  0  0  0  0  0  0  0
   29.7170   30.6110   37.4580 N   0  0  0  0  0  0  0  0  0  0  0  0
   29.7920   30.7280   36.1140 C   0  0  0  0  0  0  0  0  0  0  0  0
   28.9430   31.2080   35.1370 C   0  0  0  0  0  0  0  0  0  0  0  0
   27.9820   31.5980   35.4310 H   0  0  0  0  0  0  0  0  0  0  0  0
   29.3180   31.1870   33.8520 N   0  0  0  0  0  0  0  0  0  0  0  0
   30.5240   30.6950   33.5320 C   0  0  0  0  0  0  0  0  0  0  0  0
   30.9770   30.6040   32.5550 H   0  0  0  0  0  0  0  0  0  0  0  0
   31.3630   30.2220   34.4720 N   0  0  0  0  0  0  0  0  0  0  0  0
   31.0360   30.2200   35.7820 C   0  0  0  0  0  0  0  0  0  0  0  0
   36.9530   30.0730   39.1390 O   0  0  0  0  0  0  0  0  0  0  0  0
   36.2180   29.1010   40.0620 P   0  0  1  0  0  0  0  0  0  0  0  0
   35.0000   30.0200   40.8020 O   0  0  0  0  0  0  0  0  0  0  0  0
   34.2130   29.4580   41.0410 H   0  0  0  0  0  0  0  0  0  0  0  0
   37.2270   28.3420   41.1000 O   0  0  0  0  0  0  0  0  0  0  0  0
   37.2530   27.2870   43.2800 C   0  0  1  0  0  0  0  0  0  0  0  0
   38.1630   28.4300   43.4190 C   0  0  0  0  0  0  0  0  0  0  0  0
   36.9960   28.4480   42.4190 C   0  0  1  0  0  0  0  0  0  0  0  0
   36.4980   27.0890   44.0570 H   0  0  0  0  0  0  0  0  0  0  0  0
   39.1460   28.4680   42.8910 H   0  0  0  0  0  0  0  0  0  0  0  0
   38.1440   29.0660   44.3010 H   0  0  0  0  0  0  0  0  0  0  0  0
   36.2660   29.2250   42.7220 H   0  0  0  0  0  0  0  0  0  0  0  0
   37.5480   23.9570   41.4980 C   0  0  0  0  0  0  0  0  0  0  0  0
   36.9860   25.0730   42.1110 C   0  0  0  0  0  0  0  0  0  0  0  0
   37.8400   26.0800   42.6050 C   0  0  0  0  0  0  0  0  0  0  0  0
   39.1800   25.9380   42.4730 N   0  0  0  0  0  0  0  0  0  0  0  0
   39.7050   24.8360   41.8710 C   0  0  0  0  0  0  0  0  0  0  0  0
   38.8860   23.8480   41.3840 N   0  0  0  0  0  0  0  0  0  0  0  0
   36.9310   23.1620   41.1050 H   0  0  0  0  0  0  0  0  0  0  0  0
   35.9200   25.1470   42.1950 H   0  0  0  0  0  0  0  0  0  0  0  0
   40.7860   24.8060   41.8100 H   0  0  0  0  0  0  0  0  0  0  0  0
  1 24  1  0  0  0  0
  2  7  1  0  0  0  0
  2  1  1  0  0  0  0
  3  2  2  0  0  0  0
  4  5  2  0  0  0  0
  4  3  1  0  0  0  0
  5  6  1  0  0  0  0
  6 11  1  0  0  0  0
  6  7  2  0  0  0  0
  8  3  1  0  0  0  0
  9  4  1  0  0  0  0
 10  5  1  0  0  0  0
 11 12  1  0  0  0  0
 12 13  1  0  0  0  0
 14 12  2  0  0  0  0
 15 14  1  0  0  0  0
 16 17  1  0  0  0  0
 16 15  2  0  0  0  0
 18 16  1  0  0  0  0
 19 18  2  0  0  0  0
 19 21  1  0  0  0  0
 20 19  1  0  0  0  0
 21 22  2  0  0  0  0
 22 15  1  0  0  0  0
 22 11  1  0  0  0  0
 24 23  2  6  0  0  0
 24 25  1  0  0  0  0
 24 27  1  0  0  0  0
 25 26  1  0  0  0  0
 27 30  1  0  0  0  0
 28 29  1  0  0  0  0
 28 31  1  1  0  0  0
 29 33  1  0  0  0  0
 30 34  1  1  0  0  0
 30 28  1  0  0  0  0
 30 29  1  0  0  0  0
 32 29  1  0  0  0  0
 35 36  1  0  0  0  0
 36 42  1  0  0  0  0
 36 37  2  0  0  0  0
 37 28  1  0  0  0  0
 38 37  1  0  0  0  0
 39 38  2  0  0  0  0
 40 35  2  0  0  0  0
 40 39  1  0  0  0  0
 41 35  1  0  0  0  0
 43 39  1  0  0  0  0
M  END
>  <minimizedAffinity>
-6.02185965

$$$$

 OpenBabel03252501093D

 43 47  0  0  1  0  0  0  0  0999 V2000
   36.5180   30.7950   38.5920 O   0  0  0  0  0  0  0  0  0  0  0  0
   35.9720   29.5520   38.3390 C   0  0  0  0  0  0  0  0  0  0  0  0
   34.8350   29.2600   37.6040 C   0  0  0  0  0  0  0  0  0  0  0  0
   34.4190   27.9730   37.4420 C   0  0  0  0  0  0  0  0  0  0  0  0
   35.1220   26.9260   38.0070 C   0  0  0  0  0  0  0  0  0  0  0  0
   36.2630   27.2700   38.7400 C   0  0  0  0  0  0  0  0  0  0  0  0
   36.6600   28.5560   38.8890 N   0  0  0  0  0  0  0  0  0  0  0  0
   34.3360   30.1270   37.1910 H   0  0  0  0  0  0  0  0  0  0  0  0
   33.5290   27.8090   36.8610 H   0  0  0  0  0  0  0  0  0  0  0  0
   34.8040   25.9000   37.8870 H   0  0  0  0  0  0  0  0  0  0  0  0
   36.9560   26.1620   39.3040 N   0  0  0  0  0  0  0  0  0  0  0  0
   38.1050   26.0830   40.0360 C   0  0  0  0  0  0  0  0  0  0  0  0
   38.6690   26.9740   40.2870 H   0  0  0  0  0  0  0  0  0  0  0  0
   38.3220   24.7860   40.3220 N   0  0  0  0  0  0  0  0  0  0  0  0
   37.3460   24.0120   39.7980 C   0  0  0  0  0  0  0  0  0  0  0  0
   37.0870   22.6560   39.7910 C   0  0  0  0  0  0  0  0  0  0  0  0
   37.7710   21.9940   40.2990 H   0  0  0  0  0  0  0  0  0  0  0  0
   36.0020   22.1820   39.1640 N   0  0  0  0  0  0  0  0  0  0  0  0
   35.1780   23.0410   38.5470 C   0  0  0  0  0  0  0  0  0  0  0  0
   34.2700   22.8300   38.0000 H   0  0  0  0  0  0  0  0  0  0  0  0
   35.4170   24.3660   38.5430 N   0  0  0  0  0  0  0  0  0  0  0  0
   36.4950   24.8970   39.1600 C   0  0  0  0  0  0  0  0  0  0  0  0
   36.9820   32.8460   40.0230 O   0  0  0  0  0  0  0  0  0  0  0  0
   37.0250   31.3210   40.1050 P   0  0  1  0  0  0  0  0  0  0  0  0
   35.8230   30.8980   41.2230 O   0  0  0  0  0  0  0  0  0  0  0  0
   35.4470   29.9960   41.0330 H   0  0  0  0  0  0  0  0  0  0  0  0
   38.5180   30.7560   40.4600 O   0  0  0  0  0  0  0  0  0  0  0  0
   39.7010   30.9780   42.5610 C   0  0  1  0  0  0  0  0  0  0  0  0
   40.7550   31.0410   41.5430 C   0  0  0  0  0  0  0  0  0  0  0  0
   39.3180   31.4980   41.2420 C   0  0  1  0  0  0  0  0  0  0  0  0
   39.6900   31.7070   43.3870 H   0  0  0  0  0  0  0  0  0  0  0  0
   41.0320   30.1530   40.9260 H   0  0  0  0  0  0  0  0  0  0  0  0
   41.5630   31.7660   41.6070 H   0  0  0  0  0  0  0  0  0  0  0  0
   39.3150   32.5880   41.0460 H   0  0  0  0  0  0  0  0  0  0  0  0
   39.6440   27.2360   43.1510 C   0  0  0  0  0  0  0  0  0  0  0  0
   40.1140   28.5110   42.8500 C   0  0  0  0  0  0  0  0  0  0  0  0
   39.2140   29.5960   42.8930 C   0  0  0  0  0  0  0  0  0  0  0  0
   37.9210   29.3710   43.2230 N   0  0  0  0  0  0  0  0  0  0  0  0
   37.4850   28.1150   43.5110 C   0  0  0  0  0  0  0  0  0  0  0  0
   38.3500   27.0490   43.4750 N   0  0  0  0  0  0  0  0  0  0  0  0
   40.2990   26.3760   43.1300 H   0  0  0  0  0  0  0  0  0  0  0  0
   41.1470   28.6450   42.5950 H   0  0  0  0  0  0  0  0  0  0  0  0
   36.4360   28.0290   43.7640 H   0  0  0  0  0  0  0  0  0  0  0  0
  1 24  1  0  0  0  0
  2  1  1  0  0  0  0
  2  7  1  0  0  0  0
  3  2  2  0  0  0  0
  4  3  1  0  0  0  0
  4  5  2  0  0  0  0
  5  6  1  0  0  0  0
  6  7  2  0  0  0  0
  6 11  1  0  0  0  0
  8  3  1  0  0  0  0
  9  4  1  0  0  0  0
 10  5  1  0  0  0  0
 11 12  1  0  0  0  0
 12 13  1  0  0  0  0
 12 14  2  0  0  0  0
 15 14  1  0  0  0  0
 16 15  1  0  0  0  0
 16 17  1  0  0  0  0
 18 16  2  0  0  0  0
 19 18  1  0  0  0  0
 20 19  1  0  0  0  0
 21 19  2  0  0  0  0
 21 22  1  0  0  0  0
 22 11  1  0  0  0  0
 22 15  2  0  0  0  0
 24 23  2  6  0  0  0
 24 27  1  0  0  0  0
 24 25  1  0  0  0  0
 26 25  1  0  0  0  0
 27 30  1  0  0  0  0
 28 37  1  0  0  0  0
 28 31  1  1  0  0  0
 29 33  1  0  0  0  0
 29 28  1  0  0  0  0
 30 34  1  6  0  0  0
 30 29  1  0  0  0  0
 30 28  1  0  0  0  0
 32 29  1  0  0  0  0
 35 40  1  0  0  0  0
 36 37  1  0  0  0  0
 36 35  2  0  0  0  0
 37 38  2  0  0  0  0
 38 39  1  0  0  0  0
 39 43  1  0  0  0  0
 40 39  2  0  0  0  0
 41 35  1  0  0  0  0
 42 36  1  0  0  0  0
M  END
>  <minimizedAffinity>
-5.99327755

$$$$

 OpenBabel03252501093D

 43 47  0  0  1  0  0  0  0  0999 V2000
   39.6680   26.2960   43.6680 O   0  0  0  0  0  0  0  0  0  0  0  0
   39.0870   27.4680   43.2240 C   0  0  0  0  0  0  0  0  0  0  0  0
   37.7440   27.8090   43.2470 C   0  0  0  0  0  0  0  0  0  0  0  0
   37.3210   29.0120   42.7690 C   0  0  0  0  0  0  0  0  0  0  0  0
   38.2210   29.9230   42.2500 C   0  0  0  0  0  0  0  0  0  0  0  0
   39.5640   29.5340   42.2490 C   0  0  0  0  0  0  0  0  0  0  0  0
   39.9660   28.3340   42.7290 N   0  0  0  0  0  0  0  0  0  0  0  0
   37.0970   27.0480   43.6670 H   0  0  0  0  0  0  0  0  0  0  0  0
   36.2660   29.2190   42.8120 H   0  0  0  0  0  0  0  0  0  0  0  0
   37.8990   30.8810   41.8670 H   0  0  0  0  0  0  0  0  0  0  0  0
   40.4560   30.5020   41.7060 N   0  0  0  0  0  0  0  0  0  0  0  0
   41.8130   30.5130   41.5670 C   0  0  0  0  0  0  0  0  0  0  0  0
   42.4160   29.6760   41.9010 H   0  0  0  0  0  0  0  0  0  0  0  0
   42.1580   31.6780   40.9860 N   0  0  0  0  0  0  0  0  0  0  0  0
   41.0630   32.4300   40.7400 C   0  0  0  0  0  0  0  0  0  0  0  0
   40.8510   33.6720   40.1770 C   0  0  0  0  0  0  0  0  0  0  0  0
   41.7020   34.2360   39.8270 H   0  0  0  0  0  0  0  0  0  0  0  0
   39.6080   34.1590   40.0710 N   0  0  0  0  0  0  0  0  0  0  0  0
   38.5790   33.4230   40.5170 C   0  0  0  0  0  0  0  0  0  0  0  0
   37.5250   33.6630   40.5080 H   0  0  0  0  0  0  0  0  0  0  0  0
   38.7690   32.2100   41.0690 N   0  0  0  0  0  0  0  0  0  0  0  0
   40.0000   31.6730   41.2010 C   0  0  0  0  0  0  0  0  0  0  0  0
   41.4130   24.9120   42.4400 O   0  0  0  0  0  0  0  0  0  0  0  0
   39.9100   24.9350   42.7150 P   0  0  1  0  0  0  0  0  0  0  0  0
   39.6090   23.5730   43.6800 O   0  0  0  0  0  0  0  0  0  0  0  0
   38.8260   23.7150   44.2780 H   0  0  0  0  0  0  0  0  0  0  0  0
   39.0260   25.0070   41.3410 O   0  0  0  0  0  0  0  0  0  0  0  0
   36.7960   24.9000   40.4010 C   0  0  1  0  0  0  0  0  0  0  0  0
   37.3950   23.6040   40.0630 C   0  0  0  0  0  0  0  0  0  0  0  0
   37.8330   24.3920   41.3090 C   0  0  1  0  0  0  0  0  0  0  0  0
   35.7760   24.9430   40.8120 H   0  0  0  0  0  0  0  0  0  0  0  0
   38.2320   23.5140   39.3300 H   0  0  0  0  0  0  0  0  0  0  0  0
   36.8360   22.6770   40.1650 H   0  0  0  0  0  0  0  0  0  0  0  0
   37.5550   23.8220   42.2180 H   0  0  0  0  0  0  0  0  0  0  0  0
   37.0240   28.3650   38.8850 C   0  0  0  0  0  0  0  0  0  0  0  0
   36.6470   27.3210   39.7250 C   0  0  0  0  0  0  0  0  0  0  0  0
   37.1990   26.0420   39.5110 C   0  0  0  0  0  0  0  0  0  0  0  0
   38.0770   25.8600   38.4970 N   0  0  0  0  0  0  0  0  0  0  0  0
   38.4280   26.8960   37.6880 C   0  0  0  0  0  0  0  0  0  0  0  0
   37.9000   28.1480   37.8850 N   0  0  0  0  0  0  0  0  0  0  0  0
   36.6260   29.3610   39.0140 H   0  0  0  0  0  0  0  0  0  0  0  0
   35.9500   27.5080   40.5180 H   0  0  0  0  0  0  0  0  0  0  0  0
   39.1350   26.6590   36.9030 H   0  0  0  0  0  0  0  0  0  0  0  0
  2  3  1  0  0  0  0
  2  1  1  0  0  0  0
  3  8  1  0  0  0  0
  4  9  1  0  0  0  0
  4  3  2  0  0  0  0
  5  4  1  0  0  0  0
  6  5  2  0  0  0  0
  6  7  1  0  0  0  0
  7  2  2  0  0  0  0
 10  5  1  0  0  0  0
 11  6  1  0  0  0  0
 12 11  1  0  0  0  0
 12 13  1  0  0  0  0
 14 12  2  0  0  0  0
 15 14  1  0  0  0  0
 15 22  1  0  0  0  0
 16 15  2  0  0  0  0
 17 16  1  0  0  0  0
 18 16  1  0  0  0  0
 18 19  2  0  0  0  0
 19 21  1  0  0  0  0
 20 19  1  0  0  0  0
 21 22  2  0  0  0  0
 22 11  1  0  0  0  0
 24 23  2  6  0  0  0
 24  1  1  0  0  0  0
 24 25  1  0  0  0  0
 25 26  1  0  0  0  0
 27 24  1  0  0  0  0
 28 31  1  1  0  0  0
 28 30  1  0  0  0  0
 29 33  1  0  0  0  0
 29 28  1  0  0  0  0
 29 30  1  0  0  0  0
 30 27  1  0  0  0  0
 30 34  1  1  0  0  0
 32 29  1  0  0  0  0
 35 41  1  0  0  0  0
 35 36  1  0  0  0  0
 36 42  1  0  0  0  0
 37 36  2  0  0  0  0
 37 28  1  0  0  0  0
 38 37  1  0  0  0  0
 39 40  1  0  0  0  0
 39 38  2  0  0  0  0
 40 35  2  0  0  0  0
 43 39  1  0  0  0  0
M  END
>  <minimizedAffinity>
-5.84750032

$$$$

 OpenBabel03252501093D

 43 47  0  0  1  0  0  0  0  0999 V2000
   41.3100   30.5500   37.8290 O   0  0  0  0  0  0  0  0  0  0  0  0
   40.5770   29.3800   37.8240 C   0  0  0  0  0  0  0  0  0  0  0  0
   40.2700   28.5770   36.7370 C   0  0  0  0  0  0  0  0  0  0  0  0
   39.5310   27.4440   36.8920 C   0  0  0  0  0  0  0  0  0  0  0  0
   39.0690   27.0660   38.1380 C   0  0  0  0  0  0  0  0  0  0  0  0
   39.4050   27.9060   39.2040 C   0  0  0  0  0  0  0  0  0  0  0  0
   40.1410   29.0290   39.0300 N   0  0  0  0  0  0  0  0  0  0  0  0
   40.6630   28.9340   35.7930 H   0  0  0  0  0  0  0  0  0  0  0  0
   39.3240   26.8630   36.0110 H   0  0  0  0  0  0  0  0  0  0  0  0
   38.4820   26.1690   38.2760 H   0  0  0  0  0  0  0  0  0  0  0  0
   38.9090   27.4790   40.4690 N   0  0  0  0  0  0  0  0  0  0  0  0
   39.0510   27.9940   41.7240 C   0  0  0  0  0  0  0  0  0  0  0  0
   39.6300   28.8950   41.8960 H   0  0  0  0  0  0  0  0  0  0  0  0
   38.3760   27.1990   42.5740 N   0  0  0  0  0  0  0  0  0  0  0  0
   37.7950   26.1750   41.9100 C   0  0  0  0  0  0  0  0  0  0  0  0
   37.0110   25.1030   42.2840 C   0  0  0  0  0  0  0  0  0  0  0  0
   36.7580   24.9820   43.3250 H   0  0  0  0  0  0  0  0  0  0  0  0
   36.5770   24.2340   41.3610 N   0  0  0  0  0  0  0  0  0  0  0  0
   36.9140   24.4230   40.0770 C   0  0  0  0  0  0  0  0  0  0  0  0
   36.6520   23.8250   39.2160 H   0  0  0  0  0  0  0  0  0  0  0  0
   37.6790   25.4640   39.6970 N   0  0  0  0  0  0  0  0  0  0  0  0
   38.1420   26.3690   40.5850 C   0  0  0  0  0  0  0  0  0  0  0  0
   41.8120   33.0390   37.6770 O   0  0  0  0  0  0  0  0  0  0  0  0
   40.6440   32.0880   37.9400 P   0  0  1  0  0  0  0  0  0  0  0  0
   39.5970   32.2890   36.6220 O   0  0  0  0  0  0  0  0  0  0  0  0
   39.0790   31.4590   36.4360 H   0  0  0  0  0  0  0  0  0  0  0  0
   39.9570   32.3340   39.4030 O   0  0  0  0  0  0  0  0  0  0  0  0
   37.7870   33.3810   39.6460 C   0  0  1  0  0  0  0  0  0  0  0  0
   38.4720   33.6680   40.9120 C   0  0  0  0  0  0  0  0  0  0  0  0
   39.2530   33.4600   39.6040 C   0  0  1  0  0  0  0  0  0  0  0  0
   37.2470   34.1850   39.1200 H   0  0  0  0  0  0  0  0  0  0  0  0
   38.7050   32.8640   41.6510 H   0  0  0  0  0  0  0  0  0  0  0  0
   38.4220   34.6510   41.3740 H   0  0  0  0  0  0  0  0  0  0  0  0
   39.7590   34.4050   39.3250 H   0  0  0  0  0  0  0  0  0  0  0  0
   36.2320   30.0560   40.5840 C   0  0  0  0  0  0  0  0  0  0  0  0
   36.7690   31.3350   40.7020 C   0  0  0  0  0  0  0  0  0  0  0  0
   37.1950   32.0050   39.5370 C   0  0  0  0  0  0  0  0  0  0  0  0
   37.0730   31.3910   38.3370 N   0  0  0  0  0  0  0  0  0  0  0  0
   36.5470   30.1400   38.2480 C   0  0  0  0  0  0  0  0  0  0  0  0
   36.1260   29.4750   39.3730 N   0  0  0  0  0  0  0  0  0  0  0  0
   35.8920   29.5070   41.4500 H   0  0  0  0  0  0  0  0  0  0  0  0
   36.8460   31.7860   41.6720 H   0  0  0  0  0  0  0  0  0  0  0  0
   36.4880   29.7260   37.2480 H   0  0  0  0  0  0  0  0  0  0  0  0
  1 24  1  0  0  0  0
  2  1  1  0  0  0  0
  2  7  1  0  0  0  0
  3  4  1  0  0  0  0
  3  2  2  0  0  0  0
  4  5  2  0  0  0  0
  5 10  1  0  0  0  0
  5  6  1  0  0  0  0
  6 11  1  0  0  0  0
  7  6  2  0  0  0  0
  8  3  1  0  0  0  0
  9  4  1  0  0  0  0
 11 22  1  0  0  0  0
 11 12  1  0  0  0  0
 12 13  1  0  0  0  0
 12 14  2  0  0  0  0
 15 16  1  0  0  0  0
 15 14  1  0  0  0  0
 16 17  1  0  0  0  0
 18 16  2  0  0  0  0
 19 18  1  0  0  0  0
 20 19  1  0  0  0  0
 21 19  2  0  0  0  0
 21 22  1  0  0  0  0
 22 15  2  0  0  0  0
 24 23  2  6  0  0  0
 24 27  1  0  0  0  0
 25 24  1  0  0  0  0
 26 25  1  0  0  0  0
 27 30  1  0  0  0  0
 28 31  1  6  0  0  0
 28 29  1  0  0  0  0
 29 33  1  0  0  0  0
 29 32  1  0  0  0  0
 30 34  1  6  0  0  0
 30 28  1  0  0  0  0
 30 29  1  0  0  0  0
 35 36  1  0  0  0  0
 35 41  1  0  0  0  0
 36 42  1  0  0  0  0
 37 28  1  0  0  0  0
 37 36  2  0  0  0  0
 38 37  1  0  0  0  0
 39 38  2  0  0  0  0
 39 40  1  0  0  0  0
 40 35  2  0  0  0  0
 43 39  1  0  0  0  0
M  END
>  <minimizedAffinity>
-5.82834244

$$$$

 OpenBabel03252501093D

 43 47  0  0  1  0  0  0  0  0999 V2000
   37.2440   31.1990   37.2390 O   0  0  0  0  0  0  0  0  0  0  0  0
   37.9300   31.8550   38.2420 C   0  0  0  0  0  0  0  0  0  0  0  0
   37.3990   32.5930   39.2890 C   0  0  0  0  0  0  0  0  0  0  0  0
   38.2110   33.1850   40.2070 C   0  0  0  0  0  0  0  0  0  0  0  0
   39.5850   33.0650   40.1190 C   0  0  0  0  0  0  0  0  0  0  0  0
   40.0730   32.3100   39.0480 C   0  0  0  0  0  0  0  0  0  0  0  0
   39.2500   31.7280   38.1440 N   0  0  0  0  0  0  0  0  0  0  0  0
   36.3170   32.6440   39.2940 H   0  0  0  0  0  0  0  0  0  0  0  0
   37.7400   33.7460   40.9960 H   0  0  0  0  0  0  0  0  0  0  0  0
   40.2410   33.5300   40.8410 H   0  0  0  0  0  0  0  0  0  0  0  0
   41.4920   32.2120   38.9960 N   0  0  0  0  0  0  0  0  0  0  0  0
   42.3290   31.5500   38.1460 C   0  0  0  0  0  0  0  0  0  0  0  0
   41.9380   30.9600   37.3250 H   0  0  0  0  0  0  0  0  0  0  0  0
   43.5930   31.7890   38.5430 N   0  0  0  0  0  0  0  0  0  0  0  0
   43.6070   32.5910   39.6300 C   0  0  0  0  0  0  0  0  0  0  0  0
   44.6030   33.1320   40.4190 C   0  0  0  0  0  0  0  0  0  0  0  0
   45.6310   32.9120   40.1800 H   0  0  0  0  0  0  0  0  0  0  0  0
   44.2860   33.9130   41.4600 N   0  0  0  0  0  0  0  0  0  0  0  0
   42.9940   34.1610   41.7200 C   0  0  0  0  0  0  0  0  0  0  0  0
   42.5690   34.7620   42.5110 H   0  0  0  0  0  0  0  0  0  0  0  0
   42.0110   33.6410   40.9610 N   0  0  0  0  0  0  0  0  0  0  0  0
   42.2740   32.8470   39.9010 C   0  0  0  0  0  0  0  0  0  0  0  0
   35.6150   29.3690   36.5550 O   0  0  0  0  0  0  0  0  0  0  0  0
   36.9980   29.5380   37.1840 P   0  0  1  0  0  0  0  0  0  0  0  0
   38.0860   28.8950   36.0550 O   0  0  0  0  0  0  0  0  0  0  0  0
   38.9780   29.3350   36.1150 H   0  0  0  0  0  0  0  0  0  0  0  0
   37.0900   28.8750   38.6760 O   0  0  0  0  0  0  0  0  0  0  0  0
   36.0020   28.3920   40.7860 C   0  0  1  0  0  0  0  0  0  0  0  0
   35.3590   29.6270   40.3200 C   0  0  0  0  0  0  0  0  0  0  0  0
   35.9500   28.6060   39.3330 C   0  0  1  0  0  0  0  0  0  0  0  0
   35.3860   27.5650   41.1720 H   0  0  0  0  0  0  0  0  0  0  0  0
   35.9100   30.5970   40.2730 H   0  0  0  0  0  0  0  0  0  0  0  0
   34.2830   29.7670   40.3900 H   0  0  0  0  0  0  0  0  0  0  0  0
   35.1330   28.1670   38.7280 H   0  0  0  0  0  0  0  0  0  0  0  0
   38.9780   30.0050   42.4870 C   0  0  0  0  0  0  0  0  0  0  0  0
   37.7260   29.8510   41.8990 C   0  0  0  0  0  0  0  0  0  0  0  0
   37.3450   28.5760   41.4330 C   0  0  0  0  0  0  0  0  0  0  0  0
   38.2030   27.5370   41.5670 N   0  0  0  0  0  0  0  0  0  0  0  0
   39.4220   27.7140   42.1440 C   0  0  0  0  0  0  0  0  0  0  0  0
   39.8070   28.9490   42.6040 N   0  0  0  0  0  0  0  0  0  0  0  0
   39.3100   30.9640   42.8590 H   0  0  0  0  0  0  0  0  0  0  0  0
   37.0760   30.7000   41.8130 H   0  0  0  0  0  0  0  0  0  0  0  0
   40.0420   26.8290   42.2090 H   0  0  0  0  0  0  0  0  0  0  0  0
  1  2  1  0  0  0  0
  2  3  1  0  0  0  0
  3  8  1  0  0  0  0
  3  4  2  0  0  0  0
  4  9  1  0  0  0  0
  5  4  1  0  0  0  0
  5 10  1  0  0  0  0
  6  5  2  0  0  0  0
  7  2  2  0  0  0  0
  7  6  1  0  0  0  0
 11  6  1  0  0  0  0
 11 22  1  0  0  0  0
 12 14  2  0  0  0  0
 12 11  1  0  0  0  0
 13 12  1  0  0  0  0
 14 15  1  0  0  0  0
 15 22  2  0  0  0  0
 15 16  1  0  0  0  0
 16 18  2  0  0  0  0
 17 16  1  0  0  0  0
 18 19  1  0  0  0  0
 19 20  1  0  0  0  0
 21 19  2  0  0  0  0
 22 21  1  0  0  0  0
 24 23  2  6  0  0  0
 24  1  1  0  0  0  0
 24 27  1  0  0  0  0
 25 26  1  0  0  0  0
 25 24  1  0  0  0  0
 27 30  1  0  0  0  0
 28 31  1  1  0  0  0
 28 37  1  0  0  0  0
 29 33  1  0  0  0  0
 29 28  1  0  0  0  0
 30 34  1  6  0  0  0
 30 29  1  0  0  0  0
 30 28  1  0  0  0  0
 32 29  1  0  0  0  0
 35 40  1  0  0  0  0
 35 41  1  0  0  0  0
 36 35  2  0  0  0  0
 37 38  2  0  0  0  0
 37 36  1  0  0  0  0
 38 39  1  0  0  0  0
 39 43  1  0  0  0  0
 39 40  2  0  0  0  0
 42 36  1  0  0  0  0
M  END
>  <minimizedAffinity>
-5.79388285

$$$$
