
 OpenBabel03252507343D

 52 56  0  0  1  0  0  0  0  0999 V2000
   41.0490   34.1480   40.8390 C   0  0  0  0  0  0  0  0  0  0  0  0
   40.5140   35.4070   40.6150 C   0  0  0  0  0  0  0  0  0  0  0  0
   39.1710   35.5320   40.1880 C   0  0  0  0  0  0  0  0  0  0  0  0
   38.4640   34.3440   40.0180 N   0  0  0  0  0  0  0  0  0  0  0  0
   39.0410   33.1610   40.2490 C   0  0  0  0  0  0  0  0  0  0  0  0
   40.3080   33.0620   40.6520 N   0  0  0  0  0  0  0  0  0  0  0  0
   40.8680   36.4160   40.6450 H   0  0  0  0  0  0  0  0  0  0  0  0
   38.6010   36.3980   39.9740 H   0  0  0  0  0  0  0  0  0  0  0  0
   38.2480   31.9470   40.0300 C   0  0  0  0  0  0  0  0  0  0  0  0
   37.4400   31.8170   38.9230 C   0  0  0  0  0  0  0  0  0  0  0  0
   36.6610   30.7180   38.6310 C   0  0  0  0  0  0  0  0  0  0  0  0
   36.7420   29.7090   39.5570 C   0  0  0  0  0  0  0  0  0  0  0  0
   37.5520   29.8130   40.6890 C   0  0  0  0  0  0  0  0  0  0  0  0
   38.3000   30.9380   40.9140 N   0  0  0  0  0  0  0  0  0  0  0  0
   37.4310   32.6650   38.2320 H   0  0  0  0  0  0  0  0  0  0  0  0
   36.0370   30.6320   37.7630 H   0  0  0  0  0  0  0  0  0  0  0  0
   36.1830   28.7890   39.4510 H   0  0  0  0  0  0  0  0  0  0  0  0
   37.5960   28.7320   41.6180 N   0  0  0  0  0  0  0  0  0  0  0  0
   37.9100   28.6610   42.9430 C   0  0  0  0  0  0  0  0  0  0  0  0
   38.1950   29.5480   43.4940 H   0  0  0  0  0  0  0  0  0  0  0  0
   37.7920   27.3790   43.3520 N   0  0  0  0  0  0  0  0  0  0  0  0
   37.4050   26.6180   42.3020 C   0  0  0  0  0  0  0  0  0  0  0  0
   37.1470   25.2580   42.1890 C   0  0  0  0  0  0  0  0  0  0  0  0
   37.2470   24.6010   43.0520 H   0  0  0  0  0  0  0  0  0  0  0  0
   36.7690   24.7310   41.0110 N   0  0  0  0  0  0  0  0  0  0  0  0
   36.6580   25.5960   39.9620 C   0  0  0  0  0  0  0  0  0  0  0  0
   36.3570   25.2770   38.9520 H   0  0  0  0  0  0  0  0  0  0  0  0
   36.8990   26.9200   40.0270 N   0  0  0  0  0  0  0  0  0  0  0  0
   37.2810   27.4720   41.2010 C   0  0  0  0  0  0  0  0  0  0  0  0
   42.4220   34.0750   41.2980 C   0  0  2  0  0  0  0  0  0  0  0  0
   43.0020   35.4860   41.5970 C   0  0  0  0  0  0  0  0  0  0  0  0
   44.3510   35.3480   42.2170 C   0  0  0  0  0  0  0  0  0  0  0  0
   45.2620   34.3530   41.5810 C   0  0  0  0  0  0  0  0  0  0  0  0
   44.6070   33.1510   41.1240 C   0  0  0  0  0  0  0  0  0  0  0  0
   43.2960   33.4150   40.3500 C   0  0  2  0  0  0  0  0  0  0  0  0
   42.4240   33.6010   42.3030 H   0  0  0  0  0  0  0  0  0  0  0  0
   43.0490   36.1090   40.7070 H   0  0  0  0  0  0  0  0  0  0  0  0
   42.3090   35.9740   42.3100 H   0  0  0  0  0  0  0  0  0  0  0  0
   44.1780   35.2400   43.3050 H   0  0  0  0  0  0  0  0  0  0  0  0
   44.8620   36.3510   42.1260 H   0  0  0  0  0  0  0  0  0  0  0  0
   46.2080   34.7050   41.1720 H   0  0  0  0  0  0  0  0  0  0  0  0
   45.7650   33.9320   42.5430 H   0  0  0  0  0  0  0  0  0  0  0  0
   44.3150   32.3800   41.8780 H   0  0  0  0  0  0  0  0  0  0  0  0
   45.2480   32.5770   40.3990 H   0  0  0  0  0  0  0  0  0  0  0  0
   43.0250   32.4020   40.0510 H   0  0  0  0  0  0  0  0  0  0  0  0
   43.5870   34.3120   39.2300 N   0  0  0  0  0  0  0  0  0  0  0  0
   43.3810   34.1770   37.8460 C   0  0  0  0  0  0  0  0  0  0  0  0
   42.2310   34.3180   37.2930 O   0  0  0  0  0  0  0  0  0  0  0  0
   44.5590   33.8750   37.0960 N   0  0  0  0  0  0  0  0  0  0  0  0
   44.1110   35.2560   39.3740 H   0  0  0  0  0  0  0  0  0  0  0  0
   45.4750   34.3560   37.0830 H   0  0  0  0  0  0  0  0  0  0  0  0
   44.5730   33.0570   36.4390 H   0  0  0  0  0  0  0  0  0  0  0  0
  1 30  1  0  0  0  0
  2  7  1  0  0  0  0
  2  1  2  0  0  0  0
  3  2  1  0  0  0  0
  4  3  2  0  0  0  0
  4  5  1  0  0  0  0
  5  6  2  0  0  0  0
  6  1  1  0  0  0  0
  8  3  1  0  0  0  0
  9  5  1  0  0  0  0
  9 14  1  0  0  0  0
 10  9  2  0  0  0  0
 11 10  1  0  0  0  0
 11 12  2  0  0  0  0
 12 13  1  0  0  0  0
 13 14  2  0  0  0  0
 13 18  1  0  0  0  0
 15 10  1  0  0  0  0
 16 11  1  0  0  0  0
 17 12  1  0  0  0  0
 18 19  1  0  0  0  0
 19 21  2  0  0  0  0
 19 20  1  0  0  0  0
 22 21  1  0  0  0  0
 23 22  1  0  0  0  0
 23 24  1  0  0  0  0
 25 23  2  0  0  0  0
 26 28  2  0  0  0  0
 26 25  1  0  0  0  0
 27 26  1  0  0  0  0
 28 29  1  0  0  0  0
 29 18  1  0  0  0  0
 29 22  2  0  0  0  0
 30 31  1  0  0  0  0
 30 36  1  1  0  0  0
 31 32  1  0  0  0  0
 31 38  1  0  0  0  0
 32 39  1  0  0  0  0
 33 32  1  0  0  0  0
 33 42  1  0  0  0  0
 34 33  1  0  0  0  0
 34 43  1  0  0  0  0
 35 45  1  6  0  0  0
 35 34  1  0  0  0  0
 35 30  1  0  0  0  0
 37 31  1  0  0  0  0
 40 32  1  0  0  0  0
 41 33  1  0  0  0  0
 44 34  1  0  0  0  0
 46 50  1  0  0  0  0
 46 35  1  0  0  0  0
 47 46  1  0  0  0  0
 48 47  2  0  0  0  0
 49 47  1  0  0  0  0
 51 49  1  0  0  0  0
 52 49  1  0  0  0  0
M  END
>  <minimizedAffinity>
-7.84837818

$$$$

 OpenBabel03252507343D

 52 56  0  0  1  0  0  0  0  0999 V2000
   41.1620   34.5440   40.4030 C   0  0  0  0  0  0  0  0  0  0  0  0
   40.5310   35.7780   40.4250 C   0  0  0  0  0  0  0  0  0  0  0  0
   39.1250   35.8480   40.2890 C   0  0  0  0  0  0  0  0  0  0  0  0
   38.4570   34.6350   40.1380 N   0  0  0  0  0  0  0  0  0  0  0  0
   39.1270   33.4790   40.1230 C   0  0  0  0  0  0  0  0  0  0  0  0
   40.4540   33.4310   40.2530 N   0  0  0  0  0  0  0  0  0  0  0  0
   40.8330   36.8020   40.4910 H   0  0  0  0  0  0  0  0  0  0  0  0
   38.4810   36.6880   40.2860 H   0  0  0  0  0  0  0  0  0  0  0  0
   38.3670   32.2380   39.9390 C   0  0  0  0  0  0  0  0  0  0  0  0
   37.5960   32.0380   38.8160 C   0  0  0  0  0  0  0  0  0  0  0  0
   36.8500   30.9090   38.5540 C   0  0  0  0  0  0  0  0  0  0  0  0
   36.9250   29.9460   39.5280 C   0  0  0  0  0  0  0  0  0  0  0  0
   37.6990   30.1210   40.6770 C   0  0  0  0  0  0  0  0  0  0  0  0
   38.4150   31.2720   40.8700 N   0  0  0  0  0  0  0  0  0  0  0  0
   37.5890   32.8530   38.0860 H   0  0  0  0  0  0  0  0  0  0  0  0
   36.2540   30.7690   37.6730 H   0  0  0  0  0  0  0  0  0  0  0  0
   36.3890   29.0100   39.4500 H   0  0  0  0  0  0  0  0  0  0  0  0
   37.7380   29.0860   41.6560 N   0  0  0  0  0  0  0  0  0  0  0  0
   38.0140   29.0830   42.9910 C   0  0  0  0  0  0  0  0  0  0  0  0
   38.2630   30.0010   43.5090 H   0  0  0  0  0  0  0  0  0  0  0  0
   37.9110   27.8190   43.4570 N   0  0  0  0  0  0  0  0  0  0  0  0
   37.5720   27.0020   42.4330 C   0  0  0  0  0  0  0  0  0  0  0  0
   37.3480   25.6330   42.3770 C   0  0  0  0  0  0  0  0  0  0  0  0
   37.4360   25.0180   43.2720 H   0  0  0  0  0  0  0  0  0  0  0  0
   37.0160   25.0430   41.2150 N   0  0  0  0  0  0  0  0  0  0  0  0
   36.9180   25.8560   40.1240 C   0  0  0  0  0  0  0  0  0  0  0  0
   36.6530   25.4840   39.1220 H   0  0  0  0  0  0  0  0  0  0  0  0
   37.1280   27.1870   40.1330 N   0  0  0  0  0  0  0  0  0  0  0  0
   37.4630   27.8010   41.2900 C   0  0  0  0  0  0  0  0  0  0  0  0
   42.6020   34.5250   40.5700 C   0  0  2  0  0  0  0  0  0  0  0  0
   43.3050   33.7740   39.4050 C   0  0  0  0  0  0  0  0  0  0  0  0
   44.7830   33.9220   39.5380 C   0  0  0  0  0  0  0  0  0  0  0  0
   45.3370   33.7290   40.9090 C   0  0  0  0  0  0  0  0  0  0  0  0
   44.5100   34.2620   41.9660 C   0  0  0  0  0  0  0  0  0  0  0  0
   43.0120   33.9130   41.8180 C   0  0  2  0  0  0  0  0  0  0  0  0
   42.9770   35.5620   40.4450 H   0  0  0  0  0  0  0  0  0  0  0  0
   43.0250   32.7250   39.3620 H   0  0  0  0  0  0  0  0  0  0  0  0
   42.9630   34.2500   38.4650 H   0  0  0  0  0  0  0  0  0  0  0  0
   45.0430   34.8680   39.0240 H   0  0  0  0  0  0  0  0  0  0  0  0
   45.2550   33.1270   38.8890 H   0  0  0  0  0  0  0  0  0  0  0  0
   46.0600   32.9320   41.0670 H   0  0  0  0  0  0  0  0  0  0  0  0
   46.1580   34.5540   40.8860 H   0  0  0  0  0  0  0  0  0  0  0  0
   44.5060   35.3650   42.1390 H   0  0  0  0  0  0  0  0  0  0  0  0
   44.7970   33.8420   42.9700 H   0  0  0  0  0  0  0  0  0  0  0  0
   42.6090   34.3430   42.7350 H   0  0  0  0  0  0  0  0  0  0  0  0
   42.8780   32.4580   41.7290 N   0  0  0  0  0  0  0  0  0  0  0  0
   42.4120   31.5040   42.6510 C   0  0  0  0  0  0  0  0  0  0  0  0
   41.1650   31.3220   42.8980 O   0  0  0  0  0  0  0  0  0  0  0  0
   43.4380   30.7440   43.2910 N   0  0  0  0  0  0  0  0  0  0  0  0
   43.2270   31.9030   40.8610 H   0  0  0  0  0  0  0  0  0  0  0  0
   44.2190   30.2070   42.8760 H   0  0  0  0  0  0  0  0  0  0  0  0
   43.4700   30.6730   44.3370 H   0  0  0  0  0  0  0  0  0  0  0  0
  1  2  1  0  0  0  0
  1 30  1  0  0  0  0
  2  7  1  0  0  0  0
  3  2  2  0  0  0  0
  4  3  1  0  0  0  0
  5  4  2  0  0  0  0
  5  6  1  0  0  0  0
  6  1  2  0  0  0  0
  8  3  1  0  0  0  0
  9  5  1  0  0  0  0
  9 14  1  0  0  0  0
 10  9  2  0  0  0  0
 11 10  1  0  0  0  0
 11 12  2  0  0  0  0
 12 13  1  0  0  0  0
 13 14  2  0  0  0  0
 13 18  1  0  0  0  0
 15 10  1  0  0  0  0
 16 11  1  0  0  0  0
 17 12  1  0  0  0  0
 18 19  1  0  0  0  0
 19 21  2  0  0  0  0
 19 20  1  0  0  0  0
 22 21  1  0  0  0  0
 23 22  1  0  0  0  0
 23 24  1  0  0  0  0
 25 23  2  0  0  0  0
 26 28  2  0  0  0  0
 26 25  1  0  0  0  0
 27 26  1  0  0  0  0
 28 29  1  0  0  0  0
 29 18  1  0  0  0  0
 29 22  2  0  0  0  0
 30 36  1  6  0  0  0
 30 35  1  0  0  0  0
 31 32  1  0  0  0  0
 31 30  1  0  0  0  0
 32 33  1  0  0  0  0
 33 41  1  0  0  0  0
 33 34  1  0  0  0  0
 34 43  1  0  0  0  0
 34 44  1  0  0  0  0
 35 34  1  0  0  0  0
 35 45  1  1  0  0  0
 37 31  1  0  0  0  0
 38 31  1  0  0  0  0
 39 32  1  0  0  0  0
 40 32  1  0  0  0  0
 42 33  1  0  0  0  0
 46 35  1  0  0  0  0
 46 47  1  0  0  0  0
 47 48  2  0  0  0  0
 47 49  1  0  0  0  0
 49 52  1  0  0  0  0
 50 46  1  0  0  0  0
 51 49  1  0  0  0  0
M  END
>  <minimizedAffinity>
-7.19687128

$$$$

 OpenBabel03252507343D

 52 56  0  0  1  0  0  0  0  0999 V2000
   40.1260   33.4010   40.6900 C   0  0  0  0  0  0  0  0  0  0  0  0
   39.4640   34.5390   40.2580 C   0  0  0  0  0  0  0  0  0  0  0  0
   38.0900   34.4690   39.9300 C   0  0  0  0  0  0  0  0  0  0  0  0
   37.4850   33.2210   40.0670 N   0  0  0  0  0  0  0  0  0  0  0  0
   38.1820   32.1610   40.4870 C   0  0  0  0  0  0  0  0  0  0  0  0
   39.4770   32.2470   40.7940 N   0  0  0  0  0  0  0  0  0  0  0  0
   39.7250   35.5560   40.0500 H   0  0  0  0  0  0  0  0  0  0  0  0
   37.4300   35.2240   39.5910 H   0  0  0  0  0  0  0  0  0  0  0  0
   37.4910   30.8720   40.5900 C   0  0  0  0  0  0  0  0  0  0  0  0
   36.2060   30.7170   40.1250 C   0  0  0  0  0  0  0  0  0  0  0  0
   35.4760   29.5480   40.1760 C   0  0  0  0  0  0  0  0  0  0  0  0
   36.1420   28.4940   40.7480 C   0  0  0  0  0  0  0  0  0  0  0  0
   37.4460   28.6220   41.2290 C   0  0  0  0  0  0  0  0  0  0  0  0
   38.1100   29.8170   41.1440 N   0  0  0  0  0  0  0  0  0  0  0  0
   35.7440   31.6050   39.6820 H   0  0  0  0  0  0  0  0  0  0  0  0
   34.4740   29.4440   39.8080 H   0  0  0  0  0  0  0  0  0  0  0  0
   35.6870   27.5190   40.8510 H   0  0  0  0  0  0  0  0  0  0  0  0
   38.0890   27.4920   41.8140 N   0  0  0  0  0  0  0  0  0  0  0  0
   39.1110   27.3660   42.7070 C   0  0  0  0  0  0  0  0  0  0  0  0
   39.6010   28.2400   43.1170 H   0  0  0  0  0  0  0  0  0  0  0  0
   39.3350   26.0530   42.9330 N   0  0  0  0  0  0  0  0  0  0  0  0
   38.4680   25.3260   42.1910 C   0  0  0  0  0  0  0  0  0  0  0  0
   38.2840   23.9570   42.0590 C   0  0  0  0  0  0  0  0  0  0  0  0
   38.9060   23.2570   42.6160 H   0  0  0  0  0  0  0  0  0  0  0  0
   37.3340   23.4710   41.2410 N   0  0  0  0  0  0  0  0  0  0  0  0
   36.5830   24.3880   40.5660 C   0  0  0  0  0  0  0  0  0  0  0  0
   35.7780   24.1070   39.8690 H   0  0  0  0  0  0  0  0  0  0  0  0
   36.7270   25.7240   40.6630 N   0  0  0  0  0  0  0  0  0  0  0  0
   37.6760   26.2350   41.4800 C   0  0  0  0  0  0  0  0  0  0  0  0
   41.5270   33.5320   41.0380 C   0  0  2  0  0  0  0  0  0  0  0  0
   41.9830   35.0180   41.0330 C   0  0  0  0  0  0  0  0  0  0  0  0
   43.3770   35.1120   41.5510 C   0  0  0  0  0  0  0  0  0  0  0  0
   44.3380   34.1000   41.0260 C   0  0  0  0  0  0  0  0  0  0  0  0
   43.7770   32.7820   40.8440 C   0  0  0  0  0  0  0  0  0  0  0  0
   42.3970   32.7870   40.1490 C   0  0  2  0  0  0  0  0  0  0  0  0
   41.6450   33.2520   42.1060 H   0  0  0  0  0  0  0  0  0  0  0  0
   41.9070   35.4690   40.0460 H   0  0  0  0  0  0  0  0  0  0  0  0
   41.2940   35.5660   41.7050 H   0  0  0  0  0  0  0  0  0  0  0  0
   43.2900   35.1910   42.6520 H   0  0  0  0  0  0  0  0  0  0  0  0
   43.7790   36.1220   41.2430 H   0  0  0  0  0  0  0  0  0  0  0  0
   45.2140   34.4510   40.4820 H   0  0  0  0  0  0  0  0  0  0  0  0
   44.9440   33.9070   42.0010 H   0  0  0  0  0  0  0  0  0  0  0  0
   43.6150   32.1400   41.7440 H   0  0  0  0  0  0  0  0  0  0  0  0
   44.4210   32.1430   40.1800 H   0  0  0  0  0  0  0  0  0  0  0  0
   42.2090   31.7170   40.0570 H   0  0  0  0  0  0  0  0  0  0  0  0
   42.5200   33.4860   38.8690 N   0  0  0  0  0  0  0  0  0  0  0  0
   42.5210   33.0160   37.5440 C   0  0  0  0  0  0  0  0  0  0  0  0
   41.4520   32.6630   36.9270 O   0  0  0  0  0  0  0  0  0  0  0  0
   43.8100   32.9680   36.9300 N   0  0  0  0  0  0  0  0  0  0  0  0
   42.7090   34.5560   38.8170 H   0  0  0  0  0  0  0  0  0  0  0  0
   44.5300   33.7070   36.8460 H   0  0  0  0  0  0  0  0  0  0  0  0
   44.1490   32.0850   36.4760 H   0  0  0  0  0  0  0  0  0  0  0  0
  1  6  1  0  0  0  0
  1 30  1  0  0  0  0
  2  1  2  0  0  0  0
  3  4  2  0  0  0  0
  3  2  1  0  0  0  0
  4  5  1  0  0  0  0
  5  9  1  0  0  0  0
  5  6  2  0  0  0  0
  7  2  1  0  0  0  0
  8  3  1  0  0  0  0
  9 14  1  0  0  0  0
 10 11  1  0  0  0  0
 10  9  2  0  0  0  0
 11 12  2  0  0  0  0
 12 17  1  0  0  0  0
 12 13  1  0  0  0  0
 13 18  1  0  0  0  0
 14 13  2  0  0  0  0
 15 10  1  0  0  0  0
 16 11  1  0  0  0  0
 18 19  1  0  0  0  0
 19 21  2  0  0  0  0
 19 20  1  0  0  0  0
 22 21  1  0  0  0  0
 23 22  1  0  0  0  0
 23 24  1  0  0  0  0
 25 23  2  0  0  0  0
 26 28  2  0  0  0  0
 26 25  1  0  0  0  0
 27 26  1  0  0  0  0
 28 29  1  0  0  0  0
 29 18  1  0  0  0  0
 29 22  2  0  0  0  0
 30 36  1  1  0  0  0
 31 30  1  0  0  0  0
 31 32  1  0  0  0  0
 31 38  1  0  0  0  0
 32 39  1  0  0  0  0
 33 32  1  0  0  0  0
 33 42  1  0  0  0  0
 34 33  1  0  0  0  0
 34 43  1  0  0  0  0
 35 45  1  6  0  0  0
 35 34  1  0  0  0  0
 35 30  1  0  0  0  0
 37 31  1  0  0  0  0
 40 32  1  0  0  0  0
 41 33  1  0  0  0  0
 44 34  1  0  0  0  0
 46 35  1  0  0  0  0
 47 46  1  0  0  0  0
 48 47  2  0  0  0  0
 49 47  1  0  0  0  0
 50 46  1  0  0  0  0
 51 49  1  0  0  0  0
 52 49  1  0  0  0  0
M  END
>  <minimizedAffinity>
-7.09417391

$$$$

 OpenBabel03252507343D

 52 56  0  0  1  0  0  0  0  0999 V2000
   38.5000   28.0080   39.4990 C   0  0  0  0  0  0  0  0  0  0  0  0
   37.8660   27.8740   38.2750 C   0  0  0  0  0  0  0  0  0  0  0  0
   37.7540   28.9940   37.4170 C   0  0  0  0  0  0  0  0  0  0  0  0
   38.3060   30.1850   37.8820 N   0  0  0  0  0  0  0  0  0  0  0  0
   38.9030   30.2470   39.0760 C   0  0  0  0  0  0  0  0  0  0  0  0
   39.0010   29.1810   39.8710 N   0  0  0  0  0  0  0  0  0  0  0  0
   37.3560   27.0960   37.7470 H   0  0  0  0  0  0  0  0  0  0  0  0
   37.3130   29.0780   36.4590 H   0  0  0  0  0  0  0  0  0  0  0  0
   39.4450   31.5370   39.5160 C   0  0  0  0  0  0  0  0  0  0  0  0
   38.6120   32.5810   39.8440 C   0  0  0  0  0  0  0  0  0  0  0  0
   39.0250   33.8260   40.2680 C   0  0  0  0  0  0  0  0  0  0  0  0
   40.3870   33.9700   40.3460 C   0  0  0  0  0  0  0  0  0  0  0  0
   41.2570   32.9280   40.0190 C   0  0  0  0  0  0  0  0  0  0  0  0
   40.7730   31.7160   39.6050 N   0  0  0  0  0  0  0  0  0  0  0  0
   37.5390   32.3870   39.7560 H   0  0  0  0  0  0  0  0  0  0  0  0
   38.3620   34.6310   40.5210 H   0  0  0  0  0  0  0  0  0  0  0  0
   40.8480   34.8950   40.6650 H   0  0  0  0  0  0  0  0  0  0  0  0
   42.6640   33.1350   40.1190 N   0  0  0  0  0  0  0  0  0  0  0  0
   43.7330   32.5400   39.5190 C   0  0  0  0  0  0  0  0  0  0  0  0
   43.5940   31.7380   38.8050 H   0  0  0  0  0  0  0  0  0  0  0  0
   44.8670   33.1200   39.9710 N   0  0  0  0  0  0  0  0  0  0  0  0
   44.5410   34.0860   40.8610 C   0  0  0  0  0  0  0  0  0  0  0  0
   45.3200   34.9620   41.6030 C   0  0  0  0  0  0  0  0  0  0  0  0
   46.4070   34.9440   41.5210 H   0  0  0  0  0  0  0  0  0  0  0  0
   44.7470   35.8480   42.4360 N   0  0  0  0  0  0  0  0  0  0  0  0
   43.3840   35.8290   42.5030 C   0  0  0  0  0  0  0  0  0  0  0  0
   42.8070   36.5080   43.1490 H   0  0  0  0  0  0  0  0  0  0  0  0
   42.5890   34.9970   41.8020 N   0  0  0  0  0  0  0  0  0  0  0  0
   43.1450   34.0980   40.9580 C   0  0  0  0  0  0  0  0  0  0  0  0
   38.6100   26.8250   40.3300 C   0  0  2  0  0  0  0  0  0  0  0  0
   37.3800   25.8900   40.1620 C   0  0  0  0  0  0  0  0  0  0  0  0
   37.6140   24.6200   40.9070 C   0  0  0  0  0  0  0  0  0  0  0  0
   38.1830   24.7640   42.2780 C   0  0  0  0  0  0  0  0  0  0  0  0
   39.1680   25.8110   42.4090 C   0  0  0  0  0  0  0  0  0  0  0  0
   38.7530   27.1400   41.7370 C   0  0  2  0  0  0  0  0  0  0  0  0
   39.4380   26.2000   39.9330 H   0  0  0  0  0  0  0  0  0  0  0  0
   36.4560   26.3630   40.4870 H   0  0  0  0  0  0  0  0  0  0  0  0
   37.2830   25.6780   39.0790 H   0  0  0  0  0  0  0  0  0  0  0  0
   38.1580   23.9530   40.2110 H   0  0  0  0  0  0  0  0  0  0  0  0
   36.6110   24.1170   41.0300 H   0  0  0  0  0  0  0  0  0  0  0  0
   37.6050   24.3850   43.1200 H   0  0  0  0  0  0  0  0  0  0  0  0
   38.8950   23.8430   42.2730 H   0  0  0  0  0  0  0  0  0  0  0  0
   40.1980   25.6300   42.0170 H   0  0  0  0  0  0  0  0  0  0  0  0
   39.3430   26.0860   43.4860 H   0  0  0  0  0  0  0  0  0  0  0  0
   39.5890   27.7820   42.0170 H   0  0  0  0  0  0  0  0  0  0  0  0
   37.4640   27.5600   42.2890 N   0  0  0  0  0  0  0  0  0  0  0  0
   37.0490   28.7660   42.8800 C   0  0  0  0  0  0  0  0  0  0  0  0
   36.7840   29.8230   42.2010 O   0  0  0  0  0  0  0  0  0  0  0  0
   36.9370   28.7240   44.3040 N   0  0  0  0  0  0  0  0  0  0  0  0
   36.6210   26.8760   42.3600 H   0  0  0  0  0  0  0  0  0  0  0  0
   36.4250   28.0570   44.9060 H   0  0  0  0  0  0  0  0  0  0  0  0
   37.4200   29.4430   44.8950 H   0  0  0  0  0  0  0  0  0  0  0  0
  1  6  1  0  0  0  0
  1 30  1  0  0  0  0
  2  1  2  0  0  0  0
  3  4  2  0  0  0  0
  3  2  1  0  0  0  0
  4  5  1  0  0  0  0
  5  9  1  0  0  0  0
  5  6  2  0  0  0  0
  7  2  1  0  0  0  0
  8  3  1  0  0  0  0
  9 14  2  0  0  0  0
  9 10  1  0  0  0  0
 10 11  2  0  0  0  0
 11 12  1  0  0  0  0
 11 16  1  0  0  0  0
 12 17  1  0  0  0  0
 13 18  1  0  0  0  0
 13 12  2  0  0  0  0
 14 13  1  0  0  0  0
 15 10  1  0  0  0  0
 18 29  1  0  0  0  0
 19 21  2  0  0  0  0
 19 18  1  0  0  0  0
 20 19  1  0  0  0  0
 21 22  1  0  0  0  0
 22 29  2  0  0  0  0
 22 23  1  0  0  0  0
 23 25  2  0  0  0  0
 24 23  1  0  0  0  0
 25 26  1  0  0  0  0
 26 27  1  0  0  0  0
 28 26  2  0  0  0  0
 29 28  1  0  0  0  0
 30 36  1  6  0  0  0
 30 35  1  0  0  0  0
 31 30  1  0  0  0  0
 31 37  1  0  0  0  0
 31 32  1  0  0  0  0
 32 40  1  0  0  0  0
 32 33  1  0  0  0  0
 33 34  1  0  0  0  0
 33 41  1  0  0  0  0
 34 44  1  0  0  0  0
 35 45  1  1  0  0  0
 35 46  1  0  0  0  0
 35 34  1  0  0  0  0
 38 31  1  0  0  0  0
 39 32  1  0  0  0  0
 42 33  1  0  0  0  0
 43 34  1  0  0  0  0
 46 50  1  0  0  0  0
 46 47  1  0  0  0  0
 47 49  1  0  0  0  0
 48 47  2  0  0  0  0
 49 52  1  0  0  0  0
 49 51  1  0  0  0  0
M  END
>  <minimizedAffinity>
-6.98555708

$$$$

 OpenBabel03252507343D

 52 56  0  0  1  0  0  0  0  0999 V2000
   38.8190   32.4270   40.3080 C   0  0  0  0  0  0  0  0  0  0  0  0
   37.7040   32.8490   39.6030 C   0  0  0  0  0  0  0  0  0  0  0  0
   36.6800   31.9240   39.2920 C   0  0  0  0  0  0  0  0  0  0  0  0
   36.8760   30.6160   39.7290 N   0  0  0  0  0  0  0  0  0  0  0  0
   37.9770   30.2740   40.4040 C   0  0  0  0  0  0  0  0  0  0  0  0
   38.9320   31.1610   40.6900 N   0  0  0  0  0  0  0  0  0  0  0  0
   37.3710   33.7600   39.1510 H   0  0  0  0  0  0  0  0  0  0  0  0
   35.7690   32.0640   38.7710 H   0  0  0  0  0  0  0  0  0  0  0  0
   38.1320   28.8760   40.8190 C   0  0  0  0  0  0  0  0  0  0  0  0
   37.8000   28.4730   42.0920 C   0  0  0  0  0  0  0  0  0  0  0  0
   37.9080   27.1860   42.5730 C   0  0  0  0  0  0  0  0  0  0  0  0
   38.3930   26.2830   41.6610 C   0  0  0  0  0  0  0  0  0  0  0  0
   38.7380   26.6630   40.3630 C   0  0  0  0  0  0  0  0  0  0  0  0
   38.6030   27.9630   39.9540 N   0  0  0  0  0  0  0  0  0  0  0  0
   37.4200   29.2520   42.7600 H   0  0  0  0  0  0  0  0  0  0  0  0
   37.6440   26.8880   43.5700 H   0  0  0  0  0  0  0  0  0  0  0  0
   38.5280   25.2390   41.9060 H   0  0  0  0  0  0  0  0  0  0  0  0
   39.2370   25.6820   39.4570 N   0  0  0  0  0  0  0  0  0  0  0  0
   40.0180   25.7600   38.3430 C   0  0  0  0  0  0  0  0  0  0  0  0
   40.3880   26.7150   37.9910 H   0  0  0  0  0  0  0  0  0  0  0  0
   40.1990   24.5170   37.8470 N   0  0  0  0  0  0  0  0  0  0  0  0
   39.5410   23.6320   38.6310 C   0  0  0  0  0  0  0  0  0  0  0  0
   39.4080   22.2520   38.5600 C   0  0  0  0  0  0  0  0  0  0  0  0
   39.8880   21.6880   37.7610 H   0  0  0  0  0  0  0  0  0  0  0  0
   38.6850   21.5870   39.4790 N   0  0  0  0  0  0  0  0  0  0  0  0
   38.1050   22.3390   40.4590 C   0  0  0  0  0  0  0  0  0  0  0  0
   37.4910   21.9040   41.2630 H   0  0  0  0  0  0  0  0  0  0  0  0
   38.2070   23.6780   40.5650 N   0  0  0  0  0  0  0  0  0  0  0  0
   38.9280   24.3670   39.6530 C   0  0  0  0  0  0  0  0  0  0  0  0
   39.8280   33.4200   40.6230 C   0  0  2  0  0  0  0  0  0  0  0  0
   39.3460   34.8570   40.2760 C   0  0  0  0  0  0  0  0  0  0  0  0
   40.3470   35.8480   40.7650 C   0  0  0  0  0  0  0  0  0  0  0  0
   41.7760   35.5210   40.4940 C   0  0  0  0  0  0  0  0  0  0  0  0
   42.1020   34.1200   40.6200 C   0  0  0  0  0  0  0  0  0  0  0  0
   41.0810   33.1820   39.9360 C   0  0  2  0  0  0  0  0  0  0  0  0
   39.9330   33.4660   41.7270 H   0  0  0  0  0  0  0  0  0  0  0  0
   39.1660   34.9850   39.2110 H   0  0  0  0  0  0  0  0  0  0  0  0
   38.3810   35.0070   40.7990 H   0  0  0  0  0  0  0  0  0  0  0  0
   40.0760   36.0620   41.8170 H   0  0  0  0  0  0  0  0  0  0  0  0
   40.1370   36.8220   40.2330 H   0  0  0  0  0  0  0  0  0  0  0  0
   42.3590   36.2130   39.8880 H   0  0  0  0  0  0  0  0  0  0  0  0
   42.2390   35.9060   41.4900 H   0  0  0  0  0  0  0  0  0  0  0  0
   42.2120   33.6850   41.6430 H   0  0  0  0  0  0  0  0  0  0  0  0
   43.0820   33.8740   40.1250 H   0  0  0  0  0  0  0  0  0  0  0  0
   41.5550   32.2130   40.0930 H   0  0  0  0  0  0  0  0  0  0  0  0
   40.9610   33.5680   38.5290 N   0  0  0  0  0  0  0  0  0  0  0  0
   41.7900   33.3260   37.4200 C   0  0  0  0  0  0  0  0  0  0  0  0
   41.8330   32.1960   36.8130 O   0  0  0  0  0  0  0  0  0  0  0  0
   42.5800   34.4440   37.0110 N   0  0  0  0  0  0  0  0  0  0  0  0
   40.1560   34.2110   38.1780 H   0  0  0  0  0  0  0  0  0  0  0  0
   42.2910   35.4140   36.7950 H   0  0  0  0  0  0  0  0  0  0  0  0
   43.6180   34.3440   36.8910 H   0  0  0  0  0  0  0  0  0  0  0  0
  1 30  1  0  0  0  0
  1  6  1  0  0  0  0
  2  1  2  0  0  0  0
  3  2  1  0  0  0  0
  3  4  2  0  0  0  0
  4  5  1  0  0  0  0
  5  6  2  0  0  0  0
  5  9  1  0  0  0  0
  7  2  1  0  0  0  0
  8  3  1  0  0  0  0
  9 10  1  0  0  0  0
 10 11  2  0  0  0  0
 10 15  1  0  0  0  0
 11 16  1  0  0  0  0
 12 17  1  0  0  0  0
 12 11  1  0  0  0  0
 13 12  2  0  0  0  0
 14 13  1  0  0  0  0
 14  9  2  0  0  0  0
 18 29  1  0  0  0  0
 18 13  1  0  0  0  0
 19 18  1  0  0  0  0
 20 19  1  0  0  0  0
 21 19  2  0  0  0  0
 21 22  1  0  0  0  0
 22 29  1  0  0  0  0
 23 22  2  0  0  0  0
 23 25  1  0  0  0  0
 24 23  1  0  0  0  0
 25 26  2  0  0  0  0
 26 28  1  0  0  0  0
 26 27  1  0  0  0  0
 29 28  2  0  0  0  0
 30 36  1  1  0  0  0
 31 30  1  0  0  0  0
 31 32  1  0  0  0  0
 31 38  1  0  0  0  0
 32 39  1  0  0  0  0
 33 34  1  0  0  0  0
 33 32  1  0  0  0  0
 33 42  1  0  0  0  0
 34 43  1  0  0  0  0
 35 45  1  1  0  0  0
 35 34  1  0  0  0  0
 35 30  1  0  0  0  0
 37 31  1  0  0  0  0
 40 32  1  0  0  0  0
 41 33  1  0  0  0  0
 44 34  1  0  0  0  0
 46 35  1  0  0  0  0
 47 46  1  0  0  0  0
 48 47  2  0  0  0  0
 49 47  1  0  0  0  0
 50 46  1  0  0  0  0
 51 49  1  0  0  0  0
 52 49  1  0  0  0  0
M  END
>  <minimizedAffinity>
-6.95735931

$$$$

 OpenBabel03252507343D

 52 56  0  0  1  0  0  0  0  0999 V2000
   40.6820   34.0350   40.7000 C   0  0  0  0  0  0  0  0  0  0  0  0
   40.2570   35.3340   40.4730 C   0  0  0  0  0  0  0  0  0  0  0  0
   38.9270   35.5730   40.0560 C   0  0  0  0  0  0  0  0  0  0  0  0
   38.1170   34.4500   39.8990 N   0  0  0  0  0  0  0  0  0  0  0  0
   38.5910   33.2230   40.1330 C   0  0  0  0  0  0  0  0  0  0  0  0
   39.8480   33.0160   40.5260 N   0  0  0  0  0  0  0  0  0  0  0  0
   40.6980   36.3090   40.4940 H   0  0  0  0  0  0  0  0  0  0  0  0
   38.4330   36.4840   39.8410 H   0  0  0  0  0  0  0  0  0  0  0  0
   37.6930   32.0820   39.9280 C   0  0  0  0  0  0  0  0  0  0  0  0
   37.0150   31.5150   40.9830 C   0  0  0  0  0  0  0  0  0  0  0  0
   36.1520   30.4440   40.8920 C   0  0  0  0  0  0  0  0  0  0  0  0
   36.0000   29.9510   39.6200 C   0  0  0  0  0  0  0  0  0  0  0  0
   36.6750   30.5060   38.5310 C   0  0  0  0  0  0  0  0  0  0  0  0
   37.5190   31.5710   38.6990 N   0  0  0  0  0  0  0  0  0  0  0  0
   37.1890   31.9660   41.9650 H   0  0  0  0  0  0  0  0  0  0  0  0
   35.6300   30.0140   41.7240 H   0  0  0  0  0  0  0  0  0  0  0  0
   35.3520   29.1130   39.4050 H   0  0  0  0  0  0  0  0  0  0  0  0
   36.4780   29.9520   37.2330 N   0  0  0  0  0  0  0  0  0  0  0  0
   37.2370   29.9540   36.1000 C   0  0  0  0  0  0  0  0  0  0  0  0
   38.2000   30.4470   36.0770 H   0  0  0  0  0  0  0  0  0  0  0  0
   36.5810   29.2750   35.1330 N   0  0  0  0  0  0  0  0  0  0  0  0
   35.4020   28.8340   35.6300 C   0  0  0  0  0  0  0  0  0  0  0  0
   34.3720   28.1000   35.0570 C   0  0  0  0  0  0  0  0  0  0  0  0
   34.4340   27.7720   34.0210 H   0  0  0  0  0  0  0  0  0  0  0  0
   33.2810   27.7800   35.7750 N   0  0  0  0  0  0  0  0  0  0  0  0
   33.2510   28.2150   37.0670 C   0  0  0  0  0  0  0  0  0  0  0  0
   32.4100   28.0130   37.7480 H   0  0  0  0  0  0  0  0  0  0  0  0
   34.2260   28.9290   37.6630 N   0  0  0  0  0  0  0  0  0  0  0  0
   35.3330   29.2620   36.9610 C   0  0  0  0  0  0  0  0  0  0  0  0
   42.0470   33.8450   41.1490 C   0  0  2  0  0  0  0  0  0  0  0  0
   42.7130   35.1930   41.5470 C   0  0  0  0  0  0  0  0  0  0  0  0
   44.0500   34.9280   42.1520 C   0  0  0  0  0  0  0  0  0  0  0  0
   44.8990   33.9290   41.4430 C   0  0  0  0  0  0  0  0  0  0  0  0
   44.1730   32.8040   40.9010 C   0  0  0  0  0  0  0  0  0  0  0  0
   42.8810   33.2040   40.1520 C   0  0  2  0  0  0  0  0  0  0  0  0
   42.0200   33.3000   42.1160 H   0  0  0  0  0  0  0  0  0  0  0  0
   42.7990   35.8750   40.7050 H   0  0  0  0  0  0  0  0  0  0  0  0
   42.0490   35.6690   42.2960 H   0  0  0  0  0  0  0  0  0  0  0  0
   43.8690   34.7520   43.2290 H   0  0  0  0  0  0  0  0  0  0  0  0
   44.6210   35.9020   42.1320 H   0  0  0  0  0  0  0  0  0  0  0  0
   45.8650   34.2510   41.0570 H   0  0  0  0  0  0  0  0  0  0  0  0
   45.3740   33.4090   42.3700 H   0  0  0  0  0  0  0  0  0  0  0  0
   43.8330   32.0000   41.5980 H   0  0  0  0  0  0  0  0  0  0  0  0
   44.7780   32.2470   40.1350 H   0  0  0  0  0  0  0  0  0  0  0  0
   42.5490   32.2340   39.7810 H   0  0  0  0  0  0  0  0  0  0  0  0
   43.2280   34.1610   39.1000 N   0  0  0  0  0  0  0  0  0  0  0  0
   43.2590   34.0390   37.7000 C   0  0  0  0  0  0  0  0  0  0  0  0
   42.2000   34.0540   36.9730 O   0  0  0  0  0  0  0  0  0  0  0  0
   44.5670   33.9050   37.1430 N   0  0  0  0  0  0  0  0  0  0  0  0
   43.6000   35.1570   39.3320 H   0  0  0  0  0  0  0  0  0  0  0  0
   45.4070   34.4950   37.2780 H   0  0  0  0  0  0  0  0  0  0  0  0
   44.7870   33.1140   36.4900 H   0  0  0  0  0  0  0  0  0  0  0  0
  1 30  1  0  0  0  0
  2  7  1  0  0  0  0
  2  1  2  0  0  0  0
  3  2  1  0  0  0  0
  4  3  2  0  0  0  0
  4  5  1  0  0  0  0
  5  6  2  0  0  0  0
  6  1  1  0  0  0  0
  8  3  1  0  0  0  0
  9  5  1  0  0  0  0
  9 10  1  0  0  0  0
 10 15  1  0  0  0  0
 11 10  2  0  0  0  0
 11 16  1  0  0  0  0
 12 11  1  0  0  0  0
 13 14  1  0  0  0  0
 13 12  2  0  0  0  0
 14  9  2  0  0  0  0
 17 12  1  0  0  0  0
 18 13  1  0  0  0  0
 19 18  1  0  0  0  0
 20 19  1  0  0  0  0
 21 22  1  0  0  0  0
 21 19  2  0  0  0  0
 22 29  1  0  0  0  0
 23 22  2  0  0  0  0
 23 25  1  0  0  0  0
 24 23  1  0  0  0  0
 25 26  2  0  0  0  0
 26 28  1  0  0  0  0
 26 27  1  0  0  0  0
 29 18  1  0  0  0  0
 29 28  2  0  0  0  0
 30 31  1  0  0  0  0
 30 36  1  1  0  0  0
 31 32  1  0  0  0  0
 31 38  1  0  0  0  0
 32 39  1  0  0  0  0
 33 32  1  0  0  0  0
 33 42  1  0  0  0  0
 34 33  1  0  0  0  0
 34 43  1  0  0  0  0
 35 45  1  6  0  0  0
 35 34  1  0  0  0  0
 35 30  1  0  0  0  0
 37 31  1  0  0  0  0
 40 32  1  0  0  0  0
 41 33  1  0  0  0  0
 44 34  1  0  0  0  0
 46 50  1  0  0  0  0
 46 35  1  0  0  0  0
 47 46  1  0  0  0  0
 48 47  2  0  0  0  0
 49 51  1  0  0  0  0
 49 47  1  0  0  0  0
 52 49  1  0  0  0  0
M  END
>  <minimizedAffinity>
-6.94682598

$$$$

 OpenBabel03252507343D

 52 56  0  0  1  0  0  0  0  0999 V2000
   37.9800   25.2170   41.6300 C   0  0  0  0  0  0  0  0  0  0  0  0
   38.8670   24.9540   42.6620 C   0  0  0  0  0  0  0  0  0  0  0  0
   39.5090   26.0270   43.3240 C   0  0  0  0  0  0  0  0  0  0  0  0
   39.1940   27.3070   42.8750 N   0  0  0  0  0  0  0  0  0  0  0  0
   38.3310   27.4920   41.8720 C   0  0  0  0  0  0  0  0  0  0  0  0
   37.7330   26.4680   41.2600 N   0  0  0  0  0  0  0  0  0  0  0  0
   39.2730   24.0830   43.1320 H   0  0  0  0  0  0  0  0  0  0  0  0
   40.2030   26.0170   44.1230 H   0  0  0  0  0  0  0  0  0  0  0  0
   38.0580   28.8640   41.4340 C   0  0  0  0  0  0  0  0  0  0  0  0
   36.7910   29.3960   41.5160 C   0  0  0  0  0  0  0  0  0  0  0  0
   36.4380   30.6720   41.1320 C   0  0  0  0  0  0  0  0  0  0  0  0
   37.4760   31.4190   40.6360 C   0  0  0  0  0  0  0  0  0  0  0  0
   38.7710   30.9050   40.5410 C   0  0  0  0  0  0  0  0  0  0  0  0
   39.0490   29.6260   40.9430 N   0  0  0  0  0  0  0  0  0  0  0  0
   36.0180   28.7380   41.9230 H   0  0  0  0  0  0  0  0  0  0  0  0
   35.4450   31.0720   41.2030 H   0  0  0  0  0  0  0  0  0  0  0  0
   37.3390   32.4360   40.2990 H   0  0  0  0  0  0  0  0  0  0  0  0
   39.8110   31.7270   40.0180 N   0  0  0  0  0  0  0  0  0  0  0  0
   41.0040   31.4450   39.4220 C   0  0  0  0  0  0  0  0  0  0  0  0
   41.3190   30.4210   39.2660 H   0  0  0  0  0  0  0  0  0  0  0  0
   41.6220   32.6050   39.1080 N   0  0  0  0  0  0  0  0  0  0  0  0
   40.8390   33.6380   39.4980 C   0  0  0  0  0  0  0  0  0  0  0  0
   41.0080   35.0130   39.4100 C   0  0  0  0  0  0  0  0  0  0  0  0
   41.9060   35.4340   38.9600 H   0  0  0  0  0  0  0  0  0  0  0  0
   40.0650   35.8480   39.8800 N   0  0  0  0  0  0  0  0  0  0  0  0
   38.9610   35.2710   40.4350 C   0  0  0  0  0  0  0  0  0  0  0  0
   38.1250   35.8550   40.8520 H   0  0  0  0  0  0  0  0  0  0  0  0
   38.7550   33.9440   40.5410 N   0  0  0  0  0  0  0  0  0  0  0  0
   39.6900   33.0850   40.0760 C   0  0  0  0  0  0  0  0  0  0  0  0
   37.3300   24.0850   41.0010 C   0  0  2  0  0  0  0  0  0  0  0  0
   38.3640   23.0700   40.4370 C   0  0  0  0  0  0  0  0  0  0  0  0
   37.6520   21.8540   39.9480 C   0  0  0  0  0  0  0  0  0  0  0  0
   36.4220   22.0980   39.1410 C   0  0  0  0  0  0  0  0  0  0  0  0
   35.6200   23.2090   39.5970 C   0  0  0  0  0  0  0  0  0  0  0  0
   36.4420   24.4760   39.9240 C   0  0  2  0  0  0  0  0  0  0  0  0
   36.8250   23.4920   41.7930 H   0  0  0  0  0  0  0  0  0  0  0  0
   38.9760   23.5010   39.6480 H   0  0  0  0  0  0  0  0  0  0  0  0
   39.0370   22.8000   41.2740 H   0  0  0  0  0  0  0  0  0  0  0  0
   37.5470   21.1880   40.8260 H   0  0  0  0  0  0  0  0  0  0  0  0
   38.3690   21.2980   39.2760 H   0  0  0  0  0  0  0  0  0  0  0  0
   36.3930   21.7270   38.1180 H   0  0  0  0  0  0  0  0  0  0  0  0
   35.7690   21.2230   39.5430 H   0  0  0  0  0  0  0  0  0  0  0  0
   34.9800   23.0710   40.5020 H   0  0  0  0  0  0  0  0  0  0  0  0
   34.8890   23.5460   38.8100 H   0  0  0  0  0  0  0  0  0  0  0  0
   35.6470   25.1800   40.1700 H   0  0  0  0  0  0  0  0  0  0  0  0
   37.2240   24.8430   38.7410 N   0  0  0  0  0  0  0  0  0  0  0  0
   36.9940   25.7880   37.7270 C   0  0  0  0  0  0  0  0  0  0  0  0
   37.1750   27.0490   37.8910 O   0  0  0  0  0  0  0  0  0  0  0  0
   36.5460   25.2360   36.4880 N   0  0  0  0  0  0  0  0  0  0  0  0
   38.1340   24.3130   38.4680 H   0  0  0  0  0  0  0  0  0  0  0  0
   36.9560   24.4740   35.9180 H   0  0  0  0  0  0  0  0  0  0  0  0
   35.6800   25.6040   36.0250 H   0  0  0  0  0  0  0  0  0  0  0  0
  1  2  1  0  0  0  0
  2  7  1  0  0  0  0
  2  3  2  0  0  0  0
  3  8  1  0  0  0  0
  4  3  1  0  0  0  0
  5  4  2  0  0  0  0
  6  1  2  0  0  0  0
  6  5  1  0  0  0  0
  9 10  1  0  0  0  0
  9  5  1  0  0  0  0
 10 15  1  0  0  0  0
 11 16  1  0  0  0  0
 11 10  2  0  0  0  0
 12 11  1  0  0  0  0
 13 12  2  0  0  0  0
 13 14  1  0  0  0  0
 14  9  2  0  0  0  0
 17 12  1  0  0  0  0
 18 29  1  0  0  0  0
 18 13  1  0  0  0  0
 19 18  1  0  0  0  0
 20 19  1  0  0  0  0
 21 19  2  0  0  0  0
 21 22  1  0  0  0  0
 22 29  1  0  0  0  0
 23 22  2  0  0  0  0
 23 25  1  0  0  0  0
 24 23  1  0  0  0  0
 25 26  2  0  0  0  0
 26 28  1  0  0  0  0
 26 27  1  0  0  0  0
 29 28  2  0  0  0  0
 30  1  1  0  0  0  0
 30 36  1  1  0  0  0
 31 30  1  0  0  0  0
 31 38  1  0  0  0  0
 32 31  1  0  0  0  0
 32 39  1  0  0  0  0
 33 42  1  0  0  0  0
 33 34  1  0  0  0  0
 33 32  1  0  0  0  0
 34 35  1  0  0  0  0
 34 43  1  0  0  0  0
 35 45  1  1  0  0  0
 35 30  1  0  0  0  0
 37 31  1  0  0  0  0
 40 32  1  0  0  0  0
 41 33  1  0  0  0  0
 44 34  1  0  0  0  0
 46 35  1  0  0  0  0
 47 48  2  0  0  0  0
 47 46  1  0  0  0  0
 49 47  1  0  0  0  0
 50 46  1  0  0  0  0
 51 49  1  0  0  0  0
 52 49  1  0  0  0  0
M  END
>  <minimizedAffinity>
-6.94540262

$$$$

 OpenBabel03252507343D

 52 56  0  0  1  0  0  0  0  0999 V2000
   41.4660   33.4510   39.5740 C   0  0  0  0  0  0  0  0  0  0  0  0
   41.0020   34.7440   39.7570 C   0  0  0  0  0  0  0  0  0  0  0  0
   39.7370   34.9570   40.3510 C   0  0  0  0  0  0  0  0  0  0  0  0
   39.0270   33.8170   40.7190 N   0  0  0  0  0  0  0  0  0  0  0  0
   39.5310   32.5970   40.5120 C   0  0  0  0  0  0  0  0  0  0  0  0
   40.7270   32.4140   39.9520 N   0  0  0  0  0  0  0  0  0  0  0  0
   41.3470   35.7310   39.5270 H   0  0  0  0  0  0  0  0  0  0  0  0
   39.2290   35.8600   40.5690 H   0  0  0  0  0  0  0  0  0  0  0  0
   38.7240   31.4360   40.9040 C   0  0  0  0  0  0  0  0  0  0  0  0
   37.3520   31.4570   40.7940 C   0  0  0  0  0  0  0  0  0  0  0  0
   36.5110   30.4190   41.1340 C   0  0  0  0  0  0  0  0  0  0  0  0
   37.1560   29.3060   41.6120 C   0  0  0  0  0  0  0  0  0  0  0  0
   38.5460   29.2570   41.7340 C   0  0  0  0  0  0  0  0  0  0  0  0
   39.3190   30.3290   41.3760 N   0  0  0  0  0  0  0  0  0  0  0  0
   36.9150   32.3810   40.4040 H   0  0  0  0  0  0  0  0  0  0  0  0
   35.4430   30.4510   41.0430 H   0  0  0  0  0  0  0  0  0  0  0  0
   36.6170   28.4190   41.9160 H   0  0  0  0  0  0  0  0  0  0  0  0
   39.1610   28.0730   42.2370 N   0  0  0  0  0  0  0  0  0  0  0  0
   40.3550   27.8390   42.8510 C   0  0  0  0  0  0  0  0  0  0  0  0
   41.0490   28.6470   43.0420 H   0  0  0  0  0  0  0  0  0  0  0  0
   40.4520   26.5200   43.1300 N   0  0  0  0  0  0  0  0  0  0  0  0
   39.3300   25.8980   42.7010 C   0  0  0  0  0  0  0  0  0  0  0  0
   38.9340   24.5680   42.7450 C   0  0  0  0  0  0  0  0  0  0  0  0
   39.5800   23.8110   43.1880 H   0  0  0  0  0  0  0  0  0  0  0  0
   37.7450   24.1920   42.2410 N   0  0  0  0  0  0  0  0  0  0  0  0
   36.9740   25.1780   41.6980 C   0  0  0  0  0  0  0  0  0  0  0  0
   35.9840   24.9880   41.2560 H   0  0  0  0  0  0  0  0  0  0  0  0
   37.3180   26.4790   41.6340 N   0  0  0  0  0  0  0  0  0  0  0  0
   38.5090   26.8790   42.1340 C   0  0  0  0  0  0  0  0  0  0  0  0
   42.7800   33.2870   38.9830 C   0  0  2  0  0  0  0  0  0  0  0  0
   43.4010   31.9080   39.3400 C   0  0  0  0  0  0  0  0  0  0  0  0
   44.6710   31.7240   38.5810 C   0  0  0  0  0  0  0  0  0  0  0  0
   45.5880   32.9000   38.5480 C   0  0  0  0  0  0  0  0  0  0  0  0
   44.9190   34.1750   38.4380 C   0  0  0  0  0  0  0  0  0  0  0  0
   43.7090   34.3230   39.3880 C   0  0  2  0  0  0  0  0  0  0  0  0
   42.6560   33.2140   37.8820 H   0  0  0  0  0  0  0  0  0  0  0  0
   43.5710   31.7960   40.4080 H   0  0  0  0  0  0  0  0  0  0  0  0
   42.6660   31.1370   39.0350 H   0  0  0  0  0  0  0  0  0  0  0  0
   44.3840   31.2890   37.6040 H   0  0  0  0  0  0  0  0  0  0  0  0
   45.2420   30.8900   39.0860 H   0  0  0  0  0  0  0  0  0  0  0  0
   46.5870   32.7890   38.9660 H   0  0  0  0  0  0  0  0  0  0  0  0
   45.9680   32.7980   37.4520 H   0  0  0  0  0  0  0  0  0  0  0  0
   44.5120   34.4830   37.4450 H   0  0  0  0  0  0  0  0  0  0  0  0
   45.5990   35.0270   38.7170 H   0  0  0  0  0  0  0  0  0  0  0  0
   43.4160   35.3550   39.1890 H   0  0  0  0  0  0  0  0  0  0  0  0
   44.1580   34.0830   40.7600 N   0  0  0  0  0  0  0  0  0  0  0  0
   44.5010   34.9650   41.7990 C   0  0  0  0  0  0  0  0  0  0  0  0
   43.6270   35.5970   42.4960 O   0  0  0  0  0  0  0  0  0  0  0  0
   45.9050   35.1000   42.0270 N   0  0  0  0  0  0  0  0  0  0  0  0
   44.3550   33.0780   41.1300 H   0  0  0  0  0  0  0  0  0  0  0  0
   46.6220   34.3710   42.1840 H   0  0  0  0  0  0  0  0  0  0  0  0
   46.3480   36.0510   42.0530 H   0  0  0  0  0  0  0  0  0  0  0  0
  1  2  2  0  0  0  0
  1  6  1  0  0  0  0
  2  3  1  0  0  0  0
  3  8  1  0  0  0  0
  3  4  2  0  0  0  0
  5  4  1  0  0  0  0
  5  9  1  0  0  0  0
  6  5  2  0  0  0  0
  7  2  1  0  0  0  0
  9 14  1  0  0  0  0
 10  9  2  0  0  0  0
 10 11  1  0  0  0  0
 11 12  2  0  0  0  0
 12 13  1  0  0  0  0
 12 17  1  0  0  0  0
 13 18  1  0  0  0  0
 14 13  2  0  0  0  0
 15 10  1  0  0  0  0
 16 11  1  0  0  0  0
 18 19  1  0  0  0  0
 19 20  1  0  0  0  0
 19 21  2  0  0  0  0
 22 23  1  0  0  0  0
 22 21  1  0  0  0  0
 23 24  1  0  0  0  0
 25 23  2  0  0  0  0
 26 25  1  0  0  0  0
 27 26  1  0  0  0  0
 28 26  2  0  0  0  0
 28 29  1  0  0  0  0
 29 18  1  0  0  0  0
 29 22  2  0  0  0  0
 30 36  1  6  0  0  0
 30 31  1  0  0  0  0
 30 35  1  0  0  0  0
 30  1  1  0  0  0  0
 31 37  1  0  0  0  0
 32 40  1  0  0  0  0
 32 31  1  0  0  0  0
 33 32  1  0  0  0  0
 33 41  1  0  0  0  0
 34 33  1  0  0  0  0
 34 44  1  0  0  0  0
 34 35  1  0  0  0  0
 35 45  1  6  0  0  0
 35 46  1  0  0  0  0
 38 31  1  0  0  0  0
 39 32  1  0  0  0  0
 42 33  1  0  0  0  0
 43 34  1  0  0  0  0
 46 50  1  0  0  0  0
 46 47  1  0  0  0  0
 47 49  1  0  0  0  0
 47 48  2  0  0  0  0
 49 52  1  0  0  0  0
 49 51  1  0  0  0  0
M  END
>  <minimizedAffinity>
-6.85263491

$$$$

 OpenBabel03252507343D

 52 56  0  0  1  0  0  0  0  0999 V2000
   41.0310   33.5060   39.7340 C   0  0  0  0  0  0  0  0  0  0  0  0
   40.4700   34.7680   39.8530 C   0  0  0  0  0  0  0  0  0  0  0  0
   39.1490   34.9050   40.3380 C   0  0  0  0  0  0  0  0  0  0  0  0
   38.4870   33.7250   40.6690 N   0  0  0  0  0  0  0  0  0  0  0  0
   39.0840   32.5380   40.5280 C   0  0  0  0  0  0  0  0  0  0  0  0
   40.3320   32.4280   40.0710 N   0  0  0  0  0  0  0  0  0  0  0  0
   40.7680   35.7720   39.6330 H   0  0  0  0  0  0  0  0  0  0  0  0
   38.5670   35.7750   40.4960 H   0  0  0  0  0  0  0  0  0  0  0  0
   38.3250   31.3330   40.8750 C   0  0  0  0  0  0  0  0  0  0  0  0
   36.9640   31.2730   40.6840 C   0  0  0  0  0  0  0  0  0  0  0  0
   36.1660   30.1870   40.9760 C   0  0  0  0  0  0  0  0  0  0  0  0
   36.8450   29.1140   41.4970 C   0  0  0  0  0  0  0  0  0  0  0  0
   38.2250   29.1470   41.7010 C   0  0  0  0  0  0  0  0  0  0  0  0
   38.9540   30.2620   41.3860 N   0  0  0  0  0  0  0  0  0  0  0  0
   36.4960   32.1690   40.2640 H   0  0  0  0  0  0  0  0  0  0  0  0
   35.1050   30.1560   40.8210 H   0  0  0  0  0  0  0  0  0  0  0  0
   36.3420   28.1970   41.7700 H   0  0  0  0  0  0  0  0  0  0  0  0
   38.8770   28.0020   42.2450 N   0  0  0  0  0  0  0  0  0  0  0  0
   40.0450   27.8380   42.9300 C   0  0  0  0  0  0  0  0  0  0  0  0
   40.6770   28.6860   43.1600 H   0  0  0  0  0  0  0  0  0  0  0  0
   40.2020   26.5280   43.2200 N   0  0  0  0  0  0  0  0  0  0  0  0
   39.1460   25.8400   42.7270 C   0  0  0  0  0  0  0  0  0  0  0  0
   38.8270   24.4890   42.7520 C   0  0  0  0  0  0  0  0  0  0  0  0
   39.4890   23.7720   43.2360 H   0  0  0  0  0  0  0  0  0  0  0  0
   37.6950   24.0440   42.1790 N   0  0  0  0  0  0  0  0  0  0  0  0
   36.9010   24.9820   41.5870 C   0  0  0  0  0  0  0  0  0  0  0  0
   35.9520   24.7340   41.0870 H   0  0  0  0  0  0  0  0  0  0  0  0
   37.1710   26.3010   41.5390 N   0  0  0  0  0  0  0  0  0  0  0  0
   38.3040   26.7710   42.1080 C   0  0  0  0  0  0  0  0  0  0  0  0
   42.3960   33.4220   39.2560 C   0  0  2  0  0  0  0  0  0  0  0  0
   42.6340   34.3490   38.0310 C   0  0  0  0  0  0  0  0  0  0  0  0
   44.0830   34.3490   37.6800 C   0  0  0  0  0  0  0  0  0  0  0  0
   44.7510   33.0160   37.6690 C   0  0  0  0  0  0  0  0  0  0  0  0
   44.3130   32.1200   38.7140 C   0  0  0  0  0  0  0  0  0  0  0  0
   42.7780   32.0730   38.8860 C   0  0  2  0  0  0  0  0  0  0  0  0
   43.0600   33.8710   40.0240 H   0  0  0  0  0  0  0  0  0  0  0  0
   42.0300   34.0610   37.1730 H   0  0  0  0  0  0  0  0  0  0  0  0
   42.3200   35.3670   38.3340 H   0  0  0  0  0  0  0  0  0  0  0  0
   44.5480   35.1340   38.3060 H   0  0  0  0  0  0  0  0  0  0  0  0
   44.1700   34.7570   36.6310 H   0  0  0  0  0  0  0  0  0  0  0  0
   45.1980   32.6690   36.7390 H   0  0  0  0  0  0  0  0  0  0  0  0
   45.7790   33.3290   38.1180 H   0  0  0  0  0  0  0  0  0  0  0  0
   44.6890   32.2840   39.7530 H   0  0  0  0  0  0  0  0  0  0  0  0
   44.6020   31.0550   38.4970 H   0  0  0  0  0  0  0  0  0  0  0  0
   42.6800   31.3040   39.6530 H   0  0  0  0  0  0  0  0  0  0  0  0
   42.1740   31.7170   37.6010 N   0  0  0  0  0  0  0  0  0  0  0  0
   41.9940   30.4770   36.9650 C   0  0  0  0  0  0  0  0  0  0  0  0
   41.0800   29.6420   37.3060 O   0  0  0  0  0  0  0  0  0  0  0  0
   42.9070   30.2170   35.8980 N   0  0  0  0  0  0  0  0  0  0  0  0
   41.8210   32.4760   36.9040 H   0  0  0  0  0  0  0  0  0  0  0  0
   43.1410   30.7960   35.0730 H   0  0  0  0  0  0  0  0  0  0  0  0
   43.4610   29.3260   35.8800 H   0  0  0  0  0  0  0  0  0  0  0  0
  1  2  2  0  0  0  0
  1  6  1  0  0  0  0
  2  3  1  0  0  0  0
  3  8  1  0  0  0  0
  3  4  2  0  0  0  0
  5  4  1  0  0  0  0
  5  9  1  0  0  0  0
  6  5  2  0  0  0  0
  7  2  1  0  0  0  0
  9 14  1  0  0  0  0
 10  9  2  0  0  0  0
 10 11  1  0  0  0  0
 11 12  2  0  0  0  0
 12 13  1  0  0  0  0
 12 17  1  0  0  0  0
 13 18  1  0  0  0  0
 14 13  2  0  0  0  0
 15 10  1  0  0  0  0
 16 11  1  0  0  0  0
 18 19  1  0  0  0  0
 19 20  1  0  0  0  0
 19 21  2  0  0  0  0
 22 23  1  0  0  0  0
 22 21  1  0  0  0  0
 23 24  1  0  0  0  0
 25 23  2  0  0  0  0
 26 25  1  0  0  0  0
 27 26  1  0  0  0  0
 28 26  2  0  0  0  0
 28 29  1  0  0  0  0
 29 18  1  0  0  0  0
 29 22  2  0  0  0  0
 30  1  1  0  0  0  0
 30 36  1  1  0  0  0
 31 38  1  0  0  0  0
 31 30  1  0  0  0  0
 32 31  1  0  0  0  0
 32 39  1  0  0  0  0
 33 32  1  0  0  0  0
 33 42  1  0  0  0  0
 33 34  1  0  0  0  0
 34 35  1  0  0  0  0
 34 43  1  0  0  0  0
 35 30  1  0  0  0  0
 35 45  1  1  0  0  0
 37 31  1  0  0  0  0
 40 32  1  0  0  0  0
 41 33  1  0  0  0  0
 44 34  1  0  0  0  0
 46 35  1  0  0  0  0
 47 48  2  0  0  0  0
 47 46  1  0  0  0  0
 49 47  1  0  0  0  0
 50 46  1  0  0  0  0
 51 49  1  0  0  0  0
 52 49  1  0  0  0  0
M  END
>  <minimizedAffinity>
-6.80578375

$$$$
