REMARK  Name = 
REMARK  3 active torsions:
REMARK  status: ('A' for Active; 'I' for Inactive)
REMARK    1  A    between atoms: C_2  and  N_12
REMARK    2  A    between atoms: C_11  and  S_13
REMARK    3  A    between atoms: S_13  and  C_27
REMARK                            x       y       z     vdW  Elec       q    Type
REMARK                         _______ _______ _______ _____ _____    ______ ____
ROOT
ATOM      1  C   UNL     1      44.486  35.742  44.993  0.00  0.00    +0.000 A 
ATOM      2  C   UNL     1      45.125  35.714  43.747  0.00  0.00    +0.000 A 
ATOM      3  C   UNL     1      46.017  34.723  43.488  0.00  0.00    +0.000 A 
ATOM      4  N   UNL     1      46.226  33.817  44.479  0.00  0.00    +0.000 NA
ATOM      5  C   UNL     1      45.622  33.846  45.655  0.00  0.00    +0.000 A 
ATOM      6  N   UNL     1      44.732  34.811  45.948  0.00  0.00    +0.000 NA
ATOM      7  N   UNL     1      45.937  32.844  46.599  0.00  0.00    +0.000 N 
ATOM      8  C   UNL     1      45.161  32.559  47.814  0.00  0.00    +0.000 C 
ATOM      9  C   UNL     1      46.260  32.238  48.806  0.00  0.00    +0.000 C 
ATOM     10  C   UNL     1      47.533  32.072  48.032  0.00  0.00    +0.000 C 
ATOM     11  C   UNL     1      47.032  31.900  46.619  0.00  0.00    +0.000 C 
ATOM     12  H   UNL     1      43.761  36.542  45.207  0.00  0.00    +0.000 HD
ATOM     13  H   UNL     1      46.490  34.724  42.534  0.00  0.00    +0.000 HD
ATOM     14  H   UNL     1      44.463  31.719  47.670  0.00  0.00    +0.000 HD
ATOM     15  H   UNL     1      44.574  33.456  48.077  0.00  0.00    +0.000 HD
ATOM     16  H   UNL     1      45.994  31.296  49.353  0.00  0.00    +0.000 HD
ATOM     17  H   UNL     1      46.342  33.105  49.495  0.00  0.00    +0.000 HD
ATOM     18  H   UNL     1      48.215  32.941  48.130  0.00  0.00    +0.000 HD
ATOM     19  H   UNL     1      48.080  31.139  48.297  0.00  0.00    +0.000 HD
ATOM     20  H   UNL     1      47.772  32.202  45.861  0.00  0.00    +0.000 HD
ENDROOT
BRANCH   2  21
ATOM     21  N   UNL     1      44.773  36.762  42.835  0.00  0.00    +0.000 N 
ATOM     22  H   UNL     1      44.406  37.673  43.185  0.00  0.00    +0.000 HD
ATOM     23  H   UNL     1      44.885  36.612  41.800  0.00  0.00    +0.000 HD
ENDBRANCH   2  21
BRANCH  11  24
ATOM     24  S   UNL     1      46.479  30.198  46.396  0.00  0.00    +0.000 S 
BRANCH  24  27
ATOM     25  H   UNL     1      46.550  31.683  43.788  0.00  0.00    +0.000 HD
ATOM     26  N   UNL     1      46.022  30.786  43.786  0.00  0.00    +0.000 N 
ATOM     27  C   UNL     1      45.806  29.905  44.776  0.00  0.00    +0.000 A 
ATOM     28  N   UNL     1      45.052  28.866  44.317  0.00  0.00    +0.000 NA
ATOM     29  C   UNL     1      44.795  29.117  42.996  0.00  0.00    +0.000 A 
ATOM     30  C   UNL     1      44.130  28.525  41.961  0.00  0.00    +0.000 A 
ATOM     31  H   UNL     1      43.638  27.571  42.194  0.00  0.00    +0.000 HD
ATOM     32  N   UNL     1      44.068  29.055  40.734  0.00  0.00    +0.000 NA
ATOM     33  C   UNL     1      44.663  30.217  40.442  0.00  0.00    +0.000 A 
ATOM     34  H   UNL     1      44.541  30.538  39.418  0.00  0.00    +0.000 HD
ATOM     35  N   UNL     1      45.330  30.843  41.417  0.00  0.00    +0.000 NA
ATOM     36  C   UNL     1      45.409  30.325  42.678  0.00  0.00    +0.000 A 
ENDBRANCH  24  27
ENDBRANCH  11  24
TORSDOF 3
