REMARK  Name = 
REMARK  4 active torsions:
REMARK  status: ('A' for Active; 'I' for Inactive)
REMARK    1  A    between atoms: C_3  and  C_10
REMARK    2  A    between atoms: C_4  and  C_15
REMARK    3  A    between atoms: C_14  and  S_20
REMARK    4  A    between atoms: S_20  and  C_35
REMARK                            x       y       z     vdW  Elec       q    Type
REMARK                         _______ _______ _______ _____ _____    ______ ____
ROOT
ATOM      1  C   UNL     1      47.806  31.874  38.988  0.00  0.00    +0.000 A 
ATOM      2  C   UNL     1      47.237  33.107  38.875  0.00  0.00    +0.000 A 
ATOM      3  C   UNL     1      47.762  34.027  37.984  0.00  0.00    +0.000 A 
ATOM      4  C   UNL     1      48.852  33.702  37.214  0.00  0.00    +0.000 A 
ATOM      5  C   UNL     1      49.460  32.451  37.300  0.00  0.00    +0.000 A 
ATOM      6  C   UNL     1      48.915  31.536  38.206  0.00  0.00    +0.000 A 
ATOM      7  H   UNL     1      47.342  35.019  37.863  0.00  0.00    +0.000 HD
ATOM      8  H   UNL     1      49.341  34.334  36.494  0.00  0.00    +0.000 HD
ATOM      9  H   UNL     1      50.306  32.132  36.733  0.00  0.00    +0.000 HD
ATOM     10  H   UNL     1      49.381  30.550  38.285  0.00  0.00    +0.000 HD
ENDROOT
BRANCH   2  14
ATOM     11 CL   UNL     1      45.282  35.294  43.125  0.00  0.00    +0.000 Cl
ATOM     12  C   UNL     1      45.163  34.544  41.552  0.00  0.00    +0.000 A 
ATOM     13  C   UNL     1      46.272  34.154  40.873  0.00  0.00    +0.000 A 
ATOM     14  C   UNL     1      46.072  33.555  39.642  0.00  0.00    +0.000 A 
ATOM     15  C   UNL     1      44.815  33.362  39.123  0.00  0.00    +0.000 A 
ATOM     16  C   UNL     1      43.720  33.758  39.816  0.00  0.00    +0.000 A 
ATOM     17  C   UNL     1      43.902  34.355  41.042  0.00  0.00    +0.000 A 
ATOM     18  H   UNL     1      44.737  32.883  38.146  0.00  0.00    +0.000 HD
ATOM     19  H   UNL     1      42.771  33.580  39.358  0.00  0.00    +0.000 HD
ATOM     20  H   UNL     1      43.009  34.662  41.574  0.00  0.00    +0.000 HD
BRANCH  13  23
ATOM     21  C   UNL     1      49.539  35.744  41.889  0.00  0.00    +0.000 A 
ATOM     22  C   UNL     1      48.282  35.546  41.312  0.00  0.00    +0.000 A 
ATOM     23  C   UNL     1      47.578  34.371  41.467  0.00  0.00    +0.000 A 
ATOM     24  N   UNL     1      48.207  33.430  42.222  0.00  0.00    +0.000 NA
ATOM     25  C   UNL     1      49.406  33.609  42.777  0.00  0.00    +0.000 A 
ATOM     26  N   UNL     1      50.064  34.760  42.608  0.00  0.00    +0.000 NA
ATOM     27  H   UNL     1      49.980  36.719  41.684  0.00  0.00    +0.000 HD
ATOM     28  H   UNL     1      47.817  36.318  40.720  0.00  0.00    +0.000 HD
ATOM     29  H   UNL     1      49.804  32.788  43.356  0.00  0.00    +0.000 HD
ENDBRANCH  13  23
ENDBRANCH   2  14
BRANCH   1  30
ATOM     30  S   UNL     1      47.170  30.717  40.029  0.00  0.00    +0.000 S 
ATOM     31  O   UNL     1      46.787  29.439  39.318  0.00  0.00    +0.000 OA
ATOM     32  O   UNL     1      48.411  30.271  40.890  0.00  0.00    +0.000 OA
BRANCH  30  35
ATOM     33  H   UNL     1      45.039  28.995  41.153  0.00  0.00    +0.000 HD
ATOM     34  N   UNL     1      45.101  29.996  41.531  0.00  0.00    +0.000 N 
ATOM     35  C   UNL     1      45.976  31.020  41.222  0.00  0.00    +0.000 A 
ATOM     36  N   UNL     1      45.476  31.951  42.053  0.00  0.00    +0.000 NA
ATOM     37  C   UNL     1      44.446  31.560  42.767  0.00  0.00    +0.000 A 
ATOM     38  C   UNL     1      43.738  32.316  43.701  0.00  0.00    +0.000 A 
ATOM     39  H   UNL     1      43.994  33.343  43.925  0.00  0.00    +0.000 HD
ATOM     40  N   UNL     1      42.699  31.703  44.327  0.00  0.00    +0.000 NA
ATOM     41  C   UNL     1      42.416  30.424  44.018  0.00  0.00    +0.000 A 
ATOM     42  H   UNL     1      41.594  29.948  44.517  0.00  0.00    +0.000 HD
ATOM     43  N   UNL     1      43.131  29.710  43.097  0.00  0.00    +0.000 NA
ATOM     44  C   UNL     1      44.164  30.260  42.449  0.00  0.00    +0.000 A 
ENDBRANCH  30  35
ENDBRANCH   1  30
TORSDOF 4
