
 OpenBabel03252507313D

 52 56  0  0  1  0  0  0  0  0999 V2000
   46.9650   32.8250   45.4690 C   0  0  0  0  0  0  0  0  0  0  0  0
   45.8630   33.5590   45.8770 C   0  0  0  0  0  0  0  0  0  0  0  0
   45.1860   34.3830   44.9480 C   0  0  0  0  0  0  0  0  0  0  0  0
   45.6940   34.3970   43.6510 N   0  0  0  0  0  0  0  0  0  0  0  0
   46.7630   33.6660   43.3230 C   0  0  0  0  0  0  0  0  0  0  0  0
   47.3890   32.8940   44.2120 N   0  0  0  0  0  0  0  0  0  0  0  0
   45.3390   33.7250   46.7950 H   0  0  0  0  0  0  0  0  0  0  0  0
   44.3380   35.0030   45.0770 H   0  0  0  0  0  0  0  0  0  0  0  0
   47.2600   33.7420   41.9450 C   0  0  0  0  0  0  0  0  0  0  0  0
   47.8390   34.8930   41.4620 C   0  0  0  0  0  0  0  0  0  0  0  0
   48.3360   35.0600   40.1870 C   0  0  0  0  0  0  0  0  0  0  0  0
   48.2120   33.9530   39.3860 C   0  0  0  0  0  0  0  0  0  0  0  0
   47.6290   32.7720   39.8490 C   0  0  0  0  0  0  0  0  0  0  0  0
   47.1570   32.6790   41.1310 N   0  0  0  0  0  0  0  0  0  0  0  0
   47.9020   35.7310   42.1630 H   0  0  0  0  0  0  0  0  0  0  0  0
   48.7850   35.9640   39.8260 H   0  0  0  0  0  0  0  0  0  0  0  0
   48.5600   33.9460   38.3620 H   0  0  0  0  0  0  0  0  0  0  0  0
   47.5260   31.6530   38.9710 N   0  0  0  0  0  0  0  0  0  0  0  0
   47.3730   30.3160   39.1880 C   0  0  0  0  0  0  0  0  0  0  0  0
   47.3040   29.9210   40.1940 H   0  0  0  0  0  0  0  0  0  0  0  0
   47.3330   29.6820   37.9950 N   0  0  0  0  0  0  0  0  0  0  0  0
   47.4580   30.5980   37.0070 C   0  0  0  0  0  0  0  0  0  0  0  0
   47.4780   30.4710   35.6250 C   0  0  0  0  0  0  0  0  0  0  0  0
   47.3820   29.4930   35.1550 H   0  0  0  0  0  0  0  0  0  0  0  0
   47.6180   31.5550   34.8410 N   0  0  0  0  0  0  0  0  0  0  0  0
   47.7360   32.7560   35.4780 C   0  0  0  0  0  0  0  0  0  0  0  0
   47.8550   33.7100   34.9410 H   0  0  0  0  0  0  0  0  0  0  0  0
   47.7210   32.9250   36.8160 N   0  0  0  0  0  0  0  0  0  0  0  0
   47.5820   31.8480   37.6220 C   0  0  0  0  0  0  0  0  0  0  0  0
   47.6090   31.9780   46.4540 C   0  0  2  0  0  0  0  0  0  0  0  0
   47.5220   30.4760   46.0620 C   0  0  0  0  0  0  0  0  0  0  0  0
   48.3330   29.6660   47.0160 C   0  0  0  0  0  0  0  0  0  0  0  0
   48.1760   30.0070   48.4590 C   0  0  0  0  0  0  0  0  0  0  0  0
   48.0370   31.4190   48.7270 C   0  0  0  0  0  0  0  0  0  0  0  0
   47.0470   32.1350   47.7800 C   0  0  2  0  0  0  0  0  0  0  0  0
   48.7010   32.1700   46.4130 H   0  0  0  0  0  0  0  0  0  0  0  0
   46.4960   30.1170   46.0280 H   0  0  0  0  0  0  0  0  0  0  0  0
   47.9420   30.3860   45.0410 H   0  0  0  0  0  0  0  0  0  0  0  0
   49.3640   29.6630   46.6150 H   0  0  0  0  0  0  0  0  0  0  0  0
   48.0000   28.5920   46.9050 H   0  0  0  0  0  0  0  0  0  0  0  0
   47.8100   29.2370   49.1360 H   0  0  0  0  0  0  0  0  0  0  0  0
   49.2810   29.8660   48.7970 H   0  0  0  0  0  0  0  0  0  0  0  0
   48.9480   32.0640   48.6880 H   0  0  0  0  0  0  0  0  0  0  0  0
   47.6260   31.6100   49.7560 H   0  0  0  0  0  0  0  0  0  0  0  0
   47.0490   33.1410   48.2020 H   0  0  0  0  0  0  0  0  0  0  0  0
   45.7520   31.4560   47.8580 N   0  0  0  0  0  0  0  0  0  0  0  0
   45.1130   30.7810   48.9120 C   0  0  0  0  0  0  0  0  0  0  0  0
   44.5340   31.3900   49.8840 O   0  0  0  0  0  0  0  0  0  0  0  0
   45.1500   29.3560   48.8170 N   0  0  0  0  0  0  0  0  0  0  0  0
   45.1120   31.3410   46.9850 H   0  0  0  0  0  0  0  0  0  0  0  0
   44.8760   28.7400   48.0330 H   0  0  0  0  0  0  0  0  0  0  0  0
   45.4970   28.7800   49.6220 H   0  0  0  0  0  0  0  0  0  0  0  0
  1  2  1  0  0  0  0
  1 30  1  0  0  0  0
  2  7  1  0  0  0  0
  3  8  1  0  0  0  0
  3  2  2  0  0  0  0
  4  3  1  0  0  0  0
  5  4  2  0  0  0  0
  5  6  1  0  0  0  0
  6  1  2  0  0  0  0
  9  5  1  0  0  0  0
 10  9  1  0  0  0  0
 10 15  1  0  0  0  0
 11 10  2  0  0  0  0
 12 13  2  0  0  0  0
 12 11  1  0  0  0  0
 13 14  1  0  0  0  0
 14  9  2  0  0  0  0
 16 11  1  0  0  0  0
 17 12  1  0  0  0  0
 18 19  1  0  0  0  0
 18 13  1  0  0  0  0
 19 20  1  0  0  0  0
 21 19  2  0  0  0  0
 22 29  1  0  0  0  0
 22 21  1  0  0  0  0
 23 22  2  0  0  0  0
 24 23  1  0  0  0  0
 25 26  2  0  0  0  0
 25 23  1  0  0  0  0
 26 28  1  0  0  0  0
 27 26  1  0  0  0  0
 28 29  2  0  0  0  0
 29 18  1  0  0  0  0
 30 36  1  1  0  0  0
 30 35  1  0  0  0  0
 31 30  1  0  0  0  0
 31 32  1  0  0  0  0
 32 33  1  0  0  0  0
 33 34  1  0  0  0  0
 33 42  1  0  0  0  0
 33 41  1  0  0  0  0
 34 44  1  0  0  0  0
 35 46  1  0  0  0  0
 35 45  1  1  0  0  0
 35 34  1  0  0  0  0
 37 31  1  0  0  0  0
 38 31  1  0  0  0  0
 39 32  1  0  0  0  0
 40 32  1  0  0  0  0
 43 34  1  0  0  0  0
 46 47  1  0  0  0  0
 47 48  2  0  0  0  0
 49 47  1  0  0  0  0
 49 52  1  0  0  0  0
 50 46  1  0  0  0  0
 51 49  1  0  0  0  0
M  END
>  <minimizedAffinity>
-6.39639187

>  <minimizedRMSD>
1.27068996

$$$$
