
 OpenBabel03242511013D

 49 53  0  0  0  0  0  0  0  0999 V2000
   44.3500   25.5840   48.1710 C   0  0  0  0  0  0  0  0  0  0  0  0
   45.3150   25.2200   47.8250 H   0  0  0  0  0  0  0  0  0  0  0  0
   44.1820   25.1310   49.1700 H   0  0  0  0  0  0  0  0  0  0  0  0
   45.0860   23.4660   46.2320 Cl  0  0  0  0  0  0  0  0  0  0  0  0
   43.5270   24.2820   46.2840 C   0  0  0  0  0  0  0  0  0  0  0  0
   43.2520   25.2670   47.2210 C   0  0  0  0  0  0  0  0  0  0  0  0
   42.0310   25.9070   47.2630 C   0  0  0  0  0  0  0  0  0  0  0  0
   41.0420   25.5510   46.3300 C   0  0  0  0  0  0  0  0  0  0  0  0
   41.3280   24.5680   45.3990 C   0  0  0  0  0  0  0  0  0  0  0  0
   42.5740   23.9190   45.3620 C   0  0  0  0  0  0  0  0  0  0  0  0
   41.8540   26.6690   48.0090 H   0  0  0  0  0  0  0  0  0  0  0  0
   40.0760   26.0430   46.3460 H   0  0  0  0  0  0  0  0  0  0  0  0
   40.5910   24.2670   44.6650 H   0  0  0  0  0  0  0  0  0  0  0  0
   42.8090   22.9160   44.3800 N   0  0  0  0  0  0  0  0  0  0  0  0
   43.3850   22.9090   43.1750 C   0  0  0  0  0  0  0  0  0  0  0  0
   43.7950   23.8080   42.7570 H   0  0  0  0  0  0  0  0  0  0  0  0
   43.3290   21.6610   42.6800 N   0  0  0  0  0  0  0  0  0  0  0  0
   42.7140   20.8780   43.5830 C   0  0  0  0  0  0  0  0  0  0  0  0
   42.4190   19.5140   43.5300 C   0  0  0  0  0  0  0  0  0  0  0  0
   42.6790   18.8960   42.6870 H   0  0  0  0  0  0  0  0  0  0  0  0
   41.7850   18.9100   44.5600 N   0  0  0  0  0  0  0  0  0  0  0  0
   41.4780   19.7190   45.5950 C   0  0  0  0  0  0  0  0  0  0  0  0
   40.9680   19.2760   46.4450 H   0  0  0  0  0  0  0  0  0  0  0  0
   41.7330   21.0340   45.7070 N   0  0  0  0  0  0  0  0  0  0  0  0
   42.3720   21.6570   44.6770 C   0  0  0  0  0  0  0  0  0  0  0  0
   45.2890   27.8390   47.5830 C   0  0  0  0  0  0  0  0  0  0  0  0
   44.5330   27.0650   48.3130 C   0  0  0  0  0  0  0  0  0  0  0  0
   45.6470   31.4580   47.0430 C   0  0  0  0  0  0  0  0  0  0  0  0
   45.4840   31.9000   48.3630 C   0  0  0  0  0  0  0  0  0  0  0  0
   45.2610   31.0520   49.4250 C   0  0  0  0  0  0  0  0  0  0  0  0
   45.1980   29.7070   49.1570 C   0  0  0  0  0  0  0  0  0  0  0  0
   45.3580   29.2620   47.8490 C   0  0  0  0  0  0  0  0  0  0  0  0
   45.5710   30.1340   46.8660 N   0  0  0  0  0  0  0  0  0  0  0  0
   45.5350   32.9640   48.5660 H   0  0  0  0  0  0  0  0  0  0  0  0
   45.1460   31.4650   50.4140 H   0  0  0  0  0  0  0  0  0  0  0  0
   45.0230   29.0630   50.0070 H   0  0  0  0  0  0  0  0  0  0  0  0
   44.7780   36.5360   43.8980 C   0  0  0  0  0  0  0  0  0  0  0  0
   45.6700   36.2660   42.8550 C   0  0  0  0  0  0  0  0  0  0  0  0
   46.3210   35.0340   42.8620 C   0  0  0  0  0  0  0  0  0  0  0  0
   46.0830   34.1330   43.8610 N   0  0  0  0  0  0  0  0  0  0  0  0
   45.2020   34.4510   44.8540 C   0  0  0  0  0  0  0  0  0  0  0  0
   44.5600   35.6480   44.8620 N   0  0  0  0  0  0  0  0  0  0  0  0
   45.8770   32.4320   45.9850 C   0  0  0  0  0  0  0  0  0  0  0  0
   46.8720   32.2550   45.2270 O   0  0  0  0  0  0  0  0  0  0  0  0
   44.9540   33.5100   45.8970 N   0  0  0  0  0  0  0  0  0  0  0  0
   44.2390   37.4800   43.9490 H   0  0  0  0  0  0  0  0  0  0  0  0
   45.8390   37.0000   42.0770 H   0  0  0  0  0  0  0  0  0  0  0  0
   47.0270   34.7870   42.0620 H   0  0  0  0  0  0  0  0  0  0  0  0
   44.1330   33.6550   46.5240 H   0  0  0  0  0  0  0  0  0  0  0  0
  1 27  1  0  0  0  0
  1  3  1  0  0  0  0
  2  1  1  0  0  0  0
  4  5  1  0  0  0  0
  5  6  1  0  0  0  0
  6  7  2  0  0  0  0
  6  1  1  0  0  0  0
  7 11  1  0  0  0  0
  8 12  1  0  0  0  0
  8  7  1  0  0  0  0
  9  8  2  0  0  0  0
 10  9  1  0  0  0  0
 10  5  2  0  0  0  0
 13  9  1  0  0  0  0
 14 25  1  0  0  0  0
 14 10  1  0  0  0  0
 15 14  1  0  0  0  0
 16 15  1  0  0  0  0
 17 15  2  0  0  0  0
 17 18  1  0  0  0  0
 18 25  1  0  0  0  0
 19 18  2  0  0  0  0
 19 21  1  0  0  0  0
 20 19  1  0  0  0  0
 21 22  2  0  0  0  0
 22 24  1  0  0  0  0
 22 23  1  0  0  0  0
 25 24  2  0  0  0  0
 26 32  1  0  0  0  0
 26 27  2  0  0  0  0
 28 29  1  0  0  0  0
 29 34  1  0  0  0  0
 29 30  2  0  0  0  0
 30 35  1  0  0  0  0
 31 30  1  0  0  0  0
 31 36  1  0  0  0  0
 32 31  2  0  0  0  0
 33 28  2  0  0  0  0
 33 32  1  0  0  0  0
 37 46  1  0  0  0  0
 37 42  1  0  0  0  0
 38 39  1  0  0  0  0
 38 37  2  0  0  0  0
 39 40  2  0  0  0  0
 40 41  1  0  0  0  0
 41 42  2  0  0  0  0
 41 45  1  0  0  0  0
 43 28  1  0  0  0  0
 44 43  2  0  0  0  0
 45 43  1  0  0  0  0
 45 49  1  0  0  0  0
 47 38  1  0  0  0  0
 48 39  1  0  0  0  0
M  END
>  <minimizedAffinity>
-6.26691055

>  <minimizedRMSD>
0.604740143

$$$$
