
 OpenBabel03242522373D

 48 52  0  0  0  0  0  0  0  0999 V2000
   46.0930   34.9360   42.5000 O   0  0  0  0  0  0  0  0  0  0  0  0
   43.7380   35.1760   42.1840 C   0  0  0  0  0  0  0  0  0  0  0  0
   42.6330   34.9960   41.3910 C   0  0  0  0  0  0  0  0  0  0  0  0
   42.8100   34.4040   40.1530 C   0  0  0  0  0  0  0  0  0  0  0  0
   44.0360   33.9800   39.6610 C   0  0  0  0  0  0  0  0  0  0  0  0
   45.1410   34.1740   40.4840 C   0  0  0  0  0  0  0  0  0  0  0  0
   44.9740   34.7600   41.7140 C   0  0  0  0  0  0  0  0  0  0  0  0
   41.9240   34.2680   39.5350 H   0  0  0  0  0  0  0  0  0  0  0  0
   44.0770   33.5280   38.6830 H   0  0  0  0  0  0  0  0  0  0  0  0
   46.0730   33.8420   40.0890 H   0  0  0  0  0  0  0  0  0  0  0  0
   41.2810   35.4110   41.8160 C   0  0  0  0  0  0  0  0  0  0  0  0
   41.1200   36.4560   41.5230 H   0  0  0  0  0  0  0  0  0  0  0  0
   41.1940   35.3500   42.9280 H   0  0  0  0  0  0  0  0  0  0  0  0
   38.9810   32.5610   41.2560 C   0  0  0  0  0  0  0  0  0  0  0  0
   38.2450   32.9970   40.1610 C   0  0  0  0  0  0  0  0  0  0  0  0
   38.5450   34.2340   39.6470 C   0  0  0  0  0  0  0  0  0  0  0  0
   39.5210   34.9770   40.2020 N   0  0  0  0  0  0  0  0  0  0  0  0
   40.2240   34.5310   41.2650 C   0  0  0  0  0  0  0  0  0  0  0  0
   39.9420   33.3320   41.7740 N   0  0  0  0  0  0  0  0  0  0  0  0
   38.8550   31.6130   41.7630 H   0  0  0  0  0  0  0  0  0  0  0  0
   37.4870   32.3250   39.7960 H   0  0  0  0  0  0  0  0  0  0  0  0
   37.9720   34.5780   38.7930 H   0  0  0  0  0  0  0  0  0  0  0  0
   43.6130   35.7620   43.4260 O   0  0  0  0  0  0  0  0  0  0  0  0
   44.1460   36.6220   43.5980 H   0  0  0  0  0  0  0  0  0  0  0  0
   46.9400   33.8570   42.6760 C   0  0  0  0  0  0  0  0  0  0  0  0
   46.6380   33.0080   43.7370 C   0  0  0  0  0  0  0  0  0  0  0  0
   47.4420   31.9160   43.9650 C   0  0  0  0  0  0  0  0  0  0  0  0
   48.5400   31.6540   43.1580 C   0  0  0  0  0  0  0  0  0  0  0  0
   48.8100   32.5380   42.0960 C   0  0  0  0  0  0  0  0  0  0  0  0
   48.0150   33.6260   41.8630 C   0  0  0  0  0  0  0  0  0  0  0  0
   45.8130   33.1360   44.4070 H   0  0  0  0  0  0  0  0  0  0  0  0
   47.2650   31.2140   44.7730 H   0  0  0  0  0  0  0  0  0  0  0  0
   49.1600   30.8010   43.3440 H   0  0  0  0  0  0  0  0  0  0  0  0
   49.9520   32.2060   41.3110 N   0  0  0  0  0  0  0  0  0  0  0  0
   51.2030   32.1480   41.8580 C   0  0  0  0  0  0  0  0  0  0  0  0
   51.4980   32.3300   42.8840 H   0  0  0  0  0  0  0  0  0  0  0  0
   52.1190   31.8180   40.9290 N   0  0  0  0  0  0  0  0  0  0  0  0
   51.4710   31.6570   39.7710 C   0  0  0  0  0  0  0  0  0  0  0  0
   51.9050   31.3210   38.5030 C   0  0  0  0  0  0  0  0  0  0  0  0
   52.9510   31.1350   38.3260 H   0  0  0  0  0  0  0  0  0  0  0  0
   50.9360   31.2520   37.5560 N   0  0  0  0  0  0  0  0  0  0  0  0
   49.6390   31.4910   37.8160 C   0  0  0  0  0  0  0  0  0  0  0  0
   49.0040   31.3900   36.9360 H   0  0  0  0  0  0  0  0  0  0  0  0
   49.1900   31.8250   39.0570 N   0  0  0  0  0  0  0  0  0  0  0  0
   50.1340   31.8990   40.0140 C   0  0  0  0  0  0  0  0  0  0  0  0
   48.3100   34.4880   40.7970 N   0  0  0  0  0  0  0  0  0  0  0  0
   47.5370   34.4410   40.0850 H   0  0  0  0  0  0  0  0  0  0  0  0
   49.1540   35.1160   40.6650 H   0  0  0  0  0  0  0  0  0  0  0  0
  1 25  1  0  0  0  0
  2 23  1  0  0  0  0
  3 11  1  0  0  0  0
  3  2  2  0  0  0  0
  4  3  1  0  0  0  0
  5  4  2  0  0  0  0
  5  6  1  0  0  0  0
  6  7  2  0  0  0  0
  7  2  1  0  0  0  0
  7  1  1  0  0  0  0
  8  4  1  0  0  0  0
  9  5  1  0  0  0  0
 10  6  1  0  0  0  0
 11 13  1  0  0  0  0
 12 11  1  0  0  0  0
 14 20  1  0  0  0  0
 14 19  1  0  0  0  0
 15 14  2  0  0  0  0
 16 15  1  0  0  0  0
 16 17  2  0  0  0  0
 17 18  1  0  0  0  0
 18 19  2  0  0  0  0
 18 11  1  0  0  0  0
 21 15  1  0  0  0  0
 22 16  1  0  0  0  0
 23 24  1  0  0  0  0
 25 26  1  0  0  0  0
 26 27  2  0  0  0  0
 26 31  1  0  0  0  0
 27 32  1  0  0  0  0
 28 33  1  0  0  0  0
 28 27  1  0  0  0  0
 29 28  2  0  0  0  0
 30 29  1  0  0  0  0
 30 25  2  0  0  0  0
 34 35  1  0  0  0  0
 34 29  1  0  0  0  0
 35 36  1  0  0  0  0
 37 35  2  0  0  0  0
 38 45  1  0  0  0  0
 38 37  1  0  0  0  0
 39 38  2  0  0  0  0
 40 39  1  0  0  0  0
 41 42  2  0  0  0  0
 41 39  1  0  0  0  0
 42 44  1  0  0  0  0
 43 42  1  0  0  0  0
 44 45  2  0  0  0  0
 45 34  1  0  0  0  0
 46 30  1  0  0  0  0
 47 46  1  0  0  0  0
 48 46  1  0  0  0  0
M  END
>  <minimizedAffinity>
-6.70140314

>  <minimizedRMSD>
1.52471948

$$$$
