
 OpenBabel03252506343D

 36 39  0  0  1  0  0  0  0  0999 V2000
   44.4670   35.8580   45.0920 C   0  0  0  0  0  0  0  0  0  0  0  0
   45.0400   35.8230   43.8140 C   0  0  0  0  0  0  0  0  0  0  0  0
   45.8710   34.7970   43.4950 C   0  0  0  0  0  0  0  0  0  0  0  0
   46.0870   33.8650   44.4600 N   0  0  0  0  0  0  0  0  0  0  0  0
   45.5440   33.9010   45.6650 C   0  0  0  0  0  0  0  0  0  0  0  0
   44.7160   34.9000   46.0180 N   0  0  0  0  0  0  0  0  0  0  0  0
   45.8590   32.8690   46.5760 N   0  0  0  0  0  0  0  0  0  0  0  0
   45.1330   32.5980   47.8250 C   0  0  0  0  0  0  0  0  0  0  0  0
   46.2640   32.2090   48.7540 C   0  0  0  0  0  0  0  0  0  0  0  0
   47.4870   31.9990   47.9140 C   0  0  0  0  0  0  0  0  0  0  0  0
   46.9080   31.8750   46.5260 C   0  0  1  0  0  0  0  0  0  0  0  0
   43.7910   36.6870   45.3550 H   0  0  0  0  0  0  0  0  0  0  0  0
   46.2950   34.7940   42.5180 H   0  0  0  0  0  0  0  0  0  0  0  0
   44.3900   31.7930   47.7030 H   0  0  0  0  0  0  0  0  0  0  0  0
   44.6020   33.5160   48.1310 H   0  0  0  0  0  0  0  0  0  0  0  0
   45.9820   31.2710   49.3000 H   0  0  0  0  0  0  0  0  0  0  0  0
   46.4210   33.0590   49.4520 H   0  0  0  0  0  0  0  0  0  0  0  0
   48.2130   32.8330   47.9910 H   0  0  0  0  0  0  0  0  0  0  0  0
   48.0020   31.0370   48.1360 H   0  0  0  0  0  0  0  0  0  0  0  0
   47.6230   32.1560   45.7360 H   0  0  0  0  0  0  0  0  0  0  0  0
   44.6930   36.9030   42.9380 N   0  0  0  0  0  0  0  0  0  0  0  0
   44.3870   37.8230   43.3200 H   0  0  0  0  0  0  0  0  0  0  0  0
   44.7450   36.7660   41.8960 H   0  0  0  0  0  0  0  0  0  0  0  0
   46.2660   30.2050   46.3050 S   0  0  0  0  0  0  0  0  0  0  0  0
   44.4850   31.8690   44.5540 H   0  0  0  0  0  0  0  0  0  0  0  0
   44.7430   30.9330   44.1800 N   0  0  0  0  0  0  0  0  0  0  0  0
   45.5100   29.9680   44.7130 C   0  0  0  0  0  0  0  0  0  0  0  0
   45.5720   28.9020   43.8630 N   0  0  0  0  0  0  0  0  0  0  0  0
   44.8160   29.2240   42.7700 C   0  0  0  0  0  0  0  0  0  0  0  0
   44.4520   28.6540   41.5840 C   0  0  0  0  0  0  0  0  0  0  0  0
   44.8480   27.6450   41.3990 H   0  0  0  0  0  0  0  0  0  0  0  0
   43.6660   29.2640   40.6900 N   0  0  0  0  0  0  0  0  0  0  0  0
   43.1800   30.4900   40.9070 C   0  0  0  0  0  0  0  0  0  0  0  0
   42.5580   30.8740   40.1100 H   0  0  0  0  0  0  0  0  0  0  0  0
   43.5010   31.1000   42.0520 N   0  0  0  0  0  0  0  0  0  0  0  0
   44.3020   30.5000   42.9820 C   0  0  0  0  0  0  0  0  0  0  0  0
  1 12  1  0  0  0  0
  1  6  1  0  0  0  0
  2  1  2  0  0  0  0
  3  2  1  0  0  0  0
  3  4  2  0  0  0  0
  4  5  1  0  0  0  0
  5  6  2  0  0  0  0
  5  7  1  0  0  0  0
  7  8  1  0  0  0  0
  8 15  1  0  0  0  0
  8  9  1  0  0  0  0
  9 16  1  0  0  0  0
  9 17  1  0  0  0  0
 10 18  1  0  0  0  0
 10 19  1  0  0  0  0
 10  9  1  0  0  0  0
 11 20  1  6  0  0  0
 11  7  1  0  0  0  0
 11 10  1  0  0  0  0
 13  3  1  0  0  0  0
 14  8  1  0  0  0  0
 21 22  1  0  0  0  0
 21  2  1  0  0  0  0
 23 21  1  0  0  0  0
 24 11  1  0  0  0  0
 26 25  1  0  0  0  0
 26 27  1  0  0  0  0
 27 24  1  0  0  0  0
 28 27  2  0  0  0  0
 29 36  1  0  0  0  0
 29 28  1  0  0  0  0
 30 29  2  0  0  0  0
 31 30  1  0  0  0  0
 32 33  2  0  0  0  0
 32 30  1  0  0  0  0
 33 35  1  0  0  0  0
 34 33  1  0  0  0  0
 35 36  2  0  0  0  0
 36 26  1  0  0  0  0
M  END
>  <minimizedAffinity>
-5.27670002

>  <minimizedRMSD>
0.354137093

$$$$
