
 OpenBabel03242511543D

 37 40  0  0  1  0  0  0  0  0999 V2000
   45.9070   34.0100   42.9410 C   0  0  2  0  0  0  0  0  0  0  0  0
   45.4480   35.2910   42.3600 C   0  0  0  0  0  0  0  0  0  0  0  0
   45.3810   36.4120   43.3500 C   0  0  0  0  0  0  0  0  0  0  0  0
   44.5760   36.0720   44.5920 C   0  0  0  0  0  0  0  0  0  0  0  0
   44.7410   34.6500   45.0560 C   0  0  0  0  0  0  0  0  0  0  0  0
   45.9770   34.0240   44.4620 C   0  0  1  0  0  0  0  0  0  0  0  0
   45.2270   33.1320   42.7200 H   0  0  0  0  0  0  0  0  0  0  0  0
   44.3910   35.1220   41.9960 H   0  0  0  0  0  0  0  0  0  0  0  0
   46.0270   35.6530   41.5020 H   0  0  0  0  0  0  0  0  0  0  0  0
   46.3120   36.9110   43.5970 H   0  0  0  0  0  0  0  0  0  0  0  0
   44.7600   37.2080   42.8380 H   0  0  0  0  0  0  0  0  0  0  0  0
   45.0020   36.7040   45.4200 H   0  0  0  0  0  0  0  0  0  0  0  0
   43.5160   36.3760   44.5190 H   0  0  0  0  0  0  0  0  0  0  0  0
   44.7320   34.5050   46.1360 H   0  0  0  0  0  0  0  0  0  0  0  0
   43.8580   34.0960   44.6210 H   0  0  0  0  0  0  0  0  0  0  0  0
   46.8430   34.6200   44.8350 H   0  0  0  0  0  0  0  0  0  0  0  0
   46.1580   32.6870   44.9350 N   0  0  0  0  0  0  0  0  0  0  0  0
   45.8210   31.5650   44.2640 C   0  0  0  0  0  0  0  0  0  0  0  0
   45.3720   31.4320   43.2920 H   0  0  0  0  0  0  0  0  0  0  0  0
   46.1180   30.4590   44.9770 N   0  0  0  0  0  0  0  0  0  0  0  0
   46.6620   30.8470   46.1410 C   0  0  0  0  0  0  0  0  0  0  0  0
   47.1480   30.1770   47.2420 C   0  0  0  0  0  0  0  0  0  0  0  0
   47.1400   29.0910   47.2900 H   0  0  0  0  0  0  0  0  0  0  0  0
   47.6520   30.8530   48.3030 N   0  0  0  0  0  0  0  0  0  0  0  0
   47.6430   32.2090   48.2030 C   0  0  0  0  0  0  0  0  0  0  0  0
   48.0320   32.8290   49.0160 H   0  0  0  0  0  0  0  0  0  0  0  0
   47.1740   32.8980   47.1400 N   0  0  0  0  0  0  0  0  0  0  0  0
   46.6730   32.2310   46.0850 C   0  0  0  0  0  0  0  0  0  0  0  0
   47.2360   33.6100   42.4420 C   0  0  0  0  0  0  0  0  0  0  0  0
   48.3330   34.3100   42.9800 C   0  0  0  0  0  0  0  0  0  0  0  0
   49.6330   34.0010   42.5750 C   0  0  0  0  0  0  0  0  0  0  0  0
   49.7590   32.9950   41.6430 N   0  0  0  0  0  0  0  0  0  0  0  0
   48.6830   32.3360   41.1410 C   0  0  0  0  0  0  0  0  0  0  0  0
   47.4290   32.6440   41.5420 N   0  0  0  0  0  0  0  0  0  0  0  0
   48.3260   35.1060   43.7080 H   0  0  0  0  0  0  0  0  0  0  0  0
   50.5130   34.4880   42.9380 H   0  0  0  0  0  0  0  0  0  0  0  0
   48.9100   31.5690   40.4170 H   0  0  0  0  0  0  0  0  0  0  0  0
  1  7  1  6  0  0  0
  1  6  1  0  0  0  0
  2  1  1  0  0  0  0
  2  3  1  0  0  0  0
  3 10  1  0  0  0  0
  3  4  1  0  0  0  0
  4  5  1  0  0  0  0
  4 12  1  0  0  0  0
  5 14  1  0  0  0  0
  6 16  1  1  0  0  0
  6 17  1  0  0  0  0
  6  5  1  0  0  0  0
  8  2  1  0  0  0  0
  9  2  1  0  0  0  0
 11  3  1  0  0  0  0
 13  4  1  0  0  0  0
 15  5  1  0  0  0  0
 17 28  1  0  0  0  0
 18 17  1  0  0  0  0
 18 20  2  0  0  0  0
 19 18  1  0  0  0  0
 20 21  1  0  0  0  0
 21 22  1  0  0  0  0
 22 23  1  0  0  0  0
 22 24  2  0  0  0  0
 25 24  1  0  0  0  0
 25 26  1  0  0  0  0
 27 25  2  0  0  0  0
 28 21  2  0  0  0  0
 28 27  1  0  0  0  0
 29  1  1  0  0  0  0
 29 30  1  0  0  0  0
 30 35  1  0  0  0  0
 31 36  1  0  0  0  0
 31 30  2  0  0  0  0
 32 31  1  0  0  0  0
 33 34  1  0  0  0  0
 33 32  2  0  0  0  0
 34 29  2  0  0  0  0
 37 33  1  0  0  0  0
M  END
>  <minimizedAffinity>
-5.16829157

>  <minimizedRMSD>
2.32974839

$$$$
