
 OpenBabel03252507313D

 52 56  0  0  1  0  0  0  0  0999 V2000
   46.9910   32.7340   45.5260 C   0  0  0  0  0  0  0  0  0  0  0  0
   45.9140   33.4220   46.0600 C   0  0  0  0  0  0  0  0  0  0  0  0
   45.2320   34.3790   45.2720 C   0  0  0  0  0  0  0  0  0  0  0  0
   45.7110   34.5650   43.9770 N   0  0  0  0  0  0  0  0  0  0  0  0
   46.7570   33.8700   43.5230 C   0  0  0  0  0  0  0  0  0  0  0  0
   47.3870   32.9700   44.2800 N   0  0  0  0  0  0  0  0  0  0  0  0
   45.4140   33.4670   47.0050 H   0  0  0  0  0  0  0  0  0  0  0  0
   44.4000   34.9890   45.5070 H   0  0  0  0  0  0  0  0  0  0  0  0
   47.2240   34.1280   42.1570 C   0  0  0  0  0  0  0  0  0  0  0  0
   48.1190   35.1400   41.8940 C   0  0  0  0  0  0  0  0  0  0  0  0
   48.6160   35.4580   40.6480 C   0  0  0  0  0  0  0  0  0  0  0  0
   48.1410   34.6660   39.6330 C   0  0  0  0  0  0  0  0  0  0  0  0
   47.2330   33.6330   39.8720 C   0  0  0  0  0  0  0  0  0  0  0  0
   46.7820   33.3740   41.1380 N   0  0  0  0  0  0  0  0  0  0  0  0
   48.4510   35.7270   42.7560 H   0  0  0  0  0  0  0  0  0  0  0  0
   49.3140   36.2510   40.4590 H   0  0  0  0  0  0  0  0  0  0  0  0
   48.4490   34.8060   38.6060 H   0  0  0  0  0  0  0  0  0  0  0  0
   46.7730   32.8420   38.7780 N   0  0  0  0  0  0  0  0  0  0  0  0
   47.4210   32.1300   37.8120 C   0  0  0  0  0  0  0  0  0  0  0  0
   48.5020   32.0950   37.7800 H   0  0  0  0  0  0  0  0  0  0  0  0
   46.5040   31.5540   37.0050 N   0  0  0  0  0  0  0  0  0  0  0  0
   45.2660   31.8850   37.4400 C   0  0  0  0  0  0  0  0  0  0  0  0
   44.0010   31.5570   36.9720 C   0  0  0  0  0  0  0  0  0  0  0  0
   43.8810   30.9210   36.0970 H   0  0  0  0  0  0  0  0  0  0  0  0
   42.9020   32.0210   37.5920 N   0  0  0  0  0  0  0  0  0  0  0  0
   43.1070   32.8150   38.6830 C   0  0  0  0  0  0  0  0  0  0  0  0
   42.2820   33.2510   39.2690 H   0  0  0  0  0  0  0  0  0  0  0  0
   44.3150   33.1570   39.1730 N   0  0  0  0  0  0  0  0  0  0  0  0
   45.4330   32.7010   38.5640 C   0  0  0  0  0  0  0  0  0  0  0  0
   47.6390   31.7470   46.3660 C   0  0  2  0  0  0  0  0  0  0  0  0
   47.4160   30.3030   45.8330 C   0  0  0  0  0  0  0  0  0  0  0  0
   48.2310   29.3460   46.6340 C   0  0  0  0  0  0  0  0  0  0  0  0
   48.2030   29.5410   48.1120 C   0  0  0  0  0  0  0  0  0  0  0  0
   48.1870   30.9230   48.5310 C   0  0  0  0  0  0  0  0  0  0  0  0
   47.1860   31.7980   47.7420 C   0  0  2  0  0  0  0  0  0  0  0  0
   48.7380   31.8700   46.2600 H   0  0  0  0  0  0  0  0  0  0  0  0
   46.3660   30.0180   45.8430 H   0  0  0  0  0  0  0  0  0  0  0  0
   47.7540   30.2960   44.7790 H   0  0  0  0  0  0  0  0  0  0  0  0
   49.2290   29.3180   46.1550 H   0  0  0  0  0  0  0  0  0  0  0  0
   47.8140   28.3140   46.4420 H   0  0  0  0  0  0  0  0  0  0  0  0
   47.8310   28.7290   48.7340 H   0  0  0  0  0  0  0  0  0  0  0  0
   49.3160   29.2930   48.3460 H   0  0  0  0  0  0  0  0  0  0  0  0
   49.1370   31.5080   48.4860 H   0  0  0  0  0  0  0  0  0  0  0  0
   47.8650   31.0300   49.6030 H   0  0  0  0  0  0  0  0  0  0  0  0
   47.2920   32.7510   48.2610 H   0  0  0  0  0  0  0  0  0  0  0  0
   45.8540   31.2010   47.8520 N   0  0  0  0  0  0  0  0  0  0  0  0
   45.1590   30.6630   48.9490 C   0  0  0  0  0  0  0  0  0  0  0  0
   44.5980   31.3900   49.8460 O   0  0  0  0  0  0  0  0  0  0  0  0
   45.1180   29.2360   48.9870 N   0  0  0  0  0  0  0  0  0  0  0  0
   45.2250   31.0390   46.9790 H   0  0  0  0  0  0  0  0  0  0  0  0
   44.8240   28.5640   48.2570 H   0  0  0  0  0  0  0  0  0  0  0  0
   45.4170   28.7190   49.8500 H   0  0  0  0  0  0  0  0  0  0  0  0
  1  2  1  0  0  0  0
  1 30  1  0  0  0  0
  2  7  1  0  0  0  0
  3  8  1  0  0  0  0
  3  2  2  0  0  0  0
  4  3  1  0  0  0  0
  5  4  2  0  0  0  0
  5  6  1  0  0  0  0
  6  1  2  0  0  0  0
  9  5  1  0  0  0  0
 10  9  1  0  0  0  0
 10 15  1  0  0  0  0
 11 10  2  0  0  0  0
 12 13  2  0  0  0  0
 12 11  1  0  0  0  0
 13 14  1  0  0  0  0
 14  9  2  0  0  0  0
 16 11  1  0  0  0  0
 17 12  1  0  0  0  0
 18 13  1  0  0  0  0
 19 18  1  0  0  0  0
 20 19  1  0  0  0  0
 21 22  1  0  0  0  0
 21 19  2  0  0  0  0
 22 29  1  0  0  0  0
 23 22  2  0  0  0  0
 23 25  1  0  0  0  0
 24 23  1  0  0  0  0
 25 26  2  0  0  0  0
 26 28  1  0  0  0  0
 26 27  1  0  0  0  0
 29 18  1  0  0  0  0
 29 28  2  0  0  0  0
 30 36  1  6  0  0  0
 30 35  1  0  0  0  0
 31 37  1  0  0  0  0
 31 30  1  0  0  0  0
 31 32  1  0  0  0  0
 32 33  1  0  0  0  0
 33 42  1  0  0  0  0
 33 34  1  0  0  0  0
 33 41  1  0  0  0  0
 34 44  1  0  0  0  0
 35 46  1  0  0  0  0
 35 45  1  1  0  0  0
 35 34  1  0  0  0  0
 38 31  1  0  0  0  0
 39 32  1  0  0  0  0
 40 32  1  0  0  0  0
 43 34  1  0  0  0  0
 46 47  1  0  0  0  0
 47 49  1  0  0  0  0
 47 48  2  0  0  0  0
 49 52  1  0  0  0  0
 50 46  1  0  0  0  0
 51 49  1  0  0  0  0
M  END
>  <minimizedAffinity>
-6.888515

>  <minimizedRMSD>
0.295449764

$$$$
