REMARK  Name = 
REMARK  8 active torsions:
REMARK  status: ('A' for Active; 'I' for Inactive)
REMARK    1  A    between atoms: C_1  and  O_7
REMARK    2  A    between atoms: C_2  and  O_9
REMARK    3  A    between atoms: C_5  and  O_8
REMARK    4  A    between atoms: C_6  and  O_19
REMARK    5  A    between atoms: O_9  and  C_10
REMARK    6  A    between atoms: C_12  and  C_16
REMARK    7  A    between atoms: O_19  and  C_20
REMARK    8  A    between atoms: C_20  and  C_39
REMARK                            x       y       z     vdW  Elec       q    Type
REMARK                         _______ _______ _______ _____ _____    ______ ____
ROOT
ATOM      1  C   UNL     1      42.827  34.485  38.777  0.00  0.00    +0.000 C 
ATOM      2  C   UNL     1      42.957  35.163  40.132  0.00  0.00    +0.000 C 
ATOM      3  O   UNL     1      41.656  35.383  40.639  0.00  0.00    +0.000 OA
ATOM      4  C   UNL     1      40.736  35.707  39.636  0.00  0.00    +0.000 C 
ATOM      5  C   UNL     1      40.447  34.522  38.732  0.00  0.00    +0.000 C 
ATOM      6  C   UNL     1      41.667  33.551  38.887  0.00  0.00    +0.000 C 
ATOM      7  H   UNL     1      43.777  33.929  38.578  0.00  0.00    +0.000 HD
ATOM      8  H   UNL     1      43.523  36.109  40.084  0.00  0.00    +0.000 HD
ATOM      9  H   UNL     1      39.807  35.951  40.160  0.00  0.00    +0.000 HD
ATOM     10  H   UNL     1      41.049  36.599  39.061  0.00  0.00    +0.000 HD
ATOM     11  H   UNL     1      39.527  33.979  38.995  0.00  0.00    +0.000 HD
ATOM     12  H   UNL     1      41.449  33.295  39.977  0.00  0.00    +0.000 HD
ENDROOT
BRANCH   1  13
ATOM     13  O   UNL     1      42.613  35.434  37.764  0.00  0.00    +0.000 OA
ATOM     14  H   UNL     1      42.811  34.984  36.896  0.00  0.00    +0.000 HD
ENDBRANCH   1  13
BRANCH   5  15
ATOM     15  O   UNL     1      40.473  34.930  37.408  0.00  0.00    +0.000 OA
ATOM     16  H   UNL     1      39.985  34.265  36.886  0.00  0.00    +0.000 HD
ENDBRANCH   5  15
BRANCH   2  17
ATOM     17  O   UNL     1      43.490  34.193  40.984  0.00  0.00    +0.000 OA
BRANCH  17  18
ATOM     18  C   UNL     1      44.602  34.337  41.716  0.00  0.00    +0.000 A 
ATOM     19  C   UNL     1      45.858  34.454  41.103  0.00  0.00    +0.000 A 
ATOM     20  C   UNL     1      46.975  34.602  41.908  0.00  0.00    +0.000 A 
ATOM     21  N   UNL     1      46.820  34.631  43.284  0.00  0.00    +0.000 NA
ATOM     22  C   UNL     1      45.592  34.516  43.837  0.00  0.00    +0.000 A 
ATOM     23  N   UNL     1      44.490  34.370  43.059  0.00  0.00    +0.000 NA
ATOM     24  H   UNL     1      45.966  34.429  40.026  0.00  0.00    +0.000 HD
ATOM     25  H   UNL     1      45.539  34.546  44.922  0.00  0.00    +0.000 HD
BRANCH  20  26
ATOM     26  C   UNL     1      48.352  34.721  41.318  0.00  0.00    +0.000 C 
ATOM     27  C   UNL     1      49.068  36.051  41.536  0.00  0.00    +0.000 C 
ATOM     28  C   UNL     1      49.506  34.717  42.165  0.00  0.00    +0.000 C 
ATOM     29  H   UNL     1      48.359  34.447  40.234  0.00  0.00    +0.000 HD
ATOM     30  H   UNL     1      48.611  36.741  42.299  0.00  0.00    +0.000 HD
ATOM     31  H   UNL     1      49.685  36.474  40.747  0.00  0.00    +0.000 HD
ATOM     32  H   UNL     1      50.486  34.358  41.779  0.00  0.00    +0.000 HD
ATOM     33  H   UNL     1      49.399  34.572  43.243  0.00  0.00    +0.000 HD
ENDBRANCH  20  26
ENDBRANCH  17  18
ENDBRANCH   2  17
BRANCH   6  34
ATOM     34  O   UNL     1      41.545  32.598  37.950  0.00  0.00    +0.000 OA
BRANCH  34  35
ATOM     35  C   UNL     1      40.932  31.413  37.958  0.00  0.00    +0.000 C 
ATOM     36  O   UNL     1      39.660  31.277  37.597  0.00  0.00    +0.000 OA
BRANCH  35  39
ATOM     37  H   UNL     1      43.581  30.182  38.336  0.00  0.00    +0.000 HD
ATOM     38  N   UNL     1      42.680  29.705  38.437  0.00  0.00    +0.000 N 
ATOM     39  C   UNL     1      41.411  30.020  38.320  0.00  0.00    +0.000 A 
ATOM     40  N   UNL     1      40.698  28.883  38.599  0.00  0.00    +0.000 NA
ATOM     41  C   UNL     1      41.520  27.878  38.883  0.00  0.00    +0.000 A 
ATOM     42  C   UNL     1      41.194  26.581  39.214  0.00  0.00    +0.000 A 
ATOM     43  H   UNL     1      40.192  26.212  39.284  0.00  0.00    +0.000 HD
ATOM     44  N   UNL     1      42.254  25.761  39.456  0.00  0.00    +0.000 NA
ATOM     45  C   UNL     1      43.519  26.223  39.369  0.00  0.00    +0.000 A 
ATOM     46  H   UNL     1      44.398  25.619  39.550  0.00  0.00    +0.000 HD
ATOM     47  N   UNL     1      43.747  27.503  39.040  0.00  0.00    +0.000 NA
ATOM     48  C   UNL     1      42.791  28.387  38.784  0.00  0.00    +0.000 A 
ENDBRANCH  35  39
ENDBRANCH  34  35
ENDBRANCH   6  34
TORSDOF 8
