REMARK  Name = 
REMARK  3 active torsions:
REMARK  status: ('A' for Active; 'I' for Inactive)
REMARK    1  A    between atoms: C_1  and  C_8
REMARK    2  A    between atoms: N_4  and  C_13
REMARK    3  A    between atoms: C_17  and  N_31
REMARK                            x       y       z     vdW  Elec       q    Type
REMARK                         _______ _______ _______ _____ _____    ______ ____
ROOT
ATOM      1  N   UNL     1      42.355  33.737  39.642  0.00  0.00    +0.000 NA
ATOM      2  C   UNL     1      42.217  33.926  41.090  0.00  0.00    +0.000 C 
ATOM      3  C   UNL     1      41.170  34.923  41.438  0.00  0.00    +0.000 C 
ATOM      4  N   UNL     1      40.333  35.268  40.304  0.00  0.00    +0.000 NA
ATOM      5  C   UNL     1      41.040  35.639  39.134  0.00  0.00    +0.000 C 
ATOM      6  C   UNL     1      42.452  35.115  39.107  0.00  0.00    +0.000 C 
ATOM      7  H   UNL     1      41.446  33.318  39.308  0.00  0.00    +0.000 HD
ATOM      8  H   UNL     1      42.003  32.955  41.562  0.00  0.00    +0.000 HD
ATOM      9  H   UNL     1      41.521  35.925  41.742  0.00  0.00    +0.000 HD
ATOM     10  H   UNL     1      40.447  34.536  42.215  0.00  0.00    +0.000 HD
ATOM     11  H   UNL     1      39.696  36.039  40.588  0.00  0.00    +0.000 HD
ATOM     12  H   UNL     1      41.005  36.708  38.902  0.00  0.00    +0.000 HD
ATOM     13  H   UNL     1      40.519  35.139  38.266  0.00  0.00    +0.000 HD
ATOM     14  H   UNL     1      43.014  35.731  39.847  0.00  0.00    +0.000 HD
ENDROOT
BRANCH   6  15
ATOM     15  N   UNL     1      43.063  35.149  37.822  0.00  0.00    +0.000 N 
ATOM     16  C   UNL     1      42.582  35.871  36.768  0.00  0.00    +0.000 A 
ATOM     17  H   UNL     1      41.677  36.497  36.804  0.00  0.00    +0.000 HD
ATOM     18  N   UNL     1      43.343  35.726  35.686  0.00  0.00    +0.000 NA
ATOM     19  C   UNL     1      44.343  34.890  36.046  0.00  0.00    +0.000 A 
ATOM     20  C   UNL     1      45.413  34.398  35.322  0.00  0.00    +0.000 A 
ATOM     21  H   UNL     1      45.502  34.708  34.291  0.00  0.00    +0.000 HD
ATOM     22  N   UNL     1      46.269  33.566  35.947  0.00  0.00    +0.000 NA
ATOM     23  C   UNL     1      46.096  33.214  37.254  0.00  0.00    +0.000 A 
ATOM     24  H   UNL     1      46.847  32.542  37.646  0.00  0.00    +0.000 HD
ATOM     25  N   UNL     1      45.036  33.708  37.957  0.00  0.00    +0.000 NA
ATOM     26  C   UNL     1      44.154  34.538  37.384  0.00  0.00    +0.000 A 
ENDBRANCH   6  15
BRANCH   2  30
ATOM     27  C   UNL     1      45.632  34.622  42.038  0.00  0.00    +0.000 A 
ATOM     28  C   UNL     1      44.899  35.650  42.633  0.00  0.00    +0.000 A 
ATOM     29  C   UNL     1      43.553  35.496  42.352  0.00  0.00    +0.000 A 
ATOM     30  N   UNL     1      43.496  34.398  41.602  0.00  0.00    +0.000 N 
ATOM     31  N   UNL     1      44.706  33.887  41.419  0.00  0.00    +0.000 NA
ATOM     32  H   UNL     1      45.455  36.410  43.218  0.00  0.00    +0.000 HD
ATOM     33  H   UNL     1      42.984  36.291  42.821  0.00  0.00    +0.000 HD
BRANCH  27  36
ATOM     34  C   UNL     1      49.354  35.135  41.962  0.00  0.00    +0.000 A 
ATOM     35  C   UNL     1      47.970  35.453  41.812  0.00  0.00    +0.000 A 
ATOM     36  C   UNL     1      47.083  34.454  42.133  0.00  0.00    +0.000 A 
ATOM     37  N   UNL     1      47.540  33.242  42.567  0.00  0.00    +0.000 NA
ATOM     38  C   UNL     1      48.864  32.987  42.694  0.00  0.00    +0.000 A 
ATOM     39  N   UNL     1      49.742  33.941  42.388  0.00  0.00    +0.000 NA
ATOM     40  H   UNL     1      49.996  35.987  41.685  0.00  0.00    +0.000 HD
ATOM     41  H   UNL     1      47.610  36.413  41.469  0.00  0.00    +0.000 HD
ATOM     42  H   UNL     1      49.160  32.016  43.040  0.00  0.00    +0.000 HD
ENDBRANCH  27  36
ENDBRANCH   2  30
TORSDOF 3
