
 OpenBabel03252502173D

 27 29  0  0  0  0  0  0  0  0999 V2000
   37.1000   28.7200   38.2770 C   0  0  0  0  0  0  0  0  0  0  0  0
   37.5570   29.8580   38.9480 C   0  0  0  0  0  0  0  0  0  0  0  0
   37.6920   31.0340   38.2120 C   0  0  0  0  0  0  0  0  0  0  0  0
   37.3810   31.0380   36.8970 N   0  0  0  0  0  0  0  0  0  0  0  0
   36.9400   29.9220   36.2740 C   0  0  0  0  0  0  0  0  0  0  0  0
   36.7980   28.7570   36.9630 N   0  0  0  0  0  0  0  0  0  0  0  0
   36.9610   27.7580   38.7590 H   0  0  0  0  0  0  0  0  0  0  0  0
   36.7260   30.0560   35.2200 H   0  0  0  0  0  0  0  0  0  0  0  0
   38.1610   32.1650   38.9360 N   0  0  0  0  0  0  0  0  0  0  0  0
   37.3840   33.1260   39.4680 C   0  0  0  0  0  0  0  0  0  0  0  0
   36.3120   33.2450   39.4640 H   0  0  0  0  0  0  0  0  0  0  0  0
   38.1920   34.0400   40.0840 N   0  0  0  0  0  0  0  0  0  0  0  0
   39.4480   33.6110   39.9120 C   0  0  0  0  0  0  0  0  0  0  0  0
   40.6610   34.1610   40.3360 C   0  0  0  0  0  0  0  0  0  0  0  0
   40.7200   35.0800   40.9010 H   0  0  0  0  0  0  0  0  0  0  0  0
   41.7950   33.4900   40.0060 N   0  0  0  0  0  0  0  0  0  0  0  0
   41.7750   32.3430   39.3050 C   0  0  0  0  0  0  0  0  0  0  0  0
   42.6890   31.8240   39.0530 H   0  0  0  0  0  0  0  0  0  0  0  0
   40.6120   31.7720   38.8720 N   0  0  0  0  0  0  0  0  0  0  0  0
   39.4520   32.4170   39.1830 C   0  0  0  0  0  0  0  0  0  0  0  0
   37.8430   29.7310   40.2930 O   0  0  0  0  0  0  0  0  0  0  0  0
   35.7800   28.4170   41.2700 O   0  0  0  0  0  0  0  0  0  0  0  0
   36.6090   29.6380   41.4630 P   0  0  0  0  0  0  0  0  0  0  0  0
   37.2550   29.5640   43.0340 O   0  0  0  0  0  0  0  0  0  0  0  0
   36.7370   30.1250   43.6600 H   0  0  0  0  0  0  0  0  0  0  0  0
   35.6120   31.0090   41.3790 O   0  0  0  0  0  0  0  0  0  0  0  0
   36.0300   31.7240   41.9260 H   0  0  0  0  0  0  0  0  0  0  0  0
  1  7  1  0  0  0  0
  1  2  1  0  0  0  0
  2 21  1  0  0  0  0
  3  9  1  0  0  0  0
  3  2  2  0  0  0  0
  4  3  1  0  0  0  0
  5  4  2  0  0  0  0
  5  6  1  0  0  0  0
  6  1  2  0  0  0  0
  8  5  1  0  0  0  0
  9 20  1  0  0  0  0
  9 10  1  0  0  0  0
 10 12  2  0  0  0  0
 11 10  1  0  0  0  0
 13 12  1  0  0  0  0
 13 14  1  0  0  0  0
 14 15  1  0  0  0  0
 16 14  2  0  0  0  0
 17 16  1  0  0  0  0
 18 17  1  0  0  0  0
 19 20  1  0  0  0  0
 19 17  2  0  0  0  0
 20 13  2  0  0  0  0
 21 23  1  0  0  0  0
 22 23  2  0  0  0  0
 23 24  1  0  0  0  0
 24 25  1  0  0  0  0
 26 23  1  0  0  0  0
 26 27  1  0  0  0  0
M  END
>  <minimizedAffinity>
-5.35492039

$$$$

 OpenBabel03252502173D

 27 29  0  0  0  0  0  0  0  0999 V2000
   39.3860   31.2190   37.9120 C   0  0  0  0  0  0  0  0  0  0  0  0
   38.5830   30.3170   38.6170 C   0  0  0  0  0  0  0  0  0  0  0  0
   39.1080   29.0540   38.8830 C   0  0  0  0  0  0  0  0  0  0  0  0
   40.3530   28.7460   38.4610 N   0  0  0  0  0  0  0  0  0  0  0  0
   41.1090   29.6390   37.7820 C   0  0  0  0  0  0  0  0  0  0  0  0
   40.6270   30.8800   37.5040 N   0  0  0  0  0  0  0  0  0  0  0  0
   39.0700   32.2250   37.6550 H   0  0  0  0  0  0  0  0  0  0  0  0
   42.0880   29.2690   37.4990 H   0  0  0  0  0  0  0  0  0  0  0  0
   38.2550   28.1700   39.6010 N   0  0  0  0  0  0  0  0  0  0  0  0
   37.3040   27.3920   39.0560 C   0  0  0  0  0  0  0  0  0  0  0  0
   36.9980   27.2730   38.0280 H   0  0  0  0  0  0  0  0  0  0  0  0
   36.6960   26.6880   40.0580 N   0  0  0  0  0  0  0  0  0  0  0  0
   37.2970   27.0570   41.1950 C   0  0  0  0  0  0  0  0  0  0  0  0
   37.0720   26.6500   42.5140 C   0  0  0  0  0  0  0  0  0  0  0  0
   36.3160   25.9250   42.7800 H   0  0  0  0  0  0  0  0  0  0  0  0
   37.8510   27.2080   43.4760 N   0  0  0  0  0  0  0  0  0  0  0  0
   38.8040   28.1140   43.1960 C   0  0  0  0  0  0  0  0  0  0  0  0
   39.4130   28.5460   43.9770 H   0  0  0  0  0  0  0  0  0  0  0  0
   39.0560   28.5390   41.9230 N   0  0  0  0  0  0  0  0  0  0  0  0
   38.2940   28.0010   40.9280 C   0  0  0  0  0  0  0  0  0  0  0  0
   37.3260   30.7460   38.9950 O   0  0  0  0  0  0  0  0  0  0  0  0
   38.3070   31.7000   41.2450 O   0  0  0  0  0  0  0  0  0  0  0  0
   37.0900   31.6940   40.3900 P   0  0  0  0  0  0  0  0  0  0  0  0
   36.7520   33.3110   39.9850 O   0  0  0  0  0  0  0  0  0  0  0  0
   36.0390   33.6810   40.5590 H   0  0  0  0  0  0  0  0  0  0  0  0
   35.7780   31.1030   41.2900 O   0  0  0  0  0  0  0  0  0  0  0  0
   34.9480   31.5020   40.9180 H   0  0  0  0  0  0  0  0  0  0  0  0
  1  2  1  0  0  0  0
  2  3  2  0  0  0  0
  2 21  1  0  0  0  0
  3  9  1  0  0  0  0
  4  3  1  0  0  0  0
  5  4  2  0  0  0  0
  6  5  1  0  0  0  0
  6  1  2  0  0  0  0
  7  1  1  0  0  0  0
  8  5  1  0  0  0  0
  9 20  1  0  0  0  0
 10  9  1  0  0  0  0
 10 12  2  0  0  0  0
 11 10  1  0  0  0  0
 12 13  1  0  0  0  0
 13 14  1  0  0  0  0
 14 15  1  0  0  0  0
 14 16  2  0  0  0  0
 17 16  1  0  0  0  0
 17 18  1  0  0  0  0
 19 17  2  0  0  0  0
 20 13  2  0  0  0  0
 20 19  1  0  0  0  0
 21 23  1  0  0  0  0
 23 22  2  0  0  0  0
 23 26  1  0  0  0  0
 24 23  1  0  0  0  0
 24 25  1  0  0  0  0
 27 26  1  0  0  0  0
M  END
>  <minimizedAffinity>
-5.05389547

$$$$

 OpenBabel03252502173D

 27 29  0  0  0  0  0  0  0  0999 V2000
   36.7850   29.7740   36.0470 C   0  0  0  0  0  0  0  0  0  0  0  0
   36.9920   29.7540   37.4300 C   0  0  0  0  0  0  0  0  0  0  0  0
   35.9230   29.3720   38.2400 C   0  0  0  0  0  0  0  0  0  0  0  0
   34.7430   29.0390   37.6740 N   0  0  0  0  0  0  0  0  0  0  0  0
   34.5720   29.0660   36.3330 C   0  0  0  0  0  0  0  0  0  0  0  0
   35.5930   29.4350   35.5140 N   0  0  0  0  0  0  0  0  0  0  0  0
   37.5510   30.0570   35.3330 H   0  0  0  0  0  0  0  0  0  0  0  0
   33.5790   28.7770   36.0050 H   0  0  0  0  0  0  0  0  0  0  0  0
   36.1810   29.3680   39.6390 N   0  0  0  0  0  0  0  0  0  0  0  0
   36.1070   30.4400   40.4470 C   0  0  0  0  0  0  0  0  0  0  0  0
   35.8550   31.4660   40.2310 H   0  0  0  0  0  0  0  0  0  0  0  0
   36.4220   30.0440   41.7170 N   0  0  0  0  0  0  0  0  0  0  0  0
   36.6810   28.7330   41.6500 C   0  0  0  0  0  0  0  0  0  0  0  0
   37.0510   27.8280   42.6500 C   0  0  0  0  0  0  0  0  0  0  0  0
   37.1800   28.1200   43.6830 H   0  0  0  0  0  0  0  0  0  0  0  0
   37.2490   26.5380   42.2760 N   0  0  0  0  0  0  0  0  0  0  0  0
   37.1010   26.1250   41.0050 C   0  0  0  0  0  0  0  0  0  0  0  0
   37.2640   25.0940   40.7290 H   0  0  0  0  0  0  0  0  0  0  0  0
   36.7410   26.9760   39.9990 N   0  0  0  0  0  0  0  0  0  0  0  0
   36.5330   28.2800   40.3340 C   0  0  0  0  0  0  0  0  0  0  0  0
   38.2420   30.1170   37.8910 O   0  0  0  0  0  0  0  0  0  0  0  0
   39.6270   31.9750   39.1420 O   0  0  0  0  0  0  0  0  0  0  0  0
   38.7200   31.7490   37.9840 P   0  0  0  0  0  0  0  0  0  0  0  0
   39.5600   32.2250   36.5850 O   0  0  0  0  0  0  0  0  0  0  0  0
   39.2900   33.1290   36.2960 H   0  0  0  0  0  0  0  0  0  0  0  0
   37.3610   32.7530   38.1360 O   0  0  0  0  0  0  0  0  0  0  0  0
   37.0160   32.9410   37.2240 H   0  0  0  0  0  0  0  0  0  0  0  0
  1  2  1  0  0  0  0
  2 21  1  0  0  0  0
  2  3  2  0  0  0  0
  3  9  1  0  0  0  0
  4  3  1  0  0  0  0
  5  4  2  0  0  0  0
  6  1  2  0  0  0  0
  6  5  1  0  0  0  0
  7  1  1  0  0  0  0
  8  5  1  0  0  0  0
  9 20  1  0  0  0  0
  9 10  1  0  0  0  0
 10 12  2  0  0  0  0
 11 10  1  0  0  0  0
 13 12  1  0  0  0  0
 13 14  1  0  0  0  0
 14 15  1  0  0  0  0
 16 14  2  0  0  0  0
 17 16  1  0  0  0  0
 18 17  1  0  0  0  0
 19 20  1  0  0  0  0
 19 17  2  0  0  0  0
 20 13  2  0  0  0  0
 21 23  1  0  0  0  0
 23 26  1  0  0  0  0
 23 22  2  0  0  0  0
 24 23  1  0  0  0  0
 25 24  1  0  0  0  0
 27 26  1  0  0  0  0
M  END
>  <minimizedAffinity>
-4.96186209

$$$$

 OpenBabel03252502173D

 27 29  0  0  0  0  0  0  0  0999 V2000
   40.2960   32.6440   38.5670 C   0  0  0  0  0  0  0  0  0  0  0  0
   39.4090   31.7520   39.1760 C   0  0  0  0  0  0  0  0  0  0  0  0
   38.8810   32.1100   40.4160 C   0  0  0  0  0  0  0  0  0  0  0  0
   39.2360   33.2850   40.9790 N   0  0  0  0  0  0  0  0  0  0  0  0
   40.0960   34.1290   40.3650 C   0  0  0  0  0  0  0  0  0  0  0  0
   40.6300   33.8110   39.1560 N   0  0  0  0  0  0  0  0  0  0  0  0
   40.7610   32.4590   37.6040 H   0  0  0  0  0  0  0  0  0  0  0  0
   40.2990   35.0380   40.9210 H   0  0  0  0  0  0  0  0  0  0  0  0
   37.9840   31.1710   40.9980 N   0  0  0  0  0  0  0  0  0  0  0  0
   36.6440   31.2080   40.8930 C   0  0  0  0  0  0  0  0  0  0  0  0
   35.9980   31.9040   40.3830 H   0  0  0  0  0  0  0  0  0  0  0  0
   36.1290   30.1450   41.5820 N   0  0  0  0  0  0  0  0  0  0  0  0
   37.1750   29.4840   42.0910 C   0  0  0  0  0  0  0  0  0  0  0  0
   37.2230   28.3270   42.8760 C   0  0  0  0  0  0  0  0  0  0  0  0
   36.3350   27.7940   43.1850 H   0  0  0  0  0  0  0  0  0  0  0  0
   38.4500   27.8830   43.2500 N   0  0  0  0  0  0  0  0  0  0  0  0
   39.5840   28.5110   42.8930 C   0  0  0  0  0  0  0  0  0  0  0  0
   40.5510   28.1400   43.2010 H   0  0  0  0  0  0  0  0  0  0  0  0
   39.5820   29.6420   42.1270 N   0  0  0  0  0  0  0  0  0  0  0  0
   38.3680   30.1200   41.7320 C   0  0  0  0  0  0  0  0  0  0  0  0
   39.1230   30.5800   38.5040 O   0  0  0  0  0  0  0  0  0  0  0  0
   36.5950   30.3660   37.7960 O   0  0  0  0  0  0  0  0  0  0  0  0
   37.9700   30.5290   37.2510 P   0  0  0  0  0  0  0  0  0  0  0  0
   37.9840   31.9670   36.3440 O   0  0  0  0  0  0  0  0  0  0  0  0
   37.8970   31.7810   35.3790 H   0  0  0  0  0  0  0  0  0  0  0  0
   38.3070   29.2480   36.1910 O   0  0  0  0  0  0  0  0  0  0  0  0
   38.9690   29.5690   35.5240 H   0  0  0  0  0  0  0  0  0  0  0  0
  1  6  2  0  0  0  0
  1  2  1  0  0  0  0
  2  3  2  0  0  0  0
  3  4  1  0  0  0  0
  3  9  1  0  0  0  0
  5  8  1  0  0  0  0
  5  4  2  0  0  0  0
  6  5  1  0  0  0  0
  7  1  1  0  0  0  0
  9 20  1  0  0  0  0
 10  9  1  0  0  0  0
 10 12  2  0  0  0  0
 11 10  1  0  0  0  0
 12 13  1  0  0  0  0
 13 14  1  0  0  0  0
 14 15  1  0  0  0  0
 14 16  2  0  0  0  0
 17 18  1  0  0  0  0
 17 16  1  0  0  0  0
 19 17  2  0  0  0  0
 20 13  2  0  0  0  0
 20 19  1  0  0  0  0
 21  2  1  0  0  0  0
 23 22  2  0  0  0  0
 23 21  1  0  0  0  0
 24 23  1  0  0  0  0
 25 24  1  0  0  0  0
 26 23  1  0  0  0  0
 27 26  1  0  0  0  0
M  END
>  <minimizedAffinity>
-4.9531002

$$$$

 OpenBabel03252502173D

 27 29  0  0  0  0  0  0  0  0999 V2000
   35.4390   29.6680   37.6950 C   0  0  0  0  0  0  0  0  0  0  0  0
   36.4980   29.3090   38.5340 C   0  0  0  0  0  0  0  0  0  0  0  0
   36.6500   27.9580   38.8430 C   0  0  0  0  0  0  0  0  0  0  0  0
   35.7870   27.0550   38.3310 N   0  0  0  0  0  0  0  0  0  0  0  0
   34.7720   27.4310   37.5200 C   0  0  0  0  0  0  0  0  0  0  0  0
   34.5940   28.7410   37.1990 N   0  0  0  0  0  0  0  0  0  0  0  0
   35.2360   30.6910   37.3960 H   0  0  0  0  0  0  0  0  0  0  0  0
   34.1500   26.6120   37.1760 H   0  0  0  0  0  0  0  0  0  0  0  0
   37.7410   27.6410   39.7000 N   0  0  0  0  0  0  0  0  0  0  0  0
   38.9850   27.3330   39.2950 C   0  0  0  0  0  0  0  0  0  0  0  0
   39.4040   27.2640   38.3040 H   0  0  0  0  0  0  0  0  0  0  0  0
   39.7500   27.0910   40.4020 N   0  0  0  0  0  0  0  0  0  0  0  0
   38.9480   27.2570   41.4590 C   0  0  0  0  0  0  0  0  0  0  0  0
   39.2110   27.1350   42.8270 C   0  0  0  0  0  0  0  0  0  0  0  0
   40.1840   26.8660   43.2130 H   0  0  0  0  0  0  0  0  0  0  0  0
   38.1810   27.3690   43.6800 N   0  0  0  0  0  0  0  0  0  0  0  0
   36.9520   27.7060   43.2500 C   0  0  0  0  0  0  0  0  0  0  0  0
   36.1460   27.8880   43.9460 H   0  0  0  0  0  0  0  0  0  0  0  0
   36.6530   27.8360   41.9240 N   0  0  0  0  0  0  0  0  0  0  0  0
   37.6610   27.6090   41.0360 C   0  0  0  0  0  0  0  0  0  0  0  0
   37.3150   30.3220   38.9970 O   0  0  0  0  0  0  0  0  0  0  0  0
   38.0080   31.0330   41.4360 O   0  0  0  0  0  0  0  0  0  0  0  0
   36.9410   31.1930   40.4120 P   0  0  0  0  0  0  0  0  0  0  0  0
   36.7980   32.8560   40.0900 O   0  0  0  0  0  0  0  0  0  0  0  0
   36.0370   33.2500   40.5790 H   0  0  0  0  0  0  0  0  0  0  0  0
   35.4640   30.6640   41.0570 O   0  0  0  0  0  0  0  0  0  0  0  0
   34.7350   31.1590   40.5990 H   0  0  0  0  0  0  0  0  0  0  0  0
  1  2  1  0  0  0  0
  2  3  2  0  0  0  0
  2 21  1  0  0  0  0
  3  9  1  0  0  0  0
  4  3  1  0  0  0  0
  5  4  2  0  0  0  0
  6  5  1  0  0  0  0
  6  1  2  0  0  0  0
  7  1  1  0  0  0  0
  8  5  1  0  0  0  0
  9 20  1  0  0  0  0
 10  9  1  0  0  0  0
 10 12  2  0  0  0  0
 11 10  1  0  0  0  0
 12 13  1  0  0  0  0
 13 14  1  0  0  0  0
 14 15  1  0  0  0  0
 14 16  2  0  0  0  0
 17 16  1  0  0  0  0
 17 18  1  0  0  0  0
 19 17  2  0  0  0  0
 20 13  2  0  0  0  0
 20 19  1  0  0  0  0
 21 23  1  0  0  0  0
 23 26  1  0  0  0  0
 23 22  2  0  0  0  0
 24 23  1  0  0  0  0
 24 25  1  0  0  0  0
 27 26  1  0  0  0  0
M  END
>  <minimizedAffinity>
-4.9442091

$$$$

 OpenBabel03252502173D

 27 29  0  0  0  0  0  0  0  0999 V2000
   37.4490   31.6310   38.1560 C   0  0  0  0  0  0  0  0  0  0  0  0
   37.4580   30.9690   39.3870 C   0  0  0  0  0  0  0  0  0  0  0  0
   37.3600   29.5780   39.3740 C   0  0  0  0  0  0  0  0  0  0  0  0
   37.2630   28.9260   38.1960 N   0  0  0  0  0  0  0  0  0  0  0  0
   37.2580   29.5940   37.0190 C   0  0  0  0  0  0  0  0  0  0  0  0
   37.3510   30.9510   36.9950 N   0  0  0  0  0  0  0  0  0  0  0  0
   37.5200   32.7100   38.0590 H   0  0  0  0  0  0  0  0  0  0  0  0
   37.1750   28.9560   36.1470 H   0  0  0  0  0  0  0  0  0  0  0  0
   37.3720   28.9480   40.6500 N   0  0  0  0  0  0  0  0  0  0  0  0
   36.2820   28.5880   41.3510 C   0  0  0  0  0  0  0  0  0  0  0  0
   35.2340   28.6910   41.1200 H   0  0  0  0  0  0  0  0  0  0  0  0
   36.6930   28.0140   42.5210 N   0  0  0  0  0  0  0  0  0  0  0  0
   38.0310   28.0380   42.5040 C   0  0  0  0  0  0  0  0  0  0  0  0
   38.9600   27.5830   43.4450 C   0  0  0  0  0  0  0  0  0  0  0  0
   38.6670   27.1190   44.3770 H   0  0  0  0  0  0  0  0  0  0  0  0
   40.2740   27.7450   43.1470 N   0  0  0  0  0  0  0  0  0  0  0  0
   40.6890   28.3160   42.0020 C   0  0  0  0  0  0  0  0  0  0  0  0
   41.7400   28.4350   41.7850 H   0  0  0  0  0  0  0  0  0  0  0  0
   39.8160   28.7740   41.0570 N   0  0  0  0  0  0  0  0  0  0  0  0
   38.4860   28.6290   41.3200 C   0  0  0  0  0  0  0  0  0  0  0  0
   37.5610   31.7430   40.5260 O   0  0  0  0  0  0  0  0  0  0  0  0
   39.9520   32.5640   39.7860 O   0  0  0  0  0  0  0  0  0  0  0  0
   39.0130   32.5320   40.9390 P   0  0  0  0  0  0  0  0  0  0  0  0
   38.7270   34.1440   41.3990 O   0  0  0  0  0  0  0  0  0  0  0  0
   39.2770   34.3950   42.1800 H   0  0  0  0  0  0  0  0  0  0  0  0
   39.7590   31.7480   42.2460 O   0  0  0  0  0  0  0  0  0  0  0  0
   39.3650   32.1060   43.0830 H   0  0  0  0  0  0  0  0  0  0  0  0
  1  2  1  0  0  0  0
  2 21  1  0  0  0  0
  3  2  2  0  0  0  0
  3  9  1  0  0  0  0
  4  3  1  0  0  0  0
  5  4  2  0  0  0  0
  6  5  1  0  0  0  0
  6  1  2  0  0  0  0
  7  1  1  0  0  0  0
  8  5  1  0  0  0  0
  9 20  1  0  0  0  0
  9 10  1  0  0  0  0
 10 12  2  0  0  0  0
 11 10  1  0  0  0  0
 13 12  1  0  0  0  0
 13 14  1  0  0  0  0
 14 15  1  0  0  0  0
 16 14  2  0  0  0  0
 17 16  1  0  0  0  0
 18 17  1  0  0  0  0
 19 20  1  0  0  0  0
 19 17  2  0  0  0  0
 20 13  2  0  0  0  0
 21 23  1  0  0  0  0
 22 23  2  0  0  0  0
 23 24  1  0  0  0  0
 23 26  1  0  0  0  0
 24 25  1  0  0  0  0
 26 27  1  0  0  0  0
M  END
>  <minimizedAffinity>
-4.93965912

$$$$

 OpenBabel03252502173D

 27 29  0  0  0  0  0  0  0  0999 V2000
   37.1700   30.2220   38.1940 C   0  0  0  0  0  0  0  0  0  0  0  0
   37.6680   29.8960   39.4590 C   0  0  0  0  0  0  0  0  0  0  0  0
   37.0100   28.8970   40.1750 C   0  0  0  0  0  0  0  0  0  0  0  0
   35.9340   28.2860   39.6350 N   0  0  0  0  0  0  0  0  0  0  0  0
   35.4750   28.6210   38.4070 C   0  0  0  0  0  0  0  0  0  0  0  0
   36.0930   29.5930   37.6820 N   0  0  0  0  0  0  0  0  0  0  0  0
   37.6100   30.9840   37.5590 H   0  0  0  0  0  0  0  0  0  0  0  0
   34.6060   28.0580   38.0880 H   0  0  0  0  0  0  0  0  0  0  0  0
   37.5500   28.6000   41.4570 N   0  0  0  0  0  0  0  0  0  0  0  0
   37.3370   29.3140   42.5770 C   0  0  0  0  0  0  0  0  0  0  0  0
   36.7520   30.2050   42.7400 H   0  0  0  0  0  0  0  0  0  0  0  0
   38.0190   28.7210   43.6020 N   0  0  0  0  0  0  0  0  0  0  0  0
   38.6350   27.6540   43.0790 C   0  0  0  0  0  0  0  0  0  0  0  0
   39.4620   26.6990   43.6770 C   0  0  0  0  0  0  0  0  0  0  0  0
   39.7170   26.7230   44.7270 H   0  0  0  0  0  0  0  0  0  0  0  0
   39.9490   25.7140   42.8800 N   0  0  0  0  0  0  0  0  0  0  0  0
   39.6620   25.6400   41.5680 C   0  0  0  0  0  0  0  0  0  0  0  0
   40.0600   24.8480   40.9510 H   0  0  0  0  0  0  0  0  0  0  0  0
   38.8590   26.5520   40.9450 N   0  0  0  0  0  0  0  0  0  0  0  0
   38.3500   27.5570   41.7120 C   0  0  0  0  0  0  0  0  0  0  0  0
   38.7740   30.5910   39.9070 O   0  0  0  0  0  0  0  0  0  0  0  0
   39.2080   33.1070   39.2600 O   0  0  0  0  0  0  0  0  0  0  0  0
   38.6790   32.2340   40.3430 P   0  0  0  0  0  0  0  0  0  0  0  0
   37.0700   32.7030   40.6280 O   0  0  0  0  0  0  0  0  0  0  0  0
   37.0040   33.2920   41.4170 H   0  0  0  0  0  0  0  0  0  0  0  0
   39.5580   32.5170   41.7670 O   0  0  0  0  0  0  0  0  0  0  0  0
   38.9660   32.3120   42.5380 H   0  0  0  0  0  0  0  0  0  0  0  0
  1  2  1  0  0  0  0
  2 21  1  0  0  0  0
  2  3  2  0  0  0  0
  3  9  1  0  0  0  0
  4  3  1  0  0  0  0
  5  4  2  0  0  0  0
  6  1  2  0  0  0  0
  6  5  1  0  0  0  0
  7  1  1  0  0  0  0
  8  5  1  0  0  0  0
  9 20  1  0  0  0  0
  9 10  1  0  0  0  0
 10 11  1  0  0  0  0
 10 12  2  0  0  0  0
 13 12  1  0  0  0  0
 13 14  1  0  0  0  0
 14 15  1  0  0  0  0
 16 14  2  0  0  0  0
 17 16  1  0  0  0  0
 18 17  1  0  0  0  0
 19 17  2  0  0  0  0
 19 20  1  0  0  0  0
 20 13  2  0  0  0  0
 21 23  1  0  0  0  0
 22 23  2  0  0  0  0
 23 24  1  0  0  0  0
 23 26  1  0  0  0  0
 24 25  1  0  0  0  0
 26 27  1  0  0  0  0
M  END
>  <minimizedAffinity>
-4.92446804

$$$$

 OpenBabel03252502173D

 27 29  0  0  0  0  0  0  0  0999 V2000
   35.6540   27.9960   38.8340 C   0  0  0  0  0  0  0  0  0  0  0  0
   36.7850   28.7950   39.0260 C   0  0  0  0  0  0  0  0  0  0  0  0
   37.1260   29.6900   38.0130 C   0  0  0  0  0  0  0  0  0  0  0  0
   36.3660   29.7560   36.8980 N   0  0  0  0  0  0  0  0  0  0  0  0
   35.2760   28.9710   36.7400 C   0  0  0  0  0  0  0  0  0  0  0  0
   34.9160   28.0870   37.7080 N   0  0  0  0  0  0  0  0  0  0  0  0
   35.3060   27.2690   39.5610 H   0  0  0  0  0  0  0  0  0  0  0  0
   34.7530   29.1210   35.8020 H   0  0  0  0  0  0  0  0  0  0  0  0
   38.2840   30.4810   38.2520 N   0  0  0  0  0  0  0  0  0  0  0  0
   39.5390   30.1460   37.9070 C   0  0  0  0  0  0  0  0  0  0  0  0
   39.9210   29.2690   37.4080 H   0  0  0  0  0  0  0  0  0  0  0  0
   40.3760   31.1530   38.3000 N   0  0  0  0  0  0  0  0  0  0  0  0
   39.6050   32.0810   38.8790 C   0  0  0  0  0  0  0  0  0  0  0  0
   39.9400   33.3100   39.4560 C   0  0  0  0  0  0  0  0  0  0  0  0
   40.9560   33.6760   39.5000 H   0  0  0  0  0  0  0  0  0  0  0  0
   38.9250   34.0490   39.9730 N   0  0  0  0  0  0  0  0  0  0  0  0
   37.6460   33.6370   39.9420 C   0  0  0  0  0  0  0  0  0  0  0  0
   36.8530   34.2410   40.3600 H   0  0  0  0  0  0  0  0  0  0  0  0
   37.2760   32.4450   39.3890 N   0  0  0  0  0  0  0  0  0  0  0  0
   38.2660   31.6730   38.8590 C   0  0  0  0  0  0  0  0  0  0  0  0
   37.4830   28.6360   40.2080 O   0  0  0  0  0  0  0  0  0  0  0  0
   38.0830   29.9510   42.4090 O   0  0  0  0  0  0  0  0  0  0  0  0
   36.9480   29.3450   41.6610 P   0  0  0  0  0  0  0  0  0  0  0  0
   35.8240   30.5850   41.3630 O   0  0  0  0  0  0  0  0  0  0  0  0
   35.0800   30.5560   42.0120 H   0  0  0  0  0  0  0  0  0  0  0  0
   36.1900   28.1850   42.6390 O   0  0  0  0  0  0  0  0  0  0  0  0
   35.2390   28.1230   42.3590 H   0  0  0  0  0  0  0  0  0  0  0  0
  1  2  1  0  0  0  0
  1  7  1  0  0  0  0
  2 21  1  0  0  0  0
  3  9  1  0  0  0  0
  3  2  2  0  0  0  0
  4  3  1  0  0  0  0
  5  4  2  0  0  0  0
  5  6  1  0  0  0  0
  6  1  2  0  0  0  0
  8  5  1  0  0  0  0
  9 20  1  0  0  0  0
 10  9  1  0  0  0  0
 10 12  2  0  0  0  0
 11 10  1  0  0  0  0
 12 13  1  0  0  0  0
 13 14  1  0  0  0  0
 14 15  1  0  0  0  0
 14 16  2  0  0  0  0
 17 16  1  0  0  0  0
 17 18  1  0  0  0  0
 19 17  2  0  0  0  0
 20 13  2  0  0  0  0
 20 19  1  0  0  0  0
 21 23  1  0  0  0  0
 23 22  2  0  0  0  0
 23 26  1  0  0  0  0
 24 23  1  0  0  0  0
 24 25  1  0  0  0  0
 27 26  1  0  0  0  0
M  END
>  <minimizedAffinity>
-4.85139227

$$$$

 OpenBabel03252502173D

 27 29  0  0  0  0  0  0  0  0999 V2000
   35.8450   28.3630   38.7170 C   0  0  0  0  0  0  0  0  0  0  0  0
   36.3190   27.6080   39.7940 C   0  0  0  0  0  0  0  0  0  0  0  0
   37.0100   26.4320   39.5060 C   0  0  0  0  0  0  0  0  0  0  0  0
   37.1970   26.0650   38.2200 N   0  0  0  0  0  0  0  0  0  0  0  0
   36.7280   26.8160   37.1980 C   0  0  0  0  0  0  0  0  0  0  0  0
   36.0490   27.9690   37.4430 N   0  0  0  0  0  0  0  0  0  0  0  0
   35.2970   29.2920   38.8350 H   0  0  0  0  0  0  0  0  0  0  0  0
   36.9420   26.4130   36.2140 H   0  0  0  0  0  0  0  0  0  0  0  0
   37.4720   25.6970   40.6330 N   0  0  0  0  0  0  0  0  0  0  0  0
   36.8230   24.6730   41.2140 C   0  0  0  0  0  0  0  0  0  0  0  0
   35.8770   24.2140   40.9740 H   0  0  0  0  0  0  0  0  0  0  0  0
   37.5770   24.2240   42.2620 N   0  0  0  0  0  0  0  0  0  0  0  0
   38.6740   24.9910   42.2930 C   0  0  0  0  0  0  0  0  0  0  0  0
   39.7730   24.9680   43.1570 C   0  0  0  0  0  0  0  0  0  0  0  0
   39.8630   24.2610   43.9700 H   0  0  0  0  0  0  0  0  0  0  0  0
   40.7510   25.8850   42.9400 N   0  0  0  0  0  0  0  0  0  0  0  0
   40.6860   26.7850   41.9430 C   0  0  0  0  0  0  0  0  0  0  0  0
   41.4760   27.5060   41.7870 H   0  0  0  0  0  0  0  0  0  0  0  0
   39.6310   26.8410   41.0780 N   0  0  0  0  0  0  0  0  0  0  0  0
   38.6290   25.9370   41.2630 C   0  0  0  0  0  0  0  0  0  0  0  0
   36.0660   28.0850   41.0660 O   0  0  0  0  0  0  0  0  0  0  0  0
   38.0150   29.8470   40.8940 O   0  0  0  0  0  0  0  0  0  0  0  0
   36.7610   29.5330   41.6300 P   0  0  0  0  0  0  0  0  0  0  0  0
   35.7060   30.8480   41.4100 O   0  0  0  0  0  0  0  0  0  0  0  0
   35.7160   31.4490   42.1930 H   0  0  0  0  0  0  0  0  0  0  0  0
   37.1000   29.4170   43.2890 O   0  0  0  0  0  0  0  0  0  0  0  0
   36.2760   29.6570   43.7870 H   0  0  0  0  0  0  0  0  0  0  0  0
  1  7  1  0  0  0  0
  1  2  1  0  0  0  0
  2 21  1  0  0  0  0
  3  2  2  0  0  0  0
  3  9  1  0  0  0  0
  4  3  1  0  0  0  0
  5  6  1  0  0  0  0
  5  4  2  0  0  0  0
  6  1  2  0  0  0  0
  8  5  1  0  0  0  0
  9 10  1  0  0  0  0
  9 20  1  0  0  0  0
 10 12  2  0  0  0  0
 11 10  1  0  0  0  0
 12 13  1  0  0  0  0
 13 14  1  0  0  0  0
 14 15  1  0  0  0  0
 16 14  2  0  0  0  0
 17 16  1  0  0  0  0
 18 17  1  0  0  0  0
 19 20  1  0  0  0  0
 19 17  2  0  0  0  0
 20 13  2  0  0  0  0
 21 23  1  0  0  0  0
 22 23  2  0  0  0  0
 23 26  1  0  0  0  0
 24 23  1  0  0  0  0
 24 25  1  0  0  0  0
 26 27  1  0  0  0  0
M  END
>  <minimizedAffinity>
-4.84209538

$$$$
