
 OpenBabel03242512323D

 41 44  0  0  1  0  0  0  0  0999 V2000
   37.7510   29.1100   41.4870 C   0  0  1  0  0  0  0  0  0  0  0  0
   37.3870   29.1260   42.9520 C   0  0  0  0  0  0  0  0  0  0  0  0
   37.6960   27.7950   43.5670 C   0  0  0  0  0  0  0  0  0  0  0  0
   37.0480   26.6950   42.7960 C   0  0  0  0  0  0  0  0  0  0  0  0
   37.3490   26.7230   41.3260 C   0  0  0  0  0  0  0  0  0  0  0  0
   36.8420   28.0660   40.7840 C   0  0  2  0  0  0  0  0  0  0  0  0
   38.7830   28.8170   41.3100 H   0  0  0  0  0  0  0  0  0  0  0  0
   38.0120   29.8710   43.4790 H   0  0  0  0  0  0  0  0  0  0  0  0
   36.2950   29.3460   43.0730 H   0  0  0  0  0  0  0  0  0  0  0  0
   37.2550   27.7950   44.5930 H   0  0  0  0  0  0  0  0  0  0  0  0
   38.7860   27.6610   43.7110 H   0  0  0  0  0  0  0  0  0  0  0  0
   35.9530   26.8010   42.9340 H   0  0  0  0  0  0  0  0  0  0  0  0
   37.4440   25.7280   43.1850 H   0  0  0  0  0  0  0  0  0  0  0  0
   38.4180   26.6540   41.1010 H   0  0  0  0  0  0  0  0  0  0  0  0
   36.7750   25.9540   40.8110 H   0  0  0  0  0  0  0  0  0  0  0  0
   35.8470   28.2100   41.2590 H   0  0  0  0  0  0  0  0  0  0  0  0
   36.8540   28.1690   39.3750 N   0  0  0  0  0  0  0  0  0  0  0  0
   37.9700   27.9740   38.6440 C   0  0  0  0  0  0  0  0  0  0  0  0
   38.9750   27.7260   38.9460 H   0  0  0  0  0  0  0  0  0  0  0  0
   37.6380   28.1480   37.3500 N   0  0  0  0  0  0  0  0  0  0  0  0
   36.3420   28.4420   37.2870 C   0  0  0  0  0  0  0  0  0  0  0  0
   35.4790   28.7150   36.2530 C   0  0  0  0  0  0  0  0  0  0  0  0
   35.7840   28.7250   35.2240 H   0  0  0  0  0  0  0  0  0  0  0  0
   34.1830   28.9870   36.4860 N   0  0  0  0  0  0  0  0  0  0  0  0
   33.6620   29.0080   37.7280 C   0  0  0  0  0  0  0  0  0  0  0  0
   32.6130   29.2320   37.8840 H   0  0  0  0  0  0  0  0  0  0  0  0
   34.4930   28.7430   38.7770 N   0  0  0  0  0  0  0  0  0  0  0  0
   35.7980   28.4670   38.5660 C   0  0  0  0  0  0  0  0  0  0  0  0
   37.5350   30.4590   40.9150 C   0  0  0  0  0  0  0  0  0  0  0  0
   36.3370   30.8140   41.0730 O   0  0  0  0  0  0  0  0  0  0  0  0
   39.3770   32.0680   38.2580 C   0  0  0  0  0  0  0  0  0  0  0  0
   40.4400   32.6990   38.9270 C   0  0  0  0  0  0  0  0  0  0  0  0
   40.5270   32.5750   40.3240 C   0  0  0  0  0  0  0  0  0  0  0  0
   39.5570   31.8420   40.9020 N   0  0  0  0  0  0  0  0  0  0  0  0
   38.5540   31.2460   40.2760 C   0  0  0  0  0  0  0  0  0  0  0  0
   38.4750   31.3680   38.9400 N   0  0  0  0  0  0  0  0  0  0  0  0
   39.3040   32.2030   36.8580 N   0  0  0  0  0  0  0  0  0  0  0  0
   41.2150   33.2900   38.4340 H   0  0  0  0  0  0  0  0  0  0  0  0
   41.3100   33.0320   40.8800 H   0  0  0  0  0  0  0  0  0  0  0  0
   39.8890   31.3980   36.6020 H   0  0  0  0  0  0  0  0  0  0  0  0
   38.7690   32.9560   36.3760 H   0  0  0  0  0  0  0  0  0  0  0  0
  1  7  1  6  0  0  0
  1  2  1  0  0  0  0
  2  9  1  0  0  0  0
  2  8  1  0  0  0  0
  2  3  1  0  0  0  0
  3 11  1  0  0  0  0
  3 10  1  0  0  0  0
  4 12  1  0  0  0  0
  4 13  1  0  0  0  0
  4  3  1  0  0  0  0
  5  4  1  0  0  0  0
  6 16  1  1  0  0  0
  6  5  1  0  0  0  0
  6  1  1  0  0  0  0
 14  5  1  0  0  0  0
 15  5  1  0  0  0  0
 17  6  1  0  0  0  0
 18 19  1  0  0  0  0
 18 17  1  0  0  0  0
 20 18  2  0  0  0  0
 21 20  1  0  0  0  0
 21 28  1  0  0  0  0
 22 24  1  0  0  0  0
 22 21  2  0  0  0  0
 23 22  1  0  0  0  0
 24 25  2  0  0  0  0
 25 26  1  0  0  0  0
 25 27  1  0  0  0  0
 28 27  2  0  0  0  0
 28 17  1  0  0  0  0
 29 30  2  0  0  0  0
 29  1  1  0  0  0  0
 31 32  2  0  0  0  0
 31 36  1  0  0  0  0
 32 33  1  0  0  0  0
 33 39  1  0  0  0  0
 33 34  2  0  0  0  0
 35 34  1  0  0  0  0
 35 29  1  0  0  0  0
 36 35  2  0  0  0  0
 37 31  1  0  0  0  0
 38 32  1  0  0  0  0
 40 37  1  0  0  0  0
 41 37  1  0  0  0  0
M  END
>  <minimizedAffinity>
-5.81883669

$$$$

 OpenBabel03242512323D

 41 44  0  0  1  0  0  0  0  0999 V2000
   38.3590   28.3970   41.0720 C   0  0  1  0  0  0  0  0  0  0  0  0
   39.1360   28.8660   42.2770 C   0  0  0  0  0  0  0  0  0  0  0  0
   38.8700   27.9590   43.4380 C   0  0  0  0  0  0  0  0  0  0  0  0
   37.4050   27.8270   43.6790 C   0  0  0  0  0  0  0  0  0  0  0  0
   36.6210   27.4340   42.4620 C   0  0  0  0  0  0  0  0  0  0  0  0
   36.8480   28.5210   41.4040 C   0  0  2  0  0  0  0  0  0  0  0  0
   38.5550   27.3570   40.8200 H   0  0  0  0  0  0  0  0  0  0  0  0
   40.2210   28.8000   42.0660 H   0  0  0  0  0  0  0  0  0  0  0  0
   38.8330   29.9120   42.5450 H   0  0  0  0  0  0  0  0  0  0  0  0
   39.3200   28.4380   44.3420 H   0  0  0  0  0  0  0  0  0  0  0  0
   39.3950   26.9900   43.3220 H   0  0  0  0  0  0  0  0  0  0  0  0
   37.0400   28.8150   44.0280 H   0  0  0  0  0  0  0  0  0  0  0  0
   37.2540   27.0190   44.4320 H   0  0  0  0  0  0  0  0  0  0  0  0
   36.9380   26.4780   42.0330 H   0  0  0  0  0  0  0  0  0  0  0  0
   35.5540   27.4450   42.6820 H   0  0  0  0  0  0  0  0  0  0  0  0
   36.7710   29.4820   41.9580 H   0  0  0  0  0  0  0  0  0  0  0  0
   36.0130   28.4160   40.2690 N   0  0  0  0  0  0  0  0  0  0  0  0
   35.0450   29.3140   39.9960 C   0  0  0  0  0  0  0  0  0  0  0  0
   34.7400   30.2020   40.5260 H   0  0  0  0  0  0  0  0  0  0  0  0
   34.4420   28.9220   38.8570 N   0  0  0  0  0  0  0  0  0  0  0  0
   35.0280   27.8040   38.4380 C   0  0  0  0  0  0  0  0  0  0  0  0
   34.8340   26.9770   37.3580 C   0  0  0  0  0  0  0  0  0  0  0  0
   34.0810   27.1540   36.6140 H   0  0  0  0  0  0  0  0  0  0  0  0
   35.5950   25.8830   37.1780 N   0  0  0  0  0  0  0  0  0  0  0  0
   36.5770   25.5380   38.0320 C   0  0  0  0  0  0  0  0  0  0  0  0
   37.1740   24.6490   37.8590 H   0  0  0  0  0  0  0  0  0  0  0  0
   36.7960   26.3390   39.1150 N   0  0  0  0  0  0  0  0  0  0  0  0
   36.0430   27.4420   39.3160 C   0  0  0  0  0  0  0  0  0  0  0  0
   38.7080   29.2410   39.9050 C   0  0  0  0  0  0  0  0  0  0  0  0
   39.3760   28.5770   39.0690 O   0  0  0  0  0  0  0  0  0  0  0  0
   38.4840   32.7710   40.6360 C   0  0  0  0  0  0  0  0  0  0  0  0
   37.6720   33.2710   39.6040 C   0  0  0  0  0  0  0  0  0  0  0  0
   37.1900   32.3790   38.6300 C   0  0  0  0  0  0  0  0  0  0  0  0
   37.5650   31.0960   38.7850 N   0  0  0  0  0  0  0  0  0  0  0  0
   38.3300   30.6190   39.7550 C   0  0  0  0  0  0  0  0  0  0  0  0
   38.7890   31.4770   40.6830 N   0  0  0  0  0  0  0  0  0  0  0  0
   38.9590   33.6780   41.6030 N   0  0  0  0  0  0  0  0  0  0  0  0
   37.3820   34.3190   39.5010 H   0  0  0  0  0  0  0  0  0  0  0  0
   36.5720   32.7050   37.8280 H   0  0  0  0  0  0  0  0  0  0  0  0
   38.1680   33.6230   42.2560 H   0  0  0  0  0  0  0  0  0  0  0  0
   39.8700   34.1770   41.5300 H   0  0  0  0  0  0  0  0  0  0  0  0
  1  7  1  6  0  0  0
  1  6  1  0  0  0  0
  1  2  1  0  0  0  0
  2  9  1  0  0  0  0
  2  3  1  0  0  0  0
  3  4  1  0  0  0  0
  3 10  1  0  0  0  0
  4 12  1  0  0  0  0
  4 13  1  0  0  0  0
  5 15  1  0  0  0  0
  5  4  1  0  0  0  0
  6 16  1  1  0  0  0
  6  5  1  0  0  0  0
  8  2  1  0  0  0  0
 11  3  1  0  0  0  0
 14  5  1  0  0  0  0
 17  6  1  0  0  0  0
 18 17  1  0  0  0  0
 18 19  1  0  0  0  0
 20 18  2  0  0  0  0
 21 20  1  0  0  0  0
 21 28  1  0  0  0  0
 22 21  2  0  0  0  0
 23 22  1  0  0  0  0
 24 22  1  0  0  0  0
 24 25  2  0  0  0  0
 25 27  1  0  0  0  0
 26 25  1  0  0  0  0
 27 28  2  0  0  0  0
 28 17  1  0  0  0  0
 29  1  1  0  0  0  0
 30 29  2  0  0  0  0
 31 36  1  0  0  0  0
 31 37  1  0  0  0  0
 32 31  2  0  0  0  0
 33 34  2  0  0  0  0
 33 32  1  0  0  0  0
 34 35  1  0  0  0  0
 35 29  1  0  0  0  0
 35 36  2  0  0  0  0
 37 40  1  0  0  0  0
 38 32  1  0  0  0  0
 39 33  1  0  0  0  0
 41 37  1  0  0  0  0
M  END
>  <minimizedAffinity>
-5.7750721

$$$$

 OpenBabel03242512323D

 41 44  0  0  1  0  0  0  0  0999 V2000
   35.9050   28.9810   39.0470 C   0  0  1  0  0  0  0  0  0  0  0  0
   34.4470   28.8200   38.6900 C   0  0  0  0  0  0  0  0  0  0  0  0
   34.3200   28.3410   37.2760 C   0  0  0  0  0  0  0  0  0  0  0  0
   35.0730   29.2330   36.3480 C   0  0  0  0  0  0  0  0  0  0  0  0
   36.5040   29.4550   36.7450 C   0  0  0  0  0  0  0  0  0  0  0  0
   36.4950   30.0940   38.1380 C   0  0  2  0  0  0  0  0  0  0  0  0
   36.4850   28.0780   38.8770 H   0  0  0  0  0  0  0  0  0  0  0  0
   33.9950   28.0390   39.3310 H   0  0  0  0  0  0  0  0  0  0  0  0
   33.9150   29.8010   38.8000 H   0  0  0  0  0  0  0  0  0  0  0  0
   33.2390   28.4030   37.0030 H   0  0  0  0  0  0  0  0  0  0  0  0
   34.5890   27.2710   37.1880 H   0  0  0  0  0  0  0  0  0  0  0  0
   34.5530   30.2120   36.3420 H   0  0  0  0  0  0  0  0  0  0  0  0
   35.0910   28.7440   35.3460 H   0  0  0  0  0  0  0  0  0  0  0  0
   37.0850   28.5290   36.8040 H   0  0  0  0  0  0  0  0  0  0  0  0
   36.9680   30.1830   36.0810 H   0  0  0  0  0  0  0  0  0  0  0  0
   35.6930   30.8630   38.0970 H   0  0  0  0  0  0  0  0  0  0  0  0
   37.7540   30.5650   38.5730 N   0  0  0  0  0  0  0  0  0  0  0  0
   38.8680   29.8060   38.5230 C   0  0  0  0  0  0  0  0  0  0  0  0
   39.0160   28.7960   38.1800 H   0  0  0  0  0  0  0  0  0  0  0  0
   39.8820   30.5480   39.0100 N   0  0  0  0  0  0  0  0  0  0  0  0
   39.4000   31.7410   39.3510 C   0  0  0  0  0  0  0  0  0  0  0  0
   39.9620   32.8740   39.8880 C   0  0  0  0  0  0  0  0  0  0  0  0
   41.0040   32.9500   40.1330 H   0  0  0  0  0  0  0  0  0  0  0  0
   39.2170   33.9650   40.1370 N   0  0  0  0  0  0  0  0  0  0  0  0
   37.8960   34.0120   39.8790 C   0  0  0  0  0  0  0  0  0  0  0  0
   37.3220   34.9070   40.0910 H   0  0  0  0  0  0  0  0  0  0  0  0
   37.3070   32.9020   39.3460 N   0  0  0  0  0  0  0  0  0  0  0  0
   38.0360   31.7950   39.0880 C   0  0  0  0  0  0  0  0  0  0  0  0
   36.0200   29.3580   40.4750 C   0  0  0  0  0  0  0  0  0  0  0  0
   35.3120   30.3710   40.7180 O   0  0  0  0  0  0  0  0  0  0  0  0
   37.4780   26.5800   42.2630 C   0  0  0  0  0  0  0  0  0  0  0  0
   38.2870   27.1980   43.2320 C   0  0  0  0  0  0  0  0  0  0  0  0
   38.3390   28.6020   43.2730 C   0  0  0  0  0  0  0  0  0  0  0  0
   37.5870   29.2360   42.3540 N   0  0  0  0  0  0  0  0  0  0  0  0
   36.8230   28.6580   41.4400 C   0  0  0  0  0  0  0  0  0  0  0  0
   36.7780   27.3150   41.4040 N   0  0  0  0  0  0  0  0  0  0  0  0
   37.4380   25.1720   42.2350 N   0  0  0  0  0  0  0  0  0  0  0  0
   38.8890   26.6590   43.9670 H   0  0  0  0  0  0  0  0  0  0  0  0
   38.9350   29.1200   43.9850 H   0  0  0  0  0  0  0  0  0  0  0  0
   36.6710   25.0340   42.9040 H   0  0  0  0  0  0  0  0  0  0  0  0
   38.0710   24.5870   41.6510 H   0  0  0  0  0  0  0  0  0  0  0  0
  1  7  1  6  0  0  0
  1 29  1  0  0  0  0
  2  9  1  0  0  0  0
  2  1  1  0  0  0  0
  2  8  1  0  0  0  0
  3  2  1  0  0  0  0
  4  5  1  0  0  0  0
  4  3  1  0  0  0  0
  5 14  1  0  0  0  0
  5  6  1  0  0  0  0
  6 16  1  6  0  0  0
  6 17  1  0  0  0  0
  6  1  1  0  0  0  0
 10  3  1  0  0  0  0
 11  3  1  0  0  0  0
 12  4  1  0  0  0  0
 13  4  1  0  0  0  0
 15  5  1  0  0  0  0
 17 28  1  0  0  0  0
 18 17  1  0  0  0  0
 18 20  2  0  0  0  0
 19 18  1  0  0  0  0
 20 21  1  0  0  0  0
 21 22  1  0  0  0  0
 22 23  1  0  0  0  0
 22 24  2  0  0  0  0
 25 26  1  0  0  0  0
 25 24  1  0  0  0  0
 27 25  2  0  0  0  0
 28 27  1  0  0  0  0
 28 21  2  0  0  0  0
 29 30  2  0  0  0  0
 29 35  1  0  0  0  0
 31 32  1  0  0  0  0
 32 33  2  0  0  0  0
 32 38  1  0  0  0  0
 33 39  1  0  0  0  0
 34 33  1  0  0  0  0
 35 34  2  0  0  0  0
 36 35  1  0  0  0  0
 36 31  2  0  0  0  0
 37 31  1  0  0  0  0
 37 40  1  0  0  0  0
 41 37  1  0  0  0  0
M  END
>  <minimizedAffinity>
-5.76372242

$$$$

 OpenBabel03242512323D

 41 44  0  0  1  0  0  0  0  0999 V2000
   36.2350   27.5420   39.9190 C   0  0  1  0  0  0  0  0  0  0  0  0
   36.0120   26.8800   38.5810 C   0  0  0  0  0  0  0  0  0  0  0  0
   36.4320   25.4440   38.6490 C   0  0  0  0  0  0  0  0  0  0  0  0
   37.8300   25.3270   39.1540 C   0  0  0  0  0  0  0  0  0  0  0  0
   38.0720   26.0500   40.4470 C   0  0  0  0  0  0  0  0  0  0  0  0
   37.7610   27.5310   40.2040 C   0  0  2  0  0  0  0  0  0  0  0  0
   35.7450   27.0200   40.7370 H   0  0  0  0  0  0  0  0  0  0  0  0
   34.9310   26.8830   38.3440 H   0  0  0  0  0  0  0  0  0  0  0  0
   36.6070   27.4050   37.7900 H   0  0  0  0  0  0  0  0  0  0  0  0
   36.4150   25.0450   37.6060 H   0  0  0  0  0  0  0  0  0  0  0  0
   35.6980   24.8360   39.2130 H   0  0  0  0  0  0  0  0  0  0  0  0
   38.4950   25.7600   38.3790 H   0  0  0  0  0  0  0  0  0  0  0  0
   38.0330   24.2480   39.3480 H   0  0  0  0  0  0  0  0  0  0  0  0
   37.4310   25.7020   41.2640 H   0  0  0  0  0  0  0  0  0  0  0  0
   39.1270   26.0020   40.7120 H   0  0  0  0  0  0  0  0  0  0  0  0
   38.2220   27.7650   39.2200 H   0  0  0  0  0  0  0  0  0  0  0  0
   38.1410   28.3890   41.2610 N   0  0  0  0  0  0  0  0  0  0  0  0
   37.6100   28.2930   42.4980 C   0  0  0  0  0  0  0  0  0  0  0  0
   36.8700   27.6190   42.8950 H   0  0  0  0  0  0  0  0  0  0  0  0
   38.1830   29.2490   43.2550 N   0  0  0  0  0  0  0  0  0  0  0  0
   39.0490   29.9190   42.4990 C   0  0  0  0  0  0  0  0  0  0  0  0
   39.8980   30.9740   42.7340 C   0  0  0  0  0  0  0  0  0  0  0  0
   39.9800   31.4560   43.6890 H   0  0  0  0  0  0  0  0  0  0  0  0
   40.6830   31.4620   41.7570 N   0  0  0  0  0  0  0  0  0  0  0  0
   40.6830   30.9530   40.5100 C   0  0  0  0  0  0  0  0  0  0  0  0
   41.3280   31.3690   39.7440 H   0  0  0  0  0  0  0  0  0  0  0  0
   39.8510   29.9050   40.2440 N   0  0  0  0  0  0  0  0  0  0  0  0
   39.0540   29.3990   41.2090 C   0  0  0  0  0  0  0  0  0  0  0  0
   35.7230   28.9320   39.8680 C   0  0  0  0  0  0  0  0  0  0  0  0
   34.6290   29.0170   40.4850 O   0  0  0  0  0  0  0  0  0  0  0  0
   37.0780   32.2430   39.3700 C   0  0  0  0  0  0  0  0  0  0  0  0
   37.6180   32.1870   38.0740 C   0  0  0  0  0  0  0  0  0  0  0  0
   37.5200   30.9850   37.3510 C   0  0  0  0  0  0  0  0  0  0  0  0
   36.9010   29.9750   37.9900 N   0  0  0  0  0  0  0  0  0  0  0  0
   36.3900   30.0220   39.2110 C   0  0  0  0  0  0  0  0  0  0  0  0
   36.4870   31.1740   39.8980 N   0  0  0  0  0  0  0  0  0  0  0  0
   37.1840   33.4550   40.0800 N   0  0  0  0  0  0  0  0  0  0  0  0
   38.1170   33.0230   37.5780 H   0  0  0  0  0  0  0  0  0  0  0  0
   37.9120   30.8890   36.3670 H   0  0  0  0  0  0  0  0  0  0  0  0
   36.3200   33.8970   39.7450 H   0  0  0  0  0  0  0  0  0  0  0  0
   37.9730   33.6820   40.7200 H   0  0  0  0  0  0  0  0  0  0  0  0
  1  6  1  0  0  0  0
  1  7  1  1  0  0  0
  2  3  1  0  0  0  0
  2  1  1  0  0  0  0
  3  4  1  0  0  0  0
  3 11  1  0  0  0  0
  4 13  1  0  0  0  0
  4  5  1  0  0  0  0
  5 15  1  0  0  0  0
  5 14  1  0  0  0  0
  6 16  1  6  0  0  0
  6  5  1  0  0  0  0
  6 17  1  0  0  0  0
  8  2  1  0  0  0  0
  9  2  1  0  0  0  0
 10  3  1  0  0  0  0
 12  4  1  0  0  0  0
 17 18  1  0  0  0  0
 18 19  1  0  0  0  0
 18 20  2  0  0  0  0
 21 22  1  0  0  0  0
 21 20  1  0  0  0  0
 22 23  1  0  0  0  0
 24 22  2  0  0  0  0
 25 24  1  0  0  0  0
 26 25  1  0  0  0  0
 27 25  2  0  0  0  0
 27 28  1  0  0  0  0
 28 17  1  0  0  0  0
 28 21  2  0  0  0  0
 29  1  1  0  0  0  0
 29 30  2  0  0  0  0
 31 36  1  0  0  0  0
 31 37  1  0  0  0  0
 32 31  2  0  0  0  0
 33 34  2  0  0  0  0
 33 32  1  0  0  0  0
 34 35  1  0  0  0  0
 35 29  1  0  0  0  0
 35 36  2  0  0  0  0
 37 41  1  0  0  0  0
 38 32  1  0  0  0  0
 39 33  1  0  0  0  0
 40 37  1  0  0  0  0
M  END
>  <minimizedAffinity>
-5.74564981

$$$$

 OpenBabel03242512323D

 41 44  0  0  1  0  0  0  0  0999 V2000
   37.2690   28.0120   40.7420 C   0  0  1  0  0  0  0  0  0  0  0  0
   37.6530   26.6380   41.2340 C   0  0  0  0  0  0  0  0  0  0  0  0
   37.1080   26.4220   42.6120 C   0  0  0  0  0  0  0  0  0  0  0  0
   37.5230   27.5260   43.5230 C   0  0  0  0  0  0  0  0  0  0  0  0
   37.2100   28.8970   42.9990 C   0  0  0  0  0  0  0  0  0  0  0  0
   37.9530   29.0550   41.6670 C   0  0  2  0  0  0  0  0  0  0  0  0
   36.1980   28.1920   40.7810 H   0  0  0  0  0  0  0  0  0  0  0  0
   37.1890   25.8710   40.5850 H   0  0  0  0  0  0  0  0  0  0  0  0
   38.7690   26.5370   41.2550 H   0  0  0  0  0  0  0  0  0  0  0  0
   37.5580   25.4760   43.0000 H   0  0  0  0  0  0  0  0  0  0  0  0
   36.0150   26.2450   42.5900 H   0  0  0  0  0  0  0  0  0  0  0  0
   38.6210   27.4440   43.6580 H   0  0  0  0  0  0  0  0  0  0  0  0
   36.9590   27.4120   44.4770 H   0  0  0  0  0  0  0  0  0  0  0  0
   36.1440   29.0540   42.8090 H   0  0  0  0  0  0  0  0  0  0  0  0
   37.6190   29.6560   43.6640 H   0  0  0  0  0  0  0  0  0  0  0  0
   38.9650   28.6330   41.8500 H   0  0  0  0  0  0  0  0  0  0  0  0
   37.9380   30.3670   41.1410 N   0  0  0  0  0  0  0  0  0  0  0  0
   36.7920   31.0310   40.8840 C   0  0  0  0  0  0  0  0  0  0  0  0
   35.7640   30.7350   41.0110 H   0  0  0  0  0  0  0  0  0  0  0  0
   37.1310   32.2400   40.3950 N   0  0  0  0  0  0  0  0  0  0  0  0
   38.4580   32.3180   40.3540 C   0  0  0  0  0  0  0  0  0  0  0  0
   39.3410   33.2920   39.9540 C   0  0  0  0  0  0  0  0  0  0  0  0
   39.0270   34.2450   39.5740 H   0  0  0  0  0  0  0  0  0  0  0  0
   40.6690   33.0940   40.0240 N   0  0  0  0  0  0  0  0  0  0  0  0
   41.2050   31.9470   40.4820 C   0  0  0  0  0  0  0  0  0  0  0  0
   42.2800   31.8170   40.5250 H   0  0  0  0  0  0  0  0  0  0  0  0
   40.3550   30.9580   40.8850 N   0  0  0  0  0  0  0  0  0  0  0  0
   39.0180   31.1350   40.8240 C   0  0  0  0  0  0  0  0  0  0  0  0
   37.7270   28.1760   39.3420 C   0  0  0  0  0  0  0  0  0  0  0  0
   38.9720   27.9970   39.2660 O   0  0  0  0  0  0  0  0  0  0  0  0
   36.7210   28.8000   35.9300 C   0  0  0  0  0  0  0  0  0  0  0  0
   35.3510   29.0920   36.0380 C   0  0  0  0  0  0  0  0  0  0  0  0
   34.7530   29.0710   37.3100 C   0  0  0  0  0  0  0  0  0  0  0  0
   35.5760   28.7660   38.3300 N   0  0  0  0  0  0  0  0  0  0  0  0
   36.8670   28.4900   38.2350 C   0  0  0  0  0  0  0  0  0  0  0  0
   37.4340   28.5100   37.0160 N   0  0  0  0  0  0  0  0  0  0  0  0
   37.3050   28.8240   34.6480 N   0  0  0  0  0  0  0  0  0  0  0  0
   34.7050   29.3370   35.1920 H   0  0  0  0  0  0  0  0  0  0  0  0
   33.7200   29.2840   37.4470 H   0  0  0  0  0  0  0  0  0  0  0  0
   37.5570   29.8200   34.6210 H   0  0  0  0  0  0  0  0  0  0  0  0
   37.3820   27.9890   34.0320 H   0  0  0  0  0  0  0  0  0  0  0  0
  1  7  1  1  0  0  0
  1  2  1  0  0  0  0
  1  6  1  0  0  0  0
  2  9  1  0  0  0  0
  2  3  1  0  0  0  0
  3 10  1  0  0  0  0
  3  4  1  0  0  0  0
  4 12  1  0  0  0  0
  4 13  1  0  0  0  0
  5  4  1  0  0  0  0
  5 15  1  0  0  0  0
  6 16  1  1  0  0  0
  6  5  1  0  0  0  0
  8  2  1  0  0  0  0
 11  3  1  0  0  0  0
 14  5  1  0  0  0  0
 17  6  1  0  0  0  0
 18 19  1  0  0  0  0
 18 17  1  0  0  0  0
 20 18  2  0  0  0  0
 21 20  1  0  0  0  0
 21 28  1  0  0  0  0
 22 24  1  0  0  0  0
 22 21  2  0  0  0  0
 23 22  1  0  0  0  0
 24 25  2  0  0  0  0
 25 26  1  0  0  0  0
 25 27  1  0  0  0  0
 28 27  2  0  0  0  0
 28 17  1  0  0  0  0
 29  1  1  0  0  0  0
 30 29  2  0  0  0  0
 31 32  2  0  0  0  0
 31 36  1  0  0  0  0
 32 33  1  0  0  0  0
 33 39  1  0  0  0  0
 33 34  2  0  0  0  0
 35 34  1  0  0  0  0
 35 29  1  0  0  0  0
 36 35  2  0  0  0  0
 37 31  1  0  0  0  0
 38 32  1  0  0  0  0
 40 37  1  0  0  0  0
 41 37  1  0  0  0  0
M  END
>  <minimizedAffinity>
-5.72073936

$$$$

 OpenBabel03242512323D

 41 44  0  0  1  0  0  0  0  0999 V2000
   39.5770   32.2940   40.5120 C   0  0  1  0  0  0  0  0  0  0  0  0
   39.4640   33.6670   39.8940 C   0  0  0  0  0  0  0  0  0  0  0  0
   38.0470   34.1450   39.9750 C   0  0  0  0  0  0  0  0  0  0  0  0
   37.1170   33.1400   39.3850 C   0  0  0  0  0  0  0  0  0  0  0  0
   37.2810   31.7570   39.9440 C   0  0  0  0  0  0  0  0  0  0  0  0
   38.7230   31.3190   39.6580 C   0  0  2  0  0  0  0  0  0  0  0  0
   39.1990   32.2560   41.5310 H   0  0  0  0  0  0  0  0  0  0  0  0
   40.0740   34.3840   40.4770 H   0  0  0  0  0  0  0  0  0  0  0  0
   39.7850   33.6320   38.8210 H   0  0  0  0  0  0  0  0  0  0  0  0
   37.9760   35.0740   39.3590 H   0  0  0  0  0  0  0  0  0  0  0  0
   37.7820   34.4500   41.0060 H   0  0  0  0  0  0  0  0  0  0  0  0
   37.3220   33.1050   38.2950 H   0  0  0  0  0  0  0  0  0  0  0  0
   36.0760   33.4590   39.6210 H   0  0  0  0  0  0  0  0  0  0  0  0
   37.1250   31.7070   41.0260 H   0  0  0  0  0  0  0  0  0  0  0  0
   36.6410   31.0570   39.4090 H   0  0  0  0  0  0  0  0  0  0  0  0
   38.9170   31.6360   38.6100 H   0  0  0  0  0  0  0  0  0  0  0  0
   38.9850   29.9580   39.9300 N   0  0  0  0  0  0  0  0  0  0  0  0
   39.4830   29.1160   39.0020 C   0  0  0  0  0  0  0  0  0  0  0  0
   39.7570   29.2860   37.9730 H   0  0  0  0  0  0  0  0  0  0  0  0
   39.6100   27.9060   39.5820 N   0  0  0  0  0  0  0  0  0  0  0  0
   39.1980   28.0040   40.8430 C   0  0  0  0  0  0  0  0  0  0  0  0
   39.1030   27.1100   41.8830 C   0  0  0  0  0  0  0  0  0  0  0  0
   39.3900   26.0800   41.7960 H   0  0  0  0  0  0  0  0  0  0  0  0
   38.6370   27.4920   43.0850 N   0  0  0  0  0  0  0  0  0  0  0  0
   38.2410   28.7550   43.3370 C   0  0  0  0  0  0  0  0  0  0  0  0
   37.8690   29.0320   44.3170 H   0  0  0  0  0  0  0  0  0  0  0  0
   38.3220   29.6670   42.3250 N   0  0  0  0  0  0  0  0  0  0  0  0
   38.7860   29.3040   41.1100 C   0  0  0  0  0  0  0  0  0  0  0  0
   40.9990   31.8760   40.5170 C   0  0  0  0  0  0  0  0  0  0  0  0
   41.3600   31.5720   41.6850 O   0  0  0  0  0  0  0  0  0  0  0  0
   42.6530   32.9850   37.5040 C   0  0  0  0  0  0  0  0  0  0  0  0
   43.3780   31.8550   37.0900 C   0  0  0  0  0  0  0  0  0  0  0  0
   43.3030   30.6830   37.8630 C   0  0  0  0  0  0  0  0  0  0  0  0
   42.5210   30.7600   38.9560 N   0  0  0  0  0  0  0  0  0  0  0  0
   41.8360   31.8220   39.3500 C   0  0  0  0  0  0  0  0  0  0  0  0
   41.9120   32.9400   38.6080 N   0  0  0  0  0  0  0  0  0  0  0  0
   42.7400   34.1510   36.7200 N   0  0  0  0  0  0  0  0  0  0  0  0
   44.0070   31.8190   36.1980 H   0  0  0  0  0  0  0  0  0  0  0  0
   43.8320   29.8000   37.5950 H   0  0  0  0  0  0  0  0  0  0  0  0
   41.9710   33.9480   36.0690 H   0  0  0  0  0  0  0  0  0  0  0  0
   43.4370   34.9070   36.8820 H   0  0  0  0  0  0  0  0  0  0  0  0
  1 29  1  0  0  0  0
  1  7  1  1  0  0  0
  2  3  1  0  0  0  0
  2  8  1  0  0  0  0
  2  1  1  0  0  0  0
  3 11  1  0  0  0  0
  4 13  1  0  0  0  0
  4  5  1  0  0  0  0
  4  3  1  0  0  0  0
  5 14  1  0  0  0  0
  6 16  1  6  0  0  0
  6 17  1  0  0  0  0
  6  5  1  0  0  0  0
  6  1  1  0  0  0  0
  9  2  1  0  0  0  0
 10  3  1  0  0  0  0
 12  4  1  0  0  0  0
 15  5  1  0  0  0  0
 17 28  1  0  0  0  0
 18 20  2  0  0  0  0
 18 17  1  0  0  0  0
 19 18  1  0  0  0  0
 20 21  1  0  0  0  0
 21 28  2  0  0  0  0
 21 22  1  0  0  0  0
 22 24  2  0  0  0  0
 23 22  1  0  0  0  0
 24 25  1  0  0  0  0
 25 26  1  0  0  0  0
 27 25  2  0  0  0  0
 28 27  1  0  0  0  0
 29 30  2  0  0  0  0
 31 36  1  0  0  0  0
 32 31  2  0  0  0  0
 32 33  1  0  0  0  0
 33 34  2  0  0  0  0
 34 35  1  0  0  0  0
 35 29  1  0  0  0  0
 36 35  2  0  0  0  0
 37 41  1  0  0  0  0
 37 31  1  0  0  0  0
 38 32  1  0  0  0  0
 39 33  1  0  0  0  0
 40 37  1  0  0  0  0
M  END
>  <minimizedAffinity>
-5.7160058

$$$$

 OpenBabel03242512323D

 41 44  0  0  1  0  0  0  0  0999 V2000
   38.4420   27.7560   41.8330 C   0  0  1  0  0  0  0  0  0  0  0  0
   38.8150   26.9930   43.0810 C   0  0  0  0  0  0  0  0  0  0  0  0
   38.9240   25.5320   42.7700 C   0  0  0  0  0  0  0  0  0  0  0  0
   37.6820   25.0390   42.1100 C   0  0  0  0  0  0  0  0  0  0  0  0
   37.2680   25.8440   40.9130 C   0  0  0  0  0  0  0  0  0  0  0  0
   37.0320   27.2810   41.3910 C   0  0  2  0  0  0  0  0  0  0  0  0
   39.1240   27.5730   41.0060 H   0  0  0  0  0  0  0  0  0  0  0  0
   39.8140   27.3190   43.4280 H   0  0  0  0  0  0  0  0  0  0  0  0
   38.0350   27.1480   43.8710 H   0  0  0  0  0  0  0  0  0  0  0  0
   39.0270   24.9940   43.7430 H   0  0  0  0  0  0  0  0  0  0  0  0
   39.8510   25.3090   42.2060 H   0  0  0  0  0  0  0  0  0  0  0  0
   36.8700   25.0870   42.8640 H   0  0  0  0  0  0  0  0  0  0  0  0
   37.8760   24.0030   41.7480 H   0  0  0  0  0  0  0  0  0  0  0  0
   38.0300   25.8730   40.1270 H   0  0  0  0  0  0  0  0  0  0  0  0
   36.3100   25.4900   40.5350 H   0  0  0  0  0  0  0  0  0  0  0  0
   36.4690   27.1780   42.3450 H   0  0  0  0  0  0  0  0  0  0  0  0
   36.4310   28.1250   40.4300 N   0  0  0  0  0  0  0  0  0  0  0  0
   35.3060   28.8260   40.6830 C   0  0  0  0  0  0  0  0  0  0  0  0
   34.6980   28.8830   41.5710 H   0  0  0  0  0  0  0  0  0  0  0  0
   35.0050   29.5180   39.5670 N   0  0  0  0  0  0  0  0  0  0  0  0
   35.9270   29.2500   38.6470 C   0  0  0  0  0  0  0  0  0  0  0  0
   36.1240   29.6620   37.3510 C   0  0  0  0  0  0  0  0  0  0  0  0
   35.4680   30.3470   36.8490 H   0  0  0  0  0  0  0  0  0  0  0  0
   37.1710   29.2160   36.6340 N   0  0  0  0  0  0  0  0  0  0  0  0
   38.0750   28.3530   37.1360 C   0  0  0  0  0  0  0  0  0  0  0  0
   38.9080   28.0120   36.5320 H   0  0  0  0  0  0  0  0  0  0  0  0
   37.9070   27.9240   38.4200 N   0  0  0  0  0  0  0  0  0  0  0  0
   36.8630   28.3580   39.1590 C   0  0  0  0  0  0  0  0  0  0  0  0
   38.4350   29.2080   42.1310 C   0  0  0  0  0  0  0  0  0  0  0  0
   38.1390   29.4040   43.3390 O   0  0  0  0  0  0  0  0  0  0  0  0
   38.0440   32.2550   40.2330 C   0  0  0  0  0  0  0  0  0  0  0  0
   39.1590   32.2580   39.3780 C   0  0  0  0  0  0  0  0  0  0  0  0
   40.0710   31.1910   39.4530 C   0  0  0  0  0  0  0  0  0  0  0  0
   39.7790   30.2440   40.3640 N   0  0  0  0  0  0  0  0  0  0  0  0
   38.7310   30.2370   41.1730 C   0  0  0  0  0  0  0  0  0  0  0  0
   37.8620   31.2600   41.0970 N   0  0  0  0  0  0  0  0  0  0  0  0
   37.1400   33.3320   40.1450 N   0  0  0  0  0  0  0  0  0  0  0  0
   39.3730   33.0400   38.6460 H   0  0  0  0  0  0  0  0  0  0  0  0
   40.9310   31.1440   38.8300 H   0  0  0  0  0  0  0  0  0  0  0  0
   36.5280   32.9490   39.4140 H   0  0  0  0  0  0  0  0  0  0  0  0
   37.2100   34.1940   40.7240 H   0  0  0  0  0  0  0  0  0  0  0  0
  1  7  1  6  0  0  0
  1 29  1  0  0  0  0
  1  2  1  0  0  0  0
  2  8  1  0  0  0  0
  2  9  1  0  0  0  0
  3  2  1  0  0  0  0
  3 10  1  0  0  0  0
  4  3  1  0  0  0  0
  4 12  1  0  0  0  0
  5  6  1  0  0  0  0
  5  4  1  0  0  0  0
  6  1  1  0  0  0  0
  6 16  1  1  0  0  0
 11  3  1  0  0  0  0
 13  4  1  0  0  0  0
 14  5  1  0  0  0  0
 15  5  1  0  0  0  0
 17 18  1  0  0  0  0
 17  6  1  0  0  0  0
 18 19  1  0  0  0  0
 20 18  2  0  0  0  0
 21 28  1  0  0  0  0
 21 20  1  0  0  0  0
 22 21  2  0  0  0  0
 23 22  1  0  0  0  0
 24 25  2  0  0  0  0
 24 22  1  0  0  0  0
 25 27  1  0  0  0  0
 26 25  1  0  0  0  0
 27 28  2  0  0  0  0
 28 17  1  0  0  0  0
 29 30  2  0  0  0  0
 31 36  1  0  0  0  0
 32 33  1  0  0  0  0
 32 31  2  0  0  0  0
 33 34  2  0  0  0  0
 34 35  1  0  0  0  0
 35 29  1  0  0  0  0
 36 35  2  0  0  0  0
 37 31  1  0  0  0  0
 37 41  1  0  0  0  0
 38 32  1  0  0  0  0
 39 33  1  0  0  0  0
 40 37  1  0  0  0  0
M  END
>  <minimizedAffinity>
-5.67270851

$$$$

 OpenBabel03242512323D

 41 44  0  0  1  0  0  0  0  0999 V2000
   38.7670   29.3050   38.4610 C   0  0  1  0  0  0  0  0  0  0  0  0
   37.8910   28.1310   38.1000 C   0  0  0  0  0  0  0  0  0  0  0  0
   37.1730   28.4080   36.8150 C   0  0  0  0  0  0  0  0  0  0  0  0
   36.4420   29.7050   36.8890 C   0  0  0  0  0  0  0  0  0  0  0  0
   37.2960   30.8610   37.3210 C   0  0  0  0  0  0  0  0  0  0  0  0
   37.8420   30.5260   38.7150 C   0  0  2  0  0  0  0  0  0  0  0  0
   39.4590   29.5780   37.6670 H   0  0  0  0  0  0  0  0  0  0  0  0
   38.5230   27.2390   37.9240 H   0  0  0  0  0  0  0  0  0  0  0  0
   37.1410   27.9480   38.9130 H   0  0  0  0  0  0  0  0  0  0  0  0
   36.4150   27.5990   36.6790 H   0  0  0  0  0  0  0  0  0  0  0  0
   37.8560   28.3260   35.9470 H   0  0  0  0  0  0  0  0  0  0  0  0
   35.6230   29.5780   37.6260 H   0  0  0  0  0  0  0  0  0  0  0  0
   36.0720   29.9460   35.8660 H   0  0  0  0  0  0  0  0  0  0  0  0
   38.1510   31.0390   36.6610 H   0  0  0  0  0  0  0  0  0  0  0  0
   36.6850   31.7540   37.4430 H   0  0  0  0  0  0  0  0  0  0  0  0
   36.9770   30.1000   39.2680 H   0  0  0  0  0  0  0  0  0  0  0  0
   38.4950   31.6000   39.3600 N   0  0  0  0  0  0  0  0  0  0  0  0
   38.0990   32.0720   40.5600 C   0  0  0  0  0  0  0  0  0  0  0  0
   37.2940   31.7640   41.2070 H   0  0  0  0  0  0  0  0  0  0  0  0
   38.9240   33.0870   40.8850 N   0  0  0  0  0  0  0  0  0  0  0  0
   39.8110   33.2350   39.9030 C   0  0  0  0  0  0  0  0  0  0  0  0
   40.8650   34.0920   39.6970 C   0  0  0  0  0  0  0  0  0  0  0  0
   41.1450   34.8540   40.3980 H   0  0  0  0  0  0  0  0  0  0  0  0
   41.6120   34.0140   38.5820 N   0  0  0  0  0  0  0  0  0  0  0  0
   41.3750   33.1050   37.6160 C   0  0  0  0  0  0  0  0  0  0  0  0
   41.9960   33.0670   36.7280 H   0  0  0  0  0  0  0  0  0  0  0  0
   40.3350   32.2400   37.7910 N   0  0  0  0  0  0  0  0  0  0  0  0
   39.5710   32.3000   38.9020 C   0  0  0  0  0  0  0  0  0  0  0  0
   39.5470   28.9790   39.6780 C   0  0  0  0  0  0  0  0  0  0  0  0
   40.7220   29.4220   39.5760 O   0  0  0  0  0  0  0  0  0  0  0  0
   37.7630   28.3950   42.7630 C   0  0  0  0  0  0  0  0  0  0  0  0
   37.9900   27.0330   43.0230 C   0  0  0  0  0  0  0  0  0  0  0  0
   38.7700   26.2920   42.1190 C   0  0  0  0  0  0  0  0  0  0  0  0
   39.2380   26.9810   41.0610 N   0  0  0  0  0  0  0  0  0  0  0  0
   39.0270   28.2630   40.8110 C   0  0  0  0  0  0  0  0  0  0  0  0
   38.2800   28.9670   41.6790 N   0  0  0  0  0  0  0  0  0  0  0  0
   36.9780   29.1220   43.6790 N   0  0  0  0  0  0  0  0  0  0  0  0
   37.5970   26.4970   43.8910 H   0  0  0  0  0  0  0  0  0  0  0  0
   38.9720   25.2590   42.2670 H   0  0  0  0  0  0  0  0  0  0  0  0
   37.7290   29.4110   44.3180 H   0  0  0  0  0  0  0  0  0  0  0  0
   35.9470   29.2390   43.5930 H   0  0  0  0  0  0  0  0  0  0  0  0
  1  7  1  6  0  0  0
  1  6  1  0  0  0  0
  1 29  1  0  0  0  0
  2  1  1  0  0  0  0
  2  9  1  0  0  0  0
  3  4  1  0  0  0  0
  3  2  1  0  0  0  0
  4  5  1  0  0  0  0
  4 12  1  0  0  0  0
  5 15  1  0  0  0  0
  5  6  1  0  0  0  0
  6 16  1  1  0  0  0
  6 17  1  0  0  0  0
  8  2  1  0  0  0  0
 10  3  1  0  0  0  0
 11  3  1  0  0  0  0
 13  4  1  0  0  0  0
 14  5  1  0  0  0  0
 17 18  1  0  0  0  0
 18 20  2  0  0  0  0
 18 19  1  0  0  0  0
 21 20  1  0  0  0  0
 22 21  1  0  0  0  0
 22 23  1  0  0  0  0
 24 22  2  0  0  0  0
 25 27  2  0  0  0  0
 25 24  1  0  0  0  0
 26 25  1  0  0  0  0
 27 28  1  0  0  0  0
 28 17  1  0  0  0  0
 28 21  2  0  0  0  0
 29 35  1  0  0  0  0
 30 29  2  0  0  0  0
 31 32  1  0  0  0  0
 31 37  1  0  0  0  0
 32 38  1  0  0  0  0
 33 39  1  0  0  0  0
 33 32  2  0  0  0  0
 34 33  1  0  0  0  0
 35 34  2  0  0  0  0
 35 36  1  0  0  0  0
 36 31  2  0  0  0  0
 37 40  1  0  0  0  0
 41 37  1  0  0  0  0
M  END
>  <minimizedAffinity>
-5.55999517

$$$$

 OpenBabel03242512323D

 41 44  0  0  1  0  0  0  0  0999 V2000
   36.8070   28.0990   39.2230 C   0  0  1  0  0  0  0  0  0  0  0  0
   35.7130   27.4140   38.4410 C   0  0  0  0  0  0  0  0  0  0  0  0
   34.6240   28.3930   38.1250 C   0  0  0  0  0  0  0  0  0  0  0  0
   34.1470   29.0680   39.3660 C   0  0  0  0  0  0  0  0  0  0  0  0
   35.2440   29.6850   40.1830 C   0  0  0  0  0  0  0  0  0  0  0  0
   36.2050   28.5570   40.5780 C   0  0  2  0  0  0  0  0  0  0  0  0
   37.1960   28.9820   38.7210 H   0  0  0  0  0  0  0  0  0  0  0  0
   36.1160   27.0650   37.4710 H   0  0  0  0  0  0  0  0  0  0  0  0
   35.2880   26.5660   39.0380 H   0  0  0  0  0  0  0  0  0  0  0  0
   33.7680   27.8110   37.7060 H   0  0  0  0  0  0  0  0  0  0  0  0
   34.9310   29.0920   37.3230 H   0  0  0  0  0  0  0  0  0  0  0  0
   33.6390   28.2990   39.9820 H   0  0  0  0  0  0  0  0  0  0  0  0
   33.4690   29.8990   39.0620 H   0  0  0  0  0  0  0  0  0  0  0  0
   35.8190   30.4390   39.6370 H   0  0  0  0  0  0  0  0  0  0  0  0
   34.8410   30.0790   41.1160 H   0  0  0  0  0  0  0  0  0  0  0  0
   35.5480   27.7130   40.8820 H   0  0  0  0  0  0  0  0  0  0  0  0
   37.1810   28.9280   41.5290 N   0  0  0  0  0  0  0  0  0  0  0  0
   37.2940   28.3190   42.7280 C   0  0  0  0  0  0  0  0  0  0  0  0
   36.7280   27.5120   43.1620 H   0  0  0  0  0  0  0  0  0  0  0  0
   38.3120   28.9090   43.3840 N   0  0  0  0  0  0  0  0  0  0  0  0
   38.8160   29.8620   42.6040 C   0  0  0  0  0  0  0  0  0  0  0  0
   39.8410   30.7660   42.7500 C   0  0  0  0  0  0  0  0  0  0  0  0
   40.4480   30.8230   43.6330 H   0  0  0  0  0  0  0  0  0  0  0  0
   40.1380   31.6390   41.7720 N   0  0  0  0  0  0  0  0  0  0  0  0
   39.4600   31.6790   40.6090 C   0  0  0  0  0  0  0  0  0  0  0  0
   39.7240   32.3960   39.8390 H   0  0  0  0  0  0  0  0  0  0  0  0
   38.4350   30.7950   40.4330 N   0  0  0  0  0  0  0  0  0  0  0  0
   38.1190   29.9100   41.4020 C   0  0  0  0  0  0  0  0  0  0  0  0
   37.9220   27.1470   39.4410 C   0  0  0  0  0  0  0  0  0  0  0  0
   39.0100   27.6550   39.0620 O   0  0  0  0  0  0  0  0  0  0  0  0
   38.4840   24.3580   41.6660 C   0  0  0  0  0  0  0  0  0  0  0  0
   37.6090   23.3690   41.1840 C   0  0  0  0  0  0  0  0  0  0  0  0
   36.8030   23.6640   40.0710 C   0  0  0  0  0  0  0  0  0  0  0  0
   36.9520   24.9010   39.5600 N   0  0  0  0  0  0  0  0  0  0  0  0
   37.7730   25.8360   40.0110 C   0  0  0  0  0  0  0  0  0  0  0  0
   38.5420   25.5490   41.0750 N   0  0  0  0  0  0  0  0  0  0  0  0
   39.2840   24.0470   42.7820 N   0  0  0  0  0  0  0  0  0  0  0  0
   37.5080   22.3720   41.6170 H   0  0  0  0  0  0  0  0  0  0  0  0
   36.1240   22.9530   39.6660 H   0  0  0  0  0  0  0  0  0  0  0  0
   40.0850   23.6430   42.2800 H   0  0  0  0  0  0  0  0  0  0  0  0
   39.0030   24.2360   43.7660 H   0  0  0  0  0  0  0  0  0  0  0  0
  1  7  1  6  0  0  0
  1 29  1  0  0  0  0
  1  6  1  0  0  0  0
  2  9  1  0  0  0  0
  2  1  1  0  0  0  0
  3  2  1  0  0  0  0
  3  4  1  0  0  0  0
  4 12  1  0  0  0  0
  4  5  1  0  0  0  0
  5  6  1  0  0  0  0
  5 15  1  0  0  0  0
  6 16  1  1  0  0  0
  6 17  1  0  0  0  0
  8  2  1  0  0  0  0
 10  3  1  0  0  0  0
 11  3  1  0  0  0  0
 13  4  1  0  0  0  0
 14  5  1  0  0  0  0
 17 18  1  0  0  0  0
 18 19  1  0  0  0  0
 18 20  2  0  0  0  0
 21 22  1  0  0  0  0
 21 20  1  0  0  0  0
 22 23  1  0  0  0  0
 24 22  2  0  0  0  0
 25 24  1  0  0  0  0
 26 25  1  0  0  0  0
 27 25  2  0  0  0  0
 27 28  1  0  0  0  0
 28 17  1  0  0  0  0
 28 21  2  0  0  0  0
 29 35  1  0  0  0  0
 30 29  2  0  0  0  0
 31 37  1  0  0  0  0
 32 38  1  0  0  0  0
 32 31  1  0  0  0  0
 33 32  2  0  0  0  0
 34 35  2  0  0  0  0
 34 33  1  0  0  0  0
 35 36  1  0  0  0  0
 36 31  2  0  0  0  0
 37 41  1  0  0  0  0
 39 33  1  0  0  0  0
 40 37  1  0  0  0  0
M  END
>  <minimizedAffinity>
-5.55606747

$$$$
