REMARK  Name = 
REMARK  6 active torsions:
REMARK  status: ('A' for Active; 'I' for Inactive)
REMARK    1  A    between atoms: C_1  and  C_14
REMARK    2  A    between atoms: C_3  and  C_8
REMARK    3  A    between atoms: C_7  and  O_12
REMARK    4  A    between atoms: C_11  and  O_13
REMARK    5  A    between atoms: C_14  and  N_17
REMARK    6  A    between atoms: C_15  and  C_32
REMARK                            x       y       z     vdW  Elec       q    Type
REMARK                         _______ _______ _______ _____ _____    ______ ____
ROOT
ATOM      1  C   UNL     1      45.287  35.619  44.208  0.00  0.00    +0.000 A 
ATOM      2  C   UNL     1      46.249  34.861  43.529  0.00  0.00    +0.000 A 
ATOM      3  C   UNL     1      46.707  33.667  44.081  0.00  0.00    +0.000 A 
ATOM      4  N   UNL     1      46.192  33.303  45.254  0.00  0.00    +0.000 NA
ATOM      5  C   UNL     1      45.264  34.038  45.906  0.00  0.00    +0.000 A 
ATOM      6  N   UNL     1      44.809  35.194  45.389  0.00  0.00    +0.000 NA
ATOM      7  H   UNL     1      46.593  35.243  42.598  0.00  0.00    +0.000 HD
ATOM      8  H   UNL     1      44.873  33.691  46.870  0.00  0.00    +0.000 HD
ENDROOT
BRANCH   3  10
ATOM      9  C   UNL     1      48.681  33.773  42.578  0.00  0.00    +0.000 C 
ATOM     10  C   UNL     1      47.709  32.926  43.319  0.00  0.00    +0.000 C 
ATOM     11  O   UNL     1      47.166  32.151  42.254  0.00  0.00    +0.000 OA
ATOM     12  C   UNL     1      48.309  31.679  41.642  0.00  0.00    +0.000 C 
ATOM     13  C   UNL     1      49.431  32.648  41.836  0.00  0.00    +0.000 C 
ATOM     14  H   UNL     1      48.210  34.342  41.732  0.00  0.00    +0.000 HD
ATOM     15  H   UNL     1      48.264  32.183  43.937  0.00  0.00    +0.000 HD
ATOM     16  H   UNL     1      48.573  30.683  42.074  0.00  0.00    +0.000 HD
ATOM     17  H   UNL     1      48.144  31.566  40.545  0.00  0.00    +0.000 HD
ATOM     18  H   UNL     1      50.234  32.296  42.494  0.00  0.00    +0.000 HD
BRANCH   9  19
ATOM     19  O   UNL     1      49.488  34.543  43.360  0.00  0.00    +0.000 OA
ATOM     20  H   UNL     1      48.928  34.984  44.018  0.00  0.00    +0.000 HD
ENDBRANCH   9  19
BRANCH  13  21
ATOM     21  O   UNL     1      49.942  33.152  40.647  0.00  0.00    +0.000 OA
ATOM     22  H   UNL     1      50.468  33.966  40.836  0.00  0.00    +0.000 HD
ENDBRANCH  13  21
ENDBRANCH   3  10
BRANCH   1  23
ATOM     23  C   UNL     1      44.810  36.909  43.603  0.00  0.00    +0.000 C 
ATOM     24  H   UNL     1      45.405  37.133  42.711  0.00  0.00    +0.000 HD
ATOM     25  H   UNL     1      43.734  36.802  43.361  0.00  0.00    +0.000 HD
BRANCH  23  28
ATOM     26  C   UNL     1      45.327  39.264  44.467  0.00  0.00    +0.000 C 
ATOM     27  O   UNL     1      45.610  39.614  43.289  0.00  0.00    +0.000 OA
ATOM     28  N   UNL     1      44.948  37.918  44.651  0.00  0.00    +0.000 N 
ATOM     29  H   UNL     1      44.746  37.618  45.642  0.00  0.00    +0.000 HD
BRANCH  26  32
ATOM     30  H   UNL     1      43.996  41.701  44.981  0.00  0.00    +0.000 HD
ATOM     31  N   UNL     1      44.677  41.342  45.656  0.00  0.00    +0.000 N 
ATOM     32  C   UNL     1      45.393  40.209  45.567  0.00  0.00    +0.000 A 
ATOM     33  N   UNL     1      46.180  40.081  46.650  0.00  0.00    +0.000 NA
ATOM     34  C   UNL     1      45.989  41.142  47.475  0.00  0.00    +0.000 A 
ATOM     35  C   UNL     1      46.529  41.509  48.698  0.00  0.00    +0.000 A 
ATOM     36  H   UNL     1      47.261  40.903  49.191  0.00  0.00    +0.000 HD
ATOM     37  N   UNL     1      46.071  42.670  49.215  0.00  0.00    +0.000 NA
ATOM     38  C   UNL     1      45.149  43.429  48.590  0.00  0.00    +0.000 A 
ATOM     39  H   UNL     1      44.752  44.361  48.961  0.00  0.00    +0.000 HD
ATOM     40  N   UNL     1      44.620  43.064  47.386  0.00  0.00    +0.000 NA
ATOM     41  C   UNL     1      45.048  41.900  46.818  0.00  0.00    +0.000 A 
ENDBRANCH  26  32
ENDBRANCH  23  28
ENDBRANCH   1  23
TORSDOF 6
