REMARK  Name = 
REMARK  5 active torsions:
REMARK  status: ('A' for Active; 'I' for Inactive)
REMARK    1  A    between atoms: C_2  and  C_14
REMARK    2  A    between atoms: C_5  and  C_9
REMARK    3  A    between atoms: C_15  and  C_16
REMARK    4  A    between atoms: C_16  and  N_17
REMARK    5  A    between atoms: C_21  and  N_39
REMARK                            x       y       z     vdW  Elec       q    Type
REMARK                         _______ _______ _______ _____ _____    ______ ____
ROOT
ATOM      1  C   UNL     1      48.175  34.956  42.182  0.00  0.00    +0.000 C 
ATOM      2  H   UNL     1      48.079  34.484  43.184  0.00  0.00    +0.000 HD
ATOM      3  H   UNL     1      48.316  36.029  42.332  0.00  0.00    +0.000 HD
ENDROOT
BRANCH   1   4
ATOM      4  N   UNL     1      49.269  34.312  41.502  0.00  0.00    +0.000 NA
ATOM      5  C   UNL     1      50.346  34.065  42.396  0.00  0.00    +0.000 C 
ATOM      6  C   UNL     1      50.995  32.769  42.006  0.00  0.00    +0.000 C 
ATOM      7  C   UNL     1      49.934  32.079  41.216  0.00  0.00    +0.000 C 
ATOM      8  C   UNL     1      48.846  33.066  40.956  0.00  0.00    +0.000 C 
ATOM      9  H   UNL     1      49.963  33.923  43.444  0.00  0.00    +0.000 HD
ATOM     10  H   UNL     1      51.059  34.926  42.416  0.00  0.00    +0.000 HD
ATOM     11  H   UNL     1      51.911  33.020  41.425  0.00  0.00    +0.000 HD
ATOM     12  H   UNL     1      51.314  32.162  42.875  0.00  0.00    +0.000 HD
ATOM     13  H   UNL     1      49.584  31.113  41.648  0.00  0.00    +0.000 HD
ATOM     14  H   UNL     1      50.383  31.800  40.224  0.00  0.00    +0.000 HD
ATOM     15  H   UNL     1      47.969  32.716  41.539  0.00  0.00    +0.000 HD
BRANCH   8  16
ATOM     16  N   UNL     1      48.442  33.112  39.570  0.00  0.00    +0.000 N 
ATOM     17  C   UNL     1      49.315  33.129  38.540  0.00  0.00    +0.000 A 
ATOM     18  H   UNL     1      50.411  33.112  38.569  0.00  0.00    +0.000 HD
ATOM     19  N   UNL     1      48.620  33.174  37.388  0.00  0.00    +0.000 NA
ATOM     20  C   UNL     1      47.331  33.185  37.688  0.00  0.00    +0.000 A 
ATOM     21  C   UNL     1      46.120  33.224  37.008  0.00  0.00    +0.000 A 
ATOM     22  H   UNL     1      46.146  33.256  35.915  0.00  0.00    +0.000 HD
ATOM     23  N   UNL     1      44.908  33.225  37.573  0.00  0.00    +0.000 NA
ATOM     24  C   UNL     1      44.822  33.187  38.912  0.00  0.00    +0.000 A 
ATOM     25  H   UNL     1      43.955  33.181  39.559  0.00  0.00    +0.000 HD
ATOM     26  N   UNL     1      45.959  33.147  39.667  0.00  0.00    +0.000 NA
ATOM     27  C   UNL     1      47.176  33.147  39.058  0.00  0.00    +0.000 A 
ENDBRANCH   8  16
ENDBRANCH   1   4
BRANCH   1  29
ATOM     28  C   UNL     1      45.714  34.944  42.138  0.00  0.00    +0.000 C 
ATOM     29  C   UNL     1      46.862  34.707  41.480  0.00  0.00    +0.000 C 
BRANCH  28  31
ATOM     30  C   UNL     1      44.112  33.561  40.704  0.00  0.00    +0.000 A 
ATOM     31  C   UNL     1      44.409  34.709  41.471  0.00  0.00    +0.000 A 
ATOM     32  C   UNL     1      43.416  35.705  41.622  0.00  0.00    +0.000 A 
ATOM     33  N   UNL     1      42.221  35.501  41.015  0.00  0.00    +0.000 NA
ATOM     34  C   UNL     1      41.980  34.408  40.301  0.00  0.00    +0.000 A 
ATOM     35  N   UNL     1      42.923  33.466  40.161  0.00  0.00    +0.000 NA
ATOM     36  H   UNL     1      44.919  32.853  40.639  0.00  0.00    +0.000 HD
ATOM     37  H   UNL     1      43.575  36.592  42.185  0.00  0.00    +0.000 HD
BRANCH  34  40
ATOM     38  F   UNL     1      39.750  33.571  41.706  0.00  0.00    +0.000 F 
ATOM     39  C   UNL     1      39.578  33.816  40.393  0.00  0.00    +0.000 A 
ATOM     40  C   UNL     1      40.673  34.236  39.665  0.00  0.00    +0.000 A 
ATOM     41  C   UNL     1      40.591  34.514  38.298  0.00  0.00    +0.000 A 
ATOM     42  C   UNL     1      39.352  34.353  37.685  0.00  0.00    +0.000 A 
ATOM     43  C   UNL     1      38.224  33.925  38.416  0.00  0.00    +0.000 A 
ATOM     44  C   UNL     1      38.354  33.660  39.772  0.00  0.00    +0.000 A 
ATOM     45  H   UNL     1      41.436  34.843  37.712  0.00  0.00    +0.000 HD
ATOM     46  H   UNL     1      39.221  34.551  36.634  0.00  0.00    +0.000 HD
ATOM     47  H   UNL     1      37.269  33.806  37.922  0.00  0.00    +0.000 HD
ATOM     48  H   UNL     1      37.508  33.336  40.336  0.00  0.00    +0.000 HD
ENDBRANCH  34  40
ENDBRANCH  28  31
ENDBRANCH   1  29
TORSDOF 5
