REMARK  Name = 
REMARK  4 active torsions:
REMARK  status: ('A' for Active; 'I' for Inactive)
REMARK    1  A    between atoms: C_1  and  N_2
REMARK    2  A    between atoms: C_1  and  C_9
REMARK    3  A    between atoms: C_7  and  S_8
REMARK    4  A    between atoms: C_9  and  C_10
REMARK                            x       y       z     vdW  Elec       q    Type
REMARK                         _______ _______ _______ _____ _____    ______ ____
ROOT
ATOM      1  C   UNL     1      43.642  33.550  40.765  0.00  0.00    +0.000 C 
ATOM      2  H   UNL     1      43.692  33.092  41.768  0.00  0.00    +0.000 HD
ATOM      3  H   UNL     1      43.669  32.704  40.040  0.00  0.00    +0.000 HD
ENDROOT
BRANCH   1   4
ATOM      4  C   UNL     1      42.376  34.299  40.544  0.00  0.00    +0.000 A 
ATOM      5  C   UNL     1      41.625  34.128  39.394  0.00  0.00    +0.000 A 
ATOM      6  C   UNL     1      40.462  34.877  39.261  0.00  0.00    +0.000 A 
ATOM      7  N   UNL     1      40.113  35.743  40.262  0.00  0.00    +0.000 NA
ATOM      8  C   UNL     1      40.878  35.868  41.354  0.00  0.00    +0.000 A 
ATOM      9  N   UNL     1      41.987  35.153  41.481  0.00  0.00    +0.000 NA
ATOM     10  H   UNL     1      41.941  33.433  38.631  0.00  0.00    +0.000 HD
ATOM     11  H   UNL     1      39.836  34.785  38.382  0.00  0.00    +0.000 HD
ATOM     12  N   UNL     1      40.529  36.766  42.409  0.00  0.00    +0.000 N 
ATOM     13  C   UNL     1      41.262  36.831  43.535  0.00  0.00    +0.000 A 
ATOM     14  H   UNL     1      42.147  36.273  43.806  0.00  0.00    +0.000 HD
ATOM     15  N   UNL     1      40.725  37.736  44.342  0.00  0.00    +0.000 NA
ATOM     16  C   UNL     1      39.641  38.250  43.721  0.00  0.00    +0.000 A 
ATOM     17  C   UNL     1      38.676  39.207  44.023  0.00  0.00    +0.000 A 
ATOM     18  H   UNL     1      38.757  39.699  44.978  0.00  0.00    +0.000 HD
ATOM     19  N   UNL     1      37.712  39.461  43.124  0.00  0.00    +0.000 NA
ATOM     20  C   UNL     1      37.612  38.846  41.932  0.00  0.00    +0.000 A 
ATOM     21  H   UNL     1      36.817  39.082  41.237  0.00  0.00    +0.000 HD
ATOM     22  N   UNL     1      38.535  37.904  41.597  0.00  0.00    +0.000 NA
ATOM     23  C   UNL     1      39.505  37.633  42.476  0.00  0.00    +0.000 A 
ENDBRANCH   1   4
BRANCH   1  24
ATOM     24  C   UNL     1      44.767  34.490  40.452  0.00  0.00    +0.000 C 
ATOM     25  H   UNL     1      44.361  35.529  40.682  0.00  0.00    +0.000 HD
ATOM     26  H   UNL     1      44.850  34.547  39.339  0.00  0.00    +0.000 HD
BRANCH  24  27
ATOM     27  N   UNL     1      45.921  34.122  40.998  0.00  0.00    +0.000 N 
ATOM     28  C   UNL     1      46.837  33.132  40.560  0.00  0.00    +0.000 C 
ATOM     29  C   UNL     1      47.907  34.065  39.936  0.00  0.00    +0.000 C 
ATOM     30  C   UNL     1      48.505  34.977  40.914  0.00  0.00    +0.000 C 
ATOM     31  C   UNL     1      47.755  35.308  42.126  0.00  0.00    +0.000 C 
ATOM     32  C   UNL     1      46.329  34.871  42.191  0.00  0.00    +0.000 C 
ATOM     33  H   UNL     1      47.290  32.462  41.267  0.00  0.00    +0.000 HD
ATOM     34  H   UNL     1      46.476  32.541  39.708  0.00  0.00    +0.000 HD
ATOM     35  H   UNL     1      47.347  34.598  39.126  0.00  0.00    +0.000 HD
ATOM     36  H   UNL     1      48.676  33.401  39.482  0.00  0.00    +0.000 HD
ATOM     37  H   UNL     1      49.500  34.614  41.244  0.00  0.00    +0.000 HD
ATOM     38  H   UNL     1      48.712  35.960  40.404  0.00  0.00    +0.000 HD
ATOM     39  H   UNL     1      48.107  35.850  42.962  0.00  0.00    +0.000 HD
BRANCH  32  40
ATOM     40  S   UNL     1      45.299  35.297  43.569  0.00  0.00    +0.000 S 
ATOM     41  H   UNL     1      44.183  36.043  43.197  0.00  0.00    +0.000 HD
ENDBRANCH  32  40
ENDBRANCH  24  27
ENDBRANCH   1  24
TORSDOF 4
