
 OpenBabel03252503183D

 42 46  0  0  0  0  0  0  0  0999 V2000
   45.9300   33.9430   40.5920 C   0  0  0  0  0  0  0  0  0  0  0  0
   44.6330   33.5100   40.5790 C   0  0  0  0  0  0  0  0  0  0  0  0
   44.4550   32.9060   39.3840 N   0  0  0  0  0  0  0  0  0  0  0  0
   45.5930   32.9700   38.7000 C   0  0  0  0  0  0  0  0  0  0  0  0
   46.5160   33.6100   39.4380 N   0  0  0  0  0  0  0  0  0  0  0  0
   45.9150   32.4840   37.4030 N   0  0  0  0  0  0  0  0  0  0  0  0
   43.8970   33.6230   41.3590 H   0  0  0  0  0  0  0  0  0  0  0  0
   45.6410   31.4700   37.2390 H   0  0  0  0  0  0  0  0  0  0  0  0
   46.3780   33.1330   36.7290 H   0  0  0  0  0  0  0  0  0  0  0  0
   43.2630   32.2790   38.8680 C   0  0  0  0  0  0  0  0  0  0  0  0
   42.8060   31.5940   39.6160 H   0  0  0  0  0  0  0  0  0  0  0  0
   43.4920   31.6700   37.9810 H   0  0  0  0  0  0  0  0  0  0  0  0
   42.3300   33.3530   38.5730 N   0  0  0  0  0  0  0  0  0  0  0  0
   42.4770   34.6890   38.5180 C   0  0  0  0  0  0  0  0  0  0  0  0
   43.4620   35.0890   38.7250 H   0  0  0  0  0  0  0  0  0  0  0  0
   41.3100   35.2760   38.2000 N   0  0  0  0  0  0  0  0  0  0  0  0
   40.3680   34.3230   38.0410 C   0  0  0  0  0  0  0  0  0  0  0  0
   39.0270   34.3860   37.7170 C   0  0  0  0  0  0  0  0  0  0  0  0
   38.5590   35.3470   37.5410 H   0  0  0  0  0  0  0  0  0  0  0  0
   38.3470   33.2060   37.6360 N   0  0  0  0  0  0  0  0  0  0  0  0
   39.0090   32.0380   37.8720 C   0  0  0  0  0  0  0  0  0  0  0  0
   38.4160   31.1170   37.7940 H   0  0  0  0  0  0  0  0  0  0  0  0
   40.3130   31.9550   38.1890 N   0  0  0  0  0  0  0  0  0  0  0  0
   41.0180   33.1150   38.2770 C   0  0  0  0  0  0  0  0  0  0  0  0
   46.6310   34.6740   41.6910 C   0  0  0  0  0  0  0  0  0  0  0  0
   47.8130   35.1250   41.6320 O   0  0  0  0  0  0  0  0  0  0  0  0
   45.3020   36.1290   43.1640 C   0  0  0  0  0  0  0  0  0  0  0  0
   45.9590   34.9050   42.9220 C   0  0  0  0  0  0  0  0  0  0  0  0
   45.8700   34.0070   43.9790 C   0  0  0  0  0  0  0  0  0  0  0  0
   45.2300   34.2660   45.1110 N   0  0  0  0  0  0  0  0  0  0  0  0
   44.6160   35.4730   45.2800 C   0  0  0  0  0  0  0  0  0  0  0  0
   44.6580   36.3870   44.3070 N   0  0  0  0  0  0  0  0  0  0  0  0
   45.3530   36.8600   42.3480 H   0  0  0  0  0  0  0  0  0  0  0  0
   44.0890   35.7200   46.1810 H   0  0  0  0  0  0  0  0  0  0  0  0
   46.5090   32.7380   43.8270 C   0  0  0  0  0  0  0  0  0  0  0  0
   47.7790   32.2690   43.8770 C   0  0  0  0  0  0  0  0  0  0  0  0
   48.0970   31.0080   43.6940 C   0  0  0  0  0  0  0  0  0  0  0  0
   47.0670   30.1870   43.4470 C   0  0  0  0  0  0  0  0  0  0  0  0
   45.5930   31.2450   43.4760 S   0  0  0  0  0  0  0  0  0  0  0  0
   48.5170   33.0700   44.0900 H   0  0  0  0  0  0  0  0  0  0  0  0
   49.0960   30.5920   43.7250 H   0  0  0  0  0  0  0  0  0  0  0  0
   47.0980   29.0280   43.2510 H   0  0  0  0  0  0  0  0  0  0  0  0
  1 25  1  0  0  0  0
  2  1  2  0  0  0  0
  2  7  1  0  0  0  0
  3  2  1  0  0  0  0
  4  3  1  0  0  0  0
  4  5  2  0  0  0  0
  5  1  1  0  0  0  0
  6  4  1  0  0  0  0
  8  6  1  0  0  0  0
  9  6  1  0  0  0  0
 10  3  1  0  0  0  0
 10 11  1  0  0  0  0
 12 10  1  0  0  0  0
 13 10  1  0  0  0  0
 14 13  1  0  0  0  0
 14 15  1  0  0  0  0
 16 14  2  0  0  0  0
 17 16  1  0  0  0  0
 17 24  1  0  0  0  0
 18 17  2  0  0  0  0
 19 18  1  0  0  0  0
 20 18  1  0  0  0  0
 20 21  2  0  0  0  0
 21 23  1  0  0  0  0
 22 21  1  0  0  0  0
 23 24  2  0  0  0  0
 24 13  1  0  0  0  0
 25 28  1  0  0  0  0
 26 25  2  0  0  0  0
 27 32  1  0  0  0  0
 28 27  2  0  0  0  0
 28 29  1  0  0  0  0
 29 30  2  0  0  0  0
 30 31  1  0  0  0  0
 31 34  1  0  0  0  0
 32 31  2  0  0  0  0
 33 27  1  0  0  0  0
 35 36  2  0  0  0  0
 35 29  1  0  0  0  0
 36 40  1  0  0  0  0
 37 41  1  0  0  0  0
 37 36  1  0  0  0  0
 38 39  1  0  0  0  0
 38 37  2  0  0  0  0
 39 35  1  0  0  0  0
 42 38  1  0  0  0  0
M  END
>  <minimizedAffinity>
-6.01345825

>  <minimizedRMSD>
1.30122423

$$$$
