
 OpenBabel03252500443D

 37 40  0  0  1  0  0  0  0  0999 V2000
   47.7010   35.1520   41.7690 C   0  0  1  0  0  0  0  0  0  0  0  0
   49.1890   34.9210   41.5020 C   0  0  0  0  0  0  0  0  0  0  0  0
   48.1960   34.8960   40.3770 C   0  0  1  0  0  0  0  0  0  0  0  0
   47.4610   36.2170   41.9430 H   0  0  0  0  0  0  0  0  0  0  0  0
   49.8790   35.7450   41.6710 H   0  0  0  0  0  0  0  0  0  0  0  0
   49.6060   33.9410   41.8770 H   0  0  0  0  0  0  0  0  0  0  0  0
   48.2970   35.7370   39.6550 H   0  0  0  0  0  0  0  0  0  0  0  0
   46.9670   34.0320   42.3950 C   0  0  0  0  0  0  0  0  0  0  0  0
   47.6540   33.2040   42.6910 H   0  0  0  0  0  0  0  0  0  0  0  0
   46.2680   33.6090   41.6320 H   0  0  0  0  0  0  0  0  0  0  0  0
   46.1470   34.4120   43.5560 C   0  0  0  0  0  0  0  0  0  0  0  0
   45.4280   35.5620   43.3710 C   0  0  0  0  0  0  0  0  0  0  0  0
   44.6090   36.0560   44.3940 C   0  0  0  0  0  0  0  0  0  0  0  0
   44.5910   35.3100   45.5540 N   0  0  0  0  0  0  0  0  0  0  0  0
   45.3060   34.1800   45.7140 C   0  0  0  0  0  0  0  0  0  0  0  0
   46.0690   33.7480   44.7200 N   0  0  0  0  0  0  0  0  0  0  0  0
   45.2990   36.2690   42.5630 H   0  0  0  0  0  0  0  0  0  0  0  0
   43.9830   36.9340   44.4240 H   0  0  0  0  0  0  0  0  0  0  0  0
   45.2120   33.6830   46.6600 H   0  0  0  0  0  0  0  0  0  0  0  0
   47.8710   33.6840   39.8160 O   0  0  0  0  0  0  0  0  0  0  0  0
   48.6430   34.8420   37.5380 O   0  0  0  0  0  0  0  0  0  0  0  0
   48.4400   33.5120   38.2420 P   0  0  1  0  0  0  0  0  0  0  0  0
   49.9540   32.7330   38.2940 O   0  0  0  0  0  0  0  0  0  0  0  0
   50.0990   32.2530   39.1420 H   0  0  0  0  0  0  0  0  0  0  0  0
   47.3420   32.5330   37.3810 O   0  0  0  0  0  0  0  0  0  0  0  0
   48.6530   34.1060   35.4660 H   0  0  0  0  0  0  0  0  0  0  0  0
   48.2560   33.1750   35.2220 N   0  0  0  0  0  0  0  0  0  0  0  0
   47.6000   32.3090   36.0350 C   0  0  0  0  0  0  0  0  0  0  0  0
   47.2510   31.2140   35.3200 N   0  0  0  0  0  0  0  0  0  0  0  0
   47.6620   31.3330   34.0450 C   0  0  0  0  0  0  0  0  0  0  0  0
   47.6440   30.6390   32.8510 C   0  0  0  0  0  0  0  0  0  0  0  0
   47.1510   29.6710   32.8910 H   0  0  0  0  0  0  0  0  0  0  0  0
   48.1930   31.1170   31.7230 N   0  0  0  0  0  0  0  0  0  0  0  0
   48.8010   32.3320   31.7140 C   0  0  0  0  0  0  0  0  0  0  0  0
   49.2500   32.7390   30.8220 H   0  0  0  0  0  0  0  0  0  0  0  0
   48.8250   33.0170   32.8710 N   0  0  0  0  0  0  0  0  0  0  0  0
   48.2850   32.5680   34.0200 C   0  0  0  0  0  0  0  0  0  0  0  0
  1  4  1  1  0  0  0
  1  8  1  0  0  0  0
  2  5  1  0  0  0  0
  2  1  1  0  0  0  0
  2  6  1  0  0  0  0
  3  7  1  6  0  0  0
  3  2  1  0  0  0  0
  3  1  1  0  0  0  0
  8  9  1  0  0  0  0
  8 11  1  0  0  0  0
 10  8  1  0  0  0  0
 11 16  1  0  0  0  0
 12 11  2  0  0  0  0
 12 13  1  0  0  0  0
 13 18  1  0  0  0  0
 13 14  2  0  0  0  0
 14 15  1  0  0  0  0
 15 19  1  0  0  0  0
 16 15  2  0  0  0  0
 17 12  1  0  0  0  0
 20  3  1  0  0  0  0
 22 21  2  6  0  0  0
 22 23  1  0  0  0  0
 22 20  1  0  0  0  0
 23 24  1  0  0  0  0
 25 22  1  0  0  0  0
 27 26  1  0  0  0  0
 27 28  1  0  0  0  0
 28 25  1  0  0  0  0
 29 28  2  0  0  0  0
 30 29  1  0  0  0  0
 31 32  1  0  0  0  0
 31 30  2  0  0  0  0
 33 31  1  0  0  0  0
 34 33  2  0  0  0  0
 34 36  1  0  0  0  0
 35 34  1  0  0  0  0
 36 37  2  0  0  0  0
 37 30  1  0  0  0  0
 37 27  1  0  0  0  0
M  END
>  <minimizedAffinity>
-6.07327509

>  <minimizedRMSD>
3.69989777

$$$$
