
 OpenBabel03252507313D

 52 56  0  0  1  0  0  0  0  0999 V2000
   47.0920   32.0400   45.2720 C   0  0  0  0  0  0  0  0  0  0  0  0
   46.1060   32.7740   45.9120 C   0  0  0  0  0  0  0  0  0  0  0  0
   45.5990   33.9460   45.3040 C   0  0  0  0  0  0  0  0  0  0  0  0
   46.1460   34.2870   44.0690 N   0  0  0  0  0  0  0  0  0  0  0  0
   47.0970   33.5360   43.5070 C   0  0  0  0  0  0  0  0  0  0  0  0
   47.5630   32.4330   44.0940 N   0  0  0  0  0  0  0  0  0  0  0  0
   45.5840   32.7220   46.8450 H   0  0  0  0  0  0  0  0  0  0  0  0
   44.8550   34.6200   45.6380 H   0  0  0  0  0  0  0  0  0  0  0  0
   47.6450   33.9620   42.2150 C   0  0  0  0  0  0  0  0  0  0  0  0
   48.1100   35.2440   42.0300 C   0  0  0  0  0  0  0  0  0  0  0  0
   48.6430   35.7360   40.8580 C   0  0  0  0  0  0  0  0  0  0  0  0
   48.6850   34.8250   39.8330 C   0  0  0  0  0  0  0  0  0  0  0  0
   48.2200   33.5180   39.9920 C   0  0  0  0  0  0  0  0  0  0  0  0
   47.7030   33.0990   41.1880 N   0  0  0  0  0  0  0  0  0  0  0  0
   48.0430   35.9100   42.8960 H   0  0  0  0  0  0  0  0  0  0  0  0
   49.0020   36.7390   40.7300 H   0  0  0  0  0  0  0  0  0  0  0  0
   49.0780   35.0780   38.8580 H   0  0  0  0  0  0  0  0  0  0  0  0
   48.2880   32.6150   38.8910 N   0  0  0  0  0  0  0  0  0  0  0  0
   49.1700   31.6310   38.5530 C   0  0  0  0  0  0  0  0  0  0  0  0
   50.0250   31.4120   39.1790 H   0  0  0  0  0  0  0  0  0  0  0  0
   48.7680   31.0660   37.3930 N   0  0  0  0  0  0  0  0  0  0  0  0
   47.6350   31.6740   36.9760 C   0  0  0  0  0  0  0  0  0  0  0  0
   46.8320   31.4750   35.8620 C   0  0  0  0  0  0  0  0  0  0  0  0
   47.0790   30.7080   35.1300 H   0  0  0  0  0  0  0  0  0  0  0  0
   45.7340   32.2260   35.6680 N   0  0  0  0  0  0  0  0  0  0  0  0
   45.4670   33.1730   36.6140 C   0  0  0  0  0  0  0  0  0  0  0  0
   44.5960   33.8450   36.5590 H   0  0  0  0  0  0  0  0  0  0  0  0
   46.2190   33.4010   37.7090 N   0  0  0  0  0  0  0  0  0  0  0  0
   47.3270   32.6570   37.9240 C   0  0  0  0  0  0  0  0  0  0  0  0
   47.5610   30.8340   45.9260 C   0  0  2  0  0  0  0  0  0  0  0  0
   46.8760   29.5640   45.3460 C   0  0  0  0  0  0  0  0  0  0  0  0
   47.5050   28.3470   45.9340 C   0  0  0  0  0  0  0  0  0  0  0  0
   47.7470   28.3830   47.4050 C   0  0  0  0  0  0  0  0  0  0  0  0
   48.1710   29.6690   47.9080 C   0  0  0  0  0  0  0  0  0  0  0  0
   47.3450   30.8530   47.3590 C   0  0  2  0  0  0  0  0  0  0  0  0
   48.6230   30.6790   45.6430 H   0  0  0  0  0  0  0  0  0  0  0  0
   45.8010   29.5620   45.5150 H   0  0  0  0  0  0  0  0  0  0  0  0
   47.0420   29.5820   44.2510 H   0  0  0  0  0  0  0  0  0  0  0  0
   48.3770   28.1130   45.2920 H   0  0  0  0  0  0  0  0  0  0  0  0
   46.7990   27.4860   45.7490 H   0  0  0  0  0  0  0  0  0  0  0  0
   47.2620   27.6340   48.0280 H   0  0  0  0  0  0  0  0  0  0  0  0
   48.7720   27.8310   47.4310 H   0  0  0  0  0  0  0  0  0  0  0  0
   49.2280   29.9870   47.7420 H   0  0  0  0  0  0  0  0  0  0  0  0
   48.0500   29.7390   49.0250 H   0  0  0  0  0  0  0  0  0  0  0  0
   47.7810   31.6840   47.9130 H   0  0  0  0  0  0  0  0  0  0  0  0
   45.9310   30.6140   47.6540 N   0  0  0  0  0  0  0  0  0  0  0  0
   45.2430   30.4630   48.8700 C   0  0  0  0  0  0  0  0  0  0  0  0
   44.9430   31.4520   49.6320 O   0  0  0  0  0  0  0  0  0  0  0  0
   44.8940   29.1160   49.1940 N   0  0  0  0  0  0  0  0  0  0  0  0
   45.2010   30.4470   46.8640 H   0  0  0  0  0  0  0  0  0  0  0  0
   44.3910   28.4100   48.6280 H   0  0  0  0  0  0  0  0  0  0  0  0
   45.1530   28.7100   50.1260 H   0  0  0  0  0  0  0  0  0  0  0  0
  1  2  1  0  0  0  0
  1 30  1  0  0  0  0
  2  7  1  0  0  0  0
  3  8  1  0  0  0  0
  3  2  2  0  0  0  0
  4  3  1  0  0  0  0
  5  4  2  0  0  0  0
  5  6  1  0  0  0  0
  6  1  2  0  0  0  0
  9  5  1  0  0  0  0
 10  9  1  0  0  0  0
 10 15  1  0  0  0  0
 11 10  2  0  0  0  0
 12 13  2  0  0  0  0
 12 11  1  0  0  0  0
 13 14  1  0  0  0  0
 14  9  2  0  0  0  0
 16 11  1  0  0  0  0
 17 12  1  0  0  0  0
 18 13  1  0  0  0  0
 19 18  1  0  0  0  0
 19 20  1  0  0  0  0
 21 19  2  0  0  0  0
 22 21  1  0  0  0  0
 22 29  1  0  0  0  0
 23 22  2  0  0  0  0
 24 23  1  0  0  0  0
 25 23  1  0  0  0  0
 25 26  2  0  0  0  0
 26 28  1  0  0  0  0
 27 26  1  0  0  0  0
 28 29  2  0  0  0  0
 29 18  1  0  0  0  0
 30 36  1  6  0  0  0
 30 35  1  0  0  0  0
 31 37  1  0  0  0  0
 31 30  1  0  0  0  0
 31 32  1  0  0  0  0
 32 33  1  0  0  0  0
 33 42  1  0  0  0  0
 33 34  1  0  0  0  0
 33 41  1  0  0  0  0
 34 44  1  0  0  0  0
 35 46  1  0  0  0  0
 35 34  1  0  0  0  0
 35 45  1  1  0  0  0
 38 31  1  0  0  0  0
 39 32  1  0  0  0  0
 40 32  1  0  0  0  0
 43 34  1  0  0  0  0
 46 47  1  0  0  0  0
 47 49  1  0  0  0  0
 47 48  2  0  0  0  0
 49 52  1  0  0  0  0
 50 46  1  0  0  0  0
 51 49  1  0  0  0  0
M  END
>  <minimizedAffinity>
-6.51651049

>  <minimizedRMSD>
1.5090965

$$$$
