
 OpenBabel03242523543D

 48 52  0  0  1  0  0  0  0  0999 V2000
   42.7570   34.4970   38.8180 C   0  0  1  0  0  0  0  0  0  0  0  0
   42.9290   35.2500   40.1280 C   0  0  1  0  0  0  0  0  0  0  0  0
   41.6450   35.5840   40.6140 O   0  0  0  0  0  0  0  0  0  0  0  0
   40.7470   35.9010   39.5890 C   0  0  0  0  0  0  0  0  0  0  0  0
   40.3840   34.6820   38.7610 C   0  0  2  0  0  0  0  0  0  0  0  0
   41.5400   33.6470   38.9820 C   0  0  1  0  0  0  0  0  0  0  0  0
   43.6700   33.8710   38.6580 H   0  0  0  0  0  0  0  0  0  0  0  0
   43.5540   36.1540   40.0220 H   0  0  0  0  0  0  0  0  0  0  0  0
   39.8360   36.2360   40.0930 H   0  0  0  0  0  0  0  0  0  0  0  0
   41.1160   36.7330   38.9600 H   0  0  0  0  0  0  0  0  0  0  0  0
   39.4310   34.2160   39.0540 H   0  0  0  0  0  0  0  0  0  0  0  0
   41.3060   33.4750   40.0850 H   0  0  0  0  0  0  0  0  0  0  0  0
   42.6030   35.3920   37.7460 O   0  0  0  0  0  0  0  0  0  0  0  0
   42.7730   34.8760   36.9090 H   0  0  0  0  0  0  0  0  0  0  0  0
   40.4360   35.0030   37.4140 O   0  0  0  0  0  0  0  0  0  0  0  0
   39.9070   34.3380   36.9330 H   0  0  0  0  0  0  0  0  0  0  0  0
   43.4000   34.3050   41.0410 O   0  0  0  0  0  0  0  0  0  0  0  0
   44.5270   34.4170   41.7560 C   0  0  0  0  0  0  0  0  0  0  0  0
   45.7770   34.4880   41.1230 C   0  0  0  0  0  0  0  0  0  0  0  0
   46.9100   34.6050   41.9100 C   0  0  0  0  0  0  0  0  0  0  0  0
   46.7770   34.6490   43.2880 N   0  0  0  0  0  0  0  0  0  0  0  0
   45.5550   34.5780   43.8600 C   0  0  0  0  0  0  0  0  0  0  0  0
   44.4370   34.4630   43.1000 N   0  0  0  0  0  0  0  0  0  0  0  0
   45.8670   34.4520   40.0450 H   0  0  0  0  0  0  0  0  0  0  0  0
   45.5190   34.6170   44.9450 H   0  0  0  0  0  0  0  0  0  0  0  0
   48.2810   34.6740   41.2980 C   0  0  0  0  0  0  0  0  0  0  0  0
   49.0410   35.9840   41.4900 C   0  0  0  0  0  0  0  0  0  0  0  0
   49.4470   34.6440   42.1280 C   0  0  0  0  0  0  0  0  0  0  0  0
   48.2630   34.3880   40.2180 H   0  0  0  0  0  0  0  0  0  0  0  0
   48.6170   36.6960   42.2520 H   0  0  0  0  0  0  0  0  0  0  0  0
   49.6590   36.3790   40.6870 H   0  0  0  0  0  0  0  0  0  0  0  0
   50.4100   34.2510   41.7320 H   0  0  0  0  0  0  0  0  0  0  0  0
   49.3520   34.5150   43.2100 H   0  0  0  0  0  0  0  0  0  0  0  0
   41.3580   32.6470   38.1060 O   0  0  0  0  0  0  0  0  0  0  0  0
   41.0060   31.3700   38.2720 C   0  0  0  0  0  0  0  0  0  0  0  0
   40.7030   30.5860   37.2430 O   0  0  0  0  0  0  0  0  0  0  0  0
   42.0480   28.7330   39.0690 H   0  0  0  0  0  0  0  0  0  0  0  0
   41.4430   29.3340   39.6380 N   0  0  0  0  0  0  0  0  0  0  0  0
   40.8630   30.5050   39.5090 C   0  0  0  0  0  0  0  0  0  0  0  0
   40.1750   30.7310   40.6730 N   0  0  0  0  0  0  0  0  0  0  0  0
   40.3290   29.7090   41.5090 C   0  0  0  0  0  0  0  0  0  0  0  0
   39.8010   29.5560   42.7720 C   0  0  0  0  0  0  0  0  0  0  0  0
   39.1730   30.2770   43.2520 H   0  0  0  0  0  0  0  0  0  0  0  0
   40.1320   28.3960   43.4030 N   0  0  0  0  0  0  0  0  0  0  0  0
   40.9240   27.4830   42.8000 C   0  0  0  0  0  0  0  0  0  0  0  0
   41.2190   26.5460   43.2510 H   0  0  0  0  0  0  0  0  0  0  0  0
   41.3970   27.7130   41.5670 N   0  0  0  0  0  0  0  0  0  0  0  0
   41.1370   28.8080   40.8620 C   0  0  0  0  0  0  0  0  0  0  0  0
  1  7  1  6  0  0  0
  1  6  1  0  0  0  0
  1  2  1  0  0  0  0
  2  8  1  6  0  0  0
  2  3  1  0  0  0  0
  2 17  1  0  0  0  0
  4  9  1  0  0  0  0
  4  3  1  0  0  0  0
  5  6  1  0  0  0  0
  5 11  1  1  0  0  0
  5  4  1  0  0  0  0
  6 12  1  1  0  0  0
 10  4  1  0  0  0  0
 13  1  1  0  0  0  0
 14 13  1  0  0  0  0
 15  5  1  0  0  0  0
 16 15  1  0  0  0  0
 17 18  1  0  0  0  0
 18 23  1  0  0  0  0
 19 18  2  0  0  0  0
 19 20  1  0  0  0  0
 20 21  2  0  0  0  0
 21 22  1  0  0  0  0
 22 25  1  0  0  0  0
 23 22  2  0  0  0  0
 24 19  1  0  0  0  0
 26 27  1  0  0  0  0
 26 20  1  0  0  0  0
 26 28  1  0  0  0  0
 27 28  1  0  0  0  0
 27 30  1  0  0  0  0
 28 33  1  0  0  0  0
 29 26  1  0  0  0  0
 31 27  1  0  0  0  0
 32 28  1  0  0  0  0
 34 35  1  0  0  0  0
 34  6  1  0  0  0  0
 35 39  1  0  0  0  0
 36 35  2  0  0  0  0
 37 38  1  0  0  0  0
 38 48  1  0  0  0  0
 39 38  1  0  0  0  0
 39 40  2  0  0  0  0
 40 41  1  0  0  0  0
 41 42  1  0  0  0  0
 42 43  1  0  0  0  0
 42 44  2  0  0  0  0
 45 46  1  0  0  0  0
 45 44  1  0  0  0  0
 47 45  2  0  0  0  0
 48 41  2  0  0  0  0
 48 47  1  0  0  0  0
M  END
>  <minimizedAffinity>
-6.18515873

>  <minimizedRMSD>
1.95835757

$$$$
