
 OpenBabel03242519403D

 30 32  0  0  0  0  0  0  0  0999 V2000
   36.3720   31.2470   40.9960 O   0  0  0  0  0  0  0  0  0  0  0  0
   37.8570   31.2080   40.6620 P   0  0  2  0  0  0  0  0  0  0  0  0
   38.6500   30.1330   41.7500 O   0  0  0  0  0  0  0  0  0  0  0  0
   36.8580   27.5620   43.6540 C   0  0  0  0  0  0  0  0  0  0  0  0
   37.4760   28.8020   43.3310 C   0  0  0  0  0  0  0  0  0  0  0  0
   38.0470   28.9200   42.0640 C   0  0  0  0  0  0  0  0  0  0  0  0
   37.9880   27.8700   41.2160 N   0  0  0  0  0  0  0  0  0  0  0  0
   37.3940   26.7050   41.5510 C   0  0  0  0  0  0  0  0  0  0  0  0
   36.8280   26.5440   42.7650 N   0  0  0  0  0  0  0  0  0  0  0  0
   36.4310   27.5140   44.6390 H   0  0  0  0  0  0  0  0  0  0  0  0
   37.4850   29.5960   44.0590 H   0  0  0  0  0  0  0  0  0  0  0  0
   37.3400   25.8620   40.8860 H   0  0  0  0  0  0  0  0  0  0  0  0
   38.5840   32.7030   40.7510 O   0  0  0  0  0  0  0  0  0  0  0  0
   39.2990   33.0970   38.0230 H   0  0  0  0  0  0  0  0  0  0  0  0
   39.9640   33.1960   38.7950 N   0  0  0  0  0  0  0  0  0  0  0  0
   39.7830   33.0440   40.1270 C   0  0  0  0  0  0  0  0  0  0  0  0
   40.9670   33.2790   40.7540 N   0  0  0  0  0  0  0  0  0  0  0  0
   41.9020   33.5780   39.8450 C   0  0  0  0  0  0  0  0  0  0  0  0
   43.2380   33.9020   39.8340 C   0  0  0  0  0  0  0  0  0  0  0  0
   43.6920   33.9320   40.8310 H   0  0  0  0  0  0  0  0  0  0  0  0
   43.9350   34.1630   38.6940 N   0  0  0  0  0  0  0  0  0  0  0  0
   43.2840   34.1020   37.4970 C   0  0  0  0  0  0  0  0  0  0  0  0
   43.8380   34.3090   36.5910 H   0  0  0  0  0  0  0  0  0  0  0  0
   41.9790   33.7860   37.5010 N   0  0  0  0  0  0  0  0  0  0  0  0
   41.2570   33.5230   38.6040 C   0  0  0  0  0  0  0  0  0  0  0  0
   38.0130   30.5540   39.1110 O   0  0  0  0  0  0  0  0  0  0  0  0
   37.0730   31.0560   38.2290 C   0  0  0  0  0  0  0  0  0  0  0  0
   35.8810   30.3410   38.2390 F   0  0  0  0  0  0  0  0  0  0  0  0
   36.8830   32.3950   38.4420 F   0  0  0  0  0  0  0  0  0  0  0  0
   37.6030   30.8970   36.9590 F   0  0  0  0  0  0  0  0  0  0  0  0
  2 13  1  0  0  0  0
  2  1  2  1  0  0  0
  2  3  1  0  0  0  0
  3  6  1  0  0  0  0
  4 10  1  0  0  0  0
  5  4  1  0  0  0  0
  5 11  1  0  0  0  0
  6  5  2  0  0  0  0
  7  8  2  0  0  0  0
  7  6  1  0  0  0  0
  8  9  1  0  0  0  0
  9  4  2  0  0  0  0
 12  8  1  0  0  0  0
 14 15  1  0  0  0  0
 15 16  1  0  0  0  0
 16 13  1  0  0  0  0
 16 17  2  0  0  0  0
 18 17  1  0  0  0  0
 19 18  1  0  0  0  0
 19 20  1  0  0  0  0
 21 19  2  0  0  0  0
 22 24  2  0  0  0  0
 22 21  1  0  0  0  0
 23 22  1  0  0  0  0
 24 25  1  0  0  0  0
 25 15  1  0  0  0  0
 25 18  2  0  0  0  0
 26  2  1  0  0  0  0
 27 28  1  0  0  0  0
 27 29  1  0  0  0  0
 27 26  1  0  0  0  0
 30 27  1  0  0  0  0
M  END
>  <minimizedAffinity>
-5.42582083

$$$$

 OpenBabel03242519403D

 30 32  0  0  0  0  0  0  0  0999 V2000
   34.6110   29.1010   39.9050 O   0  0  0  0  0  0  0  0  0  0  0  0
   35.9640   29.1810   40.5990 P   0  0  2  0  0  0  0  0  0  0  0  0
   36.0310   27.9860   41.8380 O   0  0  0  0  0  0  0  0  0  0  0  0
   39.3340   27.4680   43.3440 C   0  0  0  0  0  0  0  0  0  0  0  0
   38.0860   28.0730   43.0300 C   0  0  0  0  0  0  0  0  0  0  0  0
   37.2520   27.3930   42.1430 C   0  0  0  0  0  0  0  0  0  0  0  0
   37.6610   26.2120   41.6310 N   0  0  0  0  0  0  0  0  0  0  0  0
   38.8530   25.6630   41.9470 C   0  0  0  0  0  0  0  0  0  0  0  0
   39.6930   26.2820   42.8010 N   0  0  0  0  0  0  0  0  0  0  0  0
   39.9450   28.0240   44.0310 H   0  0  0  0  0  0  0  0  0  0  0  0
   37.8260   29.0180   43.4780 H   0  0  0  0  0  0  0  0  0  0  0  0
   39.1900   24.7240   41.5470 H   0  0  0  0  0  0  0  0  0  0  0  0
   36.2650   30.6750   41.2700 O   0  0  0  0  0  0  0  0  0  0  0  0
   36.7170   33.2860   40.2290 H   0  0  0  0  0  0  0  0  0  0  0  0
   37.4710   32.6730   40.5480 N   0  0  0  0  0  0  0  0  0  0  0  0
   37.4220   31.4220   41.0610 C   0  0  0  0  0  0  0  0  0  0  0  0
   38.6910   31.0180   41.3380 N   0  0  0  0  0  0  0  0  0  0  0  0
   39.5500   31.9890   41.0100 C   0  0  0  0  0  0  0  0  0  0  0  0
   40.9100   32.1940   41.0440 C   0  0  0  0  0  0  0  0  0  0  0  0
   41.4740   31.3430   41.4440 H   0  0  0  0  0  0  0  0  0  0  0  0
   41.5040   33.3430   40.6200 N   0  0  0  0  0  0  0  0  0  0  0  0
   40.7200   34.3480   40.1360 C   0  0  0  0  0  0  0  0  0  0  0  0
   41.1920   35.2620   39.7990 H   0  0  0  0  0  0  0  0  0  0  0  0
   39.3920   34.1550   40.1000 N   0  0  0  0  0  0  0  0  0  0  0  0
   38.7690   33.0360   40.5100 C   0  0  0  0  0  0  0  0  0  0  0  0
   37.1460   28.7840   39.4570 O   0  0  0  0  0  0  0  0  0  0  0  0
   36.8650   29.3000   38.2050 C   0  0  0  0  0  0  0  0  0  0  0  0
   36.2320   30.5370   38.2570 F   0  0  0  0  0  0  0  0  0  0  0  0
   37.9940   29.3220   37.4310 F   0  0  0  0  0  0  0  0  0  0  0  0
   35.9600   28.4330   37.6170 F   0  0  0  0  0  0  0  0  0  0  0  0
  2  1  2  6  0  0  0
  2 13  1  0  0  0  0
  2  3  1  0  0  0  0
  3  6  1  0  0  0  0
  4 10  1  0  0  0  0
  5  4  1  0  0  0  0
  5 11  1  0  0  0  0
  6  5  2  0  0  0  0
  7  8  2  0  0  0  0
  7  6  1  0  0  0  0
  8  9  1  0  0  0  0
  9  4  2  0  0  0  0
 12  8  1  0  0  0  0
 14 15  1  0  0  0  0
 15 16  1  0  0  0  0
 16 13  1  0  0  0  0
 16 17  2  0  0  0  0
 18 19  1  0  0  0  0
 18 17  1  0  0  0  0
 19 20  1  0  0  0  0
 21 19  2  0  0  0  0
 22 21  1  0  0  0  0
 23 22  1  0  0  0  0
 24 22  2  0  0  0  0
 24 25  1  0  0  0  0
 25 15  1  0  0  0  0
 25 18  2  0  0  0  0
 26  2  1  0  0  0  0
 27 28  1  0  0  0  0
 27 26  1  0  0  0  0
 29 27  1  0  0  0  0
 30 27  1  0  0  0  0
M  END
>  <minimizedAffinity>
-5.15369225

$$$$

 OpenBabel03242519403D

 30 32  0  0  0  0  0  0  0  0999 V2000
   36.5930   31.6010   40.0130 O   0  0  0  0  0  0  0  0  0  0  0  0
   37.1230   30.6640   38.9360 P   0  0  2  0  0  0  0  0  0  0  0  0
   38.1280   29.4740   39.6730 O   0  0  0  0  0  0  0  0  0  0  0  0
   36.6030   27.7100   42.5030 C   0  0  0  0  0  0  0  0  0  0  0  0
   36.8740   28.1150   41.1670 C   0  0  0  0  0  0  0  0  0  0  0  0
   37.8640   29.0790   40.9800 C   0  0  0  0  0  0  0  0  0  0  0  0
   38.5100   29.5750   42.0580 N   0  0  0  0  0  0  0  0  0  0  0  0
   38.2310   29.1700   43.3150 C   0  0  0  0  0  0  0  0  0  0  0  0
   37.2820   28.2400   43.5460 N   0  0  0  0  0  0  0  0  0  0  0  0
   35.8340   26.9660   42.6020 H   0  0  0  0  0  0  0  0  0  0  0  0
   36.3180   27.6750   40.3550 H   0  0  0  0  0  0  0  0  0  0  0  0
   38.7370   29.5570   44.1810 H   0  0  0  0  0  0  0  0  0  0  0  0
   37.9930   31.4520   37.7560 O   0  0  0  0  0  0  0  0  0  0  0  0
   40.1060   32.1460   35.9780 H   0  0  0  0  0  0  0  0  0  0  0  0
   40.1420   32.3240   36.9860 N   0  0  0  0  0  0  0  0  0  0  0  0
   39.2330   32.0570   37.9510 C   0  0  0  0  0  0  0  0  0  0  0  0
   39.7330   32.4790   39.1440 N   0  0  0  0  0  0  0  0  0  0  0  0
   40.9460   33.0100   38.9570 C   0  0  0  0  0  0  0  0  0  0  0  0
   41.9290   33.5880   39.7250 C   0  0  0  0  0  0  0  0  0  0  0  0
   41.6800   33.6430   40.7910 H   0  0  0  0  0  0  0  0  0  0  0  0
   43.1040   34.0490   39.2140 N   0  0  0  0  0  0  0  0  0  0  0  0
   43.3260   33.9370   37.8740 C   0  0  0  0  0  0  0  0  0  0  0  0
   44.2590   34.3040   37.4670 H   0  0  0  0  0  0  0  0  0  0  0  0
   42.3700   33.3740   37.1170 N   0  0  0  0  0  0  0  0  0  0  0  0
   41.1990   32.9080   37.5840 C   0  0  0  0  0  0  0  0  0  0  0  0
   35.7970   29.8540   38.2690 O   0  0  0  0  0  0  0  0  0  0  0  0
   36.1150   29.2010   37.0920 C   0  0  0  0  0  0  0  0  0  0  0  0
   36.1740   30.0550   35.9960 F   0  0  0  0  0  0  0  0  0  0  0  0
   37.2590   28.4650   37.2460 F   0  0  0  0  0  0  0  0  0  0  0  0
   35.0740   28.3250   36.8360 F   0  0  0  0  0  0  0  0  0  0  0  0
  2  3  1  0  0  0  0
  2  1  2  1  0  0  0
  3  6  1  0  0  0  0
  4 10  1  0  0  0  0
  4  9  1  0  0  0  0
  5  4  2  0  0  0  0
  6  5  1  0  0  0  0
  6  7  2  0  0  0  0
  7  8  1  0  0  0  0
  8  9  2  0  0  0  0
  8 12  1  0  0  0  0
 11  5  1  0  0  0  0
 13 16  1  0  0  0  0
 13  2  1  0  0  0  0
 14 15  1  0  0  0  0
 15 25  1  0  0  0  0
 15 16  1  0  0  0  0
 16 17  2  0  0  0  0
 18 17  1  0  0  0  0
 18 19  1  0  0  0  0
 19 20  1  0  0  0  0
 21 19  2  0  0  0  0
 22 21  1  0  0  0  0
 23 22  1  0  0  0  0
 24 25  1  0  0  0  0
 24 22  2  0  0  0  0
 25 18  2  0  0  0  0
 26  2  1  0  0  0  0
 27 29  1  0  0  0  0
 27 26  1  0  0  0  0
 28 27  1  0  0  0  0
 30 27  1  0  0  0  0
M  END
>  <minimizedAffinity>
-5.14771605

$$$$

 OpenBabel03242519403D

 30 32  0  0  0  0  0  0  0  0999 V2000
   36.2250   31.3440   41.0470 O   0  0  0  0  0  0  0  0  0  0  0  0
   36.5590   29.8620   40.9430 P   0  0  2  0  0  0  0  0  0  0  0  0
   36.9640   29.2670   42.5080 O   0  0  0  0  0  0  0  0  0  0  0  0
   39.5690   26.8390   43.3800 C   0  0  0  0  0  0  0  0  0  0  0  0
   38.8760   28.0750   43.2650 C   0  0  0  0  0  0  0  0  0  0  0  0
   37.6400   28.0570   42.6190 C   0  0  0  0  0  0  0  0  0  0  0  0
   37.1670   26.8860   42.1420 N   0  0  0  0  0  0  0  0  0  0  0  0
   37.8480   25.7270   42.2660 C   0  0  0  0  0  0  0  0  0  0  0  0
   39.0470   25.6950   42.8830 N   0  0  0  0  0  0  0  0  0  0  0  0
   40.5170   26.8990   43.8850 H   0  0  0  0  0  0  0  0  0  0  0  0
   39.3170   28.9720   43.6710 H   0  0  0  0  0  0  0  0  0  0  0  0
   37.4820   24.7880   41.8910 H   0  0  0  0  0  0  0  0  0  0  0  0
   37.8200   29.5500   39.9010 O   0  0  0  0  0  0  0  0  0  0  0  0
   38.7650   32.0060   40.9890 H   0  0  0  0  0  0  0  0  0  0  0  0
   39.0740   31.6390   40.0840 N   0  0  0  0  0  0  0  0  0  0  0  0
   38.7240   30.5040   39.4380 C   0  0  0  0  0  0  0  0  0  0  0  0
   39.4020   30.4510   38.2590 N   0  0  0  0  0  0  0  0  0  0  0  0
   40.1790   31.5340   38.1420 C   0  0  0  0  0  0  0  0  0  0  0  0
   41.0680   32.0490   37.2290 C   0  0  0  0  0  0  0  0  0  0  0  0
   41.1980   31.4220   36.3390 H   0  0  0  0  0  0  0  0  0  0  0  0
   41.7280   33.2260   37.4090 N   0  0  0  0  0  0  0  0  0  0  0  0
   41.5020   33.9380   38.5500 C   0  0  0  0  0  0  0  0  0  0  0  0
   42.0260   34.8740   38.6930 H   0  0  0  0  0  0  0  0  0  0  0  0
   40.6340   33.4400   39.4460 N   0  0  0  0  0  0  0  0  0  0  0  0
   39.9650   32.2830   39.3050 C   0  0  0  0  0  0  0  0  0  0  0  0
   35.1570   29.0570   40.4490 O   0  0  0  0  0  0  0  0  0  0  0  0
   35.0940   28.8980   39.0760 C   0  0  0  0  0  0  0  0  0  0  0  0
   35.5630   30.0060   38.3790 F   0  0  0  0  0  0  0  0  0  0  0  0
   35.7180   27.7390   38.6990 F   0  0  0  0  0  0  0  0  0  0  0  0
   33.7520   28.7860   38.7550 F   0  0  0  0  0  0  0  0  0  0  0  0
  2  1  2  1  0  0  0
  2  3  1  0  0  0  0
  3  6  1  0  0  0  0
  4 10  1  0  0  0  0
  5  4  1  0  0  0  0
  5 11  1  0  0  0  0
  6  5  2  0  0  0  0
  7  8  2  0  0  0  0
  7  6  1  0  0  0  0
  8  9  1  0  0  0  0
  9  4  2  0  0  0  0
 12  8  1  0  0  0  0
 13  2  1  0  0  0  0
 15 14  1  0  0  0  0
 16 13  1  0  0  0  0
 16 15  1  0  0  0  0
 17 16  2  0  0  0  0
 18 17  1  0  0  0  0
 18 25  1  0  0  0  0
 19 21  1  0  0  0  0
 19 18  2  0  0  0  0
 20 19  1  0  0  0  0
 21 22  2  0  0  0  0
 22 23  1  0  0  0  0
 22 24  1  0  0  0  0
 25 24  2  0  0  0  0
 25 15  1  0  0  0  0
 26  2  1  0  0  0  0
 27 26  1  0  0  0  0
 28 27  1  0  0  0  0
 29 27  1  0  0  0  0
 30 27  1  0  0  0  0
M  END
>  <minimizedAffinity>
-5.07320642

$$$$

 OpenBabel03242519403D

 30 32  0  0  0  0  0  0  0  0999 V2000
   34.6700   29.0880   40.0010 O   0  0  0  0  0  0  0  0  0  0  0  0
   36.0250   29.3620   40.6400 P   0  0  2  0  0  0  0  0  0  0  0  0
   36.1680   28.4230   42.0770 O   0  0  0  0  0  0  0  0  0  0  0  0
   38.7320   25.8490   42.5730 C   0  0  0  0  0  0  0  0  0  0  0  0
   37.4820   26.4510   42.2590 C   0  0  0  0  0  0  0  0  0  0  0  0
   37.3910   27.8370   42.3850 C   0  0  0  0  0  0  0  0  0  0  0  0
   38.4750   28.5320   42.7930 N   0  0  0  0  0  0  0  0  0  0  0  0
   39.6490   27.9330   43.0840 C   0  0  0  0  0  0  0  0  0  0  0  0
   39.7860   26.5950   42.9760 N   0  0  0  0  0  0  0  0  0  0  0  0
   38.7590   24.7810   42.4620 H   0  0  0  0  0  0  0  0  0  0  0  0
   36.6600   25.8310   41.9400 H   0  0  0  0  0  0  0  0  0  0  0  0
   40.5190   28.4750   43.4090 H   0  0  0  0  0  0  0  0  0  0  0  0
   36.2560   30.9670   41.0160 O   0  0  0  0  0  0  0  0  0  0  0  0
   38.9400   30.2970   41.6910 H   0  0  0  0  0  0  0  0  0  0  0  0
   38.6770   31.1870   41.2580 N   0  0  0  0  0  0  0  0  0  0  0  0
   37.4630   31.6500   40.8830 C   0  0  0  0  0  0  0  0  0  0  0  0
   37.6200   32.8940   40.3530 N   0  0  0  0  0  0  0  0  0  0  0  0
   38.9130   33.2320   40.3850 C   0  0  0  0  0  0  0  0  0  0  0  0
   39.6890   34.3070   40.0180 C   0  0  0  0  0  0  0  0  0  0  0  0
   39.1190   35.1300   39.5720 H   0  0  0  0  0  0  0  0  0  0  0  0
   41.0390   34.3480   40.1890 N   0  0  0  0  0  0  0  0  0  0  0  0
   41.6630   33.2750   40.7530 C   0  0  0  0  0  0  0  0  0  0  0  0
   42.7360   33.3080   40.8900 H   0  0  0  0  0  0  0  0  0  0  0  0
   40.9110   32.2230   41.1140 N   0  0  0  0  0  0  0  0  0  0  0  0
   39.5780   32.1440   40.9610 C   0  0  0  0  0  0  0  0  0  0  0  0
   37.2130   28.8170   39.5670 O   0  0  0  0  0  0  0  0  0  0  0  0
   36.9930   29.2490   38.2720 C   0  0  0  0  0  0  0  0  0  0  0  0
   36.1000   30.3120   38.1980 F   0  0  0  0  0  0  0  0  0  0  0  0
   38.1810   29.5170   37.6470 F   0  0  0  0  0  0  0  0  0  0  0  0
   36.3880   28.1960   37.6060 F   0  0  0  0  0  0  0  0  0  0  0  0
  2  1  2  6  0  0  0
  2 13  1  0  0  0  0
  2  3  1  0  0  0  0
  3  6  1  0  0  0  0
  4  9  1  0  0  0  0
  5  6  1  0  0  0  0
  5  4  2  0  0  0  0
  6  7  2  0  0  0  0
  7  8  1  0  0  0  0
  8 12  1  0  0  0  0
  9  8  2  0  0  0  0
 10  4  1  0  0  0  0
 11  5  1  0  0  0  0
 15 14  1  0  0  0  0
 16 13  1  0  0  0  0
 16 15  1  0  0  0  0
 17 18  1  0  0  0  0
 17 16  2  0  0  0  0
 18 25  1  0  0  0  0
 19 21  1  0  0  0  0
 19 18  2  0  0  0  0
 20 19  1  0  0  0  0
 21 22  2  0  0  0  0
 22 23  1  0  0  0  0
 22 24  1  0  0  0  0
 25 24  2  0  0  0  0
 25 15  1  0  0  0  0
 26  2  1  0  0  0  0
 27 26  1  0  0  0  0
 28 27  1  0  0  0  0
 29 27  1  0  0  0  0
 30 27  1  0  0  0  0
M  END
>  <minimizedAffinity>
-5.02535439

$$$$

 OpenBabel03242519403D

 30 32  0  0  0  0  0  0  0  0999 V2000
   37.5730   29.3570   38.1930 O   0  0  0  0  0  0  0  0  0  0  0  0
   36.2110   29.2050   38.8580 P   0  0  2  0  0  0  0  0  0  0  0  0
   36.0200   30.4470   40.0360 O   0  0  0  0  0  0  0  0  0  0  0  0
   38.2230   33.3780   40.0730 C   0  0  0  0  0  0  0  0  0  0  0  0
   37.1180   32.5380   39.7650 C   0  0  0  0  0  0  0  0  0  0  0  0
   37.1010   31.2670   40.3390 C   0  0  0  0  0  0  0  0  0  0  0  0
   38.1180   30.8990   41.1480 N   0  0  0  0  0  0  0  0  0  0  0  0
   39.1540   31.7200   41.4230 C   0  0  0  0  0  0  0  0  0  0  0  0
   39.2140   32.9580   40.8920 N   0  0  0  0  0  0  0  0  0  0  0  0
   38.1950   34.3480   39.6110 H   0  0  0  0  0  0  0  0  0  0  0  0
   36.3420   32.9000   39.1090 H   0  0  0  0  0  0  0  0  0  0  0  0
   39.9700   31.4390   42.0660 H   0  0  0  0  0  0  0  0  0  0  0  0
   36.0070   27.7250   39.5930 O   0  0  0  0  0  0  0  0  0  0  0  0
   37.7070   28.8530   41.5800 H   0  0  0  0  0  0  0  0  0  0  0  0
   37.6420   27.8470   41.4050 N   0  0  0  0  0  0  0  0  0  0  0  0
   36.8930   27.1630   40.5100 C   0  0  0  0  0  0  0  0  0  0  0  0
   37.1510   25.8350   40.6550 N   0  0  0  0  0  0  0  0  0  0  0  0
   38.0530   25.6590   41.6280 C   0  0  0  0  0  0  0  0  0  0  0  0
   38.7000   24.6070   42.2310 C   0  0  0  0  0  0  0  0  0  0  0  0
   38.4230   23.6270   41.8250 H   0  0  0  0  0  0  0  0  0  0  0  0
   39.6020   24.7620   43.2390 N   0  0  0  0  0  0  0  0  0  0  0  0
   39.8840   26.0210   43.6790 C   0  0  0  0  0  0  0  0  0  0  0  0
   40.6010   26.1460   44.4800 H   0  0  0  0  0  0  0  0  0  0  0  0
   39.2550   27.0530   43.0950 N   0  0  0  0  0  0  0  0  0  0  0  0
   38.3590   26.9400   42.0980 C   0  0  0  0  0  0  0  0  0  0  0  0
   35.0340   29.4560   37.6710 O   0  0  0  0  0  0  0  0  0  0  0  0
   33.8000   28.9500   38.0360 C   0  0  0  0  0  0  0  0  0  0  0  0
   33.5270   29.1060   39.3900 F   0  0  0  0  0  0  0  0  0  0  0  0
   32.8140   29.4690   37.2390 F   0  0  0  0  0  0  0  0  0  0  0  0
   33.8550   27.5850   37.8130 F   0  0  0  0  0  0  0  0  0  0  0  0
  2  1  2  6  0  0  0
  2 13  1  0  0  0  0
  2  3  1  0  0  0  0
  3  6  1  0  0  0  0
  4  9  1  0  0  0  0
  5  4  2  0  0  0  0
  5  6  1  0  0  0  0
  6  7  2  0  0  0  0
  7  8  1  0  0  0  0
  8 12  1  0  0  0  0
  9  8  2  0  0  0  0
 10  4  1  0  0  0  0
 11  5  1  0  0  0  0
 13 16  1  0  0  0  0
 15 14  1  0  0  0  0
 15 25  1  0  0  0  0
 16 17  2  0  0  0  0
 16 15  1  0  0  0  0
 17 18  1  0  0  0  0
 18 25  2  0  0  0  0
 18 19  1  0  0  0  0
 19 21  2  0  0  0  0
 20 19  1  0  0  0  0
 21 22  1  0  0  0  0
 22 23  1  0  0  0  0
 24 22  2  0  0  0  0
 25 24  1  0  0  0  0
 26 27  1  0  0  0  0
 26  2  1  0  0  0  0
 27 28  1  0  0  0  0
 29 27  1  0  0  0  0
 30 27  1  0  0  0  0
M  END
>  <minimizedAffinity>
-4.9992013

$$$$

 OpenBabel03242519403D

 30 32  0  0  0  0  0  0  0  0999 V2000
   37.8540   29.7550   39.7090 O   0  0  0  0  0  0  0  0  0  0  0  0
   37.0750   30.4720   40.8030 P   0  0  2  0  0  0  0  0  0  0  0  0
   37.5450   32.1290   40.8330 O   0  0  0  0  0  0  0  0  0  0  0  0
   40.5890   33.8250   39.6930 C   0  0  0  0  0  0  0  0  0  0  0  0
   39.2140   33.4910   39.8270 C   0  0  0  0  0  0  0  0  0  0  0  0
   38.8910   32.4540   40.7030 C   0  0  0  0  0  0  0  0  0  0  0  0
   39.8820   31.8280   41.3720 N   0  0  0  0  0  0  0  0  0  0  0  0
   41.1800   32.1680   41.2240 C   0  0  0  0  0  0  0  0  0  0  0  0
   41.5410   33.1630   40.3890 N   0  0  0  0  0  0  0  0  0  0  0  0
   40.7940   34.6290   39.0080 H   0  0  0  0  0  0  0  0  0  0  0  0
   38.4770   34.0350   39.2600 H   0  0  0  0  0  0  0  0  0  0  0  0
   41.9790   31.6770   41.7510 H   0  0  0  0  0  0  0  0  0  0  0  0
   37.3140   29.8130   42.3130 O   0  0  0  0  0  0  0  0  0  0  0  0
   40.0750   29.9200   43.0010 H   0  0  0  0  0  0  0  0  0  0  0  0
   39.5510   29.0440   42.9250 N   0  0  0  0  0  0  0  0  0  0  0  0
   38.2530   28.8280   42.6120 C   0  0  0  0  0  0  0  0  0  0  0  0
   38.0200   27.4880   42.6370 N   0  0  0  0  0  0  0  0  0  0  0  0
   39.1470   26.8450   42.9610 C   0  0  0  0  0  0  0  0  0  0  0  0
   39.5550   25.5450   43.1460 C   0  0  0  0  0  0  0  0  0  0  0  0
   38.7580   24.8070   42.9920 H   0  0  0  0  0  0  0  0  0  0  0  0
   40.8270   25.2010   43.4870 N   0  0  0  0  0  0  0  0  0  0  0  0
   41.7510   26.1880   43.6580 C   0  0  0  0  0  0  0  0  0  0  0  0
   42.7620   25.9160   43.9290 H   0  0  0  0  0  0  0  0  0  0  0  0
   41.3600   27.4600   43.4790 N   0  0  0  0  0  0  0  0  0  0  0  0
   40.1140   27.8390   43.1420 C   0  0  0  0  0  0  0  0  0  0  0  0
   35.4390   30.4250   40.3770 O   0  0  0  0  0  0  0  0  0  0  0  0
   35.0710   29.2090   39.8300 C   0  0  0  0  0  0  0  0  0  0  0  0
   35.3890   29.1020   38.4810 F   0  0  0  0  0  0  0  0  0  0  0  0
   35.5790   28.1760   40.5720 F   0  0  0  0  0  0  0  0  0  0  0  0
   33.6900   29.1480   39.9030 F   0  0  0  0  0  0  0  0  0  0  0  0
  2  1  2  6  0  0  0
  2  3  1  0  0  0  0
  2 13  1  0  0  0  0
  4  5  2  0  0  0  0
  4  9  1  0  0  0  0
  5  6  1  0  0  0  0
  6  3  1  0  0  0  0
  6  7  2  0  0  0  0
  8  7  1  0  0  0  0
  8 12  1  0  0  0  0
  9  8  2  0  0  0  0
 10  4  1  0  0  0  0
 11  5  1  0  0  0  0
 13 16  1  0  0  0  0
 15 14  1  0  0  0  0
 15 25  1  0  0  0  0
 16 17  2  0  0  0  0
 16 15  1  0  0  0  0
 17 18  1  0  0  0  0
 18 25  2  0  0  0  0
 18 19  1  0  0  0  0
 19 21  2  0  0  0  0
 20 19  1  0  0  0  0
 21 22  1  0  0  0  0
 22 23  1  0  0  0  0
 24 22  2  0  0  0  0
 25 24  1  0  0  0  0
 26  2  1  0  0  0  0
 27 30  1  0  0  0  0
 27 26  1  0  0  0  0
 27 29  1  0  0  0  0
 28 27  1  0  0  0  0
M  END
>  <minimizedAffinity>
-4.98570061

$$$$

 OpenBabel03242519403D

 30 32  0  0  0  0  0  0  0  0999 V2000
   38.5570   28.4630   40.7190 O   0  0  0  0  0  0  0  0  0  0  0  0
   37.8420   29.5880   41.4550 P   0  0  2  0  0  0  0  0  0  0  0  0
   36.5010   30.1130   40.5090 O   0  0  0  0  0  0  0  0  0  0  0  0
   35.9630   28.9510   37.0730 C   0  0  0  0  0  0  0  0  0  0  0  0
   35.8820   29.0190   38.4910 C   0  0  0  0  0  0  0  0  0  0  0  0
   36.5820   30.0470   39.1230 C   0  0  0  0  0  0  0  0  0  0  0  0
   37.2920   30.9160   38.3710 N   0  0  0  0  0  0  0  0  0  0  0  0
   37.3500   30.8260   37.0250 C   0  0  0  0  0  0  0  0  0  0  0  0
   36.6900   29.8490   36.3700 N   0  0  0  0  0  0  0  0  0  0  0  0
   35.4090   28.1440   36.6280 H   0  0  0  0  0  0  0  0  0  0  0  0
   35.2950   28.2900   39.0260 H   0  0  0  0  0  0  0  0  0  0  0  0
   37.9120   31.5100   36.4150 H   0  0  0  0  0  0  0  0  0  0  0  0
   38.8280   30.8920   41.7680 O   0  0  0  0  0  0  0  0  0  0  0  0
   40.0440   30.0650   39.3300 H   0  0  0  0  0  0  0  0  0  0  0  0
   40.0980   31.0230   39.6840 N   0  0  0  0  0  0  0  0  0  0  0  0
   39.5820   31.5670   40.8100 C   0  0  0  0  0  0  0  0  0  0  0  0
   39.9230   32.8840   40.8490 N   0  0  0  0  0  0  0  0  0  0  0  0
   40.6490   33.1890   39.7680 C   0  0  0  0  0  0  0  0  0  0  0  0
   41.2670   34.3000   39.2430 C   0  0  0  0  0  0  0  0  0  0  0  0
   41.1520   35.2000   39.8570 H   0  0  0  0  0  0  0  0  0  0  0  0
   41.9590   34.2870   38.0700 N   0  0  0  0  0  0  0  0  0  0  0  0
   42.0490   33.1180   37.3740 C   0  0  0  0  0  0  0  0  0  0  0  0
   42.5980   33.1070   36.4420 H   0  0  0  0  0  0  0  0  0  0  0  0
   41.4470   32.0300   37.8810 N   0  0  0  0  0  0  0  0  0  0  0  0
   40.7560   32.0030   39.0340 C   0  0  0  0  0  0  0  0  0  0  0  0
   37.2200   28.9440   42.8890 O   0  0  0  0  0  0  0  0  0  0  0  0
   36.8190   27.6280   42.7470 C   0  0  0  0  0  0  0  0  0  0  0  0
   37.8820   26.7320   42.7550 F   0  0  0  0  0  0  0  0  0  0  0  0
   35.8630   27.3150   43.6750 F   0  0  0  0  0  0  0  0  0  0  0  0
   36.2450   27.5270   41.4910 F   0  0  0  0  0  0  0  0  0  0  0  0
  2  1  2  6  0  0  0
  2 13  1  0  0  0  0
  2 26  1  0  0  0  0
  3  2  1  0  0  0  0
  4  5  1  0  0  0  0
  5 11  1  0  0  0  0
  5  6  2  0  0  0  0
  6  3  1  0  0  0  0
  7  6  1  0  0  0  0
  8  7  2  0  0  0  0
  9  8  1  0  0  0  0
  9  4  2  0  0  0  0
 10  4  1  0  0  0  0
 12  8  1  0  0  0  0
 14 15  1  0  0  0  0
 15 16  1  0  0  0  0
 16 17  2  0  0  0  0
 16 13  1  0  0  0  0
 18 17  1  0  0  0  0
 19 18  1  0  0  0  0
 19 20  1  0  0  0  0
 21 19  2  0  0  0  0
 22 24  2  0  0  0  0
 22 21  1  0  0  0  0
 23 22  1  0  0  0  0
 24 25  1  0  0  0  0
 25 15  1  0  0  0  0
 25 18  2  0  0  0  0
 27 28  1  0  0  0  0
 27 26  1  0  0  0  0
 27 29  1  0  0  0  0
 30 27  1  0  0  0  0
M  END
>  <minimizedAffinity>
-4.93688774

$$$$

 OpenBabel03242519403D

 30 32  0  0  0  0  0  0  0  0999 V2000
   36.1940   31.2270   41.0790 O   0  0  0  0  0  0  0  0  0  0  0  0
   37.6660   31.1350   40.6960 P   0  0  2  0  0  0  0  0  0  0  0  0
   38.4880   30.1650   41.8580 O   0  0  0  0  0  0  0  0  0  0  0  0
   36.8660   27.0950   43.0350 C   0  0  0  0  0  0  0  0  0  0  0  0
   37.2020   28.4720   42.9200 C   0  0  0  0  0  0  0  0  0  0  0  0
   38.1620   28.8180   41.9690 C   0  0  0  0  0  0  0  0  0  0  0  0
   38.7180   27.8460   41.2140 N   0  0  0  0  0  0  0  0  0  0  0  0
   38.3780   26.5460   41.3460 C   0  0  0  0  0  0  0  0  0  0  0  0
   37.4550   26.1630   42.2510 N   0  0  0  0  0  0  0  0  0  0  0  0
   36.1230   26.8720   43.7790 H   0  0  0  0  0  0  0  0  0  0  0  0
   36.7160   29.1920   43.5580 H   0  0  0  0  0  0  0  0  0  0  0  0
   38.8140   25.7630   40.7510 H   0  0  0  0  0  0  0  0  0  0  0  0
   38.4100   32.6220   40.6070 O   0  0  0  0  0  0  0  0  0  0  0  0
   40.3960   31.7210   42.4370 H   0  0  0  0  0  0  0  0  0  0  0  0
   40.6050   32.3220   41.6360 N   0  0  0  0  0  0  0  0  0  0  0  0
   39.7850   32.8290   40.6880 C   0  0  0  0  0  0  0  0  0  0  0  0
   40.5290   33.5760   39.8270 N   0  0  0  0  0  0  0  0  0  0  0  0
   41.8110   33.5540   40.2100 C   0  0  0  0  0  0  0  0  0  0  0  0
   43.0050   34.0820   39.7820 C   0  0  0  0  0  0  0  0  0  0  0  0
   42.9170   34.6980   38.8790 H   0  0  0  0  0  0  0  0  0  0  0  0
   44.1900   33.8650   40.4170 N   0  0  0  0  0  0  0  0  0  0  0  0
   44.2030   33.0850   41.5350 C   0  0  0  0  0  0  0  0  0  0  0  0
   45.1440   32.9110   42.0390 H   0  0  0  0  0  0  0  0  0  0  0  0
   43.0390   32.5650   41.9580 N   0  0  0  0  0  0  0  0  0  0  0  0
   41.8510   32.7560   41.3590 C   0  0  0  0  0  0  0  0  0  0  0  0
   37.7560   30.3260   39.2150 O   0  0  0  0  0  0  0  0  0  0  0  0
   37.7130   31.1910   38.1360 C   0  0  0  0  0  0  0  0  0  0  0  0
   36.9410   32.3220   38.3780 F   0  0  0  0  0  0  0  0  0  0  0  0
   38.9800   31.5010   37.7190 F   0  0  0  0  0  0  0  0  0  0  0  0
   37.0800   30.5090   37.1110 F   0  0  0  0  0  0  0  0  0  0  0  0
  2  1  2  1  0  0  0
  2  3  1  0  0  0  0
  3  6  1  0  0  0  0
  4 10  1  0  0  0  0
  5  4  1  0  0  0  0
  5 11  1  0  0  0  0
  6  5  2  0  0  0  0
  7  8  2  0  0  0  0
  7  6  1  0  0  0  0
  8  9  1  0  0  0  0
  9  4  2  0  0  0  0
 12  8  1  0  0  0  0
 13 16  1  0  0  0  0
 13  2  1  0  0  0  0
 15 14  1  0  0  0  0
 16 15  1  0  0  0  0
 17 18  1  0  0  0  0
 17 16  2  0  0  0  0
 18 25  1  0  0  0  0
 19 18  2  0  0  0  0
 19 21  1  0  0  0  0
 20 19  1  0  0  0  0
 21 22  2  0  0  0  0
 22 24  1  0  0  0  0
 22 23  1  0  0  0  0
 25 15  1  0  0  0  0
 25 24  2  0  0  0  0
 26  2  1  0  0  0  0
 27 28  1  0  0  0  0
 27 26  1  0  0  0  0
 29 27  1  0  0  0  0
 30 27  1  0  0  0  0
M  END
>  <minimizedAffinity>
-4.87717962

$$$$
