
 OpenBabel03252508263D

 44 49  0  0  1  0  0  0  0  0999 V2000
   46.1810   32.3590   45.6110 C   0  0  1  0  0  0  0  0  0  0  0  0
   46.7340   32.7160   46.9270 C   0  0  0  0  0  0  0  0  0  0  0  0
   45.3540   31.9760   46.7350 C   0  0  2  0  0  0  0  0  0  0  0  0
   46.9850   31.7040   45.1160 H   0  0  0  0  0  0  0  0  0  0  0  0
   47.4890   32.1440   47.4780 H   0  0  0  0  0  0  0  0  0  0  0  0
   46.6300   33.7770   47.2070 H   0  0  0  0  0  0  0  0  0  0  0  0
   44.6060   32.6650   47.2420 H   0  0  0  0  0  0  0  0  0  0  0  0
   45.1850   30.6110   47.2420 C   0  0  0  0  0  0  0  0  0  0  0  0
   45.1370   30.2080   48.5390 C   0  0  0  0  0  0  0  0  0  0  0  0
   45.0990   28.8920   48.9780 C   0  0  0  0  0  0  0  0  0  0  0  0
   45.1140   27.9010   47.9860 C   0  0  0  0  0  0  0  0  0  0  0  0
   45.1610   28.2860   46.6460 C   0  0  0  0  0  0  0  0  0  0  0  0
   45.1100   27.2780   45.7030 C   0  0  0  0  0  0  0  0  0  0  0  0
   45.0820   27.6190   44.3560 C   0  0  0  0  0  0  0  0  0  0  0  0
   45.1010   28.9390   43.9620 C   0  0  0  0  0  0  0  0  0  0  0  0
   45.1520   29.9040   44.9410 C   0  0  0  0  0  0  0  0  0  0  0  0
   45.1910   29.6150   46.2970 C   0  0  0  0  0  0  0  0  0  0  0  0
   45.1280   31.0100   49.2740 H   0  0  0  0  0  0  0  0  0  0  0  0
   45.0610   28.6440   50.0310 H   0  0  0  0  0  0  0  0  0  0  0  0
   45.0890   26.8680   48.3110 H   0  0  0  0  0  0  0  0  0  0  0  0
   45.0940   26.2490   46.0370 H   0  0  0  0  0  0  0  0  0  0  0  0
   45.0450   26.7380   43.6930 H   0  0  0  0  0  0  0  0  0  0  0  0
   45.0700   29.0000   42.8920 H   0  0  0  0  0  0  0  0  0  0  0  0
   45.0720   30.8070   44.4090 H   0  0  0  0  0  0  0  0  0  0  0  0
   44.8590   35.5590   44.3340 C   0  0  0  0  0  0  0  0  0  0  0  0
   44.7610   35.3050   42.9190 C   0  0  0  0  0  0  0  0  0  0  0  0
   45.1740   34.0140   42.4500 C   0  0  0  0  0  0  0  0  0  0  0  0
   45.6270   33.1130   43.3240 N   0  0  0  0  0  0  0  0  0  0  0  0
   45.6980   33.4120   44.6700 C   0  0  0  0  0  0  0  0  0  0  0  0
   45.3280   34.5930   45.1530 N   0  0  0  0  0  0  0  0  0  0  0  0
   44.5330   36.5440   44.6100 H   0  0  0  0  0  0  0  0  0  0  0  0
   44.3870   36.0750   42.2590 H   0  0  0  0  0  0  0  0  0  0  0  0
   45.0790   33.7550   41.0520 N   0  0  0  0  0  0  0  0  0  0  0  0
   43.9800   33.5940   40.2890 C   0  0  0  0  0  0  0  0  0  0  0  0
   42.9820   33.6520   40.7110 H   0  0  0  0  0  0  0  0  0  0  0  0
   44.2920   33.3640   39.0050 N   0  0  0  0  0  0  0  0  0  0  0  0
   45.6440   33.3730   38.9180 C   0  0  0  0  0  0  0  0  0  0  0  0
   46.5600   33.2030   37.8990 C   0  0  0  0  0  0  0  0  0  0  0  0
   46.1820   33.0100   36.8870 H   0  0  0  0  0  0  0  0  0  0  0  0
   47.8900   33.2740   38.1530 N   0  0  0  0  0  0  0  0  0  0  0  0
   48.3440   33.5140   39.4090 C   0  0  0  0  0  0  0  0  0  0  0  0
   49.4080   33.5720   39.6150 H   0  0  0  0  0  0  0  0  0  0  0  0
   47.4570   33.6850   40.4290 N   0  0  0  0  0  0  0  0  0  0  0  0
   46.1410   33.6190   40.2040 C   0  0  0  0  0  0  0  0  0  0  0  0
  1  4  1  6  0  0  0
  1  3  1  0  0  0  0
  1  2  1  0  0  0  0
  2  6  1  0  0  0  0
  2  5  1  0  0  0  0
  3  2  1  0  0  0  0
  3  8  1  0  0  0  0
  3  7  1  1  0  0  0
  8  9  1  0  0  0  0
  9 10  2  0  0  0  0
  9 18  1  0  0  0  0
 10 19  1  0  0  0  0
 11 20  1  0  0  0  0
 11 10  1  0  0  0  0
 12 11  2  0  0  0  0
 13 21  1  0  0  0  0
 13 12  1  0  0  0  0
 14 13  2  0  0  0  0
 15 14  1  0  0  0  0
 15 16  2  0  0  0  0
 16 17  1  0  0  0  0
 17 12  1  0  0  0  0
 17  8  2  0  0  0  0
 22 14  1  0  0  0  0
 23 15  1  0  0  0  0
 24 16  1  0  0  0  0
 25 31  1  0  0  0  0
 25 30  1  0  0  0  0
 26 25  2  0  0  0  0
 27 26  1  0  0  0  0
 27 28  2  0  0  0  0
 28 29  1  0  0  0  0
 29 30  2  0  0  0  0
 29  1  1  0  0  0  0
 32 26  1  0  0  0  0
 33 27  1  0  0  0  0
 34 35  1  0  0  0  0
 34 33  1  0  0  0  0
 36 34  2  0  0  0  0
 37 36  1  0  0  0  0
 37 44  1  0  0  0  0
 38 40  1  0  0  0  0
 38 37  2  0  0  0  0
 39 38  1  0  0  0  0
 40 41  2  0  0  0  0
 41 42  1  0  0  0  0
 41 43  1  0  0  0  0
 44 43  2  0  0  0  0
 44 33  1  0  0  0  0
M  END
>  <minimizedAffinity>
-4.96801043

>  <minimizedRMSD>
2.1181438

$$$$
