
 OpenBabel03252502013D

 37 41  0  0  0  0  0  0  0  0999 V2000
   47.4880   32.2830   48.2410 C   0  0  0  0  0  0  0  0  0  0  0  0
   47.4100   30.9090   48.1630 C   0  0  0  0  0  0  0  0  0  0  0  0
   46.8550   30.4040   47.0240 C   0  0  0  0  0  0  0  0  0  0  0  0
   46.4210   31.2230   46.0540 N   0  0  0  0  0  0  0  0  0  0  0  0
   46.5000   32.5530   46.1390 C   0  0  0  0  0  0  0  0  0  0  0  0
   47.0400   33.0440   47.2470 N   0  0  0  0  0  0  0  0  0  0  0  0
   47.9360   32.6870   49.1600 H   0  0  0  0  0  0  0  0  0  0  0  0
   46.7210   29.0300   46.8260 N   0  0  0  0  0  0  0  0  0  0  0  0
   47.6320   28.0420   46.9080 C   0  0  0  0  0  0  0  0  0  0  0  0
   48.6760   28.1780   47.1560 H   0  0  0  0  0  0  0  0  0  0  0  0
   47.0510   26.8580   46.6340 N   0  0  0  0  0  0  0  0  0  0  0  0
   45.7480   27.0680   46.3700 C   0  0  0  0  0  0  0  0  0  0  0  0
   44.7200   26.2090   46.0380 C   0  0  0  0  0  0  0  0  0  0  0  0
   44.9290   25.1450   45.9540 H   0  0  0  0  0  0  0  0  0  0  0  0
   43.5110   26.7630   45.8370 N   0  0  0  0  0  0  0  0  0  0  0  0
   43.2910   28.0920   45.9490 C   0  0  0  0  0  0  0  0  0  0  0  0
   42.2840   28.4800   45.7740 H   0  0  0  0  0  0  0  0  0  0  0  0
   44.3050   28.9020   46.2740 N   0  0  0  0  0  0  0  0  0  0  0  0
   45.5520   28.4090   46.4910 C   0  0  0  0  0  0  0  0  0  0  0  0
   46.0940   33.6210   45.2150 C   0  0  0  0  0  0  0  0  0  0  0  0
   45.0750   34.4760   45.4610 N   0  0  0  0  0  0  0  0  0  0  0  0
   44.6760   35.4540   44.6520 C   0  0  0  0  0  0  0  0  0  0  0  0
   45.3120   35.6450   43.4780 N   0  0  0  0  0  0  0  0  0  0  0  0
   46.3450   34.8590   43.1150 C   0  0  0  0  0  0  0  0  0  0  0  0
   46.9940   35.0600   41.9100 C   0  0  0  0  0  0  0  0  0  0  0  0
   48.0450   34.2660   41.5380 C   0  0  0  0  0  0  0  0  0  0  0  0
   48.4250   33.2660   42.4030 C   0  0  0  0  0  0  0  0  0  0  0  0
   47.7580   33.0970   43.5880 C   0  0  0  0  0  0  0  0  0  0  0  0
   46.7020   33.8640   44.0080 C   0  0  0  0  0  0  0  0  0  0  0  0
   43.8450   36.0800   44.9510 H   0  0  0  0  0  0  0  0  0  0  0  0
   46.6730   35.8550   41.2470 H   0  0  0  0  0  0  0  0  0  0  0  0
   48.5840   34.3800   40.6100 H   0  0  0  0  0  0  0  0  0  0  0  0
   49.2480   32.6100   42.1580 H   0  0  0  0  0  0  0  0  0  0  0  0
   48.0980   32.2880   44.2420 H   0  0  0  0  0  0  0  0  0  0  0  0
   47.8840   30.1010   49.2120 N   0  0  0  0  0  0  0  0  0  0  0  0
   47.2610   29.7440   49.9680 H   0  0  0  0  0  0  0  0  0  0  0  0
   48.8670   29.7620   49.3800 H   0  0  0  0  0  0  0  0  0  0  0  0
  1  7  1  0  0  0  0
  2  1  1  0  0  0  0
  2 35  1  0  0  0  0
  3  2  2  0  0  0  0
  4  5  2  0  0  0  0
  4  3  1  0  0  0  0
  5  6  1  0  0  0  0
  6  1  2  0  0  0  0
  8  9  1  0  0  0  0
  8  3  1  0  0  0  0
  9 10  1  0  0  0  0
 11  9  2  0  0  0  0
 12 19  1  0  0  0  0
 12 11  1  0  0  0  0
 13 12  2  0  0  0  0
 14 13  1  0  0  0  0
 15 16  2  0  0  0  0
 15 13  1  0  0  0  0
 16 18  1  0  0  0  0
 17 16  1  0  0  0  0
 18 19  2  0  0  0  0
 19  8  1  0  0  0  0
 20 21  1  0  0  0  0
 20  5  1  0  0  0  0
 22 30  1  0  0  0  0
 22 21  2  0  0  0  0
 23 22  1  0  0  0  0
 24 23  2  0  0  0  0
 24 29  1  0  0  0  0
 25 24  1  0  0  0  0
 26 25  2  0  0  0  0
 26 27  1  0  0  0  0
 27 28  2  0  0  0  0
 28 29  1  0  0  0  0
 28 34  1  0  0  0  0
 29 20  2  0  0  0  0
 31 25  1  0  0  0  0
 32 26  1  0  0  0  0
 33 27  1  0  0  0  0
 35 37  1  0  0  0  0
 35 36  1  0  0  0  0
M  END
>  <minimizedAffinity>
-6.63624287

>  <minimizedRMSD>
0.996551812

$$$$
