
 OpenBabel03242515593D

 31 34  0  0  0  0  0  0  0  0999 V2000
   44.8410   33.0190   41.1670 Cl  0  0  0  0  0  0  0  0  0  0  0  0
   46.3290   33.8830   40.9420 C   0  0  0  0  0  0  0  0  0  0  0  0
   46.8210   34.6990   41.9070 C   0  0  0  0  0  0  0  0  0  0  0  0
   48.0140   35.3390   41.6230 C   0  0  0  0  0  0  0  0  0  0  0  0
   48.6780   35.1780   40.4450 C   0  0  0  0  0  0  0  0  0  0  0  0
   48.1770   34.3570   39.4800 C   0  0  0  0  0  0  0  0  0  0  0  0
   46.9870   33.7050   39.7390 C   0  0  0  0  0  0  0  0  0  0  0  0
   48.4380   35.9980   42.3720 H   0  0  0  0  0  0  0  0  0  0  0  0
   49.6110   35.7160   40.2930 H   0  0  0  0  0  0  0  0  0  0  0  0
   48.7180   34.2410   38.5500 H   0  0  0  0  0  0  0  0  0  0  0  0
   46.4970   32.8570   38.7020 N   0  0  0  0  0  0  0  0  0  0  0  0
   45.8110   33.3820   37.6660 C   0  0  0  0  0  0  0  0  0  0  0  0
   45.4890   34.3910   37.3660 H   0  0  0  0  0  0  0  0  0  0  0  0
   45.4360   32.4220   36.7970 N   0  0  0  0  0  0  0  0  0  0  0  0
   45.8890   31.2470   37.2800 C   0  0  0  0  0  0  0  0  0  0  0  0
   45.8380   29.9240   36.8730 C   0  0  0  0  0  0  0  0  0  0  0  0
   45.3120   29.7660   35.9440 H   0  0  0  0  0  0  0  0  0  0  0  0
   46.4260   28.9640   37.6370 N   0  0  0  0  0  0  0  0  0  0  0  0
   47.0550   29.3230   38.7900 C   0  0  0  0  0  0  0  0  0  0  0  0
   47.4650   28.4580   39.2770 H   0  0  0  0  0  0  0  0  0  0  0  0
   47.1340   30.6100   39.2380 N   0  0  0  0  0  0  0  0  0  0  0  0
   46.5440   31.5340   38.4600 C   0  0  0  0  0  0  0  0  0  0  0  0
   44.4940   36.0240   44.5820 C   0  0  0  0  0  0  0  0  0  0  0  0
   45.1920   35.9010   43.3710 C   0  0  0  0  0  0  0  0  0  0  0  0
   46.0890   34.8470   43.1480 C   0  0  0  0  0  0  0  0  0  0  0  0
   46.2220   33.9830   44.1700 N   0  0  0  0  0  0  0  0  0  0  0  0
   45.5540   34.1050   45.3250 C   0  0  0  0  0  0  0  0  0  0  0  0
   44.6890   35.1230   45.5370 N   0  0  0  0  0  0  0  0  0  0  0  0
   43.8040   36.8420   44.7410 H   0  0  0  0  0  0  0  0  0  0  0  0
   45.0330   36.6400   42.5870 H   0  0  0  0  0  0  0  0  0  0  0  0
   45.7440   33.3450   46.0770 H   0  0  0  0  0  0  0  0  0  0  0  0
  2  1  1  0  0  0  0
  2  3  1  0  0  0  0
  3 25  1  0  0  0  0
  4  3  2  0  0  0  0
  4  8  1  0  0  0  0
  5  4  1  0  0  0  0
  6  7  1  0  0  0  0
  6  5  2  0  0  0  0
  7  2  2  0  0  0  0
  9  5  1  0  0  0  0
 10  6  1  0  0  0  0
 11  7  1  0  0  0  0
 12 11  1  0  0  0  0
 13 12  1  0  0  0  0
 14 15  1  0  0  0  0
 14 12  2  0  0  0  0
 15 22  1  0  0  0  0
 16 15  2  0  0  0  0
 16 18  1  0  0  0  0
 17 16  1  0  0  0  0
 18 19  2  0  0  0  0
 19 21  1  0  0  0  0
 19 20  1  0  0  0  0
 22 11  1  0  0  0  0
 22 21  2  0  0  0  0
 23 29  1  0  0  0  0
 23 28  1  0  0  0  0
 24 23  2  0  0  0  0
 25 24  1  0  0  0  0
 25 26  2  0  0  0  0
 26 27  1  0  0  0  0
 27 28  2  0  0  0  0
 27 31  1  0  0  0  0
 30 24  1  0  0  0  0
M  END
>  <minimizedAffinity>
-5.40696383

>  <minimizedRMSD>
0.340166211

$$$$
