
 OpenBabel03242523563D

 48 52  0  0  1  0  0  0  0  0999 V2000
   37.1310   30.6680   41.6430 C   0  0  1  0  0  0  0  0  0  0  0  0
   37.3100   29.1940   41.3110 C   0  0  1  0  0  0  0  0  0  0  0  0
   37.6990   29.0940   39.9560 O   0  0  0  0  0  0  0  0  0  0  0  0
   37.0820   30.0550   39.1480 C   0  0  0  0  0  0  0  0  0  0  0  0
   37.5950   31.4530   39.4440 C   0  0  2  0  0  0  0  0  0  0  0  0
   38.1940   31.3980   40.8900 C   0  0  1  0  0  0  0  0  0  0  0  0
   37.2600   30.7900   42.7470 H   0  0  0  0  0  0  0  0  0  0  0  0
   36.4010   28.6000   41.5030 H   0  0  0  0  0  0  0  0  0  0  0  0
   37.3800   29.8090   38.1240 H   0  0  0  0  0  0  0  0  0  0  0  0
   35.9790   29.9980   39.2070 H   0  0  0  0  0  0  0  0  0  0  0  0
   38.3770   31.7940   38.7490 H   0  0  0  0  0  0  0  0  0  0  0  0
   39.0520   30.6990   40.6130 H   0  0  0  0  0  0  0  0  0  0  0  0
   35.8530   31.1110   41.2630 O   0  0  0  0  0  0  0  0  0  0  0  0
   35.6900   31.9720   41.7410 H   0  0  0  0  0  0  0  0  0  0  0  0
   36.5270   32.3320   39.5270 O   0  0  0  0  0  0  0  0  0  0  0  0
   36.8770   33.2340   39.3950 H   0  0  0  0  0  0  0  0  0  0  0  0
   38.4460   28.7900   42.0170 O   0  0  0  0  0  0  0  0  0  0  0  0
   38.7370   27.5260   42.3490 C   0  0  0  0  0  0  0  0  0  0  0  0
   37.9000   26.4680   41.9650 C   0  0  0  0  0  0  0  0  0  0  0  0
   38.2490   25.1810   42.3340 C   0  0  0  0  0  0  0  0  0  0  0  0
   39.4070   24.9760   43.0660 N   0  0  0  0  0  0  0  0  0  0  0  0
   40.1890   26.0210   43.4170 C   0  0  0  0  0  0  0  0  0  0  0  0
   39.8570   27.2880   43.0620 N   0  0  0  0  0  0  0  0  0  0  0  0
   36.9970   26.6420   41.3930 H   0  0  0  0  0  0  0  0  0  0  0  0
   41.0830   25.7930   43.9910 H   0  0  0  0  0  0  0  0  0  0  0  0
   37.3920   24.0030   41.9660 C   0  0  0  0  0  0  0  0  0  0  0  0
   36.5040   24.1720   40.7360 C   0  0  0  0  0  0  0  0  0  0  0  0
   37.7040   23.2110   40.8140 C   0  0  0  0  0  0  0  0  0  0  0  0
   36.7880   23.6460   42.8370 H   0  0  0  0  0  0  0  0  0  0  0  0
   36.7250   25.0620   40.0830 H   0  0  0  0  0  0  0  0  0  0  0  0
   35.5040   23.7450   40.7220 H   0  0  0  0  0  0  0  0  0  0  0  0
   37.4040   22.1410   40.7690 H   0  0  0  0  0  0  0  0  0  0  0  0
   38.6000   23.4230   40.2250 H   0  0  0  0  0  0  0  0  0  0  0  0
   38.4660   32.6580   41.2630 O   0  0  0  0  0  0  0  0  0  0  0  0
   39.1340   33.6420   40.6580 C   0  0  0  0  0  0  0  0  0  0  0  0
   38.5400   34.7720   40.2890 O   0  0  0  0  0  0  0  0  0  0  0  0
   41.6830   33.7010   42.1350 H   0  0  0  0  0  0  0  0  0  0  0  0
   41.5780   33.7800   41.1180 N   0  0  0  0  0  0  0  0  0  0  0  0
   40.5890   33.7880   40.2550 C   0  0  0  0  0  0  0  0  0  0  0  0
   41.1540   33.9320   39.0140 N   0  0  0  0  0  0  0  0  0  0  0  0
   42.4770   34.0110   39.1120 C   0  0  0  0  0  0  0  0  0  0  0  0
   43.3980   34.1590   38.0980 C   0  0  0  0  0  0  0  0  0  0  0  0
   43.1440   34.2310   37.0620 H   0  0  0  0  0  0  0  0  0  0  0  0
   44.6990   34.2110   38.5000 N   0  0  0  0  0  0  0  0  0  0  0  0
   45.0220   34.1220   39.8070 C   0  0  0  0  0  0  0  0  0  0  0  0
   46.0350   34.1580   40.1840 H   0  0  0  0  0  0  0  0  0  0  0  0
   44.0610   33.9790   40.7310 N   0  0  0  0  0  0  0  0  0  0  0  0
   42.7650   33.9170   40.4520 C   0  0  0  0  0  0  0  0  0  0  0  0
  1  7  1  1  0  0  0
  2  8  1  1  0  0  0
  2  1  1  0  0  0  0
  2 17  1  0  0  0  0
  3  2  1  0  0  0  0
  4 10  1  0  0  0  0
  4  5  1  0  0  0  0
  4  3  1  0  0  0  0
  5 11  1  6  0  0  0
  5 15  1  0  0  0  0
  5  6  1  0  0  0  0
  6 12  1  6  0  0  0
  6 34  1  0  0  0  0
  6  1  1  0  0  0  0
  9  4  1  0  0  0  0
 13  1  1  0  0  0  0
 13 14  1  0  0  0  0
 16 15  1  0  0  0  0
 17 18  1  0  0  0  0
 18 23  1  0  0  0  0
 19 20  1  0  0  0  0
 19 18  2  0  0  0  0
 20 21  2  0  0  0  0
 21 22  1  0  0  0  0
 22 25  1  0  0  0  0
 23 22  2  0  0  0  0
 24 19  1  0  0  0  0
 26 20  1  0  0  0  0
 26 29  1  0  0  0  0
 27 28  1  0  0  0  0
 27 26  1  0  0  0  0
 28 26  1  0  0  0  0
 30 27  1  0  0  0  0
 31 27  1  0  0  0  0
 32 28  1  0  0  0  0
 33 28  1  0  0  0  0
 35 34  1  0  0  0  0
 36 35  2  0  0  0  0
 38 37  1  0  0  0  0
 39 35  1  0  0  0  0
 39 38  1  0  0  0  0
 40 41  1  0  0  0  0
 40 39  2  0  0  0  0
 41 48  1  0  0  0  0
 42 44  1  0  0  0  0
 42 41  2  0  0  0  0
 43 42  1  0  0  0  0
 44 45  2  0  0  0  0
 45 46  1  0  0  0  0
 45 47  1  0  0  0  0
 48 47  2  0  0  0  0
 48 38  1  0  0  0  0
M  END
>  <minimizedAffinity>
-6.84017897

$$$$

 OpenBabel03242523563D

 48 52  0  0  1  0  0  0  0  0999 V2000
   37.8820   32.3400   40.5970 C   0  0  1  0  0  0  0  0  0  0  0  0
   37.4220   30.9810   41.1030 C   0  0  1  0  0  0  0  0  0  0  0  0
   37.3410   30.1060   39.9960 O   0  0  0  0  0  0  0  0  0  0  0  0
   36.9010   30.7490   38.8340 C   0  0  0  0  0  0  0  0  0  0  0  0
   37.9390   31.7200   38.3000 C   0  0  2  0  0  0  0  0  0  0  0  0
   38.8700   32.0690   39.5110 C   0  0  1  0  0  0  0  0  0  0  0  0
   38.3580   32.8820   41.4520 H   0  0  0  0  0  0  0  0  0  0  0  0
   36.4580   31.0270   41.6370 H   0  0  0  0  0  0  0  0  0  0  0  0
   36.7830   29.9560   38.0890 H   0  0  0  0  0  0  0  0  0  0  0  0
   35.9170   31.2330   38.9770 H   0  0  0  0  0  0  0  0  0  0  0  0
   38.5550   31.3060   37.4880 H   0  0  0  0  0  0  0  0  0  0  0  0
   39.3040   31.0190   39.6050 H   0  0  0  0  0  0  0  0  0  0  0  0
   36.7940   33.0840   40.1130 O   0  0  0  0  0  0  0  0  0  0  0  0
   37.0910   34.0350   40.0590 H   0  0  0  0  0  0  0  0  0  0  0  0
   37.3250   32.9140   37.9570 O   0  0  0  0  0  0  0  0  0  0  0  0
   37.9190   33.3830   37.3400 H   0  0  0  0  0  0  0  0  0  0  0  0
   38.4920   30.4810   41.8490 O   0  0  0  0  0  0  0  0  0  0  0  0
   38.4880   29.3220   42.5210 C   0  0  0  0  0  0  0  0  0  0  0  0
   39.6110   28.4820   42.5170 C   0  0  0  0  0  0  0  0  0  0  0  0
   39.5520   27.2970   43.2300 C   0  0  0  0  0  0  0  0  0  0  0  0
   38.3960   26.9790   43.9230 N   0  0  0  0  0  0  0  0  0  0  0  0
   37.3350   27.8150   43.9030 C   0  0  0  0  0  0  0  0  0  0  0  0
   37.3790   28.9800   43.2080 N   0  0  0  0  0  0  0  0  0  0  0  0
   40.5090   28.7420   41.9700 H   0  0  0  0  0  0  0  0  0  0  0  0
   36.4580   27.5070   44.4670 H   0  0  0  0  0  0  0  0  0  0  0  0
   40.7150   26.3450   43.2580 C   0  0  0  0  0  0  0  0  0  0  0  0
   40.3750   24.8600   43.1670 C   0  0  0  0  0  0  0  0  0  0  0  0
   41.1110   25.6500   42.0710 C   0  0  0  0  0  0  0  0  0  0  0  0
   41.3830   26.5390   44.1330 H   0  0  0  0  0  0  0  0  0  0  0  0
   39.3200   24.6110   42.8630 H   0  0  0  0  0  0  0  0  0  0  0  0
   40.9410   24.1340   43.7450 H   0  0  0  0  0  0  0  0  0  0  0  0
   42.1660   25.3220   41.9370 H   0  0  0  0  0  0  0  0  0  0  0  0
   40.6070   25.8470   41.1220 H   0  0  0  0  0  0  0  0  0  0  0  0
   39.6660   33.0790   39.1290 O   0  0  0  0  0  0  0  0  0  0  0  0
   40.7060   33.6680   39.7220 C   0  0  0  0  0  0  0  0  0  0  0  0
   41.1260   34.8780   39.3660 O   0  0  0  0  0  0  0  0  0  0  0  0
   40.6410   31.4730   41.6860 H   0  0  0  0  0  0  0  0  0  0  0  0
   41.3770   32.1820   41.6040 N   0  0  0  0  0  0  0  0  0  0  0  0
   41.6240   33.2250   40.8460 C   0  0  0  0  0  0  0  0  0  0  0  0
   42.8130   33.7520   41.2770 N   0  0  0  0  0  0  0  0  0  0  0  0
   43.2960   33.0390   42.2910 C   0  0  0  0  0  0  0  0  0  0  0  0
   44.4620   33.2440   42.9950 C   0  0  0  0  0  0  0  0  0  0  0  0
   45.1500   34.0390   42.8000 H   0  0  0  0  0  0  0  0  0  0  0  0
   44.7020   32.3480   43.9920 N   0  0  0  0  0  0  0  0  0  0  0  0
   43.8350   31.3440   44.2410 C   0  0  0  0  0  0  0  0  0  0  0  0
   43.9730   30.6040   45.0180 H   0  0  0  0  0  0  0  0  0  0  0  0
   42.7210   31.2170   43.5060 N   0  0  0  0  0  0  0  0  0  0  0  0
   42.3890   32.0330   42.5130 C   0  0  0  0  0  0  0  0  0  0  0  0
  1  2  1  0  0  0  0
  1  7  1  1  0  0  0
  2  8  1  1  0  0  0
  2 17  1  0  0  0  0
  3  2  1  0  0  0  0
  4 10  1  0  0  0  0
  4  3  1  0  0  0  0
  5 11  1  6  0  0  0
  5  4  1  0  0  0  0
  5  6  1  0  0  0  0
  6 12  1  1  0  0  0
  6  1  1  0  0  0  0
  9  4  1  0  0  0  0
 13  1  1  0  0  0  0
 14 13  1  0  0  0  0
 15  5  1  0  0  0  0
 16 15  1  0  0  0  0
 17 18  1  0  0  0  0
 18 23  1  0  0  0  0
 19 18  2  0  0  0  0
 19 20  1  0  0  0  0
 20 26  1  0  0  0  0
 20 21  2  0  0  0  0
 22 21  1  0  0  0  0
 22 25  1  0  0  0  0
 23 22  2  0  0  0  0
 24 19  1  0  0  0  0
 26 29  1  0  0  0  0
 27 26  1  0  0  0  0
 27 31  1  0  0  0  0
 28 27  1  0  0  0  0
 28 26  1  0  0  0  0
 30 27  1  0  0  0  0
 32 28  1  0  0  0  0
 33 28  1  0  0  0  0
 34  6  1  0  0  0  0
 34 35  1  0  0  0  0
 35 39  1  0  0  0  0
 36 35  2  0  0  0  0
 38 37  1  0  0  0  0
 38 48  1  0  0  0  0
 39 40  2  0  0  0  0
 39 38  1  0  0  0  0
 40 41  1  0  0  0  0
 41 48  2  0  0  0  0
 41 42  1  0  0  0  0
 42 44  2  0  0  0  0
 43 42  1  0  0  0  0
 44 45  1  0  0  0  0
 45 46  1  0  0  0  0
 47 45  2  0  0  0  0
 48 47  1  0  0  0  0
M  END
>  <minimizedAffinity>
-6.55970097

$$$$

 OpenBabel03242523563D

 48 52  0  0  1  0  0  0  0  0999 V2000
   37.7410   32.2840   40.5400 C   0  0  1  0  0  0  0  0  0  0  0  0
   37.4140   30.8670   40.9810 C   0  0  1  0  0  0  0  0  0  0  0  0
   37.5410   30.0170   39.8590 O   0  0  0  0  0  0  0  0  0  0  0  0
   37.1280   30.6310   38.6710 C   0  0  0  0  0  0  0  0  0  0  0  0
   38.0790   31.7370   38.2480 C   0  0  2  0  0  0  0  0  0  0  0  0
   38.8480   32.1670   39.5440 C   0  0  1  0  0  0  0  0  0  0  0  0
   38.0690   32.8580   41.4430 H   0  0  0  0  0  0  0  0  0  0  0  0
   36.4070   30.7790   41.4260 H   0  0  0  0  0  0  0  0  0  0  0  0
   37.1770   29.8500   37.9060 H   0  0  0  0  0  0  0  0  0  0  0  0
   36.0820   30.9860   38.7310 H   0  0  0  0  0  0  0  0  0  0  0  0
   38.8120   31.4240   37.4890 H   0  0  0  0  0  0  0  0  0  0  0  0
   39.4010   31.1760   39.6610 H   0  0  0  0  0  0  0  0  0  0  0  0
   36.6160   32.9010   39.9700 O   0  0  0  0  0  0  0  0  0  0  0  0
   36.7950   33.8820   39.9580 H   0  0  0  0  0  0  0  0  0  0  0  0
   37.3530   32.8550   37.8690 O   0  0  0  0  0  0  0  0  0  0  0  0
   37.9350   33.4090   37.3160 H   0  0  0  0  0  0  0  0  0  0  0  0
   38.4670   30.4830   41.8140 O   0  0  0  0  0  0  0  0  0  0  0  0
   38.5150   29.3480   42.5240 C   0  0  0  0  0  0  0  0  0  0  0  0
   39.7150   28.6360   42.6640 C   0  0  0  0  0  0  0  0  0  0  0  0
   39.7080   27.4700   43.4100 C   0  0  0  0  0  0  0  0  0  0  0  0
   38.5250   27.0440   43.9920 N   0  0  0  0  0  0  0  0  0  0  0  0
   37.3890   27.7590   43.8340 C   0  0  0  0  0  0  0  0  0  0  0  0
   37.3830   28.9030   43.1050 N   0  0  0  0  0  0  0  0  0  0  0  0
   40.6330   28.9790   42.2040 H   0  0  0  0  0  0  0  0  0  0  0  0
   36.4950   27.3710   44.3160 H   0  0  0  0  0  0  0  0  0  0  0  0
   40.9550   26.6510   43.5920 C   0  0  0  0  0  0  0  0  0  0  0  0
   42.1450   27.0300   42.7150 C   0  0  0  0  0  0  0  0  0  0  0  0
   42.1010   27.2120   44.2420 C   0  0  0  0  0  0  0  0  0  0  0  0
   40.7430   25.5570   43.5110 H   0  0  0  0  0  0  0  0  0  0  0  0
   42.0700   28.0150   42.1760 H   0  0  0  0  0  0  0  0  0  0  0  0
   42.7910   26.2560   42.3080 H   0  0  0  0  0  0  0  0  0  0  0  0
   42.8220   26.5540   44.7770 H   0  0  0  0  0  0  0  0  0  0  0  0
   42.0600   28.2200   44.6610 H   0  0  0  0  0  0  0  0  0  0  0  0
   39.5420   33.2770   39.2510 O   0  0  0  0  0  0  0  0  0  0  0  0
   40.8410   33.4850   39.0340 C   0  0  0  0  0  0  0  0  0  0  0  0
   41.5000   34.4830   39.6140 O   0  0  0  0  0  0  0  0  0  0  0  0
   40.6950   31.2760   37.0910 H   0  0  0  0  0  0  0  0  0  0  0  0
   41.5470   31.7760   37.3660 N   0  0  0  0  0  0  0  0  0  0  0  0
   41.8620   32.7540   38.1830 C   0  0  0  0  0  0  0  0  0  0  0  0
   43.2160   32.9380   38.0700 N   0  0  0  0  0  0  0  0  0  0  0  0
   43.7290   32.0830   37.1910 C   0  0  0  0  0  0  0  0  0  0  0  0
   45.0440   31.9510   36.8000 C   0  0  0  0  0  0  0  0  0  0  0  0
   45.8450   32.5510   37.1760 H   0  0  0  0  0  0  0  0  0  0  0  0
   45.2780   30.9800   35.8750 N   0  0  0  0  0  0  0  0  0  0  0  0
   44.2690   30.2210   35.4000 C   0  0  0  0  0  0  0  0  0  0  0  0
   44.3950   29.4350   34.6660 H   0  0  0  0  0  0  0  0  0  0  0  0
   43.0150   30.4160   35.8340 N   0  0  0  0  0  0  0  0  0  0  0  0
   42.6750   31.3320   36.7320 C   0  0  0  0  0  0  0  0  0  0  0  0
  1  2  1  0  0  0  0
  1  7  1  1  0  0  0
  2  8  1  1  0  0  0
  2 17  1  0  0  0  0
  3  2  1  0  0  0  0
  4 10  1  0  0  0  0
  4  3  1  0  0  0  0
  5 11  1  6  0  0  0
  5  4  1  0  0  0  0
  5  6  1  0  0  0  0
  6 12  1  1  0  0  0
  6  1  1  0  0  0  0
  9  4  1  0  0  0  0
 13  1  1  0  0  0  0
 14 13  1  0  0  0  0
 15  5  1  0  0  0  0
 16 15  1  0  0  0  0
 17 18  1  0  0  0  0
 18 19  2  0  0  0  0
 18 23  1  0  0  0  0
 19 20  1  0  0  0  0
 20 26  1  0  0  0  0
 20 21  2  0  0  0  0
 22 21  1  0  0  0  0
 22 25  1  0  0  0  0
 23 22  2  0  0  0  0
 24 19  1  0  0  0  0
 26 28  1  0  0  0  0
 27 26  1  0  0  0  0
 27 28  1  0  0  0  0
 28 33  1  0  0  0  0
 28 32  1  0  0  0  0
 29 26  1  0  0  0  0
 30 27  1  0  0  0  0
 31 27  1  0  0  0  0
 34  6  1  0  0  0  0
 35 34  1  0  0  0  0
 35 36  2  0  0  0  0
 37 38  1  0  0  0  0
 38 39  1  0  0  0  0
 39 35  1  0  0  0  0
 40 39  2  0  0  0  0
 41 40  1  0  0  0  0
 42 43  1  0  0  0  0
 42 41  1  0  0  0  0
 44 42  2  0  0  0  0
 45 47  2  0  0  0  0
 45 44  1  0  0  0  0
 46 45  1  0  0  0  0
 47 48  1  0  0  0  0
 48 41  2  0  0  0  0
 48 38  1  0  0  0  0
M  END
>  <minimizedAffinity>
-6.48895693

$$$$

 OpenBabel03242523563D

 48 52  0  0  1  0  0  0  0  0999 V2000
   35.9920   29.7900   40.7860 C   0  0  1  0  0  0  0  0  0  0  0  0
   36.5070   28.6840   41.6940 C   0  0  1  0  0  0  0  0  0  0  0  0
   37.0590   27.6690   40.8790 O   0  0  0  0  0  0  0  0  0  0  0  0
   36.3530   27.4970   39.6830 C   0  0  0  0  0  0  0  0  0  0  0  0
   36.5300   28.6810   38.7490 C   0  0  2  0  0  0  0  0  0  0  0  0
   36.9600   29.8860   39.6530 C   0  0  1  0  0  0  0  0  0  0  0  0
   35.9660   30.7380   41.3790 H   0  0  0  0  0  0  0  0  0  0  0  0
   35.7240   28.2730   42.3540 H   0  0  0  0  0  0  0  0  0  0  0  0
   36.8090   26.6290   39.1980 H   0  0  0  0  0  0  0  0  0  0  0  0
   35.2860   27.2680   39.8630 H   0  0  0  0  0  0  0  0  0  0  0  0
   37.2990   28.5250   37.9780 H   0  0  0  0  0  0  0  0  0  0  0  0
   37.9700   29.4380   39.9380 H   0  0  0  0  0  0  0  0  0  0  0  0
   34.7010   29.4900   40.3190 O   0  0  0  0  0  0  0  0  0  0  0  0
   34.3110   30.3400   39.9730 H   0  0  0  0  0  0  0  0  0  0  0  0
   35.3010   29.0440   38.2210 O   0  0  0  0  0  0  0  0  0  0  0  0
   35.4710   29.5640   37.4120 H   0  0  0  0  0  0  0  0  0  0  0  0
   37.6140   29.2270   42.3500 O   0  0  0  0  0  0  0  0  0  0  0  0
   38.6480   28.5230   42.8290 C   0  0  0  0  0  0  0  0  0  0  0  0
   39.9670   28.9550   42.6300 C   0  0  0  0  0  0  0  0  0  0  0  0
   40.9980   28.1890   43.1480 C   0  0  0  0  0  0  0  0  0  0  0  0
   40.6980   27.0300   43.8440 N   0  0  0  0  0  0  0  0  0  0  0  0
   39.4130   26.6480   44.0160 C   0  0  0  0  0  0  0  0  0  0  0  0
   38.3940   27.3890   43.5120 N   0  0  0  0  0  0  0  0  0  0  0  0
   40.1890   29.8630   42.0840 H   0  0  0  0  0  0  0  0  0  0  0  0
   39.2450   25.7280   44.5700 H   0  0  0  0  0  0  0  0  0  0  0  0
   42.4350   28.5860   42.9620 C   0  0  0  0  0  0  0  0  0  0  0  0
   42.7800   30.0400   43.2720 C   0  0  0  0  0  0  0  0  0  0  0  0
   43.2710   28.8380   44.0970 C   0  0  0  0  0  0  0  0  0  0  0  0
   42.8110   28.3040   41.9470 H   0  0  0  0  0  0  0  0  0  0  0  0
   41.9950   30.6300   43.8220 H   0  0  0  0  0  0  0  0  0  0  0  0
   43.5040   30.5720   42.6590 H   0  0  0  0  0  0  0  0  0  0  0  0
   44.3710   28.6870   44.0290 H   0  0  0  0  0  0  0  0  0  0  0  0
   42.8860   28.6890   45.1090 H   0  0  0  0  0  0  0  0  0  0  0  0
   36.9220   30.9930   38.8950 O   0  0  0  0  0  0  0  0  0  0  0  0
   37.7800   31.4930   38.0040 C   0  0  0  0  0  0  0  0  0  0  0  0
   37.5110   31.5120   36.7030 O   0  0  0  0  0  0  0  0  0  0  0  0
   39.9820   32.0930   36.1410 H   0  0  0  0  0  0  0  0  0  0  0  0
   39.9760   32.2940   37.1460 N   0  0  0  0  0  0  0  0  0  0  0  0
   39.1510   32.1260   38.1530 C   0  0  0  0  0  0  0  0  0  0  0  0
   39.7760   32.6320   39.2620 N   0  0  0  0  0  0  0  0  0  0  0  0
   40.9750   33.1090   38.9420 C   0  0  0  0  0  0  0  0  0  0  0  0
   41.9060   33.6970   39.7700 C   0  0  0  0  0  0  0  0  0  0  0  0
   41.7670   33.8460   40.8200 H   0  0  0  0  0  0  0  0  0  0  0  0
   43.0570   34.0930   39.1590 N   0  0  0  0  0  0  0  0  0  0  0  0
   43.2360   33.9050   37.8350 C   0  0  0  0  0  0  0  0  0  0  0  0
   44.1280   34.1980   37.2970 H   0  0  0  0  0  0  0  0  0  0  0  0
   42.2770   33.3240   37.1010 N   0  0  0  0  0  0  0  0  0  0  0  0
   41.1190   32.9000   37.5920 C   0  0  0  0  0  0  0  0  0  0  0  0
  1  7  1  1  0  0  0
  1  2  1  0  0  0  0
  2 17  1  0  0  0  0
  2  8  1  1  0  0  0
  3  2  1  0  0  0  0
  4 10  1  0  0  0  0
  4  3  1  0  0  0  0
  5 11  1  6  0  0  0
  5  6  1  0  0  0  0
  5  4  1  0  0  0  0
  6 12  1  1  0  0  0
  6  1  1  0  0  0  0
  9  4  1  0  0  0  0
 13  1  1  0  0  0  0
 14 13  1  0  0  0  0
 15  5  1  0  0  0  0
 16 15  1  0  0  0  0
 17 18  1  0  0  0  0
 18 23  1  0  0  0  0
 19 18  2  0  0  0  0
 19 20  1  0  0  0  0
 20 21  2  0  0  0  0
 21 22  1  0  0  0  0
 22 25  1  0  0  0  0
 23 22  2  0  0  0  0
 24 19  1  0  0  0  0
 26 20  1  0  0  0  0
 26 27  1  0  0  0  0
 26 28  1  0  0  0  0
 27 30  1  0  0  0  0
 27 28  1  0  0  0  0
 28 33  1  0  0  0  0
 29 26  1  0  0  0  0
 31 27  1  0  0  0  0
 32 28  1  0  0  0  0
 34  6  1  0  0  0  0
 35 39  1  0  0  0  0
 35 34  1  0  0  0  0
 36 35  2  0  0  0  0
 37 38  1  0  0  0  0
 38 48  1  0  0  0  0
 38 39  1  0  0  0  0
 39 40  2  0  0  0  0
 41 40  1  0  0  0  0
 41 42  1  0  0  0  0
 42 43  1  0  0  0  0
 44 42  2  0  0  0  0
 45 44  1  0  0  0  0
 46 45  1  0  0  0  0
 47 48  1  0  0  0  0
 47 45  2  0  0  0  0
 48 41  2  0  0  0  0
M  END
>  <minimizedAffinity>
-6.48834133

$$$$

 OpenBabel03242523563D

 48 52  0  0  1  0  0  0  0  0999 V2000
   37.7240   31.2700   38.1030 C   0  0  1  0  0  0  0  0  0  0  0  0
   37.7180   29.7690   38.3490 C   0  0  1  0  0  0  0  0  0  0  0  0
   39.0590   29.3250   38.3890 O   0  0  0  0  0  0  0  0  0  0  0  0
   39.8790   30.0130   37.4880 C   0  0  0  0  0  0  0  0  0  0  0  0
   40.0890   31.4580   37.9060 C   0  0  2  0  0  0  0  0  0  0  0  0
   38.8940   31.8110   38.8560 C   0  0  1  0  0  0  0  0  0  0  0  0
   36.7630   31.6860   38.4950 H   0  0  0  0  0  0  0  0  0  0  0  0
   37.1440   29.2130   37.5870 H   0  0  0  0  0  0  0  0  0  0  0  0
   40.8520   29.5150   37.5400 H   0  0  0  0  0  0  0  0  0  0  0  0
   39.5090   29.9340   36.4480 H   0  0  0  0  0  0  0  0  0  0  0  0
   41.0330   31.6290   38.4450 H   0  0  0  0  0  0  0  0  0  0  0  0
   39.2150   31.0960   39.6850 H   0  0  0  0  0  0  0  0  0  0  0  0
   37.8370   31.5490   36.7320 O   0  0  0  0  0  0  0  0  0  0  0  0
   37.5610   32.4990   36.6030 H   0  0  0  0  0  0  0  0  0  0  0  0
   39.9370   32.2870   36.8070 O   0  0  0  0  0  0  0  0  0  0  0  0
   40.3770   33.1330   37.0140 H   0  0  0  0  0  0  0  0  0  0  0  0
   37.2720   29.6090   39.6630 O   0  0  0  0  0  0  0  0  0  0  0  0
   37.4230   28.5000   40.3990 C   0  0  0  0  0  0  0  0  0  0  0  0
   38.1860   28.5140   41.5760 C   0  0  0  0  0  0  0  0  0  0  0  0
   38.3080   27.3390   42.2980 C   0  0  0  0  0  0  0  0  0  0  0  0
   37.6780   26.1940   41.8420 N   0  0  0  0  0  0  0  0  0  0  0  0
   36.9500   26.2210   40.7030 C   0  0  0  0  0  0  0  0  0  0  0  0
   36.8230   27.3660   39.9860 N   0  0  0  0  0  0  0  0  0  0  0  0
   38.6750   29.4160   41.9220 H   0  0  0  0  0  0  0  0  0  0  0  0
   36.4820   25.2890   40.3990 H   0  0  0  0  0  0  0  0  0  0  0  0
   39.1200   27.2810   43.5620 C   0  0  0  0  0  0  0  0  0  0  0  0
   39.9480   26.0170   43.7750 C   0  0  0  0  0  0  0  0  0  0  0  0
   40.5440   27.4120   43.5140 C   0  0  0  0  0  0  0  0  0  0  0  0
   38.4920   27.4930   44.4630 H   0  0  0  0  0  0  0  0  0  0  0  0
   40.0620   25.3420   42.8810 H   0  0  0  0  0  0  0  0  0  0  0  0
   40.0500   25.5930   44.7710 H   0  0  0  0  0  0  0  0  0  0  0  0
   41.1020   27.8140   44.3890 H   0  0  0  0  0  0  0  0  0  0  0  0
   41.0490   27.6100   42.5660 H   0  0  0  0  0  0  0  0  0  0  0  0
   38.9330   33.1340   39.0770 O   0  0  0  0  0  0  0  0  0  0  0  0
   39.5380   33.8640   40.0160 C   0  0  0  0  0  0  0  0  0  0  0  0
   38.9300   34.8830   40.6150 O   0  0  0  0  0  0  0  0  0  0  0  0
   40.8410   32.0210   41.9090 H   0  0  0  0  0  0  0  0  0  0  0  0
   41.2780   32.8400   41.4740 N   0  0  0  0  0  0  0  0  0  0  0  0
   40.9210   33.7850   40.6350 C   0  0  0  0  0  0  0  0  0  0  0  0
   42.0140   34.5940   40.4670 N   0  0  0  0  0  0  0  0  0  0  0  0
   43.0350   34.1510   41.1940 C   0  0  0  0  0  0  0  0  0  0  0  0
   44.3020   34.6850   41.2960 C   0  0  0  0  0  0  0  0  0  0  0  0
   44.6280   35.5610   40.7770 H   0  0  0  0  0  0  0  0  0  0  0  0
   45.1490   34.0130   42.1240 N   0  0  0  0  0  0  0  0  0  0  0  0
   44.7400   32.9080   42.7820 C   0  0  0  0  0  0  0  0  0  0  0  0
   45.3670   32.3350   43.4520 H   0  0  0  0  0  0  0  0  0  0  0  0
   43.4870   32.4550   42.6250 N   0  0  0  0  0  0  0  0  0  0  0  0
   42.5810   33.0310   41.8450 C   0  0  0  0  0  0  0  0  0  0  0  0
  1  2  1  0  0  0  0
  1  7  1  1  0  0  0
  1  6  1  0  0  0  0
  2  8  1  6  0  0  0
  2  3  1  0  0  0  0
  2 17  1  0  0  0  0
  4  9  1  0  0  0  0
  4  5  1  0  0  0  0
  4  3  1  0  0  0  0
  5 11  1  1  0  0  0
  5  6  1  0  0  0  0
  6 34  1  0  0  0  0
  6 12  1  1  0  0  0
 10  4  1  0  0  0  0
 13  1  1  0  0  0  0
 14 13  1  0  0  0  0
 15 16  1  0  0  0  0
 15  5  1  0  0  0  0
 17 18  1  0  0  0  0
 18 19  1  0  0  0  0
 19 24  1  0  0  0  0
 19 20  2  0  0  0  0
 20 26  1  0  0  0  0
 21 20  1  0  0  0  0
 22 21  2  0  0  0  0
 23 18  2  0  0  0  0
 23 22  1  0  0  0  0
 25 22  1  0  0  0  0
 26 27  1  0  0  0  0
 26 29  1  0  0  0  0
 27 31  1  0  0  0  0
 28 26  1  0  0  0  0
 28 27  1  0  0  0  0
 28 32  1  0  0  0  0
 30 27  1  0  0  0  0
 33 28  1  0  0  0  0
 34 35  1  0  0  0  0
 35 36  2  0  0  0  0
 35 39  1  0  0  0  0
 38 48  1  0  0  0  0
 38 37  1  0  0  0  0
 39 38  1  0  0  0  0
 40 39  2  0  0  0  0
 40 41  1  0  0  0  0
 41 42  2  0  0  0  0
 41 48  1  0  0  0  0
 42 44  1  0  0  0  0
 43 42  1  0  0  0  0
 44 45  2  0  0  0  0
 45 46  1  0  0  0  0
 47 45  1  0  0  0  0
 48 47  2  0  0  0  0
M  END
>  <minimizedAffinity>
-6.28936577

$$$$

 OpenBabel03242523563D

 48 52  0  0  1  0  0  0  0  0999 V2000
   37.0020   30.0040   40.9910 C   0  0  1  0  0  0  0  0  0  0  0  0
   36.7090   29.0480   39.8460 C   0  0  1  0  0  0  0  0  0  0  0  0
   36.9130   29.7420   38.6320 O   0  0  0  0  0  0  0  0  0  0  0  0
   36.5260   31.0840   38.7090 C   0  0  0  0  0  0  0  0  0  0  0  0
   37.4520   31.8870   39.6050 C   0  0  2  0  0  0  0  0  0  0  0  0
   38.1510   30.8480   40.5470 C   0  0  1  0  0  0  0  0  0  0  0  0
   37.2710   29.3940   41.8890 H   0  0  0  0  0  0  0  0  0  0  0  0
   35.6890   28.6280   39.8900 H   0  0  0  0  0  0  0  0  0  0  0  0
   36.6350   31.4780   37.6930 H   0  0  0  0  0  0  0  0  0  0  0  0
   35.4660   31.1930   39.0060 H   0  0  0  0  0  0  0  0  0  0  0  0
   38.2260   32.4440   39.0570 H   0  0  0  0  0  0  0  0  0  0  0  0
   38.7350   30.3370   39.7110 H   0  0  0  0  0  0  0  0  0  0  0  0
   35.8780   30.7970   41.2780 O   0  0  0  0  0  0  0  0  0  0  0  0
   36.0220   31.1910   42.1830 H   0  0  0  0  0  0  0  0  0  0  0  0
   36.7010   32.6920   40.4470 O   0  0  0  0  0  0  0  0  0  0  0  0
   37.2850   33.4060   40.7680 H   0  0  0  0  0  0  0  0  0  0  0  0
   37.7410   28.1070   39.8730 O   0  0  0  0  0  0  0  0  0  0  0  0
   37.8220   27.0760   40.7230 C   0  0  0  0  0  0  0  0  0  0  0  0
   38.7520   27.0800   41.7740 C   0  0  0  0  0  0  0  0  0  0  0  0
   38.7930   25.9880   42.6240 C   0  0  0  0  0  0  0  0  0  0  0  0
   37.9200   24.9330   42.4150 N   0  0  0  0  0  0  0  0  0  0  0  0
   37.0380   24.9670   41.3920 C   0  0  0  0  0  0  0  0  0  0  0  0
   36.9880   26.0310   40.5510 N   0  0  0  0  0  0  0  0  0  0  0  0
   39.4290   27.9110   41.9260 H   0  0  0  0  0  0  0  0  0  0  0  0
   36.3810   24.1080   41.2820 H   0  0  0  0  0  0  0  0  0  0  0  0
   39.7720   25.9210   43.7620 C   0  0  0  0  0  0  0  0  0  0  0  0
   41.2030   25.5360   43.4010 C   0  0  0  0  0  0  0  0  0  0  0  0
   40.7810   26.9250   43.9100 C   0  0  0  0  0  0  0  0  0  0  0  0
   39.3920   25.2760   44.5930 H   0  0  0  0  0  0  0  0  0  0  0  0
   41.4600   25.5550   42.3050 H   0  0  0  0  0  0  0  0  0  0  0  0
   41.7820   24.8990   44.0660 H   0  0  0  0  0  0  0  0  0  0  0  0
   41.1970   27.1630   44.9140 H   0  0  0  0  0  0  0  0  0  0  0  0
   40.8140   27.7790   43.2280 H   0  0  0  0  0  0  0  0  0  0  0  0
   38.8150   31.5390   41.4870 O   0  0  0  0  0  0  0  0  0  0  0  0
   40.1030   31.5620   41.8330 C   0  0  0  0  0  0  0  0  0  0  0  0
   40.5560   30.9140   42.9010 O   0  0  0  0  0  0  0  0  0  0  0  0
   42.5010   32.8920   42.9110 H   0  0  0  0  0  0  0  0  0  0  0  0
   42.2820   32.7650   41.9180 N   0  0  0  0  0  0  0  0  0  0  0  0
   41.3140   32.2310   41.2100 C   0  0  0  0  0  0  0  0  0  0  0  0
   41.6510   32.4030   39.8930 N   0  0  0  0  0  0  0  0  0  0  0  0
   42.8160   33.0360   39.7900 C   0  0  0  0  0  0  0  0  0  0  0  0
   43.4910   33.3930   38.6430 C   0  0  0  0  0  0  0  0  0  0  0  0
   43.1410   33.1940   37.6530 H   0  0  0  0  0  0  0  0  0  0  0  0
   44.6740   34.0380   38.8450 N   0  0  0  0  0  0  0  0  0  0  0  0
   45.1180   34.2910   40.0940 C   0  0  0  0  0  0  0  0  0  0  0  0
   46.0480   34.7990   40.3150 H   0  0  0  0  0  0  0  0  0  0  0  0
   44.3960   33.9070   41.1570 N   0  0  0  0  0  0  0  0  0  0  0  0
   43.2330   33.2740   41.0760 C   0  0  0  0  0  0  0  0  0  0  0  0
  1 13  1  0  0  0  0
  1  7  1  1  0  0  0
  2 17  1  0  0  0  0
  2  8  1  1  0  0  0
  2  1  1  0  0  0  0
  3  4  1  0  0  0  0
  3  2  1  0  0  0  0
  4 10  1  0  0  0  0
  4  5  1  0  0  0  0
  5 11  1  6  0  0  0
  5 15  1  0  0  0  0
  5  6  1  0  0  0  0
  6 12  1  6  0  0  0
  6  1  1  0  0  0  0
  6 34  1  0  0  0  0
  9  4  1  0  0  0  0
 13 14  1  0  0  0  0
 15 16  1  0  0  0  0
 17 18  1  0  0  0  0
 18 19  1  0  0  0  0
 19 24  1  0  0  0  0
 19 20  2  0  0  0  0
 20 26  1  0  0  0  0
 21 20  1  0  0  0  0
 22 21  2  0  0  0  0
 23 18  2  0  0  0  0
 23 22  1  0  0  0  0
 25 22  1  0  0  0  0
 26 28  1  0  0  0  0
 26 29  1  0  0  0  0
 27 26  1  0  0  0  0
 27 28  1  0  0  0  0
 27 31  1  0  0  0  0
 28 32  1  0  0  0  0
 30 27  1  0  0  0  0
 33 28  1  0  0  0  0
 34 35  1  0  0  0  0
 35 36  2  0  0  0  0
 38 37  1  0  0  0  0
 39 35  1  0  0  0  0
 39 38  1  0  0  0  0
 40 39  2  0  0  0  0
 41 40  1  0  0  0  0
 41 48  1  0  0  0  0
 42 44  1  0  0  0  0
 42 41  2  0  0  0  0
 43 42  1  0  0  0  0
 44 45  2  0  0  0  0
 45 46  1  0  0  0  0
 45 47  1  0  0  0  0
 48 47  2  0  0  0  0
 48 38  1  0  0  0  0
M  END
>  <minimizedAffinity>
-6.28084373

$$$$

 OpenBabel03242523563D

 48 52  0  0  1  0  0  0  0  0999 V2000
   39.6670   32.5600   39.1620 C   0  0  1  0  0  0  0  0  0  0  0  0
   40.7330   33.6350   39.0230 C   0  0  1  0  0  0  0  0  0  0  0  0
   40.4680   34.6430   39.9780 O   0  0  0  0  0  0  0  0  0  0  0  0
   39.0980   34.8560   40.1680 C   0  0  0  0  0  0  0  0  0  0  0  0
   38.4360   33.6800   40.8650 C   0  0  2  0  0  0  0  0  0  0  0  0
   39.3740   32.4490   40.6220 C   0  0  1  0  0  0  0  0  0  0  0  0
   40.0860   31.6050   38.7590 H   0  0  0  0  0  0  0  0  0  0  0  0
   40.7800   34.0620   38.0070 H   0  0  0  0  0  0  0  0  0  0  0  0
   39.0270   35.7150   40.8410 H   0  0  0  0  0  0  0  0  0  0  0  0
   38.5860   35.1170   39.2230 H   0  0  0  0  0  0  0  0  0  0  0  0
   38.3120   33.8220   41.9490 H   0  0  0  0  0  0  0  0  0  0  0  0
   40.2370   32.8590   41.2460 H   0  0  0  0  0  0  0  0  0  0  0  0
   38.5110   32.9100   38.4440 O   0  0  0  0  0  0  0  0  0  0  0  0
   37.9710   32.0780   38.3380 H   0  0  0  0  0  0  0  0  0  0  0  0
   37.2500   33.3660   40.2220 O   0  0  0  0  0  0  0  0  0  0  0  0
   36.7040   32.8520   40.8470 H   0  0  0  0  0  0  0  0  0  0  0  0
   41.9160   33.0460   39.4770 O   0  0  0  0  0  0  0  0  0  0  0  0
   43.0300   32.8940   38.7480 C   0  0  0  0  0  0  0  0  0  0  0  0
   43.2380   31.7360   37.9850 C   0  0  0  0  0  0  0  0  0  0  0  0
   44.4070   31.6310   37.2500 C   0  0  0  0  0  0  0  0  0  0  0  0
   45.3280   32.6640   37.2890 N   0  0  0  0  0  0  0  0  0  0  0  0
   45.0900   33.7650   38.0360 C   0  0  0  0  0  0  0  0  0  0  0  0
   43.9490   33.8800   38.7620 N   0  0  0  0  0  0  0  0  0  0  0  0
   42.5110   30.9340   37.9630 H   0  0  0  0  0  0  0  0  0  0  0  0
   45.8520   34.5390   38.0240 H   0  0  0  0  0  0  0  0  0  0  0  0
   44.6990   30.4130   36.4190 C   0  0  0  0  0  0  0  0  0  0  0  0
   43.6720   30.0630   35.3470 C   0  0  0  0  0  0  0  0  0  0  0  0
   45.1020   30.5480   35.0520 C   0  0  0  0  0  0  0  0  0  0  0  0
   44.9140   29.5220   37.0590 H   0  0  0  0  0  0  0  0  0  0  0  0
   42.9070   30.8560   35.1150 H   0  0  0  0  0  0  0  0  0  0  0  0
   43.4290   29.0230   35.1420 H   0  0  0  0  0  0  0  0  0  0  0  0
   45.7320   29.7670   34.5710 H   0  0  0  0  0  0  0  0  0  0  0  0
   45.2530   31.5390   34.6160 H   0  0  0  0  0  0  0  0  0  0  0  0
   38.7200   31.3550   41.0440 O   0  0  0  0  0  0  0  0  0  0  0  0
   39.0220   30.4330   41.9590 C   0  0  0  0  0  0  0  0  0  0  0  0
   39.6720   30.7390   43.0770 O   0  0  0  0  0  0  0  0  0  0  0  0
   36.9010   28.6700   40.9230 H   0  0  0  0  0  0  0  0  0  0  0  0
   37.7150   28.3700   41.4700 N   0  0  0  0  0  0  0  0  0  0  0  0
   38.7560   28.9410   42.0290 C   0  0  0  0  0  0  0  0  0  0  0  0
   39.4800   27.9400   42.6230 N   0  0  0  0  0  0  0  0  0  0  0  0
   38.8910   26.7640   42.4300 C   0  0  0  0  0  0  0  0  0  0  0  0
   39.3030   25.5230   42.8660 C   0  0  0  0  0  0  0  0  0  0  0  0
   40.1900   25.3530   43.4390 H   0  0  0  0  0  0  0  0  0  0  0  0
   38.4930   24.4870   42.5160 N   0  0  0  0  0  0  0  0  0  0  0  0
   37.3720   24.7000   41.7940 C   0  0  0  0  0  0  0  0  0  0  0  0
   36.6910   23.9170   41.4880 H   0  0  0  0  0  0  0  0  0  0  0  0
   37.0440   25.9420   41.4090 N   0  0  0  0  0  0  0  0  0  0  0  0
   37.7600   27.0220   41.6950 C   0  0  0  0  0  0  0  0  0  0  0  0
  1  7  1  6  0  0  0
  1  6  1  0  0  0  0
  2  8  1  6  0  0  0
  2  1  1  0  0  0  0
  2 17  1  0  0  0  0
  2  3  1  0  0  0  0
  3  4  1  0  0  0  0
  4  9  1  0  0  0  0
  4  5  1  0  0  0  0
  5 11  1  1  0  0  0
  6  5  1  0  0  0  0
  6 34  1  0  0  0  0
  6 12  1  1  0  0  0
 10  4  1  0  0  0  0
 13  1  1  0  0  0  0
 14 13  1  0  0  0  0
 15 16  1  0  0  0  0
 15  5  1  0  0  0  0
 18 23  1  0  0  0  0
 18 17  1  0  0  0  0
 19 18  2  0  0  0  0
 20 21  2  0  0  0  0
 20 19  1  0  0  0  0
 21 22  1  0  0  0  0
 22 23  2  0  0  0  0
 24 19  1  0  0  0  0
 25 22  1  0  0  0  0
 26 29  1  0  0  0  0
 26 20  1  0  0  0  0
 27 26  1  0  0  0  0
 28 27  1  0  0  0  0
 28 26  1  0  0  0  0
 30 27  1  0  0  0  0
 31 27  1  0  0  0  0
 32 28  1  0  0  0  0
 33 28  1  0  0  0  0
 34 35  1  0  0  0  0
 35 39  1  0  0  0  0
 35 36  2  0  0  0  0
 37 38  1  0  0  0  0
 38 48  1  0  0  0  0
 38 39  1  0  0  0  0
 39 40  2  0  0  0  0
 41 40  1  0  0  0  0
 41 42  1  0  0  0  0
 42 43  1  0  0  0  0
 44 42  2  0  0  0  0
 45 44  1  0  0  0  0
 46 45  1  0  0  0  0
 47 48  1  0  0  0  0
 47 45  2  0  0  0  0
 48 41  2  0  0  0  0
M  END
>  <minimizedAffinity>
-6.24195766

$$$$

 OpenBabel03242523563D

 48 52  0  0  1  0  0  0  0  0999 V2000
   41.7740   32.2090   40.5150 C   0  0  1  0  0  0  0  0  0  0  0  0
   42.4250   31.7180   41.7980 C   0  0  1  0  0  0  0  0  0  0  0  0
   43.0690   32.8160   42.4110 O   0  0  0  0  0  0  0  0  0  0  0  0
   43.6330   33.6960   41.4810 C   0  0  0  0  0  0  0  0  0  0  0  0
   42.5700   34.4450   40.6970 C   0  0  2  0  0  0  0  0  0  0  0  0
   41.2660   33.5830   40.8030 C   0  0  1  0  0  0  0  0  0  0  0  0
   40.9360   31.5120   40.2650 H   0  0  0  0  0  0  0  0  0  0  0  0
   43.1370   30.8920   41.6280 H   0  0  0  0  0  0  0  0  0  0  0  0
   44.1820   34.4350   42.0740 H   0  0  0  0  0  0  0  0  0  0  0  0
   44.3550   33.1870   40.8160 H   0  0  0  0  0  0  0  0  0  0  0  0
   42.3610   35.4530   41.0860 H   0  0  0  0  0  0  0  0  0  0  0  0
   41.1340   33.7440   41.9250 H   0  0  0  0  0  0  0  0  0  0  0  0
   42.7030   32.2280   39.4610 O   0  0  0  0  0  0  0  0  0  0  0  0
   42.1810   32.2820   38.6130 H   0  0  0  0  0  0  0  0  0  0  0  0
   42.8980   34.4440   39.3510 O   0  0  0  0  0  0  0  0  0  0  0  0
   42.4060   35.1730   38.9280 H   0  0  0  0  0  0  0  0  0  0  0  0
   41.3680   31.4230   42.6620 O   0  0  0  0  0  0  0  0  0  0  0  0
   40.7790   30.2260   42.7800 C   0  0  0  0  0  0  0  0  0  0  0  0
   39.3820   30.1110   42.8160 C   0  0  0  0  0  0  0  0  0  0  0  0
   38.8260   28.8490   42.9380 C   0  0  0  0  0  0  0  0  0  0  0  0
   39.6590   27.7460   43.0190 N   0  0  0  0  0  0  0  0  0  0  0  0
   41.0020   27.8980   42.9800 C   0  0  0  0  0  0  0  0  0  0  0  0
   41.5590   29.1300   42.8610 N   0  0  0  0  0  0  0  0  0  0  0  0
   38.7410   30.9820   42.7530 H   0  0  0  0  0  0  0  0  0  0  0  0
   41.5990   26.9930   43.0480 H   0  0  0  0  0  0  0  0  0  0  0  0
   37.3370   28.6540   42.9950 C   0  0  0  0  0  0  0  0  0  0  0  0
   36.7920   27.4050   42.3080 C   0  0  0  0  0  0  0  0  0  0  0  0
   36.7700   27.6370   43.8280 C   0  0  0  0  0  0  0  0  0  0  0  0
   36.7900   29.5640   42.6420 H   0  0  0  0  0  0  0  0  0  0  0  0
   37.5520   26.6280   42.0160 H   0  0  0  0  0  0  0  0  0  0  0  0
   35.8490   27.4470   41.7680 H   0  0  0  0  0  0  0  0  0  0  0  0
   35.7400   27.7520   44.2340 H   0  0  0  0  0  0  0  0  0  0  0  0
   37.4120   27.0310   44.4720 H   0  0  0  0  0  0  0  0  0  0  0  0
   40.3680   34.1050   39.9540 O   0  0  0  0  0  0  0  0  0  0  0  0
   39.0510   33.9310   39.8300 C   0  0  0  0  0  0  0  0  0  0  0  0
   38.1860   34.9100   40.0780 O   0  0  0  0  0  0  0  0  0  0  0  0
   38.6340   32.4910   37.2940 H   0  0  0  0  0  0  0  0  0  0  0  0
   38.1960   32.2620   38.1930 N   0  0  0  0  0  0  0  0  0  0  0  0
   38.2150   32.7350   39.4170 C   0  0  0  0  0  0  0  0  0  0  0  0
   37.3790   31.9410   40.1570 N   0  0  0  0  0  0  0  0  0  0  0  0
   36.8520   30.9860   39.3970 C   0  0  0  0  0  0  0  0  0  0  0  0
   35.9690   29.9940   39.7670 C   0  0  0  0  0  0  0  0  0  0  0  0
   35.5860   29.8700   40.7570 H   0  0  0  0  0  0  0  0  0  0  0  0
   35.5960   29.1490   38.7670 N   0  0  0  0  0  0  0  0  0  0  0  0
   36.0760   29.3050   37.5150 C   0  0  0  0  0  0  0  0  0  0  0  0
   35.8150   28.6650   36.6820 H   0  0  0  0  0  0  0  0  0  0  0  0
   36.9340   30.2990   37.2410 N   0  0  0  0  0  0  0  0  0  0  0  0
   37.3630   31.1780   38.1370 C   0  0  0  0  0  0  0  0  0  0  0  0
  1  7  1  6  0  0  0
  1  6  1  0  0  0  0
  1  2  1  0  0  0  0
  2  8  1  6  0  0  0
  2  3  1  0  0  0  0
  2 17  1  0  0  0  0
  4  9  1  0  0  0  0
  4  3  1  0  0  0  0
  5  6  1  0  0  0  0
  5 11  1  1  0  0  0
  5  4  1  0  0  0  0
  6 12  1  1  0  0  0
 10  4  1  0  0  0  0
 13  1  1  0  0  0  0
 14 13  1  0  0  0  0
 15  5  1  0  0  0  0
 16 15  1  0  0  0  0
 17 18  1  0  0  0  0
 18 19  2  0  0  0  0
 18 23  1  0  0  0  0
 19 20  1  0  0  0  0
 20 26  1  0  0  0  0
 20 21  2  0  0  0  0
 22 21  1  0  0  0  0
 22 25  1  0  0  0  0
 23 22  2  0  0  0  0
 24 19  1  0  0  0  0
 26 28  1  0  0  0  0
 27 26  1  0  0  0  0
 27 28  1  0  0  0  0
 28 32  1  0  0  0  0
 28 33  1  0  0  0  0
 29 26  1  0  0  0  0
 30 27  1  0  0  0  0
 31 27  1  0  0  0  0
 34  6  1  0  0  0  0
 35 34  1  0  0  0  0
 35 36  2  0  0  0  0
 37 38  1  0  0  0  0
 38 39  1  0  0  0  0
 39 35  1  0  0  0  0
 39 40  2  0  0  0  0
 41 42  1  0  0  0  0
 41 40  1  0  0  0  0
 42 43  1  0  0  0  0
 44 42  2  0  0  0  0
 45 44  1  0  0  0  0
 46 45  1  0  0  0  0
 47 45  2  0  0  0  0
 47 48  1  0  0  0  0
 48 38  1  0  0  0  0
 48 41  2  0  0  0  0
M  END
>  <minimizedAffinity>
-6.24083805

$$$$

 OpenBabel03242523563D

 48 52  0  0  1  0  0  0  0  0999 V2000
   40.9550   31.9070   38.0900 C   0  0  1  0  0  0  0  0  0  0  0  0
   42.0090   30.8230   38.2520 C   0  0  1  0  0  0  0  0  0  0  0  0
   43.2630   31.4530   38.4210 O   0  0  0  0  0  0  0  0  0  0  0  0
   43.3860   32.6200   37.6590 C   0  0  0  0  0  0  0  0  0  0  0  0
   42.4860   33.7280   38.1760 C   0  0  2  0  0  0  0  0  0  0  0  0
   41.3570   33.0200   39.0000 C   0  0  1  0  0  0  0  0  0  0  0  0
   39.9680   31.4740   38.3900 H   0  0  0  0  0  0  0  0  0  0  0  0
   42.0360   30.1220   37.4000 H   0  0  0  0  0  0  0  0  0  0  0  0
   44.4200   32.9500   37.7950 H   0  0  0  0  0  0  0  0  0  0  0  0
   43.2280   32.4270   36.5810 H   0  0  0  0  0  0  0  0  0  0  0  0
   43.0020   34.4480   38.8280 H   0  0  0  0  0  0  0  0  0  0  0  0
   42.0560   32.6460   39.8210 H   0  0  0  0  0  0  0  0  0  0  0  0
   40.8930   32.3460   36.7570 O   0  0  0  0  0  0  0  0  0  0  0  0
   40.0290   32.8310   36.6490 H   0  0  0  0  0  0  0  0  0  0  0  0
   41.8360   34.3320   37.1120 O   0  0  0  0  0  0  0  0  0  0  0  0
   41.5330   35.2100   37.4140 H   0  0  0  0  0  0  0  0  0  0  0  0
   41.7560   30.2400   39.4950 O   0  0  0  0  0  0  0  0  0  0  0  0
   40.6920   29.4810   39.7880 C   0  0  0  0  0  0  0  0  0  0  0  0
   40.1530   29.4650   41.0830 C   0  0  0  0  0  0  0  0  0  0  0  0
   39.0520   28.6630   41.3310 C   0  0  0  0  0  0  0  0  0  0  0  0
   38.5180   27.9070   40.3000 N   0  0  0  0  0  0  0  0  0  0  0  0
   39.0650   27.9510   39.0650 C   0  0  0  0  0  0  0  0  0  0  0  0
   40.1450   28.7330   38.8100 N   0  0  0  0  0  0  0  0  0  0  0  0
   40.5810   30.0590   41.8810 H   0  0  0  0  0  0  0  0  0  0  0  0
   38.5990   27.3350   38.3010 H   0  0  0  0  0  0  0  0  0  0  0  0
   38.4320   28.5880   42.6980 C   0  0  0  0  0  0  0  0  0  0  0  0
   37.2950   27.5850   42.8710 C   0  0  0  0  0  0  0  0  0  0  0  0
   38.6740   27.4580   43.5420 C   0  0  0  0  0  0  0  0  0  0  0  0
   38.1200   29.5980   43.0620 H   0  0  0  0  0  0  0  0  0  0  0  0
   37.1660   26.8340   42.0410 H   0  0  0  0  0  0  0  0  0  0  0  0
   36.4400   27.8310   43.4950 H   0  0  0  0  0  0  0  0  0  0  0  0
   38.6270   27.5630   44.6490 H   0  0  0  0  0  0  0  0  0  0  0  0
   39.3550   26.6660   43.2230 H   0  0  0  0  0  0  0  0  0  0  0  0
   40.4320   33.9470   39.2950 O   0  0  0  0  0  0  0  0  0  0  0  0
   39.1640   33.8450   39.6960 C   0  0  0  0  0  0  0  0  0  0  0  0
   38.5120   34.8710   40.2330 O   0  0  0  0  0  0  0  0  0  0  0  0
   37.5250   32.4940   41.7380 H   0  0  0  0  0  0  0  0  0  0  0  0
   37.5500   32.2610   40.7390 N   0  0  0  0  0  0  0  0  0  0  0  0
   38.1760   32.6940   39.6700 C   0  0  0  0  0  0  0  0  0  0  0  0
   37.7410   31.9240   38.6230 N   0  0  0  0  0  0  0  0  0  0  0  0
   36.8540   31.0270   39.0430 C   0  0  0  0  0  0  0  0  0  0  0  0
   36.1880   30.0770   38.3000 C   0  0  0  0  0  0  0  0  0  0  0  0
   36.3120   29.9420   37.2460 H   0  0  0  0  0  0  0  0  0  0  0  0
   35.3310   29.2870   39.0040 N   0  0  0  0  0  0  0  0  0  0  0  0
   35.1730   29.4540   40.3340 C   0  0  0  0  0  0  0  0  0  0  0  0
   34.5070   28.8580   40.9440 H   0  0  0  0  0  0  0  0  0  0  0  0
   35.8610   30.4060   40.9810 N   0  0  0  0  0  0  0  0  0  0  0  0
   36.7210   31.2290   40.3940 C   0  0  0  0  0  0  0  0  0  0  0  0
  1  2  1  0  0  0  0
  1  7  1  1  0  0  0
  1  6  1  0  0  0  0
  2  8  1  6  0  0  0
  2  3  1  0  0  0  0
  2 17  1  0  0  0  0
  4  9  1  0  0  0  0
  4  5  1  0  0  0  0
  4  3  1  0  0  0  0
  5 11  1  1  0  0  0
  5  6  1  0  0  0  0
  6 34  1  0  0  0  0
  6 12  1  1  0  0  0
 10  4  1  0  0  0  0
 13  1  1  0  0  0  0
 14 13  1  0  0  0  0
 15 16  1  0  0  0  0
 15  5  1  0  0  0  0
 17 18  1  0  0  0  0
 18 19  1  0  0  0  0
 19 20  2  0  0  0  0
 19 24  1  0  0  0  0
 20 26  1  0  0  0  0
 21 20  1  0  0  0  0
 22 21  2  0  0  0  0
 23 22  1  0  0  0  0
 23 18  2  0  0  0  0
 25 22  1  0  0  0  0
 26 27  1  0  0  0  0
 26 29  1  0  0  0  0
 26 28  1  0  0  0  0
 27 31  1  0  0  0  0
 27 28  1  0  0  0  0
 28 32  1  0  0  0  0
 30 27  1  0  0  0  0
 33 28  1  0  0  0  0
 34 35  1  0  0  0  0
 35 36  2  0  0  0  0
 38 37  1  0  0  0  0
 39 35  1  0  0  0  0
 39 38  1  0  0  0  0
 40 41  1  0  0  0  0
 40 39  2  0  0  0  0
 41 48  1  0  0  0  0
 42 44  1  0  0  0  0
 42 41  2  0  0  0  0
 43 42  1  0  0  0  0
 44 45  2  0  0  0  0
 45 46  1  0  0  0  0
 45 47  1  0  0  0  0
 48 38  1  0  0  0  0
 48 47  2  0  0  0  0
M  END
>  <minimizedAffinity>
-6.2147398

$$$$
