
 OpenBabel03252508173D

 50 55  0  0  1  0  0  0  0  0999 V2000
   45.7840   32.0630   48.0340 C   0  0  1  0  0  0  0  0  0  0  0  0
   45.2260   31.5830   49.3310 C   0  0  0  0  0  0  0  0  0  0  0  0
   46.6740   31.6870   49.1520 C   0  0  1  0  0  0  0  0  0  0  0  0
   45.4340   33.1230   47.8550 H   0  0  0  0  0  0  0  0  0  0  0  0
   44.8330   30.5370   49.3930 H   0  0  0  0  0  0  0  0  0  0  0  0
   44.7090   32.2420   50.0400 H   0  0  0  0  0  0  0  0  0  0  0  0
   47.1780   32.5200   49.6840 H   0  0  0  0  0  0  0  0  0  0  0  0
   47.5210   30.4640   48.9910 C   0  0  2  0  0  0  0  0  0  0  0  0
   48.9390   30.6100   49.6010 C   0  0  0  0  0  0  0  0  0  0  0  0
   48.7860   30.5880   48.1420 C   0  0  1  0  0  0  0  0  0  0  0  0
   47.1180   29.4640   49.2330 H   0  0  0  0  0  0  0  0  0  0  0  0
   49.2090   31.5900   50.0420 H   0  0  0  0  0  0  0  0  0  0  0  0
   49.4330   29.7560   50.0510 H   0  0  0  0  0  0  0  0  0  0  0  0
   48.8440   31.5330   47.5330 H   0  0  0  0  0  0  0  0  0  0  0  0
   49.0450   29.4020   47.3480 N   0  0  0  0  0  0  0  0  0  0  0  0
   50.2190   29.1690   46.7310 C   0  0  0  0  0  0  0  0  0  0  0  0
   51.1120   29.7790   46.7190 H   0  0  0  0  0  0  0  0  0  0  0  0
   50.1480   27.9920   46.0760 N   0  0  0  0  0  0  0  0  0  0  0  0
   48.9140   27.5240   46.3100 C   0  0  0  0  0  0  0  0  0  0  0  0
   48.3280   26.3410   45.8630 C   0  0  0  0  0  0  0  0  0  0  0  0
   48.8240   25.6100   45.2350 H   0  0  0  0  0  0  0  0  0  0  0  0
   47.0570   26.1080   46.2500 N   0  0  0  0  0  0  0  0  0  0  0  0
   46.3850   26.9680   47.0240 C   0  0  0  0  0  0  0  0  0  0  0  0
   45.3660   26.7800   47.3340 H   0  0  0  0  0  0  0  0  0  0  0  0
   46.9220   28.1230   47.4760 N   0  0  0  0  0  0  0  0  0  0  0  0
   48.1830   28.3940   47.1150 C   0  0  0  0  0  0  0  0  0  0  0  0
   45.5800   31.1330   46.8900 C   0  0  0  0  0  0  0  0  0  0  0  0
   44.4670   31.0480   46.7410 H   0  0  0  0  0  0  0  0  0  0  0  0
   46.0420   30.1630   46.9380 H   0  0  0  0  0  0  0  0  0  0  0  0
   46.0440   33.0170   45.5530 C   0  0  0  0  0  3  0  0  0  0  0  0
   46.0720   31.7520   45.6020 C   0  0  0  0  0  3  0  0  0  0  0  0
   46.2720   35.3320   42.6930 C   0  0  0  0  0  0  0  0  0  0  0  0
   47.3290   34.8150   41.9540 C   0  0  0  0  0  0  0  0  0  0  0  0
   47.9210   33.7010   42.4560 C   0  0  0  0  0  0  0  0  0  0  0  0
   47.4850   33.1440   43.6180 N   0  0  0  0  0  0  0  0  0  0  0  0
   46.4520   33.6770   44.3100 C   0  0  0  0  0  0  0  0  0  0  0  0
   45.8760   34.7590   43.8230 N   0  0  0  0  0  0  0  0  0  0  0  0
   45.7750   36.2180   42.3270 H   0  0  0  0  0  0  0  0  0  0  0  0
   47.7000   35.2240   41.0370 H   0  0  0  0  0  0  0  0  0  0  0  0
   49.0440   33.0440   41.7900 C   0  0  0  0  0  0  0  0  0  0  0  0
   50.3210   32.9890   42.2880 C   0  0  0  0  0  0  0  0  0  0  0  0
   51.3740   32.3660   41.6550 C   0  0  0  0  0  0  0  0  0  0  0  0
   51.1630   31.7440   40.4340 C   0  0  0  0  0  0  0  0  0  0  0  0
   49.9030   31.7700   39.8910 C   0  0  0  0  0  0  0  0  0  0  0  0
   48.8920   32.4120   40.5780 C   0  0  0  0  0  0  0  0  0  0  0  0
   50.5200   33.4740   43.2560 H   0  0  0  0  0  0  0  0  0  0  0  0
   52.3750   32.3440   42.0810 H   0  0  0  0  0  0  0  0  0  0  0  0
   51.9730   31.2570   39.9330 H   0  0  0  0  0  0  0  0  0  0  0  0
   49.7000   31.3000   38.9490 H   0  0  0  0  0  0  0  0  0  0  0  0
   47.9050   32.4020   40.1030 H   0  0  0  0  0  0  0  0  0  0  0  0
  1  4  1  6  0  0  0
  1  3  1  0  0  0  0
  1  2  1  0  0  0  0
  2  5  1  0  0  0  0
  2  6  1  0  0  0  0
  3  2  1  0  0  0  0
  3  7  1  1  0  0  0
  8  3  1  0  0  0  0
  8 11  1  1  0  0  0
  8  9  1  0  0  0  0
  9 12  1  0  0  0  0
  9 13  1  0  0  0  0
 10 14  1  6  0  0  0
 10  8  1  0  0  0  0
 10  9  1  0  0  0  0
 15 10  1  0  0  0  0
 16 15  1  0  0  0  0
 17 16  1  0  0  0  0
 18 19  1  0  0  0  0
 18 16  2  0  0  0  0
 19 26  1  0  0  0  0
 20 22  1  0  0  0  0
 20 19  2  0  0  0  0
 21 20  1  0  0  0  0
 22 23  2  0  0  0  0
 23 24  1  0  0  0  0
 23 25  1  0  0  0  0
 26 15  1  0  0  0  0
 26 25  2  0  0  0  0
 27 29  1  0  0  0  0
 27  1  1  0  0  0  0
 28 27  1  0  0  0  0
 30 31  2  0  0  0  0
 31 27  1  0  0  0  0
 32 37  1  0  0  0  0
 33 34  1  0  0  0  0
 33 32  2  0  0  0  0
 34 35  2  0  0  0  0
 35 36  1  0  0  0  0
 36 30  1  0  0  0  0
 37 36  2  0  0  0  0
 38 32  1  0  0  0  0
 39 33  1  0  0  0  0
 40 41  1  0  0  0  0
 40 34  1  0  0  0  0
 41 46  1  0  0  0  0
 42 47  1  0  0  0  0
 42 41  2  0  0  0  0
 43 42  1  0  0  0  0
 44 43  2  0  0  0  0
 44 45  1  0  0  0  0
 45 40  2  0  0  0  0
 48 43  1  0  0  0  0
 49 44  1  0  0  0  0
 50 45  1  0  0  0  0
M  END
>  <minimizedAffinity>
-5.50175142

>  <minimizedRMSD>
3.12940836

$$$$
