
 OpenBabel03252507433D

 34 37  0  0  0  0  0  0  0  0999 V2000
   44.4090   34.6890   41.5440 C   0  0  0  0  0  0  0  0  0  0  0  0
   43.5970   35.7710   42.0020 C   0  0  0  0  0  0  0  0  0  0  0  0
   41.9960   35.4730   41.1200 S   0  0  0  0  0  0  0  0  0  0  0  0
   42.7120   33.9460   40.2950 C   0  0  0  0  0  0  0  0  0  0  0  0
   43.7690   33.9080   40.7050 N   0  0  0  0  0  0  0  0  0  0  0  0
   43.9000   36.5470   42.6980 H   0  0  0  0  0  0  0  0  0  0  0  0
   42.0360   33.0510   39.3570 N   0  0  0  0  0  0  0  0  0  0  0  0
   42.6160   32.5640   38.2710 C   0  0  0  0  0  0  0  0  0  0  0  0
   43.5980   32.6900   37.8610 H   0  0  0  0  0  0  0  0  0  0  0  0
   41.6980   31.7910   37.6630 N   0  0  0  0  0  0  0  0  0  0  0  0
   40.5720   31.8160   38.3870 C   0  0  0  0  0  0  0  0  0  0  0  0
   39.3140   31.2350   38.2760 C   0  0  0  0  0  0  0  0  0  0  0  0
   39.1360   30.5930   37.4170 H   0  0  0  0  0  0  0  0  0  0  0  0
   38.3250   31.4210   39.1580 N   0  0  0  0  0  0  0  0  0  0  0  0
   38.5640   32.2180   40.2150 C   0  0  0  0  0  0  0  0  0  0  0  0
   37.7730   32.3870   40.9530 H   0  0  0  0  0  0  0  0  0  0  0  0
   39.7810   32.8090   40.3670 N   0  0  0  0  0  0  0  0  0  0  0  0
   40.7660   32.6240   39.4870 C   0  0  0  0  0  0  0  0  0  0  0  0
   45.8140   34.5510   42.0240 C   0  0  0  0  0  0  0  0  0  0  0  0
   46.0890   35.5500   42.4730 H   0  0  0  0  0  0  0  0  0  0  0  0
   45.9140   33.8300   42.8640 H   0  0  0  0  0  0  0  0  0  0  0  0
   46.8170   34.3240   40.9340 C   0  0  0  0  0  0  0  0  0  0  0  0
   46.8660   35.3010   40.3670 H   0  0  0  0  0  0  0  0  0  0  0  0
   46.5210   33.5840   40.1990 H   0  0  0  0  0  0  0  0  0  0  0  0
   48.1890   34.1110   41.4340 C   0  0  0  0  0  0  0  0  0  0  0  0
   48.7930   32.8880   41.1320 C   0  0  0  0  0  0  0  0  0  0  0  0
   50.0750   32.6290   41.5730 C   0  0  0  0  0  0  0  0  0  0  0  0
   50.7100   33.5960   42.2950 N   0  0  0  0  0  0  0  0  0  0  0  0
   50.1020   34.7650   42.5710 C   0  0  0  0  0  0  0  0  0  0  0  0
   48.8630   35.0080   42.1420 N   0  0  0  0  0  0  0  0  0  0  0  0
   50.5120   31.6740   41.3210 H   0  0  0  0  0  0  0  0  0  0  0  0
   50.6890   35.4850   43.1590 H   0  0  0  0  0  0  0  0  0  0  0  0
   47.9030   31.6510   40.1720 S   0  0  0  0  0  0  0  0  0  0  0  0
   47.9010   30.4600   40.9010 H   0  0  0  0  0  0  0  0  0  0  0  0
  1  2  2  0  0  0  0
  1 19  1  0  0  0  0
  2  6  1  0  0  0  0
  3  2  1  0  0  0  0
  4  5  2  0  0  0  0
  4  3  1  0  0  0  0
  5  1  1  0  0  0  0
  7 18  1  0  0  0  0
  7  4  1  0  0  0  0
  8  7  1  0  0  0  0
  9  8  1  0  0  0  0
 10  8  2  0  0  0  0
 10 11  1  0  0  0  0
 11 18  1  0  0  0  0
 12 11  2  0  0  0  0
 12 14  1  0  0  0  0
 13 12  1  0  0  0  0
 14 15  2  0  0  0  0
 15 17  1  0  0  0  0
 15 16  1  0  0  0  0
 18 17  2  0  0  0  0
 19 20  1  0  0  0  0
 19 21  1  0  0  0  0
 22 25  1  0  0  0  0
 22 19  1  0  0  0  0
 23 22  1  0  0  0  0
 24 22  1  0  0  0  0
 25 30  1  0  0  0  0
 26 25  2  0  0  0  0
 26 27  1  0  0  0  0
 27 28  2  0  0  0  0
 28 29  1  0  0  0  0
 29 32  1  0  0  0  0
 30 29  2  0  0  0  0
 31 27  1  0  0  0  0
 33 34  1  0  0  0  0
 33 26  1  0  0  0  0
M  END
>  <minimizedAffinity>
-5.00937605

>  <minimizedRMSD>
1.25140059

$$$$
