
 OpenBabel03252506353D

 36 39  0  0  1  0  0  0  0  0999 V2000
   44.4670   35.8790   45.0620 C   0  0  0  0  0  0  0  0  0  0  0  0
   45.0440   35.8340   43.7860 C   0  0  0  0  0  0  0  0  0  0  0  0
   45.8740   34.8040   43.4770 C   0  0  0  0  0  0  0  0  0  0  0  0
   46.0860   33.8790   44.4490 N   0  0  0  0  0  0  0  0  0  0  0  0
   45.5400   33.9240   45.6530 C   0  0  0  0  0  0  0  0  0  0  0  0
   44.7130   34.9270   45.9960 N   0  0  0  0  0  0  0  0  0  0  0  0
   45.8510   32.8980   46.5720 N   0  0  0  0  0  0  0  0  0  0  0  0
   45.1210   32.6370   47.8210 C   0  0  0  0  0  0  0  0  0  0  0  0
   46.2490   32.2540   48.7560 C   0  0  0  0  0  0  0  0  0  0  0  0
   47.4740   32.0360   47.9210 C   0  0  0  0  0  0  0  0  0  0  0  0
   46.8990   31.9030   46.5320 C   0  0  1  0  0  0  0  0  0  0  0  0
   43.7920   36.7100   45.3170 H   0  0  0  0  0  0  0  0  0  0  0  0
   46.3010   34.7930   42.5010 H   0  0  0  0  0  0  0  0  0  0  0  0
   44.3770   31.8330   47.7030 H   0  0  0  0  0  0  0  0  0  0  0  0
   44.5910   33.5590   48.1190 H   0  0  0  0  0  0  0  0  0  0  0  0
   45.9640   31.3200   49.3070 H   0  0  0  0  0  0  0  0  0  0  0  0
   46.4050   33.1090   49.4480 H   0  0  0  0  0  0  0  0  0  0  0  0
   48.2010   32.8700   47.9930 H   0  0  0  0  0  0  0  0  0  0  0  0
   47.9880   31.0750   48.1520 H   0  0  0  0  0  0  0  0  0  0  0  0
   47.6160   32.1770   45.7420 H   0  0  0  0  0  0  0  0  0  0  0  0
   44.7000   36.9070   42.9010 N   0  0  0  0  0  0  0  0  0  0  0  0
   44.3940   37.8310   43.2760 H   0  0  0  0  0  0  0  0  0  0  0  0
   44.7560   36.7630   41.8610 H   0  0  0  0  0  0  0  0  0  0  0  0
   46.2550   30.2310   46.3220 S   0  0  0  0  0  0  0  0  0  0  0  0
   44.5980   31.9610   44.5120 H   0  0  0  0  0  0  0  0  0  0  0  0
   44.7820   30.9940   44.1720 N   0  0  0  0  0  0  0  0  0  0  0  0
   45.4750   29.9940   44.7410 C   0  0  0  0  0  0  0  0  0  0  0  0
   45.4500   28.8950   43.9330 N   0  0  0  0  0  0  0  0  0  0  0  0
   44.7160   29.2320   42.8290 C   0  0  0  0  0  0  0  0  0  0  0  0
   44.3040   28.6470   41.6660 C   0  0  0  0  0  0  0  0  0  0  0  0
   44.6200   27.6040   41.5190 H   0  0  0  0  0  0  0  0  0  0  0  0
   43.5620   29.2810   40.7520 N   0  0  0  0  0  0  0  0  0  0  0  0
   43.1730   30.5480   40.9230 C   0  0  0  0  0  0  0  0  0  0  0  0
   42.5790   30.9480   40.1130 H   0  0  0  0  0  0  0  0  0  0  0  0
   43.5470   31.1750   42.0430 N   0  0  0  0  0  0  0  0  0  0  0  0
   44.3040   30.5520   42.9940 C   0  0  0  0  0  0  0  0  0  0  0  0
  1 12  1  0  0  0  0
  1  6  1  0  0  0  0
  2  1  2  0  0  0  0
  3  2  1  0  0  0  0
  3  4  2  0  0  0  0
  4  5  1  0  0  0  0
  5  6  2  0  0  0  0
  5  7  1  0  0  0  0
  7  8  1  0  0  0  0
  8 15  1  0  0  0  0
  8  9  1  0  0  0  0
  9 16  1  0  0  0  0
  9 17  1  0  0  0  0
 10 18  1  0  0  0  0
 10 19  1  0  0  0  0
 10  9  1  0  0  0  0
 11 20  1  6  0  0  0
 11  7  1  0  0  0  0
 11 10  1  0  0  0  0
 13  3  1  0  0  0  0
 14  8  1  0  0  0  0
 21 22  1  0  0  0  0
 21  2  1  0  0  0  0
 23 21  1  0  0  0  0
 24 11  1  0  0  0  0
 26 25  1  0  0  0  0
 26 27  1  0  0  0  0
 27 24  1  0  0  0  0
 28 27  2  0  0  0  0
 29 36  1  0  0  0  0
 29 28  1  0  0  0  0
 30 29  2  0  0  0  0
 31 30  1  0  0  0  0
 32 33  2  0  0  0  0
 32 30  1  0  0  0  0
 33 35  1  0  0  0  0
 34 33  1  0  0  0  0
 35 36  2  0  0  0  0
 36 26  1  0  0  0  0
M  END
>  <minimizedAffinity>
-5.29376936

>  <minimizedRMSD>
0.355446845

$$$$
