
 OpenBabel03252507463D

 40 43  0  0  0  0  0  0  0  0999 V2000
   48.8510   33.8570   41.2060 C   0  0  0  0  0  0  0  0  0  0  0  0
   48.9560   32.6450   40.5510 C   0  0  0  0  0  0  0  0  0  0  0  0
   50.0170   31.7710   40.7540 C   0  0  0  0  0  0  0  0  0  0  0  0
   50.9670   32.1970   41.6630 N   0  0  0  0  0  0  0  0  0  0  0  0
   50.8380   33.3820   42.2860 C   0  0  0  0  0  0  0  0  0  0  0  0
   49.8020   34.1860   42.0570 N   0  0  0  0  0  0  0  0  0  0  0  0
   50.0520   30.8450   40.2220 H   0  0  0  0  0  0  0  0  0  0  0  0
   51.6510   33.5960   42.9720 H   0  0  0  0  0  0  0  0  0  0  0  0
   47.6700   34.6720   40.8850 C   0  0  0  0  0  0  0  0  0  0  0  0
   47.9240   35.6330   40.3650 H   0  0  0  0  0  0  0  0  0  0  0  0
   46.9700   34.1450   40.2050 H   0  0  0  0  0  0  0  0  0  0  0  0
   46.8540   35.0150   42.1080 C   0  0  0  0  0  0  0  0  0  0  0  0
   47.0930   36.0620   42.3860 H   0  0  0  0  0  0  0  0  0  0  0  0
   47.1730   34.4100   43.0020 H   0  0  0  0  0  0  0  0  0  0  0  0
   45.3890   34.9580   41.8930 C   0  0  0  0  0  0  0  0  0  0  0  0
   44.5210   35.6390   42.7890 C   0  0  0  0  0  0  0  0  0  0  0  0
   42.8540   35.2780   42.1170 S   0  0  0  0  0  0  0  0  0  0  0  0
   43.6280   34.2450   40.7100 C   0  0  0  0  0  0  0  0  0  0  0  0
   44.7400   34.3360   40.9440 N   0  0  0  0  0  0  0  0  0  0  0  0
   44.7920   36.2270   43.6570 H   0  0  0  0  0  0  0  0  0  0  0  0
   42.8660   33.6160   39.7380 O   0  0  0  0  0  0  0  0  0  0  0  0
   40.9660   33.7380   37.8950 O   0  0  0  0  0  0  0  0  0  0  0  0
   41.9580   34.5770   38.6810 P   0  0  0  0  0  0  0  0  0  0  0  0
   41.1050   35.7060   39.6160 O   0  0  0  0  0  0  0  0  0  0  0  0
   40.7570   35.2100   40.4010 H   0  0  0  0  0  0  0  0  0  0  0  0
   43.0110   35.4260   37.6450 O   0  0  0  0  0  0  0  0  0  0  0  0
   43.3800   34.7830   36.9670 H   0  0  0  0  0  0  0  0  0  0  0  0
   47.6890   32.1460   39.3470 S   0  0  0  0  0  0  0  0  0  0  0  0
   49.9690   30.4950   37.9840 H   0  0  0  0  0  0  0  0  0  0  0  0
   49.4590   31.1480   37.3490 N   0  0  0  0  0  0  0  0  0  0  0  0
   48.4480   31.9440   37.7430 C   0  0  0  0  0  0  0  0  0  0  0  0
   48.0030   32.6640   36.6970 N   0  0  0  0  0  0  0  0  0  0  0  0
   48.7140   32.3510   35.5990 C   0  0  0  0  0  0  0  0  0  0  0  0
   48.7050   32.7600   34.2780 C   0  0  0  0  0  0  0  0  0  0  0  0
   47.9470   33.5190   34.0330 H   0  0  0  0  0  0  0  0  0  0  0  0
   49.5880   32.2290   33.3890 N   0  0  0  0  0  0  0  0  0  0  0  0
   50.4600   31.3010   33.8530 C   0  0  0  0  0  0  0  0  0  0  0  0
   51.1310   30.9290   33.0740 H   0  0  0  0  0  0  0  0  0  0  0  0
   50.5080   30.8680   35.1420 N   0  0  0  0  0  0  0  0  0  0  0  0
   49.6230   31.3980   36.0320 C   0  0  0  0  0  0  0  0  0  0  0  0
  1  6  1  0  0  0  0
  2  3  1  0  0  0  0
  2  1  2  0  0  0  0
  3  4  2  0  0  0  0
  4  5  1  0  0  0  0
  5  8  1  0  0  0  0
  6  5  2  0  0  0  0
  7  3  1  0  0  0  0
  9  1  1  0  0  0  0
  9 12  1  0  0  0  0
 10  9  1  0  0  0  0
 11  9  1  0  0  0  0
 12 13  1  0  0  0  0
 12 14  1  0  0  0  0
 15 12  1  0  0  0  0
 15 16  2  0  0  0  0
 16 20  1  0  0  0  0
 17 16  1  0  0  0  0
 18 19  2  0  0  0  0
 18 17  1  0  0  0  0
 19 15  1  0  0  0  0
 21 18  1  0  0  0  0
 22 23  2  0  0  0  0
 23 24  1  0  0  0  0
 23 21  1  0  0  0  0
 24 25  1  0  0  0  0
 26 23  1  0  0  0  0
 27 26  1  0  0  0  0
 28  2  1  0  0  0  0
 30 31  1  0  0  0  0
 30 29  1  0  0  0  0
 31 28  1  0  0  0  0
 32 31  2  0  0  0  0
 33 40  1  0  0  0  0
 33 32  1  0  0  0  0
 34 33  2  0  0  0  0
 35 34  1  0  0  0  0
 36 37  2  0  0  0  0
 36 34  1  0  0  0  0
 37 39  1  0  0  0  0
 38 37  1  0  0  0  0
 39 40  2  0  0  0  0
 40 30  1  0  0  0  0
M  END
>  <minimizedAffinity>
-5.35250521

>  <minimizedRMSD>
3.00882506

$$$$
