
 OpenBabel03252502013D

 37 41  0  0  0  0  0  0  0  0999 V2000
   47.3780   32.3290   47.9450 C   0  0  0  0  0  0  0  0  0  0  0  0
   46.8560   31.0590   48.0640 C   0  0  0  0  0  0  0  0  0  0  0  0
   45.9290   30.7020   47.1300 C   0  0  0  0  0  0  0  0  0  0  0  0
   45.5660   31.5590   46.1650 N   0  0  0  0  0  0  0  0  0  0  0  0
   46.0760   32.7880   46.0580 C   0  0  0  0  0  0  0  0  0  0  0  0
   46.9780   33.1350   46.9660 N   0  0  0  0  0  0  0  0  0  0  0  0
   48.1250   32.6140   48.6990 H   0  0  0  0  0  0  0  0  0  0  0  0
   45.3280   29.4430   47.1450 N   0  0  0  0  0  0  0  0  0  0  0  0
   45.1760   28.5580   48.1470 C   0  0  0  0  0  0  0  0  0  0  0  0
   45.5200   28.7030   49.1620 H   0  0  0  0  0  0  0  0  0  0  0  0
   44.5300   27.4630   47.7010 N   0  0  0  0  0  0  0  0  0  0  0  0
   44.2560   27.6290   46.3930 C   0  0  0  0  0  0  0  0  0  0  0  0
   43.6200   26.8220   45.4710 C   0  0  0  0  0  0  0  0  0  0  0  0
   43.2420   25.8540   45.7900 H   0  0  0  0  0  0  0  0  0  0  0  0
   43.5120   27.3040   44.2200 N   0  0  0  0  0  0  0  0  0  0  0  0
   43.9960   28.5140   43.8620 C   0  0  0  0  0  0  0  0  0  0  0  0
   43.8760   28.8480   42.8270 H   0  0  0  0  0  0  0  0  0  0  0  0
   44.6080   29.2750   44.7740 N   0  0  0  0  0  0  0  0  0  0  0  0
   44.7510   28.8500   46.0580 C   0  0  0  0  0  0  0  0  0  0  0  0
   45.8280   33.8730   45.0990 C   0  0  0  0  0  0  0  0  0  0  0  0
   44.8790   34.8220   45.2720 N   0  0  0  0  0  0  0  0  0  0  0  0
   44.6230   35.8190   44.4280 C   0  0  0  0  0  0  0  0  0  0  0  0
   45.3440   35.9310   43.2940 N   0  0  0  0  0  0  0  0  0  0  0  0
   46.3200   35.0460   43.0050 C   0  0  0  0  0  0  0  0  0  0  0  0
   47.0560   35.1670   41.8390 C   0  0  0  0  0  0  0  0  0  0  0  0
   48.0490   34.2720   41.5430 C   0  0  0  0  0  0  0  0  0  0  0  0
   48.2820   33.2570   42.4410 C   0  0  0  0  0  0  0  0  0  0  0  0
   47.5310   33.1700   43.5840 C   0  0  0  0  0  0  0  0  0  0  0  0
   46.5270   34.0380   43.9290 C   0  0  0  0  0  0  0  0  0  0  0  0
   43.8380   36.5240   44.6680 H   0  0  0  0  0  0  0  0  0  0  0  0
   46.8510   35.9770   41.1490 H   0  0  0  0  0  0  0  0  0  0  0  0
   48.6530   34.3210   40.6480 H   0  0  0  0  0  0  0  0  0  0  0  0
   49.0540   32.5240   42.2550 H   0  0  0  0  0  0  0  0  0  0  0  0
   47.7550   32.3450   44.2670 H   0  0  0  0  0  0  0  0  0  0  0  0
   47.2770   30.2030   49.0980 N   0  0  0  0  0  0  0  0  0  0  0  0
   46.7620   30.1210   50.0010 H   0  0  0  0  0  0  0  0  0  0  0  0
   48.1150   29.5640   49.1150 H   0  0  0  0  0  0  0  0  0  0  0  0
  1  2  1  0  0  0  0
  1  7  1  0  0  0  0
  2 35  1  0  0  0  0
  3  8  1  0  0  0  0
  3  2  2  0  0  0  0
  4  3  1  0  0  0  0
  5  4  2  0  0  0  0
  5  6  1  0  0  0  0
  6  1  2  0  0  0  0
  8  9  1  0  0  0  0
  9 10  1  0  0  0  0
 11  9  2  0  0  0  0
 12 11  1  0  0  0  0
 13 14  1  0  0  0  0
 13 12  2  0  0  0  0
 15 13  1  0  0  0  0
 16 15  2  0  0  0  0
 16 18  1  0  0  0  0
 17 16  1  0  0  0  0
 18 19  2  0  0  0  0
 19 12  1  0  0  0  0
 19  8  1  0  0  0  0
 20 21  1  0  0  0  0
 20  5  1  0  0  0  0
 22 30  1  0  0  0  0
 22 21  2  0  0  0  0
 23 22  1  0  0  0  0
 24 23  2  0  0  0  0
 24 29  1  0  0  0  0
 25 24  1  0  0  0  0
 26 25  2  0  0  0  0
 26 27  1  0  0  0  0
 27 28  2  0  0  0  0
 28 29  1  0  0  0  0
 28 34  1  0  0  0  0
 29 20  2  0  0  0  0
 31 25  1  0  0  0  0
 32 26  1  0  0  0  0
 33 27  1  0  0  0  0
 35 37  1  0  0  0  0
 35 36  1  0  0  0  0
M  END
>  <minimizedAffinity>
-6.67490196

>  <minimizedRMSD>
0.579135299

$$$$
