
 OpenBabel03252507383D

 41 46  0  0  0  0  0  0  0  0999 V2000
   45.5010   34.8020   43.4920 C   0  0  0  0  0  0  0  0  0  0  0  0
   46.2050   33.7140   44.0810 C   0  0  0  0  0  0  0  0  0  0  0  0
   46.0150   33.5200   45.4430 C   0  0  0  0  0  0  0  0  0  0  0  0
   45.2040   34.3360   46.1210 N   0  0  0  0  0  0  0  0  0  0  0  0
   44.5470   35.3640   45.5320 C   0  0  0  0  0  0  0  0  0  0  0  0
   44.7060   35.5790   44.2350 N   0  0  0  0  0  0  0  0  0  0  0  0
   46.8550   33.0540   43.5540 H   0  0  0  0  0  0  0  0  0  0  0  0
   43.9280   35.9360   46.2140 H   0  0  0  0  0  0  0  0  0  0  0  0
   46.9920   32.6980   47.5170 C   0  0  0  0  0  0  0  0  0  0  0  0
   46.6800   32.4360   46.1790 C   0  0  0  0  0  0  0  0  0  0  0  0
   47.0080   31.2220   45.6600 C   0  0  0  0  0  0  0  0  0  0  0  0
   47.6350   30.2370   46.3930 C   0  0  0  0  0  0  0  0  0  0  0  0
   48.0470   28.9890   46.0950 N   0  0  0  0  0  0  0  0  0  0  0  0
   48.6170   28.4570   47.2320 C   0  0  0  0  0  0  0  0  0  0  0  0
   48.5450   29.3800   48.1970 N   0  0  0  0  0  0  0  0  0  0  0  0
   47.9480   30.4780   47.7060 C   0  0  0  0  0  0  0  0  0  0  0  0
   47.6290   31.7010   48.2660 C   0  0  0  0  0  0  0  0  0  0  0  0
   46.7760   33.6300   48.0290 H   0  0  0  0  0  0  0  0  0  0  0  0
   46.7540   31.0350   44.6090 H   0  0  0  0  0  0  0  0  0  0  0  0
   47.9090   28.5920   45.1410 H   0  0  0  0  0  0  0  0  0  0  0  0
   48.9940   27.4480   47.1310 H   0  0  0  0  0  0  0  0  0  0  0  0
   47.8930   31.8530   49.3040 H   0  0  0  0  0  0  0  0  0  0  0  0
   45.6820   35.0080   42.1310 O   0  0  0  0  0  0  0  0  0  0  0  0
   44.7470   34.5940   41.2220 C   0  0  0  0  0  0  0  0  0  0  0  0
   45.4440   33.8130   40.3710 C   0  0  0  0  0  0  0  0  0  0  0  0
   44.1280   33.2620   39.1280 S   0  0  0  0  0  0  0  0  0  0  0  0
   42.8310   34.2690   40.0860 C   0  0  0  0  0  0  0  0  0  0  0  0
   43.4770   34.6750   40.8860 N   0  0  0  0  0  0  0  0  0  0  0  0
   46.4210   33.2930   39.9880 H   0  0  0  0  0  0  0  0  0  0  0  0
   41.3950   34.4790   39.8710 N   0  0  0  0  0  0  0  0  0  0  0  0
   40.7380   35.5300   40.3480 C   0  0  0  0  0  0  0  0  0  0  0  0
   41.1250   36.3590   40.9400 H   0  0  0  0  0  0  0  0  0  0  0  0
   39.4720   35.3470   39.9380 N   0  0  0  0  0  0  0  0  0  0  0  0
   39.3800   34.2120   39.2320 C   0  0  0  0  0  0  0  0  0  0  0  0
   38.3240   33.5710   38.5960 C   0  0  0  0  0  0  0  0  0  0  0  0
   37.3300   33.9800   38.6060 H   0  0  0  0  0  0  0  0  0  0  0  0
   38.4990   32.4120   37.9380 N   0  0  0  0  0  0  0  0  0  0  0  0
   39.7370   31.8540   37.8960 C   0  0  0  0  0  0  0  0  0  0  0  0
   39.8850   30.9130   37.3640 H   0  0  0  0  0  0  0  0  0  0  0  0
   40.7800   32.4740   38.5170 N   0  0  0  0  0  0  0  0  0  0  0  0
   40.6320   33.6350   39.1810 C   0  0  0  0  0  0  0  0  0  0  0  0
  1  2  2  0  0  0  0
  1  6  1  0  0  0  0
  2  3  1  0  0  0  0
  3  4  2  0  0  0  0
  3 10  1  0  0  0  0
  5  4  1  0  0  0  0
  5  8  1  0  0  0  0
  6  5  2  0  0  0  0
  7  2  1  0  0  0  0
  9 18  1  0  0  0  0
  9 17  1  0  0  0  0
 10  9  2  0  0  0  0
 11 10  1  0  0  0  0
 11 12  2  0  0  0  0
 12 16  1  0  0  0  0
 13 12  1  0  0  0  0
 13 14  1  0  0  0  0
 14 15  2  0  0  0  0
 16 15  1  0  0  0  0
 16 17  2  0  0  0  0
 17 22  1  0  0  0  0
 19 11  1  0  0  0  0
 20 13  1  0  0  0  0
 21 14  1  0  0  0  0
 23  1  1  0  0  0  0
 24 23  1  0  0  0  0
 25 24  2  0  0  0  0
 26 27  1  0  0  0  0
 26 25  1  0  0  0  0
 27 28  2  0  0  0  0
 28 24  1  0  0  0  0
 29 25  1  0  0  0  0
 30 27  1  0  0  0  0
 30 31  1  0  0  0  0
 31 32  1  0  0  0  0
 33 31  2  0  0  0  0
 34 33  1  0  0  0  0
 35 36  1  0  0  0  0
 35 34  2  0  0  0  0
 37 35  1  0  0  0  0
 38 37  2  0  0  0  0
 38 40  1  0  0  0  0
 39 38  1  0  0  0  0
 40 41  2  0  0  0  0
 41 34  1  0  0  0  0
 41 30  1  0  0  0  0
M  END
>  <minimizedAffinity>
-7.1622386

>  <minimizedRMSD>
1.14125574

$$$$
