REMARK  Name = 
REMARK  2 active torsions:
REMARK  status: ('A' for Active; 'I' for Inactive)
REMARK    1  A    between atoms: C_3  and  C_9
REMARK    2  A    between atoms: C_13  and  N_20
REMARK                            x       y       z     vdW  Elec       q    Type
REMARK                         _______ _______ _______ _____ _____    ______ ____
ROOT
ATOM      1 CL   UNL     1      44.743  33.191  41.231  0.00  0.00    +0.000 Cl
ATOM      2  C   UNL     1      46.267  34.002  41.053  0.00  0.00    +0.000 A 
ATOM      3  C   UNL     1      46.794  34.737  42.063  0.00  0.00    +0.000 A 
ATOM      4  C   UNL     1      48.013  35.341  41.815  0.00  0.00    +0.000 A 
ATOM      5  C   UNL     1      48.669  35.221  40.627  0.00  0.00    +0.000 A 
ATOM      6  C   UNL     1      48.133  34.481  39.617  0.00  0.00    +0.000 A 
ATOM      7  C   UNL     1      46.916  33.867  39.840  0.00  0.00    +0.000 A 
ATOM      8  H   UNL     1      48.465  35.936  42.600  0.00  0.00    +0.000 HD
ATOM      9  H   UNL     1      49.625  35.726  40.505  0.00  0.00    +0.000 HD
ATOM     10  H   UNL     1      48.669  34.397  38.680  0.00  0.00    +0.000 HD
ENDROOT
BRANCH   7  11
ATOM     11  N   UNL     1      46.390  33.103  38.756  0.00  0.00    +0.000 N 
ATOM     12  C   UNL     1      45.865  33.727  37.682  0.00  0.00    +0.000 A 
ATOM     13  H   UNL     1      45.713  34.773  37.375  0.00  0.00    +0.000 HD
ATOM     14  N   UNL     1      45.424  32.835  36.772  0.00  0.00    +0.000 NA
ATOM     15  C   UNL     1      45.668  31.605  37.267  0.00  0.00    +0.000 A 
ATOM     16  C   UNL     1      45.461  30.305  36.836  0.00  0.00    +0.000 A 
ATOM     17  H   UNL     1      44.989  30.229  35.868  0.00  0.00    +0.000 HD
ATOM     18  N   UNL     1      45.848  29.267  37.625  0.00  0.00    +0.000 NA
ATOM     19  C   UNL     1      46.433  29.526  38.827  0.00  0.00    +0.000 A 
ATOM     20  H   UNL     1      46.679  28.608  39.328  0.00  0.00    +0.000 HD
ATOM     21  N   UNL     1      46.660  30.785  39.300  0.00  0.00    +0.000 NA
ATOM     22  C   UNL     1      46.267  31.789  38.497  0.00  0.00    +0.000 A 
ENDBRANCH   7  11
BRANCH   3  25
ATOM     23  C   UNL     1      44.476  35.967  44.792  0.00  0.00    +0.000 A 
ATOM     24  C   UNL     1      45.167  35.884  43.573  0.00  0.00    +0.000 A 
ATOM     25  C   UNL     1      46.069  34.843  43.313  0.00  0.00    +0.000 A 
ATOM     26  N   UNL     1      46.214  33.950  44.308  0.00  0.00    +0.000 NA
ATOM     27  C   UNL     1      45.552  34.033  45.470  0.00  0.00    +0.000 A 
ATOM     28  N   UNL     1      44.683  35.038  45.718  0.00  0.00    +0.000 NA
ATOM     29  H   UNL     1      43.782  36.775  44.980  0.00  0.00    +0.000 HD
ATOM     30  H   UNL     1      44.998  36.646  42.813  0.00  0.00    +0.000 HD
ATOM     31  H   UNL     1      45.752  33.252  46.197  0.00  0.00    +0.000 HD
ENDBRANCH   3  25
TORSDOF 2
