
 OpenBabel03242514053D

 46 50  0  0  1  0  0  0  0  0999 V2000
   46.7800   32.6670   38.8800 C   0  0  1  0  0  0  0  0  0  0  0  0
   45.5880   33.1760   38.0430 C   0  0  0  0  0  0  0  0  0  0  0  0
   45.0750   31.9150   37.3360 C   0  0  0  0  0  0  0  0  0  0  0  0
   46.1270   31.6040   36.2760 C   0  0  0  0  0  0  0  0  0  0  0  0
   47.4730   31.3920   36.8460 C   0  0  0  0  0  0  0  0  0  0  0  0
   47.8700   32.1660   38.0430 C   0  0  2  0  0  0  0  0  0  0  0  0
   46.3120   31.8110   39.4560 H   0  0  0  0  0  0  0  0  0  0  0  0
   44.8330   33.5860   38.7220 H   0  0  0  0  0  0  0  0  0  0  0  0
   46.0100   33.8690   37.3150 H   0  0  0  0  0  0  0  0  0  0  0  0
   44.9970   31.0640   38.0160 H   0  0  0  0  0  0  0  0  0  0  0  0
   44.1460   32.1740   36.7880 H   0  0  0  0  0  0  0  0  0  0  0  0
   45.8310   30.7260   35.6720 H   0  0  0  0  0  0  0  0  0  0  0  0
   46.0960   32.4660   35.5640 H   0  0  0  0  0  0  0  0  0  0  0  0
   48.2110   31.5870   36.0130 H   0  0  0  0  0  0  0  0  0  0  0  0
   47.5810   30.2850   37.0170 H   0  0  0  0  0  0  0  0  0  0  0  0
   48.5250   33.0160   37.7200 H   0  0  0  0  0  0  0  0  0  0  0  0
   48.7200   31.2440   38.8250 N   0  0  0  0  0  0  0  0  0  0  0  0
   48.4400   30.3090   39.7770 C   0  0  0  0  0  0  0  0  0  0  0  0
   47.4200   30.1420   40.0850 H   0  0  0  0  0  0  0  0  0  0  0  0
   49.5990   29.7480   40.1580 N   0  0  0  0  0  0  0  0  0  0  0  0
   50.6070   30.2950   39.4800 C   0  0  0  0  0  0  0  0  0  0  0  0
   51.9830   30.1360   39.4390 C   0  0  0  0  0  0  0  0  0  0  0  0
   52.3770   29.3850   40.1140 H   0  0  0  0  0  0  0  0  0  0  0  0
   52.7980   30.8370   38.6380 N   0  0  0  0  0  0  0  0  0  0  0  0
   52.2390   31.7520   37.8260 C   0  0  0  0  0  0  0  0  0  0  0  0
   52.9160   32.3050   37.1880 H   0  0  0  0  0  0  0  0  0  0  0  0
   50.9100   31.9500   37.8230 N   0  0  0  0  0  0  0  0  0  0  0  0
   50.0750   31.2440   38.6320 C   0  0  0  0  0  0  0  0  0  0  0  0
   46.8990   34.6470   41.9840 C   0  0  0  0  0  0  0  0  0  0  0  0
   47.9880   35.4510   41.7440 C   0  0  0  0  0  0  0  0  0  0  0  0
   48.7420   35.4180   40.5910 C   0  0  0  0  0  0  0  0  0  0  0  0
   48.3020   34.4740   39.6550 C   0  0  0  0  0  0  0  0  0  0  0  0
   47.1940   33.6460   39.8880 C   0  0  0  0  0  0  0  0  0  0  0  0
   46.5070   33.7440   41.0500 N   0  0  0  0  0  0  0  0  0  0  0  0
   48.2550   36.1520   42.5270 H   0  0  0  0  0  0  0  0  0  0  0  0
   49.5900   36.0450   40.4040 H   0  0  0  0  0  0  0  0  0  0  0  0
   48.8910   34.4530   38.7480 H   0  0  0  0  0  0  0  0  0  0  0  0
   45.5650   34.0330   45.3370 C   0  0  0  0  0  0  0  0  0  0  0  0
   44.7010   35.0960   45.5550 C   0  0  0  0  0  0  0  0  0  0  0  0
   44.5840   36.0280   44.5300 C   0  0  0  0  0  0  0  0  0  0  0  0
   45.3170   35.8450   43.3840 N   0  0  0  0  0  0  0  0  0  0  0  0
   46.1490   34.7800   43.2300 C   0  0  0  0  0  0  0  0  0  0  0  0
   46.2710   33.8910   44.1870 N   0  0  0  0  0  0  0  0  0  0  0  0
   45.7200   33.2600   46.0780 H   0  0  0  0  0  0  0  0  0  0  0  0
   44.1640   35.1660   46.4820 H   0  0  0  0  0  0  0  0  0  0  0  0
   43.9320   36.8700   44.6450 H   0  0  0  0  0  0  0  0  0  0  0  0
  1  7  1  1  0  0  0
  1 33  1  0  0  0  0
  2  8  1  0  0  0  0
  2  1  1  0  0  0  0
  3 10  1  0  0  0  0
  3  2  1  0  0  0  0
  4  5  1  0  0  0  0
  4  3  1  0  0  0  0
  5 15  1  0  0  0  0
  5  6  1  0  0  0  0
  6 16  1  6  0  0  0
  6 17  1  0  0  0  0
  6  1  1  0  0  0  0
  9  2  1  0  0  0  0
 11  3  1  0  0  0  0
 12  4  1  0  0  0  0
 13  4  1  0  0  0  0
 14  5  1  0  0  0  0
 17 18  1  0  0  0  0
 18 19  1  0  0  0  0
 18 20  2  0  0  0  0
 21 20  1  0  0  0  0
 22 21  1  0  0  0  0
 22 23  1  0  0  0  0
 24 22  2  0  0  0  0
 25 24  1  0  0  0  0
 26 25  1  0  0  0  0
 27 25  2  0  0  0  0
 27 28  1  0  0  0  0
 28 17  1  0  0  0  0
 28 21  2  0  0  0  0
 29 42  1  0  0  0  0
 30 29  1  0  0  0  0
 30 35  1  0  0  0  0
 31 30  2  0  0  0  0
 32 33  2  0  0  0  0
 32 31  1  0  0  0  0
 33 34  1  0  0  0  0
 34 29  2  0  0  0  0
 36 31  1  0  0  0  0
 37 32  1  0  0  0  0
 38 39  1  0  0  0  0
 38 44  1  0  0  0  0
 39 45  1  0  0  0  0
 40 46  1  0  0  0  0
 40 39  2  0  0  0  0
 41 40  1  0  0  0  0
 42 41  2  0  0  0  0
 42 43  1  0  0  0  0
 43 38  2  0  0  0  0
M  END
>  <minimizedAffinity>
-5.84445238

>  <minimizedRMSD>
1.93497396

$$$$
