REMARK  Name = 
REMARK  3 active torsions:
REMARK  status: ('A' for Active; 'I' for Inactive)
REMARK    1  A    between atoms: C_1  and  C_18
REMARK    2  A    between atoms: C_3  and  C_4
REMARK    3  A    between atoms: C_16  and  N_33
REMARK                            x       y       z     vdW  Elec       q    Type
REMARK                         _______ _______ _______ _____ _____    ______ ____
ROOT
ATOM      1  C   UNL     1      46.383  32.668  45.865  0.00  0.00    +0.000 C 
ATOM      2  C   UNL     1      46.968  32.839  47.204  0.00  0.00    +0.000 C 
ATOM      3  C   UNL     1      45.546  32.205  46.951  0.00  0.00    +0.000 C 
ATOM      4  H   UNL     1      47.143  32.030  45.285  0.00  0.00    +0.000 HD
ATOM      5  H   UNL     1      47.694  32.166  47.674  0.00  0.00    +0.000 HD
ATOM      6  H   UNL     1      46.928  33.865  47.605  0.00  0.00    +0.000 HD
ATOM      7  H   UNL     1      44.843  32.873  47.545  0.00  0.00    +0.000 HD
ENDROOT
BRANCH   3   8
ATOM      8  C   UNL     1      45.303  30.803  47.301  0.00  0.00    +0.000 A 
ATOM      9  C   UNL     1      45.171  30.269  48.544  0.00  0.00    +0.000 A 
ATOM     10  C   UNL     1      45.065  28.917  48.838  0.00  0.00    +0.000 A 
ATOM     11  C   UNL     1      45.099  28.035  47.749  0.00  0.00    +0.000 A 
ATOM     12  C   UNL     1      45.231  28.555  46.461  0.00  0.00    +0.000 A 
ATOM     13  C   UNL     1      45.197  27.654  45.415  0.00  0.00    +0.000 A 
ATOM     14  C   UNL     1      45.253  28.134  44.112  0.00  0.00    +0.000 A 
ATOM     15  C   UNL     1      45.338  29.486  43.862  0.00  0.00    +0.000 A 
ATOM     16  C   UNL     1      45.370  30.341  44.939  0.00  0.00    +0.000 A 
ATOM     17  C   UNL     1      45.326  29.911  46.257  0.00  0.00    +0.000 A 
ATOM     18  H   UNL     1      45.150  30.990  49.358  0.00  0.00    +0.000 HD
ATOM     19  H   UNL     1      44.961  28.563  49.856  0.00  0.00    +0.000 HD
ATOM     20  H   UNL     1      45.021  26.976  47.961  0.00  0.00    +0.000 HD
ATOM     21  H   UNL     1      45.127  26.597  45.637  0.00  0.00    +0.000 HD
ATOM     22  H   UNL     1      45.221  27.329  43.359  0.00  0.00    +0.000 HD
ATOM     23  H   UNL     1      45.367  29.659  42.804  0.00  0.00    +0.000 HD
ATOM     24  H   UNL     1      45.349  31.297  44.502  0.00  0.00    +0.000 HD
ENDBRANCH   3   8
BRANCH   1  29
ATOM     25  C   UNL     1      44.612  35.740  44.844  0.00  0.00    +0.000 A 
ATOM     26  C   UNL     1      45.142  35.974  43.525  0.00  0.00    +0.000 A 
ATOM     27  C   UNL     1      46.120  35.046  43.033  0.00  0.00    +0.000 A 
ATOM     28  N   UNL     1      46.496  34.022  43.801  0.00  0.00    +0.000 NA
ATOM     29  C   UNL     1      45.953  33.848  45.058  0.00  0.00    +0.000 A 
ATOM     30  N   UNL     1      45.045  34.679  45.558  0.00  0.00    +0.000 NA
ATOM     31  H   UNL     1      43.887  36.474  45.144  0.00  0.00    +0.000 HD
ATOM     32  H   UNL     1      44.799  36.822  42.949  0.00  0.00    +0.000 HD
BRANCH  27  33
ATOM     33  N   UNL     1      46.648  35.270  41.729  0.00  0.00    +0.000 N 
ATOM     34  C   UNL     1      46.569  36.370  40.955  0.00  0.00    +0.000 A 
ATOM     35  H   UNL     1      46.050  37.262  41.289  0.00  0.00    +0.000 HD
ATOM     36  N   UNL     1      47.195  36.202  39.780  0.00  0.00    +0.000 NA
ATOM     37  C   UNL     1      47.704  34.946  39.779  0.00  0.00    +0.000 A 
ATOM     38  C   UNL     1      48.434  34.189  38.886  0.00  0.00    +0.000 A 
ATOM     39  H   UNL     1      48.708  34.640  37.923  0.00  0.00    +0.000 HD
ATOM     40  N   UNL     1      48.798  32.920  39.200  0.00  0.00    +0.000 NA
ATOM     41  C   UNL     1      48.453  32.375  40.392  0.00  0.00    +0.000 A 
ATOM     42  H   UNL     1      48.743  31.361  40.646  0.00  0.00    +0.000 HD
ATOM     43  N   UNL     1      47.732  33.107  41.288  0.00  0.00    +0.000 NA
ATOM     44  C   UNL     1      47.361  34.358  41.002  0.00  0.00    +0.000 A 
ENDBRANCH  27  33
ENDBRANCH   1  29
TORSDOF 3
