
 OpenBabel03242511033D

 49 53  0  0  0  0  0  0  0  0999 V2000
   35.9900   29.7370   40.8680 C   0  0  0  0  0  0  0  0  0  0  0  0
   35.0480   29.9660   41.3620 H   0  0  0  0  0  0  0  0  0  0  0  0
   35.7320   29.3890   39.8460 H   0  0  0  0  0  0  0  0  0  0  0  0
   36.0360   27.0870   39.5400 Cl  0  0  0  0  0  0  0  0  0  0  0  0
   36.8580   27.4680   41.0500 C   0  0  0  0  0  0  0  0  0  0  0  0
   36.7920   28.7330   41.6150 C   0  0  0  0  0  0  0  0  0  0  0  0
   37.4340   29.0330   42.7980 C   0  0  0  0  0  0  0  0  0  0  0  0
   38.1750   28.0290   43.4460 C   0  0  0  0  0  0  0  0  0  0  0  0
   38.2330   26.7700   42.8730 C   0  0  0  0  0  0  0  0  0  0  0  0
   37.5760   26.4710   41.6670 C   0  0  0  0  0  0  0  0  0  0  0  0
   37.3610   30.0310   43.2070 H   0  0  0  0  0  0  0  0  0  0  0  0
   38.6870   28.2440   44.3760 H   0  0  0  0  0  0  0  0  0  0  0  0
   38.7930   25.9730   43.3430 H   0  0  0  0  0  0  0  0  0  0  0  0
   37.6730   25.1580   41.1280 N   0  0  0  0  0  0  0  0  0  0  0  0
   36.9600   24.0370   41.2730 C   0  0  0  0  0  0  0  0  0  0  0  0
   36.1020   24.0110   41.9170 H   0  0  0  0  0  0  0  0  0  0  0  0
   37.5110   23.0760   40.5120 N   0  0  0  0  0  0  0  0  0  0  0  0
   38.5790   23.6000   39.8840 C   0  0  0  0  0  0  0  0  0  0  0  0
   39.4730   23.0020   38.9920 C   0  0  0  0  0  0  0  0  0  0  0  0
   39.3900   21.9720   38.6890 H   0  0  0  0  0  0  0  0  0  0  0  0
   40.4940   23.7160   38.4670 N   0  0  0  0  0  0  0  0  0  0  0  0
   40.5620   25.0000   38.8720 C   0  0  0  0  0  0  0  0  0  0  0  0
   41.3670   25.6110   38.4750 H   0  0  0  0  0  0  0  0  0  0  0  0
   39.7370   25.6330   39.7240 N   0  0  0  0  0  0  0  0  0  0  0  0
   38.7020   24.9270   40.2620 C   0  0  0  0  0  0  0  0  0  0  0  0
   37.7020   31.3610   40.0060 C   0  0  0  0  0  3  0  0  0  0  0  0
   36.7050   31.0520   40.7880 C   0  0  0  0  0  3  0  0  0  0  0  0
   40.1600   34.0540   40.4750 C   0  0  0  0  0  0  0  0  0  0  0  0
   39.3610   35.1510   40.1260 C   0  0  0  0  0  0  0  0  0  0  0  0
   38.0430   35.0390   39.7420 C   0  0  0  0  0  0  0  0  0  0  0  0
   37.5010   33.7770   39.7060 C   0  0  0  0  0  0  0  0  0  0  0  0
   38.2880   32.6850   40.0500 C   0  0  0  0  0  0  0  0  0  0  0  0
   39.5580   32.8610   40.4120 N   0  0  0  0  0  0  0  0  0  0  0  0
   39.7960   36.1430   40.1580 H   0  0  0  0  0  0  0  0  0  0  0  0
   37.4900   35.9280   39.4880 H   0  0  0  0  0  0  0  0  0  0  0  0
   36.4650   33.7170   39.4020 H   0  0  0  0  0  0  0  0  0  0  0  0
   44.7330   36.6040   43.4770 C   0  0  0  0  0  0  0  0  0  0  0  0
   45.7780   35.9520   42.8150 C   0  0  0  0  0  0  0  0  0  0  0  0
   45.4480   35.0950   41.7680 C   0  0  0  0  0  0  0  0  0  0  0  0
   44.1420   34.9100   41.4120 N   0  0  0  0  0  0  0  0  0  0  0  0
   43.1620   35.5730   42.0940 C   0  0  0  0  0  0  0  0  0  0  0  0
   43.4680   36.4110   43.1190 N   0  0  0  0  0  0  0  0  0  0  0  0
   41.5440   34.2730   40.8670 C   0  0  0  0  0  0  0  0  0  0  0  0
   42.4170   33.4740   40.4250 O   0  0  0  0  0  0  0  0  0  0  0  0
   41.7990   35.3800   41.7240 N   0  0  0  0  0  0  0  0  0  0  0  0
   44.9260   37.2850   44.3030 H   0  0  0  0  0  0  0  0  0  0  0  0
   46.8050   36.1180   43.1190 H   0  0  0  0  0  0  0  0  0  0  0  0
   46.2400   34.5670   41.2260 H   0  0  0  0  0  0  0  0  0  0  0  0
   41.0770   36.0390   42.0890 H   0  0  0  0  0  0  0  0  0  0  0  0
  1  2  1  0  0  0  0
  1  6  1  0  0  0  0
  3  1  1  0  0  0  0
  4  5  1  0  0  0  0
  5  6  2  0  0  0  0
  5 10  1  0  0  0  0
  6  7  1  0  0  0  0
  7 11  1  0  0  0  0
  7  8  2  0  0  0  0
  8 12  1  0  0  0  0
  9 13  1  0  0  0  0
  9  8  1  0  0  0  0
 10  9  2  0  0  0  0
 14 15  1  0  0  0  0
 14 10  1  0  0  0  0
 15 16  1  0  0  0  0
 17 15  2  0  0  0  0
 18 25  1  0  0  0  0
 18 17  1  0  0  0  0
 19 18  2  0  0  0  0
 20 19  1  0  0  0  0
 21 22  2  0  0  0  0
 21 19  1  0  0  0  0
 22 24  1  0  0  0  0
 23 22  1  0  0  0  0
 24 25  2  0  0  0  0
 25 14  1  0  0  0  0
 26 32  1  0  0  0  0
 26 27  2  0  0  0  0
 27  1  1  0  0  0  0
 28 43  1  0  0  0  0
 29 34  1  0  0  0  0
 29 28  2  0  0  0  0
 30 29  1  0  0  0  0
 31 30  2  0  0  0  0
 31 32  1  0  0  0  0
 32 33  2  0  0  0  0
 33 28  1  0  0  0  0
 35 30  1  0  0  0  0
 36 31  1  0  0  0  0
 37 46  1  0  0  0  0
 38 47  1  0  0  0  0
 38 37  2  0  0  0  0
 39 38  1  0  0  0  0
 40 39  2  0  0  0  0
 40 41  1  0  0  0  0
 41 42  2  0  0  0  0
 42 37  1  0  0  0  0
 43 45  1  0  0  0  0
 44 43  2  0  0  0  0
 45 49  1  0  0  0  0
 45 41  1  0  0  0  0
 48 39  1  0  0  0  0
M  END
>  <minimizedAffinity>
-8.07939053

$$$$

 OpenBabel03242511033D

 49 53  0  0  0  0  0  0  0  0999 V2000
   35.4830   28.7880   39.8400 C   0  0  0  0  0  0  0  0  0  0  0  0
   34.6680   28.2770   39.3330 H   0  0  0  0  0  0  0  0  0  0  0  0
   35.0290   29.3420   40.6870 H   0  0  0  0  0  0  0  0  0  0  0  0
   36.5880   31.1640   41.2250 Cl  0  0  0  0  0  0  0  0  0  0  0  0
   36.7890   30.8180   39.5110 C   0  0  0  0  0  0  0  0  0  0  0  0
   36.2430   29.6840   38.9280 C   0  0  0  0  0  0  0  0  0  0  0  0
   36.3980   29.4120   37.5860 C   0  0  0  0  0  0  0  0  0  0  0  0
   37.1310   30.3080   36.7880 C   0  0  0  0  0  0  0  0  0  0  0  0
   37.6710   31.4380   37.3810 C   0  0  0  0  0  0  0  0  0  0  0  0
   37.5080   31.7090   38.7500 C   0  0  0  0  0  0  0  0  0  0  0  0
   35.9580   28.5180   37.1680 H   0  0  0  0  0  0  0  0  0  0  0  0
   37.2650   30.1130   35.7310 H   0  0  0  0  0  0  0  0  0  0  0  0
   38.2410   32.1500   36.7990 H   0  0  0  0  0  0  0  0  0  0  0  0
   38.0880   32.8860   39.3000 N   0  0  0  0  0  0  0  0  0  0  0  0
   37.6110   34.0870   39.6400 C   0  0  0  0  0  0  0  0  0  0  0  0
   36.5720   34.3230   39.5090 H   0  0  0  0  0  0  0  0  0  0  0  0
   38.6210   34.8290   40.1220 N   0  0  0  0  0  0  0  0  0  0  0  0
   39.7420   34.0870   40.0850 C   0  0  0  0  0  0  0  0  0  0  0  0
   41.0430   34.4130   40.4750 C   0  0  0  0  0  0  0  0  0  0  0  0
   41.3040   35.3750   40.8820 H   0  0  0  0  0  0  0  0  0  0  0  0
   42.0400   33.5090   40.3530 N   0  0  0  0  0  0  0  0  0  0  0  0
   41.6720   32.3170   39.8400 C   0  0  0  0  0  0  0  0  0  0  0  0
   42.4410   31.5600   39.7240 H   0  0  0  0  0  0  0  0  0  0  0  0
   40.4420   31.9420   39.4460 N   0  0  0  0  0  0  0  0  0  0  0  0
   39.4260   32.8430   39.5640 C   0  0  0  0  0  0  0  0  0  0  0  0
   36.7060   27.4820   41.6030 C   0  0  0  0  0  3  0  0  0  0  0  0
   36.3530   27.6860   40.3640 C   0  0  0  0  0  3  0  0  0  0  0  0
   39.6410   25.5710   42.7210 C   0  0  0  0  0  0  0  0  0  0  0  0
   39.1270   24.2730   42.5920 C   0  0  0  0  0  0  0  0  0  0  0  0
   37.8510   24.0030   42.1500 C   0  0  0  0  0  0  0  0  0  0  0  0
   37.0550   25.0740   41.8240 C   0  0  0  0  0  0  0  0  0  0  0  0
   37.5590   26.3630   41.9510 C   0  0  0  0  0  0  0  0  0  0  0  0
   38.8030   26.5580   42.3850 N   0  0  0  0  0  0  0  0  0  0  0  0
   39.7620   23.4340   42.8510 H   0  0  0  0  0  0  0  0  0  0  0  0
   37.5250   22.9790   42.0750 H   0  0  0  0  0  0  0  0  0  0  0  0
   36.0590   24.8350   41.4800 H   0  0  0  0  0  0  0  0  0  0  0  0
   43.9970   27.3770   46.4890 C   0  0  0  0  0  0  0  0  0  0  0  0
   45.0910   27.0450   45.6830 C   0  0  0  0  0  0  0  0  0  0  0  0
   44.8300   26.5390   44.4120 C   0  0  0  0  0  0  0  0  0  0  0  0
   43.5430   26.3790   43.9830 N   0  0  0  0  0  0  0  0  0  0  0  0
   42.5140   26.7210   44.8120 C   0  0  0  0  0  0  0  0  0  0  0  0
   42.7520   27.2150   46.0550 N   0  0  0  0  0  0  0  0  0  0  0  0
   41.0040   25.7570   43.1980 C   0  0  0  0  0  0  0  0  0  0  0  0
   41.9370   25.2030   42.5510 O   0  0  0  0  0  0  0  0  0  0  0  0
   41.1700   26.5540   44.3650 N   0  0  0  0  0  0  0  0  0  0  0  0
   44.1360   27.7770   47.4910 H   0  0  0  0  0  0  0  0  0  0  0  0
   46.1010   27.1820   46.0500 H   0  0  0  0  0  0  0  0  0  0  0  0
   45.6620   26.2660   43.7530 H   0  0  0  0  0  0  0  0  0  0  0  0
   40.3990   27.0110   44.8990 H   0  0  0  0  0  0  0  0  0  0  0  0
  1 27  1  0  0  0  0
  1  3  1  0  0  0  0
  2  1  1  0  0  0  0
  5  4  1  0  0  0  0
  6  5  1  0  0  0  0
  6  1  1  0  0  0  0
  7  6  2  0  0  0  0
  8  9  2  0  0  0  0
  8  7  1  0  0  0  0
  9 10  1  0  0  0  0
 10 14  1  0  0  0  0
 10  5  2  0  0  0  0
 11  7  1  0  0  0  0
 12  8  1  0  0  0  0
 13  9  1  0  0  0  0
 14 25  1  0  0  0  0
 14 15  1  0  0  0  0
 15 17  2  0  0  0  0
 16 15  1  0  0  0  0
 18 17  1  0  0  0  0
 18 19  1  0  0  0  0
 19 20  1  0  0  0  0
 21 19  2  0  0  0  0
 22 21  1  0  0  0  0
 23 22  1  0  0  0  0
 24 25  1  0  0  0  0
 24 22  2  0  0  0  0
 25 18  2  0  0  0  0
 26 32  1  0  0  0  0
 27 26  2  0  0  0  0
 28 43  1  0  0  0  0
 29 28  1  0  0  0  0
 29 34  1  0  0  0  0
 30 29  2  0  0  0  0
 31 32  2  0  0  0  0
 31 30  1  0  0  0  0
 32 33  1  0  0  0  0
 33 28  2  0  0  0  0
 35 30  1  0  0  0  0
 36 31  1  0  0  0  0
 37 46  1  0  0  0  0
 38 47  1  0  0  0  0
 38 37  2  0  0  0  0
 39 38  1  0  0  0  0
 40 39  2  0  0  0  0
 40 41  1  0  0  0  0
 41 42  2  0  0  0  0
 42 37  1  0  0  0  0
 43 45  1  0  0  0  0
 44 43  2  0  0  0  0
 45 41  1  0  0  0  0
 45 49  1  0  0  0  0
 48 39  1  0  0  0  0
M  END
>  <minimizedAffinity>
-7.90717649

$$$$

 OpenBabel03242511033D

 49 53  0  0  0  0  0  0  0  0999 V2000
   33.8230   29.1260   39.0100 C   0  0  0  0  0  0  0  0  0  0  0  0
   33.4780   28.1670   39.3890 H   0  0  0  0  0  0  0  0  0  0  0  0
   33.0470   29.8700   39.2830 H   0  0  0  0  0  0  0  0  0  0  0  0
   31.3320   29.2290   37.4060 Cl  0  0  0  0  0  0  0  0  0  0  0  0
   32.9560   29.1430   36.7330 C   0  0  0  0  0  0  0  0  0  0  0  0
   34.0790   29.0970   37.5460 C   0  0  0  0  0  0  0  0  0  0  0  0
   35.3520   29.0300   37.0200 C   0  0  0  0  0  0  0  0  0  0  0  0
   35.5140   29.0070   35.6240 C   0  0  0  0  0  0  0  0  0  0  0  0
   34.3850   29.0510   34.8230 C   0  0  0  0  0  0  0  0  0  0  0  0
   33.0910   29.1200   35.3650 C   0  0  0  0  0  0  0  0  0  0  0  0
   36.2030   28.9960   37.6860 H   0  0  0  0  0  0  0  0  0  0  0  0
   36.5050   28.9530   35.1910 H   0  0  0  0  0  0  0  0  0  0  0  0
   34.4710   29.0360   33.7440 H   0  0  0  0  0  0  0  0  0  0  0  0
   31.9700   29.1640   34.4890 N   0  0  0  0  0  0  0  0  0  0  0  0
   31.2270   28.2360   33.8810 C   0  0  0  0  0  0  0  0  0  0  0  0
   31.4370   27.1910   34.0120 H   0  0  0  0  0  0  0  0  0  0  0  0
   30.2780   28.8520   33.1570 N   0  0  0  0  0  0  0  0  0  0  0  0
   30.4260   30.1790   33.3140 C   0  0  0  0  0  0  0  0  0  0  0  0
   29.6870   31.2310   32.7680 C   0  0  0  0  0  0  0  0  0  0  0  0
   28.8500   31.0730   32.1090 H   0  0  0  0  0  0  0  0  0  0  0  0
   30.0060   32.5130   33.0580 N   0  0  0  0  0  0  0  0  0  0  0  0
   31.0590   32.6670   33.8850 C   0  0  0  0  0  0  0  0  0  0  0  0
   31.3510   33.6800   34.1450 H   0  0  0  0  0  0  0  0  0  0  0  0
   31.8090   31.7000   34.4420 N   0  0  0  0  0  0  0  0  0  0  0  0
   31.5000   30.4020   34.1610 C   0  0  0  0  0  0  0  0  0  0  0  0
   35.4540   28.8640   40.9020 C   0  0  0  0  0  3  0  0  0  0  0  0
   35.0810   29.4040   39.7750 C   0  0  0  0  0  3  0  0  0  0  0  0
   38.5480   30.7140   41.6250 C   0  0  0  0  0  0  0  0  0  0  0  0
   39.0380   29.9310   42.6800 C   0  0  0  0  0  0  0  0  0  0  0  0
   38.3890   28.8160   43.1620 C   0  0  0  0  0  0  0  0  0  0  0  0
   37.2000   28.4700   42.5660 C   0  0  0  0  0  0  0  0  0  0  0  0
   36.7090   29.2430   41.5200 C   0  0  0  0  0  0  0  0  0  0  0  0
   37.3860   30.3100   41.1000 N   0  0  0  0  0  0  0  0  0  0  0  0
   39.9760   30.2110   43.1440 H   0  0  0  0  0  0  0  0  0  0  0  0
   38.8260   28.2620   43.9760 H   0  0  0  0  0  0  0  0  0  0  0  0
   36.7110   27.5910   42.9620 H   0  0  0  0  0  0  0  0  0  0  0  0
   39.4480   36.4640   40.0260 C   0  0  0  0  0  0  0  0  0  0  0  0
   40.7860   36.3430   39.6370 C   0  0  0  0  0  0  0  0  0  0  0  0
   41.3610   35.0750   39.6780 C   0  0  0  0  0  0  0  0  0  0  0  0
   40.6280   33.9970   40.0880 N   0  0  0  0  0  0  0  0  0  0  0  0
   39.3250   34.1750   40.4570 C   0  0  0  0  0  0  0  0  0  0  0  0
   38.7500   35.4050   40.4230 N   0  0  0  0  0  0  0  0  0  0  0  0
   39.3060   31.8760   41.1850 C   0  0  0  0  0  0  0  0  0  0  0  0
   40.5610   31.7650   41.1010 O   0  0  0  0  0  0  0  0  0  0  0  0
   38.5600   33.0500   40.8850 N   0  0  0  0  0  0  0  0  0  0  0  0
   38.9420   37.4270   40.0150 H   0  0  0  0  0  0  0  0  0  0  0  0
   41.3420   37.2160   39.3160 H   0  0  0  0  0  0  0  0  0  0  0  0
   42.4060   34.9410   39.3810 H   0  0  0  0  0  0  0  0  0  0  0  0
   37.5230   33.1410   40.9560 H   0  0  0  0  0  0  0  0  0  0  0  0
  1  3  1  0  0  0  0
  1  2  1  0  0  0  0
  1 27  1  0  0  0  0
  5  4  1  0  0  0  0
  5  6  1  0  0  0  0
  6  1  1  0  0  0  0
  7  6  2  0  0  0  0
  7 11  1  0  0  0  0
  8  7  1  0  0  0  0
  9 10  1  0  0  0  0
  9  8  2  0  0  0  0
 10  5  2  0  0  0  0
 12  8  1  0  0  0  0
 13  9  1  0  0  0  0
 14 10  1  0  0  0  0
 15 16  1  0  0  0  0
 15 14  1  0  0  0  0
 17 18  1  0  0  0  0
 17 15  2  0  0  0  0
 18 25  1  0  0  0  0
 19 21  1  0  0  0  0
 19 18  2  0  0  0  0
 20 19  1  0  0  0  0
 21 22  2  0  0  0  0
 22 23  1  0  0  0  0
 22 24  1  0  0  0  0
 25 24  2  0  0  0  0
 25 14  1  0  0  0  0
 26 32  1  0  0  0  0
 27 26  2  0  0  0  0
 28 29  1  0  0  0  0
 29 34  1  0  0  0  0
 29 30  2  0  0  0  0
 30 35  1  0  0  0  0
 31 36  1  0  0  0  0
 31 30  1  0  0  0  0
 32 31  2  0  0  0  0
 33 32  1  0  0  0  0
 33 28  2  0  0  0  0
 37 42  1  0  0  0  0
 38 39  1  0  0  0  0
 38 37  2  0  0  0  0
 39 40  2  0  0  0  0
 40 41  1  0  0  0  0
 41 45  1  0  0  0  0
 42 41  2  0  0  0  0
 43 28  1  0  0  0  0
 44 43  2  0  0  0  0
 45 49  1  0  0  0  0
 45 43  1  0  0  0  0
 46 37  1  0  0  0  0
 47 38  1  0  0  0  0
 48 39  1  0  0  0  0
M  END
>  <minimizedAffinity>
-7.62069893

$$$$

 OpenBabel03242511033D

 49 53  0  0  0  0  0  0  0  0999 V2000
   36.1000   30.7820   40.9170 C   0  0  0  0  0  0  0  0  0  0  0  0
   36.0170   30.6880   41.9970 H   0  0  0  0  0  0  0  0  0  0  0  0
   35.1810   31.3000   40.5740 H   0  0  0  0  0  0  0  0  0  0  0  0
   37.1430   28.6970   42.7470 Cl  0  0  0  0  0  0  0  0  0  0  0  0
   36.7710   28.4440   41.0450 C   0  0  0  0  0  0  0  0  0  0  0  0
   36.2850   29.4680   40.2460 C   0  0  0  0  0  0  0  0  0  0  0  0
   35.9930   29.2720   38.9130 C   0  0  0  0  0  0  0  0  0  0  0  0
   36.1930   27.9990   38.3510 C   0  0  0  0  0  0  0  0  0  0  0  0
   36.6800   26.9840   39.1580 C   0  0  0  0  0  0  0  0  0  0  0  0
   36.9750   27.1910   40.5160 C   0  0  0  0  0  0  0  0  0  0  0  0
   35.6150   30.0940   38.3230 H   0  0  0  0  0  0  0  0  0  0  0  0
   35.9710   27.8240   37.3050 H   0  0  0  0  0  0  0  0  0  0  0  0
   36.8470   25.9920   38.7600 H   0  0  0  0  0  0  0  0  0  0  0  0
   37.4730   26.1090   41.2940 N   0  0  0  0  0  0  0  0  0  0  0  0
   36.9060   25.0700   41.9130 C   0  0  0  0  0  0  0  0  0  0  0  0
   35.8430   24.9250   41.8820 H   0  0  0  0  0  0  0  0  0  0  0  0
   37.8690   24.3470   42.5090 N   0  0  0  0  0  0  0  0  0  0  0  0
   39.0510   24.9370   42.2600 C   0  0  0  0  0  0  0  0  0  0  0  0
   40.3370   24.5670   42.6600 C   0  0  0  0  0  0  0  0  0  0  0  0
   40.5300   23.6940   43.2610 H   0  0  0  0  0  0  0  0  0  0  0  0
   41.4070   25.3090   42.2970 N   0  0  0  0  0  0  0  0  0  0  0  0
   41.1230   26.3920   41.5450 C   0  0  0  0  0  0  0  0  0  0  0  0
   41.9520   27.0180   41.2300 H   0  0  0  0  0  0  0  0  0  0  0  0
   39.9120   26.8020   41.1280 N   0  0  0  0  0  0  0  0  0  0  0  0
   38.8230   26.0640   41.4860 C   0  0  0  0  0  0  0  0  0  0  0  0
   37.3970   32.6520   39.8530 C   0  0  0  0  0  3  0  0  0  0  0  0
   37.2890   31.6700   40.7040 C   0  0  0  0  0  3  0  0  0  0  0  0
   40.8330   33.6210   38.9730 C   0  0  0  0  0  0  0  0  0  0  0  0
   40.8900   34.8620   39.6220 C   0  0  0  0  0  0  0  0  0  0  0  0
   39.8410   35.3930   40.3390 C   0  0  0  0  0  0  0  0  0  0  0  0
   38.6860   34.6520   40.4100 C   0  0  0  0  0  0  0  0  0  0  0  0
   38.6230   33.4210   39.7680 C   0  0  0  0  0  0  0  0  0  0  0  0
   39.6740   32.9630   39.0900 N   0  0  0  0  0  0  0  0  0  0  0  0
   41.8050   35.4400   39.5610 H   0  0  0  0  0  0  0  0  0  0  0  0
   39.9580   36.3530   40.8120 H   0  0  0  0  0  0  0  0  0  0  0  0
   37.8780   35.0900   40.9790 H   0  0  0  0  0  0  0  0  0  0  0  0
   43.9590   30.0080   35.2850 C   0  0  0  0  0  0  0  0  0  0  0  0
   45.2170   30.5880   35.4760 C   0  0  0  0  0  0  0  0  0  0  0  0
   45.3180   31.6290   36.3960 C   0  0  0  0  0  0  0  0  0  0  0  0
   44.2140   32.0560   37.0800 N   0  0  0  0  0  0  0  0  0  0  0  0
   43.0110   31.4520   36.8520 C   0  0  0  0  0  0  0  0  0  0  0  0
   42.8970   30.4360   35.9580 N   0  0  0  0  0  0  0  0  0  0  0  0
   41.9950   33.1440   38.2380 C   0  0  0  0  0  0  0  0  0  0  0  0
   43.0350   33.8610   38.2470 O   0  0  0  0  0  0  0  0  0  0  0  0
   41.8600   31.8970   37.5660 N   0  0  0  0  0  0  0  0  0  0  0  0
   43.8160   29.1910   34.5810 H   0  0  0  0  0  0  0  0  0  0  0  0
   46.0750   30.2280   34.9200 H   0  0  0  0  0  0  0  0  0  0  0  0
   46.2870   32.1080   36.5720 H   0  0  0  0  0  0  0  0  0  0  0  0
   41.0000   31.3060   37.5590 H   0  0  0  0  0  0  0  0  0  0  0  0
  1  2  1  0  0  0  0
  3  1  1  0  0  0  0
  5  4  1  0  0  0  0
  6  1  1  0  0  0  0
  6  5  2  0  0  0  0
  7  6  1  0  0  0  0
  8  7  2  0  0  0  0
  8  9  1  0  0  0  0
  9 10  2  0  0  0  0
 10  5  1  0  0  0  0
 10 14  1  0  0  0  0
 11  7  1  0  0  0  0
 12  8  1  0  0  0  0
 13  9  1  0  0  0  0
 14 25  1  0  0  0  0
 14 15  1  0  0  0  0
 15 17  2  0  0  0  0
 16 15  1  0  0  0  0
 18 17  1  0  0  0  0
 18 19  1  0  0  0  0
 19 20  1  0  0  0  0
 21 19  2  0  0  0  0
 22 21  1  0  0  0  0
 23 22  1  0  0  0  0
 24 25  1  0  0  0  0
 24 22  2  0  0  0  0
 25 18  2  0  0  0  0
 26 27  2  0  0  0  0
 27  1  1  0  0  0  0
 28 33  2  0  0  0  0
 28 29  1  0  0  0  0
 29 30  2  0  0  0  0
 30 31  1  0  0  0  0
 30 35  1  0  0  0  0
 31 36  1  0  0  0  0
 32 26  1  0  0  0  0
 32 31  2  0  0  0  0
 33 32  1  0  0  0  0
 34 29  1  0  0  0  0
 37 38  2  0  0  0  0
 37 42  1  0  0  0  0
 38 39  1  0  0  0  0
 39 48  1  0  0  0  0
 39 40  2  0  0  0  0
 41 40  1  0  0  0  0
 41 45  1  0  0  0  0
 42 41  2  0  0  0  0
 43 44  2  0  0  0  0
 43 28  1  0  0  0  0
 45 43  1  0  0  0  0
 46 37  1  0  0  0  0
 47 38  1  0  0  0  0
 49 45  1  0  0  0  0
M  END
>  <minimizedAffinity>
-7.47365761

$$$$

 OpenBabel03242511033D

 49 53  0  0  0  0  0  0  0  0999 V2000
   37.8480   31.6790   38.9320 C   0  0  0  0  0  0  0  0  0  0  0  0
   37.4090   31.2400   38.0380 H   0  0  0  0  0  0  0  0  0  0  0  0
   37.1060   32.4070   39.3210 H   0  0  0  0  0  0  0  0  0  0  0  0
   38.4870   33.8530   40.8430 Cl  0  0  0  0  0  0  0  0  0  0  0  0
   39.5300   33.3400   39.5200 C   0  0  0  0  0  0  0  0  0  0  0  0
   39.1650   32.3130   38.6630 C   0  0  0  0  0  0  0  0  0  0  0  0
   39.9810   31.9100   37.6260 C   0  0  0  0  0  0  0  0  0  0  0  0
   41.2140   32.5580   37.4360 C   0  0  0  0  0  0  0  0  0  0  0  0
   41.5660   33.5830   38.2980 C   0  0  0  0  0  0  0  0  0  0  0  0
   40.7310   33.9890   39.3520 C   0  0  0  0  0  0  0  0  0  0  0  0
   39.6630   31.1050   36.9790 H   0  0  0  0  0  0  0  0  0  0  0  0
   41.8690   32.2570   36.6280 H   0  0  0  0  0  0  0  0  0  0  0  0
   42.5070   34.1050   38.1830 H   0  0  0  0  0  0  0  0  0  0  0  0
   41.1490   35.0480   40.2050 N   0  0  0  0  0  0  0  0  0  0  0  0
   40.7780   36.3220   40.3570 C   0  0  0  0  0  0  0  0  0  0  0  0
   40.0000   36.7450   39.7490 H   0  0  0  0  0  0  0  0  0  0  0  0
   41.5240   36.8740   41.3290 N   0  0  0  0  0  0  0  0  0  0  0  0
   42.3690   35.9360   41.7920 C   0  0  0  0  0  0  0  0  0  0  0  0
   43.3360   36.0230   42.7960 C   0  0  0  0  0  0  0  0  0  0  0  0
   43.5190   36.9270   43.3510 H   0  0  0  0  0  0  0  0  0  0  0  0
   44.0920   34.9470   43.1120 N   0  0  0  0  0  0  0  0  0  0  0  0
   43.8310   33.8350   42.3950 C   0  0  0  0  0  0  0  0  0  0  0  0
   44.4150   32.9460   42.6160 H   0  0  0  0  0  0  0  0  0  0  0  0
   42.9180   33.6870   41.4190 N   0  0  0  0  0  0  0  0  0  0  0  0
   42.1480   34.7630   41.0900 C   0  0  0  0  0  0  0  0  0  0  0  0
   37.1020   30.1290   40.7620 C   0  0  0  0  0  3  0  0  0  0  0  0
   37.9820   30.5340   39.8890 C   0  0  0  0  0  3  0  0  0  0  0  0
   37.6480   26.6690   41.8800 C   0  0  0  0  0  0  0  0  0  0  0  0
   37.9140   26.9100   43.2350 C   0  0  0  0  0  0  0  0  0  0  0  0
   37.9190   28.1680   43.7960 C   0  0  0  0  0  0  0  0  0  0  0  0
   37.6490   29.2300   42.9670 C   0  0  0  0  0  0  0  0  0  0  0  0
   37.3850   28.9980   41.6220 C   0  0  0  0  0  0  0  0  0  0  0  0
   37.3950   27.7560   41.1410 N   0  0  0  0  0  0  0  0  0  0  0  0
   38.1260   26.0660   43.8820 H   0  0  0  0  0  0  0  0  0  0  0  0
   38.1320   28.2760   44.8460 H   0  0  0  0  0  0  0  0  0  0  0  0
   37.6590   30.2060   43.4320 H   0  0  0  0  0  0  0  0  0  0  0  0
   39.5050   22.0300   38.4950 C   0  0  0  0  0  0  0  0  0  0  0  0
   38.5260   21.1090   38.8860 C   0  0  0  0  0  0  0  0  0  0  0  0
   37.5360   21.5490   39.7610 C   0  0  0  0  0  0  0  0  0  0  0  0
   37.5360   22.8380   40.2130 N   0  0  0  0  0  0  0  0  0  0  0  0
   38.5160   23.6930   39.7980 C   0  0  0  0  0  0  0  0  0  0  0  0
   39.4890   23.2800   38.9450 N   0  0  0  0  0  0  0  0  0  0  0  0
   37.6650   25.3030   41.3790 C   0  0  0  0  0  0  0  0  0  0  0  0
   36.9310   24.4530   41.9570 O   0  0  0  0  0  0  0  0  0  0  0  0
   38.5160   25.0390   40.2700 N   0  0  0  0  0  0  0  0  0  0  0  0
   40.3040   21.7480   37.8130 H   0  0  0  0  0  0  0  0  0  0  0  0
   38.5520   20.0930   38.5110 H   0  0  0  0  0  0  0  0  0  0  0  0
   36.7530   20.8570   40.0890 H   0  0  0  0  0  0  0  0  0  0  0  0
   39.1220   25.7420   39.7930 H   0  0  0  0  0  0  0  0  0  0  0  0
  1  3  1  0  0  0  0
  1 27  1  0  0  0  0
  2  1  1  0  0  0  0
  5  4  1  0  0  0  0
  6  1  1  0  0  0  0
  6  5  2  0  0  0  0
  7  6  1  0  0  0  0
  8  7  2  0  0  0  0
  8  9  1  0  0  0  0
  9 10  2  0  0  0  0
 10  5  1  0  0  0  0
 10 14  1  0  0  0  0
 11  7  1  0  0  0  0
 12  8  1  0  0  0  0
 13  9  1  0  0  0  0
 14 15  1  0  0  0  0
 14 25  1  0  0  0  0
 15 17  2  0  0  0  0
 16 15  1  0  0  0  0
 17 18  1  0  0  0  0
 18 19  1  0  0  0  0
 19 21  2  0  0  0  0
 19 20  1  0  0  0  0
 22 23  1  0  0  0  0
 22 21  1  0  0  0  0
 24 22  2  0  0  0  0
 25 24  1  0  0  0  0
 25 18  2  0  0  0  0
 26 32  1  0  0  0  0
 27 26  2  0  0  0  0
 28 29  1  0  0  0  0
 29 30  2  0  0  0  0
 29 34  1  0  0  0  0
 30 35  1  0  0  0  0
 31 36  1  0  0  0  0
 31 30  1  0  0  0  0
 32 31  2  0  0  0  0
 33 32  1  0  0  0  0
 33 28  2  0  0  0  0
 37 38  2  0  0  0  0
 37 42  1  0  0  0  0
 38 39  1  0  0  0  0
 39 48  1  0  0  0  0
 39 40  2  0  0  0  0
 41 40  1  0  0  0  0
 41 45  1  0  0  0  0
 42 41  2  0  0  0  0
 43 28  1  0  0  0  0
 43 44  2  0  0  0  0
 45 43  1  0  0  0  0
 46 37  1  0  0  0  0
 47 38  1  0  0  0  0
 49 45  1  0  0  0  0
M  END
>  <minimizedAffinity>
-7.43742132

$$$$

 OpenBabel03242511033D

 49 53  0  0  0  0  0  0  0  0999 V2000
   36.5490   30.2180   40.9720 C   0  0  0  0  0  0  0  0  0  0  0  0
   35.7980   30.7650   41.5370 H   0  0  0  0  0  0  0  0  0  0  0  0
   36.0650   29.9110   40.0210 H   0  0  0  0  0  0  0  0  0  0  0  0
   36.3040   27.6690   39.4780 Cl  0  0  0  0  0  0  0  0  0  0  0  0
   37.0070   27.8280   41.0840 C   0  0  0  0  0  0  0  0  0  0  0  0
   37.0890   29.0560   41.7250 C   0  0  0  0  0  0  0  0  0  0  0  0
   37.6390   29.1820   42.9830 C   0  0  0  0  0  0  0  0  0  0  0  0
   38.1290   28.0350   43.6320 C   0  0  0  0  0  0  0  0  0  0  0  0
   38.0410   26.8150   42.9830 C   0  0  0  0  0  0  0  0  0  0  0  0
   37.4800   26.6930   41.7010 C   0  0  0  0  0  0  0  0  0  0  0  0
   37.6850   30.1550   43.4500 H   0  0  0  0  0  0  0  0  0  0  0  0
   38.5640   28.1120   44.6210 H   0  0  0  0  0  0  0  0  0  0  0  0
   38.4080   25.9110   43.4510 H   0  0  0  0  0  0  0  0  0  0  0  0
   37.4180   25.4110   41.0860 N   0  0  0  0  0  0  0  0  0  0  0  0
   36.5090   24.4330   41.0620 C   0  0  0  0  0  0  0  0  0  0  0  0
   35.5820   24.5310   41.5940 H   0  0  0  0  0  0  0  0  0  0  0  0
   36.9810   23.4260   40.3090 N   0  0  0  0  0  0  0  0  0  0  0  0
   38.1980   23.7770   39.8540 C   0  0  0  0  0  0  0  0  0  0  0  0
   39.0840   23.0710   39.0380 C   0  0  0  0  0  0  0  0  0  0  0  0
   38.8650   22.0890   38.6550 H   0  0  0  0  0  0  0  0  0  0  0  0
   40.2740   23.6120   38.6930 N   0  0  0  0  0  0  0  0  0  0  0  0
   40.5100   24.8420   39.1930 C   0  0  0  0  0  0  0  0  0  0  0  0
   41.4540   25.3150   38.9410 H   0  0  0  0  0  0  0  0  0  0  0  0
   39.7010   25.5720   39.9810 N   0  0  0  0  0  0  0  0  0  0  0  0
   38.4970   25.0400   40.3370 C   0  0  0  0  0  0  0  0  0  0  0  0
   37.4740   32.4000   40.1400 C   0  0  0  0  0  3  0  0  0  0  0  0
   37.6210   31.2260   40.6900 C   0  0  0  0  0  3  0  0  0  0  0  0
   40.7720   33.5870   39.0310 C   0  0  0  0  0  0  0  0  0  0  0  0
   40.7350   34.8840   39.5610 C   0  0  0  0  0  0  0  0  0  0  0  0
   39.6650   35.3830   40.2710 C   0  0  0  0  0  0  0  0  0  0  0  0
   38.5880   34.5520   40.4580 C   0  0  0  0  0  0  0  0  0  0  0  0
   38.6180   33.2650   39.9340 C   0  0  0  0  0  0  0  0  0  0  0  0
   39.6840   32.8420   39.2560 N   0  0  0  0  0  0  0  0  0  0  0  0
   41.5890   35.5330   39.4090 H   0  0  0  0  0  0  0  0  0  0  0  0
   39.7080   36.3910   40.6490 H   0  0  0  0  0  0  0  0  0  0  0  0
   37.7620   34.9670   41.0180 H   0  0  0  0  0  0  0  0  0  0  0  0
   44.0010   30.0980   35.3120 C   0  0  0  0  0  0  0  0  0  0  0  0
   45.2430   30.7100   35.5120 C   0  0  0  0  0  0  0  0  0  0  0  0
   45.3140   31.7430   36.4430 C   0  0  0  0  0  0  0  0  0  0  0  0
   44.1980   32.1330   37.1290 N   0  0  0  0  0  0  0  0  0  0  0  0
   43.0120   31.5000   36.8930 C   0  0  0  0  0  0  0  0  0  0  0  0
   42.9260   30.4900   35.9870 N   0  0  0  0  0  0  0  0  0  0  0  0
   41.9480   33.1490   38.2940 C   0  0  0  0  0  0  0  0  0  0  0  0
   42.9680   33.8940   38.3120 O   0  0  0  0  0  0  0  0  0  0  0  0
   41.8470   31.9060   37.6080 N   0  0  0  0  0  0  0  0  0  0  0  0
   43.8820   29.2850   34.5990 H   0  0  0  0  0  0  0  0  0  0  0  0
   46.1110   30.3790   34.9540 H   0  0  0  0  0  0  0  0  0  0  0  0
   46.2690   32.2470   36.6270 H   0  0  0  0  0  0  0  0  0  0  0  0
   41.0040   31.2920   37.5930 H   0  0  0  0  0  0  0  0  0  0  0  0
  1  2  1  0  0  0  0
  1  6  1  0  0  0  0
  3  1  1  0  0  0  0
  4  5  1  0  0  0  0
  5 10  2  0  0  0  0
  5  6  1  0  0  0  0
  6  7  2  0  0  0  0
  7 11  1  0  0  0  0
  7  8  1  0  0  0  0
  8 12  1  0  0  0  0
  9 13  1  0  0  0  0
  9  8  2  0  0  0  0
 10  9  1  0  0  0  0
 14 10  1  0  0  0  0
 15 14  1  0  0  0  0
 15 16  1  0  0  0  0
 17 15  2  0  0  0  0
 18 17  1  0  0  0  0
 18 25  1  0  0  0  0
 19 18  2  0  0  0  0
 20 19  1  0  0  0  0
 21 19  1  0  0  0  0
 21 22  2  0  0  0  0
 22 24  1  0  0  0  0
 23 22  1  0  0  0  0
 24 25  2  0  0  0  0
 25 14  1  0  0  0  0
 26 27  2  0  0  0  0
 27  1  1  0  0  0  0
 28 33  2  0  0  0  0
 28 29  1  0  0  0  0
 29 30  2  0  0  0  0
 30 31  1  0  0  0  0
 30 35  1  0  0  0  0
 31 36  1  0  0  0  0
 32 26  1  0  0  0  0
 32 31  2  0  0  0  0
 33 32  1  0  0  0  0
 34 29  1  0  0  0  0
 37 38  2  0  0  0  0
 37 42  1  0  0  0  0
 38 39  1  0  0  0  0
 39 48  1  0  0  0  0
 39 40  2  0  0  0  0
 41 40  1  0  0  0  0
 41 45  1  0  0  0  0
 42 41  2  0  0  0  0
 43 44  2  0  0  0  0
 43 28  1  0  0  0  0
 45 43  1  0  0  0  0
 46 37  1  0  0  0  0
 47 38  1  0  0  0  0
 49 45  1  0  0  0  0
M  END
>  <minimizedAffinity>
-7.41226721

$$$$

 OpenBabel03242511033D

 49 53  0  0  0  0  0  0  0  0999 V2000
   37.7960   25.6000   40.8580 C   0  0  0  0  0  0  0  0  0  0  0  0
   37.7030   24.6320   41.3460 H   0  0  0  0  0  0  0  0  0  0  0  0
   38.7520   25.5780   40.2960 H   0  0  0  0  0  0  0  0  0  0  0  0
   39.4940   27.8900   40.0460 Cl  0  0  0  0  0  0  0  0  0  0  0  0
   38.5120   27.8360   41.5060 C   0  0  0  0  0  0  0  0  0  0  0  0
   37.7400   26.7290   41.8240 C   0  0  0  0  0  0  0  0  0  0  0  0
   36.9710   26.6850   42.9680 C   0  0  0  0  0  0  0  0  0  0  0  0
   36.9710   27.7930   43.8330 C   0  0  0  0  0  0  0  0  0  0  0  0
   37.7460   28.8930   43.5050 C   0  0  0  0  0  0  0  0  0  0  0  0
   38.5280   28.9310   42.3380 C   0  0  0  0  0  0  0  0  0  0  0  0
   36.3820   25.8040   43.1810 H   0  0  0  0  0  0  0  0  0  0  0  0
   36.3740   27.7790   44.7370 H   0  0  0  0  0  0  0  0  0  0  0  0
   37.7710   29.7640   44.1470 H   0  0  0  0  0  0  0  0  0  0  0  0
   39.3040   30.0900   42.0570 N   0  0  0  0  0  0  0  0  0  0  0  0
   40.5530   30.4660   42.3430 C   0  0  0  0  0  0  0  0  0  0  0  0
   41.2030   29.8270   42.9100 H   0  0  0  0  0  0  0  0  0  0  0  0
   40.7660   31.6840   41.8180 N   0  0  0  0  0  0  0  0  0  0  0  0
   39.6400   32.0750   41.1950 C   0  0  0  0  0  0  0  0  0  0  0  0
   39.3660   33.2560   40.5020 C   0  0  0  0  0  0  0  0  0  0  0  0
   40.0910   34.0440   40.3860 H   0  0  0  0  0  0  0  0  0  0  0  0
   38.1520   33.4540   39.9410 N   0  0  0  0  0  0  0  0  0  0  0  0
   37.2730   32.4460   40.1100 C   0  0  0  0  0  0  0  0  0  0  0  0
   36.2840   32.5620   39.6760 H   0  0  0  0  0  0  0  0  0  0  0  0
   37.4730   31.2880   40.7630 N   0  0  0  0  0  0  0  0  0  0  0  0
   38.6930   31.0730   41.3340 C   0  0  0  0  0  0  0  0  0  0  0  0
   36.6050   26.2690   38.7500 C   0  0  0  0  0  3  0  0  0  0  0  0
   36.6460   25.6510   39.8980 C   0  0  0  0  0  3  0  0  0  0  0  0
   33.6700   27.3700   36.8290 C   0  0  0  0  0  0  0  0  0  0  0  0
   33.1900   26.1200   36.4140 C   0  0  0  0  0  0  0  0  0  0  0  0
   33.7960   24.9270   36.7430 C   0  0  0  0  0  0  0  0  0  0  0  0
   34.9280   24.9870   37.5190 C   0  0  0  0  0  0  0  0  0  0  0  0
   35.4090   26.2240   37.9330 C   0  0  0  0  0  0  0  0  0  0  0  0
   34.7760   27.3420   37.5800 N   0  0  0  0  0  0  0  0  0  0  0  0
   32.2960   26.0820   35.8030 H   0  0  0  0  0  0  0  0  0  0  0  0
   33.3700   24.0040   36.3880 H   0  0  0  0  0  0  0  0  0  0  0  0
   35.3840   24.0380   37.7630 H   0  0  0  0  0  0  0  0  0  0  0  0
   29.7910   31.9600   37.3870 C   0  0  0  0  0  0  0  0  0  0  0  0
   29.9270   32.4790   36.0950 C   0  0  0  0  0  0  0  0  0  0  0  0
   30.7560   31.7970   35.2070 C   0  0  0  0  0  0  0  0  0  0  0  0
   31.4070   30.6620   35.6020 N   0  0  0  0  0  0  0  0  0  0  0  0
   31.2370   30.2020   36.8760 C   0  0  0  0  0  0  0  0  0  0  0  0
   30.4320   30.8560   37.7540 N   0  0  0  0  0  0  0  0  0  0  0  0
   32.9610   28.5760   36.4290 C   0  0  0  0  0  0  0  0  0  0  0  0
   33.3160   29.1440   35.3580 O   0  0  0  0  0  0  0  0  0  0  0  0
   31.9160   29.0180   37.2890 N   0  0  0  0  0  0  0  0  0  0  0  0
   29.1580   32.4470   38.1260 H   0  0  0  0  0  0  0  0  0  0  0  0
   29.3980   33.3800   35.8100 H   0  0  0  0  0  0  0  0  0  0  0  0
   30.8870   32.1730   34.1870 H   0  0  0  0  0  0  0  0  0  0  0  0
   31.6230   28.5490   38.1730 H   0  0  0  0  0  0  0  0  0  0  0  0
  1  2  1  0  0  0  0
  1  6  1  0  0  0  0
  3  1  1  0  0  0  0
  4  5  1  0  0  0  0
  5  6  2  0  0  0  0
  5 10  1  0  0  0  0
  6  7  1  0  0  0  0
  7 11  1  0  0  0  0
  7  8  2  0  0  0  0
  8 12  1  0  0  0  0
  9  8  1  0  0  0  0
  9 13  1  0  0  0  0
 10  9  2  0  0  0  0
 14 10  1  0  0  0  0
 14 15  1  0  0  0  0
 15 16  1  0  0  0  0
 17 15  2  0  0  0  0
 18 25  1  0  0  0  0
 18 17  1  0  0  0  0
 19 18  2  0  0  0  0
 20 19  1  0  0  0  0
 21 22  2  0  0  0  0
 21 19  1  0  0  0  0
 22 24  1  0  0  0  0
 23 22  1  0  0  0  0
 24 25  2  0  0  0  0
 25 14  1  0  0  0  0
 26 27  2  0  0  0  0
 27  1  1  0  0  0  0
 28 33  1  0  0  0  0
 29 30  1  0  0  0  0
 29 28  2  0  0  0  0
 30 31  2  0  0  0  0
 31 36  1  0  0  0  0
 31 32  1  0  0  0  0
 32 26  1  0  0  0  0
 33 32  2  0  0  0  0
 34 29  1  0  0  0  0
 35 30  1  0  0  0  0
 37 42  1  0  0  0  0
 37 46  1  0  0  0  0
 38 37  2  0  0  0  0
 39 40  2  0  0  0  0
 39 38  1  0  0  0  0
 40 41  1  0  0  0  0
 41 45  1  0  0  0  0
 41 42  2  0  0  0  0
 43 28  1  0  0  0  0
 43 45  1  0  0  0  0
 44 43  2  0  0  0  0
 45 49  1  0  0  0  0
 47 38  1  0  0  0  0
 48 39  1  0  0  0  0
M  END
>  <minimizedAffinity>
-7.2675004

$$$$

 OpenBabel03242511033D

 49 53  0  0  0  0  0  0  0  0999 V2000
   36.6820   30.0520   41.3160 C   0  0  0  0  0  0  0  0  0  0  0  0
   35.6090   29.8950   41.2390 H   0  0  0  0  0  0  0  0  0  0  0  0
   36.8460   30.6770   42.2180 H   0  0  0  0  0  0  0  0  0  0  0  0
   39.1190   31.6470   41.8690 Cl  0  0  0  0  0  0  0  0  0  0  0  0
   38.3950   31.4390   40.2780 C   0  0  0  0  0  0  0  0  0  0  0  0
   37.2510   30.6770   40.0930 C   0  0  0  0  0  0  0  0  0  0  0  0
   36.6820   30.5140   38.8470 C   0  0  0  0  0  0  0  0  0  0  0  0
   37.2800   31.1370   37.7380 C   0  0  0  0  0  0  0  0  0  0  0  0
   38.4210   31.8960   37.9350 C   0  0  0  0  0  0  0  0  0  0  0  0
   38.9950   32.0580   39.2070 C   0  0  0  0  0  0  0  0  0  0  0  0
   35.7910   29.9120   38.7420 H   0  0  0  0  0  0  0  0  0  0  0  0
   36.8480   31.0220   36.7500 H   0  0  0  0  0  0  0  0  0  0  0  0
   38.9080   32.3900   37.1040 H   0  0  0  0  0  0  0  0  0  0  0  0
   40.1690   32.8510   39.3450 N   0  0  0  0  0  0  0  0  0  0  0  0
   41.4770   32.6050   39.2320 C   0  0  0  0  0  0  0  0  0  0  0  0
   41.8320   31.6230   38.9860 H   0  0  0  0  0  0  0  0  0  0  0  0
   42.1500   33.7420   39.4730 N   0  0  0  0  0  0  0  0  0  0  0  0
   41.2560   34.7110   39.7390 C   0  0  0  0  0  0  0  0  0  0  0  0
   41.4620   36.0570   40.0490 C   0  0  0  0  0  0  0  0  0  0  0  0
   42.4440   36.4950   40.1110 H   0  0  0  0  0  0  0  0  0  0  0  0
   40.4100   36.8730   40.2850 N   0  0  0  0  0  0  0  0  0  0  0  0
   39.2000   36.2860   40.1980 C   0  0  0  0  0  0  0  0  0  0  0  0
   38.3260   36.9040   40.3800 H   0  0  0  0  0  0  0  0  0  0  0  0
   38.9340   35.0010   39.9050 N   0  0  0  0  0  0  0  0  0  0  0  0
   39.9840   34.1650   39.6630 C   0  0  0  0  0  0  0  0  0  0  0  0
   37.8570   28.2470   42.6080 C   0  0  0  0  0  3  0  0  0  0  0  0
   37.2500   28.6840   41.5390 C   0  0  0  0  0  3  0  0  0  0  0  0
   38.2150   24.6500   41.9380 C   0  0  0  0  0  0  0  0  0  0  0  0
   39.2880   24.3670   42.7940 C   0  0  0  0  0  0  0  0  0  0  0  0
   39.8980   25.3150   43.5850 C   0  0  0  0  0  0  0  0  0  0  0  0
   39.4160   26.6000   43.5160 C   0  0  0  0  0  0  0  0  0  0  0  0
   38.3530   26.8870   42.6690 C   0  0  0  0  0  0  0  0  0  0  0  0
   37.8060   25.9230   41.9290 N   0  0  0  0  0  0  0  0  0  0  0  0
   39.6610   23.3510   42.8420 H   0  0  0  0  0  0  0  0  0  0  0  0
   40.7190   25.0240   44.2190 H   0  0  0  0  0  0  0  0  0  0  0  0
   39.9130   27.3240   44.1470 H   0  0  0  0  0  0  0  0  0  0  0  0
   37.9080   19.2020   39.3570 C   0  0  0  0  0  0  0  0  0  0  0  0
   36.7380   19.4090   38.6200 C   0  0  0  0  0  0  0  0  0  0  0  0
   36.1550   20.6730   38.6710 C   0  0  0  0  0  0  0  0  0  0  0  0
   36.7200   21.6650   39.4220 N   0  0  0  0  0  0  0  0  0  0  0  0
   37.8640   21.4060   40.1220 C   0  0  0  0  0  0  0  0  0  0  0  0
   38.4440   20.1780   40.0820 N   0  0  0  0  0  0  0  0  0  0  0  0
   37.6350   23.5800   41.1390 C   0  0  0  0  0  0  0  0  0  0  0  0
   36.4560   23.7330   40.7130 O   0  0  0  0  0  0  0  0  0  0  0  0
   38.4540   22.4400   40.9060 N   0  0  0  0  0  0  0  0  0  0  0  0
   38.4110   18.2370   39.3580 H   0  0  0  0  0  0  0  0  0  0  0  0
   36.3120   18.6040   38.0330 H   0  0  0  0  0  0  0  0  0  0  0  0
   35.2370   20.8730   38.1070 H   0  0  0  0  0  0  0  0  0  0  0  0
   39.4280   22.3150   41.2580 H   0  0  0  0  0  0  0  0  0  0  0  0
  1 27  1  0  0  0  0
  1  3  1  0  0  0  0
  2  1  1  0  0  0  0
  5  4  1  0  0  0  0
  6  5  1  0  0  0  0
  6  1  1  0  0  0  0
  7  6  2  0  0  0  0
  8  9  2  0  0  0  0
  8  7  1  0  0  0  0
  9 10  1  0  0  0  0
 10 14  1  0  0  0  0
 10  5  2  0  0  0  0
 11  7  1  0  0  0  0
 12  8  1  0  0  0  0
 13  9  1  0  0  0  0
 14 25  1  0  0  0  0
 15 14  1  0  0  0  0
 15 17  2  0  0  0  0
 16 15  1  0  0  0  0
 17 18  1  0  0  0  0
 18 19  1  0  0  0  0
 19 20  1  0  0  0  0
 19 21  2  0  0  0  0
 22 21  1  0  0  0  0
 22 23  1  0  0  0  0
 24 22  2  0  0  0  0
 25 18  2  0  0  0  0
 25 24  1  0  0  0  0
 26 32  1  0  0  0  0
 27 26  2  0  0  0  0
 28 29  1  0  0  0  0
 29 34  1  0  0  0  0
 29 30  2  0  0  0  0
 30 35  1  0  0  0  0
 31 30  1  0  0  0  0
 31 36  1  0  0  0  0
 32 31  2  0  0  0  0
 33 28  2  0  0  0  0
 33 32  1  0  0  0  0
 37 46  1  0  0  0  0
 37 42  1  0  0  0  0
 38 39  1  0  0  0  0
 38 37  2  0  0  0  0
 39 40  2  0  0  0  0
 40 41  1  0  0  0  0
 41 45  1  0  0  0  0
 42 41  2  0  0  0  0
 43 28  1  0  0  0  0
 44 43  2  0  0  0  0
 45 43  1  0  0  0  0
 45 49  1  0  0  0  0
 47 38  1  0  0  0  0
 48 39  1  0  0  0  0
M  END
>  <minimizedAffinity>
-7.26133299

$$$$

 OpenBabel03242511033D

 49 53  0  0  0  0  0  0  0  0999 V2000
   37.2120   29.9190   36.8300 C   0  0  0  0  0  0  0  0  0  0  0  0
   37.2800   30.2230   35.7880 H   0  0  0  0  0  0  0  0  0  0  0  0
   37.9540   29.1050   36.9690 H   0  0  0  0  0  0  0  0  0  0  0  0
   35.4480   29.5200   34.4810 Cl  0  0  0  0  0  0  0  0  0  0  0  0
   34.9580   29.2890   36.1560 C   0  0  0  0  0  0  0  0  0  0  0  0
   35.8390   29.4940   37.2080 C   0  0  0  0  0  0  0  0  0  0  0  0
   35.4560   29.3140   38.5200 C   0  0  0  0  0  0  0  0  0  0  0  0
   34.1390   28.9110   38.7970 C   0  0  0  0  0  0  0  0  0  0  0  0
   33.2680   28.7100   37.7400 C   0  0  0  0  0  0  0  0  0  0  0  0
   33.6640   28.8950   36.4050 C   0  0  0  0  0  0  0  0  0  0  0  0
   36.1710   29.4840   39.3120 H   0  0  0  0  0  0  0  0  0  0  0  0
   33.8170   28.7640   39.8220 H   0  0  0  0  0  0  0  0  0  0  0  0
   32.2460   28.3990   37.9150 H   0  0  0  0  0  0  0  0  0  0  0  0
   32.7230   28.6720   35.3610 N   0  0  0  0  0  0  0  0  0  0  0  0
   32.4450   27.6380   34.5640 C   0  0  0  0  0  0  0  0  0  0  0  0
   32.9960   26.7200   34.6420 H   0  0  0  0  0  0  0  0  0  0  0  0
   31.4390   27.9850   33.7440 N   0  0  0  0  0  0  0  0  0  0  0  0
   31.0810   29.2490   34.0310 C   0  0  0  0  0  0  0  0  0  0  0  0
   30.0910   30.0500   33.4570 C   0  0  0  0  0  0  0  0  0  0  0  0
   29.4570   29.7060   32.6580 H   0  0  0  0  0  0  0  0  0  0  0  0
   29.8910   31.3120   33.8990 N   0  0  0  0  0  0  0  0  0  0  0  0
   30.7050   31.7020   34.9010 C   0  0  0  0  0  0  0  0  0  0  0  0
   30.5800   32.7090   35.2870 H   0  0  0  0  0  0  0  0  0  0  0  0
   31.6740   30.9830   35.4940 N   0  0  0  0  0  0  0  0  0  0  0  0
   31.8870   29.7080   35.0600 C   0  0  0  0  0  0  0  0  0  0  0  0
   38.3940   31.1580   38.6680 C   0  0  0  0  0  3  0  0  0  0  0  0
   37.6380   31.1290   37.6050 C   0  0  0  0  0  3  0  0  0  0  0  0
   40.3220   33.8280   40.3010 C   0  0  0  0  0  0  0  0  0  0  0  0
   39.2950   34.7630   40.4930 C   0  0  0  0  0  0  0  0  0  0  0  0
   37.9910   34.5480   40.1050 C   0  0  0  0  0  0  0  0  0  0  0  0
   37.7020   33.3480   39.5010 C   0  0  0  0  0  0  0  0  0  0  0  0
   38.7160   32.4180   39.3080 C   0  0  0  0  0  0  0  0  0  0  0  0
   39.9580   32.6870   39.7060 N   0  0  0  0  0  0  0  0  0  0  0  0
   39.5320   35.7060   40.9710 H   0  0  0  0  0  0  0  0  0  0  0  0
   37.2540   35.3130   40.2860 H   0  0  0  0  0  0  0  0  0  0  0  0
   36.6720   33.2050   39.2070 H   0  0  0  0  0  0  0  0  0  0  0  0
   44.5800   36.6880   43.4830 C   0  0  0  0  0  0  0  0  0  0  0  0
   45.6950   36.1210   42.8560 C   0  0  0  0  0  0  0  0  0  0  0  0
   45.4680   35.2510   41.7920 C   0  0  0  0  0  0  0  0  0  0  0  0
   44.1920   34.9720   41.3880 N   0  0  0  0  0  0  0  0  0  0  0  0
   43.1420   35.5540   42.0380 C   0  0  0  0  0  0  0  0  0  0  0  0
   43.3470   36.4040   43.0780 N   0  0  0  0  0  0  0  0  0  0  0  0
   41.6710   34.1470   40.7450 C   0  0  0  0  0  0  0  0  0  0  0  0
   42.6170   33.4190   40.3300 O   0  0  0  0  0  0  0  0  0  0  0  0
   41.8110   35.2620   41.6170 N   0  0  0  0  0  0  0  0  0  0  0  0
   44.6920   37.3750   44.3190 H   0  0  0  0  0  0  0  0  0  0  0  0
   46.6940   36.3610   43.1980 H   0  0  0  0  0  0  0  0  0  0  0  0
   46.3160   34.7880   41.2770 H   0  0  0  0  0  0  0  0  0  0  0  0
   41.0290   35.8630   41.9590 H   0  0  0  0  0  0  0  0  0  0  0  0
  1  3  1  0  0  0  0
  1  6  1  0  0  0  0
  1 27  1  0  0  0  0
  2  1  1  0  0  0  0
  4  5  1  0  0  0  0
  5 10  2  0  0  0  0
  5  6  1  0  0  0  0
  6  7  2  0  0  0  0
  7  8  1  0  0  0  0
  7 11  1  0  0  0  0
  8 12  1  0  0  0  0
  9 13  1  0  0  0  0
  9  8  2  0  0  0  0
 10  9  1  0  0  0  0
 14 10  1  0  0  0  0
 15 16  1  0  0  0  0
 15 14  1  0  0  0  0
 17 18  1  0  0  0  0
 17 15  2  0  0  0  0
 18 25  1  0  0  0  0
 19 21  1  0  0  0  0
 19 18  2  0  0  0  0
 20 19  1  0  0  0  0
 21 22  2  0  0  0  0
 22 23  1  0  0  0  0
 22 24  1  0  0  0  0
 25 14  1  0  0  0  0
 25 24  2  0  0  0  0
 26 32  1  0  0  0  0
 27 26  2  0  0  0  0
 28 29  1  0  0  0  0
 28 43  1  0  0  0  0
 29 34  1  0  0  0  0
 30 35  1  0  0  0  0
 30 29  2  0  0  0  0
 31 30  1  0  0  0  0
 32 31  2  0  0  0  0
 32 33  1  0  0  0  0
 33 28  2  0  0  0  0
 36 31  1  0  0  0  0
 37 46  1  0  0  0  0
 38 47  1  0  0  0  0
 38 37  2  0  0  0  0
 39 38  1  0  0  0  0
 40 39  2  0  0  0  0
 40 41  1  0  0  0  0
 41 42  2  0  0  0  0
 42 37  1  0  0  0  0
 43 45  1  0  0  0  0
 44 43  2  0  0  0  0
 45 49  1  0  0  0  0
 45 41  1  0  0  0  0
 48 39  1  0  0  0  0
M  END
>  <minimizedAffinity>
-7.23082685

$$$$
