
 OpenBabel03252505033D

 37 40  0  0  1  0  0  0  0  0999 V2000
   45.1880   34.9630   44.1230 C   0  0  0  0  0  0  0  0  0  0  0  0
   45.7480   34.4000   42.9620 C   0  0  0  0  0  0  0  0  0  0  0  0
   46.5680   33.2600   43.1390 C   0  0  0  0  0  0  0  0  0  0  0  0
   46.7620   32.7870   44.3950 N   0  0  0  0  0  0  0  0  0  0  0  0
   46.2080   33.3590   45.4690 C   0  0  0  0  0  0  0  0  0  0  0  0
   45.4070   34.4650   45.3420 N   0  0  0  0  0  0  0  0  0  0  0  0
   44.5640   35.8380   43.9520 H   0  0  0  0  0  0  0  0  0  0  0  0
   45.5950   34.7720   41.9690 H   0  0  0  0  0  0  0  0  0  0  0  0
   46.4780   32.7810   46.8100 C   0  0  2  0  0  0  0  0  0  0  0  0
   47.1350   31.4620   46.5650 C   0  0  0  0  0  0  0  0  0  0  0  0
   46.2990   30.2690   46.7950 C   0  0  0  0  0  0  0  0  0  0  0  0
   45.7770   30.3850   48.2120 C   0  0  0  0  0  0  0  0  0  0  0  0
   44.8700   31.5290   48.3790 C   0  0  0  0  0  0  0  0  0  0  0  0
   45.2730   32.7660   47.6260 C   0  0  0  0  0  0  0  0  0  0  0  0
   47.2010   33.4930   47.2790 H   0  0  0  0  0  0  0  0  0  0  0  0
   47.5680   31.3790   45.5420 H   0  0  0  0  0  0  0  0  0  0  0  0
   48.0380   31.4080   47.2340 H   0  0  0  0  0  0  0  0  0  0  0  0
   45.5150   30.1460   46.0440 H   0  0  0  0  0  0  0  0  0  0  0  0
   46.9470   29.3740   46.7760 H   0  0  0  0  0  0  0  0  0  0  0  0
   46.5960   30.3080   48.9190 H   0  0  0  0  0  0  0  0  0  0  0  0
   45.1190   29.4920   48.3390 H   0  0  0  0  0  0  0  0  0  0  0  0
   43.9790   31.7340   48.8990 H   0  0  0  0  0  0  0  0  0  0  0  0
   44.4790   33.9430   47.7010 N   0  0  0  0  0  0  0  0  0  0  0  0
   44.7270   34.7860   48.2650 H   0  0  0  0  0  0  0  0  0  0  0  0
   43.6110   33.8740   47.1230 H   0  0  0  0  0  0  0  0  0  0  0  0
   47.1940   32.5920   42.0550 N   0  0  0  0  0  0  0  0  0  0  0  0
   46.7630   31.8600   41.0010 C   0  0  0  0  0  0  0  0  0  0  0  0
   45.6960   31.7020   40.8880 H   0  0  0  0  0  0  0  0  0  0  0  0
   47.8070   31.4540   40.2640 N   0  0  0  0  0  0  0  0  0  0  0  0
   48.9360   31.9230   40.8380 C   0  0  0  0  0  0  0  0  0  0  0  0
   50.2310   31.7530   40.4280 C   0  0  0  0  0  0  0  0  0  0  0  0
   50.5280   31.2050   39.5670 H   0  0  0  0  0  0  0  0  0  0  0  0
   51.2050   32.3200   41.1710 N   0  0  0  0  0  0  0  0  0  0  0  0
   50.8530   33.0260   42.2790 C   0  0  0  0  0  0  0  0  0  0  0  0
   51.5420   33.5270   42.9540 H   0  0  0  0  0  0  0  0  0  0  0  0
   49.5640   33.1630   42.6390 N   0  0  0  0  0  0  0  0  0  0  0  0
   48.5430   32.6340   41.9600 C   0  0  0  0  0  0  0  0  0  0  0  0
  1  6  1  0  0  0  0
  2  3  1  0  0  0  0
  2  1  2  0  0  0  0
  3  4  2  0  0  0  0
  4  5  1  0  0  0  0
  5  9  1  0  0  0  0
  6  5  2  0  0  0  0
  7  1  1  0  0  0  0
  8  2  1  0  0  0  0
  9 15  1  1  0  0  0
  9 14  1  0  0  0  0
 10 11  1  0  0  0  0
 10  9  1  0  0  0  0
 10 17  1  0  0  0  0
 11 12  1  0  0  0  0
 12 21  1  0  0  0  0
 12 13  1  0  0  0  0
 12 20  1  0  0  0  0
 13 22  1  0  0  0  0
 14 23  1  0  0  0  0
 14 13  2  0  0  0  0
 16 10  1  0  0  0  0
 18 11  1  0  0  0  0
 19 11  1  0  0  0  0
 23 24  1  0  0  0  0
 25 23  1  0  0  0  0
 26  3  1  0  0  0  0
 27 26  1  0  0  0  0
 28 27  1  0  0  0  0
 29 30  1  0  0  0  0
 29 27  2  0  0  0  0
 30 37  1  0  0  0  0
 31 30  2  0  0  0  0
 31 33  1  0  0  0  0
 32 31  1  0  0  0  0
 33 34  2  0  0  0  0
 34 36  1  0  0  0  0
 34 35  1  0  0  0  0
 37 26  1  0  0  0  0
 37 36  2  0  0  0  0
M  END
>  <minimizedAffinity>
-6.11116266

>  <minimizedRMSD>
1.44033134

$$$$
