REMARK  Name = 
REMARK  3 active torsions:
REMARK  status: ('A' for Active; 'I' for Inactive)
REMARK    1  A    between atoms: C_1  and  C_7
REMARK    2  A    between atoms: C_6  and  N_19
REMARK    3  A    between atoms: C_11  and  C_13
REMARK                            x       y       z     vdW  Elec       q    Type
REMARK                         _______ _______ _______ _____ _____    ______ ____
ROOT
ATOM      1  C   UNL     1      46.908  32.911  45.525  0.00  0.00    +0.000 A 
ATOM      2  C   UNL     1      45.801  33.587  46.013  0.00  0.00    +0.000 A 
ATOM      3  C   UNL     1      45.120  34.508  45.183  0.00  0.00    +0.000 A 
ATOM      4  N   UNL     1      45.629  34.674  43.897  0.00  0.00    +0.000 NA
ATOM      5  C   UNL     1      46.703  33.992  43.489  0.00  0.00    +0.000 A 
ATOM      6  N   UNL     1      47.332  33.126  44.285  0.00  0.00    +0.000 NA
ATOM      7  H   UNL     1      45.275  33.643  46.943  0.00  0.00    +0.000 HD
ATOM      8  H   UNL     1      44.268  35.104  45.381  0.00  0.00    +0.000 HD
ENDROOT
BRANCH   5   9
ATOM      9  C   UNL     1      47.201  34.228  42.130  0.00  0.00    +0.000 A 
ATOM     10  C   UNL     1      48.184  35.160  41.887  0.00  0.00    +0.000 A 
ATOM     11  C   UNL     1      48.716  35.451  40.649  0.00  0.00    +0.000 A 
ATOM     12  C   UNL     1      48.180  34.719  39.620  0.00  0.00    +0.000 A 
ATOM     13  C   UNL     1      47.182  33.767  39.837  0.00  0.00    +0.000 A 
ATOM     14  N   UNL     1      46.701  33.531  41.097  0.00  0.00    +0.000 NA
ATOM     15  H   UNL     1      48.560  35.702  42.760  0.00  0.00    +0.000 HD
ATOM     16  H   UNL     1      49.483  36.181  40.476  0.00  0.00    +0.000 HD
ATOM     17  H   UNL     1      48.506  34.846  38.597  0.00  0.00    +0.000 HD
ATOM     18  N   UNL     1      46.662  33.036  38.729  0.00  0.00    +0.000 N 
ATOM     19  C   UNL     1      46.166  33.417  37.518  0.00  0.00    +0.000 A 
ATOM     20  H   UNL     1      46.113  34.462  37.243  0.00  0.00    +0.000 HD
ATOM     21  N   UNL     1      45.803  32.313  36.828  0.00  0.00    +0.000 NA
ATOM     22  C   UNL     1      46.058  31.220  37.582  0.00  0.00    +0.000 A 
ATOM     23  C   UNL     1      45.872  29.866  37.343  0.00  0.00    +0.000 A 
ATOM     24  H   UNL     1      45.447  29.521  36.401  0.00  0.00    +0.000 HD
ATOM     25  N   UNL     1      46.214  28.954  38.271  0.00  0.00    +0.000 NA
ATOM     26  C   UNL     1      46.742  29.436  39.434  0.00  0.00    +0.000 A 
ATOM     27  H   UNL     1      47.057  28.785  40.264  0.00  0.00    +0.000 HD
ATOM     28  N   UNL     1      46.940  30.741  39.708  0.00  0.00    +0.000 NA
ATOM     29  C   UNL     1      46.603  31.674  38.788  0.00  0.00    +0.000 A 
ENDBRANCH   5   9
BRANCH   1  30
ATOM     30  C   UNL     1      47.555  31.960  46.407  0.00  0.00    +0.000 C 
ATOM     31  C   UNL     1      47.295  30.494  45.960  0.00  0.00    +0.000 C 
ATOM     32  C   UNL     1      48.109  29.567  46.797  0.00  0.00    +0.000 C 
ATOM     33  C   UNL     1      48.114  29.845  48.262  0.00  0.00    +0.000 C 
ATOM     34  C   UNL     1      48.131  31.248  48.603  0.00  0.00    +0.000 C 
ATOM     35  C   UNL     1      47.131  32.097  47.786  0.00  0.00    +0.000 C 
ATOM     36  H   UNL     1      48.653  32.057  46.273  0.00  0.00    +0.000 HD
ATOM     37  H   UNL     1      46.241  30.230  46.006  0.00  0.00    +0.000 HD
ATOM     38  H   UNL     1      47.612  30.421  44.901  0.00  0.00    +0.000 HD
ATOM     39  H   UNL     1      49.096  29.494  46.301  0.00  0.00    +0.000 HD
ATOM     40  H   UNL     1      47.670  28.534  46.671  0.00  0.00    +0.000 HD
ATOM     41  H   UNL     1      47.740  29.076  48.936  0.00  0.00    +0.000 HD
ATOM     42  H   UNL     1      49.227  29.589  48.488  0.00  0.00    +0.000 HD
ATOM     43  H   UNL     1      49.091  31.811  48.508  0.00  0.00    +0.000 HD
ATOM     44  H   UNL     1      47.833  31.420  49.674  0.00  0.00    +0.000 HD
ATOM     45  H   UNL     1      47.264  33.075  48.249  0.00  0.00    +0.000 HD
BRANCH  35  46
ATOM     46  N   UNL     1      45.791  31.532  47.955  0.00  0.00    +0.000 N 
ATOM     47  C   UNL     1      45.192  30.853  49.030  0.00  0.00    +0.000 C 
ATOM     48  O   UNL     1      44.766  31.450  50.084  0.00  0.00    +0.000 OA
ATOM     49  N   UNL     1      45.086  29.439  48.857  0.00  0.00    +0.000 N 
ATOM     50  H   UNL     1      45.065  31.527  47.144  0.00  0.00    +0.000 HD
ATOM     51  H   UNL     1      44.683  28.898  48.072  0.00  0.00    +0.000 HD
ATOM     52  H   UNL     1      45.450  28.786  49.593  0.00  0.00    +0.000 HD
ENDBRANCH  35  46
ENDBRANCH   1  30
TORSDOF 3
