
 OpenBabel03252506133D

 39 42  0  0  0  0  0  0  0  0999 V2000
   45.3740   33.3250   41.2260 F   0  0  0  0  0  0  0  0  0  0  0  0
   46.4930   34.0050   41.0910 C   0  0  0  0  0  0  0  0  0  0  0  0
   46.9340   34.8030   42.1400 C   0  0  0  0  0  0  0  0  0  0  0  0
   48.1080   35.5540   42.0840 C   0  0  0  0  0  0  0  0  0  0  0  0
   48.8940   35.5170   40.9320 C   0  0  0  0  0  0  0  0  0  0  0  0
   48.4250   34.7120   39.9080 C   0  0  0  0  0  0  0  0  0  0  0  0
   47.2840   33.9750   39.9450 C   0  0  0  0  0  0  0  0  0  0  0  0
   48.3860   36.1620   42.9560 H   0  0  0  0  0  0  0  0  0  0  0  0
   49.7750   36.1110   40.9520 H   0  0  0  0  0  0  0  0  0  0  0  0
   49.1290   34.7680   39.0840 H   0  0  0  0  0  0  0  0  0  0  0  0
   45.7020   34.0550   45.5120 C   0  0  0  0  0  0  0  0  0  0  0  0
   44.6940   35.0240   45.6780 C   0  0  0  0  0  0  0  0  0  0  0  0
   44.4380   35.9420   44.6200 C   0  0  0  0  0  0  0  0  0  0  0  0
   45.2060   35.8110   43.4970 N   0  0  0  0  0  0  0  0  0  0  0  0
   46.1510   34.8780   43.3790 C   0  0  0  0  0  0  0  0  0  0  0  0
   46.3960   34.0110   44.3750 N   0  0  0  0  0  0  0  0  0  0  0  0
   44.1020   35.1090   46.5690 H   0  0  0  0  0  0  0  0  0  0  0  0
   43.6710   36.6980   44.7150 H   0  0  0  0  0  0  0  0  0  0  0  0
   45.9420   33.1500   46.5770 N   0  0  0  0  0  0  0  0  0  0  0  0
   45.4230   32.3070   46.9110 H   0  0  0  0  0  0  0  0  0  0  0  0
   46.8180   33.4740   47.0470 H   0  0  0  0  0  0  0  0  0  0  0  0
   46.9170   33.2140   38.8700 O   0  0  0  0  0  0  0  0  0  0  0  0
   48.3570   34.5830   37.1070 O   0  0  0  0  0  0  0  0  0  0  0  0
   47.3520   33.4880   37.2640 P   0  0  2  0  0  0  0  0  0  0  0  0
   45.9300   33.8250   36.3800 O   0  0  0  0  0  0  0  0  0  0  0  0
   45.2690   34.2560   37.0000 H   0  0  0  0  0  0  0  0  0  0  0  0
   47.9800   32.0800   36.5230 O   0  0  0  0  0  0  0  0  0  0  0  0
   48.9810   34.0840   34.9210 H   0  0  0  0  0  0  0  0  0  0  0  0
   48.7140   33.1400   34.5220 N   0  0  0  0  0  0  0  0  0  0  0  0
   48.2180   32.0650   35.1540 C   0  0  0  0  0  0  0  0  0  0  0  0
   48.0460   31.1150   34.2060 N   0  0  0  0  0  0  0  0  0  0  0  0
   48.4370   31.6110   33.0050 C   0  0  0  0  0  0  0  0  0  0  0  0
   48.4910   31.1200   31.7160 C   0  0  0  0  0  0  0  0  0  0  0  0
   48.1570   30.1030   31.5510 H   0  0  0  0  0  0  0  0  0  0  0  0
   48.9390   31.8610   30.6820 N   0  0  0  0  0  0  0  0  0  0  0  0
   49.3540   33.1360   30.9120 C   0  0  0  0  0  0  0  0  0  0  0  0
   49.7350   33.8440   30.1880 H   0  0  0  0  0  0  0  0  0  0  0  0
   49.3150   33.6460   32.1570 N   0  0  0  0  0  0  0  0  0  0  0  0
   48.8720   32.9260   33.2040 C   0  0  0  0  0  0  0  0  0  0  0  0
  2  1  1  0  0  0  0
  2  3  1  0  0  0  0
  3 15  1  0  0  0  0
  4  3  2  0  0  0  0
  4  8  1  0  0  0  0
  5  9  1  0  0  0  0
  5  4  1  0  0  0  0
  6  7  1  0  0  0  0
  6  5  2  0  0  0  0
  7  2  2  0  0  0  0
 10  6  1  0  0  0  0
 11 12  1  0  0  0  0
 11 19  1  0  0  0  0
 12 17  1  0  0  0  0
 13 18  1  0  0  0  0
 13 12  2  0  0  0  0
 14 13  1  0  0  0  0
 15 14  2  0  0  0  0
 15 16  1  0  0  0  0
 16 11  2  0  0  0  0
 19 20  1  0  0  0  0
 19 21  1  0  0  0  0
 22  7  1  0  0  0  0
 24 23  2  6  0  0  0
 24 22  1  0  0  0  0
 25 26  1  0  0  0  0
 25 24  1  0  0  0  0
 27 24  1  0  0  0  0
 29 28  1  0  0  0  0
 29 30  1  0  0  0  0
 30 27  1  0  0  0  0
 31 30  2  0  0  0  0
 32 39  1  0  0  0  0
 32 31  1  0  0  0  0
 33 32  2  0  0  0  0
 34 33  1  0  0  0  0
 35 36  2  0  0  0  0
 35 33  1  0  0  0  0
 36 38  1  0  0  0  0
 37 36  1  0  0  0  0
 38 39  2  0  0  0  0
 39 29  1  0  0  0  0
M  END
>  <minimizedAffinity>
-7.83107948

>  <minimizedRMSD>
3.26404405

$$$$
