REMARK  Name = 
REMARK  4 active torsions:
REMARK  status: ('A' for Active; 'I' for Inactive)
REMARK    1  A    between atoms: C_1  and  C_10
REMARK    2  A    between atoms: C_6  and  C_18
REMARK    3  A    between atoms: C_7  and  C_16
REMARK    4  A    between atoms: C_18  and  C_37
REMARK                            x       y       z     vdW  Elec       q    Type
REMARK                         _______ _______ _______ _____ _____    ______ ____
ROOT
ATOM      1  C   UNL     1      47.551  29.976  48.280  0.00  0.00    +0.000 C 
ATOM      2  C   UNL     1      47.449  28.783  47.373  0.00  0.00    +0.000 C 
ATOM      3  C   UNL     1      48.739  28.029  47.185  0.00  0.00    +0.000 C 
ATOM      4  C   UNL     1      49.532  27.851  48.444  0.00  0.00    +0.000 C 
ATOM      5  C   UNL     1      49.545  29.084  49.307  0.00  0.00    +0.000 C 
ATOM      6  C   UNL     1      49.026  30.281  48.480  0.00  0.00    +0.000 C 
ATOM      7  H   UNL     1      47.140  29.715  49.254  0.00  0.00    +0.000 HD
ATOM      8  H   UNL     1      47.101  29.097  46.366  0.00  0.00    +0.000 HD
ATOM      9  H   UNL     1      46.676  28.078  47.754  0.00  0.00    +0.000 HD
ATOM     10  H   UNL     1      48.513  27.041  46.790  0.00  0.00    +0.000 HD
ATOM     11  H   UNL     1      49.352  28.588  46.437  0.00  0.00    +0.000 HD
ATOM     12  H   UNL     1      50.588  27.636  48.117  0.00  0.00    +0.000 HD
ATOM     13  H   UNL     1      49.172  26.970  49.029  0.00  0.00    +0.000 HD
ATOM     14  H   UNL     1      48.798  28.956  50.121  0.00  0.00    +0.000 HD
ATOM     15  H   UNL     1      50.550  29.312  49.677  0.00  0.00    +0.000 HD
ATOM     16  H   UNL     1      49.556  30.274  47.483  0.00  0.00    +0.000 HD
ENDROOT
BRANCH   1  20
ATOM     17  C   UNL     1      45.922  33.148  46.240  0.00  0.00    +0.000 A 
ATOM     18  C   UNL     1      45.343  32.937  47.496  0.00  0.00    +0.000 A 
ATOM     19  C   UNL     1      45.795  31.935  48.240  0.00  0.00    +0.000 A 
ATOM     20  C   UNL     1      46.843  31.104  47.767  0.00  0.00    +0.000 A 
ATOM     21  S   UNL     1      47.201  31.816  46.127  0.00  0.00    +0.000 S 
ATOM     22  H   UNL     1      44.547  33.584  47.841  0.00  0.00    +0.000 HD
ATOM     23  H   UNL     1      45.457  31.640  49.220  0.00  0.00    +0.000 HD
BRANCH  17  28
ATOM     24  C   UNL     1      44.407  36.094  44.541  0.00  0.00    +0.000 A 
ATOM     25  C   UNL     1      45.051  36.026  43.308  0.00  0.00    +0.000 A 
ATOM     26  C   UNL     1      45.977  34.978  43.095  0.00  0.00    +0.000 A 
ATOM     27  N   UNL     1      46.183  34.093  44.120  0.00  0.00    +0.000 NA
ATOM     28  C   UNL     1      45.533  34.209  45.287  0.00  0.00    +0.000 A 
ATOM     29  N   UNL     1      44.649  35.204  45.499  0.00  0.00    +0.000 NA
ATOM     30  H   UNL     1      43.693  36.888  44.727  0.00  0.00    +0.000 HD
ATOM     31  H   UNL     1      44.883  36.721  42.516  0.00  0.00    +0.000 HD
ATOM     32  H   UNL     1      46.524  34.847  42.167  0.00  0.00    +0.000 HD
ENDBRANCH  17  28
ENDBRANCH   1  20
BRANCH   6  33
ATOM     33  C   UNL     1      49.249  31.520  49.200  0.00  0.00    +0.000 C 
ATOM     34  O   UNL     1      49.968  31.597  50.164  0.00  0.00    +0.000 OA
BRANCH  33  37
ATOM     35  H   UNL     1      46.810  33.158  49.819  0.00  0.00    +0.000 HD
ATOM     36  N   UNL     1      47.776  33.470  49.580  0.00  0.00    +0.000 N 
ATOM     37  C   UNL     1      48.942  32.920  49.252  0.00  0.00    +0.000 A 
ATOM     38  N   UNL     1      49.729  33.952  49.083  0.00  0.00    +0.000 NA
ATOM     39  C   UNL     1      49.222  35.143  49.261  0.00  0.00    +0.000 A 
ATOM     40  C   UNL     1      49.743  36.417  49.171  0.00  0.00    +0.000 A 
ATOM     41  H   UNL     1      50.756  36.610  48.912  0.00  0.00    +0.000 HD
ATOM     42  N   UNL     1      48.873  37.430  49.439  0.00  0.00    +0.000 NA
ATOM     43  C   UNL     1      47.600  37.144  49.764  0.00  0.00    +0.000 A 
ATOM     44  H   UNL     1      46.801  37.843  50.001  0.00  0.00    +0.000 HD
ATOM     45  N   UNL     1      47.145  35.876  49.836  0.00  0.00    +0.000 NA
ATOM     46  C   UNL     1      47.939  34.834  49.588  0.00  0.00    +0.000 A 
ENDBRANCH  33  37
ENDBRANCH   6  33
TORSDOF 4
