REMARK  Name = 
REMARK  5 active torsions:
REMARK  status: ('A' for Active; 'I' for Inactive)
REMARK    1  A    between atoms: C_2  and  C_12
REMARK    2  A    between atoms: C_3  and  C_7
REMARK    3  A    between atoms: C_12  and  C_14
REMARK    4  A    between atoms: N_16  and  C_20
REMARK    5  A    between atoms: C_20  and  N_31
REMARK                            x       y       z     vdW  Elec       q    Type
REMARK                         _______ _______ _______ _____ _____    ______ ____
ROOT
ATOM      1  C   UNL     1      45.769  34.151  40.739  0.00  0.00    +0.000 A 
ATOM      2  C   UNL     1      44.416  34.124  40.538  0.00  0.00    +0.000 A 
ATOM      3  N   UNL     1      44.225  33.427  39.397  0.00  0.00    +0.000 N 
ATOM      4  C   UNL     1      45.408  33.047  38.925  0.00  0.00    +0.000 A 
ATOM      5  N   UNL     1      46.374  33.489  39.748  0.00  0.00    +0.000 NA
ATOM      6  N   UNL     1      45.736  32.298  37.762  0.00  0.00    +0.000 N 
ATOM      7  H   UNL     1      43.653  34.566  41.158  0.00  0.00    +0.000 HD
ATOM      8  H   UNL     1      45.182  31.398  37.654  0.00  0.00    +0.000 HD
ATOM      9  H   UNL     1      46.470  32.672  37.120  0.00  0.00    +0.000 HD
ENDROOT
BRANCH   3  10
ATOM     10  C   UNL     1      42.979  33.110  38.742  0.00  0.00    +0.000 C 
ATOM     11  H   UNL     1      42.143  33.035  39.471  0.00  0.00    +0.000 HD
ATOM     12  H   UNL     1      43.041  32.137  38.231  0.00  0.00    +0.000 HD
BRANCH  10  13
ATOM     13  N   UNL     1      42.712  34.201  37.820  0.00  0.00    +0.000 N 
ATOM     14  C   UNL     1      42.809  34.298  36.482  0.00  0.00    +0.000 A 
ATOM     15  H   UNL     1      43.147  33.423  35.944  0.00  0.00    +0.000 HD
ATOM     16  N   UNL     1      42.447  35.529  36.075  0.00  0.00    +0.000 NA
ATOM     17  C   UNL     1      42.103  36.264  37.152  0.00  0.00    +0.000 A 
ATOM     18  C   UNL     1      41.664  37.567  37.287  0.00  0.00    +0.000 A 
ATOM     19  H   UNL     1      41.546  38.190  36.408  0.00  0.00    +0.000 HD
ATOM     20  N   UNL     1      41.398  38.009  38.550  0.00  0.00    +0.000 NA
ATOM     21  C   UNL     1      41.573  37.163  39.603  0.00  0.00    +0.000 A 
ATOM     22  H   UNL     1      41.344  37.568  40.598  0.00  0.00    +0.000 HD
ATOM     23  N   UNL     1      41.998  35.891  39.494  0.00  0.00    +0.000 NA
ATOM     24  C   UNL     1      42.272  35.421  38.247  0.00  0.00    +0.000 A 
ENDBRANCH  10  13
ENDBRANCH   3  10
BRANCH   1  25
ATOM     25  C   UNL     1      46.505  34.799  41.867  0.00  0.00    +0.000 C 
ATOM     26  O   UNL     1      47.690  35.242  41.808  0.00  0.00    +0.000 OA
BRANCH  25  28
ATOM     27  C   UNL     1      45.210  36.156  43.459  0.00  0.00    +0.000 A 
ATOM     28  C   UNL     1      45.866  34.953  43.127  0.00  0.00    +0.000 A 
ATOM     29  C   UNL     1      45.811  33.993  44.131  0.00  0.00    +0.000 A 
ATOM     30  N   UNL     1      45.202  34.181  45.294  0.00  0.00    +0.000 NA
ATOM     31  C   UNL     1      44.586  35.372  45.551  0.00  0.00    +0.000 A 
ATOM     32  N   UNL     1      44.597  36.342  44.633  0.00  0.00    +0.000 NA
ATOM     33  H   UNL     1      45.235  36.934  42.687  0.00  0.00    +0.000 HD
ATOM     34  H   UNL     1      44.083  35.562  46.479  0.00  0.00    +0.000 HD
BRANCH  29  35
ATOM     35  C   UNL     1      46.452  32.740  43.887  0.00  0.00    +0.000 A 
ATOM     36  C   UNL     1      47.712  32.250  43.979  0.00  0.00    +0.000 A 
ATOM     37  C   UNL     1      48.035  31.013  43.681  0.00  0.00    +0.000 A 
ATOM     38  C   UNL     1      47.022  30.239  43.268  0.00  0.00    +0.000 A 
ATOM     39  S   UNL     1      45.556  31.308  43.305  0.00  0.00    +0.000 S 
ATOM     40  H   UNL     1      48.437  33.012  44.334  0.00  0.00    +0.000 HD
ATOM     41  H   UNL     1      49.026  30.581  43.740  0.00  0.00    +0.000 HD
ATOM     42  H   UNL     1      47.061  29.108  42.948  0.00  0.00    +0.000 HD
ENDBRANCH  29  35
ENDBRANCH  25  28
ENDBRANCH   1  25
TORSDOF 5
