
 OpenBabel03252505033D

 37 40  0  0  1  0  0  0  0  0999 V2000
   44.7800   35.3550   44.3360 C   0  0  0  0  0  0  0  0  0  0  0  0
   45.4900   35.2010   43.1310 C   0  0  0  0  0  0  0  0  0  0  0  0
   46.5350   34.2460   43.1260 C   0  0  0  0  0  0  0  0  0  0  0  0
   46.7850   33.5490   44.2620 N   0  0  0  0  0  0  0  0  0  0  0  0
   46.0820   33.7330   45.3840 C   0  0  0  0  0  0  0  0  0  0  0  0
   45.0610   34.6470   45.4330 N   0  0  0  0  0  0  0  0  0  0  0  0
   43.9850   36.0970   44.3070 H   0  0  0  0  0  0  0  0  0  0  0  0
   45.2930   35.7500   42.2330 H   0  0  0  0  0  0  0  0  0  0  0  0
   46.4260   32.9330   46.5860 C   0  0  2  0  0  0  0  0  0  0  0  0
   46.9800   31.6420   46.0770 C   0  0  0  0  0  0  0  0  0  0  0  0
   46.0970   30.4670   46.1910 C   0  0  0  0  0  0  0  0  0  0  0  0
   45.7000   30.3750   47.6500 C   0  0  0  0  0  0  0  0  0  0  0  0
   44.8810   31.5170   48.0770 C   0  0  0  0  0  0  0  0  0  0  0  0
   45.2940   32.8400   47.4960 C   0  0  0  0  0  0  0  0  0  0  0  0
   47.2270   33.5240   47.0940 H   0  0  0  0  0  0  0  0  0  0  0  0
   47.3230   31.7060   45.0190 H   0  0  0  0  0  0  0  0  0  0  0  0
   47.9300   31.4390   46.6450 H   0  0  0  0  0  0  0  0  0  0  0  0
   45.2470   30.5040   45.5050 H   0  0  0  0  0  0  0  0  0  0  0  0
   46.6860   29.5590   45.9710 H   0  0  0  0  0  0  0  0  0  0  0  0
   46.5690   30.1460   48.2580 H   0  0  0  0  0  0  0  0  0  0  0  0
   45.0030   29.5040   47.6940 H   0  0  0  0  0  0  0  0  0  0  0  0
   44.0500   31.6740   48.7020 H   0  0  0  0  0  0  0  0  0  0  0  0
   44.5800   34.0240   47.8280 N   0  0  0  0  0  0  0  0  0  0  0  0
   44.9240   34.7520   48.4940 H   0  0  0  0  0  0  0  0  0  0  0  0
   43.6660   34.0900   47.3280 H   0  0  0  0  0  0  0  0  0  0  0  0
   47.3290   33.9880   41.9800 N   0  0  0  0  0  0  0  0  0  0  0  0
   47.4260   34.5190   40.7380 C   0  0  0  0  0  0  0  0  0  0  0  0
   46.7710   35.3440   40.4810 H   0  0  0  0  0  0  0  0  0  0  0  0
   48.3700   33.8780   40.0320 N   0  0  0  0  0  0  0  0  0  0  0  0
   48.9000   32.9150   40.8190 C   0  0  0  0  0  0  0  0  0  0  0  0
   49.8910   32.0220   40.5120 C   0  0  0  0  0  0  0  0  0  0  0  0
   50.3920   31.9680   39.5770 H   0  0  0  0  0  0  0  0  0  0  0  0
   50.2600   31.1430   41.4680 N   0  0  0  0  0  0  0  0  0  0  0  0
   49.6360   31.1900   42.6740 C   0  0  0  0  0  0  0  0  0  0  0  0
   49.8430   30.5380   43.5190 H   0  0  0  0  0  0  0  0  0  0  0  0
   48.6670   32.0890   42.9240 N   0  0  0  0  0  0  0  0  0  0  0  0
   48.2430   32.9900   42.0350 C   0  0  0  0  0  0  0  0  0  0  0  0
  1  6  1  0  0  0  0
  2  1  2  0  0  0  0
  3  2  1  0  0  0  0
  3  4  2  0  0  0  0
  4  5  1  0  0  0  0
  5  6  2  0  0  0  0
  5  9  1  0  0  0  0
  7  1  1  0  0  0  0
  8  2  1  0  0  0  0
  9 15  1  1  0  0  0
  9 14  1  0  0  0  0
 10 11  1  0  0  0  0
 10  9  1  0  0  0  0
 10 17  1  0  0  0  0
 11 12  1  0  0  0  0
 12 21  1  0  0  0  0
 12 13  1  0  0  0  0
 12 20  1  0  0  0  0
 13 22  1  0  0  0  0
 14 23  1  0  0  0  0
 14 13  2  0  0  0  0
 16 10  1  0  0  0  0
 18 11  1  0  0  0  0
 19 11  1  0  0  0  0
 23 24  1  0  0  0  0
 25 23  1  0  0  0  0
 26 37  1  0  0  0  0
 26  3  1  0  0  0  0
 27 26  1  0  0  0  0
 28 27  1  0  0  0  0
 29 27  2  0  0  0  0
 29 30  1  0  0  0  0
 30 37  1  0  0  0  0
 31 30  2  0  0  0  0
 31 33  1  0  0  0  0
 32 31  1  0  0  0  0
 33 34  2  0  0  0  0
 34 36  1  0  0  0  0
 34 35  1  0  0  0  0
 37 36  2  0  0  0  0
M  END
>  <minimizedAffinity>
-6.3996439

>  <minimizedRMSD>
0.572113395

$$$$
