
 OpenBabel03252507313D

 52 56  0  0  1  0  0  0  0  0999 V2000
   47.0560   32.4730   45.3410 C   0  0  0  0  0  0  0  0  0  0  0  0
   46.0130   33.1590   45.9430 C   0  0  0  0  0  0  0  0  0  0  0  0
   45.3720   34.2100   45.2470 C   0  0  0  0  0  0  0  0  0  0  0  0
   45.8510   34.4880   43.9690 N   0  0  0  0  0  0  0  0  0  0  0  0
   46.8630   33.7880   43.4470 C   0  0  0  0  0  0  0  0  0  0  0  0
   47.4550   32.7990   44.1170 N   0  0  0  0  0  0  0  0  0  0  0  0
   45.5210   33.1430   46.8930 H   0  0  0  0  0  0  0  0  0  0  0  0
   44.5690   34.8340   45.5420 H   0  0  0  0  0  0  0  0  0  0  0  0
   47.3340   34.1440   42.1040 C   0  0  0  0  0  0  0  0  0  0  0  0
   48.3020   35.1050   41.9240 C   0  0  0  0  0  0  0  0  0  0  0  0
   48.8090   35.5060   40.7070 C   0  0  0  0  0  0  0  0  0  0  0  0
   48.2620   34.8560   39.6290 C   0  0  0  0  0  0  0  0  0  0  0  0
   47.2790   33.8770   39.7810 C   0  0  0  0  0  0  0  0  0  0  0  0
   46.8230   33.5300   41.0250 N   0  0  0  0  0  0  0  0  0  0  0  0
   48.6880   35.5760   42.8340 H   0  0  0  0  0  0  0  0  0  0  0  0
   49.5640   36.2570   40.5830 H   0  0  0  0  0  0  0  0  0  0  0  0
   48.5690   35.0730   38.6150 H   0  0  0  0  0  0  0  0  0  0  0  0
   46.7470   33.2360   38.6250 N   0  0  0  0  0  0  0  0  0  0  0  0
   45.4760   33.0610   38.1640 C   0  0  0  0  0  0  0  0  0  0  0  0
   44.6290   33.4500   38.7120 H   0  0  0  0  0  0  0  0  0  0  0  0
   45.5240   32.3720   37.0030 N   0  0  0  0  0  0  0  0  0  0  0  0
   46.8150   32.0980   36.7070 C   0  0  0  0  0  0  0  0  0  0  0  0
   47.4000   31.4250   35.6430 C   0  0  0  0  0  0  0  0  0  0  0  0
   46.7850   31.0030   34.8480 H   0  0  0  0  0  0  0  0  0  0  0  0
   48.7350   31.2820   35.5750 N   0  0  0  0  0  0  0  0  0  0  0  0
   49.4590   31.8280   36.5940 C   0  0  0  0  0  0  0  0  0  0  0  0
   50.5580   31.7730   36.6440 H   0  0  0  0  0  0  0  0  0  0  0  0
   48.9350   32.4890   37.6450 N   0  0  0  0  0  0  0  0  0  0  0  0
   47.5940   32.6440   37.7320 C   0  0  0  0  0  0  0  0  0  0  0  0
   47.6630   31.3880   46.0870 C   0  0  2  0  0  0  0  0  0  0  0  0
   47.2770   30.0010   45.5000 C   0  0  0  0  0  0  0  0  0  0  0  0
   48.0500   28.9340   46.1950 C   0  0  0  0  0  0  0  0  0  0  0  0
   48.1320   29.0490   47.6800 C   0  0  0  0  0  0  0  0  0  0  0  0
   48.2670   30.4020   48.1660 C   0  0  0  0  0  0  0  0  0  0  0  0
   47.3030   31.4030   47.4910 C   0  0  2  0  0  0  0  0  0  0  0  0
   48.7590   31.4220   45.9140 H   0  0  0  0  0  0  0  0  0  0  0  0
   46.2090   29.8090   45.5660 H   0  0  0  0  0  0  0  0  0  0  0  0
   47.5470   30.0220   44.4250 H   0  0  0  0  0  0  0  0  0  0  0  0
   49.0100   28.8460   45.6500 H   0  0  0  0  0  0  0  0  0  0  0  0
   47.5310   27.9540   45.9810 H   0  0  0  0  0  0  0  0  0  0  0  0
   47.7270   28.2400   48.2850 H   0  0  0  0  0  0  0  0  0  0  0  0
   49.2300   28.6930   47.8260 H   0  0  0  0  0  0  0  0  0  0  0  0
   49.2620   30.9030   48.0880 H   0  0  0  0  0  0  0  0  0  0  0  0
   48.0240   30.4770   49.2620 H   0  0  0  0  0  0  0  0  0  0  0  0
   47.5260   32.3130   48.0480 H   0  0  0  0  0  0  0  0  0  0  0  0
   45.9320   30.9190   47.6600 N   0  0  0  0  0  0  0  0  0  0  0  0
   45.2020   30.5620   48.8070 C   0  0  0  0  0  0  0  0  0  0  0  0
   44.6960   31.4260   49.6110 O   0  0  0  0  0  0  0  0  0  0  0  0
   45.0590   29.1550   49.0090 N   0  0  0  0  0  0  0  0  0  0  0  0
   45.2910   30.7030   46.8070 H   0  0  0  0  0  0  0  0  0  0  0  0
   44.7160   28.4260   48.3580 H   0  0  0  0  0  0  0  0  0  0  0  0
   45.3220   28.7220   49.9270 H   0  0  0  0  0  0  0  0  0  0  0  0
  1  2  1  0  0  0  0
  1 30  1  0  0  0  0
  2  7  1  0  0  0  0
  3  8  1  0  0  0  0
  3  2  2  0  0  0  0
  4  3  1  0  0  0  0
  5  4  2  0  0  0  0
  5  6  1  0  0  0  0
  6  1  2  0  0  0  0
  9  5  1  0  0  0  0
 10  9  1  0  0  0  0
 10 15  1  0  0  0  0
 11 10  2  0  0  0  0
 12 13  2  0  0  0  0
 12 11  1  0  0  0  0
 13 14  1  0  0  0  0
 14  9  2  0  0  0  0
 16 11  1  0  0  0  0
 17 12  1  0  0  0  0
 18 13  1  0  0  0  0
 19 18  1  0  0  0  0
 19 20  1  0  0  0  0
 21 19  2  0  0  0  0
 22 21  1  0  0  0  0
 22 29  1  0  0  0  0
 23 22  2  0  0  0  0
 24 23  1  0  0  0  0
 25 23  1  0  0  0  0
 25 26  2  0  0  0  0
 26 27  1  0  0  0  0
 26 28  1  0  0  0  0
 28 29  2  0  0  0  0
 29 18  1  0  0  0  0
 30 36  1  6  0  0  0
 30 35  1  0  0  0  0
 31 37  1  0  0  0  0
 31 30  1  0  0  0  0
 31 32  1  0  0  0  0
 32 33  1  0  0  0  0
 33 42  1  0  0  0  0
 33 34  1  0  0  0  0
 33 41  1  0  0  0  0
 34 44  1  0  0  0  0
 35 46  1  0  0  0  0
 35 45  1  1  0  0  0
 35 34  1  0  0  0  0
 38 31  1  0  0  0  0
 39 32  1  0  0  0  0
 40 32  1  0  0  0  0
 43 34  1  0  0  0  0
 46 47  1  0  0  0  0
 47 49  1  0  0  0  0
 47 48  2  0  0  0  0
 49 52  1  0  0  0  0
 50 46  1  0  0  0  0
 51 49  1  0  0  0  0
M  END
>  <minimizedAffinity>
-6.97751713

>  <minimizedRMSD>
0.499060005

$$$$
