REMARK  Name = 
REMARK  4 active torsions:
REMARK  status: ('A' for Active; 'I' for Inactive)
REMARK    1  A    between atoms: C_3  and  C_12
REMARK    2  A    between atoms: C_7  and  C_18
REMARK    3  A    between atoms: C_10  and  C_14
REMARK    4  A    between atoms: C_21  and  N_30
REMARK                            x       y       z     vdW  Elec       q    Type
REMARK                         _______ _______ _______ _____ _____    ______ ____
ROOT
ATOM      1 CL   UNL     1      45.495  32.309  40.579  0.00  0.00    +0.000 Cl
ATOM      2  C   UNL     1      46.782  33.419  40.202  0.00  0.00    +0.000 A 
ATOM      3  C   UNL     1      47.359  34.177  41.191  0.00  0.00    +0.000 A 
ATOM      4  C   UNL     1      48.391  35.074  40.925  0.00  0.00    +0.000 A 
ATOM      5  C   UNL     1      48.797  35.156  39.610  0.00  0.00    +0.000 A 
ATOM      6  C   UNL     1      48.218  34.394  38.612  0.00  0.00    +0.000 A 
ATOM      7  C   UNL     1      47.232  33.542  38.894  0.00  0.00    +0.000 A 
ATOM      8  H   UNL     1      48.825  35.658  41.725  0.00  0.00    +0.000 HD
ATOM      9  H   UNL     1      49.594  35.846  39.394  0.00  0.00    +0.000 HD
ATOM     10  H   UNL     1      48.556  34.477  37.589  0.00  0.00    +0.000 HD
ENDROOT
BRANCH   3  15
ATOM     11  C   UNL     1      46.910  32.912  44.624  0.00  0.00    +0.000 A 
ATOM     12  C   UNL     1      45.972  33.821  45.160  0.00  0.00    +0.000 A 
ATOM     13  C   UNL     1      45.510  34.849  44.340  0.00  0.00    +0.000 A 
ATOM     14  N   UNL     1      45.985  34.929  43.059  0.00  0.00    +0.000 NA
ATOM     15  C   UNL     1      46.882  34.046  42.573  0.00  0.00    +0.000 A 
ATOM     16  N   UNL     1      47.334  33.048  43.360  0.00  0.00    +0.000 NA
ATOM     17  H   UNL     1      47.242  32.130  45.292  0.00  0.00    +0.000 HD
ATOM     18  H   UNL     1      45.602  33.753  46.167  0.00  0.00    +0.000 HD
BRANCH  13  19
ATOM     19  C   UNL     1      44.518  35.870  44.797  0.00  0.00    +0.000 C 
ATOM     20  F   UNL     1      44.976  37.130  44.566  0.00  0.00    +0.000 F 
ATOM     21  F   UNL     1      43.344  35.677  44.096  0.00  0.00    +0.000 F 
ATOM     22  F   UNL     1      44.303  35.635  46.133  0.00  0.00    +0.000 F 
ENDBRANCH  13  19
ENDBRANCH   3  15
BRANCH   7  23
ATOM     23  C   UNL     1      46.596  32.722  37.875  0.00  0.00    +0.000 A 
ATOM     24  C   UNL     1      45.591  33.169  37.006  0.00  0.00    +0.000 A 
ATOM     25  C   UNL     1      45.211  32.141  36.171  0.00  0.00    +0.000 A 
ATOM     26  C   UNL     1      46.017  31.101  36.579  0.00  0.00    +0.000 A 
ATOM     27  O   UNL     1      46.810  31.467  37.568  0.00  0.00    +0.000 OA
ATOM     28  H   UNL     1      45.141  34.175  36.958  0.00  0.00    +0.000 HD
ATOM     29  H   UNL     1      44.480  32.095  35.381  0.00  0.00    +0.000 HD
BRANCH  26  30
ATOM     30  N   UNL     1      46.030  29.780  36.035  0.00  0.00    +0.000 N 
ATOM     31  C   UNL     1      47.137  29.045  35.819  0.00  0.00    +0.000 A 
ATOM     32  H   UNL     1      48.178  29.275  35.996  0.00  0.00    +0.000 HD
ATOM     33  N   UNL     1      46.763  27.842  35.292  0.00  0.00    +0.000 NA
ATOM     34  C   UNL     1      45.420  27.814  35.175  0.00  0.00    +0.000 A 
ATOM     35  C   UNL     1      44.429  26.956  34.742  0.00  0.00    +0.000 A 
ATOM     36  H   UNL     1      44.771  25.987  34.369  0.00  0.00    +0.000 HD
ATOM     37  N   UNL     1      43.123  27.302  34.781  0.00  0.00    +0.000 NA
ATOM     38  C   UNL     1      42.728  28.500  35.245  0.00  0.00    +0.000 A 
ATOM     39  H   UNL     1      41.701  28.823  35.296  0.00  0.00    +0.000 HD
ATOM     40  N   UNL     1      43.670  29.370  35.678  0.00  0.00    +0.000 NA
ATOM     41  C   UNL     1      44.974  29.040  35.645  0.00  0.00    +0.000 A 
ENDBRANCH  26  30
ENDBRANCH   7  23
TORSDOF 4
