REMARK  Name = 
REMARK  7 active torsions:
REMARK  status: ('A' for Active; 'I' for Inactive)
REMARK    1  A    between atoms: C_2  and  C_14
REMARK    2  A    between atoms: C_9  and  O_20
REMARK    3  A    between atoms: C_11  and  C_16
REMARK    4  A    between atoms: O_20  and  P_22
REMARK    5  A    between atoms: P_22  and  O_23
REMARK    6  A    between atoms: P_22  and  O_24
REMARK    7  A    between atoms: O_24  and  C_34
REMARK                            x       y       z     vdW  Elec       q    Type
REMARK                         _______ _______ _______ _____ _____    ______ ____
ROOT
ATOM      1  C   UNL     1      47.705  31.004  46.013  0.00  0.00    +0.000 A 
ATOM      2  C   UNL     1      46.978  32.070  45.538  0.00  0.00    +0.000 A 
ATOM      3  C   UNL     1      45.976  32.587  46.333  0.00  0.00    +0.000 A 
ATOM      4  C   UNL     1      45.680  32.075  47.577  0.00  0.00    +0.000 A 
ATOM      5  N   UNL     1      44.807  32.321  48.579  0.00  0.00    +0.000 N 
ATOM      6  C   UNL     1      44.992  31.458  49.599  0.00  0.00    +0.000 A 
ATOM      7  N   UNL     1      46.001  30.657  49.227  0.00  0.00    +0.000 NA
ATOM      8  C   UNL     1      46.437  31.006  48.009  0.00  0.00    +0.000 A 
ATOM      9  C   UNL     1      47.444  30.457  47.256  0.00  0.00    +0.000 A 
ATOM     10  H   UNL     1      48.494  30.588  45.401  0.00  0.00    +0.000 HD
ATOM     11  H   UNL     1      45.365  33.428  46.017  0.00  0.00    +0.000 HD
ATOM     12  H   UNL     1      44.110  33.084  48.519  0.00  0.00    +0.000 HD
ATOM     13  H   UNL     1      44.443  31.408  50.542  0.00  0.00    +0.000 HD
ENDROOT
BRANCH   2  18
ATOM     14  C   UNL     1      47.185  34.415  42.731  0.00  0.00    +0.000 A 
ATOM     15  C   UNL     1      47.814  33.661  41.746  0.00  0.00    +0.000 A 
ATOM     16  C   UNL     1      48.154  32.352  42.077  0.00  0.00    +0.000 A 
ATOM     17  N   UNL     1      47.869  31.871  43.311  0.00  0.00    +0.000 NA
ATOM     18  C   UNL     1      47.261  32.641  44.224  0.00  0.00    +0.000 A 
ATOM     19  N   UNL     1      46.914  33.906  43.954  0.00  0.00    +0.000 NA
ATOM     20  H   UNL     1      46.887  35.447  42.553  0.00  0.00    +0.000 HD
ATOM     21  H   UNL     1      48.644  31.769  41.307  0.00  0.00    +0.000 HD
BRANCH  15  22
ATOM     22  C   UNL     1      48.072  34.306  40.429  0.00  0.00    +0.000 C 
ATOM     23  F   UNL     1      48.575  35.554  40.740  0.00  0.00    +0.000 F 
ATOM     24  F   UNL     1      46.890  34.433  39.776  0.00  0.00    +0.000 F 
ATOM     25  F   UNL     1      48.984  33.512  39.730  0.00  0.00    +0.000 F 
ENDBRANCH  15  22
ENDBRANCH   2  18
BRANCH   9  26
ATOM     26  O   UNL     1      48.164  29.383  47.754  0.00  0.00    +0.000 OA
BRANCH  26  28
ATOM     27  O   UNL     1      49.778  28.074  49.304  0.00  0.00    +0.000 OA
ATOM     28  P   UNL     1      49.445  29.506  48.846  0.00  0.00    +0.000 P 
BRANCH  28  29
ATOM     29  O   UNL     1      48.914  30.366  50.196  0.00  0.00    +0.000 OA
ATOM     30  H   UNL     1      48.795  29.818  51.004  0.00  0.00    +0.000 HD
ENDBRANCH  28  29
BRANCH  28  31
ATOM     31  O   UNL     1      50.827  30.182  48.180  0.00  0.00    +0.000 OA
BRANCH  31  34
ATOM     32  H   UNL     1      50.316  28.274  46.128  0.00  0.00    +0.000 HD
ATOM     33  N   UNL     1      51.286  28.456  46.432  0.00  0.00    +0.000 N 
ATOM     34  C   UNL     1      51.633  29.336  47.392  0.00  0.00    +0.000 A 
ATOM     35  N   UNL     1      52.993  29.267  47.479  0.00  0.00    +0.000 NA
ATOM     36  C   UNL     1      53.469  28.361  46.589  0.00  0.00    +0.000 A 
ATOM     37  C   UNL     1      54.784  28.004  46.370  0.00  0.00    +0.000 A 
ATOM     38  H   UNL     1      55.585  28.470  46.952  0.00  0.00    +0.000 HD
ATOM     39  N   UNL     1      54.978  27.075  45.425  0.00  0.00    +0.000 NA
ATOM     40  C   UNL     1      53.923  26.541  44.743  0.00  0.00    +0.000 A 
ATOM     41  H   UNL     1      54.197  25.802  44.004  0.00  0.00    +0.000 HD
ATOM     42  N   UNL     1      52.661  26.937  45.008  0.00  0.00    +0.000 NA
ATOM     43  C   UNL     1      52.378  27.863  45.941  0.00  0.00    +0.000 A 
ENDBRANCH  31  34
ENDBRANCH  28  31
ENDBRANCH  26  28
ENDBRANCH   9  26
TORSDOF 7
