
 OpenBabel03252506383D

 47 51  0  0  1  0  0  0  0  0999 V2000
   46.6940   30.0060   46.5510 S   0  0  0  0  0  0  0  0  0  0  0  0
   45.4900   30.5200   43.4820 O   0  0  0  0  0  0  0  0  0  0  0  0
   44.9210   29.9630   44.4320 C   0  0  0  0  0  0  0  0  0  0  0  0
   45.1060   29.7200   45.8840 C   0  0  1  0  0  0  0  0  0  0  0  0
   44.5860   28.3130   46.0380 C   0  0  0  0  0  0  0  0  0  0  0  0
   43.2290   28.5210   45.3590 C   0  0  0  0  0  0  0  0  0  0  0  0
   43.6660   29.2960   44.2040 N   0  0  0  0  0  0  0  0  0  0  0  0
   44.2400   30.3180   46.2830 H   0  0  0  0  0  0  0  0  0  0  0  0
   44.3930   28.0350   47.0780 H   0  0  0  0  0  0  0  0  0  0  0  0
   45.1840   27.5700   45.4850 H   0  0  0  0  0  0  0  0  0  0  0  0
   42.7860   27.5790   45.0370 H   0  0  0  0  0  0  0  0  0  0  0  0
   42.5830   29.1180   46.0300 H   0  0  0  0  0  0  0  0  0  0  0  0
   43.9550   28.0130   41.7100 H   0  0  0  0  0  0  0  0  0  0  0  0
   43.1200   28.6310   41.8910 N   0  0  0  0  0  0  0  0  0  0  0  0
   42.8370   29.3120   43.0220 C   0  0  0  0  0  0  0  0  0  0  0  0
   41.6740   29.9670   42.8060 N   0  0  0  0  0  0  0  0  0  0  0  0
   41.2260   29.7120   41.5670 C   0  0  0  0  0  0  0  0  0  0  0  0
   40.1220   30.1020   40.8350 C   0  0  0  0  0  0  0  0  0  0  0  0
   39.4140   30.7710   41.3160 H   0  0  0  0  0  0  0  0  0  0  0  0
   39.9270   29.6720   39.5690 N   0  0  0  0  0  0  0  0  0  0  0  0
   40.8370   28.8360   39.0050 C   0  0  0  0  0  0  0  0  0  0  0  0
   40.6830   28.4870   37.9830 H   0  0  0  0  0  0  0  0  0  0  0  0
   41.9180   28.4470   39.7060 N   0  0  0  0  0  0  0  0  0  0  0  0
   42.1400   28.8610   40.9740 C   0  0  0  0  0  0  0  0  0  0  0  0
   44.5260   35.4790   45.1620 C   0  0  0  0  0  0  0  0  0  0  0  0
   45.1840   35.4830   43.9090 C   0  0  0  0  0  0  0  0  0  0  0  0
   46.1140   34.5270   43.6440 C   0  0  0  0  0  0  0  0  0  0  0  0
   46.3520   33.6180   44.6190 N   0  0  0  0  0  0  0  0  0  0  0  0
   45.7330   33.6190   45.7900 C   0  0  0  0  0  0  0  0  0  0  0  0
   44.8170   34.5430   46.0770 N   0  0  0  0  0  0  0  0  0  0  0  0
   46.0730   32.6030   46.7510 N   0  0  0  0  0  0  0  0  0  0  0  0
   45.3350   32.3440   47.9330 C   0  0  0  0  0  0  0  0  0  0  0  0
   46.4120   31.9980   48.9460 C   0  0  0  0  0  0  0  0  0  0  0  0
   47.6950   31.9070   48.1740 C   0  0  0  0  0  0  0  0  0  0  0  0
   47.1970   31.7000   46.7460 C   0  0  1  0  0  0  0  0  0  0  0  0
   43.7880   36.2480   45.3570 H   0  0  0  0  0  0  0  0  0  0  0  0
   46.6210   34.5130   42.7070 H   0  0  0  0  0  0  0  0  0  0  0  0
   44.9550   33.3510   48.2980 H   0  0  0  0  0  0  0  0  0  0  0  0
   44.5340   31.6850   48.0240 H   0  0  0  0  0  0  0  0  0  0  0  0
   46.1840   30.9870   49.3900 H   0  0  0  0  0  0  0  0  0  0  0  0
   46.4740   32.6740   49.7970 H   0  0  0  0  0  0  0  0  0  0  0  0
   48.3040   32.8040   48.3010 H   0  0  0  0  0  0  0  0  0  0  0  0
   48.2530   30.9880   48.4950 H   0  0  0  0  0  0  0  0  0  0  0  0
   48.0120   32.0240   46.0780 H   0  0  0  0  0  0  0  0  0  0  0  0
   44.8200   36.5160   42.9800 N   0  0  0  0  0  0  0  0  0  0  0  0
   45.6480   36.8910   42.4400 H   0  0  0  0  0  0  0  0  0  0  0  0
   43.8700   36.8950   42.8110 H   0  0  0  0  0  0  0  0  0  0  0  0
  1 35  1  0  0  0  0
  2  3  2  0  0  0  0
  3  4  1  0  0  0  0
  4  5  1  0  0  0  0
  4  8  1  1  0  0  0
  4  1  1  0  0  0  0
  5  9  1  0  0  0  0
  6 12  1  0  0  0  0
  6  5  1  0  0  0  0
  7  3  1  0  0  0  0
  7  6  1  0  0  0  0
 10  5  1  0  0  0  0
 11  6  1  0  0  0  0
 13 14  1  0  0  0  0
 14 15  1  0  0  0  0
 15  7  1  0  0  0  0
 16 15  2  0  0  0  0
 17 16  1  0  0  0  0
 18 19  1  0  0  0  0
 18 17  2  0  0  0  0
 20 18  1  0  0  0  0
 21 20  2  0  0  0  0
 21 23  1  0  0  0  0
 22 21  1  0  0  0  0
 23 24  2  0  0  0  0
 24 17  1  0  0  0  0
 24 14  1  0  0  0  0
 25 36  1  0  0  0  0
 25 30  1  0  0  0  0
 26 25  2  0  0  0  0
 27 26  1  0  0  0  0
 27 28  2  0  0  0  0
 28 29  1  0  0  0  0
 29 30  2  0  0  0  0
 29 31  1  0  0  0  0
 31 32  1  0  0  0  0
 32 39  1  0  0  0  0
 32 38  1  0  0  0  0
 32 33  1  0  0  0  0
 33 40  1  0  0  0  0
 33 41  1  0  0  0  0
 34 42  1  0  0  0  0
 34 43  1  0  0  0  0
 34 33  1  0  0  0  0
 35 44  1  6  0  0  0
 35 31  1  0  0  0  0
 35 34  1  0  0  0  0
 37 27  1  0  0  0  0
 45 26  1  0  0  0  0
 46 45  1  0  0  0  0
 47 45  1  0  0  0  0
M  END
>  <minimizedAffinity>
-5.81182003

>  <minimizedRMSD>
0.22455503

$$$$
