REMARK  Name = 
REMARK  5 active torsions:
REMARK  status: ('A' for Active; 'I' for Inactive)
REMARK    1  A    between atoms: C_1  and  O_13
REMARK    2  A    between atoms: C_2  and  C_9
REMARK    3  A    between atoms: C_5  and  O_14
REMARK    4  A    between atoms: C_6  and  O_15
REMARK    5  A    between atoms: O_15  and  C_29
REMARK                            x       y       z     vdW  Elec       q    Type
REMARK                         _______ _______ _______ _____ _____    ______ ____
ROOT
ATOM      1  C   UNL     1      48.149  33.511  42.568  0.00  0.00    +0.000 C 
ATOM      2  C   UNL     1      46.679  33.722  42.289  0.00  0.00    +0.000 C 
ATOM      3  O   UNL     1      46.476  34.629  41.267  0.00  0.00    +0.000 OA
ATOM      4  C   UNL     1      46.877  33.995  40.102  0.00  0.00    +0.000 C 
ATOM      5  C   UNL     1      48.382  33.935  40.098  0.00  0.00    +0.000 C 
ATOM      6  C   UNL     1      48.986  33.384  41.343  0.00  0.00    +0.000 C 
ATOM      7  H   UNL     1      48.191  32.538  43.136  0.00  0.00    +0.000 HD
ATOM      8  H   UNL     1      46.248  32.744  42.002  0.00  0.00    +0.000 HD
ATOM      9  H   UNL     1      46.581  34.662  39.256  0.00  0.00    +0.000 HD
ATOM     10  H   UNL     1      46.387  33.018  39.946  0.00  0.00    +0.000 HD
ATOM     11  H   UNL     1      48.697  33.317  39.223  0.00  0.00    +0.000 HD
ATOM     12  H   UNL     1      49.922  33.983  41.532  0.00  0.00    +0.000 HD
ENDROOT
BRANCH   2  15
ATOM     13  C   UNL     1      44.583  35.809  44.661  0.00  0.00    +0.000 A 
ATOM     14  C   UNL     1      45.217  35.387  43.483  0.00  0.00    +0.000 A 
ATOM     15  C   UNL     1      45.987  34.190  43.502  0.00  0.00    +0.000 A 
ATOM     16  N   UNL     1      46.066  33.517  44.670  0.00  0.00    +0.000 NA
ATOM     17  C   UNL     1      45.444  33.947  45.795  0.00  0.00    +0.000 A 
ATOM     18  N   UNL     1      44.703  35.091  45.791  0.00  0.00    +0.000 NA
ATOM     19  H   UNL     1      44.033  36.728  44.513  0.00  0.00    +0.000 HD
ATOM     20  H   UNL     1      45.160  35.918  42.546  0.00  0.00    +0.000 HD
ATOM     21  H   UNL     1      45.538  33.372  46.706  0.00  0.00    +0.000 HD
ENDBRANCH   2  15
BRANCH   1  22
ATOM     22  O   UNL     1      48.653  34.450  43.474  0.00  0.00    +0.000 OA
ATOM     23  H   UNL     1      49.215  34.046  44.174  0.00  0.00    +0.000 HD
ENDBRANCH   1  22
BRANCH   5  24
ATOM     24  O   UNL     1      48.816  35.244  39.848  0.00  0.00    +0.000 OA
ATOM     25  H   UNL     1      49.227  35.617  40.678  0.00  0.00    +0.000 HD
ENDBRANCH   5  24
BRANCH   6  26
ATOM     26  O   UNL     1      49.462  32.065  41.186  0.00  0.00    +0.000 OA
BRANCH  26  29
ATOM     27  H   UNL     1      51.041  29.713  41.483  0.00  0.00    +0.000 HD
ATOM     28  N   UNL     1      51.555  30.618  41.411  0.00  0.00    +0.000 N 
ATOM     29  C   UNL     1      50.805  31.731  41.271  0.00  0.00    +0.000 A 
ATOM     30  N   UNL     1      51.647  32.803  41.195  0.00  0.00    +0.000 NA
ATOM     31  C   UNL     1      52.907  32.397  41.283  0.00  0.00    +0.000 A 
ATOM     32  C   UNL     1      54.193  32.913  41.280  0.00  0.00    +0.000 A 
ATOM     33  H   UNL     1      54.269  33.997  41.173  0.00  0.00    +0.000 HD
ATOM     34  N   UNL     1      55.293  32.153  41.398  0.00  0.00    +0.000 NA
ATOM     35  C   UNL     1      55.153  30.810  41.529  0.00  0.00    +0.000 A 
ATOM     36  H   UNL     1      56.072  30.269  41.618  0.00  0.00    +0.000 HD
ATOM     37  N   UNL     1      53.913  30.254  41.538  0.00  0.00    +0.000 NA
ATOM     38  C   UNL     1      52.825  31.030  41.418  0.00  0.00    +0.000 A 
ENDBRANCH  26  29
ENDBRANCH   6  26
TORSDOF 5
