
 OpenBabel03242521293D

 38 41  0  0  1  0  0  0  0  0999 V2000
   47.8910   33.4120   42.5660 C   0  0  1  0  0  0  0  0  0  0  0  0
   46.4460   33.7700   42.3050 C   0  0  2  0  0  0  0  0  0  0  0  0
   46.3260   34.7260   41.3160 O   0  0  0  0  0  0  0  0  0  0  0  0
   46.6600   34.0980   40.1270 C   0  0  0  0  0  0  0  0  0  0  0  0
   48.1520   33.8960   40.1100 C   0  0  2  0  0  0  0  0  0  0  0  0
   48.7070   33.2490   41.3310 C   0  0  2  0  0  0  0  0  0  0  0  0
   47.8430   32.4210   43.1000 H   0  0  0  0  0  0  0  0  0  0  0  0
   45.9240   32.8470   41.9890 H   0  0  0  0  0  0  0  0  0  0  0  0
   46.4240   34.8180   39.3060 H   0  0  0  0  0  0  0  0  0  0  0  0
   46.0790   33.1770   39.9420 H   0  0  0  0  0  0  0  0  0  0  0  0
   48.4040   33.2820   39.2120 H   0  0  0  0  0  0  0  0  0  0  0  0
   49.6960   33.7500   41.5330 H   0  0  0  0  0  0  0  0  0  0  0  0
   44.4850   35.9190   44.7370 C   0  0  0  0  0  0  0  0  0  0  0  0
   45.0690   35.4770   43.5400 C   0  0  0  0  0  0  0  0  0  0  0  0
   45.8070   34.2590   43.5380 C   0  0  0  0  0  0  0  0  0  0  0  0
   45.9050   33.5870   44.7050 N   0  0  0  0  0  0  0  0  0  0  0  0
   45.3320   34.0370   45.8480 C   0  0  0  0  0  0  0  0  0  0  0  0
   44.6220   35.2000   45.8650 N   0  0  0  0  0  0  0  0  0  0  0  0
   43.9560   36.8520   44.6040 H   0  0  0  0  0  0  0  0  0  0  0  0
   44.9960   36.0070   42.6040 H   0  0  0  0  0  0  0  0  0  0  0  0
   45.4400   33.4610   46.7580 H   0  0  0  0  0  0  0  0  0  0  0  0
   48.4850   34.2680   43.4990 O   0  0  0  0  0  0  0  0  0  0  0  0
   49.0100   33.7890   44.1810 H   0  0  0  0  0  0  0  0  0  0  0  0
   48.7070   35.1660   39.9010 O   0  0  0  0  0  0  0  0  0  0  0  0
   49.1550   35.4700   40.7390 H   0  0  0  0  0  0  0  0  0  0  0  0
   49.0560   31.8970   41.1260 O   0  0  0  0  0  0  0  0  0  0  0  0
   51.2750   32.3560   39.4010 H   0  0  0  0  0  0  0  0  0  0  0  0
   51.4200   31.6810   40.1840 N   0  0  0  0  0  0  0  0  0  0  0  0
   50.3670   31.4650   41.0000 C   0  0  0  0  0  0  0  0  0  0  0  0
   50.7460   30.5630   41.9510 N   0  0  0  0  0  0  0  0  0  0  0  0
   52.0090   30.2030   41.7580 C   0  0  0  0  0  0  0  0  0  0  0  0
   52.9760   29.3780   42.3090 C   0  0  0  0  0  0  0  0  0  0  0  0
   52.6690   28.8090   43.1890 H   0  0  0  0  0  0  0  0  0  0  0  0
   54.2180   29.2640   41.8140 N   0  0  0  0  0  0  0  0  0  0  0  0
   54.5580   29.9890   40.7180 C   0  0  0  0  0  0  0  0  0  0  0  0
   55.5630   29.8470   40.3800 H   0  0  0  0  0  0  0  0  0  0  0  0
   53.6460   30.8130   40.1390 N   0  0  0  0  0  0  0  0  0  0  0  0
   52.4080   30.9130   40.6490 C   0  0  0  0  0  0  0  0  0  0  0  0
  1  7  1  1  0  0  0
  1 22  1  0  0  0  0
  2  8  1  6  0  0  0
  2  1  1  0  0  0  0
  2 15  1  0  0  0  0
  3  2  1  0  0  0  0
  4  3  1  0  0  0  0
  5 11  1  6  0  0  0
  5  4  1  0  0  0  0
  5  6  1  0  0  0  0
  6 12  1  1  0  0  0
  6  1  1  0  0  0  0
  9  4  1  0  0  0  0
 10  4  1  0  0  0  0
 13 18  1  0  0  0  0
 14 13  2  0  0  0  0
 15 14  1  0  0  0  0
 15 16  2  0  0  0  0
 16 17  1  0  0  0  0
 17 18  2  0  0  0  0
 17 21  1  0  0  0  0
 19 13  1  0  0  0  0
 20 14  1  0  0  0  0
 22 23  1  0  0  0  0
 24  5  1  0  0  0  0
 24 25  1  0  0  0  0
 26  6  1  0  0  0  0
 27 28  1  0  0  0  0
 28 38  1  0  0  0  0
 28 29  1  0  0  0  0
 29 26  1  0  0  0  0
 29 30  2  0  0  0  0
 31 30  1  0  0  0  0
 31 32  1  0  0  0  0
 32 33  1  0  0  0  0
 34 32  2  0  0  0  0
 35 34  1  0  0  0  0
 36 35  1  0  0  0  0
 37 38  1  0  0  0  0
 37 35  2  0  0  0  0
 38 31  2  0  0  0  0
M  END
>  <minimizedAffinity>
-5.71855783

>  <minimizedRMSD>
0.580789745

$$$$
