
 OpenBabel03252506383D

 47 51  0  0  1  0  0  0  0  0999 V2000
   46.7680   29.9870   46.5130 S   0  0  0  0  0  0  0  0  0  0  0  0
   45.3270   30.5990   43.5660 O   0  0  0  0  0  0  0  0  0  0  0  0
   44.8450   29.9840   44.5290 C   0  0  0  0  0  0  0  0  0  0  0  0
   45.1430   29.6840   45.9510 C   0  0  1  0  0  0  0  0  0  0  0  0
   44.6740   28.2560   46.0780 C   0  0  0  0  0  0  0  0  0  0  0  0
   43.2660   28.4530   45.5090 C   0  0  0  0  0  0  0  0  0  0  0  0
   43.5950   29.2910   44.3620 N   0  0  0  0  0  0  0  0  0  0  0  0
   44.2940   30.2370   46.4380 H   0  0  0  0  0  0  0  0  0  0  0  0
   44.5660   27.9270   47.1150 H   0  0  0  0  0  0  0  0  0  0  0  0
   45.2490   27.5570   45.4490 H   0  0  0  0  0  0  0  0  0  0  0  0
   42.8260   27.5130   45.1770 H   0  0  0  0  0  0  0  0  0  0  0  0
   42.6550   29.0010   46.2510 H   0  0  0  0  0  0  0  0  0  0  0  0
   43.0170   31.3320   42.5040 H   0  0  0  0  0  0  0  0  0  0  0  0
   42.5200   30.4050   42.4400 N   0  0  0  0  0  0  0  0  0  0  0  0
   42.6810   29.3330   43.2450 C   0  0  0  0  0  0  0  0  0  0  0  0
   41.8450   28.3720   42.7940 N   0  0  0  0  0  0  0  0  0  0  0  0
   41.1650   28.8190   41.7260 C   0  0  0  0  0  0  0  0  0  0  0  0
   40.2080   28.2790   40.8900 C   0  0  0  0  0  0  0  0  0  0  0  0
   39.8870   27.2610   41.0880 H   0  0  0  0  0  0  0  0  0  0  0  0
   39.6880   28.9870   39.8630 N   0  0  0  0  0  0  0  0  0  0  0  0
   40.1160   30.2580   39.6490 C   0  0  0  0  0  0  0  0  0  0  0  0
   39.6990   30.8330   38.8220 H   0  0  0  0  0  0  0  0  0  0  0  0
   41.0490   30.7970   40.4560 N   0  0  0  0  0  0  0  0  0  0  0  0
   41.5870   30.1140   41.4910 C   0  0  0  0  0  0  0  0  0  0  0  0
   44.5300   35.4450   45.1750 C   0  0  0  0  0  0  0  0  0  0  0  0
   45.1990   35.4740   43.9270 C   0  0  0  0  0  0  0  0  0  0  0  0
   46.1460   34.5360   43.6590 C   0  0  0  0  0  0  0  0  0  0  0  0
   46.3890   33.6180   44.6250 N   0  0  0  0  0  0  0  0  0  0  0  0
   45.7600   33.5950   45.7900 C   0  0  0  0  0  0  0  0  0  0  0  0
   44.8270   34.5020   46.0800 N   0  0  0  0  0  0  0  0  0  0  0  0
   46.1060   32.5720   46.7400 N   0  0  0  0  0  0  0  0  0  0  0  0
   45.3620   32.2860   47.9130 C   0  0  0  0  0  0  0  0  0  0  0  0
   46.4350   31.9440   48.9300 C   0  0  0  0  0  0  0  0  0  0  0  0
   47.7250   31.8820   48.1700 C   0  0  0  0  0  0  0  0  0  0  0  0
   47.2440   31.6860   46.7340 C   0  0  1  0  0  0  0  0  0  0  0  0
   43.7790   36.1990   45.3720 H   0  0  0  0  0  0  0  0  0  0  0  0
   46.6610   34.5420   42.7270 H   0  0  0  0  0  0  0  0  0  0  0  0
   44.9630   33.2830   48.2860 H   0  0  0  0  0  0  0  0  0  0  0  0
   44.5700   31.6150   47.9880 H   0  0  0  0  0  0  0  0  0  0  0  0
   46.2180   30.9240   49.3590 H   0  0  0  0  0  0  0  0  0  0  0  0
   46.4790   32.6100   49.7910 H   0  0  0  0  0  0  0  0  0  0  0  0
   48.3200   32.7860   48.3130 H   0  0  0  0  0  0  0  0  0  0  0  0
   48.2950   30.9670   48.4840 H   0  0  0  0  0  0  0  0  0  0  0  0
   48.0590   32.0310   46.0780 H   0  0  0  0  0  0  0  0  0  0  0  0
   44.8280   36.5140   43.0080 N   0  0  0  0  0  0  0  0  0  0  0  0
   45.6550   36.9080   42.4810 H   0  0  0  0  0  0  0  0  0  0  0  0
   43.8740   36.8810   42.8360 H   0  0  0  0  0  0  0  0  0  0  0  0
  1 35  1  0  0  0  0
  2  3  2  0  0  0  0
  3  4  1  0  0  0  0
  4  5  1  0  0  0  0
  4  8  1  1  0  0  0
  4  1  1  0  0  0  0
  5  9  1  0  0  0  0
  6  5  1  0  0  0  0
  6 12  1  0  0  0  0
  7  3  1  0  0  0  0
  7  6  1  0  0  0  0
 10  5  1  0  0  0  0
 11  6  1  0  0  0  0
 14 13  1  0  0  0  0
 14 15  1  0  0  0  0
 15  7  1  0  0  0  0
 16 15  2  0  0  0  0
 17 16  1  0  0  0  0
 18 19  1  0  0  0  0
 18 17  2  0  0  0  0
 20 18  1  0  0  0  0
 21 20  2  0  0  0  0
 21 23  1  0  0  0  0
 22 21  1  0  0  0  0
 23 24  2  0  0  0  0
 24 17  1  0  0  0  0
 24 14  1  0  0  0  0
 25 36  1  0  0  0  0
 25 30  1  0  0  0  0
 26 25  2  0  0  0  0
 27 26  1  0  0  0  0
 27 28  2  0  0  0  0
 28 29  1  0  0  0  0
 29 30  2  0  0  0  0
 29 31  1  0  0  0  0
 31 32  1  0  0  0  0
 32 39  1  0  0  0  0
 32 38  1  0  0  0  0
 32 33  1  0  0  0  0
 33 40  1  0  0  0  0
 33 41  1  0  0  0  0
 34 42  1  0  0  0  0
 34 43  1  0  0  0  0
 34 33  1  0  0  0  0
 35 44  1  6  0  0  0
 35 31  1  0  0  0  0
 35 34  1  0  0  0  0
 37 27  1  0  0  0  0
 45 26  1  0  0  0  0
 46 45  1  0  0  0  0
 47 45  1  0  0  0  0
M  END
>  <minimizedAffinity>
-5.88781166

>  <minimizedRMSD>
0.495225579

$$$$
