
 OpenBabel03242516363D

 47 51  0  0  1  0  0  0  0  0999 V2000
   39.0510   32.5170   41.2910 C   0  0  1  0  0  0  0  0  0  0  0  0
   37.7960   31.9250   40.4700 C   0  0  1  0  0  0  0  0  0  0  0  0
   38.1860   32.3060   39.2390 O   0  0  0  0  0  0  0  0  0  0  0  0
   39.4350   31.6400   39.1600 C   0  0  0  0  0  0  0  0  0  0  0  0
   40.1700   32.2410   40.3300 C   0  0  1  0  0  0  0  0  0  0  0  0
   39.0960   32.0410   42.2530 H   0  0  0  0  0  0  0  0  0  0  0  0
   36.9860   32.3610   41.0490 H   0  0  0  0  0  0  0  0  0  0  0  0
   39.3400   30.5470   39.2830 H   0  0  0  0  0  0  0  0  0  0  0  0
   39.9230   31.8070   38.2000 H   0  0  0  0  0  0  0  0  0  0  0  0
   40.9020   31.5360   40.7900 H   0  0  0  0  0  0  0  0  0  0  0  0
   38.8340   33.9010   41.2960 O   0  0  0  0  0  0  0  0  0  0  0  0
   39.2230   34.3260   40.5070 H   0  0  0  0  0  0  0  0  0  0  0  0
   37.9560   30.5480   40.6010 O   0  0  0  0  0  0  0  0  0  0  0  0
   36.6590   28.8230   41.5750 C   0  0  2  0  0  0  0  0  0  0  0  0
   37.7710   27.8750   41.0500 C   0  0  1  0  0  0  0  0  0  0  0  0
   38.6080   27.8990   42.1270 O   0  0  0  0  0  0  0  0  0  0  0  0
   38.7880   29.2750   42.3840 C   0  0  0  0  0  0  0  0  0  0  0  0
   37.5700   30.0120   41.7900 C   0  0  1  0  0  0  0  0  0  0  0  0
   35.8820   28.9660   40.8280 H   0  0  0  0  0  0  0  0  0  0  0  0
   38.2110   28.4250   40.1840 H   0  0  0  0  0  0  0  0  0  0  0  0
   39.6930   29.6760   41.9200 H   0  0  0  0  0  0  0  0  0  0  0  0
   38.8210   29.4380   43.4630 H   0  0  0  0  0  0  0  0  0  0  0  0
   37.1290   30.7270   42.5020 H   0  0  0  0  0  0  0  0  0  0  0  0
   36.2780   24.7720   39.4380 C   0  0  0  0  0  0  0  0  0  0  0  0
   36.7120   26.0920   39.5270 C   0  0  0  0  0  0  0  0  0  0  0  0
   37.2240   26.5560   40.7150 C   0  0  0  0  0  0  0  0  0  0  0  0
   37.2730   25.6690   41.7590 N   0  0  0  0  0  0  0  0  0  0  0  0
   36.8490   24.3980   41.6560 C   0  0  0  0  0  0  0  0  0  0  0  0
   36.3530   23.9510   40.5000 N   0  0  0  0  0  0  0  0  0  0  0  0
   35.8870   24.4740   38.4750 H   0  0  0  0  0  0  0  0  0  0  0  0
   36.7020   26.8390   38.7480 H   0  0  0  0  0  0  0  0  0  0  0  0
   36.9010   23.7180   42.4990 H   0  0  0  0  0  0  0  0  0  0  0  0
   36.2350   28.4290   42.8180 O   0  0  0  0  0  0  0  0  0  0  0  0
   35.4600   27.8250   42.6960 H   0  0  0  0  0  0  0  0  0  0  0  0
   40.8010   33.3970   39.9150 O   0  0  0  0  0  0  0  0  0  0  0  0
   41.0790   35.0240   42.0890 H   0  0  0  0  0  0  0  0  0  0  0  0
   41.8850   34.6770   41.5080 N   0  0  0  0  0  0  0  0  0  0  0  0
   42.0050   33.8810   40.4090 C   0  0  0  0  0  0  0  0  0  0  0  0
   43.2960   33.8010   40.1250 N   0  0  0  0  0  0  0  0  0  0  0  0
   44.0440   34.5110   40.9890 C   0  0  0  0  0  0  0  0  0  0  0  0
   45.4210   34.6870   41.0410 C   0  0  0  0  0  0  0  0  0  0  0  0
   46.0590   34.2110   40.3070 H   0  0  0  0  0  0  0  0  0  0  0  0
   45.8630   35.4820   42.0610 N   0  0  0  0  0  0  0  0  0  0  0  0
   44.9990   36.0330   42.9270 C   0  0  0  0  0  0  0  0  0  0  0  0
   45.4040   36.6600   43.7240 H   0  0  0  0  0  0  0  0  0  0  0  0
   43.6880   35.8360   42.8380 N   0  0  0  0  0  0  0  0  0  0  0  0
   43.1300   35.0630   41.8620 C   0  0  0  0  0  0  0  0  0  0  0  0
  1 11  1  0  0  0  0
  1  6  1  1  0  0  0
  2 13  1  0  0  0  0
  2  7  1  1  0  0  0
  2  1  1  0  0  0  0
  3  2  1  0  0  0  0
  4  3  1  0  0  0  0
  4  8  1  0  0  0  0
  4  5  1  0  0  0  0
  5 10  1  1  0  0  0
  5  1  1  0  0  0  0
  9  4  1  0  0  0  0
 12 11  1  0  0  0  0
 13 18  1  0  0  0  0
 14 19  1  6  0  0  0
 14 18  1  0  0  0  0
 14 33  1  0  0  0  0
 15 20  1  6  0  0  0
 15 14  1  0  0  0  0
 15 16  1  0  0  0  0
 16 17  1  0  0  0  0
 17 22  1  0  0  0  0
 18 17  1  0  0  0  0
 18 23  1  1  0  0  0
 21 17  1  0  0  0  0
 24 25  2  0  0  0  0
 24 29  1  0  0  0  0
 25 26  1  0  0  0  0
 26 15  1  0  0  0  0
 26 27  2  0  0  0  0
 28 27  1  0  0  0  0
 28 32  1  0  0  0  0
 29 28  2  0  0  0  0
 30 24  1  0  0  0  0
 31 25  1  0  0  0  0
 34 33  1  0  0  0  0
 35  5  1  0  0  0  0
 35 38  1  0  0  0  0
 37 47  1  0  0  0  0
 37 36  1  0  0  0  0
 38 37  1  0  0  0  0
 39 38  2  0  0  0  0
 39 40  1  0  0  0  0
 40 41  2  0  0  0  0
 40 47  1  0  0  0  0
 41 43  1  0  0  0  0
 42 41  1  0  0  0  0
 43 44  2  0  0  0  0
 44 45  1  0  0  0  0
 46 44  1  0  0  0  0
 47 46  2  0  0  0  0
M  END
>  <minimizedAffinity>
-6.78851843

$$$$

 OpenBabel03242516363D

 47 51  0  0  1  0  0  0  0  0999 V2000
   37.8290   28.7720   42.3750 C   0  0  1  0  0  0  0  0  0  0  0  0
   36.6740   27.6750   42.1270 C   0  0  1  0  0  0  0  0  0  0  0  0
   35.8510   28.4410   41.3850 O   0  0  0  0  0  0  0  0  0  0  0  0
   36.7230   28.7760   40.3180 C   0  0  0  0  0  0  0  0  0  0  0  0
   37.8380   29.4760   41.0510 C   0  0  1  0  0  0  0  0  0  0  0  0
   38.7300   28.2700   42.6760 H   0  0  0  0  0  0  0  0  0  0  0  0
   36.5050   27.3620   43.1530 H   0  0  0  0  0  0  0  0  0  0  0  0
   37.1060   27.8860   39.7900 H   0  0  0  0  0  0  0  0  0  0  0  0
   36.2280   29.3960   39.5710 H   0  0  0  0  0  0  0  0  0  0  0  0
   38.8300   29.3450   40.5570 H   0  0  0  0  0  0  0  0  0  0  0  0
   37.2700   29.6500   43.3130 O   0  0  0  0  0  0  0  0  0  0  0  0
   36.7660   30.3640   42.8770 H   0  0  0  0  0  0  0  0  0  0  0  0
   37.3000   26.7400   41.3070 O   0  0  0  0  0  0  0  0  0  0  0  0
   37.5030   24.4500   41.8750 C   0  0  2  0  0  0  0  0  0  0  0  0
   37.7680   24.2370   40.3590 C   0  0  1  0  0  0  0  0  0  0  0  0
   39.1240   24.3890   40.3490 O   0  0  0  0  0  0  0  0  0  0  0  0
   39.3330   25.6050   41.0320 C   0  0  0  0  0  0  0  0  0  0  0  0
   38.1030   25.8380   41.9350 C   0  0  1  0  0  0  0  0  0  0  0  0
   36.4400   24.3970   42.0980 H   0  0  0  0  0  0  0  0  0  0  0  0
   37.2610   25.1030   39.8700 H   0  0  0  0  0  0  0  0  0  0  0  0
   39.4290   26.4580   40.3560 H   0  0  0  0  0  0  0  0  0  0  0  0
   40.2270   25.5210   41.6530 H   0  0  0  0  0  0  0  0  0  0  0  0
   38.3860   26.1050   42.9640 H   0  0  0  0  0  0  0  0  0  0  0  0
   35.9160   21.2650   38.8790 C   0  0  0  0  0  0  0  0  0  0  0  0
   36.1500   22.5950   39.2160 C   0  0  0  0  0  0  0  0  0  0  0  0
   37.2840   22.9240   39.9200 C   0  0  0  0  0  0  0  0  0  0  0  0
   38.1300   21.8970   40.2510 N   0  0  0  0  0  0  0  0  0  0  0  0
   37.8880   20.6190   39.9170 C   0  0  0  0  0  0  0  0  0  0  0  0
   36.7860   20.3030   39.2340 N   0  0  0  0  0  0  0  0  0  0  0  0
   35.0050   21.0780   38.3270 H   0  0  0  0  0  0  0  0  0  0  0  0
   35.5290   23.4480   38.9880 H   0  0  0  0  0  0  0  0  0  0  0  0
   38.5760   19.8260   40.1920 H   0  0  0  0  0  0  0  0  0  0  0  0
   38.3170   23.6430   42.6270 O   0  0  0  0  0  0  0  0  0  0  0  0
   37.8270   22.8020   42.8070 H   0  0  0  0  0  0  0  0  0  0  0  0
   37.5240   30.8160   41.1660 O   0  0  0  0  0  0  0  0  0  0  0  0
   36.7620   33.3930   40.6840 H   0  0  0  0  0  0  0  0  0  0  0  0
   37.7630   33.0660   40.6890 N   0  0  0  0  0  0  0  0  0  0  0  0
   38.3830   31.8720   40.8950 C   0  0  0  0  0  0  0  0  0  0  0  0
   39.6850   32.0820   40.7710 N   0  0  0  0  0  0  0  0  0  0  0  0
   39.9600   33.3690   40.4900 C   0  0  0  0  0  0  0  0  0  0  0  0
   41.1820   33.9950   40.2850 C   0  0  0  0  0  0  0  0  0  0  0  0
   42.1020   33.4270   40.3440 H   0  0  0  0  0  0  0  0  0  0  0  0
   41.1070   35.3330   40.0140 N   0  0  0  0  0  0  0  0  0  0  0  0
   39.9210   35.9580   39.9590 C   0  0  0  0  0  0  0  0  0  0  0  0
   39.9160   37.0270   39.7390 H   0  0  0  0  0  0  0  0  0  0  0  0
   38.7760   35.3170   40.1620 N   0  0  0  0  0  0  0  0  0  0  0  0
   38.7250   33.9820   40.4400 C   0  0  0  0  0  0  0  0  0  0  0  0
  1  6  1  1  0  0  0
  1 11  1  0  0  0  0
  2  1  1  0  0  0  0
  2  7  1  1  0  0  0
  3  2  1  0  0  0  0
  4  5  1  0  0  0  0
  4  3  1  0  0  0  0
  5 10  1  6  0  0  0
  5 35  1  0  0  0  0
  5  1  1  0  0  0  0
  8  4  1  0  0  0  0
  9  4  1  0  0  0  0
 12 11  1  0  0  0  0
 13 18  1  0  0  0  0
 13  2  1  0  0  0  0
 14 18  1  0  0  0  0
 14 19  1  1  0  0  0
 14 33  1  0  0  0  0
 15 20  1  6  0  0  0
 15 14  1  0  0  0  0
 16 15  1  0  0  0  0
 16 17  1  0  0  0  0
 17 22  1  0  0  0  0
 17 18  1  0  0  0  0
 18 23  1  1  0  0  0
 21 17  1  0  0  0  0
 24 25  2  0  0  0  0
 24 29  1  0  0  0  0
 25 26  1  0  0  0  0
 26 27  2  0  0  0  0
 26 15  1  0  0  0  0
 28 32  1  0  0  0  0
 28 27  1  0  0  0  0
 29 28  2  0  0  0  0
 30 24  1  0  0  0  0
 31 25  1  0  0  0  0
 33 34  1  0  0  0  0
 36 37  1  0  0  0  0
 37 38  1  0  0  0  0
 38 35  1  0  0  0  0
 39 38  2  0  0  0  0
 40 39  1  0  0  0  0
 41 42  1  0  0  0  0
 41 40  2  0  0  0  0
 43 41  1  0  0  0  0
 44 43  2  0  0  0  0
 44 46  1  0  0  0  0
 45 44  1  0  0  0  0
 46 47  2  0  0  0  0
 47 40  1  0  0  0  0
 47 37  1  0  0  0  0
M  END
>  <minimizedAffinity>
-6.71831656

$$$$

 OpenBabel03242516363D

 47 51  0  0  1  0  0  0  0  0999 V2000
   36.8890   27.8310   42.8790 C   0  0  1  0  0  0  0  0  0  0  0  0
   37.5180   29.2590   42.4730 C   0  0  1  0  0  0  0  0  0  0  0  0
   38.8180   28.9140   42.5480 O   0  0  0  0  0  0  0  0  0  0  0  0
   38.8460   27.8560   41.6040 C   0  0  0  0  0  0  0  0  0  0  0  0
   37.8450   26.8990   42.1980 C   0  0  1  0  0  0  0  0  0  0  0  0
   35.8610   27.8010   42.5690 H   0  0  0  0  0  0  0  0  0  0  0  0
   36.9820   29.8940   43.1730 H   0  0  0  0  0  0  0  0  0  0  0  0
   38.5240   28.1770   40.5990 H   0  0  0  0  0  0  0  0  0  0  0  0
   39.8460   27.4380   41.4960 H   0  0  0  0  0  0  0  0  0  0  0  0
   37.3080   26.2990   41.4260 H   0  0  0  0  0  0  0  0  0  0  0  0
   37.1190   27.7370   44.2580 O   0  0  0  0  0  0  0  0  0  0  0  0
   37.9920   27.3410   44.4470 H   0  0  0  0  0  0  0  0  0  0  0  0
   37.1520   29.3940   41.1360 O   0  0  0  0  0  0  0  0  0  0  0  0
   37.6350   31.6660   40.6750 C   0  0  2  0  0  0  0  0  0  0  0  0
   38.2690   31.1260   39.3650 C   0  0  1  0  0  0  0  0  0  0  0  0
   37.1700   31.1610   38.5580 O   0  0  0  0  0  0  0  0  0  0  0  0
   36.1800   30.4860   39.3030 C   0  0  0  0  0  0  0  0  0  0  0  0
   36.5860   30.5820   40.7890 C   0  0  1  0  0  0  0  0  0  0  0  0
   38.3640   31.6900   41.4820 H   0  0  0  0  0  0  0  0  0  0  0  0
   38.5540   30.0750   39.6140 H   0  0  0  0  0  0  0  0  0  0  0  0
   36.0990   29.4290   39.0370 H   0  0  0  0  0  0  0  0  0  0  0  0
   35.2190   30.9800   39.1570 H   0  0  0  0  0  0  0  0  0  0  0  0
   35.7490   30.9030   41.4290 H   0  0  0  0  0  0  0  0  0  0  0  0
   41.1360   32.8630   37.5730 C   0  0  0  0  0  0  0  0  0  0  0  0
   40.1330   31.9210   37.7790 C   0  0  0  0  0  0  0  0  0  0  0  0
   39.3870   31.9700   38.9330 C   0  0  0  0  0  0  0  0  0  0  0  0
   39.6880   32.9670   39.8250 N   0  0  0  0  0  0  0  0  0  0  0  0
   40.6600   33.8690   39.6090 C   0  0  0  0  0  0  0  0  0  0  0  0
   41.3820   33.8180   38.4880 N   0  0  0  0  0  0  0  0  0  0  0  0
   41.6840   32.7650   36.6450 H   0  0  0  0  0  0  0  0  0  0  0  0
   39.8460   31.1140   37.1220 H   0  0  0  0  0  0  0  0  0  0  0  0
   40.8750   34.6480   40.3330 H   0  0  0  0  0  0  0  0  0  0  0  0
   36.9600   32.8360   40.4400 O   0  0  0  0  0  0  0  0  0  0  0  0
   37.5860   33.5850   40.6050 H   0  0  0  0  0  0  0  0  0  0  0  0
   38.4960   26.0700   43.0920 O   0  0  0  0  0  0  0  0  0  0  0  0
   39.7860   27.3990   45.0980 H   0  0  0  0  0  0  0  0  0  0  0  0
   40.2710   26.7930   44.3870 N   0  0  0  0  0  0  0  0  0  0  0  0
   39.8650   26.0480   43.3220 C   0  0  0  0  0  0  0  0  0  0  0  0
   40.9480   25.4970   42.7960 N   0  0  0  0  0  0  0  0  0  0  0  0
   42.0620   25.8430   43.4670 C   0  0  0  0  0  0  0  0  0  0  0  0
   43.3850   25.4850   43.2420 C   0  0  0  0  0  0  0  0  0  0  0  0
   43.6400   24.8290   42.4200 H   0  0  0  0  0  0  0  0  0  0  0  0
   44.2850   26.0200   44.1210 N   0  0  0  0  0  0  0  0  0  0  0  0
   43.8800   26.8260   45.1140 C   0  0  0  0  0  0  0  0  0  0  0  0
   44.6380   27.2270   45.7890 H   0  0  0  0  0  0  0  0  0  0  0  0
   42.6010   27.1420   45.2900 N   0  0  0  0  0  0  0  0  0  0  0  0
   41.6140   26.6690   44.4760 C   0  0  0  0  0  0  0  0  0  0  0  0
  1  6  1  6  0  0  0
  1 11  1  0  0  0  0
  2  3  1  0  0  0  0
  2  1  1  0  0  0  0
  2  7  1  1  0  0  0
  4  5  1  0  0  0  0
  4  3  1  0  0  0  0
  5 10  1  6  0  0  0
  5  1  1  0  0  0  0
  5 35  1  0  0  0  0
  8  4  1  0  0  0  0
  9  4  1  0  0  0  0
 11 12  1  0  0  0  0
 13  2  1  0  0  0  0
 14 18  1  0  0  0  0
 14 19  1  1  0  0  0
 15 20  1  1  0  0  0
 15 14  1  0  0  0  0
 16 17  1  0  0  0  0
 16 15  1  0  0  0  0
 17 18  1  0  0  0  0
 18 13  1  0  0  0  0
 18 23  1  1  0  0  0
 21 17  1  0  0  0  0
 22 17  1  0  0  0  0
 24 25  2  0  0  0  0
 24 29  1  0  0  0  0
 25 26  1  0  0  0  0
 26 15  1  0  0  0  0
 26 27  2  0  0  0  0
 28 27  1  0  0  0  0
 28 32  1  0  0  0  0
 29 28  2  0  0  0  0
 30 24  1  0  0  0  0
 31 25  1  0  0  0  0
 33 34  1  0  0  0  0
 33 14  1  0  0  0  0
 35 38  1  0  0  0  0
 37 47  1  0  0  0  0
 37 36  1  0  0  0  0
 38 37  1  0  0  0  0
 39 38  2  0  0  0  0
 39 40  1  0  0  0  0
 40 47  1  0  0  0  0
 41 40  2  0  0  0  0
 41 43  1  0  0  0  0
 42 41  1  0  0  0  0
 43 44  2  0  0  0  0
 44 46  1  0  0  0  0
 44 45  1  0  0  0  0
 47 46  2  0  0  0  0
M  END
>  <minimizedAffinity>
-6.68722153

$$$$

 OpenBabel03242516363D

 47 51  0  0  1  0  0  0  0  0999 V2000
   39.1100   32.5310   40.9220 C   0  0  1  0  0  0  0  0  0  0  0  0
   37.8590   32.1400   39.9830 C   0  0  1  0  0  0  0  0  0  0  0  0
   38.2100   32.8620   38.9010 O   0  0  0  0  0  0  0  0  0  0  0  0
   39.4800   32.2930   38.6280 C   0  0  0  0  0  0  0  0  0  0  0  0
   40.2170   32.5760   39.9120 C   0  0  1  0  0  0  0  0  0  0  0  0
   39.1910   31.8100   41.7150 H   0  0  0  0  0  0  0  0  0  0  0  0
   37.0470   32.3660   40.6680 H   0  0  0  0  0  0  0  0  0  0  0  0
   39.4260   31.2060   38.4450 H   0  0  0  0  0  0  0  0  0  0  0  0
   39.9410   32.7390   37.7470 H   0  0  0  0  0  0  0  0  0  0  0  0
   40.9830   31.8010   40.1510 H   0  0  0  0  0  0  0  0  0  0  0  0
   38.8440   33.8500   41.3130 O   0  0  0  0  0  0  0  0  0  0  0  0
   39.2020   34.4920   40.6690 H   0  0  0  0  0  0  0  0  0  0  0  0
   38.0710   30.7880   39.7260 O   0  0  0  0  0  0  0  0  0  0  0  0
   37.4950   28.5470   40.2320 C   0  0  2  0  0  0  0  0  0  0  0  0
   38.1130   28.8450   41.6250 C   0  0  1  0  0  0  0  0  0  0  0  0
   37.0020   29.3110   42.2640 O   0  0  0  0  0  0  0  0  0  0  0  0
   36.4950   30.2950   41.3890 C   0  0  0  0  0  0  0  0  0  0  0  0
   37.0200   29.9610   39.9770 C   0  0  1  0  0  0  0  0  0  0  0  0
   38.2490   28.1820   39.5390 H   0  0  0  0  0  0  0  0  0  0  0  0
   38.8410   29.6690   41.4290 H   0  0  0  0  0  0  0  0  0  0  0  0
   36.8270   31.3030   41.6500 H   0  0  0  0  0  0  0  0  0  0  0  0
   35.4050   30.2510   41.3910 H   0  0  0  0  0  0  0  0  0  0  0  0
   36.2200   29.9820   39.2210 H   0  0  0  0  0  0  0  0  0  0  0  0
   39.7180   26.1710   43.8000 C   0  0  0  0  0  0  0  0  0  0  0  0
   39.2360   27.4320   43.4590 C   0  0  0  0  0  0  0  0  0  0  0  0
   38.7080   27.6380   42.2060 C   0  0  0  0  0  0  0  0  0  0  0  0
   38.6920   26.5630   41.3550 N   0  0  0  0  0  0  0  0  0  0  0  0
   39.1620   25.3530   41.7010 C   0  0  0  0  0  0  0  0  0  0  0  0
   39.6740   25.1570   42.9180 N   0  0  0  0  0  0  0  0  0  0  0  0
   40.1190   26.0810   44.8000 H   0  0  0  0  0  0  0  0  0  0  0  0
   39.2180   28.3160   44.0780 H   0  0  0  0  0  0  0  0  0  0  0  0
   39.1360   24.5200   41.0060 H   0  0  0  0  0  0  0  0  0  0  0  0
   36.3690   27.7760   40.3570 O   0  0  0  0  0  0  0  0  0  0  0  0
   36.6410   26.8280   40.2780 H   0  0  0  0  0  0  0  0  0  0  0  0
   40.7990   33.8260   39.8260 O   0  0  0  0  0  0  0  0  0  0  0  0
   41.0260   35.3430   42.0850 H   0  0  0  0  0  0  0  0  0  0  0  0
   41.8470   34.9610   41.5470 N   0  0  0  0  0  0  0  0  0  0  0  0
   41.9930   34.2030   40.4260 C   0  0  0  0  0  0  0  0  0  0  0  0
   43.2930   34.0410   40.2300 N   0  0  0  0  0  0  0  0  0  0  0  0
   44.0220   34.6610   41.1760 C   0  0  0  0  0  0  0  0  0  0  0  0
   45.4000   34.7350   41.3330 C   0  0  0  0  0  0  0  0  0  0  0  0
   46.0560   34.2440   40.6270 H   0  0  0  0  0  0  0  0  0  0  0  0
   45.8190   35.4560   42.4170 N   0  0  0  0  0  0  0  0  0  0  0  0
   44.9340   36.0330   43.2430 C   0  0  0  0  0  0  0  0  0  0  0  0
   45.3200   36.5980   44.0930 H   0  0  0  0  0  0  0  0  0  0  0  0
   43.6230   35.9350   43.0520 N   0  0  0  0  0  0  0  0  0  0  0  0
   43.0860   35.2430   42.0060 C   0  0  0  0  0  0  0  0  0  0  0  0
  1 11  1  0  0  0  0
  1  6  1  1  0  0  0
  2  7  1  1  0  0  0
  2  1  1  0  0  0  0
  3  2  1  0  0  0  0
  4  3  1  0  0  0  0
  4  5  1  0  0  0  0
  5 10  1  1  0  0  0
  5  1  1  0  0  0  0
  8  4  1  0  0  0  0
  9  4  1  0  0  0  0
 12 11  1  0  0  0  0
 13 18  1  0  0  0  0
 13  2  1  0  0  0  0
 14 19  1  6  0  0  0
 14 33  1  0  0  0  0
 14 15  1  0  0  0  0
 15 20  1  6  0  0  0
 15 26  1  0  0  0  0
 15 16  1  0  0  0  0
 17 22  1  0  0  0  0
 17 21  1  0  0  0  0
 17 16  1  0  0  0  0
 18 23  1  6  0  0  0
 18 14  1  0  0  0  0
 18 17  1  0  0  0  0
 24 30  1  0  0  0  0
 25 24  1  0  0  0  0
 25 31  1  0  0  0  0
 26 25  2  0  0  0  0
 27 28  2  0  0  0  0
 27 26  1  0  0  0  0
 28 29  1  0  0  0  0
 29 24  2  0  0  0  0
 32 28  1  0  0  0  0
 34 33  1  0  0  0  0
 35  5  1  0  0  0  0
 35 38  1  0  0  0  0
 37 47  1  0  0  0  0
 37 36  1  0  0  0  0
 38 37  1  0  0  0  0
 39 38  2  0  0  0  0
 39 40  1  0  0  0  0
 40 41  2  0  0  0  0
 40 47  1  0  0  0  0
 41 43  1  0  0  0  0
 42 41  1  0  0  0  0
 43 44  2  0  0  0  0
 44 45  1  0  0  0  0
 46 44  1  0  0  0  0
 47 46  2  0  0  0  0
M  END
>  <minimizedAffinity>
-6.68630791

$$$$

 OpenBabel03242516363D

 47 51  0  0  1  0  0  0  0  0999 V2000
   37.6900   32.7740   40.1800 C   0  0  1  0  0  0  0  0  0  0  0  0
   37.4900   31.4290   39.3130 C   0  0  1  0  0  0  0  0  0  0  0  0
   38.6820   31.4360   38.6860 O   0  0  0  0  0  0  0  0  0  0  0  0
   39.5490   31.4090   39.8090 C   0  0  0  0  0  0  0  0  0  0  0  0
   39.1450   32.6690   40.5300 C   0  0  1  0  0  0  0  0  0  0  0  0
   36.9850   32.7760   40.9900 H   0  0  0  0  0  0  0  0  0  0  0  0
   36.5280   31.6520   38.8620 H   0  0  0  0  0  0  0  0  0  0  0  0
   39.3840   30.5270   40.4500 H   0  0  0  0  0  0  0  0  0  0  0  0
   40.5970   31.3890   39.5090 H   0  0  0  0  0  0  0  0  0  0  0  0
   39.2660   32.5920   41.6360 H   0  0  0  0  0  0  0  0  0  0  0  0
   37.5570   33.8060   39.2420 O   0  0  0  0  0  0  0  0  0  0  0  0
   38.4130   34.0190   38.8220 H   0  0  0  0  0  0  0  0  0  0  0  0
   37.4830   30.4290   40.2830 O   0  0  0  0  0  0  0  0  0  0  0  0
   37.8800   28.0960   40.1890 C   0  0  2  0  0  0  0  0  0  0  0  0
   37.7290   28.1450   41.7340 C   0  0  1  0  0  0  0  0  0  0  0  0
   36.3820   27.9460   41.8300 O   0  0  0  0  0  0  0  0  0  0  0  0
   35.8360   28.8990   40.9450 C   0  0  0  0  0  0  0  0  0  0  0  0
   36.9310   29.2420   39.9130 C   0  0  1  0  0  0  0  0  0  0  0  0
   38.9110   28.2690   39.8910 H   0  0  0  0  0  0  0  0  0  0  0  0
   38.0020   29.1940   42.0010 H   0  0  0  0  0  0  0  0  0  0  0  0
   35.5370   29.8210   41.4490 H   0  0  0  0  0  0  0  0  0  0  0  0
   34.9780   28.4620   40.4310 H   0  0  0  0  0  0  0  0  0  0  0  0
   36.5540   29.2070   38.8790 H   0  0  0  0  0  0  0  0  0  0  0  0
   40.2410   26.1250   43.7500 C   0  0  0  0  0  0  0  0  0  0  0  0
   39.6240   27.2610   43.2340 C   0  0  0  0  0  0  0  0  0  0  0  0
   38.5580   27.1210   42.3760 C   0  0  0  0  0  0  0  0  0  0  0  0
   38.1650   25.8410   42.0790 N   0  0  0  0  0  0  0  0  0  0  0  0
   38.7730   24.7560   42.5860 C   0  0  0  0  0  0  0  0  0  0  0  0
   39.8070   24.8970   43.4190 N   0  0  0  0  0  0  0  0  0  0  0  0
   41.0720   26.3090   44.4170 H   0  0  0  0  0  0  0  0  0  0  0  0
   39.8810   28.2920   43.4260 H   0  0  0  0  0  0  0  0  0  0  0  0
   38.4390   23.7550   42.3330 H   0  0  0  0  0  0  0  0  0  0  0  0
   37.2860   26.9700   39.6800 O   0  0  0  0  0  0  0  0  0  0  0  0
   37.9770   26.2630   39.6250 H   0  0  0  0  0  0  0  0  0  0  0  0
   39.8820   33.7250   40.0300 O   0  0  0  0  0  0  0  0  0  0  0  0
   40.7350   35.3540   42.0490 H   0  0  0  0  0  0  0  0  0  0  0  0
   41.3800   34.8440   41.3920 N   0  0  0  0  0  0  0  0  0  0  0  0
   41.2080   34.0010   40.3370 C   0  0  0  0  0  0  0  0  0  0  0  0
   42.4130   33.6760   39.8960 N   0  0  0  0  0  0  0  0  0  0  0  0
   43.3850   34.2700   40.6130 C   0  0  0  0  0  0  0  0  0  0  0  0
   44.7660   34.1940   40.4780 C   0  0  0  0  0  0  0  0  0  0  0  0
   45.2040   33.5830   39.6990 H   0  0  0  0  0  0  0  0  0  0  0  0
   45.4750   34.9320   41.3840 N   0  0  0  0  0  0  0  0  0  0  0  0
   44.8480   35.6620   42.3180 C   0  0  0  0  0  0  0  0  0  0  0  0
   45.4610   36.2340   43.0170 H   0  0  0  0  0  0  0  0  0  0  0  0
   43.5230   35.7050   42.4090 N   0  0  0  0  0  0  0  0  0  0  0  0
   42.7100   35.0100   41.5610 C   0  0  0  0  0  0  0  0  0  0  0  0
  1  5  1  0  0  0  0
  1  6  1  1  0  0  0
  2  7  1  6  0  0  0
  2  1  1  0  0  0  0
  2 13  1  0  0  0  0
  3  2  1  0  0  0  0
  3  4  1  0  0  0  0
  4  8  1  0  0  0  0
  4  5  1  0  0  0  0
  5 10  1  1  0  0  0
  9  4  1  0  0  0  0
 11  1  1  0  0  0  0
 12 11  1  0  0  0  0
 14 19  1  6  0  0  0
 14 15  1  0  0  0  0
 15 16  1  0  0  0  0
 15 20  1  1  0  0  0
 15 26  1  0  0  0  0
 17 21  1  0  0  0  0
 17 16  1  0  0  0  0
 18 23  1  6  0  0  0
 18 14  1  0  0  0  0
 18 13  1  0  0  0  0
 18 17  1  0  0  0  0
 22 17  1  0  0  0  0
 24 30  1  0  0  0  0
 25 31  1  0  0  0  0
 25 24  2  0  0  0  0
 26 25  1  0  0  0  0
 27 26  2  0  0  0  0
 27 28  1  0  0  0  0
 28 29  2  0  0  0  0
 29 24  1  0  0  0  0
 32 28  1  0  0  0  0
 33 14  1  0  0  0  0
 34 33  1  0  0  0  0
 35 38  1  0  0  0  0
 35  5  1  0  0  0  0
 37 47  1  0  0  0  0
 37 36  1  0  0  0  0
 38 37  1  0  0  0  0
 39 38  2  0  0  0  0
 39 40  1  0  0  0  0
 40 47  1  0  0  0  0
 41 40  2  0  0  0  0
 41 43  1  0  0  0  0
 42 41  1  0  0  0  0
 43 44  2  0  0  0  0
 44 46  1  0  0  0  0
 44 45  1  0  0  0  0
 47 46  2  0  0  0  0
M  END
>  <minimizedAffinity>
-6.54005051

$$$$

 OpenBabel03242516363D

 47 51  0  0  1  0  0  0  0  0999 V2000
   36.8140   28.3130   41.8310 C   0  0  1  0  0  0  0  0  0  0  0  0
   37.8040   29.4370   42.4270 C   0  0  1  0  0  0  0  0  0  0  0  0
   38.7270   28.6090   42.9530 O   0  0  0  0  0  0  0  0  0  0  0  0
   39.1130   27.9000   41.7870 C   0  0  0  0  0  0  0  0  0  0  0  0
   37.8030   27.2880   41.3610 C   0  0  1  0  0  0  0  0  0  0  0  0
   36.1780   28.7640   41.0920 H   0  0  0  0  0  0  0  0  0  0  0  0
   37.0840   30.0300   42.9840 H   0  0  0  0  0  0  0  0  0  0  0  0
   39.5040   28.5640   40.9980 H   0  0  0  0  0  0  0  0  0  0  0  0
   39.8930   27.1680   41.9990 H   0  0  0  0  0  0  0  0  0  0  0  0
   37.7240   27.1620   40.2560 H   0  0  0  0  0  0  0  0  0  0  0  0
   36.1730   27.7900   42.9620 O   0  0  0  0  0  0  0  0  0  0  0  0
   36.6810   27.0520   43.3510 H   0  0  0  0  0  0  0  0  0  0  0  0
   38.3220   30.0380   41.2820 O   0  0  0  0  0  0  0  0  0  0  0  0
   37.8930   32.3010   40.7300 C   0  0  2  0  0  0  0  0  0  0  0  0
   39.1460   32.1760   39.8210 C   0  0  1  0  0  0  0  0  0  0  0  0
   38.5440   31.7470   38.6750 O   0  0  0  0  0  0  0  0  0  0  0  0
   37.7510   30.6590   39.0950 C   0  0  0  0  0  0  0  0  0  0  0  0
   37.4720   30.8540   40.6010 C   0  0  1  0  0  0  0  0  0  0  0  0
   38.1690   32.6130   41.7360 H   0  0  0  0  0  0  0  0  0  0  0  0
   39.7440   31.3590   40.2930 H   0  0  0  0  0  0  0  0  0  0  0  0
   38.2510   29.6960   38.9600 H   0  0  0  0  0  0  0  0  0  0  0  0
   36.8080   30.6680   38.5470 H   0  0  0  0  0  0  0  0  0  0  0  0
   36.4070   30.7250   40.8460 H   0  0  0  0  0  0  0  0  0  0  0  0
   41.4280   35.1050   39.0040 C   0  0  0  0  0  0  0  0  0  0  0  0
   40.9540   33.7960   38.9680 C   0  0  0  0  0  0  0  0  0  0  0  0
   39.8500   33.4580   39.7150 C   0  0  0  0  0  0  0  0  0  0  0  0
   39.2770   34.4530   40.4640 N   0  0  0  0  0  0  0  0  0  0  0  0
   39.7490   35.7110   40.4860 C   0  0  0  0  0  0  0  0  0  0  0  0
   40.8200   36.0360   39.7590 N   0  0  0  0  0  0  0  0  0  0  0  0
   42.2990   35.3010   38.3930 H   0  0  0  0  0  0  0  0  0  0  0  0
   41.3550   32.9690   38.4040 H   0  0  0  0  0  0  0  0  0  0  0  0
   39.2740   36.4790   41.0880 H   0  0  0  0  0  0  0  0  0  0  0  0
   36.9210   33.0450   40.1140 O   0  0  0  0  0  0  0  0  0  0  0  0
   37.0390   33.9880   40.3930 H   0  0  0  0  0  0  0  0  0  0  0  0
   37.6470   26.0750   42.0030 O   0  0  0  0  0  0  0  0  0  0  0  0
   35.6700   25.2530   40.3100 H   0  0  0  0  0  0  0  0  0  0  0  0
   36.4970   24.6600   40.5800 N   0  0  0  0  0  0  0  0  0  0  0  0
   37.5840   24.8350   41.3810 C   0  0  0  0  0  0  0  0  0  0  0  0
   38.2920   23.7180   41.3280 N   0  0  0  0  0  0  0  0  0  0  0  0
   37.7230   22.8030   40.5220 C   0  0  0  0  0  0  0  0  0  0  0  0
   38.1400   21.5180   40.1980 C   0  0  0  0  0  0  0  0  0  0  0  0
   39.0560   21.1200   40.6170 H   0  0  0  0  0  0  0  0  0  0  0  0
   37.3180   20.8450   39.3390 N   0  0  0  0  0  0  0  0  0  0  0  0
   36.2000   21.4160   38.8660 C   0  0  0  0  0  0  0  0  0  0  0  0
   35.5780   20.8350   38.1830 H   0  0  0  0  0  0  0  0  0  0  0  0
   35.8400   22.6490   39.2050 N   0  0  0  0  0  0  0  0  0  0  0  0
   36.5810   23.4180   40.0550 C   0  0  0  0  0  0  0  0  0  0  0  0
  1  6  1  6  0  0  0
  1  2  1  0  0  0  0
  1 11  1  0  0  0  0
  2  3  1  0  0  0  0
  2  7  1  1  0  0  0
  4  9  1  0  0  0  0
  4  3  1  0  0  0  0
  5 10  1  6  0  0  0
  5  4  1  0  0  0  0
  5  1  1  0  0  0  0
  5 35  1  0  0  0  0
  8  4  1  0  0  0  0
 11 12  1  0  0  0  0
 13  2  1  0  0  0  0
 14 19  1  1  0  0  0
 15 20  1  1  0  0  0
 15 14  1  0  0  0  0
 16 17  1  0  0  0  0
 16 15  1  0  0  0  0
 17 18  1  0  0  0  0
 18 14  1  0  0  0  0
 18 23  1  1  0  0  0
 18 13  1  0  0  0  0
 21 17  1  0  0  0  0
 22 17  1  0  0  0  0
 24 29  1  0  0  0  0
 25 24  2  0  0  0  0
 25 26  1  0  0  0  0
 26 15  1  0  0  0  0
 26 27  2  0  0  0  0
 27 28  1  0  0  0  0
 28 32  1  0  0  0  0
 29 28  2  0  0  0  0
 30 24  1  0  0  0  0
 31 25  1  0  0  0  0
 33 34  1  0  0  0  0
 33 14  1  0  0  0  0
 36 37  1  0  0  0  0
 37 38  1  0  0  0  0
 38 35  1  0  0  0  0
 39 38  2  0  0  0  0
 40 39  1  0  0  0  0
 41 40  1  0  0  0  0
 41 42  1  0  0  0  0
 43 41  2  0  0  0  0
 44 46  2  0  0  0  0
 44 43  1  0  0  0  0
 45 44  1  0  0  0  0
 46 47  1  0  0  0  0
 47 40  2  0  0  0  0
 47 37  1  0  0  0  0
M  END
>  <minimizedAffinity>
-6.45292664

$$$$

 OpenBabel03242516363D

 47 51  0  0  1  0  0  0  0  0999 V2000
   38.0950   28.7330   42.2220 C   0  0  1  0  0  0  0  0  0  0  0  0
   36.9010   27.6670   42.0300 C   0  0  1  0  0  0  0  0  0  0  0  0
   36.0060   28.4950   41.4570 O   0  0  0  0  0  0  0  0  0  0  0  0
   36.7490   28.9090   40.3210 C   0  0  0  0  0  0  0  0  0  0  0  0
   37.9550   29.5400   40.9660 C   0  0  1  0  0  0  0  0  0  0  0  0
   39.0170   28.2020   42.3700 H   0  0  0  0  0  0  0  0  0  0  0  0
   36.8520   27.2730   43.0410 H   0  0  0  0  0  0  0  0  0  0  0  0
   37.0510   28.0620   39.6820 H   0  0  0  0  0  0  0  0  0  0  0  0
   36.1770   29.5910   39.6920 H   0  0  0  0  0  0  0  0  0  0  0  0
   38.8770   29.4440   40.3460 H   0  0  0  0  0  0  0  0  0  0  0  0
   37.6670   29.5360   43.2870 O   0  0  0  0  0  0  0  0  0  0  0  0
   37.1260   30.2860   42.9740 H   0  0  0  0  0  0  0  0  0  0  0  0
   37.4080   26.7970   41.0680 O   0  0  0  0  0  0  0  0  0  0  0  0
   37.2410   24.4750   41.5060 C   0  0  2  0  0  0  0  0  0  0  0  0
   37.2620   24.3200   39.9610 C   0  0  1  0  0  0  0  0  0  0  0  0
   38.6090   24.2210   39.7680 O   0  0  0  0  0  0  0  0  0  0  0  0
   39.1330   25.3290   40.4660 C   0  0  0  0  0  0  0  0  0  0  0  0
   38.0970   25.7230   41.5400 C   0  0  1  0  0  0  0  0  0  0  0  0
   36.2250   24.6030   41.8730 H   0  0  0  0  0  0  0  0  0  0  0  0
   36.8710   25.2950   39.5840 H   0  0  0  0  0  0  0  0  0  0  0  0
   39.3030   26.1930   39.8180 H   0  0  0  0  0  0  0  0  0  0  0  0
   40.0670   25.0400   40.9510 H   0  0  0  0  0  0  0  0  0  0  0  0
   38.5570   25.8630   42.5300 H   0  0  0  0  0  0  0  0  0  0  0  0
   35.9710   20.9340   38.8100 C   0  0  0  0  0  0  0  0  0  0  0  0
   36.9110   21.9090   39.1340 C   0  0  0  0  0  0  0  0  0  0  0  0
   36.4840   23.1510   39.5380 C   0  0  0  0  0  0  0  0  0  0  0  0
   35.1290   23.3540   39.5960 N   0  0  0  0  0  0  0  0  0  0  0  0
   34.2360   22.4020   39.2790 C   0  0  0  0  0  0  0  0  0  0  0  0
   34.6540   21.1970   38.8870 N   0  0  0  0  0  0  0  0  0  0  0  0
   36.3760   19.9810   38.4990 H   0  0  0  0  0  0  0  0  0  0  0  0
   37.9860   21.8150   39.1110 H   0  0  0  0  0  0  0  0  0  0  0  0
   33.1690   22.5920   39.3340 H   0  0  0  0  0  0  0  0  0  0  0  0
   37.9760   23.4840   42.1020 O   0  0  0  0  0  0  0  0  0  0  0  0
   37.3610   22.7370   42.3140 H   0  0  0  0  0  0  0  0  0  0  0  0
   37.6790   30.8690   41.2250 O   0  0  0  0  0  0  0  0  0  0  0  0
   36.8720   33.4210   40.6870 H   0  0  0  0  0  0  0  0  0  0  0  0
   37.8790   33.1150   40.7100 N   0  0  0  0  0  0  0  0  0  0  0  0
   38.5200   31.9380   40.9450 C   0  0  0  0  0  0  0  0  0  0  0  0
   39.8190   32.1710   40.8320 N   0  0  0  0  0  0  0  0  0  0  0  0
   40.0710   33.4580   40.5310 C   0  0  0  0  0  0  0  0  0  0  0  0
   41.2840   34.1050   40.3290 C   0  0  0  0  0  0  0  0  0  0  0  0
   42.2140   33.5560   40.4100 H   0  0  0  0  0  0  0  0  0  0  0  0
   41.1860   35.4350   40.0340 N   0  0  0  0  0  0  0  0  0  0  0  0
   39.9890   36.0360   39.9540 C   0  0  0  0  0  0  0  0  0  0  0  0
   39.9650   37.1000   39.7150 H   0  0  0  0  0  0  0  0  0  0  0  0
   38.8530   35.3760   40.1550 N   0  0  0  0  0  0  0  0  0  0  0  0
   38.8260   34.0450   40.4560 C   0  0  0  0  0  0  0  0  0  0  0  0
  1  6  1  1  0  0  0
  1 11  1  0  0  0  0
  2  1  1  0  0  0  0
  2  7  1  1  0  0  0
  3  2  1  0  0  0  0
  4  5  1  0  0  0  0
  4  3  1  0  0  0  0
  5 10  1  6  0  0  0
  5 35  1  0  0  0  0
  5  1  1  0  0  0  0
  8  4  1  0  0  0  0
  9  4  1  0  0  0  0
 12 11  1  0  0  0  0
 13 18  1  0  0  0  0
 13  2  1  0  0  0  0
 14 18  1  0  0  0  0
 14 19  1  1  0  0  0
 14 33  1  0  0  0  0
 15 20  1  6  0  0  0
 15 14  1  0  0  0  0
 16 15  1  0  0  0  0
 16 17  1  0  0  0  0
 17 22  1  0  0  0  0
 17 18  1  0  0  0  0
 18 23  1  1  0  0  0
 21 17  1  0  0  0  0
 24 29  2  0  0  0  0
 24 25  1  0  0  0  0
 25 26  2  0  0  0  0
 26 27  1  0  0  0  0
 26 15  1  0  0  0  0
 28 32  1  0  0  0  0
 28 27  2  0  0  0  0
 29 28  1  0  0  0  0
 30 24  1  0  0  0  0
 31 25  1  0  0  0  0
 33 34  1  0  0  0  0
 36 37  1  0  0  0  0
 37 38  1  0  0  0  0
 38 35  1  0  0  0  0
 39 38  2  0  0  0  0
 40 39  1  0  0  0  0
 41 42  1  0  0  0  0
 41 40  2  0  0  0  0
 43 41  1  0  0  0  0
 44 43  2  0  0  0  0
 44 46  1  0  0  0  0
 45 44  1  0  0  0  0
 46 47  2  0  0  0  0
 47 40  1  0  0  0  0
 47 37  1  0  0  0  0
M  END
>  <minimizedAffinity>
-6.43193245

$$$$

 OpenBabel03242516363D

 47 51  0  0  1  0  0  0  0  0999 V2000
   37.2610   25.6830   41.3060 C   0  0  1  0  0  0  0  0  0  0  0  0
   36.8950   27.1480   41.8710 C   0  0  1  0  0  0  0  0  0  0  0  0
   38.0350   27.3720   42.5520 O   0  0  0  0  0  0  0  0  0  0  0  0
   38.9770   27.2560   41.4990 C   0  0  0  0  0  0  0  0  0  0  0  0
   38.7250   25.8490   41.0250 C   0  0  1  0  0  0  0  0  0  0  0  0
   36.6190   25.4580   40.4750 H   0  0  0  0  0  0  0  0  0  0  0  0
   35.9220   26.9320   42.3030 H   0  0  0  0  0  0  0  0  0  0  0  0
   38.7910   27.9770   40.6840 H   0  0  0  0  0  0  0  0  0  0  0  0
   39.9950   27.4290   41.8470 H   0  0  0  0  0  0  0  0  0  0  0  0
   38.9210   25.7170   39.9350 H   0  0  0  0  0  0  0  0  0  0  0  0
   37.1400   24.8470   42.4240 O   0  0  0  0  0  0  0  0  0  0  0  0
   37.9770   24.7990   42.9260 H   0  0  0  0  0  0  0  0  0  0  0  0
   36.8820   27.9330   40.7200 O   0  0  0  0  0  0  0  0  0  0  0  0
   36.6240   30.2250   41.2590 C   0  0  2  0  0  0  0  0  0  0  0  0
   37.5440   30.4770   40.0340 C   0  0  1  0  0  0  0  0  0  0  0  0
   36.5940   30.5650   39.0590 O   0  0  0  0  0  0  0  0  0  0  0  0
   35.8120   29.4050   39.2430 C   0  0  0  0  0  0  0  0  0  0  0  0
   35.9930   28.9630   40.7110 C   0  0  1  0  0  0  0  0  0  0  0  0
   37.2080   30.0920   42.1670 H   0  0  0  0  0  0  0  0  0  0  0  0
   38.1350   29.5340   39.9390 H   0  0  0  0  0  0  0  0  0  0  0  0
   36.1200   28.5810   38.5950 H   0  0  0  0  0  0  0  0  0  0  0  0
   34.7630   29.6470   39.0640 H   0  0  0  0  0  0  0  0  0  0  0  0
   35.0310   28.7530   41.2030 H   0  0  0  0  0  0  0  0  0  0  0  0
   40.2640   33.0780   40.5770 C   0  0  0  0  0  0  0  0  0  0  0  0
   39.7040   31.8080   40.4650 C   0  0  0  0  0  0  0  0  0  0  0  0
   38.3560   31.6830   40.2240 C   0  0  0  0  0  0  0  0  0  0  0  0
   37.6350   32.8440   40.1090 N   0  0  0  0  0  0  0  0  0  0  0  0
   38.1920   34.0610   40.2210 C   0  0  0  0  0  0  0  0  0  0  0  0
   39.5010   34.1790   40.4550 N   0  0  0  0  0  0  0  0  0  0  0  0
   41.3280   33.1030   40.7670 H   0  0  0  0  0  0  0  0  0  0  0  0
   40.2110   30.8590   40.5440 H   0  0  0  0  0  0  0  0  0  0  0  0
   37.5970   34.9630   40.1250 H   0  0  0  0  0  0  0  0  0  0  0  0
   35.6270   31.1640   41.3160 O   0  0  0  0  0  0  0  0  0  0  0  0
   35.9430   31.9060   41.8900 H   0  0  0  0  0  0  0  0  0  0  0  0
   39.5030   24.9820   41.7680 O   0  0  0  0  0  0  0  0  0  0  0  0
   39.7090   26.3800   44.1040 H   0  0  0  0  0  0  0  0  0  0  0  0
   40.5340   26.0140   43.5630 N   0  0  0  0  0  0  0  0  0  0  0  0
   40.6910   25.3100   42.4080 C   0  0  0  0  0  0  0  0  0  0  0  0
   41.9920   25.1380   42.2290 N   0  0  0  0  0  0  0  0  0  0  0  0
   42.7110   25.6990   43.2180 C   0  0  0  0  0  0  0  0  0  0  0  0
   44.0870   25.7450   43.4040 C   0  0  0  0  0  0  0  0  0  0  0  0
   44.7500   25.2790   42.6850 H   0  0  0  0  0  0  0  0  0  0  0  0
   44.4950   26.4040   44.5290 N   0  0  0  0  0  0  0  0  0  0  0  0
   43.6030   26.9530   45.3670 C   0  0  0  0  0  0  0  0  0  0  0  0
   43.9810   27.4680   46.2520 H   0  0  0  0  0  0  0  0  0  0  0  0
   42.2940   26.8840   45.1480 N   0  0  0  0  0  0  0  0  0  0  0  0
   41.7680   26.2530   44.0580 C   0  0  0  0  0  0  0  0  0  0  0  0
  1  6  1  6  0  0  0
  1  2  1  0  0  0  0
  1 11  1  0  0  0  0
  2  7  1  1  0  0  0
  2  3  1  0  0  0  0
  4  9  1  0  0  0  0
  4  3  1  0  0  0  0
  5 10  1  6  0  0  0
  5  1  1  0  0  0  0
  5  4  1  0  0  0  0
  5 35  1  0  0  0  0
  8  4  1  0  0  0  0
 11 12  1  0  0  0  0
 13  2  1  0  0  0  0
 14 33  1  0  0  0  0
 14 19  1  1  0  0  0
 15 20  1  6  0  0  0
 15 26  1  0  0  0  0
 15 14  1  0  0  0  0
 16 17  1  0  0  0  0
 16 15  1  0  0  0  0
 17 18  1  0  0  0  0
 18 13  1  0  0  0  0
 18 23  1  1  0  0  0
 18 14  1  0  0  0  0
 21 17  1  0  0  0  0
 22 17  1  0  0  0  0
 24 30  1  0  0  0  0
 25 31  1  0  0  0  0
 25 24  1  0  0  0  0
 26 25  2  0  0  0  0
 27 28  2  0  0  0  0
 27 26  1  0  0  0  0
 28 29  1  0  0  0  0
 29 24  2  0  0  0  0
 32 28  1  0  0  0  0
 33 34  1  0  0  0  0
 35 38  1  0  0  0  0
 37 47  1  0  0  0  0
 37 36  1  0  0  0  0
 38 37  1  0  0  0  0
 39 38  2  0  0  0  0
 39 40  1  0  0  0  0
 40 41  2  0  0  0  0
 40 47  1  0  0  0  0
 41 43  1  0  0  0  0
 42 41  1  0  0  0  0
 43 44  2  0  0  0  0
 44 45  1  0  0  0  0
 46 44  1  0  0  0  0
 47 46  2  0  0  0  0
M  END
>  <minimizedAffinity>
-6.401371

$$$$

 OpenBabel03242516363D

 47 51  0  0  1  0  0  0  0  0999 V2000
   37.8050   32.9200   39.5420 C   0  0  1  0  0  0  0  0  0  0  0  0
   39.1000   33.0450   40.4940 C   0  0  1  0  0  0  0  0  0  0  0  0
   39.0490   31.8130   41.0360 O   0  0  0  0  0  0  0  0  0  0  0  0
   39.1330   31.0250   39.8590 C   0  0  0  0  0  0  0  0  0  0  0  0
   37.9190   31.4920   39.0990 C   0  0  1  0  0  0  0  0  0  0  0  0
   37.8540   33.6800   38.7840 H   0  0  0  0  0  0  0  0  0  0  0  0
   38.8600   33.9760   40.9980 H   0  0  0  0  0  0  0  0  0  0  0  0
   40.0520   31.2240   39.2820 H   0  0  0  0  0  0  0  0  0  0  0  0
   39.1280   29.9580   40.0860 H   0  0  0  0  0  0  0  0  0  0  0  0
   38.0580   31.4460   37.9930 H   0  0  0  0  0  0  0  0  0  0  0  0
   36.7230   33.0000   40.4270 O   0  0  0  0  0  0  0  0  0  0  0  0
   36.4800   32.1200   40.7740 H   0  0  0  0  0  0  0  0  0  0  0  0
   40.1530   33.1070   39.5850 O   0  0  0  0  0  0  0  0  0  0  0  0
   41.4650   34.7560   40.6660 C   0  0  2  0  0  0  0  0  0  0  0  0
   42.6300   33.7420   40.5050 C   0  0  1  0  0  0  0  0  0  0  0  0
   43.0920   34.1300   39.2810 O   0  0  0  0  0  0  0  0  0  0  0  0
   41.9340   34.1510   38.4740 C   0  0  0  0  0  0  0  0  0  0  0  0
   40.7250   34.3300   39.4170 C   0  0  1  0  0  0  0  0  0  0  0  0
   40.9290   34.5910   41.5980 H   0  0  0  0  0  0  0  0  0  0  0  0
   42.1210   32.7500   40.4490 H   0  0  0  0  0  0  0  0  0  0  0  0
   41.7960   33.2250   37.9100 H   0  0  0  0  0  0  0  0  0  0  0  0
   41.9880   34.9980   37.7890 H   0  0  0  0  0  0  0  0  0  0  0  0
   40.0420   35.1200   39.0700 H   0  0  0  0  0  0  0  0  0  0  0  0
   44.8810   33.3170   43.5390 C   0  0  0  0  0  0  0  0  0  0  0  0
   43.8900   32.9890   42.6180 C   0  0  0  0  0  0  0  0  0  0  0  0
   43.5930   33.8680   41.6030 C   0  0  0  0  0  0  0  0  0  0  0  0
   44.3100   35.0360   41.5640 N   0  0  0  0  0  0  0  0  0  0  0  0
   45.2640   35.3360   42.4600 C   0  0  0  0  0  0  0  0  0  0  0  0
   45.5490   34.4810   43.4450 N   0  0  0  0  0  0  0  0  0  0  0  0
   45.0620   32.5810   44.3110 H   0  0  0  0  0  0  0  0  0  0  0  0
   43.2910   32.0920   42.5920 H   0  0  0  0  0  0  0  0  0  0  0  0
   45.8160   36.2680   42.4040 H   0  0  0  0  0  0  0  0  0  0  0  0
   41.9020   36.0360   40.4410 O   0  0  0  0  0  0  0  0  0  0  0  0
   42.1670   36.4230   41.3130 H   0  0  0  0  0  0  0  0  0  0  0  0
   36.8310   30.7340   39.4850 O   0  0  0  0  0  0  0  0  0  0  0  0
   36.9370   28.2570   38.3420 H   0  0  0  0  0  0  0  0  0  0  0  0
   36.9350   28.4260   39.3810 N   0  0  0  0  0  0  0  0  0  0  0  0
   36.8890   29.5310   40.1750 C   0  0  0  0  0  0  0  0  0  0  0  0
   36.9160   29.1110   41.4310 N   0  0  0  0  0  0  0  0  0  0  0  0
   36.9780   27.7680   41.5080 C   0  0  0  0  0  0  0  0  0  0  0  0
   37.0220   26.9400   42.6220 C   0  0  0  0  0  0  0  0  0  0  0  0
   37.0080   27.3660   43.6180 H   0  0  0  0  0  0  0  0  0  0  0  0
   37.0810   25.6030   42.3450 N   0  0  0  0  0  0  0  0  0  0  0  0
   37.0930   25.1630   41.0780 C   0  0  0  0  0  0  0  0  0  0  0  0
   37.1410   24.0860   40.9120 H   0  0  0  0  0  0  0  0  0  0  0  0
   37.0490   25.9940   40.0420 N   0  0  0  0  0  0  0  0  0  0  0  0
   36.9890   27.3480   40.1940 C   0  0  0  0  0  0  0  0  0  0  0  0
  1  6  1  6  0  0  0
  1 11  1  0  0  0  0
  1  2  1  0  0  0  0
  2  7  1  1  0  0  0
  2  3  1  0  0  0  0
  4  9  1  0  0  0  0
  4  3  1  0  0  0  0
  5 10  1  6  0  0  0
  5 35  1  0  0  0  0
  5  1  1  0  0  0  0
  5  4  1  0  0  0  0
  8  4  1  0  0  0  0
 11 12  1  0  0  0  0
 13  2  1  0  0  0  0
 14 19  1  1  0  0  0
 15 20  1  6  0  0  0
 15 14  1  0  0  0  0
 15 26  1  0  0  0  0
 16 15  1  0  0  0  0
 17 16  1  0  0  0  0
 17 18  1  0  0  0  0
 18 23  1  6  0  0  0
 18 13  1  0  0  0  0
 18 14  1  0  0  0  0
 21 17  1  0  0  0  0
 22 17  1  0  0  0  0
 24 30  1  0  0  0  0
 25 24  2  0  0  0  0
 26 25  1  0  0  0  0
 27 26  2  0  0  0  0
 27 28  1  0  0  0  0
 28 29  2  0  0  0  0
 29 24  1  0  0  0  0
 31 25  1  0  0  0  0
 32 28  1  0  0  0  0
 33 14  1  0  0  0  0
 33 34  1  0  0  0  0
 35 38  1  0  0  0  0
 36 37  1  0  0  0  0
 37 38  1  0  0  0  0
 37 47  1  0  0  0  0
 38 39  2  0  0  0  0
 39 40  1  0  0  0  0
 40 41  1  0  0  0  0
 41 42  1  0  0  0  0
 43 41  2  0  0  0  0
 44 43  1  0  0  0  0
 45 44  1  0  0  0  0
 46 47  1  0  0  0  0
 46 44  2  0  0  0  0
 47 40  2  0  0  0  0
M  END
>  <minimizedAffinity>
-6.27097368

$$$$
