
 OpenBabel03252508103D

 47 51  0  0  0  0  0  0  0  0999 V2000
   36.4200   26.0710   38.3860 C   0  0  0  0  0  0  0  0  0  0  0  0
   36.8430   26.7190   39.5350 C   0  0  0  0  0  0  0  0  0  0  0  0
   36.9180   26.0320   40.7220 C   0  0  0  0  0  0  0  0  0  0  0  0
   36.5610   24.6980   40.6970 N   0  0  0  0  0  0  0  0  0  0  0  0
   36.1550   24.0820   39.5890 C   0  0  0  0  0  0  0  0  0  0  0  0
   36.0890   24.7830   38.4370 N   0  0  0  0  0  0  0  0  0  0  0  0
   36.3340   26.5370   37.4250 H   0  0  0  0  0  0  0  0  0  0  0  0
   35.8870   23.0310   39.6360 H   0  0  0  0  0  0  0  0  0  0  0  0
   37.3270   26.5450   41.9760 C   0  0  0  0  0  0  0  0  0  0  0  0
   36.5280   27.3530   42.7890 C   0  0  0  0  0  0  0  0  0  0  0  0
   36.9430   27.9060   43.9710 C   0  0  0  0  0  0  0  0  0  0  0  0
   38.2250   27.6740   44.4190 C   0  0  0  0  0  0  0  0  0  0  0  0
   39.0560   26.8530   43.6080 C   0  0  0  0  0  0  0  0  0  0  0  0
   40.3330   26.6160   44.0430 C   0  0  0  0  0  0  0  0  0  0  0  0
   41.1900   25.8260   43.3020 C   0  0  0  0  0  0  0  0  0  0  0  0
   40.7420   25.2620   42.0960 C   0  0  0  0  0  0  0  0  0  0  0  0
   39.4220   25.5360   41.6920 C   0  0  0  0  0  0  0  0  0  0  0  0
   38.5960   26.3250   42.4450 C   0  0  0  0  0  0  0  0  0  0  0  0
   35.5150   27.5320   42.4270 H   0  0  0  0  0  0  0  0  0  0  0  0
   36.2300   28.5160   44.5160 H   0  0  0  0  0  0  0  0  0  0  0  0
   38.5600   28.1000   45.3370 H   0  0  0  0  0  0  0  0  0  0  0  0
   40.6640   27.0570   44.9760 H   0  0  0  0  0  0  0  0  0  0  0  0
   42.1720   25.6880   43.7060 H   0  0  0  0  0  0  0  0  0  0  0  0
   41.4770   24.6670   41.6010 H   0  0  0  0  0  0  0  0  0  0  0  0
   39.2650   25.0070   40.7770 H   0  0  0  0  0  0  0  0  0  0  0  0
   37.1730   28.0410   39.4240 O   0  0  0  0  0  0  0  0  0  0  0  0
   34.6780   28.8010   39.6750 O   0  0  0  0  0  0  0  0  0  0  0  0
   36.0650   29.3190   39.5150 P   0  0  1  0  0  0  0  0  0  0  0  0
   36.3800   30.2990   40.8600 O   0  0  0  0  0  0  0  0  0  0  0  0
   35.9630   32.9930   40.0960 H   0  0  0  0  0  0  0  0  0  0  0  0
   36.9190   32.6360   40.3370 N   0  0  0  0  0  0  0  0  0  0  0  0
   37.2360   31.3820   40.7110 C   0  0  0  0  0  0  0  0  0  0  0  0
   38.5660   31.3510   40.9240 N   0  0  0  0  0  0  0  0  0  0  0  0
   39.1070   32.5600   40.6940 C   0  0  0  0  0  0  0  0  0  0  0  0
   40.3980   32.9900   40.7810 C   0  0  0  0  0  0  0  0  0  0  0  0
   41.2360   32.3690   41.0710 H   0  0  0  0  0  0  0  0  0  0  0  0
   40.6360   34.2970   40.4780 N   0  0  0  0  0  0  0  0  0  0  0  0
   39.6040   35.0980   40.1110 C   0  0  0  0  0  0  0  0  0  0  0  0
   39.7560   36.1420   39.8630 H   0  0  0  0  0  0  0  0  0  0  0  0
   38.3290   34.6770   40.0240 N   0  0  0  0  0  0  0  0  0  0  0  0
   38.0570   33.3770   40.3190 C   0  0  0  0  0  0  0  0  0  0  0  0
   36.2110   30.2450   38.1260 O   0  0  0  0  0  0  0  0  0  0  0  0
   37.2990   30.2920   37.2690 C   0  0  0  0  0  0  0  0  0  0  0  0
   37.7430   31.4480   37.3900 O   0  0  0  0  0  0  0  0  0  0  0  0
   37.4820   29.0290   36.6000 N   0  0  0  0  0  0  0  0  0  0  0  0
   37.7370   28.1990   37.2000 H   0  0  0  0  0  0  0  0  0  0  0  0
   37.3780   28.8800   35.5600 H   0  0  0  0  0  0  0  0  0  0  0  0
  1  6  2  0  0  0  0
  1  2  1  0  0  0  0
  2  3  2  0  0  0  0
  3  9  1  0  0  0  0
  4  3  1  0  0  0  0
  5  8  1  0  0  0  0
  5  4  2  0  0  0  0
  6  5  1  0  0  0  0
  7  1  1  0  0  0  0
  9 18  2  0  0  0  0
  9 10  1  0  0  0  0
 10 11  2  0  0  0  0
 11 12  1  0  0  0  0
 11 20  1  0  0  0  0
 12 21  1  0  0  0  0
 13 14  1  0  0  0  0
 13 12  2  0  0  0  0
 14 22  1  0  0  0  0
 15 23  1  0  0  0  0
 15 14  2  0  0  0  0
 16 15  1  0  0  0  0
 17 16  2  0  0  0  0
 17 18  1  0  0  0  0
 18 13  1  0  0  0  0
 19 10  1  0  0  0  0
 24 16  1  0  0  0  0
 25 17  1  0  0  0  0
 26 28  1  0  0  0  0
 26  2  1  0  0  0  0
 28 27  2  1  0  0  0
 28 29  1  0  0  0  0
 30 31  1  0  0  0  0
 31 32  1  0  0  0  0
 32 29  1  0  0  0  0
 32 33  2  0  0  0  0
 34 35  1  0  0  0  0
 34 33  1  0  0  0  0
 35 36  1  0  0  0  0
 37 35  2  0  0  0  0
 38 37  1  0  0  0  0
 39 38  1  0  0  0  0
 40 38  2  0  0  0  0
 40 41  1  0  0  0  0
 41 31  1  0  0  0  0
 41 34  2  0  0  0  0
 42 28  1  0  0  0  0
 43 44  2  0  0  0  0
 43 42  1  0  0  0  0
 45 46  1  0  0  0  0
 45 43  1  0  0  0  0
 47 45  1  0  0  0  0
M  END
>  <minimizedAffinity>
-7.18654823

$$$$

 OpenBabel03252508103D

 47 51  0  0  0  0  0  0  0  0999 V2000
   41.9210   29.5770   40.6690 C   0  0  0  0  0  0  0  0  0  0  0  0
   40.6160   29.1870   40.9250 C   0  0  0  0  0  0  0  0  0  0  0  0
   40.3060   28.5690   42.1120 C   0  0  0  0  0  0  0  0  0  0  0  0
   41.3420   28.3710   43.0040 N   0  0  0  0  0  0  0  0  0  0  0  0
   42.5930   28.7480   42.7510 C   0  0  0  0  0  0  0  0  0  0  0  0
   42.8690   29.3520   41.5750 N   0  0  0  0  0  0  0  0  0  0  0  0
   42.2420   30.0630   39.7680 H   0  0  0  0  0  0  0  0  0  0  0  0
   43.3620   28.5620   43.4940 H   0  0  0  0  0  0  0  0  0  0  0  0
   39.0310   28.1120   42.5230 C   0  0  0  0  0  0  0  0  0  0  0  0
   38.1780   28.8280   43.3660 C   0  0  0  0  0  0  0  0  0  0  0  0
   36.9740   28.3600   43.8200 C   0  0  0  0  0  0  0  0  0  0  0  0
   36.5430   27.1070   43.4430 C   0  0  0  0  0  0  0  0  0  0  0  0
   37.3960   26.3600   42.5850 C   0  0  0  0  0  0  0  0  0  0  0  0
   36.9790   25.1120   42.2040 C   0  0  0  0  0  0  0  0  0  0  0  0
   37.7590   24.3360   41.3700 C   0  0  0  0  0  0  0  0  0  0  0  0
   38.9880   24.8380   40.9090 C   0  0  0  0  0  0  0  0  0  0  0  0
   39.3720   26.1250   41.3290 C   0  0  0  0  0  0  0  0  0  0  0  0
   38.5800   26.8690   42.1590 C   0  0  0  0  0  0  0  0  0  0  0  0
   38.5260   29.8180   43.6590 H   0  0  0  0  0  0  0  0  0  0  0  0
   36.3980   29.0090   44.4710 H   0  0  0  0  0  0  0  0  0  0  0  0
   35.6080   26.7310   43.7920 H   0  0  0  0  0  0  0  0  0  0  0  0
   36.0270   24.7390   42.5670 H   0  0  0  0  0  0  0  0  0  0  0  0
   37.3680   23.3720   41.1190 H   0  0  0  0  0  0  0  0  0  0  0  0
   39.5140   24.1640   40.2690 H   0  0  0  0  0  0  0  0  0  0  0  0
   40.3100   26.3340   40.8610 H   0  0  0  0  0  0  0  0  0  0  0  0
   39.6830   29.4460   39.9600 O   0  0  0  0  0  0  0  0  0  0  0  0
   38.8060   31.5880   41.1880 O   0  0  0  0  0  0  0  0  0  0  0  0
   38.7230   30.8400   39.9020 P   0  0  1  0  0  0  0  0  0  0  0  0
   39.2560   31.8930   38.6880 O   0  0  0  0  0  0  0  0  0  0  0  0
   40.0420   29.9070   36.8280 H   0  0  0  0  0  0  0  0  0  0  0  0
   40.7180   30.6340   37.1700 N   0  0  0  0  0  0  0  0  0  0  0  0
   40.4580   31.6210   38.0480 C   0  0  0  0  0  0  0  0  0  0  0  0
   41.5960   32.3240   38.2090 N   0  0  0  0  0  0  0  0  0  0  0  0
   42.5790   31.8070   37.4520 C   0  0  0  0  0  0  0  0  0  0  0  0
   43.8800   32.1870   37.2990 C   0  0  0  0  0  0  0  0  0  0  0  0
   44.3400   33.0260   37.8060 H   0  0  0  0  0  0  0  0  0  0  0  0
   44.6420   31.4500   36.4440 N   0  0  0  0  0  0  0  0  0  0  0  0
   44.0900   30.3940   35.7950 C   0  0  0  0  0  0  0  0  0  0  0  0
   44.6670   29.7850   35.1080 H   0  0  0  0  0  0  0  0  0  0  0  0
   42.8070   30.0160   35.9440 N   0  0  0  0  0  0  0  0  0  0  0  0
   42.0190   30.7310   36.7910 C   0  0  0  0  0  0  0  0  0  0  0  0
   37.1460   30.3820   39.5670 O   0  0  0  0  0  0  0  0  0  0  0  0
   36.2120   29.9000   40.4700 C   0  0  0  0  0  0  0  0  0  0  0  0
   36.1290   28.6850   40.2170 O   0  0  0  0  0  0  0  0  0  0  0  0
   35.7220   30.9580   41.3170 N   0  0  0  0  0  0  0  0  0  0  0  0
   36.4150   31.4110   41.9710 H   0  0  0  0  0  0  0  0  0  0  0  0
   34.7260   31.3070   41.3250 H   0  0  0  0  0  0  0  0  0  0  0  0
  1  2  2  0  0  0  0
  1  6  1  0  0  0  0
  2  3  1  0  0  0  0
  3  9  1  0  0  0  0
  3  4  2  0  0  0  0
  5  4  1  0  0  0  0
  5  8  1  0  0  0  0
  6  5  2  0  0  0  0
  7  1  1  0  0  0  0
  9 10  1  0  0  0  0
 10 19  1  0  0  0  0
 10 11  2  0  0  0  0
 11 20  1  0  0  0  0
 12 21  1  0  0  0  0
 12 11  1  0  0  0  0
 13 12  2  0  0  0  0
 14 22  1  0  0  0  0
 14 13  1  0  0  0  0
 15 14  2  0  0  0  0
 16 17  2  0  0  0  0
 16 15  1  0  0  0  0
 17 18  1  0  0  0  0
 18  9  2  0  0  0  0
 18 13  1  0  0  0  0
 23 15  1  0  0  0  0
 24 16  1  0  0  0  0
 25 17  1  0  0  0  0
 26  2  1  0  0  0  0
 28 26  1  0  0  0  0
 28 27  2  1  0  0  0
 29 28  1  0  0  0  0
 30 31  1  0  0  0  0
 31 32  1  0  0  0  0
 32 33  2  0  0  0  0
 32 29  1  0  0  0  0
 34 33  1  0  0  0  0
 35 34  1  0  0  0  0
 35 36  1  0  0  0  0
 37 35  2  0  0  0  0
 38 40  2  0  0  0  0
 38 37  1  0  0  0  0
 39 38  1  0  0  0  0
 40 41  1  0  0  0  0
 41 31  1  0  0  0  0
 41 34  2  0  0  0  0
 42 28  1  0  0  0  0
 42 43  1  0  0  0  0
 43 45  1  0  0  0  0
 44 43  2  0  0  0  0
 45 47  1  0  0  0  0
 45 46  1  0  0  0  0
M  END
>  <minimizedAffinity>
-6.81247711

$$$$

 OpenBabel03252508103D

 47 51  0  0  0  0  0  0  0  0999 V2000
   37.0330   29.6070   37.3620 C   0  0  0  0  0  0  0  0  0  0  0  0
   37.4400   29.1730   38.6140 C   0  0  0  0  0  0  0  0  0  0  0  0
   36.5160   28.6870   39.5060 C   0  0  0  0  0  0  0  0  0  0  0  0
   35.1990   28.6580   39.0880 N   0  0  0  0  0  0  0  0  0  0  0  0
   34.8140   29.0770   37.8850 C   0  0  0  0  0  0  0  0  0  0  0  0
   35.7450   29.5510   37.0300 N   0  0  0  0  0  0  0  0  0  0  0  0
   37.6920   29.9980   36.6130 H   0  0  0  0  0  0  0  0  0  0  0  0
   33.7630   29.0280   37.6190 H   0  0  0  0  0  0  0  0  0  0  0  0
   36.7660   28.2090   40.8140 C   0  0  0  0  0  0  0  0  0  0  0  0
   36.9850   29.0350   41.9200 C   0  0  0  0  0  0  0  0  0  0  0  0
   37.2950   28.5760   43.1730 C   0  0  0  0  0  0  0  0  0  0  0  0
   37.4060   27.2220   43.3950 C   0  0  0  0  0  0  0  0  0  0  0  0
   37.1860   26.3630   42.2830 C   0  0  0  0  0  0  0  0  0  0  0  0
   37.2960   25.0130   42.4920 C   0  0  0  0  0  0  0  0  0  0  0  0
   37.0930   24.1250   41.4550 C   0  0  0  0  0  0  0  0  0  0  0  0
   36.7690   24.6150   40.1790 C   0  0  0  0  0  0  0  0  0  0  0  0
   36.6690   26.0090   40.0150 C   0  0  0  0  0  0  0  0  0  0  0  0
   36.8790   26.8660   41.0610 C   0  0  0  0  0  0  0  0  0  0  0  0
   36.8960   30.1050   41.7350 H   0  0  0  0  0  0  0  0  0  0  0  0
   37.4420   29.3150   43.9530 H   0  0  0  0  0  0  0  0  0  0  0  0
   37.6490   26.8540   44.3660 H   0  0  0  0  0  0  0  0  0  0  0  0
   37.5450   24.6500   43.4830 H   0  0  0  0  0  0  0  0  0  0  0  0
   37.1980   23.0870   41.6950 H   0  0  0  0  0  0  0  0  0  0  0  0
   36.6290   23.8490   39.4470 H   0  0  0  0  0  0  0  0  0  0  0  0
   36.3960   26.1800   38.9960 H   0  0  0  0  0  0  0  0  0  0  0  0
   38.7750   29.2500   38.9010 O   0  0  0  0  0  0  0  0  0  0  0  0
   38.6080   31.7760   39.5770 O   0  0  0  0  0  0  0  0  0  0  0  0
   39.5800   30.6720   39.3460 P   0  0  1  0  0  0  0  0  0  0  0  0
   40.4310   30.4570   40.7940 O   0  0  0  0  0  0  0  0  0  0  0  0
   40.6530   33.2150   40.1890 H   0  0  0  0  0  0  0  0  0  0  0  0
   41.3270   32.7420   40.8400 N   0  0  0  0  0  0  0  0  0  0  0  0
   41.3200   31.4440   41.1990 C   0  0  0  0  0  0  0  0  0  0  0  0
   42.3520   31.2560   42.0440 N   0  0  0  0  0  0  0  0  0  0  0  0
   43.0200   32.4060   42.2320 C   0  0  0  0  0  0  0  0  0  0  0  0
   44.1170   32.6860   42.9950 C   0  0  0  0  0  0  0  0  0  0  0  0
   44.6450   31.9620   43.6030 H   0  0  0  0  0  0  0  0  0  0  0  0
   44.5680   33.9710   42.9790 N   0  0  0  0  0  0  0  0  0  0  0  0
   43.9260   34.8980   42.2260 C   0  0  0  0  0  0  0  0  0  0  0  0
   44.2570   35.9300   42.1890 H   0  0  0  0  0  0  0  0  0  0  0  0
   42.8440   34.6260   41.4730 N   0  0  0  0  0  0  0  0  0  0  0  0
   42.3670   33.3520   41.4650 C   0  0  0  0  0  0  0  0  0  0  0  0
   40.6680   31.0650   38.1330 O   0  0  0  0  0  0  0  0  0  0  0  0
   40.7170   32.2490   37.4130 C   0  0  0  0  0  0  0  0  0  0  0  0
   41.7840   32.7850   37.7630 O   0  0  0  0  0  0  0  0  0  0  0  0
   39.5550   32.3880   36.5730 N   0  0  0  0  0  0  0  0  0  0  0  0
   39.4380   31.6860   35.7940 H   0  0  0  0  0  0  0  0  0  0  0  0
   38.8200   33.1370   36.6840 H   0  0  0  0  0  0  0  0  0  0  0  0
  1  2  1  0  0  0  0
  2 26  1  0  0  0  0
  2  3  2  0  0  0  0
  3  9  1  0  0  0  0
  4  3  1  0  0  0  0
  5  4  2  0  0  0  0
  6  1  2  0  0  0  0
  6  5  1  0  0  0  0
  7  1  1  0  0  0  0
  8  5  1  0  0  0  0
  9 18  2  0  0  0  0
  9 10  1  0  0  0  0
 10 11  2  0  0  0  0
 11 12  1  0  0  0  0
 11 20  1  0  0  0  0
 12 21  1  0  0  0  0
 13 14  1  0  0  0  0
 13 12  2  0  0  0  0
 14 22  1  0  0  0  0
 15 23  1  0  0  0  0
 15 14  2  0  0  0  0
 16 15  1  0  0  0  0
 17 16  2  0  0  0  0
 17 18  1  0  0  0  0
 18 13  1  0  0  0  0
 19 10  1  0  0  0  0
 24 16  1  0  0  0  0
 25 17  1  0  0  0  0
 26 28  1  0  0  0  0
 28 27  2  1  0  0  0
 28 29  1  0  0  0  0
 29 32  1  0  0  0  0
 30 31  1  0  0  0  0
 31 32  1  0  0  0  0
 31 41  1  0  0  0  0
 32 33  2  0  0  0  0
 33 34  1  0  0  0  0
 34 35  1  0  0  0  0
 35 36  1  0  0  0  0
 37 35  2  0  0  0  0
 38 37  1  0  0  0  0
 39 38  1  0  0  0  0
 40 38  2  0  0  0  0
 41 40  1  0  0  0  0
 41 34  2  0  0  0  0
 42 28  1  0  0  0  0
 43 44  2  0  0  0  0
 43 42  1  0  0  0  0
 45 47  1  0  0  0  0
 45 43  1  0  0  0  0
 46 45  1  0  0  0  0
M  END
>  <minimizedAffinity>
-6.60749197

$$$$

 OpenBabel03252508103D

 47 51  0  0  0  0  0  0  0  0999 V2000
   36.9720   29.6280   37.3360 C   0  0  0  0  0  0  0  0  0  0  0  0
   37.3770   29.1450   38.5710 C   0  0  0  0  0  0  0  0  0  0  0  0
   36.4510   28.6250   39.4410 C   0  0  0  0  0  0  0  0  0  0  0  0
   35.1350   28.6130   39.0210 N   0  0  0  0  0  0  0  0  0  0  0  0
   34.7530   29.0790   37.8340 C   0  0  0  0  0  0  0  0  0  0  0  0
   35.6850   29.5860   37.0000 N   0  0  0  0  0  0  0  0  0  0  0  0
   37.6330   30.0480   36.6050 H   0  0  0  0  0  0  0  0  0  0  0  0
   33.7020   29.0420   37.5650 H   0  0  0  0  0  0  0  0  0  0  0  0
   36.7000   28.0960   40.7300 C   0  0  0  0  0  0  0  0  0  0  0  0
   36.8970   28.8760   41.8710 C   0  0  0  0  0  0  0  0  0  0  0  0
   37.2050   28.3700   43.1060 C   0  0  0  0  0  0  0  0  0  0  0  0
   37.3350   27.0090   43.2720 C   0  0  0  0  0  0  0  0  0  0  0  0
   37.1370   26.1950   42.1230 C   0  0  0  0  0  0  0  0  0  0  0  0
   37.2660   24.8390   42.2750 C   0  0  0  0  0  0  0  0  0  0  0  0
   37.0830   23.9930   41.2000 C   0  0  0  0  0  0  0  0  0  0  0  0
   36.7610   24.5320   39.9430 C   0  0  0  0  0  0  0  0  0  0  0  0
   36.6410   25.9300   39.8380 C   0  0  0  0  0  0  0  0  0  0  0  0
   36.8310   26.7440   40.9200 C   0  0  0  0  0  0  0  0  0  0  0  0
   36.7930   29.9520   41.7310 H   0  0  0  0  0  0  0  0  0  0  0  0
   37.3350   29.0770   43.9190 H   0  0  0  0  0  0  0  0  0  0  0  0
   37.5760   26.6040   44.2280 H   0  0  0  0  0  0  0  0  0  0  0  0
   37.5130   24.4380   43.2520 H   0  0  0  0  0  0  0  0  0  0  0  0
   37.2020   22.9470   41.3960 H   0  0  0  0  0  0  0  0  0  0  0  0
   36.6390   23.7960   39.1780 H   0  0  0  0  0  0  0  0  0  0  0  0
   36.3740   26.1400   38.8240 H   0  0  0  0  0  0  0  0  0  0  0  0
   38.7110   29.2100   38.8620 O   0  0  0  0  0  0  0  0  0  0  0  0
   40.7880   30.5090   39.7930 O   0  0  0  0  0  0  0  0  0  0  0  0
   39.6230   30.6370   38.8740 P   0  0  1  0  0  0  0  0  0  0  0  0
   40.2470   30.9700   37.3350 O   0  0  0  0  0  0  0  0  0  0  0  0
   41.6590   33.2120   38.3350 H   0  0  0  0  0  0  0  0  0  0  0  0
   42.1360   32.4810   37.7530 N   0  0  0  0  0  0  0  0  0  0  0  0
   41.5700   31.3790   37.2260 C   0  0  0  0  0  0  0  0  0  0  0  0
   42.5310   30.7170   36.5530 N   0  0  0  0  0  0  0  0  0  0  0  0
   43.7000   31.3730   36.6370 C   0  0  0  0  0  0  0  0  0  0  0  0
   44.9270   31.0790   36.1190 C   0  0  0  0  0  0  0  0  0  0  0  0
   45.1490   30.2060   35.5180 H   0  0  0  0  0  0  0  0  0  0  0  0
   45.9360   31.9550   36.3830 N   0  0  0  0  0  0  0  0  0  0  0  0
   45.6860   33.0570   37.1340 C   0  0  0  0  0  0  0  0  0  0  0  0
   46.4650   33.7760   37.3640 H   0  0  0  0  0  0  0  0  0  0  0  0
   44.4780   33.3510   37.6470 N   0  0  0  0  0  0  0  0  0  0  0  0
   43.4480   32.4960   37.4010 C   0  0  0  0  0  0  0  0  0  0  0  0
   38.6230   31.9000   39.3360 O   0  0  0  0  0  0  0  0  0  0  0  0
   38.2340   32.2220   40.6270 C   0  0  0  0  0  0  0  0  0  0  0  0
   37.0000   32.0620   40.6310 O   0  0  0  0  0  0  0  0  0  0  0  0
   39.3710   32.6000   41.4270 N   0  0  0  0  0  0  0  0  0  0  0  0
   40.0940   31.8570   41.6170 H   0  0  0  0  0  0  0  0  0  0  0  0
   39.5260   33.5630   41.8300 H   0  0  0  0  0  0  0  0  0  0  0  0
  1  2  1  0  0  0  0
  2 26  1  0  0  0  0
  2  3  2  0  0  0  0
  3  9  1  0  0  0  0
  4  3  1  0  0  0  0
  5  4  2  0  0  0  0
  6  1  2  0  0  0  0
  6  5  1  0  0  0  0
  7  1  1  0  0  0  0
  8  5  1  0  0  0  0
  9 18  2  0  0  0  0
  9 10  1  0  0  0  0
 10 11  2  0  0  0  0
 11 12  1  0  0  0  0
 11 20  1  0  0  0  0
 12 21  1  0  0  0  0
 13 14  1  0  0  0  0
 13 12  2  0  0  0  0
 14 22  1  0  0  0  0
 15 23  1  0  0  0  0
 15 14  2  0  0  0  0
 16 15  1  0  0  0  0
 17 16  2  0  0  0  0
 17 18  1  0  0  0  0
 18 13  1  0  0  0  0
 19 10  1  0  0  0  0
 24 16  1  0  0  0  0
 25 17  1  0  0  0  0
 26 28  1  0  0  0  0
 28 42  1  0  0  0  0
 28 27  2  1  0  0  0
 29 28  1  0  0  0  0
 31 30  1  0  0  0  0
 32 29  1  0  0  0  0
 32 31  1  0  0  0  0
 33 34  1  0  0  0  0
 33 32  2  0  0  0  0
 34 41  1  0  0  0  0
 35 37  1  0  0  0  0
 35 34  2  0  0  0  0
 36 35  1  0  0  0  0
 37 38  2  0  0  0  0
 38 39  1  0  0  0  0
 38 40  1  0  0  0  0
 41 40  2  0  0  0  0
 41 31  1  0  0  0  0
 42 43  1  0  0  0  0
 43 44  2  0  0  0  0
 43 45  1  0  0  0  0
 45 46  1  0  0  0  0
 45 47  1  0  0  0  0
M  END
>  <minimizedAffinity>
-6.4808383

$$$$

 OpenBabel03252508103D

 47 51  0  0  0  0  0  0  0  0999 V2000
   36.7560   26.8520   37.9560 C   0  0  0  0  0  0  0  0  0  0  0  0
   37.1220   27.3190   39.2080 C   0  0  0  0  0  0  0  0  0  0  0  0
   37.0080   26.5020   40.3060 C   0  0  0  0  0  0  0  0  0  0  0  0
   36.5240   25.2260   40.0880 N   0  0  0  0  0  0  0  0  0  0  0  0
   36.1730   24.7840   38.8830 C   0  0  0  0  0  0  0  0  0  0  0  0
   36.2940   25.6110   37.8220 N   0  0  0  0  0  0  0  0  0  0  0  0
   36.8150   27.4280   37.0540 H   0  0  0  0  0  0  0  0  0  0  0  0
   35.7980   23.7700   38.7790 H   0  0  0  0  0  0  0  0  0  0  0  0
   37.3360   26.8250   41.6440 C   0  0  0  0  0  0  0  0  0  0  0  0
   36.4910   27.5230   42.5100 C   0  0  0  0  0  0  0  0  0  0  0  0
   36.8320   27.8960   43.7830 C   0  0  0  0  0  0  0  0  0  0  0  0
   38.0790   27.5810   44.2750 C   0  0  0  0  0  0  0  0  0  0  0  0
   38.9550   26.8690   43.4110 C   0  0  0  0  0  0  0  0  0  0  0  0
   40.1990   26.5510   43.8890 C   0  0  0  0  0  0  0  0  0  0  0  0
   41.0970   25.8590   43.1010 C   0  0  0  0  0  0  0  0  0  0  0  0
   40.7260   25.4790   41.8010 C   0  0  0  0  0  0  0  0  0  0  0  0
   39.4380   25.8300   41.3550 C   0  0  0  0  0  0  0  0  0  0  0  0
   38.5700   26.5190   42.1570 C   0  0  0  0  0  0  0  0  0  0  0  0
   35.5070   27.7690   42.1120 H   0  0  0  0  0  0  0  0  0  0  0  0
   36.0890   28.4350   44.3620 H   0  0  0  0  0  0  0  0  0  0  0  0
   38.3550   27.8680   45.2640 H   0  0  0  0  0  0  0  0  0  0  0  0
   40.4710   26.8500   44.8960 H   0  0  0  0  0  0  0  0  0  0  0  0
   42.0490   25.6490   43.5430 H   0  0  0  0  0  0  0  0  0  0  0  0
   41.4880   24.9470   41.2740 H   0  0  0  0  0  0  0  0  0  0  0  0
   39.3380   25.4390   40.3650 H   0  0  0  0  0  0  0  0  0  0  0  0
   37.5920   28.6010   39.2860 O   0  0  0  0  0  0  0  0  0  0  0  0
   35.1940   29.5760   39.6900 O   0  0  0  0  0  0  0  0  0  0  0  0
   36.6300   29.9590   39.5990 P   0  0  1  0  0  0  0  0  0  0  0  0
   37.0440   30.6650   41.0820 O   0  0  0  0  0  0  0  0  0  0  0  0
   38.6660   32.6130   39.8190 H   0  0  0  0  0  0  0  0  0  0  0  0
   39.0300   32.0280   40.6100 N   0  0  0  0  0  0  0  0  0  0  0  0
   38.3550   31.0770   41.2820 C   0  0  0  0  0  0  0  0  0  0  0  0
   39.1890   30.5740   42.2130 N   0  0  0  0  0  0  0  0  0  0  0  0
   40.3850   31.1840   42.1500 C   0  0  0  0  0  0  0  0  0  0  0  0
   41.5180   31.0020   42.8880 C   0  0  0  0  0  0  0  0  0  0  0  0
   41.6210   30.2840   43.6920 H   0  0  0  0  0  0  0  0  0  0  0  0
   42.5880   31.7870   42.5800 N   0  0  0  0  0  0  0  0  0  0  0  0
   42.4860   32.6950   41.5780 C   0  0  0  0  0  0  0  0  0  0  0  0
   43.3170   33.3360   41.3040 H   0  0  0  0  0  0  0  0  0  0  0  0
   41.3700   32.8770   40.8470 N   0  0  0  0  0  0  0  0  0  0  0  0
   40.2830   32.1090   41.1290 C   0  0  0  0  0  0  0  0  0  0  0  0
   36.8830   31.0780   38.3780 O   0  0  0  0  0  0  0  0  0  0  0  0
   37.8150   30.9950   37.3550 C   0  0  0  0  0  0  0  0  0  0  0  0
   38.6940   31.8210   37.6640 O   0  0  0  0  0  0  0  0  0  0  0  0
   37.4140   30.0210   36.3720 N   0  0  0  0  0  0  0  0  0  0  0  0
   37.3700   29.0140   36.6830 H   0  0  0  0  0  0  0  0  0  0  0  0
   37.1630   30.2460   35.3720 H   0  0  0  0  0  0  0  0  0  0  0  0
  1  2  1  0  0  0  0
  2 26  1  0  0  0  0
  2  3  2  0  0  0  0
  3  9  1  0  0  0  0
  4  3  1  0  0  0  0
  5  4  2  0  0  0  0
  6  1  2  0  0  0  0
  6  5  1  0  0  0  0
  7  1  1  0  0  0  0
  8  5  1  0  0  0  0
  9 18  2  0  0  0  0
  9 10  1  0  0  0  0
 10 11  2  0  0  0  0
 11 12  1  0  0  0  0
 11 20  1  0  0  0  0
 12 21  1  0  0  0  0
 13 14  1  0  0  0  0
 13 12  2  0  0  0  0
 14 22  1  0  0  0  0
 15 23  1  0  0  0  0
 15 14  2  0  0  0  0
 16 15  1  0  0  0  0
 17 16  2  0  0  0  0
 17 18  1  0  0  0  0
 18 13  1  0  0  0  0
 19 10  1  0  0  0  0
 24 16  1  0  0  0  0
 25 17  1  0  0  0  0
 26 28  1  0  0  0  0
 28 27  2  1  0  0  0
 28 29  1  0  0  0  0
 29 32  1  0  0  0  0
 30 31  1  0  0  0  0
 31 41  1  0  0  0  0
 31 32  1  0  0  0  0
 32 33  2  0  0  0  0
 34 33  1  0  0  0  0
 34 35  1  0  0  0  0
 35 36  1  0  0  0  0
 37 35  2  0  0  0  0
 38 37  1  0  0  0  0
 39 38  1  0  0  0  0
 40 41  1  0  0  0  0
 40 38  2  0  0  0  0
 41 34  2  0  0  0  0
 42 28  1  0  0  0  0
 43 44  2  0  0  0  0
 43 42  1  0  0  0  0
 45 46  1  0  0  0  0
 45 43  1  0  0  0  0
 47 45  1  0  0  0  0
M  END
>  <minimizedAffinity>
-6.30428123

$$$$

 OpenBabel03252508103D

 47 51  0  0  0  0  0  0  0  0999 V2000
   36.9570   29.8620   37.5050 C   0  0  0  0  0  0  0  0  0  0  0  0
   37.2460   29.2980   38.7380 C   0  0  0  0  0  0  0  0  0  0  0  0
   36.4160   28.3410   39.2660 C   0  0  0  0  0  0  0  0  0  0  0  0
   35.3120   27.9860   38.5140 N   0  0  0  0  0  0  0  0  0  0  0  0
   35.0400   28.5320   37.3320 C   0  0  0  0  0  0  0  0  0  0  0  0
   35.8730   29.4730   36.8380 N   0  0  0  0  0  0  0  0  0  0  0  0
   37.5540   30.6140   37.0290 H   0  0  0  0  0  0  0  0  0  0  0  0
   34.1550   28.2100   36.7910 H   0  0  0  0  0  0  0  0  0  0  0  0
   36.5690   27.6720   40.5040 C   0  0  0  0  0  0  0  0  0  0  0  0
   36.1990   28.2140   41.7370 C   0  0  0  0  0  0  0  0  0  0  0  0
   36.4080   27.5980   42.9420 C   0  0  0  0  0  0  0  0  0  0  0  0
   37.0190   26.3650   42.9810 C   0  0  0  0  0  0  0  0  0  0  0  0
   37.4030   25.7930   41.7360 C   0  0  0  0  0  0  0  0  0  0  0  0
   38.0130   24.5670   41.7620 C   0  0  0  0  0  0  0  0  0  0  0  0
   38.4090   23.9560   40.5890 C   0  0  0  0  0  0  0  0  0  0  0  0
   38.1790   24.6010   39.3630 C   0  0  0  0  0  0  0  0  0  0  0  0
   37.5500   25.8600   39.3890 C   0  0  0  0  0  0  0  0  0  0  0  0
   37.1720   26.4420   40.5670 C   0  0  0  0  0  0  0  0  0  0  0  0
   35.7170   29.1910   41.6970 H   0  0  0  0  0  0  0  0  0  0  0  0
   36.0750   28.1190   43.8340 H   0  0  0  0  0  0  0  0  0  0  0  0
   37.1880   25.8760   43.9130 H   0  0  0  0  0  0  0  0  0  0  0  0
   38.1830   24.0800   42.7170 H   0  0  0  0  0  0  0  0  0  0  0  0
   38.8800   23.0000   40.6900 H   0  0  0  0  0  0  0  0  0  0  0  0
   38.5190   24.0470   38.5150 H   0  0  0  0  0  0  0  0  0  0  0  0
   37.4450   26.1720   38.3720 H   0  0  0  0  0  0  0  0  0  0  0  0
   38.3740   29.7340   39.3770 O   0  0  0  0  0  0  0  0  0  0  0  0
   37.0530   31.5490   40.7300 O   0  0  0  0  0  0  0  0  0  0  0  0
   38.4280   31.0570   40.4340 P   0  0  1  0  0  0  0  0  0  0  0  0
   39.1220   30.6200   41.9150 O   0  0  0  0  0  0  0  0  0  0  0  0
   40.3240   28.8600   40.0520 H   0  0  0  0  0  0  0  0  0  0  0  0
   40.2440   28.6090   41.0670 N   0  0  0  0  0  0  0  0  0  0  0  0
   39.6950   29.3620   42.0390 C   0  0  0  0  0  0  0  0  0  0  0  0
   39.7970   28.6690   43.1900 N   0  0  0  0  0  0  0  0  0  0  0  0
   40.4000   27.4870   42.9740 C   0  0  0  0  0  0  0  0  0  0  0  0
   40.7110   26.4750   43.8340 C   0  0  0  0  0  0  0  0  0  0  0  0
   40.4980   26.4820   44.8960 H   0  0  0  0  0  0  0  0  0  0  0  0
   41.3320   25.3840   43.3060 N   0  0  0  0  0  0  0  0  0  0  0  0
   41.6100   25.3490   41.9790 C   0  0  0  0  0  0  0  0  0  0  0  0
   42.1030   24.4970   41.5240 H   0  0  0  0  0  0  0  0  0  0  0  0
   41.3050   26.3460   41.1270 N   0  0  0  0  0  0  0  0  0  0  0  0
   40.6840   27.4500   41.6230 C   0  0  0  0  0  0  0  0  0  0  0  0
   39.3630   32.2570   39.7310 O   0  0  0  0  0  0  0  0  0  0  0  0
   39.5630   33.5420   40.2100 C   0  0  0  0  0  0  0  0  0  0  0  0
   40.3330   34.0670   39.3870 O   0  0  0  0  0  0  0  0  0  0  0  0
   38.8250   33.7560   41.4300 N   0  0  0  0  0  0  0  0  0  0  0  0
   37.7730   33.7290   41.3660 H   0  0  0  0  0  0  0  0  0  0  0  0
   39.2640   33.9360   42.3720 H   0  0  0  0  0  0  0  0  0  0  0  0
  1  2  1  0  0  0  0
  2  3  2  0  0  0  0
  2 26  1  0  0  0  0
  3  9  1  0  0  0  0
  4  3  1  0  0  0  0
  5  4  2  0  0  0  0
  6  5  1  0  0  0  0
  6  1  2  0  0  0  0
  7  1  1  0  0  0  0
  8  5  1  0  0  0  0
  9 18  2  0  0  0  0
  9 10  1  0  0  0  0
 10 11  2  0  0  0  0
 11 12  1  0  0  0  0
 11 20  1  0  0  0  0
 12 21  1  0  0  0  0
 13 14  1  0  0  0  0
 13 12  2  0  0  0  0
 14 22  1  0  0  0  0
 15 23  1  0  0  0  0
 15 14  2  0  0  0  0
 16 17  2  0  0  0  0
 16 15  1  0  0  0  0
 17 18  1  0  0  0  0
 18 13  1  0  0  0  0
 19 10  1  0  0  0  0
 24 16  1  0  0  0  0
 25 17  1  0  0  0  0
 26 28  1  0  0  0  0
 28 27  2  1  0  0  0
 28 29  1  0  0  0  0
 29 32  1  0  0  0  0
 30 31  1  0  0  0  0
 31 41  1  0  0  0  0
 31 32  1  0  0  0  0
 32 33  2  0  0  0  0
 34 33  1  0  0  0  0
 34 35  1  0  0  0  0
 35 36  1  0  0  0  0
 37 35  2  0  0  0  0
 38 37  1  0  0  0  0
 39 38  1  0  0  0  0
 40 41  1  0  0  0  0
 40 38  2  0  0  0  0
 41 34  2  0  0  0  0
 42 43  1  0  0  0  0
 42 28  1  0  0  0  0
 43 45  1  0  0  0  0
 44 43  2  0  0  0  0
 45 47  1  0  0  0  0
 46 45  1  0  0  0  0
M  END
>  <minimizedAffinity>
-6.26340675

$$$$

 OpenBabel03252508103D

 47 51  0  0  0  0  0  0  0  0999 V2000
   39.5420   23.7100   39.4170 C   0  0  0  0  0  0  0  0  0  0  0  0
   39.2380   24.9240   40.0130 C   0  0  0  0  0  0  0  0  0  0  0  0
   38.1030   25.0480   40.7760 C   0  0  0  0  0  0  0  0  0  0  0  0
   37.3120   23.9230   40.9080 N   0  0  0  0  0  0  0  0  0  0  0  0
   37.6090   22.7610   40.3320 C   0  0  0  0  0  0  0  0  0  0  0  0
   38.7310   22.6690   39.5860 N   0  0  0  0  0  0  0  0  0  0  0  0
   40.4070   23.5350   38.8080 H   0  0  0  0  0  0  0  0  0  0  0  0
   36.9440   21.9140   40.4740 H   0  0  0  0  0  0  0  0  0  0  0  0
   37.6540   26.2100   41.4480 C   0  0  0  0  0  0  0  0  0  0  0  0
   37.9220   26.4910   42.7900 C   0  0  0  0  0  0  0  0  0  0  0  0
   37.4330   27.5800   43.4610 C   0  0  0  0  0  0  0  0  0  0  0  0
   36.6210   28.4770   42.8030 C   0  0  0  0  0  0  0  0  0  0  0  0
   36.3360   28.2110   41.4360 C   0  0  0  0  0  0  0  0  0  0  0  0
   35.5280   29.0970   40.7720 C   0  0  0  0  0  0  0  0  0  0  0  0
   35.2140   28.8980   39.4420 C   0  0  0  0  0  0  0  0  0  0  0  0
   35.7320   27.7780   38.7700 C   0  0  0  0  0  0  0  0  0  0  0  0
   36.5560   26.8980   39.4960 C   0  0  0  0  0  0  0  0  0  0  0  0
   36.8470   27.1190   40.8140 C   0  0  0  0  0  0  0  0  0  0  0  0
   38.5650   25.7750   43.3020 H   0  0  0  0  0  0  0  0  0  0  0  0
   37.7120   27.6920   44.5030 H   0  0  0  0  0  0  0  0  0  0  0  0
   36.2330   29.3280   43.3160 H   0  0  0  0  0  0  0  0  0  0  0  0
   35.1370   29.9570   41.3040 H   0  0  0  0  0  0  0  0  0  0  0  0
   34.5760   29.6300   38.9930 H   0  0  0  0  0  0  0  0  0  0  0  0
   35.4330   27.7150   37.7460 H   0  0  0  0  0  0  0  0  0  0  0  0
   36.8640   26.1330   38.8150 H   0  0  0  0  0  0  0  0  0  0  0  0
   40.1090   25.9580   39.8080 O   0  0  0  0  0  0  0  0  0  0  0  0
   42.6420   26.4460   40.2690 O   0  0  0  0  0  0  0  0  0  0  0  0
   41.2970   26.4470   40.9110 P   0  0  1  0  0  0  0  0  0  0  0  0
   41.0110   28.0270   41.4480 O   0  0  0  0  0  0  0  0  0  0  0  0
   40.1850   27.9580   38.7410 H   0  0  0  0  0  0  0  0  0  0  0  0
   39.8660   28.7180   39.3900 N   0  0  0  0  0  0  0  0  0  0  0  0
   40.1920   28.8520   40.6900 C   0  0  0  0  0  0  0  0  0  0  0  0
   39.5710   29.9560   41.1470 N   0  0  0  0  0  0  0  0  0  0  0  0
   38.8540   30.5320   40.1670 C   0  0  0  0  0  0  0  0  0  0  0  0
   38.0760   31.6530   40.1710 C   0  0  0  0  0  0  0  0  0  0  0  0
   37.9140   32.2860   41.0340 H   0  0  0  0  0  0  0  0  0  0  0  0
   37.4670   31.9860   39.0000 N   0  0  0  0  0  0  0  0  0  0  0  0
   37.6520   31.2100   37.9030 C   0  0  0  0  0  0  0  0  0  0  0  0
   37.1830   31.4450   36.9540 H   0  0  0  0  0  0  0  0  0  0  0  0
   38.4190   30.1040   37.8950 N   0  0  0  0  0  0  0  0  0  0  0  0
   39.0430   29.7430   39.0490 C   0  0  0  0  0  0  0  0  0  0  0  0
   41.2530   25.4120   42.2280 O   0  0  0  0  0  0  0  0  0  0  0  0
   41.9630   25.5430   43.4110 C   0  0  0  0  0  0  0  0  0  0  0  0
   41.2730   26.3100   44.1070 O   0  0  0  0  0  0  0  0  0  0  0  0
   43.1770   24.7670   43.3720 N   0  0  0  0  0  0  0  0  0  0  0  0
   43.0750   23.7180   43.3160 H   0  0  0  0  0  0  0  0  0  0  0  0
   44.1500   25.1740   43.3940 H   0  0  0  0  0  0  0  0  0  0  0  0
  1  6  2  0  0  0  0
  1  2  1  0  0  0  0
  2  3  2  0  0  0  0
  3  4  1  0  0  0  0
  3  9  1  0  0  0  0
  5  8  1  0  0  0  0
  5  4  2  0  0  0  0
  6  5  1  0  0  0  0
  7  1  1  0  0  0  0
  9 10  1  0  0  0  0
 10 19  1  0  0  0  0
 10 11  2  0  0  0  0
 11 20  1  0  0  0  0
 12 21  1  0  0  0  0
 12 11  1  0  0  0  0
 13 12  2  0  0  0  0
 14 22  1  0  0  0  0
 14 13  1  0  0  0  0
 15 14  2  0  0  0  0
 16 15  1  0  0  0  0
 16 17  2  0  0  0  0
 17 18  1  0  0  0  0
 18 13  1  0  0  0  0
 18  9  2  0  0  0  0
 23 15  1  0  0  0  0
 24 16  1  0  0  0  0
 25 17  1  0  0  0  0
 26  2  1  0  0  0  0
 26 28  1  0  0  0  0
 28 27  2  6  0  0  0
 28 29  1  0  0  0  0
 28 42  1  0  0  0  0
 30 31  1  0  0  0  0
 31 32  1  0  0  0  0
 32 33  2  0  0  0  0
 32 29  1  0  0  0  0
 34 35  1  0  0  0  0
 34 33  1  0  0  0  0
 35 36  1  0  0  0  0
 37 35  2  0  0  0  0
 38 37  1  0  0  0  0
 39 38  1  0  0  0  0
 40 38  2  0  0  0  0
 40 41  1  0  0  0  0
 41 31  1  0  0  0  0
 41 34  2  0  0  0  0
 42 43  1  0  0  0  0
 43 44  2  0  0  0  0
 45 47  1  0  0  0  0
 45 43  1  0  0  0  0
 46 45  1  0  0  0  0
M  END
>  <minimizedAffinity>
-6.20233917

$$$$

 OpenBabel03252508103D

 47 51  0  0  0  0  0  0  0  0999 V2000
   35.6870   24.9720   38.1010 C   0  0  0  0  0  0  0  0  0  0  0  0
   36.7690   25.5050   38.7830 C   0  0  0  0  0  0  0  0  0  0  0  0
   37.2120   24.9110   39.9390 C   0  0  0  0  0  0  0  0  0  0  0  0
   36.5340   23.7840   40.3630 N   0  0  0  0  0  0  0  0  0  0  0  0
   35.4950   23.2780   39.7030 C   0  0  0  0  0  0  0  0  0  0  0  0
   35.0810   23.8840   38.5700 N   0  0  0  0  0  0  0  0  0  0  0  0
   35.2840   25.3780   37.1950 H   0  0  0  0  0  0  0  0  0  0  0  0
   35.0040   22.3900   40.0900 H   0  0  0  0  0  0  0  0  0  0  0  0
   38.2950   25.3280   40.7490 C   0  0  0  0  0  0  0  0  0  0  0  0
   39.6130   24.8970   40.5760 C   0  0  0  0  0  0  0  0  0  0  0  0
   40.6510   25.2460   41.3980 C   0  0  0  0  0  0  0  0  0  0  0  0
   40.4200   26.0740   42.4740 C   0  0  0  0  0  0  0  0  0  0  0  0
   39.0860   26.5260   42.6680 C   0  0  0  0  0  0  0  0  0  0  0  0
   38.8440   27.3490   43.7370 C   0  0  0  0  0  0  0  0  0  0  0  0
   37.5700   27.8250   43.9800 C   0  0  0  0  0  0  0  0  0  0  0  0
   36.5210   27.4610   43.1210 C   0  0  0  0  0  0  0  0  0  0  0  0
   36.8200   26.6130   42.0380 C   0  0  0  0  0  0  0  0  0  0  0  0
   38.0910   26.1540   41.8240 C   0  0  0  0  0  0  0  0  0  0  0  0
   39.7870   24.2420   39.7220 H   0  0  0  0  0  0  0  0  0  0  0  0
   41.6320   24.8480   41.1610 H   0  0  0  0  0  0  0  0  0  0  0  0
   41.2200   26.3510   43.1220 H   0  0  0  0  0  0  0  0  0  0  0  0
   39.6650   27.6230   44.3900 H   0  0  0  0  0  0  0  0  0  0  0  0
   37.4600   28.4610   44.8340 H   0  0  0  0  0  0  0  0  0  0  0  0
   35.5770   27.8820   43.3920 H   0  0  0  0  0  0  0  0  0  0  0  0
   35.9090   26.4720   41.4970 H   0  0  0  0  0  0  0  0  0  0  0  0
   37.3560   26.6210   38.2540 O   0  0  0  0  0  0  0  0  0  0  0  0
   36.2260   28.6830   39.4120 O   0  0  0  0  0  0  0  0  0  0  0  0
   36.5860   28.1200   38.0810 P   0  0  1  0  0  0  0  0  0  0  0  0
   37.6090   29.2430   37.3340 O   0  0  0  0  0  0  0  0  0  0  0  0
   35.9740   31.3400   38.3070 H   0  0  0  0  0  0  0  0  0  0  0  0
   37.0180   31.3660   38.4160 N   0  0  0  0  0  0  0  0  0  0  0  0
   37.8910   30.4320   37.9940 C   0  0  0  0  0  0  0  0  0  0  0  0
   39.1250   30.8550   38.3320 N   0  0  0  0  0  0  0  0  0  0  0  0
   39.0590   32.0410   38.9600 C   0  0  0  0  0  0  0  0  0  0  0  0
   40.0430   32.8340   39.4720 C   0  0  0  0  0  0  0  0  0  0  0  0
   41.1000   32.6010   39.4430 H   0  0  0  0  0  0  0  0  0  0  0  0
   39.6540   34.0000   40.0600 N   0  0  0  0  0  0  0  0  0  0  0  0
   38.3360   34.3170   40.1110 C   0  0  0  0  0  0  0  0  0  0  0  0
   37.9900   35.2360   40.5710 H   0  0  0  0  0  0  0  0  0  0  0  0
   37.3620   33.5370   39.6070 N   0  0  0  0  0  0  0  0  0  0  0  0
   37.7170   32.3660   39.0120 C   0  0  0  0  0  0  0  0  0  0  0  0
   35.2260   27.9080   37.1240 O   0  0  0  0  0  0  0  0  0  0  0  0
   34.1760   28.7990   36.9650 C   0  0  0  0  0  0  0  0  0  0  0  0
   34.3140   29.2410   35.8090 O   0  0  0  0  0  0  0  0  0  0  0  0
   33.3680   28.8610   38.1560 N   0  0  0  0  0  0  0  0  0  0  0  0
   32.8460   27.9850   38.4290 H   0  0  0  0  0  0  0  0  0  0  0  0
   33.2660   29.7140   38.7680 H   0  0  0  0  0  0  0  0  0  0  0  0
  1  6  2  0  0  0  0
  1  2  1  0  0  0  0
  2  3  2  0  0  0  0
  3  4  1  0  0  0  0
  3  9  1  0  0  0  0
  5  8  1  0  0  0  0
  5  4  2  0  0  0  0
  6  5  1  0  0  0  0
  7  1  1  0  0  0  0
  9 18  1  0  0  0  0
 10  9  2  0  0  0  0
 10 11  1  0  0  0  0
 11 12  2  0  0  0  0
 12 13  1  0  0  0  0
 12 21  1  0  0  0  0
 13 14  1  0  0  0  0
 14 15  2  0  0  0  0
 14 22  1  0  0  0  0
 15 23  1  0  0  0  0
 16 24  1  0  0  0  0
 16 15  1  0  0  0  0
 17 16  2  0  0  0  0
 18 17  1  0  0  0  0
 18 13  2  0  0  0  0
 19 10  1  0  0  0  0
 20 11  1  0  0  0  0
 25 17  1  0  0  0  0
 26  2  1  0  0  0  0
 28 26  1  0  0  0  0
 28 27  2  1  0  0  0
 29 32  1  0  0  0  0
 29 28  1  0  0  0  0
 30 31  1  0  0  0  0
 31 41  1  0  0  0  0
 32 33  2  0  0  0  0
 32 31  1  0  0  0  0
 33 34  1  0  0  0  0
 34 41  2  0  0  0  0
 34 35  1  0  0  0  0
 35 37  2  0  0  0  0
 36 35  1  0  0  0  0
 37 38  1  0  0  0  0
 38 39  1  0  0  0  0
 40 38  2  0  0  0  0
 41 40  1  0  0  0  0
 42 28  1  0  0  0  0
 43 42  1  0  0  0  0
 43 45  1  0  0  0  0
 44 43  2  0  0  0  0
 45 46  1  0  0  0  0
 45 47  1  0  0  0  0
M  END
>  <minimizedAffinity>
-6.19897175

$$$$

 OpenBabel03252508103D

 47 51  0  0  0  0  0  0  0  0999 V2000
   35.4580   25.1670   38.1290 C   0  0  0  0  0  0  0  0  0  0  0  0
   36.4200   26.0140   38.6570 C   0  0  0  0  0  0  0  0  0  0  0  0
   37.1860   25.6040   39.7200 C   0  0  0  0  0  0  0  0  0  0  0  0
   36.9470   24.3350   40.2110 N   0  0  0  0  0  0  0  0  0  0  0  0
   36.0210   23.5260   39.7000 C   0  0  0  0  0  0  0  0  0  0  0  0
   35.2820   23.9570   38.6560 N   0  0  0  0  0  0  0  0  0  0  0  0
   34.8220   25.4140   37.3030 H   0  0  0  0  0  0  0  0  0  0  0  0
   35.8820   22.5400   40.1330 H   0  0  0  0  0  0  0  0  0  0  0  0
   38.2020   26.3430   40.3710 C   0  0  0  0  0  0  0  0  0  0  0  0
   39.5000   26.4930   39.8760 C   0  0  0  0  0  0  0  0  0  0  0  0
   40.5040   27.1510   40.5350 C   0  0  0  0  0  0  0  0  0  0  0  0
   40.2560   27.7140   41.7670 C   0  0  0  0  0  0  0  0  0  0  0  0
   38.9410   27.5750   42.2900 C   0  0  0  0  0  0  0  0  0  0  0  0
   38.6830   28.1300   43.5160 C   0  0  0  0  0  0  0  0  0  0  0  0
   37.4260   28.0320   44.0790 C   0  0  0  0  0  0  0  0  0  0  0  0
   36.4080   27.3590   43.3830 C   0  0  0  0  0  0  0  0  0  0  0  0
   36.7230   26.8060   42.1280 C   0  0  0  0  0  0  0  0  0  0  0  0
   37.9790   26.9150   41.5970 C   0  0  0  0  0  0  0  0  0  0  0  0
   39.6880   26.0440   38.9000 H   0  0  0  0  0  0  0  0  0  0  0  0
   41.4720   27.2020   40.0480 H   0  0  0  0  0  0  0  0  0  0  0  0
   41.0310   28.2270   42.2900 H   0  0  0  0  0  0  0  0  0  0  0  0
   39.4790   28.6470   44.0400 H   0  0  0  0  0  0  0  0  0  0  0  0
   37.3020   28.4890   45.0390 H   0  0  0  0  0  0  0  0  0  0  0  0
   35.4740   27.3400   43.9010 H   0  0  0  0  0  0  0  0  0  0  0  0
   35.8250   26.3630   41.7530 H   0  0  0  0  0  0  0  0  0  0  0  0
   36.5600   27.2430   38.0750 O   0  0  0  0  0  0  0  0  0  0  0  0
   35.7960   29.6360   37.3300 O   0  0  0  0  0  0  0  0  0  0  0  0
   35.4740   28.5280   38.2720 P   0  0  1  0  0  0  0  0  0  0  0  0
   33.8890   28.0390   37.9300 O   0  0  0  0  0  0  0  0  0  0  0  0
   33.9980   28.7530   35.1920 H   0  0  0  0  0  0  0  0  0  0  0  0
   33.2470   29.1240   35.8230 N   0  0  0  0  0  0  0  0  0  0  0  0
   33.0960   28.8550   37.1340 C   0  0  0  0  0  0  0  0  0  0  0  0
   32.0120   29.5320   37.5600 N   0  0  0  0  0  0  0  0  0  0  0  0
   31.4660   30.2280   36.5490 C   0  0  0  0  0  0  0  0  0  0  0  0
   30.3730   31.0440   36.5160 C   0  0  0  0  0  0  0  0  0  0  0  0
   29.7410   31.2630   37.3680 H   0  0  0  0  0  0  0  0  0  0  0  0
   30.0660   31.6180   35.3190 N   0  0  0  0  0  0  0  0  0  0  0  0
   30.8400   31.3610   34.2360 C   0  0  0  0  0  0  0  0  0  0  0  0
   30.6260   31.8010   33.2670 H   0  0  0  0  0  0  0  0  0  0  0  0
   31.9190   30.5570   34.2640 N   0  0  0  0  0  0  0  0  0  0  0  0
   32.2530   29.9680   35.4440 C   0  0  0  0  0  0  0  0  0  0  0  0
   35.5490   29.0450   39.8640 O   0  0  0  0  0  0  0  0  0  0  0  0
   36.3590   30.0470   40.3750 C   0  0  0  0  0  0  0  0  0  0  0  0
   37.4810   29.8230   39.8840 O   0  0  0  0  0  0  0  0  0  0  0  0
   35.6110   30.9210   41.2410 N   0  0  0  0  0  0  0  0  0  0  0  0
   34.8420   31.4940   40.8000 H   0  0  0  0  0  0  0  0  0  0  0  0
   35.7790   31.0260   42.2780 H   0  0  0  0  0  0  0  0  0  0  0  0
  1  6  2  0  0  0  0
  1  2  1  0  0  0  0
  2  3  2  0  0  0  0
  3  4  1  0  0  0  0
  3  9  1  0  0  0  0
  5  8  1  0  0  0  0
  5  4  2  0  0  0  0
  6  5  1  0  0  0  0
  7  1  1  0  0  0  0
  9 18  1  0  0  0  0
 10  9  2  0  0  0  0
 10 11  1  0  0  0  0
 11 12  2  0  0  0  0
 12 21  1  0  0  0  0
 12 13  1  0  0  0  0
 13 14  1  0  0  0  0
 14 22  1  0  0  0  0
 14 15  2  0  0  0  0
 15 23  1  0  0  0  0
 16 24  1  0  0  0  0
 16 15  1  0  0  0  0
 17 16  2  0  0  0  0
 18 17  1  0  0  0  0
 18 13  2  0  0  0  0
 19 10  1  0  0  0  0
 20 11  1  0  0  0  0
 25 17  1  0  0  0  0
 26 28  1  0  0  0  0
 26  2  1  0  0  0  0
 28 27  2  6  0  0  0
 28 42  1  0  0  0  0
 29 28  1  0  0  0  0
 30 31  1  0  0  0  0
 31 32  1  0  0  0  0
 32 33  2  0  0  0  0
 32 29  1  0  0  0  0
 34 33  1  0  0  0  0
 35 34  1  0  0  0  0
 35 36  1  0  0  0  0
 37 35  2  0  0  0  0
 38 40  2  0  0  0  0
 38 37  1  0  0  0  0
 39 38  1  0  0  0  0
 40 41  1  0  0  0  0
 41 31  1  0  0  0  0
 41 34  2  0  0  0  0
 42 43  1  0  0  0  0
 43 45  1  0  0  0  0
 44 43  2  0  0  0  0
 45 47  1  0  0  0  0
 46 45  1  0  0  0  0
M  END
>  <minimizedAffinity>
-6.11538553

$$$$
