
     RDKit          3D

 47 51  0  0  0  0  0  0  0  0999 V2000
   45.1302   36.0160   42.9172 C   0  0  0  0  0  0  0  0  0  0  0  0
   45.3707   34.6515   42.9092 C   0  0  0  0  0  0  0  0  0  0  0  0
   45.2139   33.9205   44.0613 C   0  0  0  0  0  0  0  0  0  0  0  0
   44.8125   34.6089   45.1894 N   0  0  0  0  0  0  0  0  0  0  0  0
   44.5831   35.9196   45.1896 C   0  0  0  0  0  0  0  0  0  0  0  0
   44.7466   36.6133   44.0431 N   0  0  0  0  0  0  0  0  0  0  0  0
   45.4188   32.5295   44.2194 C   0  0  0  0  0  0  0  0  0  0  0  0
   44.9405   31.5618   43.3308 C   0  0  0  0  0  0  0  0  0  0  0  0
   45.0791   30.2115   43.5155 C   0  0  0  0  0  0  0  0  0  0  0  0
   45.7247   29.7402   44.6368 C   0  0  0  0  0  0  0  0  0  0  0  0
   46.2210   30.7070   45.5538 C   0  0  0  0  0  0  0  0  0  0  0  0
   46.8636   30.2491   46.6738 C   0  0  0  0  0  0  0  0  0  0  0  0
   47.3711   31.1358   47.6032 C   0  0  0  0  0  0  0  0  0  0  0  0
   47.2247   32.5167   47.3907 C   0  0  0  0  0  0  0  0  0  0  0  0
   46.5565   32.9374   46.2263 C   0  0  0  0  0  0  0  0  0  0  0  0
   46.0608   32.0352   45.3253 C   0  0  0  0  0  0  0  0  0  0  0  0
   45.7588   34.0900   41.7243 O   0  0  0  0  0  0  0  0  0  0  0  0
   47.6837   32.4292   41.0902 O   0  0  0  0  0  0  0  0  0  0  0  0
   47.3693   33.8767   41.2442 P   0  0  1  0  0  0  0  0  0  0  0  0
   47.6537   34.6029   39.7407 O   0  0  0  0  0  0  0  0  0  0  0  0
   48.3612   34.5946   42.3880 O   0  0  0  0  0  0  0  0  0  0  0  0
   49.5350   35.2919   42.1489 C   0  0  0  0  0  0  0  0  0  0  0  0
   49.2035   36.2087   41.3758 O   0  0  0  0  0  0  0  0  0  0  0  0
   50.6379   34.7020   42.8643 N   0  0  0  0  0  0  0  0  0  0  0  0
   45.2312   36.6527   42.0612 H   0  0  0  0  0  0  0  0  0  0  0  0
   44.2697   36.4016   46.1114 H   0  0  0  0  0  0  0  0  0  0  0  0
   44.4307   31.9444   42.4468 H   0  0  0  0  0  0  0  0  0  0  0  0
   44.6657   29.5581   42.7546 H   0  0  0  0  0  0  0  0  0  0  0  0
   45.8372   28.6908   44.7921 H   0  0  0  0  0  0  0  0  0  0  0  0
   46.9698   29.1797   46.8230 H   0  0  0  0  0  0  0  0  0  0  0  0
   47.8583   30.7032   48.4520 H   0  0  0  0  0  0  0  0  0  0  0  0
   47.6518   33.1176   48.1640 H   0  0  0  0  0  0  0  0  0  0  0  0
   46.5674   34.0060   46.2344 H   0  0  0  0  0  0  0  0  0  0  0  0
   50.6001   34.7334   43.9184 H   0  0  0  0  0  0  0  0  0  0  0  0
   51.4727   34.2452   42.4081 H   0  0  0  0  0  0  0  0  0  0  0  0
   45.4100   33.0549   38.9748 H   0  0  0  0  0  0  0  0  0  0  0  0
   46.2295   33.1843   38.3329 N   0  0  0  0  0  0  0  0  0  0  0  0
   47.3449   33.8943   38.5878 C   0  0  0  0  0  0  0  0  0  0  0  0
   48.1367   33.7995   37.5029 N   0  0  0  0  0  0  0  0  0  0  0  0
   47.5517   33.0436   36.5587 C   0  0  0  0  0  0  0  0  0  0  0  0
   47.9807   32.6817   35.3142 C   0  0  0  0  0  0  0  0  0  0  0  0
   48.9269   32.9757   34.8790 H   0  0  0  0  0  0  0  0  0  0  0  0
   47.1464   31.8932   34.5796 N   0  0  0  0  0  0  0  0  0  0  0  0
   45.9549   31.5103   35.1009 C   0  0  0  0  0  0  0  0  0  0  0  0
   45.2665   30.8832   34.5445 H   0  0  0  0  0  0  0  0  0  0  0  0
   45.5290   31.8655   36.3277 N   0  0  0  0  0  0  0  0  0  0  0  0
   46.3381   32.6527   37.0880 C   0  0  0  0  0  0  0  0  0  0  0  0
  1  6  2  0
  2  1  1  0
  2  3  2  0
  3  7  1  0
  3  4  1  0
  5  4  2  0
  6  5  1  0
  7 16  2  0
  8  9  2  0
  8  7  1  0
  9 10  1  0
 10 11  2  0
 11 12  1  0
 12 13  2  0
 14 13  1  0
 15 14  2  0
 16 11  1  0
 16 15  1  0
 17  2  1  0
 19 18  2  0
 19 17  1  1
 19 21  1  0
 20 19  1  0
 22 21  1  0
 22 24  1  0
 23 22  2  0
  1 25  1  0
  5 26  1  0
  8 27  1  0
  9 28  1  0
 10 29  1  0
 12 30  1  0
 13 31  1  0
 14 32  1  0
 15 33  1  0
 24 34  1  0
 24 35  1  0
 36 37  1  0
 37 38  1  0
 38 39  2  0
 39 40  1  0
 40 41  2  0
 41 42  1  0
 41 43  1  0
 43 44  2  0
 44 45  1  0
 44 46  1  0
 46 47  2  0
 47 37  1  0
 47 40  1  0
 20 38  1  0
M  ISO  8  25  14  26  14  27  14  28  14  29  14  30  14  31  14  32  14
M  ISO  4  33  14  36   9  42  16  45  16
M  END
>  <DihAtoms>  (1) 
18,19,37,36

>  <DihDeg>  (1) 
179.99888481714484

$$$$
