
 OpenBabel03252506383D

 47 51  0  0  1  0  0  0  0  0999 V2000
   46.7410   29.9700   46.5070 S   0  0  0  0  0  0  0  0  0  0  0  0
   45.3010   30.5980   43.5640 O   0  0  0  0  0  0  0  0  0  0  0  0
   44.8160   29.9840   44.5260 C   0  0  0  0  0  0  0  0  0  0  0  0
   45.1140   29.6790   45.9470 C   0  0  1  0  0  0  0  0  0  0  0  0
   44.6350   28.2540   46.0710 C   0  0  0  0  0  0  0  0  0  0  0  0
   43.2280   28.4610   45.5040 C   0  0  0  0  0  0  0  0  0  0  0  0
   43.5610   29.3000   44.3590 N   0  0  0  0  0  0  0  0  0  0  0  0
   44.2690   30.2370   46.4370 H   0  0  0  0  0  0  0  0  0  0  0  0
   44.5260   27.9230   47.1080 H   0  0  0  0  0  0  0  0  0  0  0  0
   45.2050   27.5520   45.4400 H   0  0  0  0  0  0  0  0  0  0  0  0
   42.7810   27.5250   45.1720 H   0  0  0  0  0  0  0  0  0  0  0  0
   42.6210   29.0110   46.2490 H   0  0  0  0  0  0  0  0  0  0  0  0
   41.3950   27.6400   43.6510 H   0  0  0  0  0  0  0  0  0  0  0  0
   41.6460   28.4660   43.0460 N   0  0  0  0  0  0  0  0  0  0  0  0
   42.6460   29.3510   43.2430 C   0  0  0  0  0  0  0  0  0  0  0  0
   42.5960   30.2370   42.2240 N   0  0  0  0  0  0  0  0  0  0  0  0
   41.5880   29.9250   41.3950 C   0  0  0  0  0  0  0  0  0  0  0  0
   41.0890   30.4690   40.2260 C   0  0  0  0  0  0  0  0  0  0  0  0
   41.5820   31.3540   39.8370 H   0  0  0  0  0  0  0  0  0  0  0  0
   40.0290   29.9230   39.5910 N   0  0  0  0  0  0  0  0  0  0  0  0
   39.4410   28.8140   40.1120 C   0  0  0  0  0  0  0  0  0  0  0  0
   38.5860   28.3710   39.6020 H   0  0  0  0  0  0  0  0  0  0  0  0
   39.9170   28.2750   41.2490 N   0  0  0  0  0  0  0  0  0  0  0  0
   40.9750   28.7980   41.9070 C   0  0  0  0  0  0  0  0  0  0  0  0
   44.5340   35.4440   45.1850 C   0  0  0  0  0  0  0  0  0  0  0  0
   45.1960   35.4700   43.9340 C   0  0  0  0  0  0  0  0  0  0  0  0
   46.1350   34.5250   43.6590 C   0  0  0  0  0  0  0  0  0  0  0  0
   46.3770   33.6050   44.6230 N   0  0  0  0  0  0  0  0  0  0  0  0
   45.7540   33.5860   45.7920 C   0  0  0  0  0  0  0  0  0  0  0  0
   44.8300   34.4990   46.0880 N   0  0  0  0  0  0  0  0  0  0  0  0
   46.0990   32.5590   46.7400 N   0  0  0  0  0  0  0  0  0  0  0  0
   45.3600   32.2780   47.9170 C   0  0  0  0  0  0  0  0  0  0  0  0
   46.4360   31.9280   48.9280 C   0  0  0  0  0  0  0  0  0  0  0  0
   47.7220   31.8570   48.1590 C   0  0  0  0  0  0  0  0  0  0  0  0
   47.2300   31.6650   46.7270 C   0  0  1  0  0  0  0  0  0  0  0  0
   43.7900   36.2040   45.3870 H   0  0  0  0  0  0  0  0  0  0  0  0
   46.6440   34.5270   42.7240 H   0  0  0  0  0  0  0  0  0  0  0  0
   44.9710   33.2780   48.2930 H   0  0  0  0  0  0  0  0  0  0  0  0
   44.5640   31.6120   47.9960 H   0  0  0  0  0  0  0  0  0  0  0  0
   46.2150   30.9100   49.3570 H   0  0  0  0  0  0  0  0  0  0  0  0
   46.4910   32.5930   49.7880 H   0  0  0  0  0  0  0  0  0  0  0  0
   48.3240   32.7570   48.2990 H   0  0  0  0  0  0  0  0  0  0  0  0
   48.2870   30.9390   48.4690 H   0  0  0  0  0  0  0  0  0  0  0  0
   48.0440   32.0050   46.0660 H   0  0  0  0  0  0  0  0  0  0  0  0
   44.8270   36.5130   43.0180 N   0  0  0  0  0  0  0  0  0  0  0  0
   45.6530   36.9010   42.4850 H   0  0  0  0  0  0  0  0  0  0  0  0
   43.8740   36.8860   42.8510 H   0  0  0  0  0  0  0  0  0  0  0  0
  1 35  1  0  0  0  0
  2  3  2  0  0  0  0
  3  4  1  0  0  0  0
  4  5  1  0  0  0  0
  4  8  1  1  0  0  0
  4  1  1  0  0  0  0
  5  9  1  0  0  0  0
  6  5  1  0  0  0  0
  6 12  1  0  0  0  0
  7  3  1  0  0  0  0
  7  6  1  0  0  0  0
 10  5  1  0  0  0  0
 11  6  1  0  0  0  0
 14 15  1  0  0  0  0
 14 13  1  0  0  0  0
 15  7  1  0  0  0  0
 16 15  2  0  0  0  0
 17 24  1  0  0  0  0
 17 16  1  0  0  0  0
 18 17  2  0  0  0  0
 19 18  1  0  0  0  0
 20 21  2  0  0  0  0
 20 18  1  0  0  0  0
 21 23  1  0  0  0  0
 22 21  1  0  0  0  0
 23 24  2  0  0  0  0
 24 14  1  0  0  0  0
 25 36  1  0  0  0  0
 25 30  1  0  0  0  0
 26 25  2  0  0  0  0
 27 26  1  0  0  0  0
 27 28  2  0  0  0  0
 28 29  1  0  0  0  0
 29 30  2  0  0  0  0
 29 31  1  0  0  0  0
 31 32  1  0  0  0  0
 32 39  1  0  0  0  0
 32 38  1  0  0  0  0
 32 33  1  0  0  0  0
 33 40  1  0  0  0  0
 33 41  1  0  0  0  0
 34 42  1  0  0  0  0
 34 43  1  0  0  0  0
 34 33  1  0  0  0  0
 35 44  1  6  0  0  0
 35 31  1  0  0  0  0
 35 34  1  0  0  0  0
 37 27  1  0  0  0  0
 45 26  1  0  0  0  0
 46 45  1  0  0  0  0
 47 45  1  0  0  0  0
M  END
>  <minimizedAffinity>
-5.85697222

>  <minimizedRMSD>
0.508604825

$$$$
