
 OpenBabel03242513413D

 43 47  0  0  0  0  0  0  0  0999 V2000
   47.7050   30.9350   46.0060 C   0  0  0  0  0  0  0  0  0  0  0  0
   47.0020   32.0180   45.5340 C   0  0  0  0  0  0  0  0  0  0  0  0
   46.0170   32.5600   46.3330 C   0  0  0  0  0  0  0  0  0  0  0  0
   45.7150   32.0560   47.5800 C   0  0  0  0  0  0  0  0  0  0  0  0
   44.8540   32.3240   48.5860 N   0  0  0  0  0  0  0  0  0  0  0  0
   45.0240   31.4570   49.6060 C   0  0  0  0  0  0  0  0  0  0  0  0
   46.0110   30.6320   49.2290 N   0  0  0  0  0  0  0  0  0  0  0  0
   46.4490   30.9690   48.0080 C   0  0  0  0  0  0  0  0  0  0  0  0
   47.4380   30.3960   47.2510 C   0  0  0  0  0  0  0  0  0  0  0  0
   48.4810   30.5000   45.3900 H   0  0  0  0  0  0  0  0  0  0  0  0
   45.4240   33.4150   46.0200 H   0  0  0  0  0  0  0  0  0  0  0  0
   44.1750   33.1030   48.5290 H   0  0  0  0  0  0  0  0  0  0  0  0
   44.4790   31.4210   50.5520 H   0  0  0  0  0  0  0  0  0  0  0  0
   47.2870   34.3670   42.7360 C   0  0  0  0  0  0  0  0  0  0  0  0
   47.8530   33.5850   41.7350 C   0  0  0  0  0  0  0  0  0  0  0  0
   48.1250   32.2570   42.0520 C   0  0  0  0  0  0  0  0  0  0  0  0
   47.8370   31.7840   43.2890 N   0  0  0  0  0  0  0  0  0  0  0  0
   47.2910   32.5810   44.2180 C   0  0  0  0  0  0  0  0  0  0  0  0
   47.0110   33.8650   43.9610 N   0  0  0  0  0  0  0  0  0  0  0  0
   47.0440   35.4150   42.5700 H   0  0  0  0  0  0  0  0  0  0  0  0
   48.5670   31.6520   41.2690 H   0  0  0  0  0  0  0  0  0  0  0  0
   48.1220   34.2230   40.4170 C   0  0  0  0  0  0  0  0  0  0  0  0
   48.6610   35.4560   40.7260 F   0  0  0  0  0  0  0  0  0  0  0  0
   46.9400   34.3840   39.7700 F   0  0  0  0  0  0  0  0  0  0  0  0
   49.0070   33.4040   39.7120 F   0  0  0  0  0  0  0  0  0  0  0  0
   48.1350   29.3050   47.7460 O   0  0  0  0  0  0  0  0  0  0  0  0
   49.7120   27.9620   49.3040 O   0  0  0  0  0  0  0  0  0  0  0  0
   49.4260   29.3990   48.8290 P   0  0  2  0  0  0  0  0  0  0  0  0
   48.9320   30.2940   50.1700 O   0  0  0  0  0  0  0  0  0  0  0  0
   48.8000   29.7610   50.9860 H   0  0  0  0  0  0  0  0  0  0  0  0
   50.8260   30.0180   48.1470 O   0  0  0  0  0  0  0  0  0  0  0  0
   49.6980   28.1540   46.3120 H   0  0  0  0  0  0  0  0  0  0  0  0
   50.6340   28.5520   46.1320 N   0  0  0  0  0  0  0  0  0  0  0  0
   51.2550   29.4380   46.9360 C   0  0  0  0  0  0  0  0  0  0  0  0
   52.4530   29.6990   46.3380 N   0  0  0  0  0  0  0  0  0  0  0  0
   52.5640   28.9850   45.1900 C   0  0  0  0  0  0  0  0  0  0  0  0
   53.6210   28.9730   44.3030 C   0  0  0  0  0  0  0  0  0  0  0  0
   54.5050   29.5890   44.4920 H   0  0  0  0  0  0  0  0  0  0  0  0
   53.4710   28.1700   43.2410 N   0  0  0  0  0  0  0  0  0  0  0  0
   52.3350   27.4310   43.0780 C   0  0  0  0  0  0  0  0  0  0  0  0
   52.3230   26.8220   42.1860 H   0  0  0  0  0  0  0  0  0  0  0  0
   51.3390   27.4920   43.9860 N   0  0  0  0  0  0  0  0  0  0  0  0
   51.4090   28.2700   45.0800 C   0  0  0  0  0  0  0  0  0  0  0  0
  1  9  1  0  0  0  0
  2  1  2  0  0  0  0
  2  3  1  0  0  0  0
  3  4  2  0  0  0  0
  4  8  1  0  0  0  0
  4  5  1  0  0  0  0
  5  6  1  0  0  0  0
  6 13  1  0  0  0  0
  7  6  2  0  0  0  0
  8  7  1  0  0  0  0
  9 26  1  0  0  0  0
  9  8  2  0  0  0  0
 10  1  1  0  0  0  0
 11  3  1  0  0  0  0
 12  5  1  0  0  0  0
 14 19  1  0  0  0  0
 15 16  1  0  0  0  0
 15 14  2  0  0  0  0
 16 17  2  0  0  0  0
 17 18  1  0  0  0  0
 18  2  1  0  0  0  0
 19 18  2  0  0  0  0
 20 14  1  0  0  0  0
 21 16  1  0  0  0  0
 22 23  1  0  0  0  0
 22 15  1  0  0  0  0
 24 22  1  0  0  0  0
 25 22  1  0  0  0  0
 26 28  1  0  0  0  0
 28 27  2  1  0  0  0
 28 29  1  0  0  0  0
 29 30  1  0  0  0  0
 31 28  1  0  0  0  0
 33 32  1  0  0  0  0
 33 34  1  0  0  0  0
 34 31  1  0  0  0  0
 35 34  2  0  0  0  0
 36 35  1  0  0  0  0
 37 38  1  0  0  0  0
 37 36  2  0  0  0  0
 39 37  1  0  0  0  0
 40 39  2  0  0  0  0
 40 42  1  0  0  0  0
 41 40  1  0  0  0  0
 42 43  2  0  0  0  0
 43 36  1  0  0  0  0
 43 33  1  0  0  0  0
M  END
>  <minimizedAffinity>
-5.54653502

>  <minimizedRMSD>
0.982458889

$$$$
