
 OpenBabel03252506383D

 47 51  0  0  1  0  0  0  0  0999 V2000
   46.6550   30.0390   46.5430 S   0  0  0  0  0  0  0  0  0  0  0  0
   45.6110   30.6110   43.4260 O   0  0  0  0  0  0  0  0  0  0  0  0
   44.9980   30.0290   44.3330 C   0  0  0  0  0  0  0  0  0  0  0  0
   45.1080   29.7560   45.7870 C   0  0  1  0  0  0  0  0  0  0  0  0
   44.5920   28.3410   45.8830 C   0  0  0  0  0  0  0  0  0  0  0  0
   43.2720   28.5540   45.1370 C   0  0  0  0  0  0  0  0  0  0  0  0
   43.7630   29.3580   44.0240 N   0  0  0  0  0  0  0  0  0  0  0  0
   44.2170   30.3380   46.1520 H   0  0  0  0  0  0  0  0  0  0  0  0
   44.3480   28.0390   46.9050 H   0  0  0  0  0  0  0  0  0  0  0  0
   45.2260   27.6160   45.3460 H   0  0  0  0  0  0  0  0  0  0  0  0
   42.8560   27.6160   44.7720 H   0  0  0  0  0  0  0  0  0  0  0  0
   42.5860   29.1310   45.7850 H   0  0  0  0  0  0  0  0  0  0  0  0
   44.2040   30.7100   41.5880 H   0  0  0  0  0  0  0  0  0  0  0  0
   43.3520   30.1010   41.7070 N   0  0  0  0  0  0  0  0  0  0  0  0
   42.9980   29.3930   42.8000 C   0  0  0  0  0  0  0  0  0  0  0  0
   41.8370   28.7650   42.5040 N   0  0  0  0  0  0  0  0  0  0  0  0
   41.4600   29.0650   41.2510 C   0  0  0  0  0  0  0  0  0  0  0  0
   40.3900   28.7160   40.4510 C   0  0  0  0  0  0  0  0  0  0  0  0
   39.6470   28.0470   40.8730 H   0  0  0  0  0  0  0  0  0  0  0  0
   40.2700   29.1880   39.1900 N   0  0  0  0  0  0  0  0  0  0  0  0
   41.2220   30.0240   38.6990 C   0  0  0  0  0  0  0  0  0  0  0  0
   41.1290   30.4050   37.6820 H   0  0  0  0  0  0  0  0  0  0  0  0
   42.2700   30.3710   39.4680 N   0  0  0  0  0  0  0  0  0  0  0  0
   42.4170   29.9160   40.7320 C   0  0  0  0  0  0  0  0  0  0  0  0
   44.5090   35.5180   45.1430 C   0  0  0  0  0  0  0  0  0  0  0  0
   45.1690   35.5170   43.8900 C   0  0  0  0  0  0  0  0  0  0  0  0
   46.0960   34.5580   43.6280 C   0  0  0  0  0  0  0  0  0  0  0  0
   46.3290   33.6490   44.6050 N   0  0  0  0  0  0  0  0  0  0  0  0
   45.7090   33.6550   45.7760 C   0  0  0  0  0  0  0  0  0  0  0  0
   44.7950   34.5830   46.0600 N   0  0  0  0  0  0  0  0  0  0  0  0
   46.0430   32.6390   46.7380 N   0  0  0  0  0  0  0  0  0  0  0  0
   45.3030   32.3840   47.9200 C   0  0  0  0  0  0  0  0  0  0  0  0
   46.3770   32.0360   48.9350 C   0  0  0  0  0  0  0  0  0  0  0  0
   47.6610   31.9390   48.1650 C   0  0  0  0  0  0  0  0  0  0  0  0
   47.1640   31.7310   46.7360 C   0  0  1  0  0  0  0  0  0  0  0  0
   43.7730   36.2890   45.3350 H   0  0  0  0  0  0  0  0  0  0  0  0
   46.6030   34.5400   42.6920 H   0  0  0  0  0  0  0  0  0  0  0  0
   44.9260   33.3930   48.2820 H   0  0  0  0  0  0  0  0  0  0  0  0
   44.5000   31.7280   48.0110 H   0  0  0  0  0  0  0  0  0  0  0  0
   46.1450   31.0270   49.3800 H   0  0  0  0  0  0  0  0  0  0  0  0
   46.4410   32.7140   49.7850 H   0  0  0  0  0  0  0  0  0  0  0  0
   48.2730   32.8340   48.2910 H   0  0  0  0  0  0  0  0  0  0  0  0
   48.2160   31.0190   48.4880 H   0  0  0  0  0  0  0  0  0  0  0  0
   47.9810   32.0520   46.0690 H   0  0  0  0  0  0  0  0  0  0  0  0
   44.8090   36.5500   42.9590 N   0  0  0  0  0  0  0  0  0  0  0  0
   45.6390   36.9210   42.4200 H   0  0  0  0  0  0  0  0  0  0  0  0
   43.8610   36.9320   42.7880 H   0  0  0  0  0  0  0  0  0  0  0  0
  1 35  1  0  0  0  0
  2  3  2  0  0  0  0
  3  4  1  0  0  0  0
  4  5  1  0  0  0  0
  4  8  1  1  0  0  0
  4  1  1  0  0  0  0
  5  9  1  0  0  0  0
  6 12  1  0  0  0  0
  6  5  1  0  0  0  0
  7  3  1  0  0  0  0
  7  6  1  0  0  0  0
 10  5  1  0  0  0  0
 11  6  1  0  0  0  0
 13 14  1  0  0  0  0
 14 15  1  0  0  0  0
 15  7  1  0  0  0  0
 16 15  2  0  0  0  0
 17 16  1  0  0  0  0
 18 19  1  0  0  0  0
 18 17  2  0  0  0  0
 20 18  1  0  0  0  0
 21 20  2  0  0  0  0
 21 23  1  0  0  0  0
 22 21  1  0  0  0  0
 23 24  2  0  0  0  0
 24 17  1  0  0  0  0
 24 14  1  0  0  0  0
 25 36  1  0  0  0  0
 25 30  1  0  0  0  0
 26 25  2  0  0  0  0
 27 26  1  0  0  0  0
 27 28  2  0  0  0  0
 28 29  1  0  0  0  0
 29 30  2  0  0  0  0
 29 31  1  0  0  0  0
 31 32  1  0  0  0  0
 32 39  1  0  0  0  0
 32 38  1  0  0  0  0
 32 33  1  0  0  0  0
 33 40  1  0  0  0  0
 33 41  1  0  0  0  0
 34 42  1  0  0  0  0
 34 43  1  0  0  0  0
 34 33  1  0  0  0  0
 35 44  1  6  0  0  0
 35 31  1  0  0  0  0
 35 34  1  0  0  0  0
 37 27  1  0  0  0  0
 45 26  1  0  0  0  0
 46 45  1  0  0  0  0
 47 45  1  0  0  0  0
M  END
>  <minimizedAffinity>
-5.70128536

>  <minimizedRMSD>
0.133621961

$$$$
