
 OpenBabel03242518123D

 29 30  0  0  0  0  0  0  0  0999 V2000
   48.9330   34.3980   42.4990 C   0  0  0  0  0  0  0  0  0  0  0  0
   49.7530   35.0020   42.9430 H   0  0  0  0  0  0  0  0  0  0  0  0
   48.3590   33.9840   43.3590 H   0  0  0  0  0  0  0  0  0  0  0  0
   49.5030   33.3740   41.6830 C   0  0  0  0  0  0  0  0  0  0  0  0
   49.1530   32.6640   40.4850 C   0  0  0  0  0  0  0  0  0  0  0  0
   50.0120   31.7210   40.0010 C   0  0  0  0  0  0  0  0  0  0  0  0
   51.2450   31.4850   40.7320 C   0  0  0  0  0  0  0  0  0  0  0  0
   51.1750   32.6290   42.1320 S   0  0  0  0  0  0  0  0  0  0  0  0
   48.2100   32.9490   40.0630 H   0  0  0  0  0  0  0  0  0  0  0  0
   49.7870   31.1680   39.1060 H   0  0  0  0  0  0  0  0  0  0  0  0
   52.2490   30.5630   40.3950 C   0  0  0  0  0  2  0  0  0  0  0  0
   52.1710   29.3680   41.1660 N   0  0  0  0  0  4  0  0  0  0  0  0
   52.5330   28.5600   40.6080 H   0  0  0  0  0  0  0  0  0  0  0  0
   50.8560   29.0710   41.6850 C   0  0  0  0  0  2  0  0  0  0  0  0
   50.2710   28.5210   40.9220 H   0  0  0  0  0  0  0  0  0  0  0  0
   53.0800   29.4570   42.3110 C   0  0  0  0  0  2  0  0  0  0  0  0
   54.1090   29.6730   41.9170 H   0  0  0  0  0  0  0  0  0  0  0  0
   48.0240   35.3700   41.7830 C   0  0  0  0  0  0  0  0  0  0  0  0
   48.1700   36.3980   42.2020 H   0  0  0  0  0  0  0  0  0  0  0  0
   48.2990   35.3960   40.7340 H   0  0  0  0  0  0  0  0  0  0  0  0
   46.6430   34.9560   41.9880 C   0  0  0  0  0  0  0  0  0  0  0  0
   45.9910   35.1150   43.1980 C   0  0  0  0  0  0  0  0  0  0  0  0
   44.6690   34.6910   43.3110 C   0  0  0  0  0  0  0  0  0  0  0  0
   44.0890   34.1420   42.2210 N   0  0  0  0  0  0  0  0  0  0  0  0
   44.7250   33.9920   41.0580 C   0  0  0  0  0  0  0  0  0  0  0  0
   45.9730   34.3980   40.9710 N   0  0  0  0  0  0  0  0  0  0  0  0
   46.5040   35.5650   44.0460 H   0  0  0  0  0  0  0  0  0  0  0  0
   44.1330   34.8080   44.2610 H   0  0  0  0  0  0  0  0  0  0  0  0
   44.2280   33.5470   40.2070 H   0  0  0  0  0  0  0  0  0  0  0  0
  1  2  1  0  0  0  0
  1  3  1  0  0  0  0
  4  8  1  0  0  0  0
  4  1  1  0  0  0  0
  5  4  2  0  0  0  0
  6  5  1  0  0  0  0
  6  7  2  0  0  0  0
  7  8  1  0  0  0  0
  9  5  1  0  0  0  0
 10  6  1  0  0  0  0
 11  7  1  0  0  0  0
 11 12  1  0  0  0  0
 12 14  1  0  0  0  0
 12 16  1  0  0  0  0
 13 12  1  0  0  0  0
 15 14  1  0  0  0  0
 17 16  1  0  0  0  0
 18 21  1  0  0  0  0
 18 19  1  0  0  0  0
 18  1  1  0  0  0  0
 20 18  1  0  0  0  0
 21 22  1  0  0  0  0
 22 23  2  0  0  0  0
 22 27  1  0  0  0  0
 23 28  1  0  0  0  0
 24 23  1  0  0  0  0
 25 24  2  0  0  0  0
 26 25  1  0  0  0  0
 26 21  2  0  0  0  0
 29 25  1  0  0  0  0
M  END
>  <minimizedAffinity>
-3.30506158

>  <minimizedRMSD>
0.62743032

$$$$
