
 OpenBabel03252502073D

 46 49  0  0  0  0  0  0  0  0999 V2000
   47.5170   32.0100   47.8920 C   0  0  0  0  0  0  0  0  0  0  0  0
   46.9890   30.7130   47.9160 C   0  0  0  0  0  0  0  0  0  0  0  0
   45.9810   30.4480   47.0520 C   0  0  0  0  0  0  0  0  0  0  0  0
   45.5350   31.4030   46.2210 N   0  0  0  0  0  0  0  0  0  0  0  0
   46.0170   32.6260   46.1780 C   0  0  0  0  0  0  0  0  0  0  0  0
   47.0230   32.9160   47.0350 N   0  0  0  0  0  0  0  0  0  0  0  0
   45.3930   29.2030   47.0310 N   0  0  0  0  0  0  0  0  0  0  0  0
   44.1670   28.8580   46.2560 C   0  0  0  0  0  0  0  0  0  0  0  0
   44.0670   27.3610   46.2920 C   0  0  0  0  0  0  0  0  0  0  0  0
   44.7540   27.0100   47.5660 C   0  0  0  0  0  0  0  0  0  0  0  0
   45.8260   28.0330   47.7380 C   0  0  0  0  0  0  0  0  0  0  0  0
   48.3350   32.2770   48.5750 H   0  0  0  0  0  0  0  0  0  0  0  0
   44.2260   29.1950   45.2230 H   0  0  0  0  0  0  0  0  0  0  0  0
   43.3310   29.3530   46.8220 H   0  0  0  0  0  0  0  0  0  0  0  0
   42.9960   27.0200   46.3690 H   0  0  0  0  0  0  0  0  0  0  0  0
   44.5910   26.9060   45.4500 H   0  0  0  0  0  0  0  0  0  0  0  0
   44.0130   26.9770   48.4100 H   0  0  0  0  0  0  0  0  0  0  0  0
   45.1940   25.9880   47.5310 H   0  0  0  0  0  0  0  0  0  0  0  0
   45.8230   28.2360   48.8300 H   0  0  0  0  0  0  0  0  0  0  0  0
   46.7550   27.6100   47.3420 H   0  0  0  0  0  0  0  0  0  0  0  0
   45.6910   33.7950   45.3270 C   0  0  0  0  0  0  0  0  0  0  0  0
   44.8330   34.7620   45.6820 N   0  0  0  0  0  0  0  0  0  0  0  0
   44.5330   35.8220   44.9360 C   0  0  0  0  0  0  0  0  0  0  0  0
   45.1090   35.9850   43.7220 N   0  0  0  0  0  0  0  0  0  0  0  0
   45.9750   35.0960   43.2590 C   0  0  0  0  0  0  0  0  0  0  0  0
   46.5770   35.2540   42.0190 C   0  0  0  0  0  0  0  0  0  0  0  0
   47.4730   34.3540   41.5380 C   0  0  0  0  0  0  0  0  0  0  0  0
   47.7700   33.2660   42.3220 C   0  0  0  0  0  0  0  0  0  0  0  0
   47.1540   33.1290   43.5560 C   0  0  0  0  0  0  0  0  0  0  0  0
   46.2530   34.0110   44.0730 C   0  0  0  0  0  0  0  0  0  0  0  0
   43.8160   36.5500   45.3290 H   0  0  0  0  0  0  0  0  0  0  0  0
   46.3260   36.1190   41.4210 H   0  0  0  0  0  0  0  0  0  0  0  0
   47.9280   34.5030   40.5680 H   0  0  0  0  0  0  0  0  0  0  0  0
   47.5710   31.9440   44.2270 N   0  0  0  0  0  0  0  0  0  0  0  0
   46.9050   31.2290   43.8540 H   0  0  0  0  0  0  0  0  0  0  0  0
   48.3200   31.7150   44.9120 H   0  0  0  0  0  0  0  0  0  0  0  0
   48.7570   32.3000   41.7740 C   0  0  0  0  0  2  0  0  0  0  0  0
   50.0220   32.3480   42.4560 N   0  0  0  0  0  4  0  0  0  0  0  0
   49.8800   32.0740   43.4440 H   0  0  0  0  0  0  0  0  0  0  0  0
   50.6830   33.6230   42.3470 C   0  0  0  0  0  2  0  0  0  0  0  0
   51.5380   33.6110   43.0560 H   0  0  0  0  0  0  0  0  0  0  0  0
   50.9510   31.3790   41.8800 C   0  0  0  0  0  2  0  0  0  0  0  0
   51.3650   31.8250   40.9340 H   0  0  0  0  0  0  0  0  0  0  0  0
   47.5570   29.8130   48.7750 N   0  0  0  0  0  0  0  0  0  0  0  0
   48.2470   29.1390   48.3780 H   0  0  0  0  0  0  0  0  0  0  0  0
   47.3540   29.7500   49.8190 H   0  0  0  0  0  0  0  0  0  0  0  0
  1  2  1  0  0  0  0
  1 12  1  0  0  0  0
  2 44  1  0  0  0  0
  3  2  2  0  0  0  0
  4  3  1  0  0  0  0
  5  4  2  0  0  0  0
  5  6  1  0  0  0  0
  6  1  2  0  0  0  0
  7  3  1  0  0  0  0
  7 11  1  0  0  0  0
  8  9  1  0  0  0  0
  8 14  1  0  0  0  0
  8  7  1  0  0  0  0
  9 15  1  0  0  0  0
  9 10  1  0  0  0  0
 10 11  1  0  0  0  0
 10 17  1  0  0  0  0
 11 19  1  0  0  0  0
 13  8  1  0  0  0  0
 16  9  1  0  0  0  0
 18 10  1  0  0  0  0
 20 11  1  0  0  0  0
 21 22  1  0  0  0  0
 21  5  1  0  0  0  0
 23 31  1  0  0  0  0
 23 22  2  0  0  0  0
 24 23  1  0  0  0  0
 25 24  2  0  0  0  0
 25 30  1  0  0  0  0
 26 25  1  0  0  0  0
 27 26  2  0  0  0  0
 27 28  1  0  0  0  0
 28 29  2  0  0  0  0
 29 30  1  0  0  0  0
 29 34  1  0  0  0  0
 30 21  2  0  0  0  0
 32 26  1  0  0  0  0
 33 27  1  0  0  0  0
 34 36  1  0  0  0  0
 35 34  1  0  0  0  0
 37 28  1  0  0  0  0
 37 38  1  0  0  0  0
 38 39  1  0  0  0  0
 40 38  1  0  0  0  0
 40 41  1  0  0  0  0
 42 38  1  0  0  0  0
 43 42  1  0  0  0  0
 44 46  1  0  0  0  0
 45 44  1  0  0  0  0
M  END
>  <minimizedAffinity>
-6.59369516

>  <minimizedRMSD>
0.536881983

$$$$
