
 OpenBabel03242523193D

 35 37  0  0  0  0  0  0  0  0999 V2000
   46.3160   33.5430   44.7410 C   0  0  0  0  0  0  0  0  0  0  0  0
   45.7300   33.9420   45.7170 O   0  0  0  0  0  0  0  0  0  0  0  0
   44.6260   31.7230   42.9140 Cl  0  0  0  0  0  0  0  0  0  0  0  0
   44.6080   33.4850   42.7950 C   0  0  0  0  0  0  0  0  0  0  0  0
   45.4440   34.1630   43.7100 C   0  0  0  0  0  0  0  0  0  0  0  0
   45.3580   35.5310   43.5130 C   0  0  0  0  0  0  0  0  0  0  0  0
   44.6400   36.2350   42.6280 C   0  0  0  0  0  0  0  0  0  0  0  0
   43.8600   35.5050   41.7830 C   0  0  0  0  0  0  0  0  0  0  0  0
   43.8270   34.1530   41.8470 C   0  0  0  0  0  0  0  0  0  0  0  0
   45.9290   36.2160   44.1780 H   0  0  0  0  0  0  0  0  0  0  0  0
   44.6170   37.3090   42.5220 H   0  0  0  0  0  0  0  0  0  0  0  0
   43.2220   35.9340   41.0140 H   0  0  0  0  0  0  0  0  0  0  0  0
   42.9570   33.3350   40.9460 C   0  0  0  0  0  2  0  0  0  0  0  0
   43.5440   33.1130   39.6610 N   0  0  0  0  0  4  0  0  0  0  0  0
   43.2720   32.1150   39.3910 H   0  0  0  0  0  0  0  0  0  0  0  0
   44.9630   33.2240   39.5770 C   0  0  0  0  0  2  0  0  0  0  0  0
   45.2620   34.1560   39.0130 H   0  0  0  0  0  0  0  0  0  0  0  0
   42.9360   33.9580   38.6570 C   0  0  0  0  0  2  0  0  0  0  0  0
   42.1510   33.4130   38.0700 H   0  0  0  0  0  0  0  0  0  0  0  0
   47.3870   32.7990   44.0670 C   0  0  0  0  0  0  0  0  0  0  0  0
   48.2320   33.2850   43.1460 C   0  0  0  0  0  0  0  0  0  0  0  0
   49.0850   32.3480   42.5990 C   0  0  0  0  0  0  0  0  0  0  0  0
   49.0000   31.0150   43.0440 N   0  0  0  0  0  0  0  0  0  0  0  0
   48.1440   30.6180   43.9560 C   0  0  0  0  0  0  0  0  0  0  0  0
   47.2740   31.5260   44.5220 N   0  0  0  0  0  0  0  0  0  0  0  0
   49.8250   32.5730   41.8410 H   0  0  0  0  0  0  0  0  0  0  0  0
   48.1980   29.5610   44.1990 H   0  0  0  0  0  0  0  0  0  0  0  0
   48.3960   34.6480   42.7820 C   0  0  0  0  0  0  0  0  0  0  0  0
   49.3980   35.2250   42.0690 C   0  0  0  0  0  0  0  0  0  0  0  0
   48.1500   35.0130   41.2570 C   0  0  0  0  0  0  0  0  0  0  0  0
   47.9430   35.3540   43.5020 H   0  0  0  0  0  0  0  0  0  0  0  0
   50.2560   34.6100   41.6990 H   0  0  0  0  0  0  0  0  0  0  0  0
   49.7270   36.2980   42.0580 H   0  0  0  0  0  0  0  0  0  0  0  0
   48.0770   34.1380   40.5990 H   0  0  0  0  0  0  0  0  0  0  0  0
   47.4630   35.8610   41.1240 H   0  0  0  0  0  0  0  0  0  0  0  0
  1  2  2  0  0  0  0
  4  3  1  0  0  0  0
  4  5  1  0  0  0  0
  5  1  1  0  0  0  0
  6  5  2  0  0  0  0
  6 10  1  0  0  0  0
  7  6  1  0  0  0  0
  8  9  1  0  0  0  0
  8  7  2  0  0  0  0
  9  4  2  0  0  0  0
 11  7  1  0  0  0  0
 12  8  1  0  0  0  0
 13  9  1  0  0  0  0
 14 13  1  0  0  0  0
 15 14  1  0  0  0  0
 16 14  1  0  0  0  0
 17 16  1  0  0  0  0
 18 14  1  0  0  0  0
 19 18  1  0  0  0  0
 20 25  1  0  0  0  0
 20  1  1  0  0  0  0
 21 20  2  0  0  0  0
 22 23  2  0  0  0  0
 22 21  1  0  0  0  0
 23 24  1  0  0  0  0
 24 27  1  0  0  0  0
 24 25  2  0  0  0  0
 26 22  1  0  0  0  0
 28 21  1  0  0  0  0
 28 31  1  0  0  0  0
 29 28  1  0  0  0  0
 30 29  1  0  0  0  0
 30 28  1  0  0  0  0
 32 29  1  0  0  0  0
 33 29  1  0  0  0  0
 34 30  1  0  0  0  0
 35 30  1  0  0  0  0
M  END
>  <minimizedAffinity>
-5.00509691

>  <minimizedRMSD>
0.570946991

$$$$
