
 OpenBabel03242520563D

 39 40  0  0  0  0  0  0  0  0999 V2000
   48.5260   31.5070   48.5290 C   0  0  0  0  0  3  0  0  0  0  0  0
   47.4320   32.2290   48.6640 C   0  0  0  0  0  3  0  0  0  0  0  0
   51.2690   32.3860   50.7800 C   0  0  0  0  0  0  0  0  0  0  0  0
   51.3510   31.2310   51.6080 C   0  0  0  0  0  0  0  0  0  0  0  0
   50.4900   30.1830   51.3750 C   0  0  0  0  0  0  0  0  0  0  0  0
   49.6220   30.3280   50.3750 N   0  0  0  0  0  0  0  0  0  0  0  0
   49.5330   31.4120   49.5900 C   0  0  0  0  0  0  0  0  0  0  0  0
   50.3590   32.4520   49.7860 N   0  0  0  0  0  0  0  0  0  0  0  0
   51.8920   33.2680   50.8640 H   0  0  0  0  0  0  0  0  0  0  0  0
   50.5210   29.0610   52.1190 O   0  0  0  0  0  0  0  0  0  0  0  0
   51.4450   28.0320   51.7340 C   0  0  0  0  0  0  0  0  0  0  0  0
   51.9260   28.2990   50.4410 F   0  0  0  0  0  0  0  0  0  0  0  0
   52.5270   28.1340   52.6050 F   0  0  0  0  0  0  0  0  0  0  0  0
   50.9280   26.7470   51.8290 F   0  0  0  0  0  0  0  0  0  0  0  0
   52.3540   31.4210   52.6750 C   0  0  0  0  0  2  0  0  0  0  0  0
   51.6970   31.3600   54.0010 N   0  0  0  0  0  4  0  0  0  0  0  0
   50.8290   30.7430   53.9460 H   0  0  0  0  0  0  0  0  0  0  0  0
   52.5550   30.7390   54.9900 C   0  0  0  0  0  2  0  0  0  0  0  0
   52.4750   31.2840   55.9710 H   0  0  0  0  0  0  0  0  0  0  0  0
   51.3280   32.6830   54.4520 C   0  0  0  0  0  2  0  0  0  0  0  0
   51.7230   32.8570   55.4940 H   0  0  0  0  0  0  0  0  0  0  0  0
   46.4400   32.2930   47.5580 C   0  0  0  0  0  0  0  0  0  0  0  0
   46.3310   31.2550   47.2230 H   0  0  0  0  0  0  0  0  0  0  0  0
   45.4360   32.5900   47.9920 H   0  0  0  0  0  0  0  0  0  0  0  0
   46.6150   32.7830   45.2750 C   0  0  0  0  0  0  0  0  0  0  0  0
   46.2060   31.7110   44.7840 O   0  0  0  0  0  0  0  0  0  0  0  0
   46.7760   33.2430   46.5780 N   0  0  0  0  0  0  0  0  0  0  0  0
   47.1180   34.2010   46.7250 H   0  0  0  0  0  0  0  0  0  0  0  0
   44.8640   35.1050   44.3490 Cl  0  0  0  0  0  0  0  0  0  0  0  0
   46.2710   34.5890   43.4620 C   0  0  0  0  0  0  0  0  0  0  0  0
   46.9170   33.5320   44.0480 C   0  0  0  0  0  0  0  0  0  0  0  0
   48.0690   32.9920   43.4680 C   0  0  0  0  0  0  0  0  0  0  0  0
   48.5680   33.5320   42.2830 C   0  0  0  0  0  0  0  0  0  0  0  0
   47.8930   34.6050   41.7100 C   0  0  0  0  0  0  0  0  0  0  0  0
   48.4790   35.3230   40.2260 Cl  0  0  0  0  0  0  0  0  0  0  0  0
   46.7660   35.1160   42.2970 C   0  0  0  0  0  0  0  0  0  0  0  0
   48.6570   32.1850   43.8120 H   0  0  0  0  0  0  0  0  0  0  0  0
   49.4500   33.1740   41.7720 H   0  0  0  0  0  0  0  0  0  0  0  0
   46.1980   35.9490   41.8970 H   0  0  0  0  0  0  0  0  0  0  0  0
  1  2  2  0  0  0  0
  1  7  1  0  0  0  0
  3  9  1  0  0  0  0
  3  4  1  0  0  0  0
  4 15  1  0  0  0  0
  5  4  2  0  0  0  0
  5 10  1  0  0  0  0
  6  5  1  0  0  0  0
  7  8  1  0  0  0  0
  7  6  2  0  0  0  0
  8  3  2  0  0  0  0
 11 14  1  0  0  0  0
 11 10  1  0  0  0  0
 11 13  1  0  0  0  0
 12 11  1  0  0  0  0
 15 16  1  0  0  0  0
 16 20  1  0  0  0  0
 16 18  1  0  0  0  0
 17 16  1  0  0  0  0
 18 19  1  0  0  0  0
 20 21  1  0  0  0  0
 22 24  1  0  0  0  0
 22  2  1  0  0  0  0
 23 22  1  0  0  0  0
 25 27  1  0  0  0  0
 26 25  2  0  0  0  0
 27 28  1  0  0  0  0
 27 22  1  0  0  0  0
 30 31  1  0  0  0  0
 30 29  1  0  0  0  0
 31 25  1  0  0  0  0
 32 37  1  0  0  0  0
 32 31  2  0  0  0  0
 33 32  1  0  0  0  0
 34 33  2  0  0  0  0
 34 36  1  0  0  0  0
 35 34  1  0  0  0  0
 36 30  2  0  0  0  0
 38 33  1  0  0  0  0
 39 36  1  0  0  0  0
M  END
>  <minimizedAffinity>
-6.43968391

>  <minimizedRMSD>
0.453641683

$$$$
