
 OpenBabel03252508533D

 41 43  0  0  1  0  0  0  0  0999 V2000
   43.2960   34.4260   40.6810 C   0  0  0  0  0  0  0  0  0  0  0  0
   42.7740   35.5570   40.9750 O   0  0  0  0  0  0  0  0  0  0  0  0
   42.4270   34.0600   39.5750 N   0  0  0  0  0  0  0  0  0  0  0  0
   42.4310   34.9870   38.4600 C   0  0  0  0  0  0  0  0  0  0  0  0
   41.1600   35.8120   38.6260 C   0  0  0  0  0  0  0  0  0  0  0  0
   40.0940   34.8850   39.2050 C   0  0  0  0  0  0  0  0  0  0  0  0
   40.3220   33.4430   38.7460 C   0  0  0  0  0  0  0  0  0  0  0  0
   41.5570   32.8890   39.4430 C   0  0  2  0  0  0  0  0  0  0  0  0
   43.2930   35.6780   38.4660 H   0  0  0  0  0  0  0  0  0  0  0  0
   42.3360   34.4520   37.4830 H   0  0  0  0  0  0  0  0  0  0  0  0
   41.3630   36.5720   39.4100 H   0  0  0  0  0  0  0  0  0  0  0  0
   40.8260   36.2730   37.6790 H   0  0  0  0  0  0  0  0  0  0  0  0
   39.0830   35.1930   38.9200 H   0  0  0  0  0  0  0  0  0  0  0  0
   40.1860   34.8700   40.3150 H   0  0  0  0  0  0  0  0  0  0  0  0
   40.5060   33.4870   37.6400 H   0  0  0  0  0  0  0  0  0  0  0  0
   39.4120   32.8840   38.9900 H   0  0  0  0  0  0  0  0  0  0  0  0
   42.0390   32.1890   38.7510 H   0  0  0  0  0  0  0  0  0  0  0  0
   44.3600   33.7940   41.2700 O   0  0  0  0  0  0  0  0  0  0  0  0
   45.6890   34.1360   41.1080 C   0  0  0  0  0  0  0  0  0  0  0  0
   46.3430   34.7640   42.1650 C   0  0  0  0  0  0  0  0  0  0  0  0
   47.6850   35.0980   41.9730 C   0  0  0  0  0  0  0  0  0  0  0  0
   48.2740   34.7930   40.7740 N   0  0  0  0  0  0  0  0  0  0  0  0
   47.6100   34.1970   39.8040 C   0  0  0  0  0  0  0  0  0  0  0  0
   46.3100   33.8630   39.9620 N   0  0  0  0  0  0  0  0  0  0  0  0
   48.2130   35.5820   42.7720 H   0  0  0  0  0  0  0  0  0  0  0  0
   48.0570   33.9460   38.8480 H   0  0  0  0  0  0  0  0  0  0  0  0
   45.6270   35.0430   43.3970 C   0  0  0  0  0  0  0  0  0  0  0  0
   44.9900   36.2450   43.6500 C   0  0  0  0  0  0  0  0  0  0  0  0
   44.4540   36.0840   44.8970 C   0  0  0  0  0  0  0  0  0  0  0  0
   44.7420   34.8540   45.3870 N   0  0  0  0  0  0  0  0  0  0  0  0
   45.4480   34.2580   44.4580 N   0  0  0  0  0  0  0  0  0  0  0  0
   44.9380   37.1050   42.9970 H   0  0  0  0  0  0  0  0  0  0  0  0
   43.8650   36.8110   45.4680 H   0  0  0  0  0  0  0  0  0  0  0  0
   44.4760   34.4180   46.3190 H   0  0  0  0  0  0  0  0  0  0  0  0
   41.2250   32.2880   40.7780 C   0  0  0  0  0  2  0  0  0  0  0  0
   40.3830   31.1190   40.6280 N   0  0  0  0  0  4  0  0  0  0  0  0
   39.9310   31.0780   39.6970 H   0  0  0  0  0  0  0  0  0  0  0  0
   39.2970   31.1620   41.6180 C   0  0  0  0  0  2  0  0  0  0  0  0
   38.7900   30.1910   41.6840 H   0  0  0  0  0  0  0  0  0  0  0  0
   41.1210   29.8860   40.8030 C   0  0  0  0  0  2  0  0  0  0  0  0
   41.9240   29.9750   41.5740 H   0  0  0  0  0  0  0  0  0  0  0  0
  1  2  2  0  0  0  0
  1 18  1  0  0  0  0
  3  1  1  0  0  0  0
  4  9  1  0  0  0  0
  4  5  1  0  0  0  0
  4  3  1  0  0  0  0
  5  6  1  0  0  0  0
  5 11  1  0  0  0  0
  6 14  1  0  0  0  0
  7 16  1  0  0  0  0
  7  6  1  0  0  0  0
  7  8  1  0  0  0  0
  8 17  1  6  0  0  0
  8  3  1  0  0  0  0
  8 35  1  0  0  0  0
 10  4  1  0  0  0  0
 12  5  1  0  0  0  0
 13  6  1  0  0  0  0
 15  7  1  0  0  0  0
 19 18  1  0  0  0  0
 19 20  1  0  0  0  0
 20 27  1  0  0  0  0
 21 20  2  0  0  0  0
 21 25  1  0  0  0  0
 22 21  1  0  0  0  0
 23 24  1  0  0  0  0
 23 22  2  0  0  0  0
 24 19  2  0  0  0  0
 26 23  1  0  0  0  0
 27 28  1  0  0  0  0
 27 31  2  0  0  0  0
 28 29  2  0  0  0  0
 29 30  1  0  0  0  0
 29 33  1  0  0  0  0
 30 34  1  0  0  0  0
 31 30  1  0  0  0  0
 32 28  1  0  0  0  0
 36 35  1  0  0  0  0
 36 40  1  0  0  0  0
 36 38  1  0  0  0  0
 37 36  1  0  0  0  0
 38 39  1  0  0  0  0
 40 41  1  0  0  0  0
M  END
>  <minimizedAffinity>
-5.89483118

>  <minimizedRMSD>
1.89995193

$$$$
