
     RDKit          3D

 39 40  0  0  0  0  0  0  0  0999 V2000
   41.9822   35.4470   39.5398 C   0  0  0  0  0  0  0  0  0  0  0  0
   40.6506   34.8241   39.2619 C   0  0  0  0  0  0  0  0  0  0  0  0
   40.2655   34.6447   37.9405 C   0  0  0  0  0  0  0  0  0  0  0  0
   39.0344   34.0687   37.6623 C   0  0  0  0  0  0  0  0  0  0  0  0
   38.1851   33.6706   38.6938 C   0  0  0  0  0  0  0  0  0  0  0  0
   38.5689   33.8494   40.0053 C   0  0  0  0  0  0  0  0  0  0  0  0
   39.7990   34.4249   40.2755 C   0  0  0  0  0  0  0  0  0  0  0  0
   43.6038   35.4771   41.4035 C   0  0  0  0  0  0  0  0  0  0  0  0
   42.5512   34.9572   40.8206 C   0  0  0  0  0  0  0  0  0  0  0  0
   44.2904   35.8885   43.7518 C   0  0  0  0  0  0  0  0  0  0  0  0
   44.1923   35.0339   42.6487 C   0  0  0  0  0  0  0  0  0  0  0  0
   44.6787   33.7488   42.7916 C   0  0  0  0  0  0  0  0  0  0  0  0
   45.2256   33.3774   43.9877 N   0  0  0  0  0  0  0  0  0  0  0  0
   45.3068   34.2235   45.0346 C   0  0  0  0  0  0  0  0  0  0  0  0
   44.8395   35.4673   44.9063 N   0  0  0  0  0  0  0  0  0  0  0  0
   42.6762   35.2036   38.7182 H   0  0  0  0  0  0  0  0  0  0  0  0
   41.7878   36.5494   39.6405 H   0  0  0  0  0  0  0  0  0  0  0  0
   40.9468   34.9640   37.1372 H   0  0  0  0  0  0  0  0  0  0  0  0
   38.8029   33.9610   36.6106 H   0  0  0  0  0  0  0  0  0  0  0  0
   37.2569   33.2364   38.3470 H   0  0  0  0  0  0  0  0  0  0  0  0
   37.8784   33.5258   40.7726 H   0  0  0  0  0  0  0  0  0  0  0  0
   40.0838   34.5576   41.3089 H   0  0  0  0  0  0  0  0  0  0  0  0
   44.0813   36.3309   40.8937 H   0  0  0  0  0  0  0  0  0  0  0  0
   42.1231   34.1167   41.3716 H   0  0  0  0  0  0  0  0  0  0  0  0
   43.8957   36.8993   43.6048 H   0  0  0  0  0  0  0  0  0  0  0  0
   44.6281   33.0424   41.9666 H   0  0  0  0  0  0  0  0  0  0  0  0
   45.9013   33.8207   46.3360 C   0  0  0  0  0  0  0  0  0  0  0  0
   46.0539   32.3896   46.4770 N   0  0  0  0  0  4  0  0  0  0  0  0
   44.9694   31.6217   45.9408 C   0  0  0  0  0  0  0  0  0  0  0  0
   45.1826   31.3292   44.8947 H   0  0  0  0  0  0  0  0  0  0  0  0
   47.3416   32.0088   45.9295 C   0  0  0  0  0  0  0  0  0  0  0  0
   47.2475   31.0183   45.4256 H   0  0  0  0  0  0  0  0  0  0  0  0
   46.9055   34.2599   46.5039 H   0  0  0  0  0  0  0  0  0  0  0  0
   45.2759   34.1739   47.1952 H   0  0  0  0  0  0  0  0  0  0  0  0
   46.1147   32.1956   47.5128 H   0  0  0  0  0  0  0  0  0  0  0  0
   44.0175   32.1767   45.9646 H   0  0  0  0  0  0  0  0  0  0  0  0
   44.8862   30.6868   46.5471 H   0  0  0  0  0  0  0  0  0  0  0  0
   47.6585   32.7503   45.1691 H   0  0  0  0  0  0  0  0  0  0  0  0
   48.1350   32.0059   46.7064 H   0  0  0  0  0  0  0  0  0  0  0  0
  1  9  1  0
  2  1  1  0
  2  7  1  0
  3  2  2  0
  4  3  1  0
  4  5  2  0
  5  6  1  0
  6  7  2  0
  8 11  1  0
  9  8  2  0
 10 15  2  0
 11 12  2  0
 11 10  1  0
 12 13  1  0
 13 14  2  0
 15 14  1  0
  1 16  1  0
  1 17  1  0
  3 18  1  0
  4 19  1  0
  5 20  1  0
  6 21  1  0
  7 22  1  0
  8 23  1  0
  9 24  1  0
 10 25  1  0
 12 26  1  0
 27 28  1  0
 28 29  1  0
 29 30  1  0
 28 31  1  0
 31 32  1  0
 27 33  1  0
 27 34  1  0
 28 35  1  0
 29 36  1  0
 29 37  1  0
 31 38  1  0
 31 39  1  0
 14 27  1  0
M  ISO  8  16   8  17   8  18  14  19  14  20  14  21  14  22  14  25  14
M  CHG  1  28   1
M  ISO  3  26  14  30   8  32   8
M  END
>  <DihAtoms>  (1) 
12,13,26,27

>  <DihDeg>  (1) 
-89.9999262929172

$$$$
