
 OpenBabel03252503033D

 31 31  0  0  0  0  0  0  0  0999 V2000
   36.2330   30.6000   40.8740 S   0  0  0  0  0  0  0  0  0  0  0  0
   36.5820   28.1860   42.2120 C   0  0  0  0  0  0  0  0  0  0  0  0
   37.1850   29.3320   41.7410 C   0  0  0  0  0  0  0  0  0  0  0  0
   38.5550   29.5540   41.9170 C   0  0  0  0  0  0  0  0  0  0  0  0
   39.2440   28.5740   42.5770 N   0  0  0  0  0  0  0  0  0  0  0  0
   38.6290   27.4710   43.0230 C   0  0  0  0  0  0  0  0  0  0  0  0
   37.3210   27.2610   42.8540 N   0  0  0  0  0  0  0  0  0  0  0  0
   35.5170   28.0280   42.0690 H   0  0  0  0  0  0  0  0  0  0  0  0
   38.9790   30.4700   41.5280 H   0  0  0  0  0  0  0  0  0  0  0  0
   39.5450   26.5150   43.7190 C   0  0  0  0  0  2  0  0  0  0  0  0
   40.2470   25.6600   42.8060 N   0  0  0  0  0  4  0  0  0  0  0  0
   40.2320   25.9870   41.8170 H   0  0  0  0  0  0  0  0  0  0  0  0
   41.6400   25.5240   43.2570 C   0  0  0  0  0  2  0  0  0  0  0  0
   41.8150   26.1750   44.1260 H   0  0  0  0  0  0  0  0  0  0  0  0
   39.6540   24.3370   42.8740 C   0  0  0  0  0  2  0  0  0  0  0  0
   39.9300   23.6920   42.0100 H   0  0  0  0  0  0  0  0  0  0  0  0
   37.3340   31.6040   39.8730 C   0  0  0  0  0  0  0  0  0  0  0  0
   36.9610   31.6010   38.8150 H   0  0  0  0  0  0  0  0  0  0  0  0
   38.3480   31.1830   39.9610 H   0  0  0  0  0  0  0  0  0  0  0  0
   37.3180   32.9400   40.4430 N   0  0  0  0  0  0  0  0  0  0  0  0
   36.7520   33.5660   39.8270 H   0  0  0  0  0  0  0  0  0  0  0  0
   38.8850   33.6070   40.6270 S   0  0  0  0  0  0  0  0  0  0  0  0
   39.4040   34.1590   39.3450 O   0  0  0  0  0  0  0  0  0  0  0  0
   39.3150   33.8290   38.4280 H   0  0  0  0  0  0  0  0  0  0  0  0
   38.7540   34.7200   41.6580 O   0  0  0  0  0  0  0  0  0  0  0  0
   38.3750   34.5910   42.5640 H   0  0  0  0  0  0  0  0  0  0  0  0
   39.9250   32.4700   41.2660 O   0  0  0  0  0  0  0  0  0  0  0  0
   41.0930   32.3550   40.5290 C   0  0  0  0  0  0  0  0  0  0  0  0
   40.8840   31.6430   39.6960 H   0  0  0  0  0  0  0  0  0  0  0  0
   41.8670   31.8760   41.1640 H   0  0  0  0  0  0  0  0  0  0  0  0
   41.4380   33.2990   40.0720 H   0  0  0  0  0  0  0  0  0  0  0  0
  1  3  1  0  0  0  0
  2  7  1  0  0  0  0
  3  4  1  0  0  0  0
  3  2  2  0  0  0  0
  4  5  2  0  0  0  0
  5  6  1  0  0  0  0
  6 10  1  0  0  0  0
  7  6  2  0  0  0  0
  8  2  1  0  0  0  0
  9  4  1  0  0  0  0
 11 15  1  0  0  0  0
 11 13  1  0  0  0  0
 11 10  1  0  0  0  0
 12 11  1  0  0  0  0
 13 14  1  0  0  0  0
 16 15  1  0  0  0  0
 17 19  1  0  0  0  0
 17 20  1  0  0  0  0
 17  1  1  0  0  0  0
 18 17  1  0  0  0  0
 20 22  1  0  0  0  0
 21 20  1  0  0  0  0
 22 27  1  0  0  0  0
 22 25  1  0  0  0  0
 23 22  1  0  0  0  0
 24 23  1  0  0  0  0
 25 26  1  0  0  0  0
 28 30  1  0  0  0  0
 28 27  1  0  0  0  0
 29 28  1  0  0  0  0
 31 28  1  0  0  0  0
M  END
>  <minimizedAffinity>
-4.81117582

$$$$

 OpenBabel03252503033D

 31 31  0  0  0  0  0  0  0  0999 V2000
   38.6680   33.3970   40.1200 S   0  0  0  0  0  0  0  0  0  0  0  0
   39.0400   30.8680   41.2180 C   0  0  0  0  0  0  0  0  0  0  0  0
   38.1340   31.7760   40.7140 C   0  0  0  0  0  0  0  0  0  0  0  0
   36.7690   31.4750   40.6440 C   0  0  0  0  0  0  0  0  0  0  0  0
   36.4010   30.2400   41.1020 N   0  0  0  0  0  0  0  0  0  0  0  0
   37.3050   29.3790   41.5860 C   0  0  0  0  0  0  0  0  0  0  0  0
   38.6070   29.6680   41.6520 N   0  0  0  0  0  0  0  0  0  0  0  0
   40.0950   31.1150   41.2660 H   0  0  0  0  0  0  0  0  0  0  0  0
   36.1000   32.2230   40.2390 H   0  0  0  0  0  0  0  0  0  0  0  0
   36.7140   28.0820   42.0380 C   0  0  0  0  0  2  0  0  0  0  0  0
   37.3570   26.9460   41.4440 N   0  0  0  0  0  4  0  0  0  0  0  0
   38.3810   27.0640   41.2940 H   0  0  0  0  0  0  0  0  0  0  0  0
   37.1170   25.7670   42.2890 C   0  0  0  0  0  2  0  0  0  0  0  0
   36.5820   26.0660   43.2020 H   0  0  0  0  0  0  0  0  0  0  0  0
   36.7210   26.6800   40.1660 C   0  0  0  0  0  2  0  0  0  0  0  0
   37.3250   26.0160   39.5090 H   0  0  0  0  0  0  0  0  0  0  0  0
   40.4610   33.4640   40.0730 C   0  0  0  0  0  0  0  0  0  0  0  0
   40.8600   32.4150   40.0710 H   0  0  0  0  0  0  0  0  0  0  0  0
   40.8000   34.0400   40.9470 H   0  0  0  0  0  0  0  0  0  0  0  0
   40.8230   34.1760   38.8590 N   0  0  0  0  0  0  0  0  0  0  0  0
   39.9770   34.6620   38.4850 H   0  0  0  0  0  0  0  0  0  0  0  0
   41.4590   33.1480   37.6460 S   0  0  0  0  0  0  0  0  0  0  0  0
   40.3790   32.4970   36.8520 O   0  0  0  0  0  0  0  0  0  0  0  0
   39.5090   32.1460   37.1290 H   0  0  0  0  0  0  0  0  0  0  0  0
   42.3080   34.0320   36.7430 O   0  0  0  0  0  0  0  0  0  0  0  0
   43.0480   34.6030   37.0690 H   0  0  0  0  0  0  0  0  0  0  0  0
   42.4810   32.0170   38.3240 O   0  0  0  0  0  0  0  0  0  0  0  0
   43.7930   32.4600   38.3710 C   0  0  0  0  0  0  0  0  0  0  0  0
   44.2510   32.2280   37.3800 H   0  0  0  0  0  0  0  0  0  0  0  0
   44.3440   31.8540   39.1210 H   0  0  0  0  0  0  0  0  0  0  0  0
   43.9030   33.5460   38.5330 H   0  0  0  0  0  0  0  0  0  0  0  0
  1  3  1  0  0  0  0
  2  8  1  0  0  0  0
  2  7  1  0  0  0  0
  3  2  2  0  0  0  0
  4  3  1  0  0  0  0
  4  5  2  0  0  0  0
  5  6  1  0  0  0  0
  6  7  2  0  0  0  0
  6 10  1  0  0  0  0
  9  4  1  0  0  0  0
 11 10  1  0  0  0  0
 11 13  1  0  0  0  0
 12 11  1  0  0  0  0
 13 14  1  0  0  0  0
 15 11  1  0  0  0  0
 16 15  1  0  0  0  0
 17  1  1  0  0  0  0
 17 19  1  0  0  0  0
 18 17  1  0  0  0  0
 20 17  1  0  0  0  0
 21 20  1  0  0  0  0
 22 27  1  0  0  0  0
 22 20  1  0  0  0  0
 23 24  1  0  0  0  0
 23 22  1  0  0  0  0
 25 26  1  0  0  0  0
 25 22  1  0  0  0  0
 27 28  1  0  0  0  0
 28 31  1  0  0  0  0
 28 30  1  0  0  0  0
 29 28  1  0  0  0  0
M  END
>  <minimizedAffinity>
-4.5659976

$$$$

 OpenBabel03252503033D

 31 31  0  0  0  0  0  0  0  0999 V2000
   35.8770   28.2960   38.1180 S   0  0  0  0  0  0  0  0  0  0  0  0
   36.9090   27.4730   40.5660 C   0  0  0  0  0  0  0  0  0  0  0  0
   36.3910   27.0800   39.3510 C   0  0  0  0  0  0  0  0  0  0  0  0
   36.2460   25.7260   39.0300 C   0  0  0  0  0  0  0  0  0  0  0  0
   36.6440   24.8340   39.9860 N   0  0  0  0  0  0  0  0  0  0  0  0
   37.1440   25.2470   41.1590 C   0  0  0  0  0  0  0  0  0  0  0  0
   37.2820   26.5400   41.4630 N   0  0  0  0  0  0  0  0  0  0  0  0
   37.0160   28.5270   40.8020 H   0  0  0  0  0  0  0  0  0  0  0  0
   35.8340   25.4720   38.0620 H   0  0  0  0  0  0  0  0  0  0  0  0
   37.5240   24.1280   42.0750 C   0  0  0  0  0  2  0  0  0  0  0  0
   38.9220   23.8150   42.0130 N   0  0  0  0  0  4  0  0  0  0  0  0
   39.1340   22.7960   42.0400 H   0  0  0  0  0  0  0  0  0  0  0  0
   39.4870   24.4010   40.7880 C   0  0  0  0  0  2  0  0  0  0  0  0
   38.6840   24.8550   40.1880 H   0  0  0  0  0  0  0  0  0  0  0  0
   39.5840   24.4640   43.1300 C   0  0  0  0  0  2  0  0  0  0  0  0
   40.5980   24.0530   43.3330 H   0  0  0  0  0  0  0  0  0  0  0  0
   35.4170   29.8280   38.9320 C   0  0  0  0  0  0  0  0  0  0  0  0
   35.0210   29.5870   39.9540 H   0  0  0  0  0  0  0  0  0  0  0  0
   34.6710   30.3340   38.3010 H   0  0  0  0  0  0  0  0  0  0  0  0
   36.6180   30.6430   39.0030 N   0  0  0  0  0  0  0  0  0  0  0  0
   37.4490   30.0420   38.8000 H   0  0  0  0  0  0  0  0  0  0  0  0
   36.8300   31.3910   40.5290 S   0  0  0  0  0  0  0  0  0  0  0  0
   36.8950   32.8750   40.4110 O   0  0  0  0  0  0  0  0  0  0  0  0
   37.3080   33.4410   39.7290 H   0  0  0  0  0  0  0  0  0  0  0  0
   35.6270   30.9870   41.3700 O   0  0  0  0  0  0  0  0  0  0  0  0
   35.3570   30.0490   41.5320 H   0  0  0  0  0  0  0  0  0  0  0  0
   38.1830   30.7810   41.2890 O   0  0  0  0  0  0  0  0  0  0  0  0
   39.3510   31.0980   40.6140 C   0  0  0  0  0  0  0  0  0  0  0  0
   39.4900   30.3240   39.8220 H   0  0  0  0  0  0  0  0  0  0  0  0
   40.2050   30.9880   41.3140 H   0  0  0  0  0  0  0  0  0  0  0  0
   39.3340   32.0800   40.1090 H   0  0  0  0  0  0  0  0  0  0  0  0
  1 17  1  0  0  0  0
  1  3  1  0  0  0  0
  2  8  1  0  0  0  0
  2  7  1  0  0  0  0
  3  2  2  0  0  0  0
  4  3  1  0  0  0  0
  4  5  2  0  0  0  0
  5  6  1  0  0  0  0
  6  7  2  0  0  0  0
  6 10  1  0  0  0  0
  9  4  1  0  0  0  0
 11 12  1  0  0  0  0
 11 10  1  0  0  0  0
 11 15  1  0  0  0  0
 13 11  1  0  0  0  0
 14 13  1  0  0  0  0
 15 16  1  0  0  0  0
 17 20  1  0  0  0  0
 17 18  1  0  0  0  0
 19 17  1  0  0  0  0
 20 22  1  0  0  0  0
 21 20  1  0  0  0  0
 22 27  1  0  0  0  0
 22 25  1  0  0  0  0
 23 22  1  0  0  0  0
 24 23  1  0  0  0  0
 25 26  1  0  0  0  0
 28 27  1  0  0  0  0
 28 30  1  0  0  0  0
 29 28  1  0  0  0  0
 31 28  1  0  0  0  0
M  END
>  <minimizedAffinity>
-4.32596493

$$$$

 OpenBabel03252503033D

 31 31  0  0  0  0  0  0  0  0999 V2000
   38.3850   32.3120   40.4790 S   0  0  0  0  0  0  0  0  0  0  0  0
   37.2570   30.1040   41.7410 C   0  0  0  0  0  0  0  0  0  0  0  0
   38.4220   30.7480   41.3830 C   0  0  0  0  0  0  0  0  0  0  0  0
   39.6730   30.2140   41.7080 C   0  0  0  0  0  0  0  0  0  0  0  0
   39.6640   29.0290   42.3910 N   0  0  0  0  0  0  0  0  0  0  0  0
   38.5150   28.4270   42.7250 C   0  0  0  0  0  0  0  0  0  0  0  0
   37.3210   28.9390   42.4150 N   0  0  0  0  0  0  0  0  0  0  0  0
   36.2930   30.5310   41.4830 H   0  0  0  0  0  0  0  0  0  0  0  0
   40.5570   30.7590   41.4030 H   0  0  0  0  0  0  0  0  0  0  0  0
   38.7050   27.1440   43.4680 C   0  0  0  0  0  2  0  0  0  0  0  0
   39.0910   26.0620   42.6100 N   0  0  0  0  0  4  0  0  0  0  0  0
   39.6160   26.3560   41.7600 H   0  0  0  0  0  0  0  0  0  0  0  0
   39.9020   25.1080   43.3830 C   0  0  0  0  0  2  0  0  0  0  0  0
   40.0800   25.5040   44.3930 H   0  0  0  0  0  0  0  0  0  0  0  0
   37.8910   25.3540   42.2020 C   0  0  0  0  0  2  0  0  0  0  0  0
   38.0550   24.6930   41.3220 H   0  0  0  0  0  0  0  0  0  0  0  0
   40.0610   32.9000   40.2190 C   0  0  0  0  0  0  0  0  0  0  0  0
   40.7660   32.0340   40.3230 H   0  0  0  0  0  0  0  0  0  0  0  0
   40.2570   33.6930   40.9570 H   0  0  0  0  0  0  0  0  0  0  0  0
   40.1030   33.4680   38.8820 N   0  0  0  0  0  0  0  0  0  0  0  0
   39.1340   33.7310   38.5930 H   0  0  0  0  0  0  0  0  0  0  0  0
   40.7600   32.3940   37.7210 S   0  0  0  0  0  0  0  0  0  0  0  0
   40.9660   31.0310   38.2850 O   0  0  0  0  0  0  0  0  0  0  0  0
   41.2670   30.7480   39.1710 H   0  0  0  0  0  0  0  0  0  0  0  0
   39.7550   32.3380   36.5780 O   0  0  0  0  0  0  0  0  0  0  0  0
   39.4250   33.1360   36.0940 H   0  0  0  0  0  0  0  0  0  0  0  0
   42.1760   33.0150   37.0950 O   0  0  0  0  0  0  0  0  0  0  0  0
   42.4510   34.2830   37.5790 C   0  0  0  0  0  0  0  0  0  0  0  0
   41.8920   35.0060   36.9380 H   0  0  0  0  0  0  0  0  0  0  0  0
   43.5290   34.4950   37.4250 H   0  0  0  0  0  0  0  0  0  0  0  0
   42.1250   34.4540   38.6210 H   0  0  0  0  0  0  0  0  0  0  0  0
  1  3  1  0  0  0  0
  2  7  1  0  0  0  0
  3  4  1  0  0  0  0
  3  2  2  0  0  0  0
  4  5  2  0  0  0  0
  5  6  1  0  0  0  0
  6 10  1  0  0  0  0
  7  6  2  0  0  0  0
  8  2  1  0  0  0  0
  9  4  1  0  0  0  0
 11 13  1  0  0  0  0
 11 10  1  0  0  0  0
 12 11  1  0  0  0  0
 13 14  1  0  0  0  0
 15 11  1  0  0  0  0
 16 15  1  0  0  0  0
 17 18  1  0  0  0  0
 17  1  1  0  0  0  0
 17 19  1  0  0  0  0
 20 17  1  0  0  0  0
 21 20  1  0  0  0  0
 22 23  1  0  0  0  0
 22 20  1  0  0  0  0
 23 24  1  0  0  0  0
 25 22  1  0  0  0  0
 26 25  1  0  0  0  0
 27 28  1  0  0  0  0
 27 22  1  0  0  0  0
 28 31  1  0  0  0  0
 29 28  1  0  0  0  0
 30 28  1  0  0  0  0
M  END
>  <minimizedAffinity>
-4.32390785

$$$$

 OpenBabel03252503033D

 31 31  0  0  0  0  0  0  0  0999 V2000
   36.0670   29.3430   39.3640 S   0  0  0  0  0  0  0  0  0  0  0  0
   37.1700   31.5560   40.6400 C   0  0  0  0  0  0  0  0  0  0  0  0
   37.2130   30.7290   39.5380 C   0  0  0  0  0  0  0  0  0  0  0  0
   38.1450   30.9350   38.5150 C   0  0  0  0  0  0  0  0  0  0  0  0
   38.9970   31.9920   38.6790 N   0  0  0  0  0  0  0  0  0  0  0  0
   38.9300   32.7770   39.7630 C   0  0  0  0  0  0  0  0  0  0  0  0
   38.0390   32.5800   40.7380 N   0  0  0  0  0  0  0  0  0  0  0  0
   36.4410   31.3840   41.4260 H   0  0  0  0  0  0  0  0  0  0  0  0
   38.1370   30.2570   37.6720 H   0  0  0  0  0  0  0  0  0  0  0  0
   39.9410   33.8800   39.7650 C   0  0  0  0  0  2  0  0  0  0  0  0
   40.8420   33.7990   40.8790 N   0  0  0  0  0  4  0  0  0  0  0  0
   40.4050   34.0170   41.7990 H   0  0  0  0  0  0  0  0  0  0  0  0
   41.4280   32.4510   40.9200 C   0  0  0  0  0  2  0  0  0  0  0  0
   40.9670   31.8210   40.1450 H   0  0  0  0  0  0  0  0  0  0  0  0
   41.9370   34.7230   40.6460 C   0  0  0  0  0  2  0  0  0  0  0  0
   42.5220   34.9450   41.5660 H   0  0  0  0  0  0  0  0  0  0  0  0
   35.6610   28.6870   40.9850 C   0  0  0  0  0  0  0  0  0  0  0  0
   34.7300   28.0660   40.8980 H   0  0  0  0  0  0  0  0  0  0  0  0
   35.5360   29.5380   41.6710 H   0  0  0  0  0  0  0  0  0  0  0  0
   36.7980   27.8900   41.4120 N   0  0  0  0  0  0  0  0  0  0  0  0
   36.6100   26.8850   41.1960 H   0  0  0  0  0  0  0  0  0  0  0  0
   37.1350   28.0480   43.0830 S   0  0  0  0  0  0  0  0  0  0  0  0
   37.4200   29.4610   43.4570 O   0  0  0  0  0  0  0  0  0  0  0  0
   37.9060   30.1610   42.9770 H   0  0  0  0  0  0  0  0  0  0  0  0
   35.8950   27.5550   43.8150 O   0  0  0  0  0  0  0  0  0  0  0  0
   35.4890   26.6630   43.6750 H   0  0  0  0  0  0  0  0  0  0  0  0
   38.3910   27.0380   43.5180 O   0  0  0  0  0  0  0  0  0  0  0  0
   39.6260   27.5560   43.1620 C   0  0  0  0  0  0  0  0  0  0  0  0
   39.8070   27.2660   42.1000 H   0  0  0  0  0  0  0  0  0  0  0  0
   40.4090   27.0490   43.7640 H   0  0  0  0  0  0  0  0  0  0  0  0
   39.6910   28.6570   43.2150 H   0  0  0  0  0  0  0  0  0  0  0  0
  1  3  1  0  0  0  0
  1 17  1  0  0  0  0
  2  7  1  0  0  0  0
  2  8  1  0  0  0  0
  3  2  2  0  0  0  0
  4  5  2  0  0  0  0
  4  3  1  0  0  0  0
  5  6  1  0  0  0  0
  6 10  1  0  0  0  0
  6  7  2  0  0  0  0
  9  4  1  0  0  0  0
 10 11  1  0  0  0  0
 11 13  1  0  0  0  0
 11 12  1  0  0  0  0
 14 13  1  0  0  0  0
 15 11  1  0  0  0  0
 15 16  1  0  0  0  0
 17 20  1  0  0  0  0
 17 19  1  0  0  0  0
 18 17  1  0  0  0  0
 20 22  1  0  0  0  0
 21 20  1  0  0  0  0
 22 23  1  0  0  0  0
 22 27  1  0  0  0  0
 22 25  1  0  0  0  0
 24 23  1  0  0  0  0
 26 25  1  0  0  0  0
 28 31  1  0  0  0  0
 28 27  1  0  0  0  0
 28 30  1  0  0  0  0
 29 28  1  0  0  0  0
M  END
>  <minimizedAffinity>
-4.31368017

$$$$

 OpenBabel03252503033D

 31 31  0  0  0  0  0  0  0  0999 V2000
   36.4390   30.1580   39.0770 S   0  0  0  0  0  0  0  0  0  0  0  0
   37.1490   32.8010   39.5790 C   0  0  0  0  0  0  0  0  0  0  0  0
   37.5950   31.5110   39.3900 C   0  0  0  0  0  0  0  0  0  0  0  0
   38.9600   31.2040   39.4320 C   0  0  0  0  0  0  0  0  0  0  0  0
   39.8060   32.2510   39.6700 N   0  0  0  0  0  0  0  0  0  0  0  0
   39.3410   33.4940   39.8500 C   0  0  0  0  0  0  0  0  0  0  0  0
   38.0390   33.7860   39.8090 N   0  0  0  0  0  0  0  0  0  0  0  0
   36.0870   33.0250   39.5430 H   0  0  0  0  0  0  0  0  0  0  0  0
   39.2570   30.1750   39.2770 H   0  0  0  0  0  0  0  0  0  0  0  0
   40.4160   34.5050   40.0980 C   0  0  0  0  0  2  0  0  0  0  0  0
   41.7130   34.0380   39.7040 N   0  0  0  0  0  4  0  0  0  0  0  0
   41.7730   33.0070   39.5660 H   0  0  0  0  0  0  0  0  0  0  0  0
   42.1090   34.7230   38.4650 C   0  0  0  0  0  2  0  0  0  0  0  0
   41.2820   35.3530   38.1070 H   0  0  0  0  0  0  0  0  0  0  0  0
   42.6680   34.4330   40.7230 C   0  0  0  0  0  2  0  0  0  0  0  0
   43.6300   33.8780   40.6570 H   0  0  0  0  0  0  0  0  0  0  0  0
   35.6950   29.6300   40.6230 C   0  0  0  0  0  0  0  0  0  0  0  0
   35.7820   28.5140   40.7010 H   0  0  0  0  0  0  0  0  0  0  0  0
   34.6480   29.9700   40.6270 H   0  0  0  0  0  0  0  0  0  0  0  0
   36.4220   30.2990   41.6890 N   0  0  0  0  0  0  0  0  0  0  0  0
   36.9530   31.1030   41.2850 H   0  0  0  0  0  0  0  0  0  0  0  0
   37.5120   29.2630   42.5070 S   0  0  0  0  0  0  0  0  0  0  0  0
   38.8540   29.8900   42.6680 O   0  0  0  0  0  0  0  0  0  0  0  0
   39.3660   30.4600   42.0600 H   0  0  0  0  0  0  0  0  0  0  0  0
   36.8970   28.9910   43.8730 O   0  0  0  0  0  0  0  0  0  0  0  0
   35.9850   28.6300   44.0050 H   0  0  0  0  0  0  0  0  0  0  0  0
   37.6170   27.7960   41.7190 O   0  0  0  0  0  0  0  0  0  0  0  0
   38.0310   26.7770   42.5620 C   0  0  0  0  0  0  0  0  0  0  0  0
   39.1470   26.8050   42.5840 H   0  0  0  0  0  0  0  0  0  0  0  0
   37.7500   25.8050   42.1070 H   0  0  0  0  0  0  0  0  0  0  0  0
   37.6840   26.8790   43.6060 H   0  0  0  0  0  0  0  0  0  0  0  0
  1  3  1  0  0  0  0
  1 17  1  0  0  0  0
  2  7  1  0  0  0  0
  3  4  1  0  0  0  0
  3  2  2  0  0  0  0
  4  5  2  0  0  0  0
  5  6  1  0  0  0  0
  6 10  1  0  0  0  0
  7  6  2  0  0  0  0
  8  2  1  0  0  0  0
  9  4  1  0  0  0  0
 11 10  1  0  0  0  0
 11 15  1  0  0  0  0
 12 11  1  0  0  0  0
 13 11  1  0  0  0  0
 14 13  1  0  0  0  0
 16 15  1  0  0  0  0
 17 19  1  0  0  0  0
 17 18  1  0  0  0  0
 17 20  1  0  0  0  0
 20 22  1  0  0  0  0
 21 20  1  0  0  0  0
 22 23  1  0  0  0  0
 22 25  1  0  0  0  0
 24 23  1  0  0  0  0
 25 26  1  0  0  0  0
 27 22  1  0  0  0  0
 27 28  1  0  0  0  0
 28 29  1  0  0  0  0
 28 31  1  0  0  0  0
 30 28  1  0  0  0  0
M  END
>  <minimizedAffinity>
-4.30749559

$$$$

 OpenBabel03252503033D

 31 31  0  0  0  0  0  0  0  0999 V2000
   36.7990   30.1600   37.7040 S   0  0  0  0  0  0  0  0  0  0  0  0
   38.3050   28.4740   39.3240 C   0  0  0  0  0  0  0  0  0  0  0  0
   37.0860   29.0850   39.1270 C   0  0  0  0  0  0  0  0  0  0  0  0
   36.0270   28.8940   40.0220 C   0  0  0  0  0  0  0  0  0  0  0  0
   36.2790   28.0750   41.0880 N   0  0  0  0  0  0  0  0  0  0  0  0
   37.4750   27.4950   41.2520 C   0  0  0  0  0  0  0  0  0  0  0  0
   38.4840   27.6780   40.3960 N   0  0  0  0  0  0  0  0  0  0  0  0
   39.1170   28.6300   38.6210 H   0  0  0  0  0  0  0  0  0  0  0  0
   35.0900   29.3980   39.8210 H   0  0  0  0  0  0  0  0  0  0  0  0
   37.5610   26.6360   42.4730 C   0  0  0  0  0  2  0  0  0  0  0  0
   38.1570   27.3170   43.5850 N   0  0  0  0  0  4  0  0  0  0  0  0
   38.0620   26.8170   44.4940 H   0  0  0  0  0  0  0  0  0  0  0  0
   39.5810   27.5440   43.2970 C   0  0  0  0  0  2  0  0  0  0  0  0
   39.8490   27.0620   42.3460 H   0  0  0  0  0  0  0  0  0  0  0  0
   37.5400   28.6260   43.7010 C   0  0  0  0  0  2  0  0  0  0  0  0
   37.7210   29.1060   44.6880 H   0  0  0  0  0  0  0  0  0  0  0  0
   38.0290   31.4670   37.6750 C   0  0  0  0  0  0  0  0  0  0  0  0
   38.3370   31.6470   36.6110 H   0  0  0  0  0  0  0  0  0  0  0  0
   38.8710   31.1510   38.3080 H   0  0  0  0  0  0  0  0  0  0  0  0
   37.4050   32.6430   38.2580 N   0  0  0  0  0  0  0  0  0  0  0  0
   37.7210   33.4910   37.7340 H   0  0  0  0  0  0  0  0  0  0  0  0
   37.7750   32.8420   39.9180 S   0  0  0  0  0  0  0  0  0  0  0  0
   37.9640   34.2760   40.2730 O   0  0  0  0  0  0  0  0  0  0  0  0
   38.3830   35.0050   39.7740 H   0  0  0  0  0  0  0  0  0  0  0  0
   36.5950   32.2660   40.6880 O   0  0  0  0  0  0  0  0  0  0  0  0
   36.2530   31.3440   40.5660 H   0  0  0  0  0  0  0  0  0  0  0  0
   39.1130   31.9330   40.3250 O   0  0  0  0  0  0  0  0  0  0  0  0
   38.9430   31.2570   41.5220 C   0  0  0  0  0  0  0  0  0  0  0  0
   39.2200   31.9650   42.3390 H   0  0  0  0  0  0  0  0  0  0  0  0
   39.6760   30.4250   41.5660 H   0  0  0  0  0  0  0  0  0  0  0  0
   37.9070   30.9260   41.7160 H   0  0  0  0  0  0  0  0  0  0  0  0
  1  3  1  0  0  0  0
  2  7  1  0  0  0  0
  3  2  2  0  0  0  0
  3  4  1  0  0  0  0
  4  5  2  0  0  0  0
  5  6  1  0  0  0  0
  6 10  1  0  0  0  0
  7  6  2  0  0  0  0
  8  2  1  0  0  0  0
  9  4  1  0  0  0  0
 10 11  1  0  0  0  0
 11 15  1  0  0  0  0
 11 12  1  0  0  0  0
 13 11  1  0  0  0  0
 14 13  1  0  0  0  0
 15 16  1  0  0  0  0
 17  1  1  0  0  0  0
 17 20  1  0  0  0  0
 17 19  1  0  0  0  0
 18 17  1  0  0  0  0
 20 22  1  0  0  0  0
 21 20  1  0  0  0  0
 22 23  1  0  0  0  0
 22 27  1  0  0  0  0
 22 25  1  0  0  0  0
 24 23  1  0  0  0  0
 26 25  1  0  0  0  0
 27 28  1  0  0  0  0
 28 30  1  0  0  0  0
 28 31  1  0  0  0  0
 28 29  1  0  0  0  0
M  END
>  <minimizedAffinity>
-4.24343252

$$$$

 OpenBabel03252503033D

 31 31  0  0  0  0  0  0  0  0999 V2000
   38.6390   27.5680   42.0710 S   0  0  0  0  0  0  0  0  0  0  0  0
   39.3980   30.2240   42.3960 C   0  0  0  0  0  0  0  0  0  0  0  0
   39.5020   29.0900   41.6210 C   0  0  0  0  0  0  0  0  0  0  0  0
   40.2780   29.0780   40.4570 C   0  0  0  0  0  0  0  0  0  0  0  0
   40.9170   30.2460   40.1460 N   0  0  0  0  0  0  0  0  0  0  0  0
   40.7960   31.3330   40.9210 C   0  0  0  0  0  0  0  0  0  0  0  0
   40.0540   31.3420   42.0310 N   0  0  0  0  0  0  0  0  0  0  0  0
   38.7910   30.2190   43.2970 H   0  0  0  0  0  0  0  0  0  0  0  0
   40.3260   28.1610   39.8840 H   0  0  0  0  0  0  0  0  0  0  0  0
   41.5660   32.5130   40.4210 C   0  0  0  0  0  2  0  0  0  0  0  0
   41.0650   33.7550   40.9330 N   0  0  0  0  0  4  0  0  0  0  0  0
   40.6130   33.6820   41.8680 H   0  0  0  0  0  0  0  0  0  0  0  0
   42.1710   34.7230   40.9970 C   0  0  0  0  0  2  0  0  0  0  0  0
   43.1140   34.2300   40.7200 H   0  0  0  0  0  0  0  0  0  0  0  0
   40.1020   34.2840   39.9840 C   0  0  0  0  0  2  0  0  0  0  0  0
   39.4560   35.0790   40.4170 H   0  0  0  0  0  0  0  0  0  0  0  0
   37.0580   27.4950   41.2260 C   0  0  0  0  0  0  0  0  0  0  0  0
   36.6210   26.4710   41.3660 H   0  0  0  0  0  0  0  0  0  0  0  0
   37.2310   27.7370   40.1660 H   0  0  0  0  0  0  0  0  0  0  0  0
   36.2170   28.5210   41.8200 N   0  0  0  0  0  0  0  0  0  0  0  0
   35.3980   28.0650   42.2820 H   0  0  0  0  0  0  0  0  0  0  0  0
   35.6480   29.6630   40.6780 S   0  0  0  0  0  0  0  0  0  0  0  0
   34.2700   29.3400   40.2140 O   0  0  0  0  0  0  0  0  0  0  0  0
   33.8480   28.4790   40.0250 H   0  0  0  0  0  0  0  0  0  0  0  0
   35.6570   31.0120   41.3850 O   0  0  0  0  0  0  0  0  0  0  0  0
   36.4560   31.3990   41.8230 H   0  0  0  0  0  0  0  0  0  0  0  0
   36.7110   29.7780   39.3960 O   0  0  0  0  0  0  0  0  0  0  0  0
   37.3040   31.0270   39.3180 C   0  0  0  0  0  0  0  0  0  0  0  0
   36.6040   31.6850   38.7500 H   0  0  0  0  0  0  0  0  0  0  0  0
   38.2240   30.9440   38.7030 H   0  0  0  0  0  0  0  0  0  0  0  0
   37.4830   31.5090   40.2950 H   0  0  0  0  0  0  0  0  0  0  0  0
  2  8  1  0  0  0  0
  3  1  1  0  0  0  0
  3  2  2  0  0  0  0
  4  3  1  0  0  0  0
  5  4  2  0  0  0  0
  5  6  1  0  0  0  0
  6  7  2  0  0  0  0
  7  2  1  0  0  0  0
  9  4  1  0  0  0  0
 10  6  1  0  0  0  0
 10 11  1  0  0  0  0
 11 13  1  0  0  0  0
 11 12  1  0  0  0  0
 14 13  1  0  0  0  0
 15 16  1  0  0  0  0
 15 11  1  0  0  0  0
 17 18  1  0  0  0  0
 17 20  1  0  0  0  0
 17  1  1  0  0  0  0
 19 17  1  0  0  0  0
 20 21  1  0  0  0  0
 22 25  1  0  0  0  0
 22 20  1  0  0  0  0
 23 22  1  0  0  0  0
 24 23  1  0  0  0  0
 25 26  1  0  0  0  0
 27 22  1  0  0  0  0
 28 27  1  0  0  0  0
 28 31  1  0  0  0  0
 29 28  1  0  0  0  0
 30 28  1  0  0  0  0
M  END
>  <minimizedAffinity>
-4.22950602

$$$$

 OpenBabel03252503033D

 31 31  0  0  0  0  0  0  0  0999 V2000
   40.4720   31.6090   40.0690 S   0  0  0  0  0  0  0  0  0  0  0  0
   39.2530   30.3770   42.2460 C   0  0  0  0  0  0  0  0  0  0  0  0
   39.8160   30.2060   40.9990 C   0  0  0  0  0  0  0  0  0  0  0  0
   39.9000   28.9390   40.4110 C   0  0  0  0  0  0  0  0  0  0  0  0
   39.3940   27.9000   41.1430 N   0  0  0  0  0  0  0  0  0  0  0  0
   38.8530   28.1000   42.3520 C   0  0  0  0  0  0  0  0  0  0  0  0
   38.7740   29.3090   42.9120 N   0  0  0  0  0  0  0  0  0  0  0  0
   39.1960   31.3660   42.6900 H   0  0  0  0  0  0  0  0  0  0  0  0
   40.3510   28.8590   39.4310 H   0  0  0  0  0  0  0  0  0  0  0  0
   38.3540   26.8460   42.9980 C   0  0  0  0  0  2  0  0  0  0  0  0
   38.8520   25.6620   42.3600 N   0  0  0  0  0  4  0  0  0  0  0  0
   39.3280   25.8340   41.4500 H   0  0  0  0  0  0  0  0  0  0  0  0
   39.7780   24.9810   43.2780 C   0  0  0  0  0  2  0  0  0  0  0  0
   39.9220   25.5910   44.1810 H   0  0  0  0  0  0  0  0  0  0  0  0
   37.7360   24.7580   42.1460 C   0  0  0  0  0  2  0  0  0  0  0  0
   37.9630   23.9540   41.4110 H   0  0  0  0  0  0  0  0  0  0  0  0
   39.7430   33.1320   40.6780 C   0  0  0  0  0  0  0  0  0  0  0  0
   40.5620   33.7880   41.0770 H   0  0  0  0  0  0  0  0  0  0  0  0
   39.0040   32.8670   41.4490 H   0  0  0  0  0  0  0  0  0  0  0  0
   39.0620   33.7510   39.5530 N   0  0  0  0  0  0  0  0  0  0  0  0
   39.0540   34.7870   39.6880 H   0  0  0  0  0  0  0  0  0  0  0  0
   37.4520   33.2000   39.3610 S   0  0  0  0  0  0  0  0  0  0  0  0
   36.9200   32.6030   40.6180 O   0  0  0  0  0  0  0  0  0  0  0  0
   37.3580   32.0480   41.2940 H   0  0  0  0  0  0  0  0  0  0  0  0
   36.6290   34.4210   38.9750 O   0  0  0  0  0  0  0  0  0  0  0  0
   36.8380   35.0060   38.2040 H   0  0  0  0  0  0  0  0  0  0  0  0
   37.3570   32.1250   38.0890 O   0  0  0  0  0  0  0  0  0  0  0  0
   36.8870   30.8840   38.4860 C   0  0  0  0  0  0  0  0  0  0  0  0
   37.7660   30.3070   38.8610 H   0  0  0  0  0  0  0  0  0  0  0  0
   36.5160   30.3430   37.5910 H   0  0  0  0  0  0  0  0  0  0  0  0
   36.1470   30.9170   39.3050 H   0  0  0  0  0  0  0  0  0  0  0  0
  1 17  1  0  0  0  0
  1  3  1  0  0  0  0
  2  8  1  0  0  0  0
  2  7  1  0  0  0  0
  3  2  2  0  0  0  0
  4  3  1  0  0  0  0
  4  5  2  0  0  0  0
  5  6  1  0  0  0  0
  6  7  2  0  0  0  0
  6 10  1  0  0  0  0
  9  4  1  0  0  0  0
 11 10  1  0  0  0  0
 11 13  1  0  0  0  0
 12 11  1  0  0  0  0
 13 14  1  0  0  0  0
 15 11  1  0  0  0  0
 16 15  1  0  0  0  0
 17 18  1  0  0  0  0
 17 19  1  0  0  0  0
 20 21  1  0  0  0  0
 20 17  1  0  0  0  0
 22 20  1  0  0  0  0
 22 23  1  0  0  0  0
 23 24  1  0  0  0  0
 25 22  1  0  0  0  0
 26 25  1  0  0  0  0
 27 28  1  0  0  0  0
 27 22  1  0  0  0  0
 28 29  1  0  0  0  0
 28 31  1  0  0  0  0
 30 28  1  0  0  0  0
M  END
>  <minimizedAffinity>
-4.22157049

$$$$
