
 OpenBabel03242512463D

 36 37  0  0  1  0  0  0  0  0999 V2000
   38.1460   31.6380   39.1560 C   0  0  0  0  0  0  0  0  0  0  0  0
   37.3260   31.3600   38.0290 C   0  0  0  0  0  0  0  0  0  0  0  0
   36.7250   30.1050   37.9590 C   0  0  0  0  0  0  0  0  0  0  0  0
   36.9630   29.2200   38.9820 N   0  0  0  0  0  0  0  0  0  0  0  0
   37.7500   29.5370   40.0270 C   0  0  0  0  0  0  0  0  0  0  0  0
   38.3360   30.7360   40.1120 N   0  0  0  0  0  0  0  0  0  0  0  0
   37.9260   28.5200   41.0440 N   0  0  0  0  0  0  0  0  0  0  0  0
   39.1660   28.4910   41.7560 C   0  0  0  0  0  0  0  0  0  0  0  0
   38.9660   28.1160   43.1670 C   0  0  0  0  0  0  0  0  0  0  0  0
   37.5630   28.0360   43.6800 C   0  0  0  0  0  0  0  0  0  0  0  0
   36.5910   27.4250   42.7280 C   0  0  0  0  0  0  0  0  0  0  0  0
   36.8430   27.5890   41.2880 C   0  0  2  0  0  0  0  0  0  0  0  0
   37.1660   32.0880   37.2450 H   0  0  0  0  0  0  0  0  0  0  0  0
   36.0870   29.8210   37.1330 H   0  0  0  0  0  0  0  0  0  0  0  0
   39.6470   29.4950   41.7180 H   0  0  0  0  0  0  0  0  0  0  0  0
   39.8730   27.8040   41.2110 H   0  0  0  0  0  0  0  0  0  0  0  0
   39.5450   28.7560   43.8650 H   0  0  0  0  0  0  0  0  0  0  0  0
   39.3910   27.0780   43.2990 H   0  0  0  0  0  0  0  0  0  0  0  0
   37.5760   27.4890   44.6270 H   0  0  0  0  0  0  0  0  0  0  0  0
   37.2260   29.0740   43.9110 H   0  0  0  0  0  0  0  0  0  0  0  0
   35.5740   27.8110   43.0370 H   0  0  0  0  0  0  0  0  0  0  0  0
   36.5400   26.3440   42.9780 H   0  0  0  0  0  0  0  0  0  0  0  0
   35.9200   27.9520   40.7910 H   0  0  0  0  0  0  0  0  0  0  0  0
   38.7050   32.8740   39.1710 O   0  0  0  0  0  0  0  0  0  0  0  0
   39.4270   33.4120   40.2270 C   0  0  0  0  0  0  0  0  0  0  0  0
   40.6830   33.5440   40.2620 O   0  0  0  0  0  0  0  0  0  0  0  0
   38.8260   33.8920   41.4260 N   0  0  0  0  0  0  0  0  0  0  0  0
   38.6860   34.8020   41.9310 H   0  0  0  0  0  0  0  0  0  0  0  0
   38.3310   33.2930   42.1280 H   0  0  0  0  0  0  0  0  0  0  0  0
   37.2370   26.3070   40.5830 C   0  0  0  0  0  2  0  0  0  0  0  0
   37.3730   25.1830   41.4630 N   0  0  0  0  0  4  0  0  0  0  0  0
   37.1950   25.3590   42.4560 H   0  0  0  0  0  0  0  0  0  0  0  0
   36.5750   24.0420   41.0340 C   0  0  0  0  0  2  0  0  0  0  0  0
   35.4820   24.2080   41.1570 H   0  0  0  0  0  0  0  0  0  0  0  0
   38.7640   24.7380   41.3440 C   0  0  0  0  0  2  0  0  0  0  0  0
   39.4340   25.3450   41.9870 H   0  0  0  0  0  0  0  0  0  0  0  0
  1 24  1  0  0  0  0
  1  6  1  0  0  0  0
  2  1  2  0  0  0  0
  3  2  1  0  0  0  0
  3  4  2  0  0  0  0
  4  5  1  0  0  0  0
  5  6  2  0  0  0  0
  5  7  1  0  0  0  0
  7 12  1  0  0  0  0
  7  8  1  0  0  0  0
  8  9  1  0  0  0  0
  9 18  1  0  0  0  0
  9 10  1  0  0  0  0
  9 17  1  0  0  0  0
 10 20  1  0  0  0  0
 10 19  1  0  0  0  0
 11 22  1  0  0  0  0
 11 21  1  0  0  0  0
 11 10  1  0  0  0  0
 12 23  1  6  0  0  0
 12 11  1  0  0  0  0
 13  2  1  0  0  0  0
 14  3  1  0  0  0  0
 15  8  1  0  0  0  0
 16  8  1  0  0  0  0
 24 25  1  0  0  0  0
 25 26  2  0  0  0  0
 25 27  1  0  0  0  0
 27 28  1  0  0  0  0
 27 29  1  0  0  0  0
 30 12  1  0  0  0  0
 30 31  1  0  0  0  0
 31 32  1  0  0  0  0
 33 34  1  0  0  0  0
 33 31  1  0  0  0  0
 35 31  1  0  0  0  0
 35 36  1  0  0  0  0
M  END
>  <minimizedAffinity>
-5.13326645

$$$$

 OpenBabel03242512463D

 36 37  0  0  1  0  0  0  0  0999 V2000
   37.1660   26.7030   42.3190 C   0  0  0  0  0  0  0  0  0  0  0  0
   37.3030   27.4520   43.5190 C   0  0  0  0  0  0  0  0  0  0  0  0
   37.6390   28.8000   43.4060 C   0  0  0  0  0  0  0  0  0  0  0  0
   37.8150   29.3150   42.1450 N   0  0  0  0  0  0  0  0  0  0  0  0
   37.6730   28.5580   41.0410 C   0  0  0  0  0  0  0  0  0  0  0  0
   37.3510   27.2630   41.1290 N   0  0  0  0  0  0  0  0  0  0  0  0
   37.8840   29.2140   39.7670 N   0  0  0  0  0  0  0  0  0  0  0  0
   38.4010   28.4320   38.6870 C   0  0  0  0  0  0  0  0  0  0  0  0
   37.8090   28.8370   37.4000 C   0  0  0  0  0  0  0  0  0  0  0  0
   36.6630   29.7970   37.4260 C   0  0  0  0  0  0  0  0  0  0  0  0
   36.8020   30.8990   38.4220 C   0  0  0  0  0  0  0  0  0  0  0  0
   37.5620   30.6220   39.6510 C   0  0  2  0  0  0  0  0  0  0  0  0
   37.1550   27.0050   44.4920 H   0  0  0  0  0  0  0  0  0  0  0  0
   37.7600   29.4340   44.2740 H   0  0  0  0  0  0  0  0  0  0  0  0
   38.1760   27.3540   38.8600 H   0  0  0  0  0  0  0  0  0  0  0  0
   39.5250   28.5060   38.7010 H   0  0  0  0  0  0  0  0  0  0  0  0
   37.5080   27.9680   36.7770 H   0  0  0  0  0  0  0  0  0  0  0  0
   38.6200   29.3560   36.8090 H   0  0  0  0  0  0  0  0  0  0  0  0
   36.5310   30.2010   36.4170 H   0  0  0  0  0  0  0  0  0  0  0  0
   35.7390   29.2190   37.6650 H   0  0  0  0  0  0  0  0  0  0  0  0
   35.7510   31.2570   38.6340 H   0  0  0  0  0  0  0  0  0  0  0  0
   37.2600   31.7560   37.8840 H   0  0  0  0  0  0  0  0  0  0  0  0
   36.9690   30.9430   40.5320 H   0  0  0  0  0  0  0  0  0  0  0  0
   36.8390   25.3970   42.4900 O   0  0  0  0  0  0  0  0  0  0  0  0
   37.6060   24.3190   42.0710 C   0  0  0  0  0  0  0  0  0  0  0  0
   37.3280   23.5550   41.1040 O   0  0  0  0  0  0  0  0  0  0  0  0
   38.8270   23.9340   42.6960 N   0  0  0  0  0  0  0  0  0  0  0  0
   39.8520   23.8950   42.4710 H   0  0  0  0  0  0  0  0  0  0  0  0
   38.9080   23.5570   43.6690 H   0  0  0  0  0  0  0  0  0  0  0  0
   38.8870   31.3540   39.7320 C   0  0  0  0  0  2  0  0  0  0  0  0
   39.1400   31.9480   41.0120 N   0  0  0  0  0  4  0  0  0  0  0  0
   38.5340   31.6460   41.7810 H   0  0  0  0  0  0  0  0  0  0  0  0
   40.5310   31.8130   41.4230 C   0  0  0  0  0  2  0  0  0  0  0  0
   40.8060   30.7660   41.6780 H   0  0  0  0  0  0  0  0  0  0  0  0
   38.9340   33.3880   40.8400 C   0  0  0  0  0  2  0  0  0  0  0  0
   37.8590   33.6500   40.9110 H   0  0  0  0  0  0  0  0  0  0  0  0
  1 24  1  0  0  0  0
  1  2  1  0  0  0  0
  2 13  1  0  0  0  0
  3  2  2  0  0  0  0
  3 14  1  0  0  0  0
  4  3  1  0  0  0  0
  5  6  1  0  0  0  0
  5  4  2  0  0  0  0
  6  1  2  0  0  0  0
  7  5  1  0  0  0  0
  8 16  1  0  0  0  0
  8 15  1  0  0  0  0
  8  7  1  0  0  0  0
  9 10  1  0  0  0  0
  9  8  1  0  0  0  0
 10 20  1  0  0  0  0
 10 11  1  0  0  0  0
 11 21  1  0  0  0  0
 11 12  1  0  0  0  0
 12 30  1  0  0  0  0
 12  7  1  0  0  0  0
 12 23  1  1  0  0  0
 17  9  1  0  0  0  0
 18  9  1  0  0  0  0
 19 10  1  0  0  0  0
 22 11  1  0  0  0  0
 25 24  1  0  0  0  0
 25 27  1  0  0  0  0
 26 25  2  0  0  0  0
 27 29  1  0  0  0  0
 28 27  1  0  0  0  0
 30 31  1  0  0  0  0
 31 33  1  0  0  0  0
 31 32  1  0  0  0  0
 33 34  1  0  0  0  0
 35 36  1  0  0  0  0
 35 31  1  0  0  0  0
M  END
>  <minimizedAffinity>
-4.91369295

$$$$

 OpenBabel03242512463D

 36 37  0  0  1  0  0  0  0  0999 V2000
   37.8590   30.6260   38.4980 C   0  0  0  0  0  0  0  0  0  0  0  0
   37.1460   30.0020   37.4390 C   0  0  0  0  0  0  0  0  0  0  0  0
   36.7260   28.6860   37.6290 C   0  0  0  0  0  0  0  0  0  0  0  0
   37.0290   28.0800   38.8230 N   0  0  0  0  0  0  0  0  0  0  0  0
   37.7090   28.7210   39.7930 C   0  0  0  0  0  0  0  0  0  0  0  0
   38.1200   29.9830   39.6310 N   0  0  0  0  0  0  0  0  0  0  0  0
   37.9680   27.9770   41.0090 N   0  0  0  0  0  0  0  0  0  0  0  0
   39.1610   28.2790   41.7380 C   0  0  0  0  0  0  0  0  0  0  0  0
   38.9390   28.1840   43.1920 C   0  0  0  0  0  0  0  0  0  0  0  0
   37.5360   28.0120   43.6780 C   0  0  0  0  0  0  0  0  0  0  0  0
   36.7070   27.0800   42.8590 C   0  0  0  0  0  0  0  0  0  0  0  0
   37.0110   26.9720   41.4240 C   0  0  2  0  0  0  0  0  0  0  0  0
   36.9300   30.5170   36.5140 H   0  0  0  0  0  0  0  0  0  0  0  0
   36.1780   28.1450   36.8690 H   0  0  0  0  0  0  0  0  0  0  0  0
   39.5010   29.3120   41.4950 H   0  0  0  0  0  0  0  0  0  0  0  0
   39.9830   27.6020   41.3710 H   0  0  0  0  0  0  0  0  0  0  0  0
   39.3880   29.0340   43.7480 H   0  0  0  0  0  0  0  0  0  0  0  0
   39.4950   27.2700   43.5540 H   0  0  0  0  0  0  0  0  0  0  0  0
   37.5720   27.6840   44.7220 H   0  0  0  0  0  0  0  0  0  0  0  0
   37.0480   29.0150   43.6730 H   0  0  0  0  0  0  0  0  0  0  0  0
   35.6330   27.3700   43.0540 H   0  0  0  0  0  0  0  0  0  0  0  0
   36.7920   26.0800   43.3360 H   0  0  0  0  0  0  0  0  0  0  0  0
   36.0750   27.0840   40.8390 H   0  0  0  0  0  0  0  0  0  0  0  0
   38.2420   31.9050   38.2580 O   0  0  0  0  0  0  0  0  0  0  0  0
   39.5530   32.3310   38.0990 C   0  0  0  0  0  0  0  0  0  0  0  0
   40.2860   32.8020   39.0160 O   0  0  0  0  0  0  0  0  0  0  0  0
   40.2470   32.2900   36.8560 N   0  0  0  0  0  0  0  0  0  0  0  0
   41.0610   31.7880   36.4220 H   0  0  0  0  0  0  0  0  0  0  0  0
   40.0060   32.8660   36.0160 H   0  0  0  0  0  0  0  0  0  0  0  0
   37.6140   25.6410   41.0210 C   0  0  0  0  0  2  0  0  0  0  0  0
   36.9860   25.0450   39.8780 N   0  0  0  0  0  4  0  0  0  0  0  0
   36.3080   25.6270   39.3780 H   0  0  0  0  0  0  0  0  0  0  0  0
   37.9530   24.5180   38.9250 C   0  0  0  0  0  2  0  0  0  0  0  0
   38.5190   25.3170   38.3960 H   0  0  0  0  0  0  0  0  0  0  0  0
   36.2660   23.8710   40.3750 C   0  0  0  0  0  2  0  0  0  0  0  0
   35.2780   24.1540   40.7920 H   0  0  0  0  0  0  0  0  0  0  0  0
  1  6  1  0  0  0  0
  2  3  1  0  0  0  0
  2  1  2  0  0  0  0
  3  4  2  0  0  0  0
  4  5  1  0  0  0  0
  5  7  1  0  0  0  0
  6  5  2  0  0  0  0
  7 12  1  0  0  0  0
  7  8  1  0  0  0  0
  8  9  1  0  0  0  0
  9 18  1  0  0  0  0
  9 10  1  0  0  0  0
  9 17  1  0  0  0  0
 10 19  1  0  0  0  0
 11 21  1  0  0  0  0
 11 22  1  0  0  0  0
 11 10  1  0  0  0  0
 12 23  1  6  0  0  0
 12 11  1  0  0  0  0
 13  2  1  0  0  0  0
 14  3  1  0  0  0  0
 15  8  1  0  0  0  0
 16  8  1  0  0  0  0
 20 10  1  0  0  0  0
 24  1  1  0  0  0  0
 25 24  1  0  0  0  0
 25 26  2  0  0  0  0
 27 25  1  0  0  0  0
 28 27  1  0  0  0  0
 29 27  1  0  0  0  0
 30 12  1  0  0  0  0
 31 35  1  0  0  0  0
 31 30  1  0  0  0  0
 32 31  1  0  0  0  0
 33 31  1  0  0  0  0
 34 33  1  0  0  0  0
 35 36  1  0  0  0  0
M  END
>  <minimizedAffinity>
-4.77551365

$$$$

 OpenBabel03242512463D

 36 37  0  0  1  0  0  0  0  0999 V2000
   37.7840   30.2960   38.6460 C   0  0  0  0  0  0  0  0  0  0  0  0
   38.1910   29.5700   37.4940 C   0  0  0  0  0  0  0  0  0  0  0  0
   38.6070   28.2520   37.6730 C   0  0  0  0  0  0  0  0  0  0  0  0
   38.5980   27.7420   38.9470 N   0  0  0  0  0  0  0  0  0  0  0  0
   38.2010   28.4760   40.0040 C   0  0  0  0  0  0  0  0  0  0  0  0
   37.7980   29.7420   39.8530 N   0  0  0  0  0  0  0  0  0  0  0  0
   38.2350   27.8280   41.2990 N   0  0  0  0  0  0  0  0  0  0  0  0
   38.4870   28.6390   42.4490 C   0  0  0  0  0  0  0  0  0  0  0  0
   37.7100   28.1770   43.6130 C   0  0  0  0  0  0  0  0  0  0  0  0
   36.6680   27.1290   43.3890 C   0  0  0  0  0  0  0  0  0  0  0  0
   37.0690   26.0510   42.4400 C   0  0  0  0  0  0  0  0  0  0  0  0
   38.0110   26.3980   41.3640 C   0  0  2  0  0  0  0  0  0  0  0  0
   38.1830   30.0120   36.5070 H   0  0  0  0  0  0  0  0  0  0  0  0
   38.9310   27.6370   36.8440 H   0  0  0  0  0  0  0  0  0  0  0  0
   38.2110   29.6970   42.2330 H   0  0  0  0  0  0  0  0  0  0  0  0
   39.5980   28.6550   42.6360 H   0  0  0  0  0  0  0  0  0  0  0  0
   37.2350   29.0140   44.1680 H   0  0  0  0  0  0  0  0  0  0  0  0
   38.4420   27.7200   44.3410 H   0  0  0  0  0  0  0  0  0  0  0  0
   36.3920   26.7080   44.3610 H   0  0  0  0  0  0  0  0  0  0  0  0
   35.7580   27.6330   42.9860 H   0  0  0  0  0  0  0  0  0  0  0  0
   36.1050   25.6120   42.0470 H   0  0  0  0  0  0  0  0  0  0  0  0
   37.4910   25.2280   43.0560 H   0  0  0  0  0  0  0  0  0  0  0  0
   37.6110   26.0380   40.3940 H   0  0  0  0  0  0  0  0  0  0  0  0
   37.3880   31.5720   38.4120 O   0  0  0  0  0  0  0  0  0  0  0  0
   37.1550   32.5290   39.3900 C   0  0  0  0  0  0  0  0  0  0  0  0
   37.4160   33.7610   39.2850 O   0  0  0  0  0  0  0  0  0  0  0  0
   36.5820   32.2310   40.6600 N   0  0  0  0  0  0  0  0  0  0  0  0
   35.7020   32.4320   41.1960 H   0  0  0  0  0  0  0  0  0  0  0  0
   37.0390   31.6500   41.4010 H   0  0  0  0  0  0  0  0  0  0  0  0
   39.3830   25.7740   41.5240 C   0  0  0  0  0  2  0  0  0  0  0  0
   40.0160   25.4460   40.2800 N   0  0  0  0  0  4  0  0  0  0  0  0
   39.8460   26.0880   39.5000 H   0  0  0  0  0  0  0  0  0  0  0  0
   41.4510   25.2430   40.4230 C   0  0  0  0  0  2  0  0  0  0  0  0
   42.0020   26.1860   40.6360 H   0  0  0  0  0  0  0  0  0  0  0  0
   39.4860   24.1380   39.8870 C   0  0  0  0  0  2  0  0  0  0  0  0
   38.5040   24.2400   39.3810 H   0  0  0  0  0  0  0  0  0  0  0  0
  1  6  1  0  0  0  0
  2  3  1  0  0  0  0
  2  1  2  0  0  0  0
  3  4  2  0  0  0  0
  4  5  1  0  0  0  0
  5  7  1  0  0  0  0
  6  5  2  0  0  0  0
  7 12  1  0  0  0  0
  7  8  1  0  0  0  0
  8 16  1  0  0  0  0
  8  9  1  0  0  0  0
  9 17  1  0  0  0  0
  9 18  1  0  0  0  0
 10  9  1  0  0  0  0
 10 19  1  0  0  0  0
 11 22  1  0  0  0  0
 11 10  1  0  0  0  0
 12 23  1  6  0  0  0
 12 30  1  0  0  0  0
 12 11  1  0  0  0  0
 13  2  1  0  0  0  0
 14  3  1  0  0  0  0
 15  8  1  0  0  0  0
 20 10  1  0  0  0  0
 21 11  1  0  0  0  0
 24  1  1  0  0  0  0
 24 25  1  0  0  0  0
 25 27  1  0  0  0  0
 26 25  2  0  0  0  0
 27 28  1  0  0  0  0
 27 29  1  0  0  0  0
 31 33  1  0  0  0  0
 31 30  1  0  0  0  0
 32 31  1  0  0  0  0
 33 34  1  0  0  0  0
 35 31  1  0  0  0  0
 36 35  1  0  0  0  0
M  END
>  <minimizedAffinity>
-4.66918898

$$$$

 OpenBabel03242512463D

 36 37  0  0  1  0  0  0  0  0999 V2000
   38.7960   30.8060   39.1140 C   0  0  0  0  0  0  0  0  0  0  0  0
   39.8760   30.3890   38.2900 C   0  0  0  0  0  0  0  0  0  0  0  0
   40.6160   29.2830   38.7030 C   0  0  0  0  0  0  0  0  0  0  0  0
   40.2550   28.6680   39.8760 N   0  0  0  0  0  0  0  0  0  0  0  0
   39.2210   29.1070   40.6190 C   0  0  0  0  0  0  0  0  0  0  0  0
   38.4980   30.1660   40.2400 N   0  0  0  0  0  0  0  0  0  0  0  0
   38.9360   28.3760   41.8370 N   0  0  0  0  0  0  0  0  0  0  0  0
   38.3780   29.0990   42.9380 C   0  0  0  0  0  0  0  0  0  0  0  0
   37.4040   28.2790   43.6800 C   0  0  0  0  0  0  0  0  0  0  0  0
   36.9980   26.9660   43.0890 C   0  0  0  0  0  0  0  0  0  0  0  0
   38.1130   26.1980   42.4640 C   0  0  0  0  0  0  0  0  0  0  0  0
   39.2280   26.9580   41.8790 C   0  0  2  0  0  0  0  0  0  0  0  0
   40.1260   30.9040   37.3720 H   0  0  0  0  0  0  0  0  0  0  0  0
   41.4520   28.9070   38.1280 H   0  0  0  0  0  0  0  0  0  0  0  0
   37.8630   30.0150   42.5660 H   0  0  0  0  0  0  0  0  0  0  0  0
   39.2230   29.4740   43.5810 H   0  0  0  0  0  0  0  0  0  0  0  0
   36.4790   28.8380   43.9300 H   0  0  0  0  0  0  0  0  0  0  0  0
   37.8730   28.0250   44.6760 H   0  0  0  0  0  0  0  0  0  0  0  0
   36.5090   26.3760   43.8710 H   0  0  0  0  0  0  0  0  0  0  0  0
   36.2270   27.1680   42.3090 H   0  0  0  0  0  0  0  0  0  0  0  0
   37.6270   25.4990   41.7210 H   0  0  0  0  0  0  0  0  0  0  0  0
   38.4990   25.5090   43.2460 H   0  0  0  0  0  0  0  0  0  0  0  0
   39.4280   26.5870   40.8520 H   0  0  0  0  0  0  0  0  0  0  0  0
   38.1110   31.8870   38.6640 O   0  0  0  0  0  0  0  0  0  0  0  0
   37.3390   32.7290   39.4510 C   0  0  0  0  0  0  0  0  0  0  0  0
   37.2140   33.9760   39.2850 O   0  0  0  0  0  0  0  0  0  0  0  0
   36.5750   32.2800   40.5670 N   0  0  0  0  0  0  0  0  0  0  0  0
   35.5680   32.1880   40.8500 H   0  0  0  0  0  0  0  0  0  0  0  0
   36.9800   31.8970   41.4530 H   0  0  0  0  0  0  0  0  0  0  0  0
   40.5290   26.8290   42.6450 C   0  0  0  0  0  2  0  0  0  0  0  0
   41.6830   26.6960   41.8040 N   0  0  0  0  0  4  0  0  0  0  0  0
   41.5310   26.8250   40.8000 H   0  0  0  0  0  0  0  0  0  0  0  0
   42.7840   27.5490   42.2310 C   0  0  0  0  0  2  0  0  0  0  0  0
   42.5850   28.6290   42.0570 H   0  0  0  0  0  0  0  0  0  0  0  0
   42.1690   25.3270   41.9950 C   0  0  0  0  0  2  0  0  0  0  0  0
   41.6050   24.6100   41.3640 H   0  0  0  0  0  0  0  0  0  0  0  0
  1  6  1  0  0  0  0
  2  3  1  0  0  0  0
  2  1  2  0  0  0  0
  3  4  2  0  0  0  0
  4  5  1  0  0  0  0
  5  7  1  0  0  0  0
  6  5  2  0  0  0  0
  7 12  1  0  0  0  0
  7  8  1  0  0  0  0
  8 16  1  0  0  0  0
  8  9  1  0  0  0  0
  9 17  1  0  0  0  0
  9 18  1  0  0  0  0
 10  9  1  0  0  0  0
 10 19  1  0  0  0  0
 11 10  1  0  0  0  0
 11 22  1  0  0  0  0
 12 23  1  6  0  0  0
 12 11  1  0  0  0  0
 12 30  1  0  0  0  0
 13  2  1  0  0  0  0
 14  3  1  0  0  0  0
 15  8  1  0  0  0  0
 20 10  1  0  0  0  0
 21 11  1  0  0  0  0
 24  1  1  0  0  0  0
 24 25  1  0  0  0  0
 25 27  1  0  0  0  0
 26 25  2  0  0  0  0
 27 28  1  0  0  0  0
 27 29  1  0  0  0  0
 31 35  1  0  0  0  0
 31 33  1  0  0  0  0
 31 30  1  0  0  0  0
 32 31  1  0  0  0  0
 34 33  1  0  0  0  0
 36 35  1  0  0  0  0
M  END
>  <minimizedAffinity>
-4.54933834

$$$$

 OpenBabel03242512463D

 36 37  0  0  1  0  0  0  0  0999 V2000
   41.4430   29.8140   37.2860 C   0  0  0  0  0  0  0  0  0  0  0  0
   41.2250   28.4140   37.3940 C   0  0  0  0  0  0  0  0  0  0  0  0
   40.3210   27.9720   38.3580 C   0  0  0  0  0  0  0  0  0  0  0  0
   39.6990   28.9160   39.1380 N   0  0  0  0  0  0  0  0  0  0  0  0
   39.9440   30.2310   38.9920 C   0  0  0  0  0  0  0  0  0  0  0  0
   40.8080   30.6760   38.0730 N   0  0  0  0  0  0  0  0  0  0  0  0
   39.2270   31.1300   39.8730 N   0  0  0  0  0  0  0  0  0  0  0  0
   39.8660   32.3540   40.2470 C   0  0  0  0  0  0  0  0  0  0  0  0
   38.8950   33.4570   40.3520 C   0  0  0  0  0  0  0  0  0  0  0  0
   37.5000   33.2120   39.8720 C   0  0  0  0  0  0  0  0  0  0  0  0
   36.9560   31.8660   40.2150 C   0  0  0  0  0  0  0  0  0  0  0  0
   37.9060   30.7490   40.3280 C   0  0  2  0  0  0  0  0  0  0  0  0
   41.7380   27.7050   36.7580 H   0  0  0  0  0  0  0  0  0  0  0  0
   40.1030   26.9210   38.5000 H   0  0  0  0  0  0  0  0  0  0  0  0
   40.6350   32.6260   39.4870 H   0  0  0  0  0  0  0  0  0  0  0  0
   40.4420   32.1780   41.1990 H   0  0  0  0  0  0  0  0  0  0  0  0
   39.2580   34.3920   39.8750 H   0  0  0  0  0  0  0  0  0  0  0  0
   38.7930   33.7070   41.4490 H   0  0  0  0  0  0  0  0  0  0  0  0
   36.8570   34.0040   40.2690 H   0  0  0  0  0  0  0  0  0  0  0  0
   37.4980   33.3200   38.7620 H   0  0  0  0  0  0  0  0  0  0  0  0
   36.1360   31.6640   39.4640 H   0  0  0  0  0  0  0  0  0  0  0  0
   36.4020   31.9840   41.1710 H   0  0  0  0  0  0  0  0  0  0  0  0
   37.5390   29.8900   39.7280 H   0  0  0  0  0  0  0  0  0  0  0  0
   42.3320   30.1860   36.3320 O   0  0  0  0  0  0  0  0  0  0  0  0
   43.3100   31.1580   36.4860 C   0  0  0  0  0  0  0  0  0  0  0  0
   44.5500   30.9840   36.3110 O   0  0  0  0  0  0  0  0  0  0  0  0
   43.0300   32.5010   36.8700 N   0  0  0  0  0  0  0  0  0  0  0  0
   43.0780   33.4670   36.4600 H   0  0  0  0  0  0  0  0  0  0  0  0
   42.6580   32.7910   37.8050 H   0  0  0  0  0  0  0  0  0  0  0  0
   38.0910   30.2390   41.7430 C   0  0  0  0  0  2  0  0  0  0  0  0
   36.9950   29.4470   42.2190 N   0  0  0  0  0  4  0  0  0  0  0  0
   36.1540   29.9580   42.5030 H   0  0  0  0  0  0  0  0  0  0  0  0
   36.6180   28.3990   41.2800 C   0  0  0  0  0  2  0  0  0  0  0  0
   36.1370   28.7970   40.3590 H   0  0  0  0  0  0  0  0  0  0  0  0
   37.4890   28.7360   43.4010 C   0  0  0  0  0  2  0  0  0  0  0  0
   37.4390   29.3780   44.3040 H   0  0  0  0  0  0  0  0  0  0  0  0
  1  2  2  0  0  0  0
  1  6  1  0  0  0  0
  2  3  1  0  0  0  0
  3 14  1  0  0  0  0
  3  4  2  0  0  0  0
  5  4  1  0  0  0  0
  5  7  1  0  0  0  0
  6  5  2  0  0  0  0
  7  8  1  0  0  0  0
  7 12  1  0  0  0  0
  8  9  1  0  0  0  0
  8 16  1  0  0  0  0
  9 18  1  0  0  0  0
 10 11  1  0  0  0  0
 10 19  1  0  0  0  0
 10  9  1  0  0  0  0
 11 12  1  0  0  0  0
 11 22  1  0  0  0  0
 12 23  1  6  0  0  0
 12 30  1  0  0  0  0
 13  2  1  0  0  0  0
 15  8  1  0  0  0  0
 17  9  1  0  0  0  0
 20 10  1  0  0  0  0
 21 11  1  0  0  0  0
 24 25  1  0  0  0  0
 24  1  1  0  0  0  0
 25 27  1  0  0  0  0
 26 25  2  0  0  0  0
 27 29  1  0  0  0  0
 28 27  1  0  0  0  0
 30 31  1  0  0  0  0
 31 32  1  0  0  0  0
 31 35  1  0  0  0  0
 33 31  1  0  0  0  0
 34 33  1  0  0  0  0
 35 36  1  0  0  0  0
M  END
>  <minimizedAffinity>
-4.51721668

$$$$

 OpenBabel03242512463D

 36 37  0  0  1  0  0  0  0  0999 V2000
   36.6080   25.0330   39.7440 C   0  0  0  0  0  0  0  0  0  0  0  0
   36.3520   25.3620   38.3860 C   0  0  0  0  0  0  0  0  0  0  0  0
   36.3650   26.7110   38.0330 C   0  0  0  0  0  0  0  0  0  0  0  0
   36.6240   27.6310   39.0180 N   0  0  0  0  0  0  0  0  0  0  0  0
   36.8600   27.2620   40.2910 C   0  0  0  0  0  0  0  0  0  0  0  0
   36.8520   25.9730   40.6500 N   0  0  0  0  0  0  0  0  0  0  0  0
   37.1220   28.3240   41.2410 N   0  0  0  0  0  0  0  0  0  0  0  0
   36.7250   28.1210   42.6000 C   0  0  0  0  0  0  0  0  0  0  0  0
   37.6910   28.7220   43.5370 C   0  0  0  0  0  0  0  0  0  0  0  0
   38.9800   29.2370   42.9810 C   0  0  0  0  0  0  0  0  0  0  0  0
   38.8510   29.9480   41.6760 C   0  0  0  0  0  0  0  0  0  0  0  0
   37.7690   29.5310   40.7710 C   0  0  2  0  0  0  0  0  0  0  0  0
   36.1510   24.6040   37.6420 H   0  0  0  0  0  0  0  0  0  0  0  0
   36.1790   27.0380   37.0190 H   0  0  0  0  0  0  0  0  0  0  0  0
   36.6530   27.0290   42.8130 H   0  0  0  0  0  0  0  0  0  0  0  0
   35.6780   28.5170   42.7280 H   0  0  0  0  0  0  0  0  0  0  0  0
   37.9330   28.0520   44.3880 H   0  0  0  0  0  0  0  0  0  0  0  0
   37.1880   29.6190   44.0030 H   0  0  0  0  0  0  0  0  0  0  0  0
   39.4430   29.8840   43.7320 H   0  0  0  0  0  0  0  0  0  0  0  0
   39.6630   28.3660   42.8410 H   0  0  0  0  0  0  0  0  0  0  0  0
   39.8700   29.8900   41.1910 H   0  0  0  0  0  0  0  0  0  0  0  0
   38.7430   31.0280   41.9150 H   0  0  0  0  0  0  0  0  0  0  0  0
   38.1840   29.3610   39.7560 H   0  0  0  0  0  0  0  0  0  0  0  0
   36.5820   23.7070   40.0300 O   0  0  0  0  0  0  0  0  0  0  0  0
   37.6030   23.0040   40.6530 C   0  0  0  0  0  0  0  0  0  0  0  0
   38.0310   21.8680   40.2990 O   0  0  0  0  0  0  0  0  0  0  0  0
   38.3090   23.4870   41.7920 N   0  0  0  0  0  0  0  0  0  0  0  0
   39.2770   23.8050   42.0460 H   0  0  0  0  0  0  0  0  0  0  0  0
   37.8890   23.6280   42.7410 H   0  0  0  0  0  0  0  0  0  0  0  0
   36.6640   30.5570   40.6190 C   0  0  0  0  0  2  0  0  0  0  0  0
   36.7800   31.3590   39.4360 N   0  0  0  0  0  4  0  0  0  0  0  0
   35.9520   31.4060   38.8350 H   0  0  0  0  0  0  0  0  0  0  0  0
   37.2320   32.7130   39.7250 C   0  0  0  0  0  2  0  0  0  0  0  0
   36.4660   33.3210   40.2540 H   0  0  0  0  0  0  0  0  0  0  0  0
   37.8570   30.7610   38.6430 C   0  0  0  0  0  2  0  0  0  0  0  0
   37.4850   29.9040   38.0460 H   0  0  0  0  0  0  0  0  0  0  0  0
  1 24  1  0  0  0  0
  1  6  1  0  0  0  0
  2  1  2  0  0  0  0
  3  2  1  0  0  0  0
  3  4  2  0  0  0  0
  4  5  1  0  0  0  0
  5  6  2  0  0  0  0
  5  7  1  0  0  0  0
  7  8  1  0  0  0  0
  8 16  1  0  0  0  0
  8 15  1  0  0  0  0
  8  9  1  0  0  0  0
  9 18  1  0  0  0  0
  9 17  1  0  0  0  0
 10  9  1  0  0  0  0
 10 19  1  0  0  0  0
 11 22  1  0  0  0  0
 11 10  1  0  0  0  0
 12 23  1  6  0  0  0
 12  7  1  0  0  0  0
 12 11  1  0  0  0  0
 13  2  1  0  0  0  0
 14  3  1  0  0  0  0
 20 10  1  0  0  0  0
 21 11  1  0  0  0  0
 24 25  1  0  0  0  0
 25 27  1  0  0  0  0
 26 25  2  0  0  0  0
 27 28  1  0  0  0  0
 27 29  1  0  0  0  0
 30 12  1  0  0  0  0
 31 33  1  0  0  0  0
 31 30  1  0  0  0  0
 32 31  1  0  0  0  0
 33 34  1  0  0  0  0
 35 31  1  0  0  0  0
 36 35  1  0  0  0  0
M  END
>  <minimizedAffinity>
-4.50254822

$$$$

 OpenBabel03242512463D

 36 37  0  0  1  0  0  0  0  0999 V2000
   35.6490   29.4280   37.2960 C   0  0  0  0  0  0  0  0  0  0  0  0
   34.7780   28.7810   38.2140 C   0  0  0  0  0  0  0  0  0  0  0  0
   35.1090   28.8320   39.5670 C   0  0  0  0  0  0  0  0  0  0  0  0
   36.2530   29.5020   39.9240 N   0  0  0  0  0  0  0  0  0  0  0  0
   37.0420   30.0980   39.0110 C   0  0  0  0  0  0  0  0  0  0  0  0
   36.7420   30.0600   37.7080 N   0  0  0  0  0  0  0  0  0  0  0  0
   38.2220   30.7740   39.5100 N   0  0  0  0  0  0  0  0  0  0  0  0
   39.3750   30.8230   38.6650 C   0  0  0  0  0  0  0  0  0  0  0  0
   40.0900   32.1040   38.8060 C   0  0  0  0  0  0  0  0  0  0  0  0
   39.4340   33.1910   39.5970 C   0  0  0  0  0  0  0  0  0  0  0  0
   38.7400   32.7240   40.8320 C   0  0  0  0  0  0  0  0  0  0  0  0
   38.1750   31.3650   40.8320 C   0  0  2  0  0  0  0  0  0  0  0  0
   33.8860   28.2630   37.8880 H   0  0  0  0  0  0  0  0  0  0  0  0
   34.4940   28.3630   40.3240 H   0  0  0  0  0  0  0  0  0  0  0  0
   39.0680   30.7010   37.6010 H   0  0  0  0  0  0  0  0  0  0  0  0
   40.0200   29.9280   38.8920 H   0  0  0  0  0  0  0  0  0  0  0  0
   40.3930   32.5330   37.8280 H   0  0  0  0  0  0  0  0  0  0  0  0
   41.0590   31.8870   39.3450 H   0  0  0  0  0  0  0  0  0  0  0  0
   40.1900   33.9440   39.8370 H   0  0  0  0  0  0  0  0  0  0  0  0
   38.6830   33.6860   38.9370 H   0  0  0  0  0  0  0  0  0  0  0  0
   37.9690   33.5150   41.0700 H   0  0  0  0  0  0  0  0  0  0  0  0
   39.4720   32.8240   41.6630 H   0  0  0  0  0  0  0  0  0  0  0  0
   37.1250   31.4030   41.1860 H   0  0  0  0  0  0  0  0  0  0  0  0
   35.2770   29.3460   35.9940 O   0  0  0  0  0  0  0  0  0  0  0  0
   36.1090   29.5850   34.9090 C   0  0  0  0  0  0  0  0  0  0  0  0
   35.9160   30.4600   34.0180 O   0  0  0  0  0  0  0  0  0  0  0  0
   37.3070   28.8550   34.6620 N   0  0  0  0  0  0  0  0  0  0  0  0
   38.3430   29.0210   34.6430 H   0  0  0  0  0  0  0  0  0  0  0  0
   37.3480   27.8390   34.4130 H   0  0  0  0  0  0  0  0  0  0  0  0
   38.9040   30.3960   41.7410 C   0  0  0  0  0  2  0  0  0  0  0  0
   38.2380   29.1350   41.8900 N   0  0  0  0  0  4  0  0  0  0  0  0
   37.3670   29.0150   41.3640 H   0  0  0  0  0  0  0  0  0  0  0  0
   39.1180   28.0060   41.6150 C   0  0  0  0  0  2  0  0  0  0  0  0
   39.3830   27.9180   40.5380 H   0  0  0  0  0  0  0  0  0  0  0  0
   37.9040   29.0170   43.3120 C   0  0  0  0  0  2  0  0  0  0  0  0
   36.9670   29.5590   43.5490 H   0  0  0  0  0  0  0  0  0  0  0  0
  1  6  2  0  0  0  0
  1  2  1  0  0  0  0
  2  3  2  0  0  0  0
  3  4  1  0  0  0  0
  3 14  1  0  0  0  0
  5  7  1  0  0  0  0
  5  4  2  0  0  0  0
  6  5  1  0  0  0  0
  7 12  1  0  0  0  0
  8  9  1  0  0  0  0
  8 16  1  0  0  0  0
  8  7  1  0  0  0  0
  9 18  1  0  0  0  0
  9 10  1  0  0  0  0
 10 19  1  0  0  0  0
 10 11  1  0  0  0  0
 11 21  1  0  0  0  0
 11 22  1  0  0  0  0
 12 11  1  0  0  0  0
 12 23  1  1  0  0  0
 12 30  1  0  0  0  0
 13  2  1  0  0  0  0
 15  8  1  0  0  0  0
 17  9  1  0  0  0  0
 20 10  1  0  0  0  0
 24  1  1  0  0  0  0
 25 24  1  0  0  0  0
 26 25  2  0  0  0  0
 27 25  1  0  0  0  0
 28 27  1  0  0  0  0
 29 27  1  0  0  0  0
 30 31  1  0  0  0  0
 31 35  1  0  0  0  0
 32 31  1  0  0  0  0
 33 31  1  0  0  0  0
 34 33  1  0  0  0  0
 35 36  1  0  0  0  0
M  END
>  <minimizedAffinity>
-4.48820019

$$$$

 OpenBabel03242512463D

 36 37  0  0  1  0  0  0  0  0999 V2000
   36.4240   29.2130   35.0010 C   0  0  0  0  0  0  0  0  0  0  0  0
   35.6870   28.0220   35.2440 C   0  0  0  0  0  0  0  0  0  0  0  0
   35.5540   27.6020   36.5660 C   0  0  0  0  0  0  0  0  0  0  0  0
   36.1410   28.3640   37.5460 N   0  0  0  0  0  0  0  0  0  0  0  0
   36.8280   29.4850   37.2580 C   0  0  0  0  0  0  0  0  0  0  0  0
   36.9680   29.9050   35.9960 N   0  0  0  0  0  0  0  0  0  0  0  0
   37.4020   30.2040   38.3770 N   0  0  0  0  0  0  0  0  0  0  0  0
   38.6140   30.9310   38.1570 C   0  0  0  0  0  0  0  0  0  0  0  0
   38.6370   32.1840   38.9300 C   0  0  0  0  0  0  0  0  0  0  0  0
   37.3800   32.6040   39.6230 C   0  0  0  0  0  0  0  0  0  0  0  0
   36.6250   31.4890   40.2650 C   0  0  0  0  0  0  0  0  0  0  0  0
   36.7230   30.1530   39.6550 C   0  0  2  0  0  0  0  0  0  0  0  0
   35.2410   27.4530   34.4400 H   0  0  0  0  0  0  0  0  0  0  0  0
   35.0070   26.7060   36.8290 H   0  0  0  0  0  0  0  0  0  0  0  0
   38.7160   31.1770   37.0750 H   0  0  0  0  0  0  0  0  0  0  0  0
   39.4830   30.2510   38.3880 H   0  0  0  0  0  0  0  0  0  0  0  0
   38.9990   33.0480   38.3330 H   0  0  0  0  0  0  0  0  0  0  0  0
   39.4010   32.0540   39.7520 H   0  0  0  0  0  0  0  0  0  0  0  0
   37.6350   33.3740   40.3580 H   0  0  0  0  0  0  0  0  0  0  0  0
   36.7190   33.0880   38.8660 H   0  0  0  0  0  0  0  0  0  0  0  0
   35.5580   31.8490   40.3520 H   0  0  0  0  0  0  0  0  0  0  0  0
   36.9660   31.4440   41.3220 H   0  0  0  0  0  0  0  0  0  0  0  0
   35.7050   29.7340   39.5200 H   0  0  0  0  0  0  0  0  0  0  0  0
   36.5220   29.5740   33.6970 O   0  0  0  0  0  0  0  0  0  0  0  0
   36.3500   30.8620   33.2090 C   0  0  0  0  0  0  0  0  0  0  0  0
   35.3560   31.6070   33.4430 O   0  0  0  0  0  0  0  0  0  0  0  0
   37.2940   31.5150   32.3660 N   0  0  0  0  0  0  0  0  0  0  0  0
   37.9520   32.3330   32.4010 H   0  0  0  0  0  0  0  0  0  0  0  0
   37.5250   31.2230   31.3870 H   0  0  0  0  0  0  0  0  0  0  0  0
   37.4950   29.1510   40.4900 C   0  0  0  0  0  2  0  0  0  0  0  0
   36.7680   27.9460   40.7620 N   0  0  0  0  0  4  0  0  0  0  0  0
   35.8360   27.8730   40.3450 H   0  0  0  0  0  0  0  0  0  0  0  0
   37.5310   26.7500   40.4320 C   0  0  0  0  0  2  0  0  0  0  0  0
   37.6630   26.6110   39.3360 H   0  0  0  0  0  0  0  0  0  0  0  0
   36.5960   27.8940   42.2160 C   0  0  0  0  0  2  0  0  0  0  0  0
   35.7310   28.5090   42.5390 H   0  0  0  0  0  0  0  0  0  0  0  0
  1  2  2  0  0  0  0
  1  6  1  0  0  0  0
  2  3  1  0  0  0  0
  3 14  1  0  0  0  0
  3  4  2  0  0  0  0
  5  4  1  0  0  0  0
  5  7  1  0  0  0  0
  6  5  2  0  0  0  0
  7 12  1  0  0  0  0
  8  7  1  0  0  0  0
  8 16  1  0  0  0  0
  8  9  1  0  0  0  0
  9 10  1  0  0  0  0
  9 18  1  0  0  0  0
 10 11  1  0  0  0  0
 10 19  1  0  0  0  0
 11 21  1  0  0  0  0
 11 22  1  0  0  0  0
 12 23  1  6  0  0  0
 12 11  1  0  0  0  0
 12 30  1  0  0  0  0
 13  2  1  0  0  0  0
 15  8  1  0  0  0  0
 17  9  1  0  0  0  0
 20 10  1  0  0  0  0
 24  1  1  0  0  0  0
 25 26  2  0  0  0  0
 25 24  1  0  0  0  0
 27 28  1  0  0  0  0
 27 25  1  0  0  0  0
 29 27  1  0  0  0  0
 30 31  1  0  0  0  0
 31 35  1  0  0  0  0
 32 31  1  0  0  0  0
 33 31  1  0  0  0  0
 34 33  1  0  0  0  0
 35 36  1  0  0  0  0
M  END
>  <minimizedAffinity>
-4.47418356

$$$$
