REMARK  Name = 
REMARK  5 active torsions:
REMARK  status: ('A' for Active; 'I' for Inactive)
REMARK    1  A    between atoms: C_3  and  C_7
REMARK    2  A    between atoms: C_10  and  C_23
REMARK    3  A    between atoms: C_23  and  N_24
REMARK    4  A    between atoms: N_24  and  C_25
REMARK    5  A    between atoms: N_24  and  C_27
REMARK                            x       y       z     vdW  Elec       q    Type
REMARK                         _______ _______ _______ _____ _____    ______ ____
ROOT
ATOM      1  C   UNL     1      46.759  35.126  41.787  0.00  0.00    +0.000 C 
ATOM      2  C   UNL     1      46.849  33.821  41.071  0.00  0.00    +0.000 C 
ATOM      3  C   UNL     1      47.802  34.199  39.944  0.00  0.00    +0.000 C 
ATOM      4  C   UNL     1      48.724  35.254  40.539  0.00  0.00    +0.000 C 
ATOM      5  C   UNL     1      48.250  35.452  41.962  0.00  0.00    +0.000 C 
ATOM      6  H   UNL     1      46.326  35.899  41.126  0.00  0.00    +0.000 HD
ATOM      7  H   UNL     1      47.244  33.017  41.690  0.00  0.00    +0.000 HD
ATOM      8  H   UNL     1      45.866  33.609  40.608  0.00  0.00    +0.000 HD
ATOM      9  H   UNL     1      48.346  33.264  39.695  0.00  0.00    +0.000 HD
ATOM     10  H   UNL     1      47.265  34.556  39.045  0.00  0.00    +0.000 HD
ATOM     11  H   UNL     1      48.554  36.178  39.995  0.00  0.00    +0.000 HD
ATOM     12  H   UNL     1      48.295  36.525  42.230  0.00  0.00    +0.000 HD
ATOM     13  H   UNL     1      48.688  34.764  42.690  0.00  0.00    +0.000 HD
ENDROOT
BRANCH   1  16
ATOM     14  C   UNL     1      44.513  35.890  44.721  0.00  0.00    +0.000 A 
ATOM     15  C   UNL     1      45.106  36.040  43.473  0.00  0.00    +0.000 A 
ATOM     16  C   UNL     1      46.053  35.100  43.084  0.00  0.00    +0.000 A 
ATOM     17  N   UNL     1      46.345  34.084  43.951  0.00  0.00    +0.000 NA
ATOM     18  C   UNL     1      45.758  33.957  45.156  0.00  0.00    +0.000 A 
ATOM     19  N   UNL     1      44.842  34.857  45.545  0.00  0.00    +0.000 NA
ATOM     20  H   UNL     1      43.765  36.609  45.060  0.00  0.00    +0.000 HD
ATOM     21  H   UNL     1      44.870  36.836  42.807  0.00  0.00    +0.000 HD
ATOM     22  H   UNL     1      46.022  33.138  45.806  0.00  0.00    +0.000 HD
ENDBRANCH   1  16
BRANCH   4  23
ATOM     23  C   UNL     1      50.108  34.707  40.514  0.00  0.00    +0.000 C 
BRANCH  23  24
ATOM     24  N   UNL     1      50.229  33.304  40.291  0.00  0.00    +0.000 N 
ATOM     25  H   UNL     1      51.232  33.056  40.547  0.00  0.00    +0.000 HD
BRANCH  24  26
ATOM     26  C   UNL     1      49.398  32.491  41.132  0.00  0.00    +0.000 C 
ATOM     27  H   UNL     1      48.719  31.880  40.476  0.00  0.00    +0.000 HD
ENDBRANCH  24  26
BRANCH  24  28
ATOM     28  C   UNL     1      50.135  32.931  38.880  0.00  0.00    +0.000 C 
ATOM     29  H   UNL     1      50.731  31.985  38.727  0.00  0.00    +0.000 HD
ENDBRANCH  24  28
ENDBRANCH  23  24
ENDBRANCH   4  23
TORSDOF 5
