
 OpenBabel03252502073D

 46 49  0  0  0  0  0  0  0  0999 V2000
   47.5280   32.0180   47.8960 C   0  0  0  0  0  0  0  0  0  0  0  0
   47.0070   30.7180   47.9150 C   0  0  0  0  0  0  0  0  0  0  0  0
   45.9990   30.4510   47.0520 C   0  0  0  0  0  0  0  0  0  0  0  0
   45.5460   31.4080   46.2260 N   0  0  0  0  0  0  0  0  0  0  0  0
   46.0210   32.6340   46.1880 C   0  0  0  0  0  0  0  0  0  0  0  0
   47.0280   32.9260   47.0450 N   0  0  0  0  0  0  0  0  0  0  0  0
   45.4180   29.2040   47.0250 N   0  0  0  0  0  0  0  0  0  0  0  0
   44.1920   28.8550   46.2500 C   0  0  0  0  0  0  0  0  0  0  0  0
   44.1000   27.3580   46.2800 C   0  0  0  0  0  0  0  0  0  0  0  0
   44.7910   27.0050   47.5510 C   0  0  0  0  0  0  0  0  0  0  0  0
   45.8580   28.0330   47.7260 C   0  0  0  0  0  0  0  0  0  0  0  0
   48.3450   32.2860   48.5790 H   0  0  0  0  0  0  0  0  0  0  0  0
   44.2480   29.1980   45.2190 H   0  0  0  0  0  0  0  0  0  0  0  0
   43.3550   29.3440   46.8210 H   0  0  0  0  0  0  0  0  0  0  0  0
   43.0310   27.0100   46.3570 H   0  0  0  0  0  0  0  0  0  0  0  0
   44.6250   26.9100   45.4340 H   0  0  0  0  0  0  0  0  0  0  0  0
   44.0520   26.9630   48.3960 H   0  0  0  0  0  0  0  0  0  0  0  0
   45.2370   25.9850   47.5100 H   0  0  0  0  0  0  0  0  0  0  0  0
   45.8560   28.2300   48.8190 H   0  0  0  0  0  0  0  0  0  0  0  0
   46.7890   27.6160   47.3270 H   0  0  0  0  0  0  0  0  0  0  0  0
   45.6880   33.8050   45.3430 C   0  0  0  0  0  0  0  0  0  0  0  0
   44.8170   34.7600   45.6990 N   0  0  0  0  0  0  0  0  0  0  0  0
   44.5100   35.8220   44.9590 C   0  0  0  0  0  0  0  0  0  0  0  0
   45.0910   35.9990   43.7500 N   0  0  0  0  0  0  0  0  0  0  0  0
   45.9690   35.1230   43.2860 C   0  0  0  0  0  0  0  0  0  0  0  0
   46.5770   35.2970   42.0500 C   0  0  0  0  0  0  0  0  0  0  0  0
   47.4850   34.4090   41.5680 C   0  0  0  0  0  0  0  0  0  0  0  0
   47.7890   33.3190   42.3460 C   0  0  0  0  0  0  0  0  0  0  0  0
   47.1680   33.1680   43.5760 C   0  0  0  0  0  0  0  0  0  0  0  0
   46.2540   34.0360   44.0930 C   0  0  0  0  0  0  0  0  0  0  0  0
   43.7830   36.5400   45.3530 H   0  0  0  0  0  0  0  0  0  0  0  0
   46.3190   36.1630   41.4570 H   0  0  0  0  0  0  0  0  0  0  0  0
   47.9430   34.5700   40.6010 H   0  0  0  0  0  0  0  0  0  0  0  0
   47.5940   31.9820   44.2410 N   0  0  0  0  0  0  0  0  0  0  0  0
   46.9370   31.2620   43.8590 H   0  0  0  0  0  0  0  0  0  0  0  0
   48.3410   31.7560   44.9280 H   0  0  0  0  0  0  0  0  0  0  0  0
   48.7890   32.3680   41.7970 C   0  0  0  0  0  2  0  0  0  0  0  0
   50.1140   32.5970   42.3050 N   0  0  0  0  0  4  0  0  0  0  0  0
   50.2190   32.0980   43.2060 H   0  0  0  0  0  0  0  0  0  0  0  0
   50.4460   33.9940   42.4310 C   0  0  0  0  0  2  0  0  0  0  0  0
   51.3970   34.0570   43.0020 H   0  0  0  0  0  0  0  0  0  0  0  0
   51.1140   32.0410   41.3980 C   0  0  0  0  0  2  0  0  0  0  0  0
   51.2420   32.7650   40.5470 H   0  0  0  0  0  0  0  0  0  0  0  0
   47.5810   29.8170   48.7690 N   0  0  0  0  0  0  0  0  0  0  0  0
   48.2740   29.1480   48.3670 H   0  0  0  0  0  0  0  0  0  0  0  0
   47.3800   29.7480   49.8120 H   0  0  0  0  0  0  0  0  0  0  0  0
  1  2  1  0  0  0  0
  1 12  1  0  0  0  0
  2 44  1  0  0  0  0
  3  2  2  0  0  0  0
  4  3  1  0  0  0  0
  5  4  2  0  0  0  0
  5  6  1  0  0  0  0
  6  1  2  0  0  0  0
  7  3  1  0  0  0  0
  7 11  1  0  0  0  0
  8  9  1  0  0  0  0
  8 14  1  0  0  0  0
  8  7  1  0  0  0  0
  9 15  1  0  0  0  0
  9 10  1  0  0  0  0
 10 11  1  0  0  0  0
 10 17  1  0  0  0  0
 11 19  1  0  0  0  0
 13  8  1  0  0  0  0
 16  9  1  0  0  0  0
 18 10  1  0  0  0  0
 20 11  1  0  0  0  0
 21 22  1  0  0  0  0
 21  5  1  0  0  0  0
 23 31  1  0  0  0  0
 23 22  2  0  0  0  0
 24 23  1  0  0  0  0
 25 24  2  0  0  0  0
 25 30  1  0  0  0  0
 26 25  1  0  0  0  0
 27 26  2  0  0  0  0
 27 28  1  0  0  0  0
 28 29  2  0  0  0  0
 29 30  1  0  0  0  0
 29 34  1  0  0  0  0
 30 21  2  0  0  0  0
 32 26  1  0  0  0  0
 33 27  1  0  0  0  0
 34 36  1  0  0  0  0
 35 34  1  0  0  0  0
 37 38  1  0  0  0  0
 37 28  1  0  0  0  0
 38 40  1  0  0  0  0
 38 39  1  0  0  0  0
 40 41  1  0  0  0  0
 42 38  1  0  0  0  0
 43 42  1  0  0  0  0
 44 46  1  0  0  0  0
 45 44  1  0  0  0  0
M  END
>  <minimizedAffinity>
-6.69082212

>  <minimizedRMSD>
0.4757649

$$$$
