
 OpenBabel03252502173D

 22 22  0  0  0  0  0  0  0  0999 V2000
   40.0980   30.6660   39.5140 C   0  0  0  0  0  0  0  0  0  0  0  0
   39.2390   30.0300   40.4400 C   0  0  0  0  0  0  0  0  0  0  0  0
   39.3150   28.6470   40.5780 C   0  0  0  0  0  0  0  0  0  0  0  0
   40.2230   27.9820   39.8040 N   0  0  0  0  0  0  0  0  0  0  0  0
   41.0220   28.6140   38.9370 C   0  0  0  0  0  0  0  0  0  0  0  0
   40.9660   29.9630   38.7840 N   0  0  0  0  0  0  0  0  0  0  0  0
   40.0560   31.7420   39.3850 H   0  0  0  0  0  0  0  0  0  0  0  0
   41.7130   28.0270   38.3540 H   0  0  0  0  0  0  0  0  0  0  0  0
   38.3740   30.8450   41.1450 O   0  0  0  0  0  0  0  0  0  0  0  0
   36.6820   30.7570   39.1130 O   0  0  0  0  0  0  0  0  0  0  0  0
   36.8990   31.3880   40.4590 P   0  0  0  0  0  0  0  0  0  0  0  0
   35.5850   30.9690   41.4420 O   0  0  0  0  0  0  0  0  0  0  0  0
   34.9070   30.4360   40.9610 H   0  0  0  0  0  0  0  0  0  0  0  0
   36.9180   33.0610   40.2720 O   0  0  0  0  0  0  0  0  0  0  0  0
   37.3870   33.4810   41.0500 H   0  0  0  0  0  0  0  0  0  0  0  0
   38.4500   27.9630   41.5400 C   0  0  0  0  0  2  0  0  0  0  0  0
   38.6630   28.3220   42.9150 N   0  0  0  0  0  4  0  0  0  0  0  0
   39.2480   29.1650   43.0680 H   0  0  0  0  0  0  0  0  0  0  0  0
   37.4330   28.4880   43.6750 C   0  0  0  0  0  2  0  0  0  0  0  0
   37.7200   28.3450   44.7580 H   0  0  0  0  0  0  0  0  0  0  0  0
   39.3240   27.1600   43.5320 C   0  0  0  0  0  2  0  0  0  0  0  0
   38.6120   26.3220   43.3400 H   0  0  0  0  0  0  0  0  0  0  0  0
  1  2  1  0  0  0  0
  2  3  2  0  0  0  0
  2  9  1  0  0  0  0
  3 16  1  0  0  0  0
  4  3  1  0  0  0  0
  5  4  2  0  0  0  0
  6  5  1  0  0  0  0
  6  1  2  0  0  0  0
  7  1  1  0  0  0  0
  8  5  1  0  0  0  0
 10 11  2  0  0  0  0
 11  9  1  0  0  0  0
 11 12  1  0  0  0  0
 13 12  1  0  0  0  0
 14 11  1  0  0  0  0
 14 15  1  0  0  0  0
 16 17  1  0  0  0  0
 17 18  1  0  0  0  0
 17 21  1  0  0  0  0
 17 19  1  0  0  0  0
 19 20  1  0  0  0  0
 22 21  1  0  0  0  0
M  END
>  <minimizedAffinity>
-4.10781956

$$$$

 OpenBabel03252502173D

 22 22  0  0  0  0  0  0  0  0999 V2000
   37.6420   29.0450   43.1000 C   0  0  0  0  0  0  0  0  0  0  0  0
   38.5370   29.5410   42.1240 C   0  0  0  0  0  0  0  0  0  0  0  0
   39.5500   28.7040   41.6640 C   0  0  0  0  0  0  0  0  0  0  0  0
   39.6200   27.4450   42.1890 N   0  0  0  0  0  0  0  0  0  0  0  0
   38.7570   27.0070   43.1120 C   0  0  0  0  0  0  0  0  0  0  0  0
   37.7600   27.8050   43.5770 N   0  0  0  0  0  0  0  0  0  0  0  0
   36.8470   29.6780   43.4780 H   0  0  0  0  0  0  0  0  0  0  0  0
   38.8710   26.0030   43.4860 H   0  0  0  0  0  0  0  0  0  0  0  0
   38.3340   30.8390   41.6970 O   0  0  0  0  0  0  0  0  0  0  0  0
   37.0650   30.4560   39.4070 O   0  0  0  0  0  0  0  0  0  0  0  0
   37.0140   31.2490   40.6820 P   0  0  0  0  0  0  0  0  0  0  0  0
   35.5390   30.9070   41.4420 O   0  0  0  0  0  0  0  0  0  0  0  0
   34.9710   30.3000   40.9110 H   0  0  0  0  0  0  0  0  0  0  0  0
   37.0540   32.8880   40.2980 O   0  0  0  0  0  0  0  0  0  0  0  0
   37.3600   33.4110   41.0940 H   0  0  0  0  0  0  0  0  0  0  0  0
   40.4810   29.1830   40.6420 C   0  0  0  0  0  2  0  0  0  0  0  0
   39.8960   29.4360   39.3540 N   0  0  0  0  0  4  0  0  0  0  0  0
   38.8780   29.6290   39.3600 H   0  0  0  0  0  0  0  0  0  0  0  0
   40.5500   30.5040   38.6120 C   0  0  0  0  0  2  0  0  0  0  0  0
   40.2990   30.3210   37.5260 H   0  0  0  0  0  0  0  0  0  0  0  0
   40.1510   28.2250   38.5560 C   0  0  0  0  0  2  0  0  0  0  0  0
   41.2610   28.1190   38.5870 H   0  0  0  0  0  0  0  0  0  0  0  0
  1  7  1  0  0  0  0
  1  6  1  0  0  0  0
  2  1  2  0  0  0  0
  3  2  1  0  0  0  0
  3  4  2  0  0  0  0
  4  5  1  0  0  0  0
  5  8  1  0  0  0  0
  5  6  2  0  0  0  0
  9  2  1  0  0  0  0
 10 11  2  0  0  0  0
 11 12  1  0  0  0  0
 11  9  1  0  0  0  0
 13 12  1  0  0  0  0
 14 11  1  0  0  0  0
 14 15  1  0  0  0  0
 16  3  1  0  0  0  0
 17 18  1  0  0  0  0
 17 16  1  0  0  0  0
 19 17  1  0  0  0  0
 20 19  1  0  0  0  0
 21 22  1  0  0  0  0
 21 17  1  0  0  0  0
M  END
>  <minimizedAffinity>
-4.06199646

$$$$

 OpenBabel03252502173D

 22 22  0  0  0  0  0  0  0  0999 V2000
   36.5270   30.1010   38.2450 C   0  0  0  0  0  0  0  0  0  0  0  0
   37.0380   30.1800   39.5610 C   0  0  0  0  0  0  0  0  0  0  0  0
   36.2900   29.6340   40.6000 C   0  0  0  0  0  0  0  0  0  0  0  0
   35.0970   29.0500   40.2830 N   0  0  0  0  0  0  0  0  0  0  0  0
   34.6410   28.9920   39.0270 C   0  0  0  0  0  0  0  0  0  0  0  0
   35.3530   29.5180   37.9960 N   0  0  0  0  0  0  0  0  0  0  0  0
   37.0880   30.5220   37.4180 H   0  0  0  0  0  0  0  0  0  0  0  0
   33.6890   28.5200   38.8470 H   0  0  0  0  0  0  0  0  0  0  0  0
   38.2610   30.8060   39.7150 O   0  0  0  0  0  0  0  0  0  0  0  0
   39.1320   32.7560   41.2770 O   0  0  0  0  0  0  0  0  0  0  0  0
   38.3690   32.4920   40.0100 P   0  0  0  0  0  0  0  0  0  0  0  0
   39.1820   33.2750   38.7470 O   0  0  0  0  0  0  0  0  0  0  0  0
   39.9660   33.7870   39.0610 H   0  0  0  0  0  0  0  0  0  0  0  0
   36.8320   33.1630   40.1580 O   0  0  0  0  0  0  0  0  0  0  0  0
   36.2110   32.7250   39.5080 H   0  0  0  0  0  0  0  0  0  0  0  0
   36.8010   29.6850   41.9700 C   0  0  0  0  0  2  0  0  0  0  0  0
   37.9480   28.8570   42.2250 N   0  0  0  0  0  4  0  0  0  0  0  0
   38.3220   28.3520   41.4010 H   0  0  0  0  0  0  0  0  0  0  0  0
   39.0530   29.5630   42.8570 C   0  0  0  0  0  2  0  0  0  0  0  0
   39.6740   28.7690   43.3670 H   0  0  0  0  0  0  0  0  0  0  0  0
   37.5130   27.8760   43.2340 C   0  0  0  0  0  2  0  0  0  0  0  0
   37.1590   28.5110   44.0800 H   0  0  0  0  0  0  0  0  0  0  0  0
  1  2  1  0  0  0  0
  2  9  1  0  0  0  0
  2  3  2  0  0  0  0
  3 16  1  0  0  0  0
  4  3  1  0  0  0  0
  5  4  2  0  0  0  0
  6  1  2  0  0  0  0
  6  5  1  0  0  0  0
  7  1  1  0  0  0  0
  8  5  1  0  0  0  0
  9 11  1  0  0  0  0
 11 14  1  0  0  0  0
 11 10  2  0  0  0  0
 12 13  1  0  0  0  0
 12 11  1  0  0  0  0
 15 14  1  0  0  0  0
 16 17  1  0  0  0  0
 17 19  1  0  0  0  0
 17 21  1  0  0  0  0
 18 17  1  0  0  0  0
 19 20  1  0  0  0  0
 21 22  1  0  0  0  0
M  END
>  <minimizedAffinity>
-3.98596549

$$$$

 OpenBabel03252502173D

 22 22  0  0  0  0  0  0  0  0999 V2000
   38.4610   29.6260   42.6940 C   0  0  0  0  0  0  0  0  0  0  0  0
   38.1080   29.5130   41.3290 C   0  0  0  0  0  0  0  0  0  0  0  0
   37.1680   28.5540   40.9610 C   0  0  0  0  0  0  0  0  0  0  0  0
   36.6400   27.7730   41.9490 N   0  0  0  0  0  0  0  0  0  0  0  0
   36.9950   27.9050   43.2310 C   0  0  0  0  0  0  0  0  0  0  0  0
   37.9100   28.8340   43.6150 N   0  0  0  0  0  0  0  0  0  0  0  0
   39.1930   30.3620   43.0060 H   0  0  0  0  0  0  0  0  0  0  0  0
   36.5420   27.2530   43.9600 H   0  0  0  0  0  0  0  0  0  0  0  0
   38.7360   30.3770   40.4520 O   0  0  0  0  0  0  0  0  0  0  0  0
   38.6000   32.5840   38.9980 O   0  0  0  0  0  0  0  0  0  0  0  0
   38.2980   32.0330   40.3630 P   0  0  0  0  0  0  0  0  0  0  0  0
   36.6400   32.2350   40.6440 O   0  0  0  0  0  0  0  0  0  0  0  0
   36.1840   32.7030   39.9040 H   0  0  0  0  0  0  0  0  0  0  0  0
   39.1510   32.9290   41.5050 O   0  0  0  0  0  0  0  0  0  0  0  0
   39.2450   32.3970   42.3470 H   0  0  0  0  0  0  0  0  0  0  0  0
   36.7710   28.4250   39.5590 C   0  0  0  0  0  2  0  0  0  0  0  0
   35.9810   29.5100   39.0460 N   0  0  0  0  0  4  0  0  0  0  0  0
   35.9800   30.3710   39.6250 H   0  0  0  0  0  0  0  0  0  0  0  0
   36.3180   29.8890   37.6820 C   0  0  0  0  0  2  0  0  0  0  0  0
   35.4050   30.4120   37.2730 H   0  0  0  0  0  0  0  0  0  0  0  0
   34.6050   28.9930   38.9540 C   0  0  0  0  0  2  0  0  0  0  0  0
   34.7060   28.0960   38.2980 H   0  0  0  0  0  0  0  0  0  0  0  0
  1  7  1  0  0  0  0
  1  6  1  0  0  0  0
  2  1  2  0  0  0  0
  3  2  1  0  0  0  0
  3  4  2  0  0  0  0
  4  5  1  0  0  0  0
  5  6  2  0  0  0  0
  5  8  1  0  0  0  0
  9  2  1  0  0  0  0
 10 11  2  0  0  0  0
 11  9  1  0  0  0  0
 11 12  1  0  0  0  0
 11 14  1  0  0  0  0
 13 12  1  0  0  0  0
 14 15  1  0  0  0  0
 16  3  1  0  0  0  0
 17 16  1  0  0  0  0
 17 18  1  0  0  0  0
 19 17  1  0  0  0  0
 20 19  1  0  0  0  0
 21 17  1  0  0  0  0
 22 21  1  0  0  0  0
M  END
>  <minimizedAffinity>
-3.90350938

$$$$

 OpenBabel03252502173D

 22 22  0  0  0  0  0  0  0  0999 V2000
   39.0680   28.8930   41.1280 C   0  0  0  0  0  0  0  0  0  0  0  0
   39.3050   30.2350   40.7450 C   0  0  0  0  0  0  0  0  0  0  0  0
   40.3900   30.5090   39.9180 C   0  0  0  0  0  0  0  0  0  0  0  0
   41.1680   29.4580   39.5220 N   0  0  0  0  0  0  0  0  0  0  0  0
   40.9160   28.2010   39.9020 C   0  0  0  0  0  0  0  0  0  0  0  0
   39.8640   27.9070   40.7100 N   0  0  0  0  0  0  0  0  0  0  0  0
   38.2320   28.6530   41.7750 H   0  0  0  0  0  0  0  0  0  0  0  0
   41.5730   27.4190   39.5560 H   0  0  0  0  0  0  0  0  0  0  0  0
   38.4270   31.1830   41.2330 O   0  0  0  0  0  0  0  0  0  0  0  0
   36.8940   30.8230   39.1070 O   0  0  0  0  0  0  0  0  0  0  0  0
   36.9530   31.5330   40.4290 P   0  0  0  0  0  0  0  0  0  0  0  0
   35.6270   31.0200   41.3490 O   0  0  0  0  0  0  0  0  0  0  0  0
   35.0420   30.3960   40.8560 H   0  0  0  0  0  0  0  0  0  0  0  0
   36.8100   33.1890   40.1570 O   0  0  0  0  0  0  0  0  0  0  0  0
   37.1790   33.6900   40.9400 H   0  0  0  0  0  0  0  0  0  0  0  0
   40.6510   31.8840   39.4910 C   0  0  0  0  0  2  0  0  0  0  0  0
   40.7400   32.8460   40.5550 N   0  0  0  0  0  4  0  0  0  0  0  0
   40.1750   32.6310   41.3970 H   0  0  0  0  0  0  0  0  0  0  0  0
   42.1030   33.1170   40.9890 C   0  0  0  0  0  2  0  0  0  0  0  0
   42.0730   34.1320   41.4820 H   0  0  0  0  0  0  0  0  0  0  0  0
   40.2780   34.1200   39.9800 C   0  0  0  0  0  2  0  0  0  0  0  0
   40.9570   34.2760   39.1080 H   0  0  0  0  0  0  0  0  0  0  0  0
  1  7  1  0  0  0  0
  2  1  1  0  0  0  0
  2  9  1  0  0  0  0
  3  2  2  0  0  0  0
  4  5  2  0  0  0  0
  4  3  1  0  0  0  0
  5  6  1  0  0  0  0
  6  1  2  0  0  0  0
  8  5  1  0  0  0  0
 10 11  2  0  0  0  0
 11  9  1  0  0  0  0
 11 12  1  0  0  0  0
 13 12  1  0  0  0  0
 14 11  1  0  0  0  0
 14 15  1  0  0  0  0
 16  3  1  0  0  0  0
 16 17  1  0  0  0  0
 17 19  1  0  0  0  0
 17 18  1  0  0  0  0
 19 20  1  0  0  0  0
 21 17  1  0  0  0  0
 22 21  1  0  0  0  0
M  END
>  <minimizedAffinity>
-3.85694504

$$$$

 OpenBabel03252502173D

 22 22  0  0  0  0  0  0  0  0999 V2000
   36.8380   28.4940   38.4790 C   0  0  0  0  0  0  0  0  0  0  0  0
   37.5910   29.5410   39.0600 C   0  0  0  0  0  0  0  0  0  0  0  0
   37.8330   30.6850   38.3060 C   0  0  0  0  0  0  0  0  0  0  0  0
   37.3250   30.7280   37.0390 N   0  0  0  0  0  0  0  0  0  0  0  0
   36.6160   29.7200   36.5190 C   0  0  0  0  0  0  0  0  0  0  0  0
   36.3670   28.5930   37.2350 N   0  0  0  0  0  0  0  0  0  0  0  0
   36.6390   27.5900   39.0440 H   0  0  0  0  0  0  0  0  0  0  0  0
   36.2480   29.8190   35.5100 H   0  0  0  0  0  0  0  0  0  0  0  0
   38.0370   29.3400   40.3530 O   0  0  0  0  0  0  0  0  0  0  0  0
   36.2020   28.1190   41.8170 O   0  0  0  0  0  0  0  0  0  0  0  0
   36.9640   29.4080   41.6880 P   0  0  0  0  0  0  0  0  0  0  0  0
   37.8130   29.6510   43.1340 O   0  0  0  0  0  0  0  0  0  0  0  0
   37.6310   28.9480   43.8030 H   0  0  0  0  0  0  0  0  0  0  0  0
   35.8620   30.6660   41.4940 O   0  0  0  0  0  0  0  0  0  0  0  0
   36.3190   31.4510   41.0750 H   0  0  0  0  0  0  0  0  0  0  0  0
   38.5950   31.7910   38.8860 C   0  0  0  0  0  2  0  0  0  0  0  0
   38.0010   32.4000   40.0440 N   0  0  0  0  0  4  0  0  0  0  0  0
   37.3010   31.8180   40.5420 H   0  0  0  0  0  0  0  0  0  0  0  0
   38.9700   32.8690   41.0240 C   0  0  0  0  0  2  0  0  0  0  0  0
   38.4370   33.6600   41.6290 H   0  0  0  0  0  0  0  0  0  0  0  0
   37.3460   33.6260   39.5580 C   0  0  0  0  0  2  0  0  0  0  0  0
   38.1760   34.1890   39.0700 H   0  0  0  0  0  0  0  0  0  0  0  0
  1  7  1  0  0  0  0
  1  2  1  0  0  0  0
  2  9  1  0  0  0  0
  3 16  1  0  0  0  0
  3  2  2  0  0  0  0
  4  3  1  0  0  0  0
  5  4  2  0  0  0  0
  5  6  1  0  0  0  0
  6  1  2  0  0  0  0
  8  5  1  0  0  0  0
  9 11  1  0  0  0  0
 11 10  2  0  0  0  0
 11 12  1  0  0  0  0
 12 13  1  0  0  0  0
 14 11  1  0  0  0  0
 15 14  1  0  0  0  0
 16 17  1  0  0  0  0
 17 18  1  0  0  0  0
 17 19  1  0  0  0  0
 19 20  1  0  0  0  0
 21 17  1  0  0  0  0
 22 21  1  0  0  0  0
M  END
>  <minimizedAffinity>
-3.85198975

$$$$

 OpenBabel03252502173D

 22 22  0  0  0  0  0  0  0  0999 V2000
   34.9780   29.1030   40.0610 C   0  0  0  0  0  0  0  0  0  0  0  0
   36.1300   29.8900   40.2950 C   0  0  0  0  0  0  0  0  0  0  0  0
   36.8310   30.3880   39.2010 C   0  0  0  0  0  0  0  0  0  0  0  0
   36.3610   30.0830   37.9550 N   0  0  0  0  0  0  0  0  0  0  0  0
   35.2680   29.3350   37.7670 C   0  0  0  0  0  0  0  0  0  0  0  0
   34.5670   28.8370   38.8200 N   0  0  0  0  0  0  0  0  0  0  0  0
   34.4170   28.7000   40.8960 H   0  0  0  0  0  0  0  0  0  0  0  0
   34.9540   29.1290   36.7570 H   0  0  0  0  0  0  0  0  0  0  0  0
   36.4760   30.1050   41.6160 O   0  0  0  0  0  0  0  0  0  0  0  0
   38.6030   29.7100   43.1390 O   0  0  0  0  0  0  0  0  0  0  0  0
   37.4620   28.9950   42.4720 P   0  0  0  0  0  0  0  0  0  0  0  0
   36.5740   28.2050   43.6790 O   0  0  0  0  0  0  0  0  0  0  0  0
   36.9730   28.3140   44.5760 H   0  0  0  0  0  0  0  0  0  0  0  0
   38.0920   27.8370   41.4240 O   0  0  0  0  0  0  0  0  0  0  0  0
   37.4050   27.5960   40.7380 H   0  0  0  0  0  0  0  0  0  0  0  0
   38.0160   31.2200   39.4120 C   0  0  0  0  0  2  0  0  0  0  0  0
   37.8660   32.2570   40.3960 N   0  0  0  0  0  4  0  0  0  0  0  0
   37.1900   32.0540   41.1550 H   0  0  0  0  0  0  0  0  0  0  0  0
   39.1190   32.6680   41.0110 C   0  0  0  0  0  2  0  0  0  0  0  0
   38.9390   33.7090   41.4100 H   0  0  0  0  0  0  0  0  0  0  0  0
   37.4120   33.4460   39.6540 C   0  0  0  0  0  2  0  0  0  0  0  0
   38.2100   33.5960   38.8890 H   0  0  0  0  0  0  0  0  0  0  0  0
  1  2  1  0  0  0  0
  1  7  1  0  0  0  0
  2  9  1  0  0  0  0
  3 16  1  0  0  0  0
  3  2  2  0  0  0  0
  4  3  1  0  0  0  0
  5  4  2  0  0  0  0
  5  6  1  0  0  0  0
  6  1  2  0  0  0  0
  8  5  1  0  0  0  0
  9 11  1  0  0  0  0
 11 10  2  0  0  0  0
 11 12  1  0  0  0  0
 12 13  1  0  0  0  0
 14 11  1  0  0  0  0
 15 14  1  0  0  0  0
 16 17  1  0  0  0  0
 17 19  1  0  0  0  0
 17 18  1  0  0  0  0
 19 20  1  0  0  0  0
 21 17  1  0  0  0  0
 22 21  1  0  0  0  0
M  END
>  <minimizedAffinity>
-3.83885717

$$$$

 OpenBabel03252502173D

 22 22  0  0  0  0  0  0  0  0999 V2000
   37.1780   26.3160   41.9870 C   0  0  0  0  0  0  0  0  0  0  0  0
   36.8210   27.0690   40.8440 C   0  0  0  0  0  0  0  0  0  0  0  0
   37.2570   26.6330   39.5970 C   0  0  0  0  0  0  0  0  0  0  0  0
   38.0100   25.4940   39.5510 N   0  0  0  0  0  0  0  0  0  0  0  0
   38.3300   24.8040   40.6510 C   0  0  0  0  0  0  0  0  0  0  0  0
   37.9160   25.2100   41.8800 N   0  0  0  0  0  0  0  0  0  0  0  0
   36.8540   26.6360   42.9710 H   0  0  0  0  0  0  0  0  0  0  0  0
   38.9310   23.9160   40.5440 H   0  0  0  0  0  0  0  0  0  0  0  0
   36.0570   28.2000   41.0600 O   0  0  0  0  0  0  0  0  0  0  0  0
   37.9920   29.9810   40.7670 O   0  0  0  0  0  0  0  0  0  0  0  0
   36.7670   29.6710   41.5810 P   0  0  0  0  0  0  0  0  0  0  0  0
   35.6860   30.9620   41.3970 O   0  0  0  0  0  0  0  0  0  0  0  0
   36.0550   31.6890   40.8400 H   0  0  0  0  0  0  0  0  0  0  0  0
   37.2100   29.5680   43.2020 O   0  0  0  0  0  0  0  0  0  0  0  0
   36.5230   29.0440   43.7050 H   0  0  0  0  0  0  0  0  0  0  0  0
   36.8900   27.3820   38.3940 C   0  0  0  0  0  2  0  0  0  0  0  0
   35.5180   27.8040   38.3340 N   0  0  0  0  0  4  0  0  0  0  0  0
   35.0050   27.7750   39.2340 H   0  0  0  0  0  0  0  0  0  0  0  0
   35.3360   29.1280   37.7570 C   0  0  0  0  0  2  0  0  0  0  0  0
   34.2690   29.1580   37.3870 H   0  0  0  0  0  0  0  0  0  0  0  0
   34.8630   26.8940   37.3790 C   0  0  0  0  0  2  0  0  0  0  0  0
   35.4640   27.0160   36.4470 H   0  0  0  0  0  0  0  0  0  0  0  0
  1  7  1  0  0  0  0
  2  9  1  0  0  0  0
  2  1  2  0  0  0  0
  3  2  1  0  0  0  0
  4  3  2  0  0  0  0
  4  5  1  0  0  0  0
  5  6  2  0  0  0  0
  6  1  1  0  0  0  0
  8  5  1  0  0  0  0
  9 11  1  0  0  0  0
 10 11  2  0  0  0  0
 11 14  1  0  0  0  0
 12 11  1  0  0  0  0
 13 12  1  0  0  0  0
 14 15  1  0  0  0  0
 16  3  1  0  0  0  0
 17 16  1  0  0  0  0
 17 18  1  0  0  0  0
 19 17  1  0  0  0  0
 20 19  1  0  0  0  0
 21 17  1  0  0  0  0
 22 21  1  0  0  0  0
M  END
>  <minimizedAffinity>
-3.81035113

$$$$

 OpenBabel03252502173D

 22 22  0  0  0  0  0  0  0  0999 V2000
   39.2700   31.7430   41.4040 C   0  0  0  0  0  0  0  0  0  0  0  0
   38.8490   30.6670   40.5870 C   0  0  0  0  0  0  0  0  0  0  0  0
   38.7810   30.8640   39.2110 C   0  0  0  0  0  0  0  0  0  0  0  0
   39.1270   32.0930   38.7280 N   0  0  0  0  0  0  0  0  0  0  0  0
   39.5210   33.0900   39.5280 C   0  0  0  0  0  0  0  0  0  0  0  0
   39.5950   32.9230   40.8750 N   0  0  0  0  0  0  0  0  0  0  0  0
   39.3270   31.6170   42.4790 H   0  0  0  0  0  0  0  0  0  0  0  0
   39.7760   34.0370   39.0810 H   0  0  0  0  0  0  0  0  0  0  0  0
   38.5310   29.4870   41.2310 O   0  0  0  0  0  0  0  0  0  0  0  0
   36.4130   27.9430   41.6000 O   0  0  0  0  0  0  0  0  0  0  0  0
   37.0090   29.2660   41.9900 P   0  0  0  0  0  0  0  0  0  0  0  0
   37.1680   29.2820   43.6760 O   0  0  0  0  0  0  0  0  0  0  0  0
   36.8130   28.4630   44.0980 H   0  0  0  0  0  0  0  0  0  0  0  0
   35.9440   30.4900   41.5390 O   0  0  0  0  0  0  0  0  0  0  0  0
   36.4380   31.3560   41.4680 H   0  0  0  0  0  0  0  0  0  0  0  0
   38.3660   29.7650   38.3390 C   0  0  0  0  0  2  0  0  0  0  0  0
   37.1070   29.1590   38.6770 N   0  0  0  0  0  4  0  0  0  0  0  0
   36.8980   29.1070   39.6920 H   0  0  0  0  0  0  0  0  0  0  0  0
   35.9640   29.7710   38.0160 C   0  0  0  0  0  2  0  0  0  0  0  0
   35.1510   28.9870   38.0190 H   0  0  0  0  0  0  0  0  0  0  0  0
   37.1620   27.7940   38.1280 C   0  0  0  0  0  2  0  0  0  0  0  0
   37.3610   27.9560   37.0430 H   0  0  0  0  0  0  0  0  0  0  0  0
  1  7  1  0  0  0  0
  2  9  1  0  0  0  0
  2  1  2  0  0  0  0
  3  2  1  0  0  0  0
  4  3  2  0  0  0  0
  4  5  1  0  0  0  0
  5  6  2  0  0  0  0
  6  1  1  0  0  0  0
  8  5  1  0  0  0  0
  9 11  1  0  0  0  0
 10 11  2  0  0  0  0
 11 12  1  0  0  0  0
 12 13  1  0  0  0  0
 14 11  1  0  0  0  0
 15 14  1  0  0  0  0
 16 17  1  0  0  0  0
 16  3  1  0  0  0  0
 17 18  1  0  0  0  0
 19 20  1  0  0  0  0
 19 17  1  0  0  0  0
 21 17  1  0  0  0  0
 22 21  1  0  0  0  0
M  END
>  <minimizedAffinity>
-3.80444932

$$$$
