REMARK  Name = 
REMARK  7 active torsions:
REMARK  status: ('A' for Active; 'I' for Inactive)
REMARK    1  A    between atoms: C_1  and  O_12
REMARK    2  A    between atoms: C_2  and  C_7
REMARK    3  A    between atoms: O_12  and  C_13
REMARK    4  A    between atoms: C_20  and  C_35
REMARK    5  A    between atoms: C_35  and  N_36
REMARK    6  A    between atoms: N_36  and  C_37
REMARK    7  A    between atoms: N_36  and  C_39
REMARK                            x       y       z     vdW  Elec       q    Type
REMARK                         _______ _______ _______ _____ _____    ______ ____
ROOT
ATOM      1  C   UNL     1      43.391  34.465  40.769  0.00  0.00    +0.000 C 
ATOM      2  O   UNL     1      43.297  35.722  40.548  0.00  0.00    +0.000 OA
ATOM      3  N   UNL     1      42.048  34.069  40.380  0.00  0.00    +0.000 N 
ATOM      4  C   UNL     1      41.692  34.372  39.008  0.00  0.00    +0.000 C 
ATOM      5  C   UNL     1      40.837  35.631  39.090  0.00  0.00    +0.000 C 
ATOM      6  C   UNL     1      40.025  35.541  40.379  0.00  0.00    +0.000 C 
ATOM      7  C   UNL     1      39.730  34.082  40.734  0.00  0.00    +0.000 C 
ATOM      8  C   UNL     1      41.018  33.410  41.188  0.00  0.00    +0.000 C 
ATOM      9  H   UNL     1      42.565  34.590  38.366  0.00  0.00    +0.000 HD
ATOM     10  H   UNL     1      41.043  33.576  38.568  0.00  0.00    +0.000 HD
ATOM     11  H   UNL     1      41.529  36.489  39.223  0.00  0.00    +0.000 HD
ATOM     12  H   UNL     1      40.184  35.759  38.207  0.00  0.00    +0.000 HD
ATOM     13  H   UNL     1      39.080  36.088  40.309  0.00  0.00    +0.000 HD
ATOM     14  H   UNL     1      40.632  35.943  41.223  0.00  0.00    +0.000 HD
ATOM     15  H   UNL     1      39.367  33.593  39.791  0.00  0.00    +0.000 HD
ATOM     16  H   UNL     1      38.961  34.094  41.514  0.00  0.00    +0.000 HD
ATOM     17  H   UNL     1      40.969  32.360  40.878  0.00  0.00    +0.000 HD
ENDROOT
BRANCH   1  18
ATOM     18  O   UNL     1      44.467  33.755  41.235  0.00  0.00    +0.000 OA
BRANCH  18  19
ATOM     19  C   UNL     1      45.793  34.114  41.089  0.00  0.00    +0.000 A 
ATOM     20  C   UNL     1      46.424  34.759  42.150  0.00  0.00    +0.000 A 
ATOM     21  C   UNL     1      47.764  35.110  41.973  0.00  0.00    +0.000 A 
ATOM     22  N   UNL     1      48.373  34.805  40.785  0.00  0.00    +0.000 NA
ATOM     23  C   UNL     1      47.731  34.192  39.810  0.00  0.00    +0.000 A 
ATOM     24  N   UNL     1      46.433  33.841  39.953  0.00  0.00    +0.000 NA
ATOM     25  H   UNL     1      48.274  35.608  42.776  0.00  0.00    +0.000 HD
ATOM     26  H   UNL     1      48.194  33.941  38.862  0.00  0.00    +0.000 HD
BRANCH  20  27
ATOM     27  C   UNL     1      45.687  35.037  43.370  0.00  0.00    +0.000 A 
ATOM     28  C   UNL     1      45.040  36.236  43.610  0.00  0.00    +0.000 A 
ATOM     29  C   UNL     1      44.485  36.075  44.849  0.00  0.00    +0.000 A 
ATOM     30  N   UNL     1      44.773  34.848  45.346  0.00  0.00    +0.000 N 
ATOM     31  N   UNL     1      45.496  34.254  44.430  0.00  0.00    +0.000 NA
ATOM     32  H   UNL     1      44.993  37.094  42.954  0.00  0.00    +0.000 HD
ATOM     33  H   UNL     1      43.884  36.801  45.409  0.00  0.00    +0.000 HD
ATOM     34  H   UNL     1      44.495  34.413  46.275  0.00  0.00    +0.000 HD
ENDBRANCH  20  27
ENDBRANCH  18  19
ENDBRANCH   1  18
BRANCH   8  35
ATOM     35  C   UNL     1      41.259  33.597  42.658  0.00  0.00    +0.000 C 
BRANCH  35  36
ATOM     36  N   UNL     1      40.913  34.941  43.075  0.00  0.00    +0.000 N 
ATOM     37  H   UNL     1      41.649  35.628  42.832  0.00  0.00    +0.000 HD
BRANCH  36  38
ATOM     38  C   UNL     1      40.769  34.982  44.537  0.00  0.00    +0.000 C 
ATOM     39  H   UNL     1      40.285  35.914  44.856  0.00  0.00    +0.000 HD
ENDBRANCH  36  38
BRANCH  36  40
ATOM     40  C   UNL     1      39.680  35.401  42.474  0.00  0.00    +0.000 C 
ATOM     41  H   UNL     1      38.932  34.579  42.352  0.00  0.00    +0.000 HD
ENDBRANCH  36  40
ENDBRANCH  35  36
ENDBRANCH   8  35
TORSDOF 7
