
 OpenBabel03242520563D

 39 40  0  0  0  0  0  0  0  0999 V2000
   48.5250   31.5060   48.5290 C   0  0  0  0  0  3  0  0  0  0  0  0
   47.4320   32.2310   48.6630 C   0  0  0  0  0  3  0  0  0  0  0  0
   51.2680   32.3850   50.7790 C   0  0  0  0  0  0  0  0  0  0  0  0
   51.3500   31.2310   51.6070 C   0  0  0  0  0  0  0  0  0  0  0  0
   50.4890   30.1830   51.3740 C   0  0  0  0  0  0  0  0  0  0  0  0
   49.6210   30.3280   50.3740 N   0  0  0  0  0  0  0  0  0  0  0  0
   49.5320   31.4120   49.5900 C   0  0  0  0  0  0  0  0  0  0  0  0
   50.3580   32.4510   49.7860 N   0  0  0  0  0  0  0  0  0  0  0  0
   51.8910   33.2670   50.8630 H   0  0  0  0  0  0  0  0  0  0  0  0
   50.5200   29.0600   52.1180 O   0  0  0  0  0  0  0  0  0  0  0  0
   51.4450   28.0310   51.7340 C   0  0  0  0  0  0  0  0  0  0  0  0
   51.9250   28.2980   50.4400 F   0  0  0  0  0  0  0  0  0  0  0  0
   52.5270   28.1360   52.6050 F   0  0  0  0  0  0  0  0  0  0  0  0
   50.9290   26.7460   51.8310 F   0  0  0  0  0  0  0  0  0  0  0  0
   52.3540   31.4200   52.6740 C   0  0  0  0  0  2  0  0  0  0  0  0
   51.6960   31.3610   54.0000 N   0  0  0  0  0  4  0  0  0  0  0  0
   50.8290   30.7440   53.9460 H   0  0  0  0  0  0  0  0  0  0  0  0
   52.5540   30.7390   54.9900 C   0  0  0  0  0  2  0  0  0  0  0  0
   52.4740   31.2840   55.9710 H   0  0  0  0  0  0  0  0  0  0  0  0
   51.3290   32.6840   54.4510 C   0  0  0  0  0  2  0  0  0  0  0  0
   51.7250   32.8580   55.4920 H   0  0  0  0  0  0  0  0  0  0  0  0
   46.4410   32.2950   47.5570 C   0  0  0  0  0  0  0  0  0  0  0  0
   46.3310   31.2560   47.2220 H   0  0  0  0  0  0  0  0  0  0  0  0
   45.4360   32.5920   47.9910 H   0  0  0  0  0  0  0  0  0  0  0  0
   46.6150   32.7840   45.2740 C   0  0  0  0  0  0  0  0  0  0  0  0
   46.2060   31.7110   44.7840 O   0  0  0  0  0  0  0  0  0  0  0  0
   46.7760   33.2440   46.5770 N   0  0  0  0  0  0  0  0  0  0  0  0
   47.1180   34.2030   46.7240 H   0  0  0  0  0  0  0  0  0  0  0  0
   44.8630   35.1050   44.3460 Cl  0  0  0  0  0  0  0  0  0  0  0  0
   46.2710   34.5890   43.4600 C   0  0  0  0  0  0  0  0  0  0  0  0
   46.9170   33.5330   44.0470 C   0  0  0  0  0  0  0  0  0  0  0  0
   48.0700   32.9920   43.4670 C   0  0  0  0  0  0  0  0  0  0  0  0
   48.5680   33.5330   42.2820 C   0  0  0  0  0  0  0  0  0  0  0  0
   47.8930   34.6050   41.7080 C   0  0  0  0  0  0  0  0  0  0  0  0
   48.4790   35.3220   40.2240 Cl  0  0  0  0  0  0  0  0  0  0  0  0
   46.7660   35.1160   42.2950 C   0  0  0  0  0  0  0  0  0  0  0  0
   48.6570   32.1860   43.8120 H   0  0  0  0  0  0  0  0  0  0  0  0
   49.4510   33.1750   41.7710 H   0  0  0  0  0  0  0  0  0  0  0  0
   46.1980   35.9490   41.8950 H   0  0  0  0  0  0  0  0  0  0  0  0
  1  2  2  0  0  0  0
  1  7  1  0  0  0  0
  3  9  1  0  0  0  0
  3  4  1  0  0  0  0
  4 15  1  0  0  0  0
  5  4  2  0  0  0  0
  5 10  1  0  0  0  0
  6  5  1  0  0  0  0
  7  8  1  0  0  0  0
  7  6  2  0  0  0  0
  8  3  2  0  0  0  0
 11 14  1  0  0  0  0
 11 10  1  0  0  0  0
 11 13  1  0  0  0  0
 12 11  1  0  0  0  0
 15 16  1  0  0  0  0
 16 20  1  0  0  0  0
 16 18  1  0  0  0  0
 17 16  1  0  0  0  0
 18 19  1  0  0  0  0
 20 21  1  0  0  0  0
 22 24  1  0  0  0  0
 22  2  1  0  0  0  0
 23 22  1  0  0  0  0
 25 27  1  0  0  0  0
 26 25  2  0  0  0  0
 27 28  1  0  0  0  0
 27 22  1  0  0  0  0
 30 31  1  0  0  0  0
 30 29  1  0  0  0  0
 31 25  1  0  0  0  0
 32 37  1  0  0  0  0
 32 31  2  0  0  0  0
 33 32  1  0  0  0  0
 34 33  2  0  0  0  0
 34 36  1  0  0  0  0
 35 34  1  0  0  0  0
 36 30  2  0  0  0  0
 38 33  1  0  0  0  0
 39 36  1  0  0  0  0
M  END
>  <minimizedAffinity>
-6.44032955

>  <minimizedRMSD>
0.557572246

$$$$
