
 OpenBabel03242518123D

 29 30  0  0  0  0  0  0  0  0999 V2000
   48.9290   34.3980   42.5000 C   0  0  0  0  0  0  0  0  0  0  0  0
   49.7490   35.0020   42.9450 H   0  0  0  0  0  0  0  0  0  0  0  0
   48.3550   33.9830   43.3600 H   0  0  0  0  0  0  0  0  0  0  0  0
   49.4990   33.3760   41.6830 C   0  0  0  0  0  0  0  0  0  0  0  0
   49.1490   32.6670   40.4850 C   0  0  0  0  0  0  0  0  0  0  0  0
   50.0090   31.7250   39.9990 C   0  0  0  0  0  0  0  0  0  0  0  0
   51.2430   31.4890   40.7300 C   0  0  0  0  0  0  0  0  0  0  0  0
   51.1720   32.6310   42.1310 S   0  0  0  0  0  0  0  0  0  0  0  0
   48.2070   32.9520   40.0630 H   0  0  0  0  0  0  0  0  0  0  0  0
   49.7840   31.1730   39.1040 H   0  0  0  0  0  0  0  0  0  0  0  0
   52.2470   30.5670   40.3920 C   0  0  0  0  0  2  0  0  0  0  0  0
   52.1700   29.3710   41.1600 N   0  0  0  0  0  4  0  0  0  0  0  0
   52.5320   28.5650   40.6020 H   0  0  0  0  0  0  0  0  0  0  0  0
   50.8560   29.0720   41.6790 C   0  0  0  0  0  2  0  0  0  0  0  0
   50.2710   28.5240   40.9160 H   0  0  0  0  0  0  0  0  0  0  0  0
   53.0790   29.4600   42.3070 C   0  0  0  0  0  2  0  0  0  0  0  0
   54.1090   29.6780   41.9110 H   0  0  0  0  0  0  0  0  0  0  0  0
   48.0190   35.3700   41.7860 C   0  0  0  0  0  0  0  0  0  0  0  0
   48.1650   36.3990   42.2060 H   0  0  0  0  0  0  0  0  0  0  0  0
   48.2940   35.3980   40.7370 H   0  0  0  0  0  0  0  0  0  0  0  0
   46.6380   34.9560   41.9910 C   0  0  0  0  0  0  0  0  0  0  0  0
   45.9870   35.1120   43.2010 C   0  0  0  0  0  0  0  0  0  0  0  0
   44.6650   34.6870   43.3130 C   0  0  0  0  0  0  0  0  0  0  0  0
   44.0850   34.1390   42.2220 N   0  0  0  0  0  0  0  0  0  0  0  0
   44.7210   33.9920   41.0590 C   0  0  0  0  0  0  0  0  0  0  0  0
   45.9690   34.3990   40.9730 N   0  0  0  0  0  0  0  0  0  0  0  0
   46.4990   35.5610   44.0490 H   0  0  0  0  0  0  0  0  0  0  0  0
   44.1280   34.8020   44.2640 H   0  0  0  0  0  0  0  0  0  0  0  0
   44.2240   33.5480   40.2070 H   0  0  0  0  0  0  0  0  0  0  0  0
  1  2  1  0  0  0  0
  1  3  1  0  0  0  0
  4  8  1  0  0  0  0
  4  1  1  0  0  0  0
  5  4  2  0  0  0  0
  6  5  1  0  0  0  0
  6  7  2  0  0  0  0
  7  8  1  0  0  0  0
  9  5  1  0  0  0  0
 10  6  1  0  0  0  0
 11  7  1  0  0  0  0
 11 12  1  0  0  0  0
 12 14  1  0  0  0  0
 12 16  1  0  0  0  0
 13 12  1  0  0  0  0
 15 14  1  0  0  0  0
 17 16  1  0  0  0  0
 18 21  1  0  0  0  0
 18 19  1  0  0  0  0
 18  1  1  0  0  0  0
 20 18  1  0  0  0  0
 21 22  1  0  0  0  0
 22 23  2  0  0  0  0
 22 27  1  0  0  0  0
 23 28  1  0  0  0  0
 24 23  1  0  0  0  0
 25 24  2  0  0  0  0
 26 25  1  0  0  0  0
 26 21  2  0  0  0  0
 29 25  1  0  0  0  0
M  END
>  <minimizedAffinity>
-3.30522394

>  <minimizedRMSD>
1.29364407

$$$$
