
 OpenBabel03252502073D

 46 49  0  0  0  0  0  0  0  0999 V2000
   47.3260   32.1390   47.8730 C   0  0  0  0  0  0  0  0  0  0  0  0
   46.7980   30.8420   47.8850 C   0  0  0  0  0  0  0  0  0  0  0  0
   45.8840   30.5450   46.9320 C   0  0  0  0  0  0  0  0  0  0  0  0
   45.5260   31.4710   46.0290 N   0  0  0  0  0  0  0  0  0  0  0  0
   46.0100   32.6940   45.9950 C   0  0  0  0  0  0  0  0  0  0  0  0
   46.9230   33.0160   46.9400 N   0  0  0  0  0  0  0  0  0  0  0  0
   45.3020   29.2990   46.8920 N   0  0  0  0  0  0  0  0  0  0  0  0
   44.1620   28.9240   46.0060 C   0  0  0  0  0  0  0  0  0  0  0  0
   44.0590   27.4290   46.0820 C   0  0  0  0  0  0  0  0  0  0  0  0
   44.6110   27.1230   47.4310 C   0  0  0  0  0  0  0  0  0  0  0  0
   45.6590   28.1550   47.6780 C   0  0  0  0  0  0  0  0  0  0  0  0
   48.0690   32.4320   48.6270 H   0  0  0  0  0  0  0  0  0  0  0  0
   44.3270   29.2270   44.9750 H   0  0  0  0  0  0  0  0  0  0  0  0
   43.2730   29.4350   46.4680 H   0  0  0  0  0  0  0  0  0  0  0  0
   42.9860   27.0860   46.0600 H   0  0  0  0  0  0  0  0  0  0  0  0
   44.6670   26.9480   45.3140 H   0  0  0  0  0  0  0  0  0  0  0  0
   43.7880   27.1150   48.1950 H   0  0  0  0  0  0  0  0  0  0  0  0
   45.0530   26.1010   47.4750 H   0  0  0  0  0  0  0  0  0  0  0  0
   45.5450   28.3930   48.7570 H   0  0  0  0  0  0  0  0  0  0  0  0
   46.6250   27.7210   47.3940 H   0  0  0  0  0  0  0  0  0  0  0  0
   45.7740   33.8330   45.0760 C   0  0  0  0  0  0  0  0  0  0  0  0
   44.8530   34.7840   45.2870 N   0  0  0  0  0  0  0  0  0  0  0  0
   44.6300   35.8170   44.4790 C   0  0  0  0  0  0  0  0  0  0  0  0
   45.3590   35.9670   43.3490 N   0  0  0  0  0  0  0  0  0  0  0  0
   46.3010   35.0910   43.0300 C   0  0  0  0  0  0  0  0  0  0  0  0
   47.0600   35.2370   41.8780 C   0  0  0  0  0  0  0  0  0  0  0  0
   48.0340   34.3500   41.5450 C   0  0  0  0  0  0  0  0  0  0  0  0
   48.2480   33.2900   42.3910 C   0  0  0  0  0  0  0  0  0  0  0  0
   47.4760   33.1660   43.5350 C   0  0  0  0  0  0  0  0  0  0  0  0
   46.4930   34.0340   43.9020 C   0  0  0  0  0  0  0  0  0  0  0  0
   43.8500   36.5350   44.7530 H   0  0  0  0  0  0  0  0  0  0  0  0
   46.8710   36.0800   41.2280 H   0  0  0  0  0  0  0  0  0  0  0  0
   48.6110   34.4880   40.6410 H   0  0  0  0  0  0  0  0  0  0  0  0
   47.8280   32.0080   44.2880 N   0  0  0  0  0  0  0  0  0  0  0  0
   47.2350   31.2660   43.8480 H   0  0  0  0  0  0  0  0  0  0  0  0
   48.4830   31.8160   45.0720 H   0  0  0  0  0  0  0  0  0  0  0  0
   49.3230   32.3380   42.0060 C   0  0  0  0  0  2  0  0  0  0  0  0
   49.1200   31.7670   40.7000 N   0  0  0  0  0  4  0  0  0  0  0  0
   48.5510   32.4200   40.1330 H   0  0  0  0  0  0  0  0  0  0  0  0
   48.5380   30.4490   40.7360 C   0  0  0  0  0  2  0  0  0  0  0  0
   48.2530   30.1870   39.6950 H   0  0  0  0  0  0  0  0  0  0  0  0
   50.3960   31.6100   40.0080 C   0  0  0  0  0  2  0  0  0  0  0  0
   50.8910   30.6840   40.4110 H   0  0  0  0  0  0  0  0  0  0  0  0
   47.2750   29.9730   48.8280 N   0  0  0  0  0  0  0  0  0  0  0  0
   48.0020   29.2880   48.5260 H   0  0  0  0  0  0  0  0  0  0  0  0
   46.9660   29.9440   49.8470 H   0  0  0  0  0  0  0  0  0  0  0  0
  1  2  1  0  0  0  0
  1 12  1  0  0  0  0
  2 44  1  0  0  0  0
  3  2  2  0  0  0  0
  4  3  1  0  0  0  0
  5  4  2  0  0  0  0
  5  6  1  0  0  0  0
  6  1  2  0  0  0  0
  7  3  1  0  0  0  0
  7 11  1  0  0  0  0
  8  9  1  0  0  0  0
  8 14  1  0  0  0  0
  8  7  1  0  0  0  0
  9 10  1  0  0  0  0
 10 18  1  0  0  0  0
 10 11  1  0  0  0  0
 10 17  1  0  0  0  0
 11 19  1  0  0  0  0
 13  8  1  0  0  0  0
 15  9  1  0  0  0  0
 16  9  1  0  0  0  0
 20 11  1  0  0  0  0
 21 22  1  0  0  0  0
 21  5  1  0  0  0  0
 23 31  1  0  0  0  0
 23 22  2  0  0  0  0
 24 23  1  0  0  0  0
 25 24  2  0  0  0  0
 25 30  1  0  0  0  0
 26 25  1  0  0  0  0
 27 26  2  0  0  0  0
 27 28  1  0  0  0  0
 28 29  2  0  0  0  0
 29 30  1  0  0  0  0
 29 34  1  0  0  0  0
 30 21  2  0  0  0  0
 32 26  1  0  0  0  0
 33 27  1  0  0  0  0
 34 36  1  0  0  0  0
 35 34  1  0  0  0  0
 37 28  1  0  0  0  0
 38 40  1  0  0  0  0
 38 37  1  0  0  0  0
 39 38  1  0  0  0  0
 41 40  1  0  0  0  0
 42 43  1  0  0  0  0
 42 38  1  0  0  0  0
 44 46  1  0  0  0  0
 45 44  1  0  0  0  0
M  END
>  <minimizedAffinity>
-6.32559061

>  <minimizedRMSD>
0.610792816

$$$$
