
 OpenBabel03252501053D

 38 40  0  0  1  0  0  0  0  0999 V2000
   48.5390   32.4210   38.1300 O   0  0  0  0  0  0  0  0  0  0  0  0
   48.0690   33.8710   38.2430 P   0  0  2  0  0  0  0  0  0  0  0  0
   49.3220   34.7990   37.5760 O   0  0  0  0  0  0  0  0  0  0  0  0
   48.9920   35.7360   37.5350 H   0  0  0  0  0  0  0  0  0  0  0  0
   47.6570   34.2730   39.7740 O   0  0  0  0  0  0  0  0  0  0  0  0
   48.1640   35.3600   41.8750 C   0  0  1  0  0  0  0  0  0  0  0  0
   49.2850   34.4350   41.6660 C   0  0  0  0  0  0  0  0  0  0  0  0
   48.4990   35.0430   40.4900 C   0  0  1  0  0  0  0  0  0  0  0  0
   48.3730   36.3610   42.2840 H   0  0  0  0  0  0  0  0  0  0  0  0
   49.1720   33.3200   41.7440 H   0  0  0  0  0  0  0  0  0  0  0  0
   50.3380   34.7440   41.7980 H   0  0  0  0  0  0  0  0  0  0  0  0
   49.1340   35.7330   39.9030 H   0  0  0  0  0  0  0  0  0  0  0  0
   45.7920   32.8460   43.4290 C   0  0  0  0  0  0  0  0  0  0  0  0
   46.9630   33.4220   42.9440 C   0  0  0  0  0  0  0  0  0  0  0  0
   46.9140   34.7270   42.4180 C   0  0  0  0  0  0  0  0  0  0  0  0
   45.7260   35.3830   42.3990 N   0  0  0  0  0  0  0  0  0  0  0  0
   44.5980   34.8030   42.8760 C   0  0  0  0  0  0  0  0  0  0  0  0
   44.6290   33.5410   43.3890 N   0  0  0  0  0  0  0  0  0  0  0  0
   45.8390   31.8440   43.8320 H   0  0  0  0  0  0  0  0  0  0  0  0
   47.8710   32.8610   42.9820 H   0  0  0  0  0  0  0  0  0  0  0  0
   43.6940   35.4070   42.8200 H   0  0  0  0  0  0  0  0  0  0  0  0
   46.7530   33.9850   37.2080 O   0  0  0  0  0  0  0  0  0  0  0  0
   45.7560   33.0250   37.1160 C   0  0  0  0  0  0  0  0  0  0  0  0
   45.6640   31.9700   36.2270 C   0  0  0  0  0  0  0  0  0  0  0  0
   44.6100   31.1120   36.2710 C   0  0  0  0  0  0  0  0  0  0  0  0
   43.6020   31.2610   37.1990 C   0  0  0  0  0  0  0  0  0  0  0  0
   43.7300   32.3390   38.0820 C   0  0  0  0  0  0  0  0  0  0  0  0
   44.7920   33.1930   38.0270 N   0  0  0  0  0  0  0  0  0  0  0  0
   46.4880   31.9120   35.5250 H   0  0  0  0  0  0  0  0  0  0  0  0
   44.6000   30.3090   35.5450 H   0  0  0  0  0  0  0  0  0  0  0  0
   42.7750   30.5940   37.2400 H   0  0  0  0  0  0  0  0  0  0  0  0
   42.6460   32.5050   39.0850 C   0  0  0  0  0  2  0  0  0  0  0  0
   43.0790   32.5030   40.4470 N   0  0  0  0  0  4  0  0  0  0  0  0
   43.7530   33.2670   40.6760 H   0  0  0  0  0  0  0  0  0  0  0  0
   41.9150   32.7700   41.2810 C   0  0  0  0  0  2  0  0  0  0  0  0
   40.9730   32.5710   40.7030 H   0  0  0  0  0  0  0  0  0  0  0  0
   43.5740   31.1990   40.8530 C   0  0  0  0  0  2  0  0  0  0  0  0
   42.6760   30.5520   41.0550 H   0  0  0  0  0  0  0  0  0  0  0  0
  2  1  2  1  0  0  0
  2  5  1  0  0  0  0
  3  2  1  0  0  0  0
  4  3  1  0  0  0  0
  5  8  1  0  0  0  0
  6  9  1  1  0  0  0
  6 15  1  0  0  0  0
  7 10  1  0  0  0  0
  7 11  1  0  0  0  0
  7  6  1  0  0  0  0
  8 12  1  6  0  0  0
  8  7  1  0  0  0  0
  8  6  1  0  0  0  0
 13 19  1  0  0  0  0
 14 20  1  0  0  0  0
 14 13  2  0  0  0  0
 15 14  1  0  0  0  0
 16 15  2  0  0  0  0
 16 17  1  0  0  0  0
 17 18  2  0  0  0  0
 18 13  1  0  0  0  0
 21 17  1  0  0  0  0
 22  2  1  0  0  0  0
 23 22  1  0  0  0  0
 23 28  1  0  0  0  0
 24 25  1  0  0  0  0
 24 23  2  0  0  0  0
 25 26  2  0  0  0  0
 26 31  1  0  0  0  0
 26 27  1  0  0  0  0
 27 32  1  0  0  0  0
 28 27  2  0  0  0  0
 29 24  1  0  0  0  0
 30 25  1  0  0  0  0
 32 33  1  0  0  0  0
 33 34  1  0  0  0  0
 33 37  1  0  0  0  0
 33 35  1  0  0  0  0
 36 35  1  0  0  0  0
 37 38  1  0  0  0  0
M  END
>  <minimizedAffinity>
-4.29374743

>  <minimizedRMSD>
0.577735126

$$$$
