
     RDKit          3D

 44 46  0  0  0  0  0  0  0  0999 V2000
   48.0817   35.4705   41.8060 C   0  0  1  0  0  0  0  0  0  0  0  0
   49.3195   34.6879   41.6909 C   0  0  0  0  0  0  0  0  0  0  0  0
   48.4835   35.0784   40.4576 C   0  0  1  0  0  0  0  0  0  0  0  0
   46.0523   32.9326   43.7541 C   0  0  0  0  0  0  0  0  0  0  0  0
   47.1442   33.6166   43.2292 C   0  0  0  0  0  0  0  0  0  0  0  0
   46.9155   34.7280   42.3945 C   0  0  0  0  0  0  0  0  0  0  0  0
   45.6377   35.0968   42.1282 N   0  0  0  0  0  0  0  0  0  0  0  0
   44.5886   34.4156   42.6503 C   0  0  0  0  0  0  0  0  0  0  0  0
   44.7926   33.3390   43.4593 N   0  0  0  0  0  0  0  0  0  0  0  0
   47.7645   34.1411   39.8091 O   0  0  0  0  0  0  0  0  0  0  0  0
   48.5147   32.4035   37.9853 O   0  0  0  0  0  0  0  0  0  0  0  0
   48.0908   33.8509   38.2334 P   0  0  2  0  0  0  0  0  0  0  0  0
   49.3353   34.7988   37.5775 O   0  0  0  0  0  0  0  0  0  0  0  0
   46.7304   34.0767   37.2767 O   0  0  0  0  0  0  0  0  0  0  0  0
   45.7873   33.0913   37.0289 C   0  0  0  0  0  0  0  0  0  0  0  0
   45.6630   32.2882   35.9097 C   0  0  0  0  0  0  0  0  0  0  0  0
   44.6721   31.3611   35.8240 C   0  0  0  0  0  0  0  0  0  0  0  0
   43.7612   31.1889   36.8426 C   0  0  0  0  0  0  0  0  0  0  0  0
   43.9182   32.0192   37.9590 C   0  0  0  0  0  0  0  0  0  0  0  0
   44.9159   32.9447   38.0327 N   0  0  0  0  0  0  0  0  0  0  0  0
   48.1488   36.5235   42.1226 H   0  0  0  0  0  0  0  0  0  0  0  0
   49.3535   33.5800   41.8704 H   0  0  0  0  0  0  0  0  0  0  0  0
   50.3192   35.1453   41.8015 H   0  0  0  0  0  0  0  0  0  0  0  0
   49.0324   35.7911   39.8148 H   0  0  0  0  0  0  0  0  0  0  0  0
   46.2360   32.0809   44.3941 H   0  0  0  0  0  0  0  0  0  0  0  0
   48.1304   33.2838   43.4712 H   0  0  0  0  0  0  0  0  0  0  0  0
   43.6009   34.7866   42.3796 H   0  0  0  0  0  0  0  0  0  0  0  0
   49.0289   35.7436   37.6256 H   0  0  0  0  0  0  0  0  0  0  0  0
   46.4110   32.4763   35.1485 H   0  0  0  0  0  0  0  0  0  0  0  0
   44.6332   30.7667   34.9201 H   0  0  0  0  0  0  0  0  0  0  0  0
   42.9830   30.4658   36.7832 H   0  0  0  0  0  0  0  0  0  0  0  0
   42.9378   31.8372   39.0609 C   0  0  0  0  0  0  0  0  0  0  0  0
   41.7626   32.6447   38.9617 N   0  0  0  0  0  4  0  0  0  0  0  0
   41.2262   32.8111   40.3053 C   0  0  0  0  0  0  0  0  0  0  0  0
   42.0156   32.5759   41.0681 H   0  0  0  0  0  0  0  0  0  0  0  0
   42.0655   33.9813   38.4814 C   0  0  0  0  0  0  0  0  0  0  0  0
   42.4846   34.5594   39.3507 H   0  0  0  0  0  0  0  0  0  0  0  0
   43.4062   32.0191   40.0537 H   0  0  0  0  0  0  0  0  0  0  0  0
   42.5928   30.7766   39.0721 H   0  0  0  0  0  0  0  0  0  0  0  0
   40.9889   32.1992   38.4186 H   0  0  0  0  0  0  0  0  0  0  0  0
   40.3953   32.0728   40.5041 H   0  0  0  0  0  0  0  0  0  0  0  0
   40.8923   33.8396   40.4902 H   0  0  0  0  0  0  0  0  0  0  0  0
   42.8188   34.0153   37.6832 H   0  0  0  0  0  0  0  0  0  0  0  0
   41.1223   34.5046   38.2063 H   0  0  0  0  0  0  0  0  0  0  0  0
  1  6  1  0
  2  1  1  0
  3  2  1  0
  3  1  1  0
  5  4  2  0
  6  5  1  0
  7  6  2  0
  7  8  1  0
  8  9  2  0
  9  4  1  0
 10  3  1  0
 12 11  2  0
 12 10  1  1
 13 12  1  0
 14 12  1  0
 15 14  1  0
 15 20  1  0
 16 15  2  0
 17 16  1  0
 17 18  2  0
 18 19  1  0
 19 20  2  0
  1 21  1  6
  2 22  1  0
  2 23  1  0
  3 24  1  6
  4 25  1  0
  5 26  1  0
  8 27  1  0
 13 28  1  0
 16 29  1  0
 17 30  1  0
 18 31  1  0
 32 33  1  0
 33 34  1  0
 34 35  1  0
 33 36  1  0
 36 37  1  0
 32 38  1  0
 32 39  1  0
 33 40  1  0
 34 41  1  0
 34 42  1  0
 36 43  1  0
 36 44  1  0
 19 32  1  0
M  ISO  8  21  13  22  13  23  13  24  13  25  14  26  14  27  14  28   3
M  CHG  1  33   1
M  ISO  5  29  14  30  14  31  14  35   8  37   8
M  END
>  <DihAtoms>  (1) 
17,18,31,32

>  <DihDeg>  (1) 
-89.99890823612171

$$$$
