
 OpenBabel03242523193D

 35 37  0  0  0  0  0  0  0  0999 V2000
   46.4410   33.5220   44.6330 C   0  0  0  0  0  0  0  0  0  0  0  0
   45.8700   33.8750   45.6360 O   0  0  0  0  0  0  0  0  0  0  0  0
   44.6050   31.6950   42.9610 Cl  0  0  0  0  0  0  0  0  0  0  0  0
   44.6140   33.4540   42.8000 C   0  0  0  0  0  0  0  0  0  0  0  0
   45.5180   34.1350   43.6430 C   0  0  0  0  0  0  0  0  0  0  0  0
   45.4470   35.5000   43.4180 C   0  0  0  0  0  0  0  0  0  0  0  0
   44.6880   36.1980   42.5630 C   0  0  0  0  0  0  0  0  0  0  0  0
   43.8420   35.4650   41.7860 C   0  0  0  0  0  0  0  0  0  0  0  0
   43.7870   34.1160   41.8860 C   0  0  0  0  0  0  0  0  0  0  0  0
   46.0720   36.1880   44.0290 H   0  0  0  0  0  0  0  0  0  0  0  0
   44.6790   37.2690   42.4320 H   0  0  0  0  0  0  0  0  0  0  0  0
   43.1660   35.8890   41.0490 H   0  0  0  0  0  0  0  0  0  0  0  0
   42.8470   33.2950   41.0610 C   0  0  0  0  0  2  0  0  0  0  0  0
   43.4550   32.7850   39.8710 N   0  0  0  0  0  4  0  0  0  0  0  0
   43.5840   31.7380   40.0420 H   0  0  0  0  0  0  0  0  0  0  0  0
   44.7200   33.3360   39.5100 C   0  0  0  0  0  2  0  0  0  0  0  0
   44.6260   33.9960   38.5980 H   0  0  0  0  0  0  0  0  0  0  0  0
   42.5510   32.8780   38.7440 C   0  0  0  0  0  2  0  0  0  0  0  0
   42.0280   31.9050   38.5460 H   0  0  0  0  0  0  0  0  0  0  0  0
   47.5170   32.8330   43.9100 C   0  0  0  0  0  0  0  0  0  0  0  0
   48.3530   33.3850   43.0170 C   0  0  0  0  0  0  0  0  0  0  0  0
   49.2140   32.4940   42.4100 C   0  0  0  0  0  0  0  0  0  0  0  0
   49.1460   31.1340   42.7710 N   0  0  0  0  0  0  0  0  0  0  0  0
   48.2990   30.6720   43.6610 C   0  0  0  0  0  0  0  0  0  0  0  0
   47.4210   31.5330   44.2860 N   0  0  0  0  0  0  0  0  0  0  0  0
   49.9470   32.7730   41.6640 H   0  0  0  0  0  0  0  0  0  0  0  0
   48.3660   29.6030   43.8380 H   0  0  0  0  0  0  0  0  0  0  0  0
   48.4990   34.7700   42.7370 C   0  0  0  0  0  0  0  0  0  0  0  0
   49.5210   35.4090   42.1110 C   0  0  0  0  0  0  0  0  0  0  0  0
   48.3230   35.2140   41.2240 C   0  0  0  0  0  0  0  0  0  0  0  0
   47.9910   35.4230   43.4700 H   0  0  0  0  0  0  0  0  0  0  0  0
   50.4130   34.8360   41.7540 H   0  0  0  0  0  0  0  0  0  0  0  0
   49.8220   36.4890   42.1770 H   0  0  0  0  0  0  0  0  0  0  0  0
   48.3080   34.3750   40.5160 H   0  0  0  0  0  0  0  0  0  0  0  0
   47.6210   36.0510   41.1010 H   0  0  0  0  0  0  0  0  0  0  0  0
  1  2  2  0  0  0  0
  4  3  1  0  0  0  0
  4  5  1  0  0  0  0
  5  1  1  0  0  0  0
  6  5  2  0  0  0  0
  6 10  1  0  0  0  0
  7  6  1  0  0  0  0
  8  9  1  0  0  0  0
  8  7  2  0  0  0  0
  9  4  2  0  0  0  0
 11  7  1  0  0  0  0
 12  8  1  0  0  0  0
 13  9  1  0  0  0  0
 14 15  1  0  0  0  0
 14 13  1  0  0  0  0
 16 14  1  0  0  0  0
 17 16  1  0  0  0  0
 18 14  1  0  0  0  0
 19 18  1  0  0  0  0
 20 25  1  0  0  0  0
 20  1  1  0  0  0  0
 21 20  2  0  0  0  0
 22 23  2  0  0  0  0
 22 21  1  0  0  0  0
 23 24  1  0  0  0  0
 24 27  1  0  0  0  0
 24 25  2  0  0  0  0
 26 22  1  0  0  0  0
 28 21  1  0  0  0  0
 28 31  1  0  0  0  0
 29 33  1  0  0  0  0
 29 28  1  0  0  0  0
 30 29  1  0  0  0  0
 30 28  1  0  0  0  0
 32 29  1  0  0  0  0
 34 30  1  0  0  0  0
 35 30  1  0  0  0  0
M  END
>  <minimizedAffinity>
-4.93357563

>  <minimizedRMSD>
0.2060498

$$$$
