
     RDKit          3D

 47 48  0  0  0  0  0  0  0  0999 V2000
   46.4536   32.2102   47.6853 C   0  0  0  0  0  0  0  0  0  0  0  0
   46.4956   32.7803   45.4140 C   0  0  0  0  0  0  0  0  0  0  0  0
   45.8365   31.8350   44.9344 O   0  0  0  0  0  0  0  0  0  0  0  0
   46.8733   33.1292   46.7073 N   0  0  0  0  0  0  0  0  0  0  0  0
   44.8266   35.1695   44.5069 Cl  0  0  0  0  0  0  0  0  0  0  0  0
   46.2095   34.6041   43.6089 C   0  0  0  0  0  0  0  0  0  0  0  0
   46.8183   33.5215   44.1878 C   0  0  0  0  0  0  0  0  0  0  0  0
   47.9457   32.9414   43.5981 C   0  0  0  0  0  0  0  0  0  0  0  0
   48.4572   33.4666   42.4119 C   0  0  0  0  0  0  0  0  0  0  0  0
   47.8187   34.5657   41.8472 C   0  0  0  0  0  0  0  0  0  0  0  0
   48.4223   35.2667   40.3619 Cl  0  0  0  0  0  0  0  0  0  0  0  0
   46.7156   35.1172   42.4425 C   0  0  0  0  0  0  0  0  0  0  0  0
   48.5693   31.4352   48.6005 C   0  0  0  0  0  0  0  0  0  0  0  0
   47.4295   32.0669   48.7977 C   0  0  0  0  0  0  0  0  0  0  0  0
   51.2819   32.1571   50.9402 C   0  0  0  0  0  0  0  0  0  0  0  0
   51.3536   30.9489   51.6889 C   0  0  0  0  0  0  0  0  0  0  0  0
   50.4964   29.9196   51.3739 C   0  0  0  0  0  0  0  0  0  0  0  0
   49.6405   30.1328   50.3746 N   0  0  0  0  0  0  0  0  0  0  0  0
   49.5615   31.2677   49.6650 C   0  0  0  0  0  0  0  0  0  0  0  0
   50.3854   32.2909   49.9421 N   0  0  0  0  0  0  0  0  0  0  0  0
   50.5184   28.7487   52.0396 O   0  0  0  0  0  0  0  0  0  0  0  0
   51.4781   27.7648   51.6272 C   0  0  0  0  0  0  0  0  0  0  0  0
   51.9341   28.0752   50.3345 F   0  0  0  0  0  0  0  0  0  0  0  0
   52.5642   27.8954   52.4892 F   0  0  0  0  0  0  0  0  0  0  0  0
   51.0132   26.4595   51.7033 F   0  0  0  0  0  0  0  0  0  0  0  0
   46.2627   31.1836   47.3492 H   0  0  0  0  0  0  0  0  0  0  0  0
   45.4745   32.5881   48.1105 H   0  0  0  0  0  0  0  0  0  0  0  0
   47.4102   33.9942   46.8492 H   0  0  0  0  0  0  0  0  0  0  0  0
   48.5052   32.1117   43.9363 H   0  0  0  0  0  0  0  0  0  0  0  0
   49.3223   33.0782   41.8943 H   0  0  0  0  0  0  0  0  0  0  0  0
   46.1766   35.9723   42.0502 H   0  0  0  0  0  0  0  0  0  0  0  0
   48.7315   31.0445   47.6038 H   0  0  0  0  0  0  0  0  0  0  0  0
   47.2256   32.4694   49.7665 H   0  0  0  0  0  0  0  0  0  0  0  0
   51.9039   33.0307   51.0923 H   0  0  0  0  0  0  0  0  0  0  0  0
   52.3435   31.0652   52.7789 C   0  0  0  0  0  0  0  0  0  0  0  0
   52.2654   32.4145   53.3869 N   0  0  0  0  0  4  0  0  0  0  0  0
   51.7074   32.3619   54.7237 C   0  0  0  0  0  0  0  0  0  0  0  0
   52.2613   33.0665   55.4043 H   0  0  0  0  0  0  0  0  0  0  0  0
   53.5727   33.0288   53.4397 C   0  0  0  0  0  0  0  0  0  0  0  0
   53.7837   33.3928   54.4860 H   0  0  0  0  0  0  0  0  0  0  0  0
   53.4046   30.9599   52.3907 H   0  0  0  0  0  0  0  0  0  0  0  0
   52.2830   30.3775   53.6020 H   0  0  0  0  0  0  0  0  0  0  0  0
   51.6014   33.0266   52.8229 H   0  0  0  0  0  0  0  0  0  0  0  0
   50.6187   32.6547   54.7491 H   0  0  0  0  0  0  0  0  0  0  0  0
   51.8322   31.3523   55.1568 H   0  0  0  0  0  0  0  0  0  0  0  0
   53.5581   33.9667   52.8291 H   0  0  0  0  0  0  0  0  0  0  0  0
   54.3741   32.3313   53.1745 H   0  0  0  0  0  0  0  0  0  0  0  0
  1 14  1  0
  2  4  1  0
  3  2  2  0
  4  1  1  0
  6  7  2  0
  6  5  1  0
  7  2  1  0
  8  7  1  0
  9  8  2  0
 10  9  1  0
 10 12  2  0
 11 10  1  0
 12  6  1  0
 13 14  2  0
 13 19  1  0
 15 16  2  0
 17 16  1  0
 17 21  1  0
 18 17  2  0
 19 20  2  0
 19 18  1  0
 20 15  1  0
 22 25  1  0
 22 21  1  0
 22 24  1  0
 23 22  1  0
  1 26  1  0
  1 27  1  0
  4 28  1  0
  8 29  1  0
  9 30  1  0
 12 31  1  0
 13 32  1  0
 14 33  1  0
 15 34  1  0
 35 36  1  0
 36 37  1  0
 37 38  1  0
 36 39  1  0
 39 40  1  0
 35 41  1  0
 35 42  1  0
 36 43  1  0
 37 44  1  0
 37 45  1  0
 39 46  1  0
 39 47  1  0
 16 35  1  0
M  ISO  8  26   8  27   8  29  14  30  14  31  14  34  14  38   8  40   8
M  CHG  1  36   1
M  END
>  <DihAtoms>  (1) 
14,15,34,35

>  <DihDeg>  (1) 
99.33208002026988

$$$$
