
 OpenBabel03252500243D

 35 36  0  0  1  0  0  0  0  0999 V2000
   46.8780   30.0850   48.0240 C   0  0  2  0  0  0  0  0  0  0  0  0
   45.4420   30.3870   48.2200 C   0  0  2  0  0  0  0  0  0  0  0  0
   44.7580   29.5400   47.2110 C   0  0  0  0  0  0  0  0  0  0  0  0
   45.5360   28.4170   47.0090 O   0  0  0  0  0  0  0  0  0  0  0  0
   46.7240   28.5880   47.6400 C   0  0  0  0  0  0  0  0  0  0  0  0
   47.4870   30.4340   47.2430 H   0  0  0  0  0  0  0  0  0  0  0  0
   45.2130   30.0010   49.2510 H   0  0  0  0  0  0  0  0  0  0  0  0
   43.8290   29.1180   47.7060 H   0  0  0  0  0  0  0  0  0  0  0  0
   44.3420   30.0190   46.3250 H   0  0  0  0  0  0  0  0  0  0  0  0
   46.7190   28.0830   48.6470 H   0  0  0  0  0  0  0  0  0  0  0  0
   47.5800   28.2070   47.0920 H   0  0  0  0  0  0  0  0  0  0  0  0
   45.1420   31.7240   48.0870 O   0  0  0  0  0  0  0  0  0  0  0  0
   47.3560   32.8470   47.4200 O   0  0  0  0  0  0  0  0  0  0  0  0
   46.0360   32.3960   46.8590 P   0  0  1  0  0  0  0  0  0  0  0  0
   46.3280   31.2260   45.6680 O   0  0  0  0  0  0  0  0  0  0  0  0
   45.8620   31.4360   44.8400 H   0  0  0  0  0  0  0  0  0  0  0  0
   45.2920   33.7850   46.1940 O   0  0  0  0  0  0  0  0  0  0  0  0
   45.2170   35.8700   43.2900 C   0  0  0  0  0  0  0  0  0  0  0  0
   46.2700   35.3680   42.4740 C   0  0  0  0  0  0  0  0  0  0  0  0
   47.0000   34.2810   42.9810 C   0  0  0  0  0  0  0  0  0  0  0  0
   46.6650   33.7850   44.1880 N   0  0  0  0  0  0  0  0  0  0  0  0
   45.6580   34.2870   44.9330 C   0  0  0  0  0  0  0  0  0  0  0  0
   44.9390   35.3300   44.4770 N   0  0  0  0  0  0  0  0  0  0  0  0
   46.5120   35.7890   41.5130 H   0  0  0  0  0  0  0  0  0  0  0  0
   47.8190   33.8380   42.4220 H   0  0  0  0  0  0  0  0  0  0  0  0
   44.5060   36.9320   42.7940 O   0  0  0  0  0  0  0  0  0  0  0  0
   44.9500   37.8220   42.6660 H   0  0  0  0  0  0  0  0  0  0  0  0
   47.6620   30.2280   49.1300 O   0  0  0  0  0  0  0  0  0  0  0  0
   48.9760   30.2360   49.1460 C   0  0  0  0  0  2  0  0  0  0  0  0
   49.5270   30.9680   50.3060 N   0  0  0  0  0  4  0  0  0  0  0  0
   48.7910   31.3090   50.9320 H   0  0  0  0  0  0  0  0  0  0  0  0
   50.3640   30.0490   51.0930 C   0  0  0  0  0  2  0  0  0  0  0  0
   49.9240   29.0290   50.8980 H   0  0  0  0  0  0  0  0  0  0  0  0
   50.4010   32.0400   49.9080 C   0  0  0  0  0  2  0  0  0  0  0  0
   49.9120   32.9920   49.7080 H   0  0  0  0  0  0  0  0  0  0  0  0
  1  6  1  6  0  0  0
  1  2  1  0  0  0  0
  1 28  1  0  0  0  0
  2  7  1  1  0  0  0
  3  8  1  0  0  0  0
  3  2  1  0  0  0  0
  4  3  1  0  0  0  0
  4  5  1  0  0  0  0
  5  1  1  0  0  0  0
  5 10  1  0  0  0  0
  9  3  1  0  0  0  0
 11  5  1  0  0  0  0
 12  2  1  0  0  0  0
 14 13  2  1  0  0  0
 14 12  1  0  0  0  0
 15 14  1  0  0  0  0
 16 15  1  0  0  0  0
 17 14  1  0  0  0  0
 18 23  1  0  0  0  0
 19 20  1  0  0  0  0
 19 18  2  0  0  0  0
 20 21  2  0  0  0  0
 21 22  1  0  0  0  0
 22 17  1  0  0  0  0
 23 22  2  0  0  0  0
 24 19  1  0  0  0  0
 25 20  1  0  0  0  0
 26 18  1  0  0  0  0
 27 26  1  0  0  0  0
 28 29  1  0  0  0  0
 29 30  1  0  0  0  0
 30 31  1  0  0  0  0
 30 32  1  0  0  0  0
 33 32  1  0  0  0  0
 34 30  1  0  0  0  0
 35 34  1  0  0  0  0
M  END
>  <minimizedAffinity>
-4.9694376

>  <minimizedRMSD>
0.784112573

$$$$
