
 OpenBabel03252502073D

 46 49  0  0  0  0  0  0  0  0999 V2000
   47.3220   32.1390   47.8690 C   0  0  0  0  0  0  0  0  0  0  0  0
   46.7950   30.8410   47.8780 C   0  0  0  0  0  0  0  0  0  0  0  0
   45.8840   30.5440   46.9220 C   0  0  0  0  0  0  0  0  0  0  0  0
   45.5280   31.4710   46.0180 N   0  0  0  0  0  0  0  0  0  0  0  0
   46.0100   32.6940   45.9870 C   0  0  0  0  0  0  0  0  0  0  0  0
   46.9200   33.0160   46.9360 N   0  0  0  0  0  0  0  0  0  0  0  0
   45.3030   29.2970   46.8780 N   0  0  0  0  0  0  0  0  0  0  0  0
   44.1650   28.9230   45.9890 C   0  0  0  0  0  0  0  0  0  0  0  0
   44.0630   27.4280   46.0630 C   0  0  0  0  0  0  0  0  0  0  0  0
   44.6120   27.1200   47.4130 C   0  0  0  0  0  0  0  0  0  0  0  0
   45.6590   28.1530   47.6640 C   0  0  0  0  0  0  0  0  0  0  0  0
   48.0630   32.4300   48.6250 H   0  0  0  0  0  0  0  0  0  0  0  0
   44.3330   29.2270   44.9590 H   0  0  0  0  0  0  0  0  0  0  0  0
   43.2750   29.4320   46.4490 H   0  0  0  0  0  0  0  0  0  0  0  0
   42.9900   27.0840   46.0370 H   0  0  0  0  0  0  0  0  0  0  0  0
   44.6740   26.9480   45.2950 H   0  0  0  0  0  0  0  0  0  0  0  0
   43.7870   27.1100   48.1750 H   0  0  0  0  0  0  0  0  0  0  0  0
   45.0550   26.0990   47.4570 H   0  0  0  0  0  0  0  0  0  0  0  0
   45.5420   28.3890   48.7430 H   0  0  0  0  0  0  0  0  0  0  0  0
   46.6260   27.7200   47.3820 H   0  0  0  0  0  0  0  0  0  0  0  0
   45.7750   33.8340   45.0690 C   0  0  0  0  0  0  0  0  0  0  0  0
   44.8570   34.7870   45.2820 N   0  0  0  0  0  0  0  0  0  0  0  0
   44.6360   35.8210   44.4750 C   0  0  0  0  0  0  0  0  0  0  0  0
   45.3640   35.9700   43.3440 N   0  0  0  0  0  0  0  0  0  0  0  0
   46.3040   35.0930   43.0240 C   0  0  0  0  0  0  0  0  0  0  0  0
   47.0620   35.2380   41.8710 C   0  0  0  0  0  0  0  0  0  0  0  0
   48.0340   34.3490   41.5370 C   0  0  0  0  0  0  0  0  0  0  0  0
   48.2470   33.2880   42.3820 C   0  0  0  0  0  0  0  0  0  0  0  0
   47.4760   33.1650   43.5270 C   0  0  0  0  0  0  0  0  0  0  0  0
   46.4940   34.0350   43.8950 C   0  0  0  0  0  0  0  0  0  0  0  0
   43.8570   36.5400   44.7500 H   0  0  0  0  0  0  0  0  0  0  0  0
   46.8740   36.0810   41.2220 H   0  0  0  0  0  0  0  0  0  0  0  0
   48.6100   34.4860   40.6320 H   0  0  0  0  0  0  0  0  0  0  0  0
   47.8250   32.0060   44.2790 N   0  0  0  0  0  0  0  0  0  0  0  0
   47.2310   31.2650   43.8390 H   0  0  0  0  0  0  0  0  0  0  0  0
   48.4810   31.8120   45.0620 H   0  0  0  0  0  0  0  0  0  0  0  0
   49.3190   32.3340   41.9950 C   0  0  0  0  0  2  0  0  0  0  0  0
   49.2450   31.9440   40.6130 N   0  0  0  0  0  4  0  0  0  0  0  0
   48.9230   32.7510   40.0520 H   0  0  0  0  0  0  0  0  0  0  0  0
   48.4240   30.7800   40.3890 C   0  0  0  0  0  2  0  0  0  0  0  0
   48.2830   30.6830   39.2920 H   0  0  0  0  0  0  0  0  0  0  0  0
   50.5690   31.5850   40.1120 C   0  0  0  0  0  2  0  0  0  0  0  0
   50.7970   30.5420   40.4660 H   0  0  0  0  0  0  0  0  0  0  0  0
   47.2700   29.9710   48.8210 N   0  0  0  0  0  0  0  0  0  0  0  0
   47.9990   29.2870   48.5200 H   0  0  0  0  0  0  0  0  0  0  0  0
   46.9580   29.9410   49.8390 H   0  0  0  0  0  0  0  0  0  0  0  0
  1  2  1  0  0  0  0
  1 12  1  0  0  0  0
  2 44  1  0  0  0  0
  3  2  2  0  0  0  0
  4  3  1  0  0  0  0
  5  4  2  0  0  0  0
  5  6  1  0  0  0  0
  6  1  2  0  0  0  0
  7  3  1  0  0  0  0
  7 11  1  0  0  0  0
  8  9  1  0  0  0  0
  8 14  1  0  0  0  0
  8  7  1  0  0  0  0
  9 10  1  0  0  0  0
 10 18  1  0  0  0  0
 10 11  1  0  0  0  0
 10 17  1  0  0  0  0
 11 19  1  0  0  0  0
 13  8  1  0  0  0  0
 15  9  1  0  0  0  0
 16  9  1  0  0  0  0
 20 11  1  0  0  0  0
 21 22  1  0  0  0  0
 21  5  1  0  0  0  0
 23 31  1  0  0  0  0
 23 22  2  0  0  0  0
 24 23  1  0  0  0  0
 25 24  2  0  0  0  0
 25 30  1  0  0  0  0
 26 25  1  0  0  0  0
 27 26  2  0  0  0  0
 27 28  1  0  0  0  0
 28 29  2  0  0  0  0
 29 30  1  0  0  0  0
 29 34  1  0  0  0  0
 30 21  2  0  0  0  0
 32 26  1  0  0  0  0
 33 27  1  0  0  0  0
 34 36  1  0  0  0  0
 35 34  1  0  0  0  0
 37 28  1  0  0  0  0
 38 37  1  0  0  0  0
 39 38  1  0  0  0  0
 40 38  1  0  0  0  0
 41 40  1  0  0  0  0
 42 43  1  0  0  0  0
 42 38  1  0  0  0  0
 44 46  1  0  0  0  0
 45 44  1  0  0  0  0
M  END
>  <minimizedAffinity>
-6.33897066

>  <minimizedRMSD>
0.759749889

$$$$
