
 OpenBabel03252507023D

 36 37  0  0  0  0  0  0  0  0999 V2000
   44.8180   34.5270   40.9680 C   0  0  0  0  0  0  0  0  0  0  0  0
   44.0680   34.5650   41.8260 H   0  0  0  0  0  0  0  0  0  0  0  0
   44.8510   35.6130   40.6820 H   0  0  0  0  0  0  0  0  0  0  0  0
   46.0430   34.0720   41.2040 N   0  0  0  0  0  0  0  0  0  0  0  0
   46.9080   33.3580   40.3340 C   0  0  0  0  0  0  0  0  0  0  0  0
   47.8620   34.5170   39.9510 C   0  0  0  0  0  0  0  0  0  0  0  0
   48.5740   35.0790   41.1000 C   0  0  0  0  0  0  0  0  0  0  0  0
   47.9940   34.9240   42.4350 C   0  0  0  0  0  0  0  0  0  0  0  0
   46.5950   34.3890   42.5250 C   0  0  0  0  0  0  0  0  0  0  0  0
   47.4200   32.4790   40.6790 H   0  0  0  0  0  0  0  0  0  0  0  0
   46.3310   33.1540   39.3870 H   0  0  0  0  0  0  0  0  0  0  0  0
   48.5710   34.1030   39.1880 H   0  0  0  0  0  0  0  0  0  0  0  0
   47.2010   35.2740   39.4690 H   0  0  0  0  0  0  0  0  0  0  0  0
   48.6990   36.1850   40.9240 H   0  0  0  0  0  0  0  0  0  0  0  0
   49.6300   34.6930   41.1720 H   0  0  0  0  0  0  0  0  0  0  0  0
   48.4430   35.1680   43.3630 H   0  0  0  0  0  0  0  0  0  0  0  0
   45.7640   34.2350   44.0760 S   0  0  0  0  0  0  0  0  0  0  0  0
   45.7010   32.8860   44.4740 H   0  0  0  0  0  0  0  0  0  0  0  0
   44.1190   33.7930   39.8630 C   0  0  0  0  0  0  0  0  0  0  0  0
   44.1550   32.6870   39.9530 H   0  0  0  0  0  0  0  0  0  0  0  0
   44.6230   34.0590   38.9120 H   0  0  0  0  0  0  0  0  0  0  0  0
   42.7250   34.3040   39.8110 C   0  0  0  0  0  0  0  0  0  0  0  0
   42.3310   35.1880   38.8260 C   0  0  0  0  0  0  0  0  0  0  0  0
   41.0000   35.6360   38.8540 C   0  0  0  0  0  0  0  0  0  0  0  0
   40.1720   35.1760   39.8440 N   0  0  0  0  0  0  0  0  0  0  0  0
   40.6210   34.3190   40.7660 C   0  0  0  0  0  0  0  0  0  0  0  0
   41.8710   33.8990   40.7390 N   0  0  0  0  0  0  0  0  0  0  0  0
   43.0120   35.5220   38.0720 H   0  0  0  0  0  0  0  0  0  0  0  0
   40.6390   36.3290   38.1070 H   0  0  0  0  0  0  0  0  0  0  0  0
   39.7180   33.8210   41.8410 C   0  0  0  0  0  0  0  0  0  0  0  0
   38.9580   32.6590   41.4640 N   0  0  0  0  0  0  0  0  0  0  0  0
   38.1250   32.6010   42.0930 H   0  0  0  0  0  0  0  0  0  0  0  0
   38.4490   32.6950   40.1160 C   0  0  0  0  0  0  0  0  0  0  0  0
   37.5160   33.2850   40.0320 H   0  0  0  0  0  0  0  0  0  0  0  0
   39.7160   31.4380   41.7160 C   0  0  0  0  0  0  0  0  0  0  0  0
   40.7550   31.7430   42.0260 H   0  0  0  0  0  0  0  0  0  0  0  0
  1  4  1  0  0  0  0
  1  2  1  0  0  0  0
  3  1  1  0  0  0  0
  4  9  1  0  0  0  0
  5 10  1  0  0  0  0
  5  4  1  0  0  0  0
  6  5  1  0  0  0  0
  6  7  1  0  0  0  0
  7 15  1  0  0  0  0
  7  8  1  0  0  0  0
  8  9  2  0  0  0  0
  8 16  1  0  0  0  0
  9 17  1  0  0  0  0
 11  5  1  0  0  0  0
 12  6  1  0  0  0  0
 13  6  1  0  0  0  0
 14  7  1  0  0  0  0
 17 18  1  0  0  0  0
 19 20  1  0  0  0  0
 19  1  1  0  0  0  0
 21 19  1  0  0  0  0
 22 19  1  0  0  0  0
 22 27  1  0  0  0  0
 23 24  1  0  0  0  0
 23 22  2  0  0  0  0
 24 25  2  0  0  0  0
 25 26  1  0  0  0  0
 26 30  1  0  0  0  0
 27 26  2  0  0  0  0
 28 23  1  0  0  0  0
 29 24  1  0  0  0  0
 31 35  1  0  0  0  0
 31 30  1  0  0  0  0
 31 32  1  0  0  0  0
 33 31  1  0  0  0  0
 34 33  1  0  0  0  0
 35 36  1  0  0  0  0
M  END
>  <minimizedAffinity>
-4.9296155

>  <minimizedRMSD>
2.33921456

$$$$
