
 OpenBabel03252503023D

 31 31  0  0  0  0  0  0  0  0999 V2000
   43.4130   33.8410   41.5060 S   0  0  0  0  0  0  0  0  0  0  0  0
   40.8480   32.7950   41.2450 C   0  0  0  0  0  0  0  0  0  0  0  0
   41.8220   33.5940   40.6860 C   0  0  0  0  0  0  0  0  0  0  0  0
   41.6130   34.2420   39.4630 C   0  0  0  0  0  0  0  0  0  0  0  0
   40.3980   34.0330   38.8710 N   0  0  0  0  0  0  0  0  0  0  0  0
   39.4720   33.2500   39.4400 C   0  0  0  0  0  0  0  0  0  0  0  0
   39.6740   32.6320   40.6060 N   0  0  0  0  0  0  0  0  0  0  0  0
   41.0250   32.2980   42.1940 H   0  0  0  0  0  0  0  0  0  0  0  0
   42.4090   34.8580   39.0680 H   0  0  0  0  0  0  0  0  0  0  0  0
   38.2090   33.1420   38.6450 C   0  0  0  0  0  2  0  0  0  0  0  0
   38.4500   32.8170   37.2690 N   0  0  0  0  0  4  0  0  0  0  0  0
   39.2960   33.2700   36.8640 H   0  0  0  0  0  0  0  0  0  0  0  0
   38.5650   31.3570   37.1390 C   0  0  0  0  0  2  0  0  0  0  0  0
   38.5240   30.8900   38.1340 H   0  0  0  0  0  0  0  0  0  0  0  0
   37.2870   33.2140   36.4970 C   0  0  0  0  0  2  0  0  0  0  0  0
   37.4880   33.2710   35.4050 H   0  0  0  0  0  0  0  0  0  0  0  0
   43.6280   35.5790   41.8990 C   0  0  0  0  0  0  0  0  0  0  0  0
   42.9150   36.1800   41.2740 H   0  0  0  0  0  0  0  0  0  0  0  0
   44.6790   35.8410   41.7050 H   0  0  0  0  0  0  0  0  0  0  0  0
   43.3510   35.7260   43.3180 N   0  0  0  0  0  0  0  0  0  0  0  0
   42.7390   36.5610   43.4600 H   0  0  0  0  0  0  0  0  0  0  0  0
   44.7690   35.9040   44.2610 S   0  0  0  0  0  0  0  0  0  0  0  0
   45.9700   35.3740   43.5560 O   0  0  0  0  0  0  0  0  0  0  0  0
   46.0760   34.5880   42.9840 H   0  0  0  0  0  0  0  0  0  0  0  0
   44.9280   37.3980   44.5100 O   0  0  0  0  0  0  0  0  0  0  0  0
   44.2260   37.9670   44.9150 H   0  0  0  0  0  0  0  0  0  0  0  0
   44.5670   35.1800   45.7500 O   0  0  0  0  0  0  0  0  0  0  0  0
   45.3430   34.0400   45.8870 C   0  0  0  0  0  0  0  0  0  0  0  0
   44.7660   33.1970   45.4380 H   0  0  0  0  0  0  0  0  0  0  0  0
   45.4460   33.8100   46.9680 H   0  0  0  0  0  0  0  0  0  0  0  0
   46.3150   34.0840   45.3640 H   0  0  0  0  0  0  0  0  0  0  0  0
  1 17  1  0  0  0  0
  2  8  1  0  0  0  0
  3  2  1  0  0  0  0
  3  1  1  0  0  0  0
  4  3  2  0  0  0  0
  5  6  2  0  0  0  0
  5  4  1  0  0  0  0
  6  7  1  0  0  0  0
  7  2  2  0  0  0  0
  9  4  1  0  0  0  0
 10  6  1  0  0  0  0
 11 10  1  0  0  0  0
 12 11  1  0  0  0  0
 13 11  1  0  0  0  0
 13 14  1  0  0  0  0
 15 11  1  0  0  0  0
 16 15  1  0  0  0  0
 17 20  1  0  0  0  0
 18 17  1  0  0  0  0
 19 17  1  0  0  0  0
 20 21  1  0  0  0  0
 20 22  1  0  0  0  0
 22 25  1  0  0  0  0
 22 27  1  0  0  0  0
 23 22  1  0  0  0  0
 24 23  1  0  0  0  0
 25 26  1  0  0  0  0
 27 28  1  0  0  0  0
 28 30  1  0  0  0  0
 29 28  1  0  0  0  0
 31 28  1  0  0  0  0
M  END
>  <minimizedAffinity>
-4.11283159

>  <minimizedRMSD>
1.13857079

$$$$
