
 OpenBabel03242520563D

 39 40  0  0  0  0  0  0  0  0999 V2000
   48.5170   31.4030   48.5560 C   0  0  0  0  0  3  0  0  0  0  0  0
   47.4370   32.1460   48.7040 C   0  0  0  0  0  3  0  0  0  0  0  0
   51.1810   32.1770   50.9350 C   0  0  0  0  0  0  0  0  0  0  0  0
   51.3010   30.9530   51.6510 C   0  0  0  0  0  0  0  0  0  0  0  0
   50.4900   29.8970   51.3020 C   0  0  0  0  0  0  0  0  0  0  0  0
   49.6330   30.1010   50.3030 N   0  0  0  0  0  0  0  0  0  0  0  0
   49.5090   31.2500   49.6230 C   0  0  0  0  0  0  0  0  0  0  0  0
   50.2860   32.3000   49.9340 N   0  0  0  0  0  0  0  0  0  0  0  0
   51.7640   33.0730   51.1150 H   0  0  0  0  0  0  0  0  0  0  0  0
   50.5590   28.7100   51.9360 O   0  0  0  0  0  0  0  0  0  0  0  0
   51.2850   27.6520   51.2930 C   0  0  0  0  0  0  0  0  0  0  0  0
   52.2440   28.2060   50.4280 F   0  0  0  0  0  0  0  0  0  0  0  0
   51.9750   26.9850   52.3020 F   0  0  0  0  0  0  0  0  0  0  0  0
   50.4760   26.7340   50.6360 F   0  0  0  0  0  0  0  0  0  0  0  0
   52.2770   31.0820   52.7510 C   0  0  0  0  0  2  0  0  0  0  0  0
   53.6230   30.6770   52.2790 N   0  0  0  0  0  4  0  0  0  0  0  0
   53.5910   30.4690   51.2360 H   0  0  0  0  0  0  0  0  0  0  0  0
   54.5840   31.7510   52.4340 C   0  0  0  0  0  2  0  0  0  0  0  0
   55.5690   31.3420   52.7930 H   0  0  0  0  0  0  0  0  0  0  0  0
   54.0880   29.5130   52.9980 C   0  0  0  0  0  2  0  0  0  0  0  0
   55.1190   29.7060   53.4140 H   0  0  0  0  0  0  0  0  0  0  0  0
   46.4600   32.2690   47.5910 C   0  0  0  0  0  0  0  0  0  0  0  0
   46.2920   31.2400   47.2530 H   0  0  0  0  0  0  0  0  0  0  0  0
   45.4720   32.6250   48.0170 H   0  0  0  0  0  0  0  0  0  0  0  0
   46.5510   32.8110   45.3150 C   0  0  0  0  0  0  0  0  0  0  0  0
   45.9680   31.8220   44.8260 O   0  0  0  0  0  0  0  0  0  0  0  0
   46.8590   33.1990   46.6150 N   0  0  0  0  0  0  0  0  0  0  0  0
   47.3380   34.0960   46.7630 H   0  0  0  0  0  0  0  0  0  0  0  0
   44.8380   35.1540   44.3710 Cl  0  0  0  0  0  0  0  0  0  0  0  0
   46.2470   34.6190   43.4970 C   0  0  0  0  0  0  0  0  0  0  0  0
   46.8730   33.5550   44.0900 C   0  0  0  0  0  0  0  0  0  0  0  0
   48.0240   32.9990   43.5200 C   0  0  0  0  0  0  0  0  0  0  0  0
   48.5390   33.5320   42.3390 C   0  0  0  0  0  0  0  0  0  0  0  0
   47.8830   34.6130   41.7590 C   0  0  0  0  0  0  0  0  0  0  0  0
   48.4910   35.3210   40.2800 Cl  0  0  0  0  0  0  0  0  0  0  0  0
   46.7580   35.1390   42.3360 C   0  0  0  0  0  0  0  0  0  0  0  0
   48.5980   32.1860   43.8700 H   0  0  0  0  0  0  0  0  0  0  0  0
   49.4210   33.1620   41.8360 H   0  0  0  0  0  0  0  0  0  0  0  0
   46.2040   35.9790   41.9310 H   0  0  0  0  0  0  0  0  0  0  0  0
  1  2  2  0  0  0  0
  1  7  1  0  0  0  0
  3  9  1  0  0  0  0
  3  4  1  0  0  0  0
  4 15  1  0  0  0  0
  5  4  2  0  0  0  0
  5 10  1  0  0  0  0
  6  5  1  0  0  0  0
  7  8  1  0  0  0  0
  7  6  2  0  0  0  0
  8  3  2  0  0  0  0
 11 10  1  0  0  0  0
 11 13  1  0  0  0  0
 12 11  1  0  0  0  0
 14 11  1  0  0  0  0
 16 18  1  0  0  0  0
 16 15  1  0  0  0  0
 16 20  1  0  0  0  0
 17 16  1  0  0  0  0
 18 19  1  0  0  0  0
 20 21  1  0  0  0  0
 22 24  1  0  0  0  0
 22  2  1  0  0  0  0
 23 22  1  0  0  0  0
 25 27  1  0  0  0  0
 26 25  2  0  0  0  0
 27 28  1  0  0  0  0
 27 22  1  0  0  0  0
 30 31  1  0  0  0  0
 30 29  1  0  0  0  0
 31 25  1  0  0  0  0
 32 37  1  0  0  0  0
 32 31  2  0  0  0  0
 33 32  1  0  0  0  0
 34 36  1  0  0  0  0
 34 33  2  0  0  0  0
 35 34  1  0  0  0  0
 36 30  2  0  0  0  0
 38 33  1  0  0  0  0
 39 36  1  0  0  0  0
M  END
>  <minimizedAffinity>
-6.22464466

>  <minimizedRMSD>
0.40233922

$$$$
