
 OpenBabel03252501463D

 21 21  0  0  0  0  0  0  0  0999 V2000
   35.9390   28.9690   40.9500 C   0  0  0  0  0  0  0  0  0  0  0  0
   36.9470   28.4060   41.7640 C   0  0  0  0  0  0  0  0  0  0  0  0
   38.0490   29.1780   42.0910 C   0  0  0  0  0  0  0  0  0  0  0  0
   38.1280   30.4560   41.6180 N   0  0  0  0  0  0  0  0  0  0  0  0
   37.1310   30.9540   40.8380 C   0  0  0  0  0  0  0  0  0  0  0  0
   36.0660   30.2280   40.5130 N   0  0  0  0  0  0  0  0  0  0  0  0
   35.0810   28.3750   40.6920 H   0  0  0  0  0  0  0  0  0  0  0  0
   38.8560   28.8130   42.7080 H   0  0  0  0  0  0  0  0  0  0  0  0
   36.8420   27.0310   42.2610 C   0  0  0  0  0  3  0  0  0  0  0  0
   37.1090   25.9450   41.5420 C   0  0  0  0  0  3  0  0  0  0  0  0
   36.9590   24.5820   42.1820 C   0  0  0  0  0  0  0  0  0  0  0  0
   37.3620   23.8210   41.5080 H   0  0  0  0  0  0  0  0  0  0  0  0
   35.8860   24.4170   42.4500 H   0  0  0  0  0  0  0  0  0  0  0  0
   37.6030   24.6360   43.0860 H   0  0  0  0  0  0  0  0  0  0  0  0
   37.2480   32.3680   40.3320 C   0  0  0  0  0  2  0  0  0  0  0  0
   38.6750   32.6690   40.3040 N   0  0  0  0  0  4  0  0  0  0  0  0
   39.1680   32.0050   40.9510 H   0  0  0  0  0  0  0  0  0  0  0  0
   38.9500   34.0350   40.6830 C   0  0  0  0  0  2  0  0  0  0  0  0
   38.2280   34.7100   40.1800 H   0  0  0  0  0  0  0  0  0  0  0  0
   39.1380   32.4710   38.9350 C   0  0  0  0  0  2  0  0  0  0  0  0
   38.2590   32.4450   38.2350 H   0  0  0  0  0  0  0  0  0  0  0  0
  1  2  1  0  0  0  0
  2  3  2  0  0  0  0
  2  9  1  0  0  0  0
  3  8  1  0  0  0  0
  4  3  1  0  0  0  0
  5  4  2  0  0  0  0
  6  5  1  0  0  0  0
  6  1  2  0  0  0  0
  7  1  1  0  0  0  0
 10 11  1  0  0  0  0
 10  9  2  0  0  0  0
 11 13  1  0  0  0  0
 11 14  1  0  0  0  0
 12 11  1  0  0  0  0
 15  5  1  0  0  0  0
 16 15  1  0  0  0  0
 16 18  1  0  0  0  0
 16 17  1  0  0  0  0
 19 18  1  0  0  0  0
 20 16  1  0  0  0  0
 21 20  1  0  0  0  0
M  END
>  <minimizedAffinity>
-3.788306

$$$$

 OpenBabel03252501463D

 21 21  0  0  0  0  0  0  0  0999 V2000
   38.6890   28.9730   42.6020 C   0  0  0  0  0  0  0  0  0  0  0  0
   38.0200   27.7320   42.5220 C   0  0  0  0  0  0  0  0  0  0  0  0
   36.8010   27.6730   41.8670 C   0  0  0  0  0  0  0  0  0  0  0  0
   36.2850   28.8120   41.3210 N   0  0  0  0  0  0  0  0  0  0  0  0
   36.9680   29.9850   41.4240 C   0  0  0  0  0  0  0  0  0  0  0  0
   38.1390   30.0610   42.0490 N   0  0  0  0  0  0  0  0  0  0  0  0
   39.6360   29.0260   43.1100 H   0  0  0  0  0  0  0  0  0  0  0  0
   36.2350   26.7600   41.7680 H   0  0  0  0  0  0  0  0  0  0  0  0
   38.5920   26.5200   43.1160 C   0  0  0  0  0  3  0  0  0  0  0  0
   39.2060   25.5600   42.4310 C   0  0  0  0  0  3  0  0  0  0  0  0
   39.7520   24.3600   43.1740 C   0  0  0  0  0  0  0  0  0  0  0  0
   40.3530   23.7540   42.4880 H   0  0  0  0  0  0  0  0  0  0  0  0
   38.9050   23.7970   43.6380 H   0  0  0  0  0  0  0  0  0  0  0  0
   40.4230   24.8000   43.9430 H   0  0  0  0  0  0  0  0  0  0  0  0
   36.3720   31.2240   40.8110 C   0  0  0  0  0  2  0  0  0  0  0  0
   37.3250   31.6730   39.8010 N   0  0  0  0  0  4  0  0  0  0  0  0
   38.2780   31.3200   40.0650 H   0  0  0  0  0  0  0  0  0  0  0  0
   37.3400   33.1100   39.6700 C   0  0  0  0  0  2  0  0  0  0  0  0
   36.2990   33.4920   39.6620 H   0  0  0  0  0  0  0  0  0  0  0  0
   36.9140   31.1000   38.5250 C   0  0  0  0  0  2  0  0  0  0  0  0
   35.8510   30.7400   38.5940 H   0  0  0  0  0  0  0  0  0  0  0  0
  1  7  1  0  0  0  0
  2  1  1  0  0  0  0
  2  9  1  0  0  0  0
  3  2  2  0  0  0  0
  4  5  2  0  0  0  0
  4  3  1  0  0  0  0
  5  6  1  0  0  0  0
  6  1  2  0  0  0  0
  8  3  1  0  0  0  0
 10  9  2  0  0  0  0
 10 11  1  0  0  0  0
 11 13  1  0  0  0  0
 11 14  1  0  0  0  0
 12 11  1  0  0  0  0
 15  5  1  0  0  0  0
 16 17  1  0  0  0  0
 16 15  1  0  0  0  0
 18 16  1  0  0  0  0
 19 18  1  0  0  0  0
 20 21  1  0  0  0  0
 20 16  1  0  0  0  0
M  END
>  <minimizedAffinity>
-3.7530818

$$$$

 OpenBabel03252501463D

 21 21  0  0  0  0  0  0  0  0999 V2000
   37.9250   30.1980   41.7910 C   0  0  0  0  0  0  0  0  0  0  0  0
   36.8380   30.4440   40.9230 C   0  0  0  0  0  0  0  0  0  0  0  0
   35.8830   29.4550   40.7530 C   0  0  0  0  0  0  0  0  0  0  0  0
   36.0200   28.2770   41.4270 N   0  0  0  0  0  0  0  0  0  0  0  0
   37.0850   28.0870   42.2530 C   0  0  0  0  0  0  0  0  0  0  0  0
   38.0110   29.0240   42.4290 N   0  0  0  0  0  0  0  0  0  0  0  0
   38.6700   30.9600   41.9280 H   0  0  0  0  0  0  0  0  0  0  0  0
   35.0280   29.5750   40.1060 H   0  0  0  0  0  0  0  0  0  0  0  0
   36.7100   31.7180   40.2080 C   0  0  0  0  0  3  0  0  0  0  0  0
   37.6080   32.6970   40.2430 C   0  0  0  0  0  3  0  0  0  0  0  0
   37.3490   33.9620   39.4540 C   0  0  0  0  0  0  0  0  0  0  0  0
   38.2460   34.5880   39.4700 H   0  0  0  0  0  0  0  0  0  0  0  0
   36.4430   34.4730   39.8650 H   0  0  0  0  0  0  0  0  0  0  0  0
   37.1820   33.6040   38.4150 H   0  0  0  0  0  0  0  0  0  0  0  0
   37.2070   26.7750   42.9830 C   0  0  0  0  0  2  0  0  0  0  0  0
   37.7200   25.8180   42.0090 N   0  0  0  0  0  4  0  0  0  0  0  0
   37.6670   26.2550   41.0550 H   0  0  0  0  0  0  0  0  0  0  0  0
   36.9880   24.5740   42.0320 C   0  0  0  0  0  2  0  0  0  0  0  0
   36.8210   24.2630   43.0840 H   0  0  0  0  0  0  0  0  0  0  0  0
   39.1080   25.5400   42.3560 C   0  0  0  0  0  2  0  0  0  0  0  0
   39.3130   25.8760   43.4090 H   0  0  0  0  0  0  0  0  0  0  0  0
  1  7  1  0  0  0  0
  1  6  1  0  0  0  0
  2  1  2  0  0  0  0
  3  2  1  0  0  0  0
  3  4  2  0  0  0  0
  4  5  1  0  0  0  0
  5  6  2  0  0  0  0
  5 15  1  0  0  0  0
  8  3  1  0  0  0  0
  9 10  2  0  0  0  0
  9  2  1  0  0  0  0
 11 12  1  0  0  0  0
 11 13  1  0  0  0  0
 11 10  1  0  0  0  0
 14 11  1  0  0  0  0
 16 18  1  0  0  0  0
 16 20  1  0  0  0  0
 16 15  1  0  0  0  0
 17 16  1  0  0  0  0
 18 19  1  0  0  0  0
 20 21  1  0  0  0  0
M  END
>  <minimizedAffinity>
-3.69868445

$$$$

 OpenBabel03252501463D

 21 21  0  0  0  0  0  0  0  0999 V2000
   38.2950   28.3790   40.5200 C   0  0  0  0  0  0  0  0  0  0  0  0
   38.0580   28.1200   41.8890 C   0  0  0  0  0  0  0  0  0  0  0  0
   38.2740   29.1340   42.8070 C   0  0  0  0  0  0  0  0  0  0  0  0
   38.7090   30.3490   42.3630 N   0  0  0  0  0  0  0  0  0  0  0  0
   38.9220   30.5510   41.0340 C   0  0  0  0  0  0  0  0  0  0  0  0
   38.7200   29.5900   40.1380 N   0  0  0  0  0  0  0  0  0  0  0  0
   38.1290   27.5960   39.8020 H   0  0  0  0  0  0  0  0  0  0  0  0
   38.1150   29.0070   43.8660 H   0  0  0  0  0  0  0  0  0  0  0  0
   37.5920   26.8070   42.3440 C   0  0  0  0  0  3  0  0  0  0  0  0
   37.4120   25.7530   41.5530 C   0  0  0  0  0  3  0  0  0  0  0  0
   36.9260   24.4540   42.1570 C   0  0  0  0  0  0  0  0  0  0  0  0
   36.9820   23.6620   41.4040 H   0  0  0  0  0  0  0  0  0  0  0  0
   35.8980   24.6020   42.5710 H   0  0  0  0  0  0  0  0  0  0  0  0
   37.6630   24.2360   42.9600 H   0  0  0  0  0  0  0  0  0  0  0  0
   39.4010   31.9030   40.5760 C   0  0  0  0  0  2  0  0  0  0  0  0
   38.2690   32.8080   40.7380 N   0  0  0  0  0  4  0  0  0  0  0  0
   37.7590   32.5480   41.6190 H   0  0  0  0  0  0  0  0  0  0  0  0
   37.3730   32.7630   39.6080 C   0  0  0  0  0  2  0  0  0  0  0  0
   37.9620   32.7710   38.6680 H   0  0  0  0  0  0  0  0  0  0  0  0
   38.8010   34.1610   40.8490 C   0  0  0  0  0  2  0  0  0  0  0  0
   39.8640   34.1840   40.4850 H   0  0  0  0  0  0  0  0  0  0  0  0
  1  2  1  0  0  0  0
  2  9  1  0  0  0  0
  2  3  2  0  0  0  0
  3  8  1  0  0  0  0
  4  3  1  0  0  0  0
  5  4  2  0  0  0  0
  6  1  2  0  0  0  0
  6  5  1  0  0  0  0
  7  1  1  0  0  0  0
 10 11  1  0  0  0  0
 10  9  2  0  0  0  0
 11 13  1  0  0  0  0
 11 14  1  0  0  0  0
 12 11  1  0  0  0  0
 15 16  1  0  0  0  0
 15  5  1  0  0  0  0
 16 20  1  0  0  0  0
 16 17  1  0  0  0  0
 18 16  1  0  0  0  0
 19 18  1  0  0  0  0
 21 20  1  0  0  0  0
M  END
>  <minimizedAffinity>
-3.5039084

$$$$

 OpenBabel03252501463D

 21 21  0  0  0  0  0  0  0  0999 V2000
   38.0620   26.4100   40.4040 C   0  0  0  0  0  0  0  0  0  0  0  0
   37.4350   25.5030   41.2880 C   0  0  0  0  0  0  0  0  0  0  0  0
   36.9590   25.9750   42.5000 C   0  0  0  0  0  0  0  0  0  0  0  0
   37.1090   27.2970   42.8020 N   0  0  0  0  0  0  0  0  0  0  0  0
   37.7190   28.1320   41.9170 C   0  0  0  0  0  0  0  0  0  0  0  0
   38.1820   27.6980   40.7500 N   0  0  0  0  0  0  0  0  0  0  0  0
   38.4340   26.0500   39.4620 H   0  0  0  0  0  0  0  0  0  0  0  0
   36.4710   25.3410   43.2230 H   0  0  0  0  0  0  0  0  0  0  0  0
   37.2850   24.0860   40.9430 C   0  0  0  0  0  3  0  0  0  0  0  0
   38.2730   23.3020   40.5230 C   0  0  0  0  0  3  0  0  0  0  0  0
   37.9780   21.8530   40.2020 C   0  0  0  0  0  0  0  0  0  0  0  0
   38.9180   21.3240   40.0240 H   0  0  0  0  0  0  0  0  0  0  0  0
   37.2690   21.8050   39.3380 H   0  0  0  0  0  0  0  0  0  0  0  0
   37.5160   21.4580   41.1330 H   0  0  0  0  0  0  0  0  0  0  0  0
   37.8680   29.5860   42.2810 C   0  0  0  0  0  2  0  0  0  0  0  0
   37.6530   30.3340   41.0470 N   0  0  0  0  0  4  0  0  0  0  0  0
   37.8170   29.6890   40.2350 H   0  0  0  0  0  0  0  0  0  0  0  0
   38.5150   31.4880   40.9540 C   0  0  0  0  0  2  0  0  0  0  0  0
   38.5340   32.0150   41.9300 H   0  0  0  0  0  0  0  0  0  0  0  0
   36.2700   30.7950   41.0500 C   0  0  0  0  0  2  0  0  0  0  0  0
   35.8460   30.7250   42.0890 H   0  0  0  0  0  0  0  0  0  0  0  0
  1  6  2  0  0  0  0
  1  2  1  0  0  0  0
  2  3  2  0  0  0  0
  3  4  1  0  0  0  0
  3  8  1  0  0  0  0
  5 15  1  0  0  0  0
  5  4  2  0  0  0  0
  6  5  1  0  0  0  0
  7  1  1  0  0  0  0
  9  2  1  0  0  0  0
 10  9  2  0  0  0  0
 11 10  1  0  0  0  0
 11 14  1  0  0  0  0
 12 11  1  0  0  0  0
 13 11  1  0  0  0  0
 16 20  1  0  0  0  0
 16 15  1  0  0  0  0
 17 16  1  0  0  0  0
 18 16  1  0  0  0  0
 18 19  1  0  0  0  0
 20 21  1  0  0  0  0
M  END
>  <minimizedAffinity>
-3.34455395

$$$$

 OpenBabel03252501463D

 21 21  0  0  0  0  0  0  0  0999 V2000
   38.3480   28.6980   40.2740 C   0  0  0  0  0  0  0  0  0  0  0  0
   37.2280   28.5750   41.1270 C   0  0  0  0  0  0  0  0  0  0  0  0
   36.4230   29.6830   41.3360 C   0  0  0  0  0  0  0  0  0  0  0  0
   36.7350   30.8560   40.7130 N   0  0  0  0  0  0  0  0  0  0  0  0
   37.8240   30.9250   39.8990 C   0  0  0  0  0  0  0  0  0  0  0  0
   38.6080   29.8730   39.6870 N   0  0  0  0  0  0  0  0  0  0  0  0
   38.9770   27.8420   40.1080 H   0  0  0  0  0  0  0  0  0  0  0  0
   35.5540   29.6610   41.9740 H   0  0  0  0  0  0  0  0  0  0  0  0
   36.9120   27.3040   41.7870 C   0  0  0  0  0  3  0  0  0  0  0  0
   37.2940   26.1100   41.3480 C   0  0  0  0  0  3  0  0  0  0  0  0
   36.8980   24.8760   42.1300 C   0  0  0  0  0  0  0  0  0  0  0  0
   37.4190   24.0060   41.7210 H   0  0  0  0  0  0  0  0  0  0  0  0
   35.7840   24.7740   42.1170 H   0  0  0  0  0  0  0  0  0  0  0  0
   37.2790   25.0710   43.1550 H   0  0  0  0  0  0  0  0  0  0  0  0
   38.1410   32.2350   39.2260 C   0  0  0  0  0  2  0  0  0  0  0  0
   39.2300   32.8290   39.9940 N   0  0  0  0  0  4  0  0  0  0  0  0
   39.5200   32.1490   40.7390 H   0  0  0  0  0  0  0  0  0  0  0  0
   38.8510   34.0900   40.5860 C   0  0  0  0  0  2  0  0  0  0  0  0
   38.2990   34.6980   39.8410 H   0  0  0  0  0  0  0  0  0  0  0  0
   40.3350   33.0680   39.0740 C   0  0  0  0  0  2  0  0  0  0  0  0
   39.9650   33.0240   38.0130 H   0  0  0  0  0  0  0  0  0  0  0  0
  1  2  1  0  0  0  0
  2  3  2  0  0  0  0
  2  9  1  0  0  0  0
  3  8  1  0  0  0  0
  4  3  1  0  0  0  0
  5  4  2  0  0  0  0
  6  5  1  0  0  0  0
  6  1  2  0  0  0  0
  7  1  1  0  0  0  0
 10  9  2  0  0  0  0
 10 11  1  0  0  0  0
 11 14  1  0  0  0  0
 12 11  1  0  0  0  0
 13 11  1  0  0  0  0
 15  5  1  0  0  0  0
 15 16  1  0  0  0  0
 16 18  1  0  0  0  0
 16 17  1  0  0  0  0
 19 18  1  0  0  0  0
 20 16  1  0  0  0  0
 21 20  1  0  0  0  0
M  END
>  <minimizedAffinity>
-3.33882356

$$$$

 OpenBabel03252501463D

 21 21  0  0  0  0  0  0  0  0999 V2000
   37.0450   29.8840   40.9430 C   0  0  0  0  0  0  0  0  0  0  0  0
   36.7810   29.0990   39.7980 C   0  0  0  0  0  0  0  0  0  0  0  0
   36.6710   29.7290   38.5690 C   0  0  0  0  0  0  0  0  0  0  0  0
   36.8220   31.0830   38.5020 N   0  0  0  0  0  0  0  0  0  0  0  0
   37.0760   31.7960   39.6320 C   0  0  0  0  0  0  0  0  0  0  0  0
   37.1850   31.2100   40.8210 N   0  0  0  0  0  0  0  0  0  0  0  0
   37.1310   29.4020   41.9000 H   0  0  0  0  0  0  0  0  0  0  0  0
   36.4700   29.1930   37.6550 H   0  0  0  0  0  0  0  0  0  0  0  0
   36.6220   27.6450   39.8940 C   0  0  0  0  0  3  0  0  0  0  0  0
   36.3460   26.8460   38.8680 C   0  0  0  0  0  3  0  0  0  0  0  0
   36.2100   25.3580   39.1090 C   0  0  0  0  0  0  0  0  0  0  0  0
   36.1380   24.8420   38.1470 H   0  0  0  0  0  0  0  0  0  0  0  0
   35.3360   25.1720   39.7800 H   0  0  0  0  0  0  0  0  0  0  0  0
   37.1680   25.0740   39.5960 H   0  0  0  0  0  0  0  0  0  0  0  0
   37.2370   33.2900   39.5240 C   0  0  0  0  0  2  0  0  0  0  0  0
   38.6570   33.5260   39.2860 N   0  0  0  0  0  4  0  0  0  0  0  0
   38.7530   34.1680   38.4600 H   0  0  0  0  0  0  0  0  0  0  0  0
   39.3800   32.2980   39.0530 C   0  0  0  0  0  2  0  0  0  0  0  0
   39.0580   31.5340   39.7890 H   0  0  0  0  0  0  0  0  0  0  0  0
   39.2020   34.1590   40.4800 C   0  0  0  0  0  2  0  0  0  0  0  0
   38.4940   34.0210   41.3430 H   0  0  0  0  0  0  0  0  0  0  0  0
  1  7  1  0  0  0  0
  2  9  1  0  0  0  0
  2  1  2  0  0  0  0
  3  2  1  0  0  0  0
  4  3  2  0  0  0  0
  4  5  1  0  0  0  0
  5  6  2  0  0  0  0
  6  1  1  0  0  0  0
  8  3  1  0  0  0  0
 10 11  1  0  0  0  0
 10  9  2  0  0  0  0
 11 14  1  0  0  0  0
 11 13  1  0  0  0  0
 12 11  1  0  0  0  0
 15  5  1  0  0  0  0
 16 15  1  0  0  0  0
 16 20  1  0  0  0  0
 17 16  1  0  0  0  0
 18 16  1  0  0  0  0
 18 19  1  0  0  0  0
 20 21  1  0  0  0  0
M  END
>  <minimizedAffinity>
-3.33104944

$$$$

 OpenBabel03252501463D

 21 21  0  0  0  0  0  0  0  0999 V2000
   38.5470   30.9910   41.2460 C   0  0  0  0  0  0  0  0  0  0  0  0
   39.1820   30.3480   42.3320 C   0  0  0  0  0  0  0  0  0  0  0  0
   40.4960   30.6760   42.6250 C   0  0  0  0  0  0  0  0  0  0  0  0
   41.1340   31.6060   41.8580 N   0  0  0  0  0  0  0  0  0  0  0  0
   40.4800   32.1990   40.8230 C   0  0  0  0  0  0  0  0  0  0  0  0
   39.2200   31.8970   40.5260 N   0  0  0  0  0  0  0  0  0  0  0  0
   37.5280   30.7410   41.0130 H   0  0  0  0  0  0  0  0  0  0  0  0
   41.0420   30.2250   43.4390 H   0  0  0  0  0  0  0  0  0  0  0  0
   38.4770   29.3500   43.1430 C   0  0  0  0  0  3  0  0  0  0  0  0
   37.4300   28.6440   42.7290 C   0  0  0  0  0  3  0  0  0  0  0  0
   36.7970   27.6440   43.6720 C   0  0  0  0  0  0  0  0  0  0  0  0
   36.0590   27.0490   43.1260 H   0  0  0  0  0  0  0  0  0  0  0  0
   36.3690   28.1860   44.5510 H   0  0  0  0  0  0  0  0  0  0  0  0
   37.6390   26.9820   43.9700 H   0  0  0  0  0  0  0  0  0  0  0  0
   41.2130   33.2220   39.9960 C   0  0  0  0  0  2  0  0  0  0  0  0
   41.8650   32.4800   38.9220 N   0  0  0  0  0  4  0  0  0  0  0  0
   41.5540   31.4780   38.9740 H   0  0  0  0  0  0  0  0  0  0  0  0
   43.3040   32.5620   39.0020 C   0  0  0  0  0  2  0  0  0  0  0  0
   43.6030   33.6080   39.2180 H   0  0  0  0  0  0  0  0  0  0  0  0
   41.4410   33.0720   37.6600 C   0  0  0  0  0  2  0  0  0  0  0  0
   40.9960   34.0880   37.8450 H   0  0  0  0  0  0  0  0  0  0  0  0
  1  2  1  0  0  0  0
  2  3  2  0  0  0  0
  2  9  1  0  0  0  0
  3  8  1  0  0  0  0
  4  3  1  0  0  0  0
  5  4  2  0  0  0  0
  6  5  1  0  0  0  0
  6  1  2  0  0  0  0
  7  1  1  0  0  0  0
 10  9  2  0  0  0  0
 10 11  1  0  0  0  0
 11 14  1  0  0  0  0
 11 13  1  0  0  0  0
 12 11  1  0  0  0  0
 15  5  1  0  0  0  0
 16 17  1  0  0  0  0
 16 18  1  0  0  0  0
 16 15  1  0  0  0  0
 18 19  1  0  0  0  0
 20 21  1  0  0  0  0
 20 16  1  0  0  0  0
M  END
>  <minimizedAffinity>
-3.27463436

$$$$

 OpenBabel03252501463D

 21 21  0  0  0  0  0  0  0  0999 V2000
   37.5530   27.9250   40.4160 C   0  0  0  0  0  0  0  0  0  0  0  0
   37.2040   28.7760   41.4890 C   0  0  0  0  0  0  0  0  0  0  0  0
   36.8330   28.2090   42.6970 C   0  0  0  0  0  0  0  0  0  0  0  0
   36.8170   26.8500   42.8140 N   0  0  0  0  0  0  0  0  0  0  0  0
   37.1620   26.0710   41.7520 C   0  0  0  0  0  0  0  0  0  0  0  0
   37.5200   26.5980   40.5850 N   0  0  0  0  0  0  0  0  0  0  0  0
   37.8410   28.3590   39.4760 H   0  0  0  0  0  0  0  0  0  0  0  0
   36.5540   28.7970   43.5570 H   0  0  0  0  0  0  0  0  0  0  0  0
   37.2280   30.2350   41.3410 C   0  0  0  0  0  3  0  0  0  0  0  0
   37.2120   30.8760   40.1770 C   0  0  0  0  0  3  0  0  0  0  0  0
   37.2400   32.3890   40.1690 C   0  0  0  0  0  0  0  0  0  0  0  0
   37.0670   32.7480   39.1500 H   0  0  0  0  0  0  0  0  0  0  0  0
   38.2060   32.7420   40.6070 H   0  0  0  0  0  0  0  0  0  0  0  0
   36.3740   32.6790   40.8020 H   0  0  0  0  0  0  0  0  0  0  0  0
   37.1330   24.5740   41.9140 C   0  0  0  0  0  2  0  0  0  0  0  0
   37.1270   24.0230   40.5640 N   0  0  0  0  0  4  0  0  0  0  0  0
   37.4740   24.7610   39.9020 H   0  0  0  0  0  0  0  0  0  0  0  0
   35.8140   23.5730   40.1680 C   0  0  0  0  0  2  0  0  0  0  0  0
   35.3490   23.0090   41.0020 H   0  0  0  0  0  0  0  0  0  0  0  0
   38.0270   22.8760   40.5540 C   0  0  0  0  0  2  0  0  0  0  0  0
   38.2360   22.5460   41.6080 H   0  0  0  0  0  0  0  0  0  0  0  0
  1  6  2  0  0  0  0
  1  2  1  0  0  0  0
  2  3  2  0  0  0  0
  3  4  1  0  0  0  0
  3  8  1  0  0  0  0
  5 15  1  0  0  0  0
  5  4  2  0  0  0  0
  6  5  1  0  0  0  0
  7  1  1  0  0  0  0
  9  2  1  0  0  0  0
 10  9  2  0  0  0  0
 11 10  1  0  0  0  0
 11 13  1  0  0  0  0
 11 14  1  0  0  0  0
 12 11  1  0  0  0  0
 16 15  1  0  0  0  0
 17 16  1  0  0  0  0
 18 16  1  0  0  0  0
 18 19  1  0  0  0  0
 20 16  1  0  0  0  0
 20 21  1  0  0  0  0
M  END
>  <minimizedAffinity>
-3.25430703

$$$$
