REMARK  Name = 
REMARK  10 active torsions:
REMARK  status: ('A' for Active; 'I' for Inactive)
REMARK    1  A    between atoms: C_1  and  N_4
REMARK    2  A    between atoms: C_1  and  C_14
REMARK    3  A    between atoms: C_2  and  C_7
REMARK    4  A    between atoms: C_13  and  C_19
REMARK    5  A    between atoms: C_16  and  C_35
REMARK    6  A    between atoms: C_17  and  O_21
REMARK    7  A    between atoms: O_21  and  C_22
REMARK    8  A    between atoms: C_35  and  N_36
REMARK    9  A    between atoms: N_36  and  C_37
REMARK   10  A    between atoms: N_36  and  C_39
REMARK                            x       y       z     vdW  Elec       q    Type
REMARK                         _______ _______ _______ _____ _____    ______ ____
ROOT
ATOM      1  C   UNL     1      48.569  31.435  48.600  0.00  0.00    +0.000 C 
ATOM      2  C   UNL     1      47.429  32.067  48.798  0.00  0.00    +0.000 C 
ENDROOT
BRANCH   1   7
ATOM      3  C   UNL     1      51.282  32.157  50.940  0.00  0.00    +0.000 A 
ATOM      4  C   UNL     1      51.354  30.949  51.689  0.00  0.00    +0.000 A 
ATOM      5  C   UNL     1      50.496  29.920  51.374  0.00  0.00    +0.000 A 
ATOM      6  N   UNL     1      49.641  30.133  50.375  0.00  0.00    +0.000 NA
ATOM      7  C   UNL     1      49.562  31.268  49.665  0.00  0.00    +0.000 A 
ATOM      8  N   UNL     1      50.385  32.291  49.942  0.00  0.00    +0.000 NA
ATOM      9  H   UNL     1      51.904  33.031  51.092  0.00  0.00    +0.000 HD
BRANCH   5  10
ATOM     10  O   UNL     1      50.518  28.749  52.040  0.00  0.00    +0.000 OA
BRANCH  10  11
ATOM     11  C   UNL     1      51.478  27.765  51.627  0.00  0.00    +0.000 C 
ATOM     12  F   UNL     1      51.934  28.075  50.334  0.00  0.00    +0.000 F 
ATOM     13  F   UNL     1      52.564  27.895  52.489  0.00  0.00    +0.000 F 
ATOM     14  F   UNL     1      51.013  26.459  51.703  0.00  0.00    +0.000 F 
ENDBRANCH  10  11
ENDBRANCH   5  10
BRANCH   4  15
ATOM     15  C   UNL     1      52.343  31.065  52.779  0.00  0.00    +0.000 C 
BRANCH  15  16
ATOM     16  N   UNL     1      53.326  29.960  52.685  0.00  0.00    +0.000 N 
ATOM     17  H   UNL     1      53.025  29.272  51.931  0.00  0.00    +0.000 HD
BRANCH  16  18
ATOM     18  C   UNL     1      54.630  30.444  52.274  0.00  0.00    +0.000 C 
ATOM     19  H   UNL     1      55.440  29.919  52.854  0.00  0.00    +0.000 HD
ENDBRANCH  16  18
BRANCH  16  20
ATOM     20  C   UNL     1      53.449  29.275  53.952  0.00  0.00    +0.000 C 
ATOM     21  H   UNL     1      54.535  29.211  54.250  0.00  0.00    +0.000 HD
ENDBRANCH  16  20
ENDBRANCH  15  16
ENDBRANCH   4  15
ENDBRANCH   1   7
BRANCH   2  22
ATOM     22  C   UNL     1      46.454  32.210  47.685  0.00  0.00    +0.000 C 
ATOM     23  H   UNL     1      46.263  31.184  47.349  0.00  0.00    +0.000 HD
ATOM     24  H   UNL     1      45.474  32.588  48.111  0.00  0.00    +0.000 HD
BRANCH  22  27
ATOM     25  C   UNL     1      46.496  32.780  45.414  0.00  0.00    +0.000 C 
ATOM     26  O   UNL     1      45.837  31.835  44.934  0.00  0.00    +0.000 OA
ATOM     27  N   UNL     1      46.873  33.129  46.707  0.00  0.00    +0.000 N 
ATOM     28  H   UNL     1      47.410  33.994  46.849  0.00  0.00    +0.000 HD
BRANCH  25  31
ATOM     29 CL   UNL     1      44.827  35.169  44.507  0.00  0.00    +0.000 Cl
ATOM     30  C   UNL     1      46.209  34.604  43.609  0.00  0.00    +0.000 A 
ATOM     31  C   UNL     1      46.818  33.522  44.188  0.00  0.00    +0.000 A 
ATOM     32  C   UNL     1      47.946  32.941  43.598  0.00  0.00    +0.000 A 
ATOM     33  C   UNL     1      48.457  33.467  42.412  0.00  0.00    +0.000 A 
ATOM     34  C   UNL     1      47.819  34.566  41.847  0.00  0.00    +0.000 A 
ATOM     35 CL   UNL     1      48.422  35.267  40.362  0.00  0.00    +0.000 Cl
ATOM     36  C   UNL     1      46.716  35.117  42.443  0.00  0.00    +0.000 A 
ATOM     37  H   UNL     1      48.505  32.112  43.936  0.00  0.00    +0.000 HD
ATOM     38  H   UNL     1      49.322  33.078  41.894  0.00  0.00    +0.000 HD
ATOM     39  H   UNL     1      46.177  35.972  42.050  0.00  0.00    +0.000 HD
ENDBRANCH  25  31
ENDBRANCH  22  27
ENDBRANCH   2  22
TORSDOF 10
