REMARK  Name = 
REMARK  10 active torsions:
REMARK  status: ('A' for Active; 'I' for Inactive)
REMARK    1  A    between atoms: C_1  and  C_6
REMARK    2  A    between atoms: C_3  and  O_10
REMARK    3  A    between atoms: O_10  and  P_12
REMARK    4  A    between atoms: P_12  and  O_13
REMARK    5  A    between atoms: P_12  and  O_14
REMARK    6  A    between atoms: O_14  and  C_15
REMARK    7  A    between atoms: C_19  and  C_32
REMARK    8  A    between atoms: C_32  and  N_33
REMARK    9  A    between atoms: N_33  and  C_34
REMARK   10  A    between atoms: N_33  and  C_36
REMARK                            x       y       z     vdW  Elec       q    Type
REMARK                         _______ _______ _______ _____ _____    ______ ____
ROOT
ATOM      1  O   UNL     1      48.515  32.404  37.985  0.00  0.00    +0.000 OA
ATOM      2  P   UNL     1      48.091  33.851  38.233  0.00  0.00    +0.000 P 
ENDROOT
BRANCH   2   3
ATOM      3  O   UNL     1      49.335  34.799  37.578  0.00  0.00    +0.000 OA
ATOM      4  H   UNL     1      49.029  35.744  37.626  0.00  0.00    +0.000 HD
ENDBRANCH   2   3
BRANCH   2   5
ATOM      5  O   UNL     1      47.764  34.141  39.809  0.00  0.00    +0.000 OA
BRANCH   5   8
ATOM      6  C   UNL     1      48.082  35.471  41.806  0.00  0.00    +0.000 C 
ATOM      7  C   UNL     1      49.319  34.688  41.691  0.00  0.00    +0.000 C 
ATOM      8  C   UNL     1      48.483  35.078  40.458  0.00  0.00    +0.000 C 
ATOM      9  H   UNL     1      48.149  36.523  42.123  0.00  0.00    +0.000 HD
ATOM     10  H   UNL     1      49.353  33.580  41.870  0.00  0.00    +0.000 HD
ATOM     11  H   UNL     1      50.319  35.145  41.801  0.00  0.00    +0.000 HD
ATOM     12  H   UNL     1      49.032  35.791  39.815  0.00  0.00    +0.000 HD
BRANCH   6  15
ATOM     13  C   UNL     1      46.052  32.933  43.754  0.00  0.00    +0.000 A 
ATOM     14  C   UNL     1      47.144  33.617  43.229  0.00  0.00    +0.000 A 
ATOM     15  C   UNL     1      46.916  34.728  42.395  0.00  0.00    +0.000 A 
ATOM     16  N   UNL     1      45.638  35.097  42.128  0.00  0.00    +0.000 NA
ATOM     17  C   UNL     1      44.589  34.416  42.650  0.00  0.00    +0.000 A 
ATOM     18  N   UNL     1      44.793  33.339  43.459  0.00  0.00    +0.000 NA
ATOM     19  H   UNL     1      46.236  32.081  44.394  0.00  0.00    +0.000 HD
ATOM     20  H   UNL     1      48.130  33.284  43.471  0.00  0.00    +0.000 HD
ATOM     21  H   UNL     1      43.601  34.787  42.380  0.00  0.00    +0.000 HD
ENDBRANCH   6  15
ENDBRANCH   5   8
ENDBRANCH   2   5
BRANCH   2  22
ATOM     22  O   UNL     1      46.730  34.077  37.277  0.00  0.00    +0.000 OA
BRANCH  22  23
ATOM     23  C   UNL     1      45.787  33.091  37.029  0.00  0.00    +0.000 A 
ATOM     24  C   UNL     1      45.663  32.288  35.910  0.00  0.00    +0.000 A 
ATOM     25  C   UNL     1      44.672  31.361  35.824  0.00  0.00    +0.000 A 
ATOM     26  C   UNL     1      43.761  31.189  36.843  0.00  0.00    +0.000 A 
ATOM     27  C   UNL     1      43.918  32.019  37.959  0.00  0.00    +0.000 A 
ATOM     28  N   UNL     1      44.916  32.945  38.033  0.00  0.00    +0.000 NA
ATOM     29  H   UNL     1      46.411  32.476  35.148  0.00  0.00    +0.000 HD
ATOM     30  H   UNL     1      44.633  30.767  34.920  0.00  0.00    +0.000 HD
ATOM     31  H   UNL     1      42.983  30.466  36.783  0.00  0.00    +0.000 HD
BRANCH  27  32
ATOM     32  C   UNL     1      42.938  31.837  39.061  0.00  0.00    +0.000 C 
BRANCH  32  33
ATOM     33  N   UNL     1      41.643  31.393  38.649  0.00  0.00    +0.000 N 
ATOM     34  H   UNL     1      41.547  30.353  38.610  0.00  0.00    +0.000 HD
BRANCH  33  35
ATOM     35  C   UNL     1      40.687  31.818  39.662  0.00  0.00    +0.000 C 
ATOM     36  H   UNL     1      41.128  32.638  40.288  0.00  0.00    +0.000 HD
ENDBRANCH  33  35
BRANCH  33  37
ATOM     37  C   UNL     1      41.225  32.025  37.410  0.00  0.00    +0.000 C 
ATOM     38  H   UNL     1      40.873  33.062  37.669  0.00  0.00    +0.000 HD
ENDBRANCH  33  37
ENDBRANCH  32  33
ENDBRANCH  27  32
ENDBRANCH  22  23
ENDBRANCH   2  22
TORSDOF 10
