
 OpenBabel03252500243D

 35 36  0  0  1  0  0  0  0  0999 V2000
   46.8750   30.2810   48.1400 C   0  0  2  0  0  0  0  0  0  0  0  0
   45.4170   30.5420   48.1500 C   0  0  2  0  0  0  0  0  0  0  0  0
   44.8900   29.6640   47.0750 C   0  0  0  0  0  0  0  0  0  0  0  0
   45.7190   28.5630   46.9880 O   0  0  0  0  0  0  0  0  0  0  0  0
   46.8130   28.7760   47.7610 C   0  0  0  0  0  0  0  0  0  0  0  0
   47.5670   30.6400   47.4370 H   0  0  0  0  0  0  0  0  0  0  0  0
   45.0710   30.1590   49.1490 H   0  0  0  0  0  0  0  0  0  0  0  0
   43.9190   29.2200   47.4550 H   0  0  0  0  0  0  0  0  0  0  0  0
   44.5760   30.1210   46.1370 H   0  0  0  0  0  0  0  0  0  0  0  0
   46.6960   28.2820   48.7660 H   0  0  0  0  0  0  0  0  0  0  0  0
   47.7420   28.4150   47.3290 H   0  0  0  0  0  0  0  0  0  0  0  0
   45.0980   31.8670   47.9620 O   0  0  0  0  0  0  0  0  0  0  0  0
   47.3360   32.9240   47.2680 O   0  0  0  0  0  0  0  0  0  0  0  0
   45.9990   32.5070   46.7210 P   0  0  1  0  0  0  0  0  0  0  0  0
   46.2480   31.3210   45.5350 O   0  0  0  0  0  0  0  0  0  0  0  0
   45.7800   31.5390   44.7110 H   0  0  0  0  0  0  0  0  0  0  0  0
   45.2880   33.9120   46.0540 O   0  0  0  0  0  0  0  0  0  0  0  0
   44.9110   35.6510   42.9530 C   0  0  0  0  0  0  0  0  0  0  0  0
   46.0550   35.2690   42.1980 C   0  0  0  0  0  0  0  0  0  0  0  0
   46.9550   34.3860   42.8170 C   0  0  0  0  0  0  0  0  0  0  0  0
   46.6860   33.9600   44.0670 N   0  0  0  0  0  0  0  0  0  0  0  0
   45.5880   34.3440   44.7510 C   0  0  0  0  0  0  0  0  0  0  0  0
   44.7050   35.1900   44.1870 N   0  0  0  0  0  0  0  0  0  0  0  0
   46.2410   35.6290   41.2010 H   0  0  0  0  0  0  0  0  0  0  0  0
   47.8540   34.0460   42.3110 H   0  0  0  0  0  0  0  0  0  0  0  0
   44.0330   36.5140   42.3480 O   0  0  0  0  0  0  0  0  0  0  0  0
   44.3140   37.4510   42.1320 H   0  0  0  0  0  0  0  0  0  0  0  0
   47.5090   30.4580   49.3330 O   0  0  0  0  0  0  0  0  0  0  0  0
   48.7920   30.6900   49.4960 C   0  0  0  0  0  2  0  0  0  0  0  0
   49.5300   29.5020   49.9750 N   0  0  0  0  0  4  0  0  0  0  0  0
   48.9110   28.7070   50.1500 H   0  0  0  0  0  0  0  0  0  0  0  0
   50.4800   29.0800   48.9320 C   0  0  0  0  0  2  0  0  0  0  0  0
   50.0060   29.4180   47.9660 H   0  0  0  0  0  0  0  0  0  0  0  0
   50.3350   29.7930   51.1330 C   0  0  0  0  0  2  0  0  0  0  0  0
   49.8250   29.6990   52.0920 H   0  0  0  0  0  0  0  0  0  0  0  0
  1  6  1  6  0  0  0
  1  2  1  0  0  0  0
  1 28  1  0  0  0  0
  2  7  1  1  0  0  0
  3  8  1  0  0  0  0
  3  2  1  0  0  0  0
  4  3  1  0  0  0  0
  4  5  1  0  0  0  0
  5  1  1  0  0  0  0
  5 10  1  0  0  0  0
  9  3  1  0  0  0  0
 11  5  1  0  0  0  0
 12  2  1  0  0  0  0
 14 13  2  1  0  0  0
 14 12  1  0  0  0  0
 15 14  1  0  0  0  0
 16 15  1  0  0  0  0
 17 14  1  0  0  0  0
 18 23  1  0  0  0  0
 19 20  1  0  0  0  0
 19 18  2  0  0  0  0
 20 21  2  0  0  0  0
 21 22  1  0  0  0  0
 22 17  1  0  0  0  0
 23 22  2  0  0  0  0
 24 19  1  0  0  0  0
 25 20  1  0  0  0  0
 26 18  1  0  0  0  0
 27 26  1  0  0  0  0
 28 29  1  0  0  0  0
 29 30  1  0  0  0  0
 30 31  1  0  0  0  0
 30 34  1  0  0  0  0
 32 30  1  0  0  0  0
 33 32  1  0  0  0  0
 34 35  1  0  0  0  0
M  END
>  <minimizedAffinity>
-4.72015047

>  <minimizedRMSD>
0.959491551

$$$$
