
 OpenBabel03252507073D

 22 22  0  0  0  0  0  0  0  0999 V2000
   44.5760   35.6200   44.7110 C   0  0  0  0  0  0  0  0  0  0  0  0
   45.1380   35.7320   43.4280 C   0  0  0  0  0  0  0  0  0  0  0  0
   46.1850   34.8620   43.1260 C   0  0  0  0  0  0  0  0  0  0  0  0
   46.6080   33.9680   44.0500 N   0  0  0  0  0  0  0  0  0  0  0  0
   46.0410   33.8880   45.2790 C   0  0  0  0  0  0  0  0  0  0  0  0
   45.0200   34.7210   45.6030 N   0  0  0  0  0  0  0  0  0  0  0  0
   43.7640   36.3090   44.9170 H   0  0  0  0  0  0  0  0  0  0  0  0
   44.7750   36.4560   42.7180 H   0  0  0  0  0  0  0  0  0  0  0  0
   46.7440   34.9750   41.8490 O   0  0  0  0  0  0  0  0  0  0  0  0
   48.6150   33.2410   41.1560 O   0  0  0  0  0  0  0  0  0  0  0  0
   48.4150   34.6760   41.6430 P   0  0  0  0  0  0  0  0  0  0  0  0
   49.0480   35.7870   40.5770 O   0  0  0  0  0  0  0  0  0  0  0  0
   49.8780   36.1640   40.9680 H   0  0  0  0  0  0  0  0  0  0  0  0
   49.1490   34.7950   43.1680 O   0  0  0  0  0  0  0  0  0  0  0  0
   49.2120   33.9180   43.6180 H   0  0  0  0  0  0  0  0  0  0  0  0
   46.5560   32.8940   46.2220 C   0  0  0  0  0  2  0  0  0  0  0  0
   45.5270   31.9520   46.5850 N   0  0  0  0  0  4  0  0  0  0  0  0
   44.6540   32.2820   46.0950 H   0  0  0  0  0  0  0  0  0  0  0  0
   45.2250   32.0420   48.0050 C   0  0  0  0  0  2  0  0  0  0  0  0
   45.7530   31.2600   48.5880 H   0  0  0  0  0  0  0  0  0  0  0  0
   45.7570   30.6100   46.1570 C   0  0  0  0  0  2  0  0  0  0  0  0
   45.6110   29.8720   46.9960 H   0  0  0  0  0  0  0  0  0  0  0  0
  1  7  1  0  0  0  0
  1  6  1  0  0  0  0
  2  1  2  0  0  0  0
  3  2  1  0  0  0  0
  3  4  2  0  0  0  0
  4  5  1  0  0  0  0
  5  6  2  0  0  0  0
  5 16  1  0  0  0  0
  8  2  1  0  0  0  0
  9  3  1  0  0  0  0
 10 11  2  0  0  0  0
 11  9  1  0  0  0  0
 11 14  1  0  0  0  0
 12 13  1  0  0  0  0
 12 11  1  0  0  0  0
 14 15  1  0  0  0  0
 16 17  1  0  0  0  0
 17 19  1  0  0  0  0
 18 17  1  0  0  0  0
 19 20  1  0  0  0  0
 21 17  1  0  0  0  0
 21 22  1  0  0  0  0
M  END
>  <minimizedAffinity>
-4.96686888

>  <minimizedRMSD>
0.845403135

$$$$
