REMARK  Name = 
REMARK  7 active torsions:
REMARK  status: ('A' for Active; 'I' for Inactive)
REMARK    1  A    between atoms: C_3  and  N_16
REMARK    2  A    between atoms: C_7  and  C_8
REMARK    3  A    between atoms: C_13  and  C_22
REMARK    4  A    between atoms: C_20  and  C_34
REMARK    5  A    between atoms: C_34  and  N_35
REMARK    6  A    between atoms: N_35  and  C_36
REMARK    7  A    between atoms: N_35  and  C_38
REMARK                            x       y       z     vdW  Elec       q    Type
REMARK                         _______ _______ _______ _____ _____    ______ ____
ROOT
ATOM      1  C   UNL     1      46.348  32.908  45.024  0.00  0.00    +0.000 A 
ATOM      2  C   UNL     1      47.451  33.288  44.256  0.00  0.00    +0.000 A 
ATOM      3  C   UNL     1      46.998  33.774  43.067  0.00  0.00    +0.000 A 
ATOM      4  N   UNL     1      45.655  33.695  43.101  0.00  0.00    +0.000 N 
ATOM      5  N   UNL     1      45.298  33.179  44.269  0.00  0.00    +0.000 NA
ATOM      6  H   UNL     1      48.504  33.216  44.544  0.00  0.00    +0.000 HD
ATOM      7  H   UNL     1      47.609  34.148  42.260  0.00  0.00    +0.000 HD
ENDROOT
BRANCH   4  10
ATOM      8  F   UNL     1      44.812  32.036  40.984  0.00  0.00    +0.000 F 
ATOM      9  C   UNL     1      44.320  33.276  41.091  0.00  0.00    +0.000 A 
ATOM     10  C   UNL     1      44.733  34.071  42.116  0.00  0.00    +0.000 A 
ATOM     11  C   UNL     1      44.232  35.383  42.254  0.00  0.00    +0.000 A 
ATOM     12  C   UNL     1      43.325  35.888  41.366  0.00  0.00    +0.000 A 
ATOM     13  C   UNL     1      42.923  35.061  40.334  0.00  0.00    +0.000 A 
ATOM     14  C   UNL     1      43.408  33.773  40.191  0.00  0.00    +0.000 A 
ATOM     15  H   UNL     1      44.546  36.033  43.061  0.00  0.00    +0.000 HD
ATOM     16  H   UNL     1      42.949  36.897  41.483  0.00  0.00    +0.000 HD
ATOM     17  H   UNL     1      42.201  35.483  39.639  0.00  0.00    +0.000 HD
BRANCH  14  18
ATOM     18  C   UNL     1      42.916  32.985  39.064  0.00  0.00    +0.000 A 
ATOM     19  C   UNL     1      43.548  32.477  37.965  0.00  0.00    +0.000 A 
ATOM     20  N   UNL     1      42.678  31.809  37.187  0.00  0.00    +0.000 N 
ATOM     21  C   UNL     1      41.491  31.892  37.791  0.00  0.00    +0.000 A 
ATOM     22  N   UNL     1      41.632  32.600  38.923  0.00  0.00    +0.000 NA
ATOM     23  H   UNL     1      44.622  32.627  37.793  0.00  0.00    +0.000 HD
ATOM     24  H   UNL     1      42.912  31.330  36.292  0.00  0.00    +0.000 HD
ATOM     25  H   UNL     1      40.534  31.466  37.453  0.00  0.00    +0.000 HD
ENDBRANCH  14  18
ENDBRANCH   4  10
BRANCH   1  30
ATOM     26  C   UNL     1      47.374  30.857  47.864  0.00  0.00    +0.000 A 
ATOM     27  C   UNL     1      46.516  31.302  48.890  0.00  0.00    +0.000 A 
ATOM     28  C   UNL     1      45.589  32.307  48.591  0.00  0.00    +0.000 A 
ATOM     29  N   UNL     1      45.616  32.753  47.328  0.00  0.00    +0.000 NA
ATOM     30  C   UNL     1      46.418  32.343  46.355  0.00  0.00    +0.000 A 
ATOM     31  N   UNL     1      47.326  31.367  46.623  0.00  0.00    +0.000 NA
ATOM     32  H   UNL     1      48.088  30.070  48.126  0.00  0.00    +0.000 HD
ATOM     33  H   UNL     1      46.518  30.924  49.894  0.00  0.00    +0.000 HD
BRANCH  28  34
ATOM     34  C   UNL     1      44.622  32.881  49.551  0.00  0.00    +0.000 C 
BRANCH  34  35
ATOM     35  N   UNL     1      43.955  31.887  50.343  0.00  0.00    +0.000 N 
ATOM     36  H   UNL     1      44.437  31.811  51.282  0.00  0.00    +0.000 HD
BRANCH  35  37
ATOM     37  C   UNL     1      44.053  30.558  49.726  0.00  0.00    +0.000 C 
ATOM     38  H   UNL     1      43.476  29.842  50.323  0.00  0.00    +0.000 HD
ENDBRANCH  35  37
BRANCH  35  39
ATOM     39  C   UNL     1      42.586  32.234  50.590  0.00  0.00    +0.000 C 
ATOM     40  H   UNL     1      41.965  31.323  50.732  0.00  0.00    +0.000 HD
ENDBRANCH  35  39
ENDBRANCH  34  35
ENDBRANCH  28  34
ENDBRANCH   1  30
TORSDOF 7
