
 OpenBabel03252502073D

 46 49  0  0  0  0  0  0  0  0999 V2000
   47.4340   32.0670   47.8700 C   0  0  0  0  0  0  0  0  0  0  0  0
   46.8950   30.7740   47.8920 C   0  0  0  0  0  0  0  0  0  0  0  0
   45.9250   30.5010   46.9890 C   0  0  0  0  0  0  0  0  0  0  0  0
   45.5250   31.4440   46.1220 N   0  0  0  0  0  0  0  0  0  0  0  0
   46.0170   32.6630   46.0790 C   0  0  0  0  0  0  0  0  0  0  0  0
   46.9860   32.9620   46.9760 N   0  0  0  0  0  0  0  0  0  0  0  0
   45.3300   29.2600   46.9630 N   0  0  0  0  0  0  0  0  0  0  0  0
   44.1370   28.9090   46.1380 C   0  0  0  0  0  0  0  0  0  0  0  0
   44.0250   27.4140   46.1970 C   0  0  0  0  0  0  0  0  0  0  0  0
   44.6510   27.0820   47.5060 C   0  0  0  0  0  0  0  0  0  0  0  0
   45.7210   28.1000   47.7090 C   0  0  0  0  0  0  0  0  0  0  0  0
   48.2220   32.3410   48.5840 H   0  0  0  0  0  0  0  0  0  0  0  0
   44.2460   29.2270   45.1040 H   0  0  0  0  0  0  0  0  0  0  0  0
   43.2810   29.4200   46.6580 H   0  0  0  0  0  0  0  0  0  0  0  0
   42.9490   27.0810   46.2300 H   0  0  0  0  0  0  0  0  0  0  0  0
   44.5830   26.9400   45.3870 H   0  0  0  0  0  0  0  0  0  0  0  0
   43.8730   27.0680   48.3160 H   0  0  0  0  0  0  0  0  0  0  0  0
   45.0850   26.0560   47.5090 H   0  0  0  0  0  0  0  0  0  0  0  0
   45.6710   28.3220   48.7960 H   0  0  0  0  0  0  0  0  0  0  0  0
   46.6650   27.6630   47.3630 H   0  0  0  0  0  0  0  0  0  0  0  0
   45.7390   33.8190   45.1940 C   0  0  0  0  0  0  0  0  0  0  0  0
   44.8470   34.7780   45.4760 N   0  0  0  0  0  0  0  0  0  0  0  0
   44.5880   35.8270   44.6990 C   0  0  0  0  0  0  0  0  0  0  0  0
   45.2460   35.9840   43.5270 N   0  0  0  0  0  0  0  0  0  0  0  0
   46.1530   35.1010   43.1370 C   0  0  0  0  0  0  0  0  0  0  0  0
   46.8400   35.2540   41.9400 C   0  0  0  0  0  0  0  0  0  0  0  0
   47.7780   34.3590   41.5340 C   0  0  0  0  0  0  0  0  0  0  0  0
   48.0310   33.2840   42.3490 C   0  0  0  0  0  0  0  0  0  0  0  0
   47.3310   33.1520   43.5390 C   0  0  0  0  0  0  0  0  0  0  0  0
   46.3860   34.0290   43.9800 C   0  0  0  0  0  0  0  0  0  0  0  0
   43.8370   36.5500   45.0320 H   0  0  0  0  0  0  0  0  0  0  0  0
   46.6220   36.1090   41.3160 H   0  0  0  0  0  0  0  0  0  0  0  0
   48.2980   34.5030   40.5970 H   0  0  0  0  0  0  0  0  0  0  0  0
   47.7130   31.9800   44.2510 N   0  0  0  0  0  0  0  0  0  0  0  0
   47.0830   31.2520   43.8390 H   0  0  0  0  0  0  0  0  0  0  0  0
   48.4140   31.7670   44.9890 H   0  0  0  0  0  0  0  0  0  0  0  0
   49.0650   32.3240   41.8830 C   0  0  0  0  0  2  0  0  0  0  0  0
   48.9730   32.0450   40.4750 N   0  0  0  0  0  4  0  0  0  0  0  0
   48.6790   32.9070   39.9810 H   0  0  0  0  0  0  0  0  0  0  0  0
   48.1050   30.9360   40.1650 C   0  0  0  0  0  2  0  0  0  0  0  0
   47.9560   30.9310   39.0650 H   0  0  0  0  0  0  0  0  0  0  0  0
   50.2790   31.6770   39.9390 C   0  0  0  0  0  2  0  0  0  0  0  0
   50.4670   30.6010   40.2080 H   0  0  0  0  0  0  0  0  0  0  0  0
   47.4170   29.8860   48.7920 N   0  0  0  0  0  0  0  0  0  0  0  0
   48.1200   29.2000   48.4380 H   0  0  0  0  0  0  0  0  0  0  0  0
   47.1670   29.8430   49.8260 H   0  0  0  0  0  0  0  0  0  0  0  0
  1  2  1  0  0  0  0
  1 12  1  0  0  0  0
  2 44  1  0  0  0  0
  3  2  2  0  0  0  0
  4  3  1  0  0  0  0
  5  4  2  0  0  0  0
  5  6  1  0  0  0  0
  6  1  2  0  0  0  0
  7  3  1  0  0  0  0
  7 11  1  0  0  0  0
  8  9  1  0  0  0  0
  8 14  1  0  0  0  0
  8  7  1  0  0  0  0
  9 15  1  0  0  0  0
  9 10  1  0  0  0  0
 10 18  1  0  0  0  0
 10 11  1  0  0  0  0
 10 17  1  0  0  0  0
 11 19  1  0  0  0  0
 13  8  1  0  0  0  0
 16  9  1  0  0  0  0
 20 11  1  0  0  0  0
 21 22  1  0  0  0  0
 21  5  1  0  0  0  0
 23 31  1  0  0  0  0
 23 22  2  0  0  0  0
 24 23  1  0  0  0  0
 25 24  2  0  0  0  0
 25 30  1  0  0  0  0
 26 25  1  0  0  0  0
 27 26  2  0  0  0  0
 27 28  1  0  0  0  0
 28 29  2  0  0  0  0
 29 30  1  0  0  0  0
 29 34  1  0  0  0  0
 30 21  2  0  0  0  0
 32 26  1  0  0  0  0
 33 27  1  0  0  0  0
 34 36  1  0  0  0  0
 35 34  1  0  0  0  0
 37 28  1  0  0  0  0
 38 37  1  0  0  0  0
 39 38  1  0  0  0  0
 40 38  1  0  0  0  0
 41 40  1  0  0  0  0
 42 43  1  0  0  0  0
 42 38  1  0  0  0  0
 44 46  1  0  0  0  0
 45 44  1  0  0  0  0
M  END
>  <minimizedAffinity>
-6.37268782

>  <minimizedRMSD>
0.633808672

$$$$
