REMARK  Name = 
REMARK  7 active torsions:
REMARK  status: ('A' for Active; 'I' for Inactive)
REMARK    1  A    between atoms: C_1  and  C_10
REMARK    2  A    between atoms: C_2  and  C_7
REMARK    3  A    between atoms: C_10  and  C_14
REMARK    4  A    between atoms: C_18  and  C_29
REMARK    5  A    between atoms: C_29  and  N_30
REMARK    6  A    between atoms: N_30  and  C_31
REMARK    7  A    between atoms: N_30  and  C_33
REMARK                            x       y       z     vdW  Elec       q    Type
REMARK                         _______ _______ _______ _____ _____    ______ ____
ROOT
ATOM      1  C   UNL     1      46.452  33.533  44.620  0.00  0.00    +0.000 C 
ATOM      2  O   UNL     1      45.880  33.898  45.618  0.00  0.00    +0.000 OA
ENDROOT
BRANCH   1   5
ATOM      3 CL   UNL     1      44.687  31.664  42.919  0.00  0.00    +0.000 Cl
ATOM      4  C   UNL     1      44.649  33.423  42.765  0.00  0.00    +0.000 A 
ATOM      5  C   UNL     1      45.524  34.125  43.622  0.00  0.00    +0.000 A 
ATOM      6  C   UNL     1      45.418  35.488  43.402  0.00  0.00    +0.000 A 
ATOM      7  C   UNL     1      44.650  36.169  42.541  0.00  0.00    +0.000 A 
ATOM      8  C   UNL     1      43.834  35.416  41.751  0.00  0.00    +0.000 A 
ATOM      9  C   UNL     1      43.815  34.066  41.844  0.00  0.00    +0.000 A 
ATOM     10  H   UNL     1      46.016  36.191  44.023  0.00  0.00    +0.000 HD
ATOM     11  H   UNL     1      44.613  37.240  42.414  0.00  0.00    +0.000 HD
ATOM     12  H   UNL     1      43.155  35.825  41.007  0.00  0.00    +0.000 HD
BRANCH   9  13
ATOM     13  C   UNL     1      42.908  33.223  41.005  0.00  0.00    +0.000 C 
BRANCH  13  14
ATOM     14  N   UNL     1      42.700  33.764  39.698  0.00  0.00    +0.000 N 
ATOM     15  H   UNL     1      43.182  33.085  39.028  0.00  0.00    +0.000 HD
BRANCH  14  16
ATOM     16  C   UNL     1      43.218  35.070  39.455  0.00  0.00    +0.000 C 
ATOM     17  H   UNL     1      42.383  35.825  39.371  0.00  0.00    +0.000 HD
ENDBRANCH  14  16
BRANCH  14  18
ATOM     18  C   UNL     1      41.300  33.727  39.335  0.00  0.00    +0.000 C 
ATOM     19  H   UNL     1      41.058  32.842  38.690  0.00  0.00    +0.000 HD
ENDBRANCH  14  18
ENDBRANCH  13  14
ENDBRANCH   9  13
ENDBRANCH   1   5
BRANCH   1  20
ATOM     20  C   UNL     1      47.532  32.841  43.907  0.00  0.00    +0.000 A 
ATOM     21  C   UNL     1      48.374  33.388  43.017  0.00  0.00    +0.000 A 
ATOM     22  C   UNL     1      49.238  32.494  42.419  0.00  0.00    +0.000 A 
ATOM     23  N   UNL     1      49.166  31.136  42.785  0.00  0.00    +0.000 NA
ATOM     24  C   UNL     1      48.313  30.678  43.671  0.00  0.00    +0.000 A 
ATOM     25  N   UNL     1      47.432  31.542  44.287  0.00  0.00    +0.000 NA
ATOM     26  H   UNL     1      49.976  32.770  41.677  0.00  0.00    +0.000 HD
ATOM     27  H   UNL     1      48.378  29.609  43.852  0.00  0.00    +0.000 HD
BRANCH  21  28
ATOM     28  C   UNL     1      48.524  34.772  42.733  0.00  0.00    +0.000 C 
ATOM     29  C   UNL     1      49.522  35.400  42.059  0.00  0.00    +0.000 C 
ATOM     30  C   UNL     1      48.279  35.222  41.231  0.00  0.00    +0.000 C 
ATOM     31  H   UNL     1      48.060  35.430  43.491  0.00  0.00    +0.000 HD
ATOM     32  H   UNL     1      50.388  34.817  41.658  0.00  0.00    +0.000 HD
ATOM     33  H   UNL     1      49.839  36.476  42.112  0.00  0.00    +0.000 HD
ATOM     34  H   UNL     1      48.219  34.385  40.523  0.00  0.00    +0.000 HD
ATOM     35  H   UNL     1      47.583  36.068  41.144  0.00  0.00    +0.000 HD
ENDBRANCH  21  28
ENDBRANCH   1  20
TORSDOF 7
