
 OpenBabel03242512113D

 39 41  0  0  1  0  0  0  0  0999 V2000
   48.9100   32.0210   43.2700 O   0  0  0  0  0  0  0  0  0  0  0  0
   50.0110   32.2690   42.2510 P   0  0  2  0  0  0  0  0  0  0  0  0
   51.4430   31.5780   42.6940 O   0  0  0  0  0  0  0  0  0  0  0  0
   52.2170   32.1250   42.3890 H   0  0  0  0  0  0  0  0  0  0  0  0
   50.0630   33.9370   41.9800 O   0  0  0  0  0  0  0  0  0  0  0  0
   47.8080   34.4760   41.1410 C   0  0  1  0  0  0  0  0  0  0  0  0
   48.5650   35.7550   41.6850 C   0  0  0  0  0  0  0  0  0  0  0  0
   48.8040   34.4460   42.2390 C   0  0  2  0  0  0  0  0  0  0  0  0
   48.1280   34.1730   40.1470 H   0  0  0  0  0  0  0  0  0  0  0  0
   47.9370   36.5100   42.1970 H   0  0  0  0  0  0  0  0  0  0  0  0
   49.2300   36.2320   40.9290 H   0  0  0  0  0  0  0  0  0  0  0  0
   48.3860   34.0880   43.1990 H   0  0  0  0  0  0  0  0  0  0  0  0
   46.3530   34.5260   41.4650 C   0  0  0  0  0  0  0  0  0  0  0  0
   45.5670   34.2900   40.5540 O   0  0  0  0  0  0  0  0  0  0  0  0
   45.2500   35.9900   43.0920 C   0  0  0  0  0  0  0  0  0  0  0  0
   45.8100   34.8210   42.7400 C   0  0  0  0  0  0  0  0  0  0  0  0
   45.8480   33.8100   43.7570 C   0  0  0  0  0  0  0  0  0  0  0  0
   45.3430   34.0410   44.9900 N   0  0  0  0  0  0  0  0  0  0  0  0
   44.7900   35.2490   45.2770 C   0  0  0  0  0  0  0  0  0  0  0  0
   44.7490   36.1850   44.3560 N   0  0  0  0  0  0  0  0  0  0  0  0
   45.2240   36.7610   42.3120 H   0  0  0  0  0  0  0  0  0  0  0  0
   46.2470   32.8390   43.6350 H   0  0  0  0  0  0  0  0  0  0  0  0
   44.3900   35.4230   46.2660 H   0  0  0  0  0  0  0  0  0  0  0  0
   49.3890   31.5410   40.7990 O   0  0  0  0  0  0  0  0  0  0  0  0
   50.0300   31.5790   39.5820 C   0  0  0  0  0  0  0  0  0  0  0  0
   49.4910   31.7370   38.3120 C   0  0  0  0  0  0  0  0  0  0  0  0
   50.3140   31.7510   37.2090 C   0  0  0  0  0  0  0  0  0  0  0  0
   51.6540   31.6060   37.3790 N   0  0  0  0  0  0  0  0  0  0  0  0
   52.1820   31.4520   38.6100 C   0  0  0  0  0  0  0  0  0  0  0  0
   51.3690   31.4380   39.7160 N   0  0  0  0  0  0  0  0  0  0  0  0
   48.4110   31.8410   38.3150 H   0  0  0  0  0  0  0  0  0  0  0  0
   49.8340   31.8780   36.2430 H   0  0  0  0  0  0  0  0  0  0  0  0
   53.6590   31.2960   38.7560 C   0  0  0  0  0  0  0  0  0  0  0  0
   54.1820   30.2010   38.0030 N   0  0  0  0  0  0  0  0  0  0  0  0
   53.4500   29.8010   37.3720 H   0  0  0  0  0  0  0  0  0  0  0  0
   54.6660   29.1130   38.8240 C   0  0  0  0  0  0  0  0  0  0  0  0
   54.9880   28.2960   38.1450 H   0  0  0  0  0  0  0  0  0  0  0  0
   55.2560   30.6440   37.1050 C   0  0  0  0  0  0  0  0  0  0  0  0
   55.2180   30.1710   36.1230 H   0  0  0  0  0  0  0  0  0  0  0  0
  2  3  1  0  0  0  0
  2  1  2  1  0  0  0
  4  3  1  0  0  0  0
  5  8  1  0  0  0  0
  5  2  1  0  0  0  0
  6  9  1  6  0  0  0
  6 13  1  0  0  0  0
  6  7  1  0  0  0  0
  6  8  1  0  0  0  0
  7 10  1  0  0  0  0
  7  8  1  0  0  0  0
  8 12  1  1  0  0  0
 11  7  1  0  0  0  0
 13 16  1  0  0  0  0
 14 13  2  0  0  0  0
 15 20  1  0  0  0  0
 16 15  2  0  0  0  0
 16 17  1  0  0  0  0
 17 18  2  0  0  0  0
 18 19  1  0  0  0  0
 19 23  1  0  0  0  0
 20 19  2  0  0  0  0
 21 15  1  0  0  0  0
 22 17  1  0  0  0  0
 24  2  1  0  0  0  0
 25 30  1  0  0  0  0
 25 24  1  0  0  0  0
 26 31  1  0  0  0  0
 26 25  2  0  0  0  0
 27 28  2  0  0  0  0
 27 26  1  0  0  0  0
 28 29  1  0  0  0  0
 29 33  1  0  0  0  0
 29 30  2  0  0  0  0
 32 27  1  0  0  0  0
 34 33  1  0  0  0  0
 34 36  1  0  0  0  0
 35 34  1  0  0  0  0
 37 36  1  0  0  0  0
 38 34  1  0  0  0  0
 39 38  1  0  0  0  0
M  END
>  <minimizedAffinity>
-4.99771261

>  <minimizedRMSD>
0.916993082

$$$$
