
     RDKit          3D

 42 43  0  0  0  0  0  0  0  0999 V2000
   44.7677   34.4963   40.4547 C   0  0  0  0  0  0  0  0  0  0  0  0
   45.9214   34.1246   41.0002 N   0  0  0  0  0  0  0  0  0  0  0  0
   46.8352   33.1341   40.5565 C   0  0  0  0  0  0  0  0  0  0  0  0
   47.9056   34.0655   39.9371 C   0  0  0  0  0  0  0  0  0  0  0  0
   48.5086   34.9766   40.9117 C   0  0  0  0  0  0  0  0  0  0  0  0
   47.7588   35.3083   42.1249 C   0  0  0  0  0  0  0  0  0  0  0  0
   46.3261   34.8692   42.1966 C   0  0  0  0  0  0  0  0  0  0  0  0
   45.3018   35.2831   43.5751 S   0  0  0  0  0  0  0  0  0  0  0  0
   43.6414   33.5560   40.7621 C   0  0  0  0  0  0  0  0  0  0  0  0
   42.3761   34.3034   40.5455 C   0  0  0  0  0  0  0  0  0  0  0  0
   41.6294   34.1151   39.3989 C   0  0  0  0  0  0  0  0  0  0  0  0
   40.4516   34.8697   39.2625 C   0  0  0  0  0  0  0  0  0  0  0  0
   40.1111   35.7416   40.2627 N   0  0  0  0  0  0  0  0  0  0  0  0
   40.8819   35.8732   41.3468 C   0  0  0  0  0  0  0  0  0  0  0  0
   41.9873   35.1642   41.4736 N   0  0  0  0  0  0  0  0  0  0  0  0
   44.3615   35.5369   40.6775 H   0  0  0  0  0  0  0  0  0  0  0  0
   44.8644   34.5530   39.3371 H   0  0  0  0  0  0  0  0  0  0  0  0
   47.2389   32.4193   41.2493 H   0  0  0  0  0  0  0  0  0  0  0  0
   46.3660   32.6256   39.6650 H   0  0  0  0  0  0  0  0  0  0  0  0
   48.6729   33.3965   39.4675 H   0  0  0  0  0  0  0  0  0  0  0  0
   47.3631   34.6217   39.1391 H   0  0  0  0  0  0  0  0  0  0  0  0
   48.7298   35.9490   40.3881 H   0  0  0  0  0  0  0  0  0  0  0  0
   49.5176   34.6172   41.2583 H   0  0  0  0  0  0  0  0  0  0  0  0
   48.1068   35.8498   42.9673 H   0  0  0  0  0  0  0  0  0  0  0  0
   45.0976   34.1582   44.3970 H   0  0  0  0  0  0  0  0  0  0  0  0
   43.6882   33.0982   41.7721 H   0  0  0  0  0  0  0  0  0  0  0  0
   43.6863   32.7265   40.0256 H   0  0  0  0  0  0  0  0  0  0  0  0
   41.9332   33.4232   38.6434 H   0  0  0  0  0  0  0  0  0  0  0  0
   39.8302   34.7622   38.3864 H   0  0  0  0  0  0  0  0  0  0  0  0
   40.5083   36.8221   42.4320 C   0  0  0  0  0  0  0  0  0  0  0  0
   40.4141   38.1899   41.9969 N   0  0  0  0  0  4  0  0  0  0  0  0
   41.3963   38.5678   41.0111 C   0  0  0  0  0  0  0  0  0  0  0  0
   42.3749   38.8194   41.4659 H   0  0  0  0  0  0  0  0  0  0  0  0
   39.0617   38.5004   41.5475 C   0  0  0  0  0  0  0  0  0  0  0  0
   38.4768   37.5372   41.5436 H   0  0  0  0  0  0  0  0  0  0  0  0
   39.5190   36.5331   42.8733 H   0  0  0  0  0  0  0  0  0  0  0  0
   41.2247   36.7825   43.2793 H   0  0  0  0  0  0  0  0  0  0  0  0
   40.5760   38.8040   42.8265 H   0  0  0  0  0  0  0  0  0  0  0  0
   41.5860   37.7598   40.2720 H   0  0  0  0  0  0  0  0  0  0  0  0
   41.0180   39.4893   40.5094 H   0  0  0  0  0  0  0  0  0  0  0  0
   38.5123   39.1627   42.2475 H   0  0  0  0  0  0  0  0  0  0  0  0
   39.0417   38.9626   40.5415 H   0  0  0  0  0  0  0  0  0  0  0  0
  1  9  1  0
  1  2  1  0
  2  7  1  0
  3  2  1  0
  4  3  1  0
  4  5  1  0
  5  6  1  0
  6  7  2  0
  7  8  1  0
 10  9  1  0
 10 15  1  0
 11 10  2  0
 12 11  1  0
 12 13  2  0
 13 14  1  0
 14 15  2  0
  1 16  1  0
  1 17  1  0
  3 18  1  0
  3 19  1  0
  4 20  1  0
  4 21  1  0
  5 22  1  0
  5 23  1  0
  6 24  1  0
  8 25  1  0
  9 26  1  0
  9 27  1  0
 11 28  1  0
 12 29  1  0
 30 31  1  0
 31 32  1  0
 32 33  1  0
 31 34  1  0
 34 35  1  0
 30 36  1  0
 30 37  1  0
 31 38  1  0
 32 39  1  0
 32 40  1  0
 34 41  1  0
 34 42  1  0
 14 30  1  0
M  ISO  8  16   8  17   8  18  13  19  13  20  13  21  13  22  13  23  13
M  ISO  8  24  13  25  11  26   8  27   8  28  14  29  14  33   8  35   8
M  CHG  1  31   1
M  END
>  <DihAtoms>  (1) 
12,13,29,30

>  <DihDeg>  (1) 
90.00021445884195

$$$$
