
 OpenBabel03252508543D

 41 43  0  0  1  0  0  0  0  0999 V2000
   43.2270   34.4250   40.4720 C   0  0  0  0  0  0  0  0  0  0  0  0
   42.6900   35.5550   40.7410 O   0  0  0  0  0  0  0  0  0  0  0  0
   42.4200   34.0630   39.3190 N   0  0  0  0  0  0  0  0  0  0  0  0
   42.4850   34.9920   38.2090 C   0  0  0  0  0  0  0  0  0  0  0  0
   41.2070   35.8170   38.3080 C   0  0  0  0  0  0  0  0  0  0  0  0
   40.1110   34.8890   38.8250 C   0  0  0  0  0  0  0  0  0  0  0  0
   40.3630   33.4480   38.3760 C   0  0  0  0  0  0  0  0  0  0  0  0
   41.5580   32.8920   39.1370 C   0  0  2  0  0  0  0  0  0  0  0  0
   43.3460   35.6830   38.2640 H   0  0  0  0  0  0  0  0  0  0  0  0
   42.4430   34.4600   37.2270 H   0  0  0  0  0  0  0  0  0  0  0  0
   41.3680   36.5750   39.1030 H   0  0  0  0  0  0  0  0  0  0  0  0
   40.9260   36.2810   37.3450 H   0  0  0  0  0  0  0  0  0  0  0  0
   39.1170   35.1990   38.4870 H   0  0  0  0  0  0  0  0  0  0  0  0
   40.1420   34.8710   39.9390 H   0  0  0  0  0  0  0  0  0  0  0  0
   40.6070   33.4950   37.2810 H   0  0  0  0  0  0  0  0  0  0  0  0
   39.4400   32.8900   38.5690 H   0  0  0  0  0  0  0  0  0  0  0  0
   42.0760   32.1930   38.4710 H   0  0  0  0  0  0  0  0  0  0  0  0
   44.2580   33.7910   41.1170 O   0  0  0  0  0  0  0  0  0  0  0  0
   45.6020   34.0520   40.9360 C   0  0  0  0  0  0  0  0  0  0  0  0
   46.3040   34.6540   41.9780 C   0  0  0  0  0  0  0  0  0  0  0  0
   47.6610   34.9060   41.7670 C   0  0  0  0  0  0  0  0  0  0  0  0
   48.2170   34.5530   40.5660 N   0  0  0  0  0  0  0  0  0  0  0  0
   47.5080   33.9850   39.6100 C   0  0  0  0  0  0  0  0  0  0  0  0
   46.1920   33.7300   39.7870 N   0  0  0  0  0  0  0  0  0  0  0  0
   48.2260   35.3690   42.5540 H   0  0  0  0  0  0  0  0  0  0  0  0
   47.9280   33.6980   38.6520 H   0  0  0  0  0  0  0  0  0  0  0  0
   45.6200   34.9890   43.2140 C   0  0  0  0  0  0  0  0  0  0  0  0
   45.0380   36.2210   43.4500 C   0  0  0  0  0  0  0  0  0  0  0  0
   44.5150   36.1100   44.7080 C   0  0  0  0  0  0  0  0  0  0  0  0
   44.7600   34.8800   45.2210 N   0  0  0  0  0  0  0  0  0  0  0  0
   45.4250   34.2350   44.2950 N   0  0  0  0  0  0  0  0  0  0  0  0
   45.0100   37.0690   42.7790 H   0  0  0  0  0  0  0  0  0  0  0  0
   43.9660   36.8740   45.2720 H   0  0  0  0  0  0  0  0  0  0  0  0
   44.4910   34.4760   46.1660 H   0  0  0  0  0  0  0  0  0  0  0  0
   41.1530   32.2880   40.4510 C   0  0  0  0  0  2  0  0  0  0  0  0
   39.8130   32.6990   40.8210 N   0  0  0  0  0  4  0  0  0  0  0  0
   39.3590   33.2640   40.0820 H   0  0  0  0  0  0  0  0  0  0  0  0
   39.8720   33.5490   42.0200 C   0  0  0  0  0  2  0  0  0  0  0  0
   38.8730   33.6800   42.4550 H   0  0  0  0  0  0  0  0  0  0  0  0
   38.9490   31.5710   41.0940 C   0  0  0  0  0  2  0  0  0  0  0  0
   39.4940   30.7240   41.5800 H   0  0  0  0  0  0  0  0  0  0  0  0
  1  2  2  0  0  0  0
  1 18  1  0  0  0  0
  3  1  1  0  0  0  0
  4  9  1  0  0  0  0
  4  5  1  0  0  0  0
  4  3  1  0  0  0  0
  5  6  1  0  0  0  0
  5 11  1  0  0  0  0
  6 14  1  0  0  0  0
  7 16  1  0  0  0  0
  7  6  1  0  0  0  0
  7  8  1  0  0  0  0
  8 17  1  6  0  0  0
  8  3  1  0  0  0  0
  8 35  1  0  0  0  0
 10  4  1  0  0  0  0
 12  5  1  0  0  0  0
 13  6  1  0  0  0  0
 15  7  1  0  0  0  0
 19 18  1  0  0  0  0
 19 20  1  0  0  0  0
 20 27  1  0  0  0  0
 21 20  2  0  0  0  0
 21 25  1  0  0  0  0
 22 21  1  0  0  0  0
 23 24  1  0  0  0  0
 23 22  2  0  0  0  0
 24 19  2  0  0  0  0
 26 23  1  0  0  0  0
 27 28  1  0  0  0  0
 27 31  2  0  0  0  0
 28 29  2  0  0  0  0
 29 30  1  0  0  0  0
 29 33  1  0  0  0  0
 30 34  1  0  0  0  0
 31 30  1  0  0  0  0
 32 28  1  0  0  0  0
 35 36  1  0  0  0  0
 36 40  1  0  0  0  0
 36 38  1  0  0  0  0
 37 36  1  0  0  0  0
 38 39  1  0  0  0  0
 40 41  1  0  0  0  0
M  END
>  <minimizedAffinity>
-5.98831177

>  <minimizedRMSD>
1.62261677

$$$$
