
     RDKit          3D

 46 49  0  0  0  0  0  0  0  0999 V2000
   44.8115   32.0364   40.9844 F   0  0  0  0  0  0  0  0  0  0  0  0
   44.3204   33.2763   41.0906 C   0  0  0  0  0  0  0  0  0  0  0  0
   44.7330   34.0708   42.1160 C   0  0  0  0  0  0  0  0  0  0  0  0
   44.2324   35.3832   42.2536 C   0  0  0  0  0  0  0  0  0  0  0  0
   43.3252   35.8882   41.3658 C   0  0  0  0  0  0  0  0  0  0  0  0
   42.9226   35.0610   40.3336 C   0  0  0  0  0  0  0  0  0  0  0  0
   43.4080   33.7727   40.1907 C   0  0  0  0  0  0  0  0  0  0  0  0
   42.9155   32.9849   39.0640 C   0  0  0  0  0  0  0  0  0  0  0  0
   43.5480   32.4772   37.9649 C   0  0  0  0  0  0  0  0  0  0  0  0
   42.6785   31.8093   37.1872 N   0  0  0  0  0  0  0  0  0  0  0  0
   41.4910   31.8916   37.7915 C   0  0  0  0  0  0  0  0  0  0  0  0
   41.6318   32.5997   38.9227 N   0  0  0  0  0  0  0  0  0  0  0  0
   46.3477   32.9078   45.0236 C   0  0  0  0  0  0  0  0  0  0  0  0
   47.4506   33.2882   44.2564 C   0  0  0  0  0  0  0  0  0  0  0  0
   46.9983   33.7739   43.0668 C   0  0  0  0  0  0  0  0  0  0  0  0
   45.6546   33.6948   43.1010 N   0  0  0  0  0  0  0  0  0  0  0  0
   45.2985   33.1793   44.2693 N   0  0  0  0  0  0  0  0  0  0  0  0
   47.3738   30.8568   47.8645 C   0  0  0  0  0  0  0  0  0  0  0  0
   46.5157   31.3015   48.8899 C   0  0  0  0  0  0  0  0  0  0  0  0
   45.5892   32.3072   48.5906 C   0  0  0  0  0  0  0  0  0  0  0  0
   45.6161   32.7528   47.3280 N   0  0  0  0  0  0  0  0  0  0  0  0
   46.4176   32.3430   46.3555 C   0  0  0  0  0  0  0  0  0  0  0  0
   47.3259   31.3666   46.6235 N   0  0  0  0  0  0  0  0  0  0  0  0
   44.5463   36.0327   43.0612 H   0  0  0  0  0  0  0  0  0  0  0  0
   42.9490   36.8966   41.4827 H   0  0  0  0  0  0  0  0  0  0  0  0
   42.2006   35.4826   39.6391 H   0  0  0  0  0  0  0  0  0  0  0  0
   44.6220   32.6265   37.7932 H   0  0  0  0  0  0  0  0  0  0  0  0
   42.9119   31.3297   36.2918 H   0  0  0  0  0  0  0  0  0  0  0  0
   40.5343   31.4656   37.4534 H   0  0  0  0  0  0  0  0  0  0  0  0
   48.5036   33.2160   44.5440 H   0  0  0  0  0  0  0  0  0  0  0  0
   47.6088   34.1475   42.2599 H   0  0  0  0  0  0  0  0  0  0  0  0
   48.0883   30.0698   48.1263 H   0  0  0  0  0  0  0  0  0  0  0  0
   46.5183   30.9242   49.8935 H   0  0  0  0  0  0  0  0  0  0  0  0
   44.6224   32.8810   49.5513 C   0  0  0  0  0  0  0  0  0  0  0  0
   44.2115   31.9500   50.5638 N   0  0  0  0  0  4  0  0  0  0  0  0
   44.4893   30.5656   50.1610 C   0  0  0  0  0  0  0  0  0  0  0  0
   44.1016   29.8843   50.9278 H   0  0  0  0  0  0  0  0  0  0  0  0
   42.8295   32.1125   50.9070 C   0  0  0  0  0  0  0  0  0  0  0  0
   42.3941   31.1546   51.2642 H   0  0  0  0  0  0  0  0  0  0  0  0
   43.7689   33.3356   49.0111 H   0  0  0  0  0  0  0  0  0  0  0  0
   45.1321   33.7485   50.0505 H   0  0  0  0  0  0  0  0  0  0  0  0
   44.7786   32.1198   51.4417 H   0  0  0  0  0  0  0  0  0  0  0  0
   45.5847   30.4367   50.0710 H   0  0  0  0  0  0  0  0  0  0  0  0
   43.9309   30.3453   49.2271 H   0  0  0  0  0  0  0  0  0  0  0  0
   42.2071   32.5138   50.0818 H   0  0  0  0  0  0  0  0  0  0  0  0
   42.7291   32.8012   51.7954 H   0  0  0  0  0  0  0  0  0  0  0  0
  1  2  1  0
  2  3  2  0
  3  4  1  0
  3 16  1  0
  5  4  2  0
  6  5  1  0
  7  6  2  0
  7  2  1  0
  8  7  1  0
  9  8  2  0
 10 11  1  0
 10  9  1  0
 11 12  2  0
 12  8  1  0
 13 22  1  0
 14 13  1  0
 15 16  1  0
 15 14  2  0
 16 17  1  0
 17 13  2  0
 18 19  2  0
 20 19  1  0
 21 20  2  0
 22 23  2  0
 22 21  1  0
 23 18  1  0
  4 24  1  0
  5 25  1  0
  6 26  1  0
  9 27  1  0
 10 28  1  0
 11 29  1  0
 14 30  1  0
 15 31  1  0
 18 32  1  0
 19 33  1  0
 34 35  1  0
 35 36  1  0
 36 37  1  0
 35 38  1  0
 38 39  1  0
 34 40  1  0
 34 41  1  0
 35 42  1  0
 36 43  1  0
 36 44  1  0
 38 45  1  0
 38 46  1  0
 20 34  1  0
M  ISO  8  24  14  25  14  26  14  27  14  28   9  29  14  30  14  31  14
M  CHG  1  35   1
M  ISO  4  32  14  33  14  37   8  39   8
M  END
>  <DihAtoms>  (1) 
18,19,33,34

>  <DihDeg>  (1) 
90.00947429150996

$$$$
