
 OpenBabel03242518123D

 29 30  0  0  0  0  0  0  0  0999 V2000
   49.2260   34.4420   42.3120 C   0  0  0  0  0  0  0  0  0  0  0  0
   50.1490   35.0470   42.4380 H   0  0  0  0  0  0  0  0  0  0  0  0
   48.8800   34.1940   43.3420 H   0  0  0  0  0  0  0  0  0  0  0  0
   49.5370   33.2770   41.5470 C   0  0  0  0  0  0  0  0  0  0  0  0
   49.1200   32.6890   40.3050 C   0  0  0  0  0  0  0  0  0  0  0  0
   49.6930   31.5170   39.9040 C   0  0  0  0  0  0  0  0  0  0  0  0
   50.7010   30.9230   40.7650 C   0  0  0  0  0  0  0  0  0  0  0  0
   50.8330   32.0570   42.1680 S   0  0  0  0  0  0  0  0  0  0  0  0
   48.3670   33.2450   39.7850 H   0  0  0  0  0  0  0  0  0  0  0  0
   49.4090   31.0450   38.9800 H   0  0  0  0  0  0  0  0  0  0  0  0
   51.4010   29.7290   40.5260 C   0  0  0  0  0  2  0  0  0  0  0  0
   52.5480   29.9250   39.7080 N   0  0  0  0  0  4  0  0  0  0  0  0
   53.2930   29.2370   39.9650 H   0  0  0  0  0  0  0  0  0  0  0  0
   53.0790   31.2690   39.7270 C   0  0  0  0  0  2  0  0  0  0  0  0
   53.7710   31.3830   40.5850 H   0  0  0  0  0  0  0  0  0  0  0  0
   52.2250   29.6050   38.3150 C   0  0  0  0  0  2  0  0  0  0  0  0
   51.8240   28.5560   38.2880 H   0  0  0  0  0  0  0  0  0  0  0  0
   48.1900   35.3610   41.7060 C   0  0  0  0  0  0  0  0  0  0  0  0
   48.3080   36.3900   42.1310 H   0  0  0  0  0  0  0  0  0  0  0  0
   48.3630   35.4220   40.6370 H   0  0  0  0  0  0  0  0  0  0  0  0
   46.8650   34.8520   42.0290 C   0  0  0  0  0  0  0  0  0  0  0  0
   46.4200   34.7140   43.3320 C   0  0  0  0  0  0  0  0  0  0  0  0
   45.1370   34.2170   43.5550 C   0  0  0  0  0  0  0  0  0  0  0  0
   44.3910   33.8940   42.4760 N   0  0  0  0  0  0  0  0  0  0  0  0
   44.8290   34.0300   41.2240 C   0  0  0  0  0  0  0  0  0  0  0  0
   46.0420   34.5000   41.0330 N   0  0  0  0  0  0  0  0  0  0  0  0
   47.0610   34.9900   44.1660 H   0  0  0  0  0  0  0  0  0  0  0  0
   44.7630   34.1000   44.5800 H   0  0  0  0  0  0  0  0  0  0  0  0
   44.2020   33.7590   40.3840 H   0  0  0  0  0  0  0  0  0  0  0  0
  1  2  1  0  0  0  0
  1  3  1  0  0  0  0
  4  8  1  0  0  0  0
  4  1  1  0  0  0  0
  5  4  2  0  0  0  0
  6  5  1  0  0  0  0
  6  7  2  0  0  0  0
  7  8  1  0  0  0  0
  9  5  1  0  0  0  0
 10  6  1  0  0  0  0
 11  7  1  0  0  0  0
 12 14  1  0  0  0  0
 12 13  1  0  0  0  0
 12 11  1  0  0  0  0
 14 15  1  0  0  0  0
 16 12  1  0  0  0  0
 17 16  1  0  0  0  0
 18 21  1  0  0  0  0
 18 19  1  0  0  0  0
 18  1  1  0  0  0  0
 20 18  1  0  0  0  0
 21 22  1  0  0  0  0
 22 23  2  0  0  0  0
 22 27  1  0  0  0  0
 23 28  1  0  0  0  0
 24 23  1  0  0  0  0
 25 24  2  0  0  0  0
 26 25  1  0  0  0  0
 26 21  2  0  0  0  0
 29 25  1  0  0  0  0
M  END
>  <minimizedAffinity>
-3.37661195

>  <minimizedRMSD>
0.99913162

$$$$
