REMARK  Name = 
REMARK  7 active torsions:
REMARK  status: ('A' for Active; 'I' for Inactive)
REMARK    1  A    between atoms: C_1  and  C_2
REMARK    2  A    between atoms: C_1  and  C_8
REMARK    3  A    between atoms: C_8  and  C_9
REMARK    4  A    between atoms: C_12  and  C_23
REMARK    5  A    between atoms: C_23  and  N_24
REMARK    6  A    between atoms: N_24  and  C_25
REMARK    7  A    between atoms: N_24  and  C_27
REMARK                            x       y       z     vdW  Elec       q    Type
REMARK                         _______ _______ _______ _____ _____    ______ ____
ROOT
ATOM      1  C   UNL     1      49.120  34.377  42.353  0.00  0.00    +0.000 C 
ATOM      2  H   UNL     1      50.026  34.973  42.594  0.00  0.00    +0.000 HD
ATOM      3  H   UNL     1      48.725  34.014  43.330  0.00  0.00    +0.000 HD
ENDROOT
BRANCH   1   4
ATOM      4  C   UNL     1      49.489  33.306  41.484  0.00  0.00    +0.000 A 
ATOM      5  C   UNL     1      48.971  32.686  40.297  0.00  0.00    +0.000 A 
ATOM      6  C   UNL     1      49.657  31.645  39.742  0.00  0.00    +0.000 A 
ATOM      7  C   UNL     1      50.885  31.217  40.391  0.00  0.00    +0.000 A 
ATOM      8  S   UNL     1      51.061  32.320  41.814  0.00  0.00    +0.000 S 
ATOM      9  H   UNL     1      48.056  33.113  39.940  0.00  0.00    +0.000 HD
ATOM     10  H   UNL     1      49.303  31.154  38.853  0.00  0.00    +0.000 HD
BRANCH   7  11
ATOM     11  C   UNL     1      51.726  30.172  39.974  0.00  0.00    +0.000 C 
BRANCH  11  12
ATOM     12  N   UNL     1      51.100  29.316  39.024  0.00  0.00    +0.000 N 
ATOM     13  H   UNL     1      51.788  29.034  38.289  0.00  0.00    +0.000 HD
BRANCH  12  14
ATOM     14  C   UNL     1      49.910  29.862  38.413  0.00  0.00    +0.000 C 
ATOM     15  H   UNL     1      50.192  30.488  37.544  0.00  0.00    +0.000 HD
ENDBRANCH  12  14
BRANCH  12  16
ATOM     16  C   UNL     1      50.718  28.056  39.668  0.00  0.00    +0.000 C 
ATOM     17  H   UNL     1      51.642  27.616  40.134  0.00  0.00    +0.000 HD
ENDBRANCH  12  16
ENDBRANCH  11  12
ENDBRANCH   7  11
ENDBRANCH   1   4
BRANCH   1  18
ATOM     18  C   UNL     1      48.104  35.347  41.796  0.00  0.00    +0.000 C 
ATOM     19  H   UNL     1      48.251  36.354  42.264  0.00  0.00    +0.000 HD
ATOM     20  H   UNL     1      48.270  35.450  40.729  0.00  0.00    +0.000 HD
BRANCH  18  21
ATOM     21  C   UNL     1      46.769  34.858  42.109  0.00  0.00    +0.000 A 
ATOM     22  C   UNL     1      46.328  34.681  43.408  0.00  0.00    +0.000 A 
ATOM     23  C   UNL     1      45.035  34.207  43.621  0.00  0.00    +0.000 A 
ATOM     24  N   UNL     1      44.275  33.943  42.535  0.00  0.00    +0.000 NA
ATOM     25  C   UNL     1      44.709  34.116  41.286  0.00  0.00    +0.000 A 
ATOM     26  N   UNL     1      45.932  34.564  41.105  0.00  0.00    +0.000 NA
ATOM     27  H   UNL     1      46.980  34.910  44.248  0.00  0.00    +0.000 HD
ATOM     28  H   UNL     1      44.664  34.060  44.643  0.00  0.00    +0.000 HD
ATOM     29  H   UNL     1      44.071  33.893  40.441  0.00  0.00    +0.000 HD
ENDBRANCH  18  21
ENDBRANCH   1  18
TORSDOF 7
