
     RDKit          3D

 29 29  0  0  0  0  0  0  0  0999 V2000
   44.6807   35.5228   43.5979 C   0  0  0  0  0  0  0  0  0  0  0  0
   43.9315   35.4270   42.4079 C   0  0  0  0  0  0  0  0  0  0  0  0
   43.7848   34.1603   41.8379 C   0  0  0  0  0  0  0  0  0  0  0  0
   44.3624   33.0988   42.4487 N   0  0  0  0  0  0  0  0  0  0  0  0
   45.0746   33.2243   43.5892 C   0  0  0  0  0  0  0  0  0  0  0  0
   45.2207   34.4278   44.1412 N   0  0  0  0  0  0  0  0  0  0  0  0
   44.8464   36.8407   44.2113 C   0  0  0  0  0  0  0  0  0  0  0  0
   45.2435   37.8489   43.4556 C   0  0  0  0  0  0  0  0  0  0  0  0
   45.4364   39.2154   43.9961 C   0  0  0  0  0  0  0  0  0  0  0  0
   43.5229   36.3251   42.0157 H   0  0  0  0  0  0  0  0  0  0  0  0
   43.2112   34.0786   40.9246 H   0  0  0  0  0  0  0  0  0  0  0  0
   44.6758   37.0995   45.2518 H   0  0  0  0  0  0  0  0  0  0  0  0
   45.4314   37.6583   42.4072 H   0  0  0  0  0  0  0  0  0  0  0  0
   46.4338   39.3322   44.4499 H   0  0  0  0  0  0  0  0  0  0  0  0
   44.6455   39.4580   44.7385 H   0  0  0  0  0  0  0  0  0  0  0  0
   45.3511   39.9582   43.1740 H   0  0  0  0  0  0  0  0  0  0  0  0
   45.6240   31.9644   44.1025 C   0  0  0  0  0  0  0  0  0  0  0  0
   45.3031   30.8054   43.2907 N   0  0  0  0  0  4  0  0  0  0  0  0
   46.2201   29.7610   43.7103 C   0  0  0  0  0  0  0  0  0  0  0  0
   46.2445   29.7992   44.8329 H   0  0  0  0  0  0  0  0  0  0  0  0
   43.9641   30.3396   43.4879 C   0  0  0  0  0  0  0  0  0  0  0  0
   43.5358   30.6424   44.4568 H   0  0  0  0  0  0  0  0  0  0  0  0
   45.3054   31.7439   45.1463 H   0  0  0  0  0  0  0  0  0  0  0  0
   46.7350   32.0313   44.1041 H   0  0  0  0  0  0  0  0  0  0  0  0
   45.4279   31.0182   42.2673 H   0  0  0  0  0  0  0  0  0  0  0  0
   47.2475   30.0660   43.3833 H   0  0  0  0  0  0  0  0  0  0  0  0
   45.9677   28.7607   43.3258 H   0  0  0  0  0  0  0  0  0  0  0  0
   43.2883   30.6213   42.6278 H   0  0  0  0  0  0  0  0  0  0  0  0
   43.9675   29.2300   43.4576 H   0  0  0  0  0  0  0  0  0  0  0  0
  1  6  2  0
  1  7  1  0
  2  1  1  0
  3  2  2  0
  3  4  1  0
  4  5  2  0
  5  6  1  0
  8  9  1  0
  8  7  2  0
  2 10  1  0
  3 11  1  0
  7 12  1  0
  8 13  1  0
  9 14  1  0
  9 15  1  0
  9 16  1  0
 17 18  1  0
 18 19  1  0
 19 20  1  0
 18 21  1  0
 21 22  1  0
 17 23  1  0
 17 24  1  0
 18 25  1  0
 19 26  1  0
 19 27  1  0
 21 28  1  0
 21 29  1  0
  5 17  1  0
M  CHG  1  18   1
M  ISO  7  10  14  11  14  14   8  15   8  16   8  20   8  22   8
M  END
>  <DihAtoms>  (1) 
3,4,16,17

>  <DihDeg>  (1) 
90.00014509307204

$$$$
