
 OpenBabel03242518123D

 29 30  0  0  0  0  0  0  0  0999 V2000
   49.4390   34.1280   42.1730 C   0  0  0  0  0  0  0  0  0  0  0  0
   50.4000   34.6710   42.2940 H   0  0  0  0  0  0  0  0  0  0  0  0
   49.1880   33.7250   43.1820 H   0  0  0  0  0  0  0  0  0  0  0  0
   49.6090   33.0960   41.2020 C   0  0  0  0  0  0  0  0  0  0  0  0
   48.8950   32.5930   40.0620 C   0  0  0  0  0  0  0  0  0  0  0  0
   49.4230   31.5480   39.3600 C   0  0  0  0  0  0  0  0  0  0  0  0
   50.6890   30.9960   39.8120 C   0  0  0  0  0  0  0  0  0  0  0  0
   51.1320   31.9860   41.2590 S   0  0  0  0  0  0  0  0  0  0  0  0
   47.9770   33.1040   39.8570 H   0  0  0  0  0  0  0  0  0  0  0  0
   48.9200   31.1430   38.5000 H   0  0  0  0  0  0  0  0  0  0  0  0
   51.3870   29.9270   39.2250 C   0  0  0  0  0  2  0  0  0  0  0  0
   52.1230   30.3260   38.0730 N   0  0  0  0  0  4  0  0  0  0  0  0
   52.9970   29.7580   37.9940 H   0  0  0  0  0  0  0  0  0  0  0  0
   52.4330   31.7360   38.0140 C   0  0  0  0  0  2  0  0  0  0  0  0
   53.3640   31.9340   38.5790 H   0  0  0  0  0  0  0  0  0  0  0  0
   51.3640   29.9970   36.8630 C   0  0  0  0  0  2  0  0  0  0  0  0
   51.1310   28.8980   36.8930 H   0  0  0  0  0  0  0  0  0  0  0  0
   48.3970   35.1700   41.8400 C   0  0  0  0  0  0  0  0  0  0  0  0
   48.6610   36.1380   42.3390 H   0  0  0  0  0  0  0  0  0  0  0  0
   48.4020   35.3380   40.7680 H   0  0  0  0  0  0  0  0  0  0  0  0
   47.1030   34.7120   42.3270 C   0  0  0  0  0  0  0  0  0  0  0  0
   46.9230   34.2180   43.6060 C   0  0  0  0  0  0  0  0  0  0  0  0
   45.6520   33.7980   43.9930 C   0  0  0  0  0  0  0  0  0  0  0  0
   44.6540   33.8980   43.0870 N   0  0  0  0  0  0  0  0  0  0  0  0
   44.8370   34.3750   41.8550 C   0  0  0  0  0  0  0  0  0  0  0  0
   46.0440   34.7660   41.5080 N   0  0  0  0  0  0  0  0  0  0  0  0
   47.7610   34.1600   44.2980 H   0  0  0  0  0  0  0  0  0  0  0  0
   45.4860   33.4030   45.0030 H   0  0  0  0  0  0  0  0  0  0  0  0
   44.0130   34.4390   41.1570 H   0  0  0  0  0  0  0  0  0  0  0  0
  1  2  1  0  0  0  0
  1  3  1  0  0  0  0
  4  8  1  0  0  0  0
  4  1  1  0  0  0  0
  5  4  2  0  0  0  0
  6  7  2  0  0  0  0
  6  5  1  0  0  0  0
  7  8  1  0  0  0  0
  9  5  1  0  0  0  0
 10  6  1  0  0  0  0
 11  7  1  0  0  0  0
 12 11  1  0  0  0  0
 13 12  1  0  0  0  0
 14 12  1  0  0  0  0
 14 15  1  0  0  0  0
 16 17  1  0  0  0  0
 16 12  1  0  0  0  0
 18  1  1  0  0  0  0
 18 21  1  0  0  0  0
 18 19  1  0  0  0  0
 20 18  1  0  0  0  0
 21 22  1  0  0  0  0
 22 23  2  0  0  0  0
 22 27  1  0  0  0  0
 23 28  1  0  0  0  0
 24 23  1  0  0  0  0
 25 24  2  0  0  0  0
 26 25  1  0  0  0  0
 26 21  2  0  0  0  0
 29 25  1  0  0  0  0
M  END
>  <minimizedAffinity>
-3.32720733

>  <minimizedRMSD>
0.639904737

$$$$
