
 OpenBabel03252500243D

 35 36  0  0  1  0  0  0  0  0999 V2000
   48.5390   29.7250   46.7540 C   0  0  2  0  0  0  0  0  0  0  0  0
   48.1360   29.7800   45.3300 C   0  0  2  0  0  0  0  0  0  0  0  0
   49.2620   29.1300   44.6150 C   0  0  0  0  0  0  0  0  0  0  0  0
   49.8240   28.2030   45.4700 O   0  0  0  0  0  0  0  0  0  0  0  0
   49.2860   28.3640   46.7050 C   0  0  0  0  0  0  0  0  0  0  0  0
   49.2560   30.3330   47.2230 H   0  0  0  0  0  0  0  0  0  0  0  0
   47.2250   29.1230   45.2720 H   0  0  0  0  0  0  0  0  0  0  0  0
   48.8090   28.4820   43.8020 H   0  0  0  0  0  0  0  0  0  0  0  0
   49.9480   29.7560   44.0450 H   0  0  0  0  0  0  0  0  0  0  0  0
   48.4510   27.6280   46.8770 H   0  0  0  0  0  0  0  0  0  0  0  0
   49.9930   28.2450   47.5200 H   0  0  0  0  0  0  0  0  0  0  0  0
   47.8850   31.0570   44.8830 O   0  0  0  0  0  0  0  0  0  0  0  0
   46.8610   30.6170   42.5670 O   0  0  0  0  0  0  0  0  0  0  0  0
   46.5100   31.0840   43.9520 P   0  0  1  0  0  0  0  0  0  0  0  0
   45.3660   30.0180   44.6070 O   0  0  0  0  0  0  0  0  0  0  0  0
   44.5960   30.4960   44.9610 H   0  0  0  0  0  0  0  0  0  0  0  0
   45.8650   32.6590   43.7840 O   0  0  0  0  0  0  0  0  0  0  0  0
   43.6560   34.5270   41.6820 C   0  0  0  0  0  0  0  0  0  0  0  0
   42.6730   33.5790   41.2810 C   0  0  0  0  0  0  0  0  0  0  0  0
   42.8170   32.2710   41.7730 C   0  0  0  0  0  0  0  0  0  0  0  0
   43.8590   31.9970   42.5820 N   0  0  0  0  0  0  0  0  0  0  0  0
   44.7720   32.9240   42.9410 C   0  0  0  0  0  0  0  0  0  0  0  0
   44.6630   34.1870   42.4870 N   0  0  0  0  0  0  0  0  0  0  0  0
   41.8520   33.8320   40.6320 H   0  0  0  0  0  0  0  0  0  0  0  0
   42.1110   31.4880   41.5150 H   0  0  0  0  0  0  0  0  0  0  0  0
   43.5140   35.8030   41.2010 O   0  0  0  0  0  0  0  0  0  0  0  0
   43.6090   35.9860   40.2200 H   0  0  0  0  0  0  0  0  0  0  0  0
   47.5150   29.6880   47.6520 O   0  0  0  0  0  0  0  0  0  0  0  0
   47.1160   30.6870   48.4060 C   0  0  0  0  0  2  0  0  0  0  0  0
   45.7450   31.1350   48.0800 N   0  0  0  0  0  4  0  0  0  0  0  0
   45.2530   30.4650   47.4820 H   0  0  0  0  0  0  0  0  0  0  0  0
   44.9710   31.2420   49.3270 C   0  0  0  0  0  2  0  0  0  0  0  0
   45.4460   30.4890   50.0200 H   0  0  0  0  0  0  0  0  0  0  0  0
   45.7260   32.4530   47.5010 C   0  0  0  0  0  2  0  0  0  0  0  0
   45.8540   32.4900   46.4200 H   0  0  0  0  0  0  0  0  0  0  0  0
  1  6  1  1  0  0  0
  1 28  1  0  0  0  0
  2  7  1  6  0  0  0
  2  1  1  0  0  0  0
  3  2  1  0  0  0  0
  3  4  1  0  0  0  0
  4  5  1  0  0  0  0
  5  1  1  0  0  0  0
  5 10  1  0  0  0  0
  5 11  1  0  0  0  0
  8  3  1  0  0  0  0
  9  3  1  0  0  0  0
 12  2  1  0  0  0  0
 14 13  2  6  0  0  0
 14 15  1  0  0  0  0
 14 12  1  0  0  0  0
 15 16  1  0  0  0  0
 17 14  1  0  0  0  0
 18 23  1  0  0  0  0
 19 18  2  0  0  0  0
 19 20  1  0  0  0  0
 20 21  2  0  0  0  0
 21 22  1  0  0  0  0
 22 17  1  0  0  0  0
 23 22  2  0  0  0  0
 24 19  1  0  0  0  0
 25 20  1  0  0  0  0
 26 18  1  0  0  0  0
 27 26  1  0  0  0  0
 28 29  1  0  0  0  0
 30 29  1  0  0  0  0
 30 32  1  0  0  0  0
 31 30  1  0  0  0  0
 32 33  1  0  0  0  0
 34 30  1  0  0  0  0
 35 34  1  0  0  0  0
M  END
>  <minimizedAffinity>
-3.18901134

>  <minimizedRMSD>
3.62168837

$$$$
