
 OpenBabel03242520593D

 39 40  0  0  0  0  0  0  0  0999 V2000
   37.1590   29.7770   38.9150 C   0  0  0  0  0  3  0  0  0  0  0  0
   37.1690   30.9690   39.4780 C   0  0  0  0  0  3  0  0  0  0  0  0
   37.3340   26.2430   39.8280 C   0  0  0  0  0  0  0  0  0  0  0  0
   36.9950   26.2780   41.2100 C   0  0  0  0  0  0  0  0  0  0  0  0
   36.7030   27.4910   41.7910 C   0  0  0  0  0  0  0  0  0  0  0  0
   36.7630   28.5650   41.0050 N   0  0  0  0  0  0  0  0  0  0  0  0
   37.0840   28.5440   39.7030 C   0  0  0  0  0  0  0  0  0  0  0  0
   37.3720   27.3790   39.1030 N   0  0  0  0  0  0  0  0  0  0  0  0
   37.5800   25.3520   39.2620 H   0  0  0  0  0  0  0  0  0  0  0  0
   36.3680   27.5920   43.0920 O   0  0  0  0  0  0  0  0  0  0  0  0
   37.3910   27.9960   44.0140 C   0  0  0  0  0  0  0  0  0  0  0  0
   37.8610   29.2720   43.6570 F   0  0  0  0  0  0  0  0  0  0  0  0
   36.7710   28.1180   45.2550 F   0  0  0  0  0  0  0  0  0  0  0  0
   38.4330   27.0860   44.1330 F   0  0  0  0  0  0  0  0  0  0  0  0
   37.1050   24.9350   41.8120 C   0  0  0  0  0  2  0  0  0  0  0  0
   38.3750   24.2970   41.3930 N   0  0  0  0  0  4  0  0  0  0  0  0
   38.8250   24.8680   40.6160 H   0  0  0  0  0  0  0  0  0  0  0  0
   39.3400   24.2780   42.4750 C   0  0  0  0  0  2  0  0  0  0  0  0
   39.8910   23.2980   42.4860 H   0  0  0  0  0  0  0  0  0  0  0  0
   38.1430   22.9450   40.9370 C   0  0  0  0  0  2  0  0  0  0  0  0
   38.8380   22.2350   41.4710 H   0  0  0  0  0  0  0  0  0  0  0  0
   37.2470   32.1910   38.6340 C   0  0  0  0  0  0  0  0  0  0  0  0
   36.8960   31.8690   37.6460 H   0  0  0  0  0  0  0  0  0  0  0  0
   36.4810   32.9370   39.0100 H   0  0  0  0  0  0  0  0  0  0  0  0
   38.9840   32.9980   39.9820 C   0  0  0  0  0  0  0  0  0  0  0  0
   38.5450   32.7040   41.1120 O   0  0  0  0  0  0  0  0  0  0  0  0
   38.5070   32.8120   38.6880 N   0  0  0  0  0  0  0  0  0  0  0  0
   39.0820   33.1310   37.8980 H   0  0  0  0  0  0  0  0  0  0  0  0
   39.2370   36.0360   40.1240 Cl  0  0  0  0  0  0  0  0  0  0  0  0
   40.5720   34.9730   40.4740 C   0  0  0  0  0  0  0  0  0  0  0  0
   40.2470   33.6480   40.3540 C   0  0  0  0  0  0  0  0  0  0  0  0
   41.2030   32.6560   40.6010 C   0  0  0  0  0  0  0  0  0  0  0  0
   42.4970   33.0180   40.9760 C   0  0  0  0  0  0  0  0  0  0  0  0
   42.7980   34.3710   41.0910 C   0  0  0  0  0  0  0  0  0  0  0  0
   44.4040   34.8780   41.5620 Cl  0  0  0  0  0  0  0  0  0  0  0  0
   41.8450   35.3230   40.8430 C   0  0  0  0  0  0  0  0  0  0  0  0
   41.0860   31.6090   40.5440 H   0  0  0  0  0  0  0  0  0  0  0  0
   43.2910   32.3160   41.1840 H   0  0  0  0  0  0  0  0  0  0  0  0
   42.0210   36.3900   40.9160 H   0  0  0  0  0  0  0  0  0  0  0  0
  1  2  2  0  0  0  0
  1  7  1  0  0  0  0
  3  4  1  0  0  0  0
  4  5  2  0  0  0  0
  4 15  1  0  0  0  0
  5 10  1  0  0  0  0
  6  5  1  0  0  0  0
  7  6  2  0  0  0  0
  8  7  1  0  0  0  0
  8  3  2  0  0  0  0
  9  3  1  0  0  0  0
 10 11  1  0  0  0  0
 11 14  1  0  0  0  0
 11 13  1  0  0  0  0
 12 11  1  0  0  0  0
 16 15  1  0  0  0  0
 16 18  1  0  0  0  0
 17 16  1  0  0  0  0
 18 19  1  0  0  0  0
 20 16  1  0  0  0  0
 20 21  1  0  0  0  0
 22 27  1  0  0  0  0
 22 24  1  0  0  0  0
 22  2  1  0  0  0  0
 23 22  1  0  0  0  0
 25 31  1  0  0  0  0
 25 26  2  0  0  0  0
 27 25  1  0  0  0  0
 28 27  1  0  0  0  0
 29 30  1  0  0  0  0
 30 36  1  0  0  0  0
 31 30  2  0  0  0  0
 31 32  1  0  0  0  0
 32 33  2  0  0  0  0
 33 34  1  0  0  0  0
 33 38  1  0  0  0  0
 34 35  1  0  0  0  0
 36 39  1  0  0  0  0
 36 34  2  0  0  0  0
 37 32  1  0  0  0  0
M  END
>  <minimizedAffinity>
-6.52707243

$$$$

 OpenBabel03242520593D

 39 40  0  0  0  0  0  0  0  0999 V2000
   36.9700   30.0350   41.4600 C   0  0  0  0  0  3  0  0  0  0  0  0
   37.2480   30.6060   40.3050 C   0  0  0  0  0  3  0  0  0  0  0  0
   36.8520   26.4000   41.1040 C   0  0  0  0  0  0  0  0  0  0  0  0
   37.7290   25.9740   42.1410 C   0  0  0  0  0  0  0  0  0  0  0  0
   38.3230   26.9240   42.9400 C   0  0  0  0  0  0  0  0  0  0  0  0
   38.0340   28.1970   42.6790 N   0  0  0  0  0  0  0  0  0  0  0  0
   37.2120   28.6100   41.7030 C   0  0  0  0  0  0  0  0  0  0  0  0
   36.6120   27.7120   40.9070 N   0  0  0  0  0  0  0  0  0  0  0  0
   36.3260   25.7490   40.4160 H   0  0  0  0  0  0  0  0  0  0  0  0
   39.1580   26.5860   43.9420 O   0  0  0  0  0  0  0  0  0  0  0  0
   40.5580   26.4910   43.6410 C   0  0  0  0  0  0  0  0  0  0  0  0
   41.3000   27.0330   44.7050 F   0  0  0  0  0  0  0  0  0  0  0  0
   40.8530   25.1310   43.5830 F   0  0  0  0  0  0  0  0  0  0  0  0
   40.9130   27.0680   42.4280 F   0  0  0  0  0  0  0  0  0  0  0  0
   37.9060   24.5080   42.1100 C   0  0  0  0  0  2  0  0  0  0  0  0
   38.2760   24.0740   40.7420 N   0  0  0  0  0  4  0  0  0  0  0  0
   37.7220   24.6330   40.0250 H   0  0  0  0  0  0  0  0  0  0  0  0
   39.6710   24.3490   40.4590 C   0  0  0  0  0  2  0  0  0  0  0  0
   40.1270   23.4940   39.8880 H   0  0  0  0  0  0  0  0  0  0  0  0
   38.0230   22.6630   40.5660 C   0  0  0  0  0  2  0  0  0  0  0  0
   38.9460   22.1540   40.1650 H   0  0  0  0  0  0  0  0  0  0  0  0
   36.9840   32.0560   40.1080 C   0  0  0  0  0  0  0  0  0  0  0  0
   36.8720   32.1730   39.0240 H   0  0  0  0  0  0  0  0  0  0  0  0
   35.9730   32.3020   40.5570 H   0  0  0  0  0  0  0  0  0  0  0  0
   39.1330   32.9850   40.0340 C   0  0  0  0  0  0  0  0  0  0  0  0
   39.5340   32.5330   38.9420 O   0  0  0  0  0  0  0  0  0  0  0  0
   37.9380   32.8740   40.7380 N   0  0  0  0  0  0  0  0  0  0  0  0
   37.8420   33.3750   41.6310 H   0  0  0  0  0  0  0  0  0  0  0  0
   39.1860   36.0360   39.9950 Cl  0  0  0  0  0  0  0  0  0  0  0  0
   40.5520   35.0870   40.5150 C   0  0  0  0  0  0  0  0  0  0  0  0
   40.3200   33.7380   40.4570 C   0  0  0  0  0  0  0  0  0  0  0  0
   41.3130   32.8290   40.8400 C   0  0  0  0  0  0  0  0  0  0  0  0
   42.5480   33.2980   41.2870 C   0  0  0  0  0  0  0  0  0  0  0  0
   42.7550   34.6720   41.3350 C   0  0  0  0  0  0  0  0  0  0  0  0
   44.2850   35.3130   41.8910 Cl  0  0  0  0  0  0  0  0  0  0  0  0
   41.7680   35.5420   40.9540 C   0  0  0  0  0  0  0  0  0  0  0  0
   41.2650   31.7750   40.8440 H   0  0  0  0  0  0  0  0  0  0  0  0
   43.3650   32.6640   41.6000 H   0  0  0  0  0  0  0  0  0  0  0  0
   41.8720   36.6220   40.9700 H   0  0  0  0  0  0  0  0  0  0  0  0
  1  7  1  0  0  0  0
  2  1  2  0  0  0  0
  3  4  1  0  0  0  0
  4  5  2  0  0  0  0
  5 10  1  0  0  0  0
  6  5  1  0  0  0  0
  7  6  2  0  0  0  0
  8  3  2  0  0  0  0
  8  7  1  0  0  0  0
  9  3  1  0  0  0  0
 11 10  1  0  0  0  0
 11 12  1  0  0  0  0
 13 11  1  0  0  0  0
 14 11  1  0  0  0  0
 15  4  1  0  0  0  0
 16 15  1  0  0  0  0
 17 16  1  0  0  0  0
 18 16  1  0  0  0  0
 19 18  1  0  0  0  0
 20 16  1  0  0  0  0
 21 20  1  0  0  0  0
 22  2  1  0  0  0  0
 22 24  1  0  0  0  0
 22 27  1  0  0  0  0
 23 22  1  0  0  0  0
 25 31  1  0  0  0  0
 25 27  1  0  0  0  0
 26 25  2  0  0  0  0
 27 28  1  0  0  0  0
 29 30  1  0  0  0  0
 30 36  1  0  0  0  0
 31 30  2  0  0  0  0
 31 32  1  0  0  0  0
 32 37  1  0  0  0  0
 32 33  2  0  0  0  0
 33 34  1  0  0  0  0
 33 38  1  0  0  0  0
 34 35  1  0  0  0  0
 36 39  1  0  0  0  0
 36 34  2  0  0  0  0
M  END
>  <minimizedAffinity>
-5.93004751

$$$$

 OpenBabel03242520593D

 39 40  0  0  0  0  0  0  0  0999 V2000
   38.7070   29.6820   42.5210 C   0  0  0  0  0  3  0  0  0  0  0  0
   39.1760   28.5910   43.0920 C   0  0  0  0  0  3  0  0  0  0  0  0
   41.6640   31.7880   42.0920 C   0  0  0  0  0  0  0  0  0  0  0  0
   41.2190   32.7240   41.1160 C   0  0  0  0  0  0  0  0  0  0  0  0
   39.9310   32.6280   40.6420 C   0  0  0  0  0  0  0  0  0  0  0  0
   39.1790   31.6450   41.1360 N   0  0  0  0  0  0  0  0  0  0  0  0
   39.5880   30.7560   42.0520 C   0  0  0  0  0  0  0  0  0  0  0  0
   40.8370   30.8210   42.5390 N   0  0  0  0  0  0  0  0  0  0  0  0
   42.6500   31.7650   42.5400 H   0  0  0  0  0  0  0  0  0  0  0  0
   39.4470   33.4870   39.7240 O   0  0  0  0  0  0  0  0  0  0  0  0
   38.7370   34.6400   40.1990 C   0  0  0  0  0  0  0  0  0  0  0  0
   39.2790   35.7950   39.6090 F   0  0  0  0  0  0  0  0  0  0  0  0
   37.4310   34.5130   39.7310 F   0  0  0  0  0  0  0  0  0  0  0  0
   38.6970   34.7460   41.5820 F   0  0  0  0  0  0  0  0  0  0  0  0
   42.3170   33.6270   40.7170 C   0  0  0  0  0  2  0  0  0  0  0  0
   42.6010   34.5870   41.8090 N   0  0  0  0  0  4  0  0  0  0  0  0
   42.2060   34.2170   42.7260 H   0  0  0  0  0  0  0  0  0  0  0  0
   44.0270   34.7330   42.0280 C   0  0  0  0  0  2  0  0  0  0  0  0
   44.2820   35.8110   42.2230 H   0  0  0  0  0  0  0  0  0  0  0  0
   42.0290   35.8810   41.5160 C   0  0  0  0  0  2  0  0  0  0  0  0
   42.8150   36.6830   41.6250 H   0  0  0  0  0  0  0  0  0  0  0  0
   38.2410   27.5300   43.5510 C   0  0  0  0  0  0  0  0  0  0  0  0
   38.8910   26.7290   43.9250 H   0  0  0  0  0  0  0  0  0  0  0  0
   37.6710   27.9170   44.4510 H   0  0  0  0  0  0  0  0  0  0  0  0
   37.7260   26.1560   41.7260 C   0  0  0  0  0  0  0  0  0  0  0  0
   38.7640   25.4660   41.6650 O   0  0  0  0  0  0  0  0  0  0  0  0
   37.2970   27.1740   42.5720 N   0  0  0  0  0  0  0  0  0  0  0  0
   36.3630   27.5780   42.4260 H   0  0  0  0  0  0  0  0  0  0  0  0
   37.2480   27.7690   39.1790 Cl  0  0  0  0  0  0  0  0  0  0  0  0
   36.6520   26.1440   39.3770 C   0  0  0  0  0  0  0  0  0  0  0  0
   36.9760   25.6000   40.5920 C   0  0  0  0  0  0  0  0  0  0  0  0
   36.5760   24.2990   40.9170 C   0  0  0  0  0  0  0  0  0  0  0  0
   35.8430   23.5480   39.9990 C   0  0  0  0  0  0  0  0  0  0  0  0
   35.5290   24.1260   38.7730 C   0  0  0  0  0  0  0  0  0  0  0  0
   34.6140   23.2270   37.5840 Cl  0  0  0  0  0  0  0  0  0  0  0  0
   35.9310   25.4020   38.4780 C   0  0  0  0  0  0  0  0  0  0  0  0
   36.7570   23.7650   41.8100 H   0  0  0  0  0  0  0  0  0  0  0  0
   35.4970   22.5390   40.1720 H   0  0  0  0  0  0  0  0  0  0  0  0
   35.7160   25.9050   37.5420 H   0  0  0  0  0  0  0  0  0  0  0  0
  1  2  2  0  0  0  0
  2 22  1  0  0  0  0
  3  8  1  0  0  0  0
  3  9  1  0  0  0  0
  4  3  2  0  0  0  0
  5  4  1  0  0  0  0
  5  6  2  0  0  0  0
  6  7  1  0  0  0  0
  7  1  1  0  0  0  0
  7  8  2  0  0  0  0
 10 11  1  0  0  0  0
 10  5  1  0  0  0  0
 11 14  1  0  0  0  0
 12 11  1  0  0  0  0
 13 11  1  0  0  0  0
 15  4  1  0  0  0  0
 15 16  1  0  0  0  0
 16 18  1  0  0  0  0
 16 17  1  0  0  0  0
 18 19  1  0  0  0  0
 20 21  1  0  0  0  0
 20 16  1  0  0  0  0
 22 23  1  0  0  0  0
 22 24  1  0  0  0  0
 25 27  1  0  0  0  0
 26 25  2  0  0  0  0
 27 22  1  0  0  0  0
 28 27  1  0  0  0  0
 29 30  1  0  0  0  0
 30 31  1  0  0  0  0
 31 32  2  0  0  0  0
 31 25  1  0  0  0  0
 32 37  1  0  0  0  0
 33 38  1  0  0  0  0
 33 32  1  0  0  0  0
 34 33  2  0  0  0  0
 35 34  1  0  0  0  0
 36 34  1  0  0  0  0
 36 30  2  0  0  0  0
 39 36  1  0  0  0  0
M  END
>  <minimizedAffinity>
-5.80787325

$$$$

 OpenBabel03242520593D

 39 40  0  0  0  0  0  0  0  0999 V2000
   37.5860   32.2380   40.6310 C   0  0  0  0  0  3  0  0  0  0  0  0
   37.9760   33.0870   39.7010 C   0  0  0  0  0  3  0  0  0  0  0  0
   36.8740   29.1960   38.7350 C   0  0  0  0  0  0  0  0  0  0  0  0
   36.4210   28.3120   39.7550 C   0  0  0  0  0  0  0  0  0  0  0  0
   36.3540   28.7720   41.0500 C   0  0  0  0  0  0  0  0  0  0  0  0
   36.7290   30.0330   41.2620 N   0  0  0  0  0  0  0  0  0  0  0  0
   37.1600   30.8730   40.3100 C   0  0  0  0  0  0  0  0  0  0  0  0
   37.2350   30.4600   39.0350 N   0  0  0  0  0  0  0  0  0  0  0  0
   36.9660   28.9500   37.6840 H   0  0  0  0  0  0  0  0  0  0  0  0
   35.9280   27.9890   42.0600 O   0  0  0  0  0  0  0  0  0  0  0  0
   36.9220   27.3630   42.8850 C   0  0  0  0  0  0  0  0  0  0  0  0
   36.7620   27.7940   44.2130 F   0  0  0  0  0  0  0  0  0  0  0  0
   36.6480   25.9980   42.8580 F   0  0  0  0  0  0  0  0  0  0  0  0
   38.2230   27.5570   42.4410 F   0  0  0  0  0  0  0  0  0  0  0  0
   36.1670   26.9650   39.2080 C   0  0  0  0  0  2  0  0  0  0  0  0
   37.4440   26.3470   38.7770 N   0  0  0  0  0  4  0  0  0  0  0  0
   38.1860   27.1010   38.6590 H   0  0  0  0  0  0  0  0  0  0  0  0
   37.9620   25.4440   39.7860 C   0  0  0  0  0  2  0  0  0  0  0  0
   38.3880   24.5230   39.3000 H   0  0  0  0  0  0  0  0  0  0  0  0
   37.2730   25.6290   37.5350 C   0  0  0  0  0  2  0  0  0  0  0  0
   37.6710   24.5790   37.6410 H   0  0  0  0  0  0  0  0  0  0  0  0
   38.3980   34.4620   40.0780 C   0  0  0  0  0  0  0  0  0  0  0  0
   38.6140   34.9580   39.1250 H   0  0  0  0  0  0  0  0  0  0  0  0
   37.5060   35.0040   40.5190 H   0  0  0  0  0  0  0  0  0  0  0  0
   40.7010   34.4930   40.5000 C   0  0  0  0  0  0  0  0  0  0  0  0
   41.1420   34.5320   39.3330 O   0  0  0  0  0  0  0  0  0  0  0  0
   39.4210   34.4730   41.0430 N   0  0  0  0  0  0  0  0  0  0  0  0
   39.3170   34.4650   42.0660 H   0  0  0  0  0  0  0  0  0  0  0  0
   42.2770   31.9120   40.9130 Cl  0  0  0  0  0  0  0  0  0  0  0  0
   42.8120   33.4420   41.5530 C   0  0  0  0  0  0  0  0  0  0  0  0
   41.9620   34.4740   41.2540 C   0  0  0  0  0  0  0  0  0  0  0  0
   42.2410   35.7740   41.6910 C   0  0  0  0  0  0  0  0  0  0  0  0
   43.3930   36.0230   42.4350 C   0  0  0  0  0  0  0  0  0  0  0  0
   44.2380   34.9570   42.7230 C   0  0  0  0  0  0  0  0  0  0  0  0
   45.6990   35.2160   43.6490 Cl  0  0  0  0  0  0  0  0  0  0  0  0
   43.9440   33.6930   42.2850 C   0  0  0  0  0  0  0  0  0  0  0  0
   41.6750   36.6510   41.5320 H   0  0  0  0  0  0  0  0  0  0  0  0
   43.6810   36.9960   42.8090 H   0  0  0  0  0  0  0  0  0  0  0  0
   44.5620   32.8240   42.4790 H   0  0  0  0  0  0  0  0  0  0  0  0
  2 22  1  0  0  0  0
  2  1  2  0  0  0  0
  3  8  2  0  0  0  0
  3  4  1  0  0  0  0
  4  5  2  0  0  0  0
  5  6  1  0  0  0  0
  5 10  1  0  0  0  0
  7  1  1  0  0  0  0
  7  6  2  0  0  0  0
  8  7  1  0  0  0  0
  9  3  1  0  0  0  0
 10 11  1  0  0  0  0
 11 12  1  0  0  0  0
 13 11  1  0  0  0  0
 14 11  1  0  0  0  0
 15  4  1  0  0  0  0
 16 15  1  0  0  0  0
 16 18  1  0  0  0  0
 17 16  1  0  0  0  0
 19 18  1  0  0  0  0
 20 21  1  0  0  0  0
 20 16  1  0  0  0  0
 22 24  1  0  0  0  0
 22 27  1  0  0  0  0
 23 22  1  0  0  0  0
 25 27  1  0  0  0  0
 25 31  1  0  0  0  0
 26 25  2  0  0  0  0
 27 28  1  0  0  0  0
 29 30  1  0  0  0  0
 30 36  1  0  0  0  0
 31 30  2  0  0  0  0
 31 32  1  0  0  0  0
 32 33  2  0  0  0  0
 33 34  1  0  0  0  0
 33 38  1  0  0  0  0
 34 35  1  0  0  0  0
 36 39  1  0  0  0  0
 36 34  2  0  0  0  0
 37 32  1  0  0  0  0
M  END
>  <minimizedAffinity>
-5.770679

$$$$

 OpenBabel03242520593D

 39 40  0  0  0  0  0  0  0  0999 V2000
   40.0330   28.9610   42.7500 C   0  0  0  0  0  3  0  0  0  0  0  0
   41.0800   28.2150   43.0410 C   0  0  0  0  0  3  0  0  0  0  0  0
   41.5300   31.9720   41.3180 C   0  0  0  0  0  0  0  0  0  0  0  0
   40.3840   32.6860   40.8700 C   0  0  0  0  0  0  0  0  0  0  0  0
   39.1380   32.1400   41.0770 C   0  0  0  0  0  0  0  0  0  0  0  0
   39.0930   30.9580   41.6900 N   0  0  0  0  0  0  0  0  0  0  0  0
   40.1660   30.2740   42.1120 C   0  0  0  0  0  0  0  0  0  0  0  0
   41.3960   30.7780   41.9300 N   0  0  0  0  0  0  0  0  0  0  0  0
   42.5580   32.3000   41.2150 H   0  0  0  0  0  0  0  0  0  0  0  0
   38.0130   32.7680   40.6840 O   0  0  0  0  0  0  0  0  0  0  0  0
   37.3590   32.2870   39.5000 C   0  0  0  0  0  0  0  0  0  0  0  0
   36.8110   33.3730   38.7970 F   0  0  0  0  0  0  0  0  0  0  0  0
   38.3580   31.7390   38.6990 F   0  0  0  0  0  0  0  0  0  0  0  0
   36.4070   31.3060   39.7440 F   0  0  0  0  0  0  0  0  0  0  0  0
   40.7770   33.9170   40.1550 C   0  0  0  0  0  2  0  0  0  0  0  0
   40.3490   35.1070   40.9280 N   0  0  0  0  0  4  0  0  0  0  0  0
   40.0380   34.8110   41.9020 H   0  0  0  0  0  0  0  0  0  0  0  0
   41.4490   36.0290   41.1320 C   0  0  0  0  0  2  0  0  0  0  0  0
   41.0940   37.0900   41.0120 H   0  0  0  0  0  0  0  0  0  0  0  0
   39.2700   35.7930   40.2560 C   0  0  0  0  0  2  0  0  0  0  0  0
   39.5190   36.8870   40.1470 H   0  0  0  0  0  0  0  0  0  0  0  0
   40.8920   26.8890   43.6880 C   0  0  0  0  0  0  0  0  0  0  0  0
   41.8020   26.3280   43.4420 H   0  0  0  0  0  0  0  0  0  0  0  0
   40.9070   27.0320   44.8130 H   0  0  0  0  0  0  0  0  0  0  0  0
   39.6960   25.5920   42.1490 C   0  0  0  0  0  0  0  0  0  0  0  0
   40.5890   25.3610   41.3090 O   0  0  0  0  0  0  0  0  0  0  0  0
   39.6670   26.2870   43.3540 N   0  0  0  0  0  0  0  0  0  0  0  0
   38.7890   26.3130   43.8890 H   0  0  0  0  0  0  0  0  0  0  0  0
   36.8130   26.4680   42.6330 Cl  0  0  0  0  0  0  0  0  0  0  0  0
   37.2160   25.1180   41.6090 C   0  0  0  0  0  0  0  0  0  0  0  0
   38.5650   24.8930   41.5250 C   0  0  0  0  0  0  0  0  0  0  0  0
   39.0640   23.8460   40.7420 C   0  0  0  0  0  0  0  0  0  0  0  0
   38.1830   23.0250   40.0390 C   0  0  0  0  0  0  0  0  0  0  0  0
   36.8190   23.2770   40.1420 C   0  0  0  0  0  0  0  0  0  0  0  0
   35.6720   22.2790   39.2770 Cl  0  0  0  0  0  0  0  0  0  0  0  0
   36.3550   24.3070   40.9150 C   0  0  0  0  0  0  0  0  0  0  0  0
   40.0700   23.5660   40.5930 H   0  0  0  0  0  0  0  0  0  0  0  0
   38.4870   22.1980   39.4130 H   0  0  0  0  0  0  0  0  0  0  0  0
   35.3050   24.5510   41.0340 H   0  0  0  0  0  0  0  0  0  0  0  0
  1  2  2  0  0  0  0
  2 22  1  0  0  0  0
  3  8  1  0  0  0  0
  4  5  1  0  0  0  0
  4  3  2  0  0  0  0
  5  6  2  0  0  0  0
  6  7  1  0  0  0  0
  7  1  1  0  0  0  0
  8  7  2  0  0  0  0
  9  3  1  0  0  0  0
 10  5  1  0  0  0  0
 11 14  1  0  0  0  0
 11 10  1  0  0  0  0
 12 11  1  0  0  0  0
 13 11  1  0  0  0  0
 15  4  1  0  0  0  0
 15 16  1  0  0  0  0
 16 18  1  0  0  0  0
 16 17  1  0  0  0  0
 19 18  1  0  0  0  0
 20 16  1  0  0  0  0
 21 20  1  0  0  0  0
 22 24  1  0  0  0  0
 23 22  1  0  0  0  0
 25 27  1  0  0  0  0
 26 25  2  0  0  0  0
 27 22  1  0  0  0  0
 27 28  1  0  0  0  0
 30 29  1  0  0  0  0
 31 30  1  0  0  0  0
 31 25  1  0  0  0  0
 32 31  2  0  0  0  0
 33 34  2  0  0  0  0
 33 32  1  0  0  0  0
 34 36  1  0  0  0  0
 35 34  1  0  0  0  0
 36 39  1  0  0  0  0
 36 30  2  0  0  0  0
 37 32  1  0  0  0  0
 38 33  1  0  0  0  0
M  END
>  <minimizedAffinity>
-5.73188782

$$$$

 OpenBabel03242520593D

 39 40  0  0  0  0  0  0  0  0999 V2000
   38.2600   32.3980   40.6690 C   0  0  0  0  0  3  0  0  0  0  0  0
   37.3790   31.5840   40.1210 C   0  0  0  0  0  3  0  0  0  0  0  0
   41.1770   34.4040   39.7640 C   0  0  0  0  0  0  0  0  0  0  0  0
   41.6180   33.7620   38.5720 C   0  0  0  0  0  0  0  0  0  0  0  0
   40.9100   32.6810   38.1000 C   0  0  0  0  0  0  0  0  0  0  0  0
   39.8460   32.3020   38.8060 N   0  0  0  0  0  0  0  0  0  0  0  0
   39.4240   32.8970   39.9320 C   0  0  0  0  0  0  0  0  0  0  0  0
   40.0870   33.9560   40.4200 N   0  0  0  0  0  0  0  0  0  0  0  0
   41.6480   35.2620   40.2290 H   0  0  0  0  0  0  0  0  0  0  0  0
   41.2700   32.0340   36.9740 O   0  0  0  0  0  0  0  0  0  0  0  0
   41.8260   30.7180   37.1110 C   0  0  0  0  0  0  0  0  0  0  0  0
   42.4870   30.6190   38.3480 F   0  0  0  0  0  0  0  0  0  0  0  0
   40.7450   29.8410   37.1500 F   0  0  0  0  0  0  0  0  0  0  0  0
   42.6540   30.3450   36.0610 F   0  0  0  0  0  0  0  0  0  0  0  0
   42.8720   34.3680   38.0820 C   0  0  0  0  0  2  0  0  0  0  0  0
   43.9820   33.3940   38.2060 N   0  0  0  0  0  4  0  0  0  0  0  0
   43.6460   32.4260   37.9190 H   0  0  0  0  0  0  0  0  0  0  0  0
   45.0690   33.7140   37.3020 C   0  0  0  0  0  2  0  0  0  0  0  0
   46.0590   33.5510   37.8110 H   0  0  0  0  0  0  0  0  0  0  0  0
   44.4840   33.3580   39.5610 C   0  0  0  0  0  2  0  0  0  0  0  0
   45.6030   33.4930   39.5600 H   0  0  0  0  0  0  0  0  0  0  0  0
   36.2150   31.1050   40.9110 C   0  0  0  0  0  0  0  0  0  0  0  0
   36.3730   31.5140   41.9160 H   0  0  0  0  0  0  0  0  0  0  0  0
   35.2790   31.6060   40.5130 H   0  0  0  0  0  0  0  0  0  0  0  0
   36.9930   28.9720   41.4820 C   0  0  0  0  0  0  0  0  0  0  0  0
   37.9870   29.2740   42.1750 O   0  0  0  0  0  0  0  0  0  0  0  0
   36.0250   29.7160   40.8160 N   0  0  0  0  0  0  0  0  0  0  0  0
   35.2730   29.2180   40.3210 H   0  0  0  0  0  0  0  0  0  0  0  0
   36.2540   27.4110   43.9990 Cl  0  0  0  0  0  0  0  0  0  0  0  0
   36.8000   26.6260   42.5430 C   0  0  0  0  0  0  0  0  0  0  0  0
   37.0790   27.5060   41.5310 C   0  0  0  0  0  0  0  0  0  0  0  0
   37.5290   27.0440   40.2900 C   0  0  0  0  0  0  0  0  0  0  0  0
   37.6940   25.6760   40.0780 C   0  0  0  0  0  0  0  0  0  0  0  0
   37.4040   24.8050   41.1230 C   0  0  0  0  0  0  0  0  0  0  0  0
   37.5910   23.0790   40.9080 Cl  0  0  0  0  0  0  0  0  0  0  0  0
   36.9650   25.2820   42.3290 C   0  0  0  0  0  0  0  0  0  0  0  0
   37.7770   27.6090   39.4340 H   0  0  0  0  0  0  0  0  0  0  0  0
   38.0370   25.2380   39.1510 H   0  0  0  0  0  0  0  0  0  0  0  0
   36.7240   24.6530   43.1790 H   0  0  0  0  0  0  0  0  0  0  0  0
  2  1  2  0  0  0  0
  2 22  1  0  0  0  0
  3  9  1  0  0  0  0
  3  8  1  0  0  0  0
  4  3  2  0  0  0  0
  5  4  1  0  0  0  0
  5  6  2  0  0  0  0
  6  7  1  0  0  0  0
  7  8  2  0  0  0  0
  7  1  1  0  0  0  0
 10 11  1  0  0  0  0
 10  5  1  0  0  0  0
 11 13  1  0  0  0  0
 11 12  1  0  0  0  0
 14 11  1  0  0  0  0
 15 16  1  0  0  0  0
 15  4  1  0  0  0  0
 16 20  1  0  0  0  0
 17 16  1  0  0  0  0
 18 19  1  0  0  0  0
 18 16  1  0  0  0  0
 21 20  1  0  0  0  0
 22 23  1  0  0  0  0
 24 22  1  0  0  0  0
 25 31  1  0  0  0  0
 25 26  2  0  0  0  0
 27 22  1  0  0  0  0
 27 25  1  0  0  0  0
 28 27  1  0  0  0  0
 30 29  1  0  0  0  0
 31 30  2  0  0  0  0
 32 31  1  0  0  0  0
 33 32  2  0  0  0  0
 33 34  1  0  0  0  0
 34 36  2  0  0  0  0
 35 34  1  0  0  0  0
 36 30  1  0  0  0  0
 36 39  1  0  0  0  0
 37 32  1  0  0  0  0
 38 33  1  0  0  0  0
M  END
>  <minimizedAffinity>
-5.64832544

$$$$

 OpenBabel03242520593D

 39 40  0  0  0  0  0  0  0  0999 V2000
   39.8360   29.7260   42.3420 C   0  0  0  0  0  3  0  0  0  0  0  0
   38.6330   29.7220   42.8810 C   0  0  0  0  0  3  0  0  0  0  0  0
   42.2800   32.3600   41.6760 C   0  0  0  0  0  0  0  0  0  0  0  0
   41.5760   33.1900   40.7590 C   0  0  0  0  0  0  0  0  0  0  0  0
   40.2920   32.8460   40.4030 C   0  0  0  0  0  0  0  0  0  0  0  0
   39.7910   31.7390   40.9480 N   0  0  0  0  0  0  0  0  0  0  0  0
   40.4470   30.9480   41.8100 C   0  0  0  0  0  0  0  0  0  0  0  0
   41.6990   31.2540   42.1830 N   0  0  0  0  0  0  0  0  0  0  0  0
   43.2890   32.5290   42.0320 H   0  0  0  0  0  0  0  0  0  0  0  0
   39.5690   33.5930   39.5450 O   0  0  0  0  0  0  0  0  0  0  0  0
   38.6700   34.5650   40.1010 C   0  0  0  0  0  0  0  0  0  0  0  0
   37.3450   34.1590   39.8660 F   0  0  0  0  0  0  0  0  0  0  0  0
   38.8710   34.5370   41.4790 F   0  0  0  0  0  0  0  0  0  0  0  0
   38.8940   35.8590   39.6520 F   0  0  0  0  0  0  0  0  0  0  0  0
   42.4380   34.2870   40.2750 C   0  0  0  0  0  2  0  0  0  0  0  0
   43.0420   33.9150   38.9740 N   0  0  0  0  0  4  0  0  0  0  0  0
   42.7970   32.9060   38.7380 H   0  0  0  0  0  0  0  0  0  0  0  0
   42.5010   34.7130   37.8910 C   0  0  0  0  0  2  0  0  0  0  0  0
   43.3190   34.9990   37.1740 H   0  0  0  0  0  0  0  0  0  0  0  0
   44.4780   34.0730   39.0120 C   0  0  0  0  0  2  0  0  0  0  0  0
   44.8190   34.6980   38.1370 H   0  0  0  0  0  0  0  0  0  0  0  0
   38.0560   28.4560   43.4060 C   0  0  0  0  0  0  0  0  0  0  0  0
   38.9250   27.8550   43.6990 H   0  0  0  0  0  0  0  0  0  0  0  0
   37.4970   28.6860   44.3650 H   0  0  0  0  0  0  0  0  0  0  0  0
   37.7320   26.9520   41.6410 C   0  0  0  0  0  0  0  0  0  0  0  0
   38.8960   26.5270   41.4920 O   0  0  0  0  0  0  0  0  0  0  0  0
   37.1450   27.8610   42.5160 N   0  0  0  0  0  0  0  0  0  0  0  0
   36.1330   28.0270   42.4510 H   0  0  0  0  0  0  0  0  0  0  0  0
   37.2030   23.9560   41.8850 Cl  0  0  0  0  0  0  0  0  0  0  0  0
   36.7140   24.8770   40.4900 C   0  0  0  0  0  0  0  0  0  0  0  0
   37.0450   26.2040   40.5800 C   0  0  0  0  0  0  0  0  0  0  0  0
   36.7230   27.0890   39.5450 C   0  0  0  0  0  0  0  0  0  0  0  0
   36.0600   26.6200   38.4120 C   0  0  0  0  0  0  0  0  0  0  0  0
   35.7360   25.2690   38.3480 C   0  0  0  0  0  0  0  0  0  0  0  0
   34.9000   24.6300   36.9500 Cl  0  0  0  0  0  0  0  0  0  0  0  0
   36.0610   24.4220   39.3730 C   0  0  0  0  0  0  0  0  0  0  0  0
   36.9190   28.1240   39.4880 H   0  0  0  0  0  0  0  0  0  0  0  0
   35.7760   27.2360   37.5710 H   0  0  0  0  0  0  0  0  0  0  0  0
   35.8360   23.3610   39.3790 H   0  0  0  0  0  0  0  0  0  0  0  0
  1  2  2  0  0  0  0
  2 22  1  0  0  0  0
  3  9  1  0  0  0  0
  3  8  1  0  0  0  0
  4  3  2  0  0  0  0
  5  4  1  0  0  0  0
  5  6  2  0  0  0  0
  6  7  1  0  0  0  0
  7  8  2  0  0  0  0
  7  1  1  0  0  0  0
 10 11  1  0  0  0  0
 10  5  1  0  0  0  0
 11 13  1  0  0  0  0
 12 11  1  0  0  0  0
 14 11  1  0  0  0  0
 15  4  1  0  0  0  0
 16 20  1  0  0  0  0
 16 15  1  0  0  0  0
 17 16  1  0  0  0  0
 18 16  1  0  0  0  0
 19 18  1  0  0  0  0
 21 20  1  0  0  0  0
 22 23  1  0  0  0  0
 22 24  1  0  0  0  0
 25 27  1  0  0  0  0
 26 25  2  0  0  0  0
 27 22  1  0  0  0  0
 28 27  1  0  0  0  0
 30 31  1  0  0  0  0
 30 29  1  0  0  0  0
 31 25  1  0  0  0  0
 32 31  2  0  0  0  0
 33 32  1  0  0  0  0
 34 33  2  0  0  0  0
 34 36  1  0  0  0  0
 35 34  1  0  0  0  0
 36 39  1  0  0  0  0
 36 30  2  0  0  0  0
 37 32  1  0  0  0  0
 38 33  1  0  0  0  0
M  END
>  <minimizedAffinity>
-5.64140797

$$$$

 OpenBabel03242520593D

 39 40  0  0  0  0  0  0  0  0999 V2000
   36.4260   29.9150   38.8000 C   0  0  0  0  0  3  0  0  0  0  0  0
   37.4400   30.5470   38.2420 C   0  0  0  0  0  3  0  0  0  0  0  0
   35.5910   26.4220   38.1220 C   0  0  0  0  0  0  0  0  0  0  0  0
   36.3730   25.7390   39.0950 C   0  0  0  0  0  0  0  0  0  0  0  0
   37.1480   26.4750   39.9620 C   0  0  0  0  0  0  0  0  0  0  0  0
   37.1130   27.8000   39.8230 N   0  0  0  0  0  0  0  0  0  0  0  0
   36.3840   28.4540   38.9080 C   0  0  0  0  0  0  0  0  0  0  0  0
   35.6140   27.7690   38.0490 N   0  0  0  0  0  0  0  0  0  0  0  0
   34.9430   25.9540   37.3910 H   0  0  0  0  0  0  0  0  0  0  0  0
   37.9040   25.8890   40.9100 O   0  0  0  0  0  0  0  0  0  0  0  0
   37.3390   25.7470   42.2210 C   0  0  0  0  0  0  0  0  0  0  0  0
   36.5510   24.5830   42.2640 F   0  0  0  0  0  0  0  0  0  0  0  0
   38.4110   25.5510   43.0880 F   0  0  0  0  0  0  0  0  0  0  0  0
   36.6270   26.8590   42.6500 F   0  0  0  0  0  0  0  0  0  0  0  0
   36.2570   24.2760   38.9290 C   0  0  0  0  0  2  0  0  0  0  0  0
   37.5920   23.6470   39.0590 N   0  0  0  0  0  4  0  0  0  0  0  0
   38.2620   24.3200   39.5420 H   0  0  0  0  0  0  0  0  0  0  0  0
   37.5430   22.4700   39.9040 C   0  0  0  0  0  2  0  0  0  0  0  0
   38.1910   21.6570   39.4750 H   0  0  0  0  0  0  0  0  0  0  0  0
   38.1160   23.2820   37.7630 C   0  0  0  0  0  2  0  0  0  0  0  0
   38.4380   22.2010   37.7690 H   0  0  0  0  0  0  0  0  0  0  0  0
   37.4370   32.0310   38.1560 C   0  0  0  0  0  0  0  0  0  0  0  0
   36.9460   32.2530   37.2020 H   0  0  0  0  0  0  0  0  0  0  0  0
   36.7520   32.4370   38.9630 H   0  0  0  0  0  0  0  0  0  0  0  0
   38.9370   33.0010   39.6700 C   0  0  0  0  0  0  0  0  0  0  0  0
   38.2610   32.9510   40.7180 O   0  0  0  0  0  0  0  0  0  0  0  0
   38.7090   32.5930   38.3600 N   0  0  0  0  0  0  0  0  0  0  0  0
   39.4540   32.7270   37.6640 H   0  0  0  0  0  0  0  0  0  0  0  0
   39.1160   36.0320   39.9820 Cl  0  0  0  0  0  0  0  0  0  0  0  0
   40.4400   34.9750   40.3880 C   0  0  0  0  0  0  0  0  0  0  0  0
   40.1530   33.6520   40.1760 C   0  0  0  0  0  0  0  0  0  0  0  0
   41.1060   32.6650   40.4510 C   0  0  0  0  0  0  0  0  0  0  0  0
   42.3570   33.0280   40.9470 C   0  0  0  0  0  0  0  0  0  0  0  0
   42.6210   34.3770   41.1530 C   0  0  0  0  0  0  0  0  0  0  0  0
   44.1740   34.8860   41.7780 Cl  0  0  0  0  0  0  0  0  0  0  0  0
   41.6720   35.3260   40.8760 C   0  0  0  0  0  0  0  0  0  0  0  0
   41.0150   31.6200   40.3330 H   0  0  0  0  0  0  0  0  0  0  0  0
   43.1460   32.3290   41.1850 H   0  0  0  0  0  0  0  0  0  0  0  0
   41.8200   36.3910   41.0150 H   0  0  0  0  0  0  0  0  0  0  0  0
  1  7  1  0  0  0  0
  2  1  2  0  0  0  0
  3  4  1  0  0  0  0
  4  5  2  0  0  0  0
  5 10  1  0  0  0  0
  6  5  1  0  0  0  0
  7  6  2  0  0  0  0
  8  3  2  0  0  0  0
  8  7  1  0  0  0  0
  9  3  1  0  0  0  0
 10 11  1  0  0  0  0
 11 12  1  0  0  0  0
 11 14  1  0  0  0  0
 11 13  1  0  0  0  0
 15 16  1  0  0  0  0
 15  4  1  0  0  0  0
 16 17  1  0  0  0  0
 16 18  1  0  0  0  0
 19 18  1  0  0  0  0
 20 21  1  0  0  0  0
 20 16  1  0  0  0  0
 22  2  1  0  0  0  0
 22 27  1  0  0  0  0
 22 24  1  0  0  0  0
 23 22  1  0  0  0  0
 25 31  1  0  0  0  0
 25 26  2  0  0  0  0
 27 25  1  0  0  0  0
 28 27  1  0  0  0  0
 29 30  1  0  0  0  0
 30 36  1  0  0  0  0
 31 30  2  0  0  0  0
 31 32  1  0  0  0  0
 32 33  2  0  0  0  0
 33 34  1  0  0  0  0
 33 38  1  0  0  0  0
 34 35  1  0  0  0  0
 36 39  1  0  0  0  0
 36 34  2  0  0  0  0
 37 32  1  0  0  0  0
M  END
>  <minimizedAffinity>
-5.58619499

$$$$

 OpenBabel03242520593D

 39 40  0  0  0  0  0  0  0  0999 V2000
   39.3760   29.8560   41.9050 C   0  0  0  0  0  3  0  0  0  0  0  0
   38.6750   29.7930   43.0200 C   0  0  0  0  0  3  0  0  0  0  0  0
   42.1860   32.1770   41.6360 C   0  0  0  0  0  0  0  0  0  0  0  0
   41.6390   33.2090   40.8240 C   0  0  0  0  0  0  0  0  0  0  0  0
   40.3330   33.1010   40.4020 C   0  0  0  0  0  0  0  0  0  0  0  0
   39.6630   32.0160   40.7880 N   0  0  0  0  0  0  0  0  0  0  0  0
   40.1700   31.0360   41.5500 C   0  0  0  0  0  0  0  0  0  0  0  0
   41.4380   31.1090   41.9820 N   0  0  0  0  0  0  0  0  0  0  0  0
   43.1960   32.1520   42.0290 H   0  0  0  0  0  0  0  0  0  0  0  0
   39.7530   34.0470   39.6380 O   0  0  0  0  0  0  0  0  0  0  0  0
   38.6410   34.7640   40.1930 C   0  0  0  0  0  0  0  0  0  0  0  0
   38.8340   34.9220   41.5770 F   0  0  0  0  0  0  0  0  0  0  0  0
   38.6740   36.0350   39.6250 F   0  0  0  0  0  0  0  0  0  0  0  0
   37.4070   34.1920   39.9130 F   0  0  0  0  0  0  0  0  0  0  0  0
   42.6620   34.2240   40.5030 C   0  0  0  0  0  2  0  0  0  0  0  0
   43.5280   33.7370   39.4040 N   0  0  0  0  0  4  0  0  0  0  0  0
   43.4430   32.6790   39.3210 H   0  0  0  0  0  0  0  0  0  0  0  0
   43.1030   34.2650   38.1220 C   0  0  0  0  0  2  0  0  0  0  0  0
   43.9990   34.5450   37.5020 H   0  0  0  0  0  0  0  0  0  0  0  0
   44.9070   34.1010   39.6370 C   0  0  0  0  0  2  0  0  0  0  0  0
   45.3260   34.6190   38.7270 H   0  0  0  0  0  0  0  0  0  0  0  0
   37.8850   28.5740   43.3350 C   0  0  0  0  0  0  0  0  0  0  0  0
   37.7260   28.6180   44.4190 H   0  0  0  0  0  0  0  0  0  0  0  0
   36.8590   28.6780   42.8630 H   0  0  0  0  0  0  0  0  0  0  0  0
   37.7770   26.8530   41.7500 C   0  0  0  0  0  0  0  0  0  0  0  0
   36.7600   27.1980   41.1140 O   0  0  0  0  0  0  0  0  0  0  0  0
   38.4680   27.4000   42.8270 N   0  0  0  0  0  0  0  0  0  0  0  0
   39.3160   26.9260   43.1630 H   0  0  0  0  0  0  0  0  0  0  0  0
   39.8740   26.8220   39.5320 Cl  0  0  0  0  0  0  0  0  0  0  0  0
   39.0190   25.3860   40.0260 C   0  0  0  0  0  0  0  0  0  0  0  0
   38.1230   25.6170   41.0370 C   0  0  0  0  0  0  0  0  0  0  0  0
   37.3510   24.5720   41.5550 C   0  0  0  0  0  0  0  0  0  0  0  0
   37.4940   23.2830   41.0420 C   0  0  0  0  0  0  0  0  0  0  0  0
   38.4110   23.0780   40.0170 C   0  0  0  0  0  0  0  0  0  0  0  0
   38.6320   21.4800   39.3400 Cl  0  0  0  0  0  0  0  0  0  0  0  0
   39.1550   24.1170   39.5250 C   0  0  0  0  0  0  0  0  0  0  0  0
   36.6310   24.6120   42.3260 H   0  0  0  0  0  0  0  0  0  0  0  0
   36.9380   22.4230   41.3860 H   0  0  0  0  0  0  0  0  0  0  0  0
   39.8830   24.0190   38.7280 H   0  0  0  0  0  0  0  0  0  0  0  0
  1  2  2  0  0  0  0
  2 22  1  0  0  0  0
  3  8  1  0  0  0  0
  3  9  1  0  0  0  0
  4  3  2  0  0  0  0
  5  6  2  0  0  0  0
  5  4  1  0  0  0  0
  6  7  1  0  0  0  0
  7  1  1  0  0  0  0
  7  8  2  0  0  0  0
 10 11  1  0  0  0  0
 10  5  1  0  0  0  0
 11 12  1  0  0  0  0
 13 11  1  0  0  0  0
 14 11  1  0  0  0  0
 15  4  1  0  0  0  0
 16 20  1  0  0  0  0
 16 15  1  0  0  0  0
 17 16  1  0  0  0  0
 18 16  1  0  0  0  0
 19 18  1  0  0  0  0
 21 20  1  0  0  0  0
 22 23  1  0  0  0  0
 24 22  1  0  0  0  0
 25 27  1  0  0  0  0
 26 25  2  0  0  0  0
 27 28  1  0  0  0  0
 27 22  1  0  0  0  0
 29 30  1  0  0  0  0
 30 31  1  0  0  0  0
 31 32  2  0  0  0  0
 31 25  1  0  0  0  0
 32 37  1  0  0  0  0
 33 38  1  0  0  0  0
 33 32  1  0  0  0  0
 34 33  2  0  0  0  0
 35 34  1  0  0  0  0
 36 34  1  0  0  0  0
 36 30  2  0  0  0  0
 39 36  1  0  0  0  0
M  END
>  <minimizedAffinity>
-5.52689838

$$$$
