
 OpenBabel03242512443D

 36 37  0  0  1  0  0  0  0  0999 V2000
   45.5030   34.3520   45.0230 C   0  0  0  0  0  0  0  0  0  0  0  0
   46.3790   34.1130   43.9300 C   0  0  0  0  0  0  0  0  0  0  0  0
   47.2760   33.0520   44.0400 C   0  0  0  0  0  0  0  0  0  0  0  0
   47.2550   32.3090   45.1950 N   0  0  0  0  0  0  0  0  0  0  0  0
   46.4020   32.5810   46.2000 C   0  0  0  0  0  0  0  0  0  0  0  0
   45.5340   33.5940   46.1140 N   0  0  0  0  0  0  0  0  0  0  0  0
   46.4750   31.7270   47.3670 N   0  0  0  0  0  0  0  0  0  0  0  0
   46.1480   32.2970   48.6380 C   0  0  0  0  0  0  0  0  0  0  0  0
   45.4450   31.3270   49.4960 C   0  0  0  0  0  0  0  0  0  0  0  0
   45.0050   30.0360   48.8830 C   0  0  0  0  0  0  0  0  0  0  0  0
   45.9900   29.4340   47.9380 C   0  0  0  0  0  0  0  0  0  0  0  0
   46.8710   30.3440   47.1910 C   0  0  2  0  0  0  0  0  0  0  0  0
   46.3610   34.7250   43.0390 H   0  0  0  0  0  0  0  0  0  0  0  0
   47.9730   32.8080   43.2500 H   0  0  0  0  0  0  0  0  0  0  0  0
   45.4930   33.1870   48.4940 H   0  0  0  0  0  0  0  0  0  0  0  0
   47.0930   32.6960   49.1020 H   0  0  0  0  0  0  0  0  0  0  0  0
   44.5690   31.7720   50.0140 H   0  0  0  0  0  0  0  0  0  0  0  0
   46.1590   31.0370   50.3230 H   0  0  0  0  0  0  0  0  0  0  0  0
   44.7650   29.3380   49.6910 H   0  0  0  0  0  0  0  0  0  0  0  0
   44.0560   30.2280   48.3290 H   0  0  0  0  0  0  0  0  0  0  0  0
   45.3910   28.7570   47.2590 H   0  0  0  0  0  0  0  0  0  0  0  0
   46.6030   28.7220   48.5310 H   0  0  0  0  0  0  0  0  0  0  0  0
   46.8430   30.0830   46.1130 H   0  0  0  0  0  0  0  0  0  0  0  0
   44.6520   35.3960   44.8610 O   0  0  0  0  0  0  0  0  0  0  0  0
   44.3930   36.0390   43.6590 C   0  0  0  0  0  0  0  0  0  0  0  0
   45.0880   36.9710   43.1630 O   0  0  0  0  0  0  0  0  0  0  0  0
   43.2890   35.7190   42.8180 N   0  0  0  0  0  0  0  0  0  0  0  0
   43.1110   35.3060   41.8690 H   0  0  0  0  0  0  0  0  0  0  0  0
   42.2830   35.8750   43.0660 H   0  0  0  0  0  0  0  0  0  0  0  0
   48.3250   30.2780   47.6140 C   0  0  0  0  0  0  0  0  0  0  0  0
   48.5460   29.5000   48.7980 N   0  0  0  0  0  0  0  0  0  0  0  0
   47.7150   29.0910   49.2360 H   0  0  0  0  0  0  0  0  0  0  0  0
   49.5400   28.4540   48.5990 C   0  0  0  0  0  0  0  0  0  0  0  0
   49.1790   27.6360   47.9380 H   0  0  0  0  0  0  0  0  0  0  0  0
   49.1460   30.4110   49.7770 C   0  0  0  0  0  0  0  0  0  0  0  0
   48.3690   31.0100   50.2940 H   0  0  0  0  0  0  0  0  0  0  0  0
  1  6  1  0  0  0  0
  2  3  1  0  0  0  0
  2  1  2  0  0  0  0
  3  4  2  0  0  0  0
  4  5  1  0  0  0  0
  5  7  1  0  0  0  0
  6  5  2  0  0  0  0
  7  8  1  0  0  0  0
  8 16  1  0  0  0  0
  8  9  1  0  0  0  0
  9 17  1  0  0  0  0
  9 18  1  0  0  0  0
 10  9  1  0  0  0  0
 10 19  1  0  0  0  0
 11 22  1  0  0  0  0
 11 10  1  0  0  0  0
 12 23  1  6  0  0  0
 12  7  1  0  0  0  0
 12 30  1  0  0  0  0
 12 11  1  0  0  0  0
 13  2  1  0  0  0  0
 14  3  1  0  0  0  0
 15  8  1  0  0  0  0
 20 10  1  0  0  0  0
 21 11  1  0  0  0  0
 24  1  1  0  0  0  0
 25 24  1  0  0  0  0
 26 25  2  0  0  0  0
 27 29  1  0  0  0  0
 27 25  1  0  0  0  0
 28 27  1  0  0  0  0
 30 31  1  0  0  0  0
 31 32  1  0  0  0  0
 31 35  1  0  0  0  0
 33 31  1  0  0  0  0
 34 33  1  0  0  0  0
 35 36  1  0  0  0  0
M  END
>  <minimizedAffinity>
-5.71594667

>  <minimizedRMSD>
0.734165013

$$$$
