
 OpenBabel03252507523D

 29 30  0  0  1  0  0  0  0  0999 V2000
   47.1520   34.6940   42.1330 C   0  0  2  0  0  0  0  0  0  0  0  0
   46.4970   34.3680   40.8340 C   0  0  0  0  0  0  0  0  0  0  0  0
   47.7220   34.0220   39.9960 C   0  0  0  0  0  0  0  0  0  0  0  0
   48.7130   33.4060   40.9740 C   0  0  1  0  0  0  0  0  0  0  0  0
   48.0300   33.4480   42.3240 C   0  0  0  0  0  0  0  0  0  0  0  0
   47.8280   35.5610   42.0170 H   0  0  0  0  0  0  0  0  0  0  0  0
   45.7980   33.5370   40.9020 H   0  0  0  0  0  0  0  0  0  0  0  0
   46.0700   35.3000   40.4160 H   0  0  0  0  0  0  0  0  0  0  0  0
   47.3640   33.2840   39.2470 H   0  0  0  0  0  0  0  0  0  0  0  0
   48.1310   34.9040   39.4690 H   0  0  0  0  0  0  0  0  0  0  0  0
   49.5780   34.0600   41.0140 H   0  0  0  0  0  0  0  0  0  0  0  0
   48.7630   33.7120   43.1110 H   0  0  0  0  0  0  0  0  0  0  0  0
   47.3930   32.5860   42.5410 H   0  0  0  0  0  0  0  0  0  0  0  0
   44.5150   35.9970   44.4960 C   0  0  0  0  0  0  0  0  0  0  0  0
   45.3140   35.9290   43.3610 C   0  0  0  0  0  0  0  0  0  0  0  0
   46.2420   34.8970   43.2790 C   0  0  0  0  0  0  0  0  0  0  0  0
   46.3140   34.0120   44.3180 N   0  0  0  0  0  0  0  0  0  0  0  0
   45.5290   34.0960   45.4080 C   0  0  0  0  0  0  0  0  0  0  0  0
   44.6280   35.0860   45.5020 N   0  0  0  0  0  0  0  0  0  0  0  0
   43.7740   36.7930   44.5950 H   0  0  0  0  0  0  0  0  0  0  0  0
   45.2490   36.6250   42.5590 H   0  0  0  0  0  0  0  0  0  0  0  0
   45.6230   33.3730   46.2030 H   0  0  0  0  0  0  0  0  0  0  0  0
   48.9530   32.0010   40.5460 C   0  0  0  0  0  2  0  0  0  0  0  0
   50.1780   31.4110   40.9740 N   0  0  0  0  0  4  0  0  0  0  0  0
   50.6000   30.9610   40.1070 H   0  0  0  0  0  0  0  0  0  0  0  0
   51.1590   32.3460   41.4470 C   0  0  0  0  0  2  0  0  0  0  0  0
   51.4150   32.0850   42.5110 H   0  0  0  0  0  0  0  0  0  0  0  0
   49.9900   30.2840   41.8880 C   0  0  0  0  0  2  0  0  0  0  0  0
   50.8670   29.5840   41.7640 H   0  0  0  0  0  0  0  0  0  0  0  0
  1  6  1  6  0  0  0
  1  5  1  0  0  0  0
  1 16  1  0  0  0  0
  2  7  1  0  0  0  0
  2  1  1  0  0  0  0
  3  2  1  0  0  0  0
  3  4  1  0  0  0  0
  4 11  1  1  0  0  0
  4  5  1  0  0  0  0
  5 13  1  0  0  0  0
  5 12  1  0  0  0  0
  8  2  1  0  0  0  0
  9  3  1  0  0  0  0
 10  3  1  0  0  0  0
 14 20  1  0  0  0  0
 14 19  1  0  0  0  0
 15 14  2  0  0  0  0
 16 15  1  0  0  0  0
 16 17  2  0  0  0  0
 17 18  1  0  0  0  0
 18 19  2  0  0  0  0
 18 22  1  0  0  0  0
 21 15  1  0  0  0  0
 23  4  1  0  0  0  0
 23 24  1  0  0  0  0
 24 26  1  0  0  0  0
 24 28  1  0  0  0  0
 25 24  1  0  0  0  0
 26 27  1  0  0  0  0
 29 28  1  0  0  0  0
M  END
>  <minimizedAffinity>
-4.18208313

>  <minimizedRMSD>
1.52158272

$$$$
