
 OpenBabel03242520253D

 22 22  0  0  0  0  0  0  0  0999 V2000
   39.7790   28.1930   43.0070 C   0  0  0  0  0  0  0  0  0  0  0  0
   39.6880   29.4090   42.3100 C   0  0  0  0  0  0  0  0  0  0  0  0
   38.4230   29.9680   42.1800 C   0  0  0  0  0  0  0  0  0  0  0  0
   37.3700   29.3160   42.7250 N   0  0  0  0  0  0  0  0  0  0  0  0
   37.4830   28.1490   43.3900 C   0  0  0  0  0  0  0  0  0  0  0  0
   38.6890   27.5830   43.5340 N   0  0  0  0  0  0  0  0  0  0  0  0
   40.7560   27.7410   43.1190 H   0  0  0  0  0  0  0  0  0  0  0  0
   36.5190   27.8060   43.7420 H   0  0  0  0  0  0  0  0  0  0  0  0
   38.2920   31.1750   41.4930 O   0  0  0  0  0  0  0  0  0  0  0  0
   37.0960   30.7320   39.1930 O   0  0  0  0  0  0  0  0  0  0  0  0
   36.9090   31.4530   40.5300 P   0  0  0  0  0  0  0  0  0  0  0  0
   35.5500   30.9080   41.3450 O   0  0  0  0  0  0  0  0  0  0  0  0
   34.8500   31.6120   41.2770 H   0  0  0  0  0  0  0  0  0  0  0  0
   36.8310   33.1080   40.2100 O   0  0  0  0  0  0  0  0  0  0  0  0
   37.2530   33.5980   40.9630 H   0  0  0  0  0  0  0  0  0  0  0  0
   40.8230   30.1070   41.7250 C   0  0  0  0  0  2  0  0  0  0  0  0
   41.0900   31.4250   42.2250 N   0  0  0  0  0  4  0  0  0  0  0  0
   40.2710   31.9290   42.5670 H   0  0  0  0  0  0  0  0  0  0  0  0
   42.2040   31.3570   43.1610 C   0  0  0  0  0  2  0  0  0  0  0  0
   43.1100   31.0660   42.5550 H   0  0  0  0  0  0  0  0  0  0  0  0
   41.6100   32.2270   41.1060 C   0  0  0  0  0  2  0  0  0  0  0  0
   42.4770   31.7020   40.6500 H   0  0  0  0  0  0  0  0  0  0  0  0
  1  7  1  0  0  0  0
  1  6  1  0  0  0  0
  2  1  2  0  0  0  0
  3  2  1  0  0  0  0
  3  4  2  0  0  0  0
  4  5  1  0  0  0  0
  5  6  2  0  0  0  0
  5  8  1  0  0  0  0
  9  3  1  0  0  0  0
 10 11  2  0  0  0  0
 11 12  1  0  0  0  0
 11  9  1  0  0  0  0
 13 12  1  0  0  0  0
 14 11  1  0  0  0  0
 14 15  1  0  0  0  0
 16 17  1  0  0  0  0
 16  2  1  0  0  0  0
 17 18  1  0  0  0  0
 17 19  1  0  0  0  0
 20 19  1  0  0  0  0
 21 17  1  0  0  0  0
 22 21  1  0  0  0  0
M  END
>  <minimizedAffinity>
-4.55935049

$$$$

 OpenBabel03242520253D

 22 22  0  0  0  0  0  0  0  0999 V2000
   38.9330   27.2490   41.9380 C   0  0  0  0  0  0  0  0  0  0  0  0
   38.9940   28.4710   41.2480 C   0  0  0  0  0  0  0  0  0  0  0  0
   38.2560   29.5270   41.7690 C   0  0  0  0  0  0  0  0  0  0  0  0
   37.5340   29.3170   42.8940 N   0  0  0  0  0  0  0  0  0  0  0  0
   37.4920   28.1340   43.5390 C   0  0  0  0  0  0  0  0  0  0  0  0
   38.1910   27.0950   43.0640 N   0  0  0  0  0  0  0  0  0  0  0  0
   39.5000   26.4140   41.5490 H   0  0  0  0  0  0  0  0  0  0  0  0
   36.8560   28.1890   44.4120 H   0  0  0  0  0  0  0  0  0  0  0  0
   38.2910   30.7560   41.1100 O   0  0  0  0  0  0  0  0  0  0  0  0
   36.6960   30.8870   39.0240 O   0  0  0  0  0  0  0  0  0  0  0  0
   36.8530   31.4050   40.4560 P   0  0  0  0  0  0  0  0  0  0  0  0
   35.5570   30.9610   41.4220 O   0  0  0  0  0  0  0  0  0  0  0  0
   34.9980   31.7690   41.5740 H   0  0  0  0  0  0  0  0  0  0  0  0
   37.0350   33.0800   40.3760 O   0  0  0  0  0  0  0  0  0  0  0  0
   37.6510   33.3670   41.0990 H   0  0  0  0  0  0  0  0  0  0  0  0
   39.7720   28.6920   40.0390 C   0  0  0  0  0  2  0  0  0  0  0  0
   39.0270   28.8820   38.8270 N   0  0  0  0  0  4  0  0  0  0  0  0
   38.0750   29.2250   38.9570 H   0  0  0  0  0  0  0  0  0  0  0  0
   39.8360   29.6550   37.8930 C   0  0  0  0  0  2  0  0  0  0  0  0
   40.7140   29.0010   37.6180 H   0  0  0  0  0  0  0  0  0  0  0  0
   38.8900   27.5670   38.1800 C   0  0  0  0  0  2  0  0  0  0  0  0
   39.8960   27.1120   38.0590 H   0  0  0  0  0  0  0  0  0  0  0  0
  1  6  1  0  0  0  0
  2  3  1  0  0  0  0
  2  1  2  0  0  0  0
  3  4  2  0  0  0  0
  4  5  1  0  0  0  0
  5  8  1  0  0  0  0
  6  5  2  0  0  0  0
  7  1  1  0  0  0  0
  9  3  1  0  0  0  0
 10 11  2  0  0  0  0
 11  9  1  0  0  0  0
 11 12  1  0  0  0  0
 12 13  1  0  0  0  0
 14 11  1  0  0  0  0
 14 15  1  0  0  0  0
 16  2  1  0  0  0  0
 17 18  1  0  0  0  0
 17 16  1  0  0  0  0
 19 17  1  0  0  0  0
 20 19  1  0  0  0  0
 21 17  1  0  0  0  0
 22 21  1  0  0  0  0
M  END
>  <minimizedAffinity>
-4.23076487

$$$$

 OpenBabel03242520253D

 22 22  0  0  0  0  0  0  0  0999 V2000
   39.7070   32.3830   38.6930 C   0  0  0  0  0  0  0  0  0  0  0  0
   39.1540   31.1220   38.9680 C   0  0  0  0  0  0  0  0  0  0  0  0
   38.5530   30.9530   40.2100 C   0  0  0  0  0  0  0  0  0  0  0  0
   38.5360   32.0010   41.0660 N   0  0  0  0  0  0  0  0  0  0  0  0
   39.0740   33.2030   40.7780 C   0  0  0  0  0  0  0  0  0  0  0  0
   39.6610   33.3990   39.5910 N   0  0  0  0  0  0  0  0  0  0  0  0
   40.1800   32.5340   37.7320 H   0  0  0  0  0  0  0  0  0  0  0  0
   38.9490   33.8930   41.6030 H   0  0  0  0  0  0  0  0  0  0  0  0
   37.9930   29.7140   40.5200 O   0  0  0  0  0  0  0  0  0  0  0  0
   35.7140   28.4930   41.0010 O   0  0  0  0  0  0  0  0  0  0  0  0
   36.5970   29.6390   41.5020 P   0  0  0  0  0  0  0  0  0  0  0  0
   37.0560   29.4190   43.0980 O   0  0  0  0  0  0  0  0  0  0  0  0
   36.5350   30.0550   43.6570 H   0  0  0  0  0  0  0  0  0  0  0  0
   35.7400   31.0760   41.2840 O   0  0  0  0  0  0  0  0  0  0  0  0
   36.3820   31.7980   41.0570 H   0  0  0  0  0  0  0  0  0  0  0  0
   39.1740   29.9980   38.0450 C   0  0  0  0  0  2  0  0  0  0  0  0
   37.8990   29.4550   37.6700 N   0  0  0  0  0  4  0  0  0  0  0  0
   37.3360   29.1070   38.4460 H   0  0  0  0  0  0  0  0  0  0  0  0
   37.2210   30.4050   36.7970 C   0  0  0  0  0  2  0  0  0  0  0  0
   37.8290   30.4520   35.8470 H   0  0  0  0  0  0  0  0  0  0  0  0
   38.1490   28.2900   36.8070 C   0  0  0  0  0  2  0  0  0  0  0  0
   38.8090   28.5920   35.9650 H   0  0  0  0  0  0  0  0  0  0  0  0
  1  2  2  0  0  0  0
  1  6  1  0  0  0  0
  2  3  1  0  0  0  0
  3  9  1  0  0  0  0
  3  4  2  0  0  0  0
  5  4  1  0  0  0  0
  5  8  1  0  0  0  0
  6  5  2  0  0  0  0
  7  1  1  0  0  0  0
  9 11  1  0  0  0  0
 10 11  2  0  0  0  0
 11 12  1  0  0  0  0
 12 13  1  0  0  0  0
 14 11  1  0  0  0  0
 15 14  1  0  0  0  0
 16  2  1  0  0  0  0
 17 16  1  0  0  0  0
 17 18  1  0  0  0  0
 19 17  1  0  0  0  0
 20 19  1  0  0  0  0
 21 17  1  0  0  0  0
 22 21  1  0  0  0  0
M  END
>  <minimizedAffinity>
-4.04427624

$$$$

 OpenBabel03242520253D

 22 22  0  0  0  0  0  0  0  0999 V2000
   34.7780   28.9570   40.0660 C   0  0  0  0  0  0  0  0  0  0  0  0
   35.9920   29.6020   40.3510 C   0  0  0  0  0  0  0  0  0  0  0  0
   36.7160   30.0920   39.2710 C   0  0  0  0  0  0  0  0  0  0  0  0
   36.2120   29.9210   38.0260 N   0  0  0  0  0  0  0  0  0  0  0  0
   35.0430   29.2990   37.7780 C   0  0  0  0  0  0  0  0  0  0  0  0
   34.3210   28.8140   38.7960 N   0  0  0  0  0  0  0  0  0  0  0  0
   34.1990   28.5680   40.8930 H   0  0  0  0  0  0  0  0  0  0  0  0
   34.8330   29.2740   36.7160 H   0  0  0  0  0  0  0  0  0  0  0  0
   37.9280   30.7370   39.5150 O   0  0  0  0  0  0  0  0  0  0  0  0
   39.5240   32.8260   39.4390 O   0  0  0  0  0  0  0  0  0  0  0  0
   38.0670   32.4130   39.2140 P   0  0  0  0  0  0  0  0  0  0  0  0
   37.5640   32.7370   37.6490 O   0  0  0  0  0  0  0  0  0  0  0  0
   36.9600   33.5260   37.6790 H   0  0  0  0  0  0  0  0  0  0  0  0
   37.1260   33.2190   40.3590 O   0  0  0  0  0  0  0  0  0  0  0  0
   36.3730   32.6300   40.6240 H   0  0  0  0  0  0  0  0  0  0  0  0
   36.5300   29.7830   41.6910 C   0  0  0  0  0  2  0  0  0  0  0  0
   37.5820   28.8890   42.0830 N   0  0  0  0  0  4  0  0  0  0  0  0
   37.9810   28.3350   41.3240 H   0  0  0  0  0  0  0  0  0  0  0  0
   38.5530   29.6250   42.8820 C   0  0  0  0  0  2  0  0  0  0  0  0
   38.0230   29.9180   43.8350 H   0  0  0  0  0  0  0  0  0  0  0  0
   37.0070   27.9150   43.0250 C   0  0  0  0  0  2  0  0  0  0  0  0
   36.5050   28.4580   43.8540 H   0  0  0  0  0  0  0  0  0  0  0  0
  1  2  1  0  0  0  0
  1  7  1  0  0  0  0
  2 16  1  0  0  0  0
  3  9  1  0  0  0  0
  3  2  2  0  0  0  0
  4  3  1  0  0  0  0
  5  4  2  0  0  0  0
  5  6  1  0  0  0  0
  6  1  2  0  0  0  0
  8  5  1  0  0  0  0
 11 10  2  0  0  0  0
 11  9  1  0  0  0  0
 11 14  1  0  0  0  0
 12 13  1  0  0  0  0
 12 11  1  0  0  0  0
 14 15  1  0  0  0  0
 16 17  1  0  0  0  0
 17 19  1  0  0  0  0
 17 21  1  0  0  0  0
 18 17  1  0  0  0  0
 19 20  1  0  0  0  0
 21 22  1  0  0  0  0
M  END
>  <minimizedAffinity>
-3.95381045

$$$$

 OpenBabel03242520253D

 22 22  0  0  0  0  0  0  0  0999 V2000
   40.0630   33.1790   40.3420 C   0  0  0  0  0  0  0  0  0  0  0  0
   39.6910   31.8290   40.4390 C   0  0  0  0  0  0  0  0  0  0  0  0
   38.3470   31.5290   40.2540 C   0  0  0  0  0  0  0  0  0  0  0  0
   37.4900   32.5440   39.9930 N   0  0  0  0  0  0  0  0  0  0  0  0
   37.8710   33.8330   39.9040 C   0  0  0  0  0  0  0  0  0  0  0  0
   39.1590   34.1570   40.0780 N   0  0  0  0  0  0  0  0  0  0  0  0
   41.1050   33.4340   40.4840 H   0  0  0  0  0  0  0  0  0  0  0  0
   37.0270   34.4750   39.6890 H   0  0  0  0  0  0  0  0  0  0  0  0
   37.9400   30.1980   40.3440 O   0  0  0  0  0  0  0  0  0  0  0  0
   36.0280   28.4910   40.9340 O   0  0  0  0  0  0  0  0  0  0  0  0
   36.7060   29.7650   41.4440 P   0  0  0  0  0  0  0  0  0  0  0  0
   37.3730   29.5490   42.9650 O   0  0  0  0  0  0  0  0  0  0  0  0
   36.7960   30.0230   43.6230 H   0  0  0  0  0  0  0  0  0  0  0  0
   35.5520   30.9970   41.4300 O   0  0  0  0  0  0  0  0  0  0  0  0
   36.0030   31.8520   41.2050 H   0  0  0  0  0  0  0  0  0  0  0  0
   40.6160   30.7420   40.7200 C   0  0  0  0  0  2  0  0  0  0  0  0
   40.4720   30.0920   41.9920 N   0  0  0  0  0  4  0  0  0  0  0  0
   39.5470   30.1760   42.4150 H   0  0  0  0  0  0  0  0  0  0  0  0
   40.9770   28.7300   41.8860 C   0  0  0  0  0  2  0  0  0  0  0  0
   42.0880   28.8170   41.7060 H   0  0  0  0  0  0  0  0  0  0  0  0
   41.3980   30.7460   42.9310 C   0  0  0  0  0  2  0  0  0  0  0  0
   42.4220   30.7380   42.5010 H   0  0  0  0  0  0  0  0  0  0  0  0
  1  2  1  0  0  0  0
  1  7  1  0  0  0  0
  2 16  1  0  0  0  0
  3  9  1  0  0  0  0
  3  2  2  0  0  0  0
  4  3  1  0  0  0  0
  5  4  2  0  0  0  0
  5  6  1  0  0  0  0
  6  1  2  0  0  0  0
  8  5  1  0  0  0  0
  9 11  1  0  0  0  0
 10 11  2  0  0  0  0
 11 12  1  0  0  0  0
 12 13  1  0  0  0  0
 14 11  1  0  0  0  0
 15 14  1  0  0  0  0
 16 17  1  0  0  0  0
 17 18  1  0  0  0  0
 17 21  1  0  0  0  0
 19 17  1  0  0  0  0
 20 19  1  0  0  0  0
 22 21  1  0  0  0  0
M  END
>  <minimizedAffinity>
-3.94610071

$$$$

 OpenBabel03242520253D

 22 22  0  0  0  0  0  0  0  0999 V2000
   36.9540   27.2980   41.7670 C   0  0  0  0  0  0  0  0  0  0  0  0
   36.4820   28.4640   41.1420 C   0  0  0  0  0  0  0  0  0  0  0  0
   36.9180   29.6770   41.6600 C   0  0  0  0  0  0  0  0  0  0  0  0
   37.7600   29.6620   42.7190 N   0  0  0  0  0  0  0  0  0  0  0  0
   38.1990   28.5300   43.3020 C   0  0  0  0  0  0  0  0  0  0  0  0
   37.7980   27.3420   42.8280 N   0  0  0  0  0  0  0  0  0  0  0  0
   36.6260   26.3430   41.3800 H   0  0  0  0  0  0  0  0  0  0  0  0
   38.8620   28.7490   44.1290 H   0  0  0  0  0  0  0  0  0  0  0  0
   36.4690   30.8570   41.0660 O   0  0  0  0  0  0  0  0  0  0  0  0
   38.0110   31.2510   38.9720 O   0  0  0  0  0  0  0  0  0  0  0  0
   37.5880   31.8930   40.2960 P   0  0  0  0  0  0  0  0  0  0  0  0
   36.8800   33.3940   40.0600 O   0  0  0  0  0  0  0  0  0  0  0  0
   37.5330   34.0880   40.3460 H   0  0  0  0  0  0  0  0  0  0  0  0
   38.9580   31.9890   41.2770 O   0  0  0  0  0  0  0  0  0  0  0  0
   38.6820   31.8560   42.2210 H   0  0  0  0  0  0  0  0  0  0  0  0
   35.5770   28.4750   40.0040 C   0  0  0  0  0  2  0  0  0  0  0  0
   36.1520   28.8160   38.7340 N   0  0  0  0  0  4  0  0  0  0  0  0
   36.8060   29.5990   38.7550 H   0  0  0  0  0  0  0  0  0  0  0  0
   36.6630   27.6040   38.1070 C   0  0  0  0  0  2  0  0  0  0  0  0
   35.7640   26.9620   37.8780 H   0  0  0  0  0  0  0  0  0  0  0  0
   35.0540   29.2410   37.8500 C   0  0  0  0  0  2  0  0  0  0  0  0
   34.2740   28.4490   37.8270 H   0  0  0  0  0  0  0  0  0  0  0  0
  1  6  1  0  0  0  0
  2  3  1  0  0  0  0
  2  1  2  0  0  0  0
  3  4  2  0  0  0  0
  4  5  1  0  0  0  0
  5  8  1  0  0  0  0
  6  5  2  0  0  0  0
  7  1  1  0  0  0  0
  9  3  1  0  0  0  0
 10 11  2  0  0  0  0
 11  9  1  0  0  0  0
 11 14  1  0  0  0  0
 12 11  1  0  0  0  0
 12 13  1  0  0  0  0
 14 15  1  0  0  0  0
 16  2  1  0  0  0  0
 17 18  1  0  0  0  0
 17 16  1  0  0  0  0
 19 17  1  0  0  0  0
 20 19  1  0  0  0  0
 21 17  1  0  0  0  0
 22 21  1  0  0  0  0
M  END
>  <minimizedAffinity>
-3.91597962

$$$$

 OpenBabel03242520253D

 22 22  0  0  0  0  0  0  0  0999 V2000
   40.8430   32.0960   41.1600 C   0  0  0  0  0  0  0  0  0  0  0  0
   39.6840   31.5650   40.5710 C   0  0  0  0  0  0  0  0  0  0  0  0
   39.1840   30.3880   41.1150 C   0  0  0  0  0  0  0  0  0  0  0  0
   39.8340   29.8340   42.1640 N   0  0  0  0  0  0  0  0  0  0  0  0
   40.9450   30.3640   42.7120 C   0  0  0  0  0  0  0  0  0  0  0  0
   41.4550   31.4970   42.2130 N   0  0  0  0  0  0  0  0  0  0  0  0
   41.2490   33.0120   40.7510 H   0  0  0  0  0  0  0  0  0  0  0  0
   41.2980   29.7600   43.5380 H   0  0  0  0  0  0  0  0  0  0  0  0
   38.0350   29.8280   40.5560 O   0  0  0  0  0  0  0  0  0  0  0  0
   35.8120   28.4840   40.9670 O   0  0  0  0  0  0  0  0  0  0  0  0
   36.6270   29.6600   41.5100 P   0  0  0  0  0  0  0  0  0  0  0  0
   37.0700   29.4250   43.1090 O   0  0  0  0  0  0  0  0  0  0  0  0
   36.5070   30.0200   43.6730 H   0  0  0  0  0  0  0  0  0  0  0  0
   35.7030   31.0570   41.3110 O   0  0  0  0  0  0  0  0  0  0  0  0
   36.3110   31.8160   41.1120 H   0  0  0  0  0  0  0  0  0  0  0  0
   38.9890   32.1630   39.4430 C   0  0  0  0  0  2  0  0  0  0  0  0
   39.0460   31.4430   38.2020 N   0  0  0  0  0  4  0  0  0  0  0  0
   39.2740   30.4530   38.2900 H   0  0  0  0  0  0  0  0  0  0  0  0
   37.8420   31.7310   37.4340 C   0  0  0  0  0  2  0  0  0  0  0  0
   37.8930   32.8240   37.1610 H   0  0  0  0  0  0  0  0  0  0  0  0
   40.1310   32.0300   37.4000 C   0  0  0  0  0  2  0  0  0  0  0  0
   39.9710   33.1260   37.3120 H   0  0  0  0  0  0  0  0  0  0  0  0
  1  6  1  0  0  0  0
  2  3  1  0  0  0  0
  2  1  2  0  0  0  0
  3  4  2  0  0  0  0
  4  5  1  0  0  0  0
  5  8  1  0  0  0  0
  6  5  2  0  0  0  0
  7  1  1  0  0  0  0
  9  3  1  0  0  0  0
  9 11  1  0  0  0  0
 10 11  2  0  0  0  0
 11 12  1  0  0  0  0
 12 13  1  0  0  0  0
 14 11  1  0  0  0  0
 15 14  1  0  0  0  0
 16  2  1  0  0  0  0
 17 18  1  0  0  0  0
 17 16  1  0  0  0  0
 19 17  1  0  0  0  0
 20 19  1  0  0  0  0
 21 17  1  0  0  0  0
 22 21  1  0  0  0  0
M  END
>  <minimizedAffinity>
-3.90006614

$$$$

 OpenBabel03242520253D

 22 22  0  0  0  0  0  0  0  0999 V2000
   36.8670   28.7100   41.9240 C   0  0  0  0  0  0  0  0  0  0  0  0
   37.8300   29.7310   41.8790 C   0  0  0  0  0  0  0  0  0  0  0  0
   37.5870   30.7910   41.0140 C   0  0  0  0  0  0  0  0  0  0  0  0
   36.4510   30.7760   40.2780 N   0  0  0  0  0  0  0  0  0  0  0  0
   35.5410   29.7840   40.3390 C   0  0  0  0  0  0  0  0  0  0  0  0
   35.7450   28.7470   41.1620 N   0  0  0  0  0  0  0  0  0  0  0  0
   37.0380   27.8760   42.5900 H   0  0  0  0  0  0  0  0  0  0  0  0
   34.7130   29.9730   39.6680 H   0  0  0  0  0  0  0  0  0  0  0  0
   38.5220   31.8240   40.9420 O   0  0  0  0  0  0  0  0  0  0  0  0
   39.3740   34.1380   40.0280 O   0  0  0  0  0  0  0  0  0  0  0  0
   38.3560   33.0310   39.7440 P   0  0  0  0  0  0  0  0  0  0  0  0
   38.5900   32.3440   38.2330 O   0  0  0  0  0  0  0  0  0  0  0  0
   37.8650   32.6690   37.6340 H   0  0  0  0  0  0  0  0  0  0  0  0
   36.8160   33.7010   39.9000 O   0  0  0  0  0  0  0  0  0  0  0  0
   36.2050   33.0110   40.2700 H   0  0  0  0  0  0  0  0  0  0  0  0
   39.0500   29.7440   42.6720 C   0  0  0  0  0  2  0  0  0  0  0  0
   40.2830   29.6150   41.9500 N   0  0  0  0  0  4  0  0  0  0  0  0
   40.2320   29.8700   40.9630 H   0  0  0  0  0  0  0  0  0  0  0  0
   41.3410   30.2780   42.7010 C   0  0  0  0  0  2  0  0  0  0  0  0
   41.4750   29.6840   43.6520 H   0  0  0  0  0  0  0  0  0  0  0  0
   40.6630   28.1940   41.9730 C   0  0  0  0  0  2  0  0  0  0  0  0
   40.6840   27.8360   43.0240 H   0  0  0  0  0  0  0  0  0  0  0  0
  1  7  1  0  0  0  0
  2  1  1  0  0  0  0
  2 16  1  0  0  0  0
  3  2  2  0  0  0  0
  4  5  2  0  0  0  0
  4  3  1  0  0  0  0
  5  6  1  0  0  0  0
  6  1  2  0  0  0  0
  8  5  1  0  0  0  0
  9  3  1  0  0  0  0
 11 14  1  0  0  0  0
 11 10  2  0  0  0  0
 11  9  1  0  0  0  0
 12 11  1  0  0  0  0
 13 12  1  0  0  0  0
 14 15  1  0  0  0  0
 17 21  1  0  0  0  0
 17 16  1  0  0  0  0
 17 19  1  0  0  0  0
 18 17  1  0  0  0  0
 19 20  1  0  0  0  0
 21 22  1  0  0  0  0
M  END
>  <minimizedAffinity>
-3.88072085

$$$$

 OpenBabel03242520253D

 22 22  0  0  0  0  0  0  0  0999 V2000
   37.6640   31.1940   37.5280 C   0  0  0  0  0  0  0  0  0  0  0  0
   38.0480   30.9160   38.8490 C   0  0  0  0  0  0  0  0  0  0  0  0
   37.6810   29.6790   39.3660 C   0  0  0  0  0  0  0  0  0  0  0  0
   36.9860   28.8300   38.5740 N   0  0  0  0  0  0  0  0  0  0  0  0
   36.6290   29.1200   37.3070 C   0  0  0  0  0  0  0  0  0  0  0  0
   36.9660   30.3040   36.7790 N   0  0  0  0  0  0  0  0  0  0  0  0
   37.9390   32.1520   37.1070 H   0  0  0  0  0  0  0  0  0  0  0  0
   36.0810   28.3010   36.8600 H   0  0  0  0  0  0  0  0  0  0  0  0
   38.0440   29.3670   40.6760 O   0  0  0  0  0  0  0  0  0  0  0  0
   37.0700   27.1760   41.7560 O   0  0  0  0  0  0  0  0  0  0  0  0
   36.8850   28.6960   41.7360 P   0  0  0  0  0  0  0  0  0  0  0  0
   37.0770   29.3660   43.2600 O   0  0  0  0  0  0  0  0  0  0  0  0
   36.1770   29.6210   43.5970 H   0  0  0  0  0  0  0  0  0  0  0  0
   35.3570   29.0150   41.0940 O   0  0  0  0  0  0  0  0  0  0  0  0
   35.4020   29.8560   40.5700 H   0  0  0  0  0  0  0  0  0  0  0  0
   38.7950   31.8320   39.6970 C   0  0  0  0  0  2  0  0  0  0  0  0
   38.9740   33.1650   39.1950 N   0  0  0  0  0  4  0  0  0  0  0  0
   38.7550   33.2840   38.2060 H   0  0  0  0  0  0  0  0  0  0  0  0
   38.3040   34.1000   40.0900 C   0  0  0  0  0  2  0  0  0  0  0  0
   38.8640   34.0580   41.0690 H   0  0  0  0  0  0  0  0  0  0  0  0
   40.4010   33.5000   39.3290 C   0  0  0  0  0  2  0  0  0  0  0  0
   40.7190   33.3370   40.3810 H   0  0  0  0  0  0  0  0  0  0  0  0
  1  2  1  0  0  0  0
  2  3  2  0  0  0  0
  2 16  1  0  0  0  0
  3  9  1  0  0  0  0
  4  3  1  0  0  0  0
  5  4  2  0  0  0  0
  6  5  1  0  0  0  0
  6  1  2  0  0  0  0
  7  1  1  0  0  0  0
  8  5  1  0  0  0  0
  9 11  1  0  0  0  0
 11 10  2  0  0  0  0
 11 12  1  0  0  0  0
 12 13  1  0  0  0  0
 14 11  1  0  0  0  0
 15 14  1  0  0  0  0
 17 21  1  0  0  0  0
 17 16  1  0  0  0  0
 17 19  1  0  0  0  0
 18 17  1  0  0  0  0
 19 20  1  0  0  0  0
 21 22  1  0  0  0  0
M  END
>  <minimizedAffinity>
-3.87735152

$$$$
