
     RDKit          3D

 35 36  0  0  0  0  0  0  0  0999 V2000
   48.1039   35.3470   41.7961 C   0  0  0  0  0  0  0  0  0  0  0  0
   46.7685   34.8575   42.1088 C   0  0  0  0  0  0  0  0  0  0  0  0
   46.3279   34.6815   43.4081 C   0  0  0  0  0  0  0  0  0  0  0  0
   45.0351   34.2071   43.6214 C   0  0  0  0  0  0  0  0  0  0  0  0
   44.2749   33.9425   42.5349 N   0  0  0  0  0  0  0  0  0  0  0  0
   44.7088   34.1156   41.2862 C   0  0  0  0  0  0  0  0  0  0  0  0
   45.9317   34.5640   41.1047 N   0  0  0  0  0  0  0  0  0  0  0  0
   49.1196   34.3772   42.3532 C   0  0  0  0  0  0  0  0  0  0  0  0
   49.4888   33.3064   41.4845 C   0  0  0  0  0  0  0  0  0  0  0  0
   48.9713   32.6859   40.2974 C   0  0  0  0  0  0  0  0  0  0  0  0
   49.6567   31.6445   39.7416 C   0  0  0  0  0  0  0  0  0  0  0  0
   50.8845   31.2172   40.3909 C   0  0  0  0  0  0  0  0  0  0  0  0
   51.0614   32.3197   41.8141 S   0  0  0  0  0  0  0  0  0  0  0  0
   48.2509   36.3542   42.2642 H   0  0  0  0  0  0  0  0  0  0  0  0
   48.2699   35.4504   40.7287 H   0  0  0  0  0  0  0  0  0  0  0  0
   46.9802   34.9097   44.2484 H   0  0  0  0  0  0  0  0  0  0  0  0
   44.6644   34.0598   44.6429 H   0  0  0  0  0  0  0  0  0  0  0  0
   44.0710   33.8928   40.4406 H   0  0  0  0  0  0  0  0  0  0  0  0
   50.0255   34.9728   42.5941 H   0  0  0  0  0  0  0  0  0  0  0  0
   48.7246   34.0139   43.3296 H   0  0  0  0  0  0  0  0  0  0  0  0
   48.0562   33.1132   39.9395 H   0  0  0  0  0  0  0  0  0  0  0  0
   49.3026   31.1544   38.8529 H   0  0  0  0  0  0  0  0  0  0  0  0
   51.7258   30.1723   39.9745 C   0  0  0  0  0  0  0  0  0  0  0  0
   52.9198   30.6474   39.3603 N   0  0  0  0  0  4  0  0  0  0  0  0
   53.2058   32.0429   39.5995 C   0  0  0  0  0  0  0  0  0  0  0  0
   53.7507   32.1518   40.5576 H   0  0  0  0  0  0  0  0  0  0  0  0
   52.8374   30.4638   37.9090 C   0  0  0  0  0  0  0  0  0  0  0  0
   52.6296   29.3768   37.7129 H   0  0  0  0  0  0  0  0  0  0  0  0
   51.9660   29.5095   40.8376 H   0  0  0  0  0  0  0  0  0  0  0  0
   51.1775   29.5141   39.2376 H   0  0  0  0  0  0  0  0  0  0  0  0
   53.7313   30.0555   39.6521 H   0  0  0  0  0  0  0  0  0  0  0  0
   53.8516   32.3957   38.7458 H   0  0  0  0  0  0  0  0  0  0  0  0
   52.2681   32.6309   39.5428 H   0  0  0  0  0  0  0  0  0  0  0  0
   53.7672   30.7264   37.4040 H   0  0  0  0  0  0  0  0  0  0  0  0
   51.9850   31.1126   37.5715 H   0  0  0  0  0  0  0  0  0  0  0  0
  1  2  1  0
  1  8  1  0
  2  3  2  0
  3  4  1  0
  5  4  2  0
  6  5  1  0
  7  6  2  0
  7  2  1  0
  9 13  1  0
  9  8  1  0
 10  9  2  0
 11 10  1  0
 11 12  2  0
 12 13  1  0
  1 14  1  0
  1 15  1  0
  3 16  1  0
  4 17  1  0
  6 18  1  0
  8 19  1  0
  8 20  1  0
 10 21  1  0
 11 22  1  0
 23 24  1  0
 24 25  1  0
 25 26  1  0
 24 27  1  0
 27 28  1  0
 23 29  1  0
 23 30  1  0
 24 31  1  0
 25 32  1  0
 25 33  1  0
 27 34  1  0
 27 35  1  0
 12 23  1  0
M  ISO  8  14   8  15   8  16  14  17  14  18  14  19   8  20   8  21  14
M  CHG  1  24   1
M  ISO  3  22  14  26   8  28   8
M  END
>  <DihAtoms>  (1) 
10,11,22,23

>  <DihDeg>  (1) 
-90.10531097283098

$$$$
