
 OpenBabel03252501063D

 38 40  0  0  1  0  0  0  0  0999 V2000
   48.5130   32.3710   38.1080 O   0  0  0  0  0  0  0  0  0  0  0  0
   48.0670   33.8240   38.2640 P   0  0  2  0  0  0  0  0  0  0  0  0
   49.3110   34.7500   37.5800 O   0  0  0  0  0  0  0  0  0  0  0  0
   48.9930   35.6920   37.5680 H   0  0  0  0  0  0  0  0  0  0  0  0
   47.7050   34.1990   39.8150 O   0  0  0  0  0  0  0  0  0  0  0  0
   48.1400   35.4610   41.8340 C   0  0  1  0  0  0  0  0  0  0  0  0
   49.3350   34.6230   41.6660 C   0  0  0  0  0  0  0  0  0  0  0  0
   48.4860   35.0830   40.4660 C   0  0  1  0  0  0  0  0  0  0  0  0
   48.2670   36.5000   42.1740 H   0  0  0  0  0  0  0  0  0  0  0  0
   49.3200   33.5100   41.8170 H   0  0  0  0  0  0  0  0  0  0  0  0
   50.3580   35.0280   41.7590 H   0  0  0  0  0  0  0  0  0  0  0  0
   49.0510   35.7860   39.8260 H   0  0  0  0  0  0  0  0  0  0  0  0
   46.0430   32.9730   43.7740 C   0  0  0  0  0  0  0  0  0  0  0  0
   47.1520   33.6170   43.2360 C   0  0  0  0  0  0  0  0  0  0  0  0
   46.9560   34.7590   42.4370 C   0  0  0  0  0  0  0  0  0  0  0  0
   45.6910   35.1960   42.2160 N   0  0  0  0  0  0  0  0  0  0  0  0
   44.6240   34.5530   42.7500 C   0  0  0  0  0  0  0  0  0  0  0  0
   44.7970   33.4460   43.5260 N   0  0  0  0  0  0  0  0  0  0  0  0
   46.2020   32.0960   44.3870 H   0  0  0  0  0  0  0  0  0  0  0  0
   48.1270   33.2310   43.4420 H   0  0  0  0  0  0  0  0  0  0  0  0
   43.6490   34.9780   42.5170 H   0  0  0  0  0  0  0  0  0  0  0  0
   46.7220   33.9770   37.2720 O   0  0  0  0  0  0  0  0  0  0  0  0
   45.7480   32.9990   37.1330 C   0  0  0  0  0  0  0  0  0  0  0  0
   45.7380   31.9170   36.2720 C   0  0  0  0  0  0  0  0  0  0  0  0
   44.6960   31.0440   36.2620 C   0  0  0  0  0  0  0  0  0  0  0  0
   43.6180   31.2050   37.1040 C   0  0  0  0  0  0  0  0  0  0  0  0
   43.6630   32.3110   37.9610 C   0  0  0  0  0  0  0  0  0  0  0  0
   44.7140   33.1790   37.9620 N   0  0  0  0  0  0  0  0  0  0  0  0
   46.6150   31.8510   35.6380 H   0  0  0  0  0  0  0  0  0  0  0  0
   44.7530   30.2200   35.5620 H   0  0  0  0  0  0  0  0  0  0  0  0
   42.7990   30.5260   37.1020 H   0  0  0  0  0  0  0  0  0  0  0  0
   42.5030   32.4880   38.8730 C   0  0  0  0  0  2  0  0  0  0  0  0
   42.8400   32.6850   40.2480 N   0  0  0  0  0  4  0  0  0  0  0  0
   43.5540   33.4320   40.4050 H   0  0  0  0  0  0  0  0  0  0  0  0
   41.6460   33.1620   40.9320 C   0  0  0  0  0  2  0  0  0  0  0  0
   40.7330   32.9300   40.3210 H   0  0  0  0  0  0  0  0  0  0  0  0
   43.2050   31.4380   40.8960 C   0  0  0  0  0  2  0  0  0  0  0  0
   42.2490   30.8920   41.1280 H   0  0  0  0  0  0  0  0  0  0  0  0
  2  1  2  6  0  0  0
  2  5  1  0  0  0  0
  3  2  1  0  0  0  0
  4  3  1  0  0  0  0
  5  8  1  0  0  0  0
  6  9  1  1  0  0  0
  6 15  1  0  0  0  0
  7 11  1  0  0  0  0
  7 10  1  0  0  0  0
  7  6  1  0  0  0  0
  8 12  1  6  0  0  0
  8  7  1  0  0  0  0
  8  6  1  0  0  0  0
 13 19  1  0  0  0  0
 14 20  1  0  0  0  0
 14 13  2  0  0  0  0
 15 14  1  0  0  0  0
 16 15  2  0  0  0  0
 16 17  1  0  0  0  0
 17 18  2  0  0  0  0
 18 13  1  0  0  0  0
 21 17  1  0  0  0  0
 22  2  1  0  0  0  0
 23 22  1  0  0  0  0
 23 28  1  0  0  0  0
 24 23  2  0  0  0  0
 25 24  1  0  0  0  0
 25 26  2  0  0  0  0
 26 27  1  0  0  0  0
 27 28  2  0  0  0  0
 27 32  1  0  0  0  0
 29 24  1  0  0  0  0
 30 25  1  0  0  0  0
 31 26  1  0  0  0  0
 32 33  1  0  0  0  0
 33 34  1  0  0  0  0
 33 37  1  0  0  0  0
 33 35  1  0  0  0  0
 36 35  1  0  0  0  0
 37 38  1  0  0  0  0
M  END
>  <minimizedAffinity>
-4.37791348

>  <minimizedRMSD>
0.590028644

$$$$
