
     RDKit          3D

 29 29  0  0  0  0  0  0  0  0999 V2000
   44.6807   35.5228   43.5979 C   0  0  0  0  0  0  0  0  0  0  0  0
   43.9315   35.4270   42.4079 C   0  0  0  0  0  0  0  0  0  0  0  0
   43.7848   34.1603   41.8379 C   0  0  0  0  0  0  0  0  0  0  0  0
   44.3624   33.0988   42.4487 N   0  0  0  0  0  0  0  0  0  0  0  0
   45.0746   33.2243   43.5892 C   0  0  0  0  0  0  0  0  0  0  0  0
   45.2207   34.4278   44.1412 N   0  0  0  0  0  0  0  0  0  0  0  0
   44.8464   36.8407   44.2113 C   0  0  0  0  0  0  0  0  0  0  0  0
   45.2435   37.8489   43.4556 C   0  0  0  0  0  0  0  0  0  0  0  0
   45.4364   39.2154   43.9961 C   0  0  0  0  0  0  0  0  0  0  0  0
   43.5229   36.3251   42.0157 H   0  0  0  0  0  0  0  0  0  0  0  0
   43.2112   34.0786   40.9246 H   0  0  0  0  0  0  0  0  0  0  0  0
   44.6758   37.0995   45.2518 H   0  0  0  0  0  0  0  0  0  0  0  0
   45.4314   37.6583   42.4072 H   0  0  0  0  0  0  0  0  0  0  0  0
   46.4338   39.3322   44.4499 H   0  0  0  0  0  0  0  0  0  0  0  0
   44.6455   39.4580   44.7385 H   0  0  0  0  0  0  0  0  0  0  0  0
   45.3511   39.9582   43.1740 H   0  0  0  0  0  0  0  0  0  0  0  0
   45.6240   31.9644   44.1025 C   0  0  0  0  0  0  0  0  0  0  0  0
   45.6069   30.8772   43.1418 N   0  0  0  0  0  4  0  0  0  0  0  0
   46.5117   29.8702   43.6662 C   0  0  0  0  0  0  0  0  0  0  0  0
   46.2870   29.7897   44.7640 H   0  0  0  0  0  0  0  0  0  0  0  0
   44.3116   30.2879   42.9891 C   0  0  0  0  0  0  0  0  0  0  0  0
   43.6541   30.4501   43.8582 H   0  0  0  0  0  0  0  0  0  0  0  0
   45.1098   31.6087   45.0237 H   0  0  0  0  0  0  0  0  0  0  0  0
   46.6953   32.1190   44.3617 H   0  0  0  0  0  0  0  0  0  0  0  0
   45.9293   31.2077   42.1957 H   0  0  0  0  0  0  0  0  0  0  0  0
   47.5492   30.2893   43.6083 H   0  0  0  0  0  0  0  0  0  0  0  0
   46.4520   28.8999   43.1492 H   0  0  0  0  0  0  0  0  0  0  0  0
   43.8142   30.6055   42.0259 H   0  0  0  0  0  0  0  0  0  0  0  0
   44.4341   29.1917   42.8644 H   0  0  0  0  0  0  0  0  0  0  0  0
  1  6  2  0
  1  7  1  0
  2  1  1  0
  3  2  2  0
  3  4  1  0
  4  5  2  0
  5  6  1  0
  8  9  1  0
  8  7  2  0
  2 10  1  0
  3 11  1  0
  7 12  1  0
  8 13  1  0
  9 14  1  0
  9 15  1  0
  9 16  1  0
 17 18  1  0
 18 19  1  0
 19 20  1  0
 18 21  1  0
 21 22  1  0
 17 23  1  0
 17 24  1  0
 18 25  1  0
 19 26  1  0
 19 27  1  0
 21 28  1  0
 21 29  1  0
  5 17  1  0
M  CHG  1  18   1
M  ISO  7  10  14  11  14  14   8  15   8  16   8  20   8  22   8
M  END
>  <DihAtoms>  (1) 
3,4,16,17

>  <DihDeg>  (1) 
90.00014509307204

$$$$
