
     RDKit          3D

 48 50  0  0  0  0  0  0  0  0999 V2000
   46.0197   35.7197   42.8357 C   0  0  0  0  0  0  0  0  0  0  0  0
   46.3898   34.4896   43.3849 C   0  0  0  0  0  0  0  0  0  0  0  0
   45.7784   34.0491   44.5437 C   0  0  0  0  0  0  0  0  0  0  0  0
   44.8349   34.8370   45.1054 N   0  0  0  0  0  0  0  0  0  0  0  0
   44.4710   36.0346   44.5754 C   0  0  0  0  0  0  0  0  0  0  0  0
   45.0719   36.4569   43.4455 N   0  0  0  0  0  0  0  0  0  0  0  0
   46.1735   32.7752   45.1079 C   0  0  0  0  0  0  0  0  0  0  0  0
   45.7988   31.6125   44.5025 C   0  0  0  0  0  0  0  0  0  0  0  0
   46.1830   30.4102   45.0508 C   0  0  0  0  0  0  0  0  0  0  0  0
   46.9481   30.3269   46.2130 C   0  0  0  0  0  0  0  0  0  0  0  0
   47.2976   31.5389   46.7816 C   0  0  0  0  0  0  0  0  0  0  0  0
   46.9063   32.6923   46.2208 N   0  0  0  0  0  0  0  0  0  0  0  0
   47.3972   33.7167   42.7263 C   0  0  0  0  0  0  0  0  0  0  0  0
   48.5093   33.5257   43.3221 O   0  0  0  0  0  0  0  0  0  0  0  0
   47.1049   33.1864   41.4101 N   0  0  0  0  0  0  0  0  0  0  0  0
   45.9163   32.5273   40.8932 C   0  0  0  0  0  0  0  0  0  0  0  0
   45.4840   33.2435   39.6126 C   0  0  0  0  0  0  0  0  0  0  0  0
   46.5467   33.0912   38.5537 C   0  0  0  0  0  0  0  0  0  0  0  0
   47.8256   32.6141   39.1848 C   0  0  0  0  0  0  0  0  0  0  0  0
   48.1912   33.3394   40.4348 C   0  0  1  0  0  0  0  0  0  0  0  0
   46.4380   36.1328   41.9499 H   0  0  0  0  0  0  0  0  0  0  0  0
   43.7080   36.6272   45.0668 H   0  0  0  0  0  0  0  0  0  0  0  0
   45.2087   31.5114   43.6093 H   0  0  0  0  0  0  0  0  0  0  0  0
   45.9174   29.4514   44.6173 H   0  0  0  0  0  0  0  0  0  0  0  0
   47.2363   29.3707   46.6229 H   0  0  0  0  0  0  0  0  0  0  0  0
   47.8854   31.5179   47.6758 H   0  0  0  0  0  0  0  0  0  0  0  0
   45.0947   32.7676   41.6283 H   0  0  0  0  0  0  0  0  0  0  0  0
   46.0481   31.4578   40.7277 H   0  0  0  0  0  0  0  0  0  0  0  0
   45.4156   34.3301   39.9072 H   0  0  0  0  0  0  0  0  0  0  0  0
   44.4924   32.9023   39.2829 H   0  0  0  0  0  0  0  0  0  0  0  0
   46.1970   32.2533   37.8970 H   0  0  0  0  0  0  0  0  0  0  0  0
   46.6640   33.9614   37.9106 H   0  0  0  0  0  0  0  0  0  0  0  0
   48.6319   32.6992   38.4471 H   0  0  0  0  0  0  0  0  0  0  0  0
   47.7387   31.5299   39.4554 H   0  0  0  0  0  0  0  0  0  0  0  0
   49.0264   32.7829   40.9112 H   0  0  0  0  0  0  0  0  0  0  0  0
   48.6080   34.7583   40.2798 C   0  0  0  0  0  0  0  0  0  0  0  0
   47.8437   35.3895   39.2366 N   0  0  0  0  0  4  0  0  0  0  0  0
   47.9430   34.7118   37.9762 C   0  0  0  0  0  0  0  0  0  0  0  0
   47.2879   35.2950   37.2703 H   0  0  0  0  0  0  0  0  0  0  0  0
   48.2768   36.7636   39.0076 C   0  0  0  0  0  0  0  0  0  0  0  0
   47.9127   37.0403   37.9963 H   0  0  0  0  0  0  0  0  0  0  0  0
   48.6239   35.3338   41.2156 H   0  0  0  0  0  0  0  0  0  0  0  0
   49.6695   34.7410   39.8920 H   0  0  0  0  0  0  0  0  0  0  0  0
   46.8423   35.4276   39.5145 H   0  0  0  0  0  0  0  0  0  0  0  0
   48.9619   34.6861   37.5652 H   0  0  0  0  0  0  0  0  0  0  0  0
   47.5637   33.6870   37.9464 H   0  0  0  0  0  0  0  0  0  0  0  0
   49.3534   36.8925   39.1332 H   0  0  0  0  0  0  0  0  0  0  0  0
   47.7598   37.3779   39.7847 H   0  0  0  0  0  0  0  0  0  0  0  0
  1  2  2  0
  1  6  1  0
  2  3  1  0
  3  7  1  0
  3  4  2  0
  5  4  1  0
  6  5  2  0
  7 12  2  0
  8  9  2  0
  8  7  1  0
  9 10  1  0
 10 11  2  0
 12 11  1  0
 13 14  2  0
 13  2  1  0
 15 13  1  0
 16 15  1  0
 17 16  1  0
 18 19  1  0
 18 17  1  0
 19 20  1  0
 20 15  1  0
  1 21  1  0
  5 22  1  0
  8 23  1  0
  9 24  1  0
 10 25  1  0
 11 26  1  0
 16 27  1  0
 16 28  1  0
 17 29  1  0
 17 30  1  0
 18 31  1  0
 18 32  1  0
 19 33  1  0
 19 34  1  0
 20 35  1  1
 36 37  1  0
 37 38  1  0
 38 39  1  0
 37 40  1  0
 40 41  1  0
 36 42  1  0
 36 43  1  0
 37 44  1  0
 38 45  1  0
 38 46  1  0
 40 47  1  0
 40 48  1  0
 20 36  1  0
M  ISO  8  21  14  22  14  23  14  24  14  25  14  26  14  27  13  28  13
M  ISO  8  29  13  30  13  31  13  32  13  33  13  34  13  35  13  39   8
M  CHG  1  37   1
M  ISO  1  41   8
M  END
>  <DihAtoms>  (1) 
18,19,35,36

>  <DihDeg>  (1) 
-53.86608386330685

$$$$
