
 OpenBabel03252508533D

 41 43  0  0  1  0  0  0  0  0999 V2000
   43.1730   34.4030   40.8640 C   0  0  0  0  0  0  0  0  0  0  0  0
   42.6100   35.5050   41.1910 O   0  0  0  0  0  0  0  0  0  0  0  0
   42.3610   34.0730   39.7050 N   0  0  0  0  0  0  0  0  0  0  0  0
   42.3880   35.0540   38.6380 C   0  0  0  0  0  0  0  0  0  0  0  0
   41.0910   35.8400   38.7890 C   0  0  0  0  0  0  0  0  0  0  0  0
   40.0260   34.8600   39.2750 C   0  0  0  0  0  0  0  0  0  0  0  0
   40.3090   33.4490   38.7570 C   0  0  0  0  0  0  0  0  0  0  0  0
   41.5280   32.8890   39.4780 C   0  0  2  0  0  0  0  0  0  0  0  0
   43.2320   35.7640   38.7160 H   0  0  0  0  0  0  0  0  0  0  0  0
   42.3490   34.5670   37.6330 H   0  0  0  0  0  0  0  0  0  0  0  0
   41.2410   36.5640   39.6170 H   0  0  0  0  0  0  0  0  0  0  0  0
   40.7860   36.3400   37.8520 H   0  0  0  0  0  0  0  0  0  0  0  0
   39.0200   35.1580   38.9620 H   0  0  0  0  0  0  0  0  0  0  0  0
   40.0710   34.7920   40.3860 H   0  0  0  0  0  0  0  0  0  0  0  0
   40.5390   33.5520   37.6630 H   0  0  0  0  0  0  0  0  0  0  0  0
   39.4040   32.8580   38.9330 H   0  0  0  0  0  0  0  0  0  0  0  0
   42.0560   32.2360   38.7740 H   0  0  0  0  0  0  0  0  0  0  0  0
   44.2270   33.7680   41.4670 O   0  0  0  0  0  0  0  0  0  0  0  0
   45.5620   34.0780   41.2900 C   0  0  0  0  0  0  0  0  0  0  0  0
   46.2500   34.6680   42.3470 C   0  0  0  0  0  0  0  0  0  0  0  0
   47.5970   34.9700   42.1390 C   0  0  0  0  0  0  0  0  0  0  0  0
   48.1580   34.6740   40.9250 N   0  0  0  0  0  0  0  0  0  0  0  0
   47.4630   34.1140   39.9540 C   0  0  0  0  0  0  0  0  0  0  0  0
   46.1560   33.8110   40.1280 N   0  0  0  0  0  0  0  0  0  0  0  0
   48.1500   35.4250   42.9380 H   0  0  0  0  0  0  0  0  0  0  0  0
   47.8870   33.8710   38.9860 H   0  0  0  0  0  0  0  0  0  0  0  0
   45.5610   34.9410   43.5960 C   0  0  0  0  0  0  0  0  0  0  0  0
   44.8710   36.1150   43.8420 C   0  0  0  0  0  0  0  0  0  0  0  0
   44.3850   35.9590   45.1100 C   0  0  0  0  0  0  0  0  0  0  0  0
   44.7550   34.7590   45.6190 N   0  0  0  0  0  0  0  0  0  0  0  0
   45.4590   34.1760   44.6820 N   0  0  0  0  0  0  0  0  0  0  0  0
   44.7520   36.9540   43.1700 H   0  0  0  0  0  0  0  0  0  0  0  0
   43.7790   36.6700   45.6840 H   0  0  0  0  0  0  0  0  0  0  0  0
   44.5430   34.3340   46.5700 H   0  0  0  0  0  0  0  0  0  0  0  0
   41.1550   32.2160   40.7670 C   0  0  0  0  0  2  0  0  0  0  0  0
   40.1850   31.1620   40.5400 N   0  0  0  0  0  4  0  0  0  0  0  0
   39.6660   31.2920   39.6550 H   0  0  0  0  0  0  0  0  0  0  0  0
   39.1840   31.1760   41.6160 C   0  0  0  0  0  2  0  0  0  0  0  0
   38.5820   30.2580   41.6020 H   0  0  0  0  0  0  0  0  0  0  0  0
   40.7980   29.8530   40.4950 C   0  0  0  0  0  2  0  0  0  0  0  0
   41.6600   29.7600   41.2000 H   0  0  0  0  0  0  0  0  0  0  0  0
  1  2  2  0  0  0  0
  1 18  1  0  0  0  0
  3  1  1  0  0  0  0
  4  9  1  0  0  0  0
  4  5  1  0  0  0  0
  4  3  1  0  0  0  0
  5  6  1  0  0  0  0
  5 11  1  0  0  0  0
  6 14  1  0  0  0  0
  7 16  1  0  0  0  0
  7  6  1  0  0  0  0
  7  8  1  0  0  0  0
  8 17  1  6  0  0  0
  8  3  1  0  0  0  0
  8 35  1  0  0  0  0
 10  4  1  0  0  0  0
 12  5  1  0  0  0  0
 13  6  1  0  0  0  0
 15  7  1  0  0  0  0
 19 18  1  0  0  0  0
 19 20  1  0  0  0  0
 20 27  1  0  0  0  0
 21 20  2  0  0  0  0
 21 25  1  0  0  0  0
 22 21  1  0  0  0  0
 23 24  1  0  0  0  0
 23 22  2  0  0  0  0
 24 19  2  0  0  0  0
 26 23  1  0  0  0  0
 27 28  1  0  0  0  0
 27 31  2  0  0  0  0
 28 29  2  0  0  0  0
 29 30  1  0  0  0  0
 29 33  1  0  0  0  0
 30 34  1  0  0  0  0
 31 30  1  0  0  0  0
 32 28  1  0  0  0  0
 36 35  1  0  0  0  0
 36 38  1  0  0  0  0
 37 36  1  0  0  0  0
 39 38  1  0  0  0  0
 40 36  1  0  0  0  0
 40 41  1  0  0  0  0
M  END
>  <minimizedAffinity>
-5.77621365

>  <minimizedRMSD>
2.16030192

$$$$
