
     RDKit          3D

 43 45  0  0  0  0  0  0  0  0999 V2000
   47.3715   33.7450   39.7603 C   0  0  0  0  0  0  0  0  0  0  0  0
   48.2809   34.4887   38.9916 C   0  0  0  0  0  0  0  0  0  0  0  0
   47.9913   34.2983   37.6572 C   0  0  0  0  0  0  0  0  0  0  0  0
   46.9279   33.4545   37.6641 C   0  0  0  0  0  0  0  0  0  0  0  0
   46.5609   33.1268   38.8980 O   0  0  0  0  0  0  0  0  0  0  0  0
   46.2570   32.9618   36.4419 C   0  0  2  0  0  0  0  0  0  0  0  0
   46.0509   31.5300   36.2343 C   0  0  0  0  0  0  0  0  0  0  0  0
   47.1957   32.1415   35.5119 C   0  0  1  0  0  0  0  0  0  0  0  0
   48.0951   32.6174   33.2462 C   0  0  0  0  0  0  0  0  0  0  0  0
   49.2933   32.5849   33.6501 O   0  0  0  0  0  0  0  0  0  0  0  0
   46.9753   32.4374   34.0971 N   0  0  0  0  0  0  0  0  0  0  0  0
   47.2145   33.5809   41.1618 O   0  0  0  0  0  0  0  0  0  0  0  0
   47.3464   34.7254   41.9894 C   0  0  0  0  0  0  0  0  0  0  0  0
   48.2383   35.5523   41.6547 O   0  0  0  0  0  0  0  0  0  0  0  0
   46.4625   34.8096   43.0964 C   0  0  0  0  0  0  0  0  0  0  0  0
   45.5787   35.8399   43.0883 C   0  0  0  0  0  0  0  0  0  0  0  0
   44.6849   35.9768   44.1467 C   0  0  0  0  0  0  0  0  0  0  0  0
   44.7365   35.0734   45.1409 N   0  0  0  0  0  0  0  0  0  0  0  0
   45.6151   34.0684   45.1263 C   0  0  0  0  0  0  0  0  0  0  0  0
   46.4506   33.9722   44.0996 N   0  0  0  0  0  0  0  0  0  0  0  0
   49.0397   35.0762   39.4781 H   0  0  0  0  0  0  0  0  0  0  0  0
   48.5231   34.7438   36.8511 H   0  0  0  0  0  0  0  0  0  0  0  0
   45.6702   33.7509   35.9344 H   0  0  0  0  0  0  0  0  0  0  0  0
   46.2421   30.8079   37.0390 H   0  0  0  0  0  0  0  0  0  0  0  0
   45.1230   31.2670   35.6503 H   0  0  0  0  0  0  0  0  0  0  0  0
   48.2197   31.9966   35.8646 H   0  0  0  0  0  0  0  0  0  0  0  0
   47.8379   32.7896   32.1955 H   0  0  0  0  0  0  0  0  0  0  0  0
   45.9948   32.5088   33.7484 H   0  0  0  0  0  0  0  0  0  0  0  0
   45.5288   36.5725   42.2930 H   0  0  0  0  0  0  0  0  0  0  0  0
   43.9631   36.7885   44.1751 H   0  0  0  0  0  0  0  0  0  0  0  0
   45.5475   33.1585   46.2908 C   0  0  0  0  0  0  0  0  0  0  0  0
   44.7681   33.8090   47.3222 N   0  0  0  0  0  4  0  0  0  0  0  0
   45.4294   34.9607   47.8651 C   0  0  0  0  0  0  0  0  0  0  0  0
   45.5411   34.8132   48.9587 H   0  0  0  0  0  0  0  0  0  0  0  0
   43.4744   34.1317   46.7413 C   0  0  0  0  0  0  0  0  0  0  0  0
   42.7424   34.1706   47.5617 H   0  0  0  0  0  0  0  0  0  0  0  0
   46.5793   32.9170   46.6640 H   0  0  0  0  0  0  0  0  0  0  0  0
   45.1008   32.1825   46.0477 H   0  0  0  0  0  0  0  0  0  0  0  0
   44.5840   33.0778   48.0515 H   0  0  0  0  0  0  0  0  0  0  0  0
   46.4194   35.1184   47.3703 H   0  0  0  0  0  0  0  0  0  0  0  0
   44.7667   35.8449   47.7346 H   0  0  0  0  0  0  0  0  0  0  0  0
   43.4969   35.1247   46.2459 H   0  0  0  0  0  0  0  0  0  0  0  0
   43.2106   33.3189   46.0501 H   0  0  0  0  0  0  0  0  0  0  0  0
  1 12  1  0
  2  1  2  0
  3  2  1  0
  4  3  2  0
  4  5  1  0
  5  1  1  0
  6  4  1  0
  7  6  1  0
  8  7  1  0
  8  6  1  0
  9 10  2  0
  9 11  1  0
 11  8  1  0
 12 13  1  0
 13 15  1  0
 14 13  2  0
 15 20  1  0
 16 15  2  0
 16 17  1  0
 17 18  2  0
 19 18  1  0
 20 19  2  0
  2 21  1  0
  3 22  1  0
  6 23  1  6
  7 24  1  0
  7 25  1  0
  8 26  1  1
  9 27  1  0
 11 28  1  0
 16 29  1  0
 17 30  1  0
 31 32  1  0
 32 33  1  0
 33 34  1  0
 32 35  1  0
 35 36  1  0
 31 37  1  0
 31 38  1  0
 32 39  1  0
 33 40  1  0
 33 41  1  0
 35 42  1  0
 35 43  1  0
 19 31  1  0
M  ISO  8  21  14  22  14  23  13  24  13  25  13  26  13  27   6  29  14
M  CHG  1  32   1
M  ISO  3  30  14  34   8  36   8
M  END
>  <DihAtoms>  (1) 
17,18,30,31

>  <DihDeg>  (1) 
-89.99948458864513

$$$$
