REMARK  Name = 
REMARK  6 active torsions:
REMARK  status: ('A' for Active; 'I' for Inactive)
REMARK    1  A    between atoms: C_1  and  C_4
REMARK    2  A    between atoms: C_1  and  C_11
REMARK    3  A    between atoms: C_12  and  C_33
REMARK    4  A    between atoms: C_33  and  N_34
REMARK    5  A    between atoms: N_34  and  C_35
REMARK    6  A    between atoms: N_34  and  C_37
REMARK                            x       y       z     vdW  Elec       q    Type
REMARK                         _______ _______ _______ _____ _____    ______ ____
ROOT
ATOM      1  C   UNL     1      48.083  34.571  41.731  0.00  0.00    +0.000 C 
ATOM      2  C   UNL     1      48.889  35.830  41.412  0.00  0.00    +0.000 C 
ATOM      3  C   UNL     1      49.496  34.672  42.078  0.00  0.00    +0.000 C 
ATOM      4  H   UNL     1      48.627  36.700  42.046  0.00  0.00    +0.000 HD
ATOM      5  H   UNL     1      49.054  36.097  40.362  0.00  0.00    +0.000 HD
ATOM      6  H   UNL     1      50.285  34.126  41.484  0.00  0.00    +0.000 HD
ATOM      7  H   UNL     1      49.836  34.833  43.111  0.00  0.00    +0.000 HD
ENDROOT
BRANCH   1   8
ATOM      8  C   UNL     1      47.686  33.782  40.516  0.00  0.00    +0.000 C 
ATOM      9  C   UNL     1      48.165  34.362  39.203  0.00  0.00    +0.000 C 
ATOM     10  C   UNL     1      47.766  33.348  38.136  0.00  0.00    +0.000 C 
ATOM     11  O   UNL     1      46.386  33.433  37.978  0.00  0.00    +0.000 OA
ATOM     12  C   UNL     1      45.884  32.828  39.156  0.00  0.00    +0.000 C 
ATOM     13  C   UNL     1      46.163  33.760  40.333  0.00  0.00    +0.000 C 
ATOM     14  H   UNL     1      48.067  32.757  40.643  0.00  0.00    +0.000 HD
ATOM     15  H   UNL     1      47.678  35.304  38.956  0.00  0.00    +0.000 HD
ATOM     16  H   UNL     1      49.280  34.405  39.172  0.00  0.00    +0.000 HD
ATOM     17  H   UNL     1      48.318  33.496  37.194  0.00  0.00    +0.000 HD
ATOM     18  H   UNL     1      48.051  32.347  38.545  0.00  0.00    +0.000 HD
ATOM     19  H   UNL     1      46.440  31.887  39.371  0.00  0.00    +0.000 HD
ATOM     20  H   UNL     1      44.802  32.616  39.059  0.00  0.00    +0.000 HD
ATOM     21  H   UNL     1      45.628  33.431  41.223  0.00  0.00    +0.000 HD
ATOM     22  H   UNL     1      45.900  34.774  39.978  0.00  0.00    +0.000 HD
ENDBRANCH   1   8
BRANCH   1  24
ATOM     23  C   UNL     1      46.128  35.726  42.776  0.00  0.00    +0.000 A 
ATOM     24  C   UNL     1      47.054  34.686  42.812  0.00  0.00    +0.000 A 
ATOM     25  C   UNL     1      46.979  33.783  43.895  0.00  0.00    +0.000 A 
ATOM     26  N   UNL     1      46.026  33.970  44.833  0.00  0.00    +0.000 NA
ATOM     27  C   UNL     1      45.164  34.992  44.741  0.00  0.00    +0.000 A 
ATOM     28  N   UNL     1      45.192  35.870  43.738  0.00  0.00    +0.000 NA
ATOM     29  N   UNL     1      44.139  35.228  45.704  0.00  0.00    +0.000 N 
ATOM     30  H   UNL     1      46.209  36.401  41.933  0.00  0.00    +0.000 HD
ATOM     31  H   UNL     1      44.290  35.604  46.661  0.00  0.00    +0.000 HD
ATOM     32  H   UNL     1      43.110  35.042  45.541  0.00  0.00    +0.000 HD
BRANCH  25  33
ATOM     33  C   UNL     1      47.876  32.633  44.026  0.00  0.00    +0.000 C 
BRANCH  33  34
ATOM     34  N   UNL     1      47.290  31.335  43.947  0.00  0.00    +0.000 N 
ATOM     35  H   UNL     1      47.282  30.952  42.975  0.00  0.00    +0.000 HD
BRANCH  34  36
ATOM     36  C   UNL     1      48.184  30.410  44.673  0.00  0.00    +0.000 C 
ATOM     37  H   UNL     1      47.999  29.362  44.399  0.00  0.00    +0.000 HD
ENDBRANCH  34  36
BRANCH  34  38
ATOM     38  C   UNL     1      45.991  31.159  44.495  0.00  0.00    +0.000 C 
ATOM     39  H   UNL     1      45.904  30.066  44.786  0.00  0.00    +0.000 HD
ENDBRANCH  34  38
ENDBRANCH  33  34
ENDBRANCH  25  33
ENDBRANCH   1  24
TORSDOF 6
