REMARK  Name = 
REMARK  7 active torsions:
REMARK  status: ('A' for Active; 'I' for Inactive)
REMARK    1  A    between atoms: C_1  and  C_2
REMARK    2  A    between atoms: C_1  and  C_9
REMARK    3  A    between atoms: C_8  and  C_11
REMARK    4  A    between atoms: C_14  and  C_27
REMARK    5  A    between atoms: C_27  and  N_28
REMARK    6  A    between atoms: N_28  and  C_29
REMARK    7  A    between atoms: N_28  and  C_31
REMARK                            x       y       z     vdW  Elec       q    Type
REMARK                         _______ _______ _______ _____ _____    ______ ____
ROOT
ATOM      1  C   UNL     1      43.604  35.477  41.404  0.00  0.00    +0.000 C 
ATOM      2  C   UNL     1      42.551  34.957  40.821  0.00  0.00    +0.000 C 
ENDROOT
BRANCH   1   4
ATOM      3  C   UNL     1      44.290  35.889  43.752  0.00  0.00    +0.000 A 
ATOM      4  C   UNL     1      44.192  35.034  42.649  0.00  0.00    +0.000 A 
ATOM      5  C   UNL     1      44.679  33.749  42.792  0.00  0.00    +0.000 A 
ATOM      6  N   UNL     1      45.226  33.377  43.988  0.00  0.00    +0.000 NA
ATOM      7  C   UNL     1      45.307  34.224  45.035  0.00  0.00    +0.000 A 
ATOM      8  N   UNL     1      44.840  35.467  44.906  0.00  0.00    +0.000 NA
ATOM      9  H   UNL     1      43.896  36.899  43.605  0.00  0.00    +0.000 HD
ATOM     10  H   UNL     1      44.628  33.042  41.967  0.00  0.00    +0.000 HD
BRANCH   7  11
ATOM     11  C   UNL     1      45.901  33.821  46.336  0.00  0.00    +0.000 C 
BRANCH  11  12
ATOM     12  N   UNL     1      45.742  32.413  46.627  0.00  0.00    +0.000 N 
ATOM     13  H   UNL     1      45.843  32.310  47.672  0.00  0.00    +0.000 HD
BRANCH  12  14
ATOM     14  C   UNL     1      44.473  31.868  46.244  0.00  0.00    +0.000 C 
ATOM     15  H   UNL     1      44.529  31.436  45.226  0.00  0.00    +0.000 HD
ENDBRANCH  12  14
BRANCH  12  16
ATOM     16  C   UNL     1      46.863  31.695  46.051  0.00  0.00    +0.000 C 
ATOM     17  H   UNL     1      46.510  30.710  45.667  0.00  0.00    +0.000 HD
ENDBRANCH  12  16
ENDBRANCH  11  12
ENDBRANCH   7  11
ENDBRANCH   1   4
BRANCH   2  18
ATOM     18  C   UNL     1      41.982  35.447  39.540  0.00  0.00    +0.000 C 
ATOM     19  H   UNL     1      42.676  35.204  38.718  0.00  0.00    +0.000 HD
ATOM     20  H   UNL     1      41.788  36.549  39.641  0.00  0.00    +0.000 HD
BRANCH  18  21
ATOM     21  C   UNL     1      40.651  34.824  39.262  0.00  0.00    +0.000 A 
ATOM     22  C   UNL     1      40.266  34.645  37.941  0.00  0.00    +0.000 A 
ATOM     23  C   UNL     1      39.034  34.069  37.662  0.00  0.00    +0.000 A 
ATOM     24  C   UNL     1      38.185  33.671  38.694  0.00  0.00    +0.000 A 
ATOM     25  C   UNL     1      38.569  33.849  40.005  0.00  0.00    +0.000 A 
ATOM     26  C   UNL     1      39.799  34.425  40.276  0.00  0.00    +0.000 A 
ATOM     27  H   UNL     1      40.947  34.964  37.137  0.00  0.00    +0.000 HD
ATOM     28  H   UNL     1      38.803  33.961  36.611  0.00  0.00    +0.000 HD
ATOM     29  H   UNL     1      37.257  33.236  38.347  0.00  0.00    +0.000 HD
ATOM     30  H   UNL     1      37.878  33.526  40.773  0.00  0.00    +0.000 HD
ATOM     31  H   UNL     1      40.084  34.558  41.309  0.00  0.00    +0.000 HD
ENDBRANCH  18  21
ENDBRANCH   2  18
TORSDOF 7
