
 OpenBabel03242518123D

 29 30  0  0  0  0  0  0  0  0999 V2000
   49.2260   34.4390   42.3150 C   0  0  0  0  0  0  0  0  0  0  0  0
   50.1500   35.0430   42.4440 H   0  0  0  0  0  0  0  0  0  0  0  0
   48.8780   34.1900   43.3440 H   0  0  0  0  0  0  0  0  0  0  0  0
   49.5380   33.2750   41.5490 C   0  0  0  0  0  0  0  0  0  0  0  0
   49.1230   32.6880   40.3070 C   0  0  0  0  0  0  0  0  0  0  0  0
   49.6950   31.5170   39.9050 C   0  0  0  0  0  0  0  0  0  0  0  0
   50.7030   30.9220   40.7660 C   0  0  0  0  0  0  0  0  0  0  0  0
   50.8340   32.0550   42.1700 S   0  0  0  0  0  0  0  0  0  0  0  0
   48.3700   33.2450   39.7860 H   0  0  0  0  0  0  0  0  0  0  0  0
   49.4120   31.0450   38.9800 H   0  0  0  0  0  0  0  0  0  0  0  0
   51.4030   29.7270   40.5270 C   0  0  0  0  0  2  0  0  0  0  0  0
   52.5510   29.9250   39.7080 N   0  0  0  0  0  4  0  0  0  0  0  0
   53.2950   29.2360   39.9650 H   0  0  0  0  0  0  0  0  0  0  0  0
   53.0830   31.2680   39.7290 C   0  0  0  0  0  2  0  0  0  0  0  0
   53.7750   31.3810   40.5880 H   0  0  0  0  0  0  0  0  0  0  0  0
   52.2260   29.6090   38.3150 C   0  0  0  0  0  2  0  0  0  0  0  0
   51.8260   28.5600   38.2870 H   0  0  0  0  0  0  0  0  0  0  0  0
   48.1930   35.3600   41.7070 C   0  0  0  0  0  0  0  0  0  0  0  0
   48.3120   36.3890   42.1330 H   0  0  0  0  0  0  0  0  0  0  0  0
   48.3680   35.4210   40.6380 H   0  0  0  0  0  0  0  0  0  0  0  0
   46.8670   34.8530   42.0290 C   0  0  0  0  0  0  0  0  0  0  0  0
   46.4190   34.7190   43.3300 C   0  0  0  0  0  0  0  0  0  0  0  0
   45.1350   34.2240   43.5520 C   0  0  0  0  0  0  0  0  0  0  0  0
   44.3910   33.8980   42.4710 N   0  0  0  0  0  0  0  0  0  0  0  0
   44.8330   34.0300   41.2200 C   0  0  0  0  0  0  0  0  0  0  0  0
   46.0470   34.4990   41.0310 N   0  0  0  0  0  0  0  0  0  0  0  0
   47.0570   34.9970   44.1660 H   0  0  0  0  0  0  0  0  0  0  0  0
   44.7580   34.1090   44.5760 H   0  0  0  0  0  0  0  0  0  0  0  0
   44.2080   33.7590   40.3800 H   0  0  0  0  0  0  0  0  0  0  0  0
  1  2  1  0  0  0  0
  1  3  1  0  0  0  0
  4  8  1  0  0  0  0
  4  1  1  0  0  0  0
  5  4  2  0  0  0  0
  6  5  1  0  0  0  0
  6  7  2  0  0  0  0
  7  8  1  0  0  0  0
  9  5  1  0  0  0  0
 10  6  1  0  0  0  0
 11  7  1  0  0  0  0
 12 14  1  0  0  0  0
 12 13  1  0  0  0  0
 12 11  1  0  0  0  0
 14 15  1  0  0  0  0
 16 12  1  0  0  0  0
 17 16  1  0  0  0  0
 18 21  1  0  0  0  0
 18 19  1  0  0  0  0
 18  1  1  0  0  0  0
 20 18  1  0  0  0  0
 21 22  1  0  0  0  0
 22 23  2  0  0  0  0
 22 27  1  0  0  0  0
 23 28  1  0  0  0  0
 24 23  1  0  0  0  0
 25 24  2  0  0  0  0
 26 25  1  0  0  0  0
 26 21  2  0  0  0  0
 29 25  1  0  0  0  0
M  END
>  <minimizedAffinity>
-3.37657976

>  <minimizedRMSD>
0.48644653

$$$$
