
 OpenBabel03252502073D

 46 49  0  0  0  0  0  0  0  0999 V2000
   47.3270   32.1390   47.8720 C   0  0  0  0  0  0  0  0  0  0  0  0
   46.7990   30.8420   47.8840 C   0  0  0  0  0  0  0  0  0  0  0  0
   45.8850   30.5450   46.9310 C   0  0  0  0  0  0  0  0  0  0  0  0
   45.5270   31.4710   46.0280 N   0  0  0  0  0  0  0  0  0  0  0  0
   46.0100   32.6930   45.9940 C   0  0  0  0  0  0  0  0  0  0  0  0
   46.9230   33.0150   46.9400 N   0  0  0  0  0  0  0  0  0  0  0  0
   45.3030   29.2980   46.8900 N   0  0  0  0  0  0  0  0  0  0  0  0
   44.1620   28.9230   46.0050 C   0  0  0  0  0  0  0  0  0  0  0  0
   44.0590   27.4290   46.0800 C   0  0  0  0  0  0  0  0  0  0  0  0
   44.6120   27.1220   47.4290 C   0  0  0  0  0  0  0  0  0  0  0  0
   45.6600   28.1540   47.6760 C   0  0  0  0  0  0  0  0  0  0  0  0
   48.0690   32.4310   48.6270 H   0  0  0  0  0  0  0  0  0  0  0  0
   44.3280   29.2260   44.9730 H   0  0  0  0  0  0  0  0  0  0  0  0
   43.2730   29.4340   46.4660 H   0  0  0  0  0  0  0  0  0  0  0  0
   42.9870   27.0860   46.0570 H   0  0  0  0  0  0  0  0  0  0  0  0
   44.6680   26.9470   45.3120 H   0  0  0  0  0  0  0  0  0  0  0  0
   43.7890   27.1130   48.1930 H   0  0  0  0  0  0  0  0  0  0  0  0
   45.0540   26.1000   47.4730 H   0  0  0  0  0  0  0  0  0  0  0  0
   45.5460   28.3920   48.7550 H   0  0  0  0  0  0  0  0  0  0  0  0
   46.6260   27.7210   47.3920 H   0  0  0  0  0  0  0  0  0  0  0  0
   45.7740   33.8330   45.0750 C   0  0  0  0  0  0  0  0  0  0  0  0
   44.8520   34.7830   45.2860 N   0  0  0  0  0  0  0  0  0  0  0  0
   44.6300   35.8170   44.4790 C   0  0  0  0  0  0  0  0  0  0  0  0
   45.3590   35.9670   43.3490 N   0  0  0  0  0  0  0  0  0  0  0  0
   46.3010   35.0920   43.0300 C   0  0  0  0  0  0  0  0  0  0  0  0
   47.0600   35.2380   41.8780 C   0  0  0  0  0  0  0  0  0  0  0  0
   48.0340   34.3520   41.5450 C   0  0  0  0  0  0  0  0  0  0  0  0
   48.2490   33.2910   42.3910 C   0  0  0  0  0  0  0  0  0  0  0  0
   47.4770   33.1670   43.5350 C   0  0  0  0  0  0  0  0  0  0  0  0
   46.4930   34.0350   43.9020 C   0  0  0  0  0  0  0  0  0  0  0  0
   43.8490   36.5340   44.7530 H   0  0  0  0  0  0  0  0  0  0  0  0
   46.8710   36.0820   41.2290 H   0  0  0  0  0  0  0  0  0  0  0  0
   48.6110   34.4900   40.6410 H   0  0  0  0  0  0  0  0  0  0  0  0
   47.8280   32.0090   44.2870 N   0  0  0  0  0  0  0  0  0  0  0  0
   47.2360   31.2670   43.8470 H   0  0  0  0  0  0  0  0  0  0  0  0
   48.4840   31.8170   45.0720 H   0  0  0  0  0  0  0  0  0  0  0  0
   49.3240   32.3400   42.0050 C   0  0  0  0  0  2  0  0  0  0  0  0
   49.1250   31.7740   40.6980 N   0  0  0  0  0  4  0  0  0  0  0  0
   48.5620   32.4320   40.1300 H   0  0  0  0  0  0  0  0  0  0  0  0
   48.5330   30.4590   40.7270 C   0  0  0  0  0  2  0  0  0  0  0  0
   48.2530   30.2020   39.6840 H   0  0  0  0  0  0  0  0  0  0  0  0
   50.4020   31.6100   40.0110 C   0  0  0  0  0  2  0  0  0  0  0  0
   50.8900   30.6800   40.4150 H   0  0  0  0  0  0  0  0  0  0  0  0
   47.2750   29.9720   48.8270 N   0  0  0  0  0  0  0  0  0  0  0  0
   48.0030   29.2880   48.5250 H   0  0  0  0  0  0  0  0  0  0  0  0
   46.9660   29.9430   49.8450 H   0  0  0  0  0  0  0  0  0  0  0  0
  1  2  1  0  0  0  0
  1 12  1  0  0  0  0
  2 44  1  0  0  0  0
  3  2  2  0  0  0  0
  4  3  1  0  0  0  0
  5  4  2  0  0  0  0
  5  6  1  0  0  0  0
  6  1  2  0  0  0  0
  7  3  1  0  0  0  0
  7 11  1  0  0  0  0
  8  9  1  0  0  0  0
  8 14  1  0  0  0  0
  8  7  1  0  0  0  0
  9 10  1  0  0  0  0
 10 18  1  0  0  0  0
 10 11  1  0  0  0  0
 10 17  1  0  0  0  0
 11 19  1  0  0  0  0
 13  8  1  0  0  0  0
 15  9  1  0  0  0  0
 16  9  1  0  0  0  0
 20 11  1  0  0  0  0
 21 22  1  0  0  0  0
 21  5  1  0  0  0  0
 23 31  1  0  0  0  0
 23 22  2  0  0  0  0
 24 23  1  0  0  0  0
 25 24  2  0  0  0  0
 25 30  1  0  0  0  0
 26 25  1  0  0  0  0
 27 26  2  0  0  0  0
 27 28  1  0  0  0  0
 28 29  2  0  0  0  0
 29 30  1  0  0  0  0
 29 34  1  0  0  0  0
 30 21  2  0  0  0  0
 32 26  1  0  0  0  0
 33 27  1  0  0  0  0
 34 36  1  0  0  0  0
 35 34  1  0  0  0  0
 37 28  1  0  0  0  0
 38 40  1  0  0  0  0
 38 37  1  0  0  0  0
 39 38  1  0  0  0  0
 41 40  1  0  0  0  0
 42 43  1  0  0  0  0
 42 38  1  0  0  0  0
 44 46  1  0  0  0  0
 45 44  1  0  0  0  0
M  END
>  <minimizedAffinity>
-6.32275105

>  <minimizedRMSD>
0.790116429

$$$$
