
 OpenBabel03252507523D

 29 30  0  0  1  0  0  0  0  0999 V2000
   47.1930   34.6300   42.0990 C   0  0  2  0  0  0  0  0  0  0  0  0
   46.5400   34.3060   40.7990 C   0  0  0  0  0  0  0  0  0  0  0  0
   47.7630   33.9270   39.9720 C   0  0  0  0  0  0  0  0  0  0  0  0
   48.7350   33.3020   40.9630 C   0  0  1  0  0  0  0  0  0  0  0  0
   48.0440   33.3690   42.3070 C   0  0  0  0  0  0  0  0  0  0  0  0
   47.8860   35.4830   41.9800 H   0  0  0  0  0  0  0  0  0  0  0  0
   45.8240   33.4890   40.8690 H   0  0  0  0  0  0  0  0  0  0  0  0
   46.1340   35.2420   40.3690 H   0  0  0  0  0  0  0  0  0  0  0  0
   47.3960   33.1900   39.2280 H   0  0  0  0  0  0  0  0  0  0  0  0
   48.1930   34.7970   39.4400 H   0  0  0  0  0  0  0  0  0  0  0  0
   49.6130   33.9390   41.0030 H   0  0  0  0  0  0  0  0  0  0  0  0
   48.7770   33.6260   43.0970 H   0  0  0  0  0  0  0  0  0  0  0  0
   47.3890   32.5220   42.5280 H   0  0  0  0  0  0  0  0  0  0  0  0
   44.5570   36.0000   44.4260 C   0  0  0  0  0  0  0  0  0  0  0  0
   45.3620   35.9050   43.2970 C   0  0  0  0  0  0  0  0  0  0  0  0
   46.2790   34.8620   43.2370 C   0  0  0  0  0  0  0  0  0  0  0  0
   46.3360   33.9930   44.2900 N   0  0  0  0  0  0  0  0  0  0  0  0
   45.5460   34.1030   45.3750 C   0  0  0  0  0  0  0  0  0  0  0  0
   44.6560   35.1050   45.4480 N   0  0  0  0  0  0  0  0  0  0  0  0
   43.8260   36.8060   44.5090 H   0  0  0  0  0  0  0  0  0  0  0  0
   45.3080   36.5890   42.4830 H   0  0  0  0  0  0  0  0  0  0  0  0
   45.6280   33.3930   46.1820 H   0  0  0  0  0  0  0  0  0  0  0  0
   48.9510   31.8880   40.5490 C   0  0  0  0  0  2  0  0  0  0  0  0
   50.3050   31.4880   40.3510 N   0  0  0  0  0  4  0  0  0  0  0  0
   50.3490   30.4650   40.6420 H   0  0  0  0  0  0  0  0  0  0  0  0
   50.7450   31.5270   38.9860 C   0  0  0  0  0  2  0  0  0  0  0  0
   51.6230   32.2270   38.9160 H   0  0  0  0  0  0  0  0  0  0  0  0
   51.2420   32.1420   41.2620 C   0  0  0  0  0  2  0  0  0  0  0  0
   52.1190   31.4500   41.4200 H   0  0  0  0  0  0  0  0  0  0  0  0
  1  6  1  6  0  0  0
  1  5  1  0  0  0  0
  1 16  1  0  0  0  0
  2  7  1  0  0  0  0
  2  1  1  0  0  0  0
  3  2  1  0  0  0  0
  3  4  1  0  0  0  0
  4 11  1  1  0  0  0
  4  5  1  0  0  0  0
  5 13  1  0  0  0  0
  5 12  1  0  0  0  0
  8  2  1  0  0  0  0
  9  3  1  0  0  0  0
 10  3  1  0  0  0  0
 14 20  1  0  0  0  0
 14 19  1  0  0  0  0
 15 14  2  0  0  0  0
 16 15  1  0  0  0  0
 16 17  2  0  0  0  0
 17 18  1  0  0  0  0
 18 19  2  0  0  0  0
 18 22  1  0  0  0  0
 21 15  1  0  0  0  0
 23  4  1  0  0  0  0
 24 23  1  0  0  0  0
 24 25  1  0  0  0  0
 24 28  1  0  0  0  0
 26 24  1  0  0  0  0
 27 26  1  0  0  0  0
 28 29  1  0  0  0  0
M  END
>  <minimizedAffinity>
-4.27880716

>  <minimizedRMSD>
1.58452499

$$$$
