
 OpenBabel03242510193D

 34 36  0  0  1  0  0  0  0  0999 V2000
   48.2250   33.3910   43.4670 N   0  0  0  0  0  0  0  0  0  0  0  0
   49.3800   33.4860   42.7130 C   0  0  0  0  0  0  0  0  0  0  0  0
   50.5320   33.0120   42.9130 O   0  0  0  0  0  0  0  0  0  0  0  0
   47.6810   34.2940   43.5860 H   0  0  0  0  0  0  0  0  0  0  0  0
   46.3370   32.1560   44.4930 C   0  0  1  0  0  0  0  0  0  0  0  0
   46.6330   31.4810   43.2830 C   0  0  0  0  0  0  0  0  0  0  0  0
   47.7640   32.1760   44.0600 C   0  0  1  0  0  0  0  0  0  0  0  0
   46.0620   31.6350   45.4230 H   0  0  0  0  0  0  0  0  0  0  0  0
   46.5040   31.8610   42.2520 H   0  0  0  0  0  0  0  0  0  0  0  0
   46.6250   30.3540   43.2800 H   0  0  0  0  0  0  0  0  0  0  0  0
   48.5020   31.3990   44.3530 H   0  0  0  0  0  0  0  0  0  0  0  0
   45.1140   34.0170   43.1720 C   0  0  0  0  0  0  0  0  0  0  0  0
   45.5760   33.4810   44.4020 C   0  0  0  0  0  0  0  0  0  0  0  0
   45.3390   34.2020   45.5490 C   0  0  0  0  0  0  0  0  0  0  0  0
   44.6820   35.3830   45.4620 N   0  0  0  0  0  0  0  0  0  0  0  0
   44.2430   35.8890   44.2810 C   0  0  0  0  0  0  0  0  0  0  0  0
   44.4720   35.1770   43.1000 N   0  0  0  0  0  0  0  0  0  0  0  0
   45.2980   33.4570   42.2920 H   0  0  0  0  0  0  0  0  0  0  0  0
   45.6740   33.8240   46.4950 H   0  0  0  0  0  0  0  0  0  0  0  0
   43.7270   36.8180   44.2110 H   0  0  0  0  0  0  0  0  0  0  0  0
   49.3710   34.2590   41.4020 C   0  0  2  0  0  0  0  0  0  0  0  0
   48.8520   35.7300   41.4710 C   0  0  0  0  0  0  0  0  0  0  0  0
   48.1200   34.6360   40.7490 C   0  0  1  0  0  0  0  0  0  0  0  0
   50.3260   34.2890   40.8450 H   0  0  0  0  0  0  0  0  0  0  0  0
   49.3170   36.4930   40.8690 H   0  0  0  0  0  0  0  0  0  0  0  0
   48.5660   36.0680   42.4820 H   0  0  0  0  0  0  0  0  0  0  0  0
   47.1240   34.5400   41.2230 H   0  0  0  0  0  0  0  0  0  0  0  0
   48.0240   34.5400   39.2680 C   0  0  0  0  0  0  0  0  0  0  0  0
   48.8230   33.5710   38.6060 N   0  0  0  0  0  0  0  0  0  0  0  0
   49.8160   33.5420   38.8430 H   0  0  0  0  0  0  0  0  0  0  0  0
   48.7950   33.9030   37.1650 C   0  0  0  0  0  0  0  0  0  0  0  0
   47.7460   33.9250   36.8070 H   0  0  0  0  0  0  0  0  0  0  0  0
   48.2190   32.2260   38.6330 C   0  0  0  0  0  0  0  0  0  0  0  0
   47.3220   32.2900   37.9500 H   0  0  0  0  0  0  0  0  0  0  0  0
  1  4  1  0  0  0  0
  1  7  1  0  0  0  0
  2  3  2  0  0  0  0
  2  1  1  0  0  0  0
  5  8  1  1  0  0  0
  6  7  1  0  0  0  0
  6  5  1  0  0  0  0
  7 11  1  1  0  0  0
  7  5  1  0  0  0  0
  9  6  1  0  0  0  0
 10  6  1  0  0  0  0
 12 13  1  0  0  0  0
 13  5  1  0  0  0  0
 13 14  2  0  0  0  0
 14 19  1  0  0  0  0
 15 14  1  0  0  0  0
 16 15  2  0  0  0  0
 17 12  2  0  0  0  0
 17 16  1  0  0  0  0
 18 12  1  0  0  0  0
 20 16  1  0  0  0  0
 21 24  1  6  0  0  0
 21 22  1  0  0  0  0
 21  2  1  0  0  0  0
 22 26  1  0  0  0  0
 23 27  1  1  0  0  0
 23 21  1  0  0  0  0
 23 22  1  0  0  0  0
 25 22  1  0  0  0  0
 28 23  1  0  0  0  0
 29 33  1  0  0  0  0
 29 30  1  0  0  0  0
 29 28  1  0  0  0  0
 31 29  1  0  0  0  0
 32 31  1  0  0  0  0
 34 33  1  0  0  0  0
M  END
>  <minimizedAffinity>
-4.6467557

>  <minimizedRMSD>
0.752786219

$$$$
