
     RDKit          3D

 41 42  0  0  0  0  0  0  0  0999 V2000
   47.3073   32.6958   47.5106 O   0  0  0  0  0  0  0  0  0  0  0  0
   45.9984   32.3261   46.8695 P   0  0  2  0  0  0  0  0  0  0  0  0
   46.3015   31.2114   45.6301 O   0  0  0  0  0  0  0  0  0  0  0  0
   45.3342   33.7755   46.2520 O   0  0  0  0  0  0  0  0  0  0  0  0
   45.2201   35.8309   43.3278 C   0  0  0  0  0  0  0  0  0  0  0  0
   46.2672   35.3263   42.5074 C   0  0  0  0  0  0  0  0  0  0  0  0
   47.0074   34.2468   43.0175 C   0  0  0  0  0  0  0  0  0  0  0  0
   46.6869   33.7616   44.2329 N   0  0  0  0  0  0  0  0  0  0  0  0
   45.6850   34.2675   44.9825 C   0  0  0  0  0  0  0  0  0  0  0  0
   44.9561   35.3022   44.5233 N   0  0  0  0  0  0  0  0  0  0  0  0
   44.4986   36.8845   42.8291 O   0  0  0  0  0  0  0  0  0  0  0  0
   45.0267   31.6227   48.0204 O   0  0  0  0  0  0  0  0  0  0  0  0
   46.7819   30.0043   48.0752 C   0  0  2  0  0  0  0  0  0  0  0  0
   45.3304   30.2868   48.1501 C   0  0  2  0  0  0  0  0  0  0  0  0
   44.7485   29.4560   47.0655 C   0  0  0  0  0  0  0  0  0  0  0  0
   45.5540   28.3459   46.9087 O   0  0  0  0  0  0  0  0  0  0  0  0
   46.6799   28.5149   47.6460 C   0  0  0  0  0  0  0  0  0  0  0  0
   47.4638   30.1290   49.2475 O   0  0  0  0  0  0  0  0  0  0  0  0
   45.8799   31.4833   44.7958 H   0  0  0  0  0  0  0  0  0  0  0  0
   46.4971   35.7384   41.5389 H   0  0  0  0  0  0  0  0  0  0  0  0
   47.8231   33.8029   42.4553 H   0  0  0  0  0  0  0  0  0  0  0  0
   44.9369   37.7747   42.6867 H   0  0  0  0  0  0  0  0  0  0  0  0
   47.4535   30.3765   47.3581 H   0  0  0  0  0  0  0  0  0  0  0  0
   45.0159   29.8755   49.1475 H   0  0  0  0  0  0  0  0  0  0  0  0
   43.7836   29.0142   47.4676 H   0  0  0  0  0  0  0  0  0  0  0  0
   44.4055   29.9508   46.1581 H   0  0  0  0  0  0  0  0  0  0  0  0
   46.5928   27.9868   48.6371 H   0  0  0  0  0  0  0  0  0  0  0  0
   47.5858   28.1546   47.1673 H   0  0  0  0  0  0  0  0  0  0  0  0
   48.7031   30.5463   49.3765 C   0  0  0  0  0  0  0  0  0  0  0  0
   49.5336   30.2376   48.1929 N   0  0  0  0  0  4  0  0  0  0  0  0
   50.8426   30.8938   48.3483 C   0  0  0  0  0  0  0  0  0  0  0  0
   50.6315   31.7958   48.9910 H   0  0  0  0  0  0  0  0  0  0  0  0
   49.8200   28.8311   48.0809 C   0  0  0  0  0  0  0  0  0  0  0  0
   49.0744   28.2439   47.5462 H   0  0  0  0  0  0  0  0  0  0  0  0
   49.1905   29.8901   50.1782 H   0  0  0  0  0  0  0  0  0  0  0  0
   48.9859   31.5447   49.6572 H   0  0  0  0  0  0  0  0  0  0  0  0
   49.1227   30.5978   47.3278 H   0  0  0  0  0  0  0  0  0  0  0  0
   51.2302   31.2863   47.3993 H   0  0  0  0  0  0  0  0  0  0  0  0
   51.5194   30.2588   48.9245 H   0  0  0  0  0  0  0  0  0  0  0  0
   49.9990   28.3673   49.0857 H   0  0  0  0  0  0  0  0  0  0  0  0
   50.8029   28.7003   47.5534 H   0  0  0  0  0  0  0  0  0  0  0  0
  2  1  2  0
  2 12  1  1
  3  2  1  0
  4  2  1  0
  5 10  2  0
  6  7  2  0
  6  5  1  0
  7  8  1  0
  8  9  2  0
  9  4  1  0
 10  9  1  0
 11  5  1  0
 13 14  1  0
 13 18  1  0
 14 12  1  0
 15 14  1  0
 16 15  1  0
 16 17  1  0
 17 13  1  0
  3 19  1  0
  6 20  1  0
  7 21  1  0
 11 22  1  0
 13 23  1  6
 14 24  1  1
 15 25  1  0
 15 26  1  0
 17 27  1  0
 17 28  1  0
 29 30  1  0
 30 31  1  0
 31 32  1  0
 30 33  1  0
 33 34  1  0
 29 35  1  0
 29 36  1  0
 30 37  1  0
 31 38  1  0
 31 39  1  0
 33 40  1  0
 33 41  1  0
 18 29  1  0
M  ISO  8  19   3  20  14  21  14  22   3  23  13  24  13  25  13  26  13
M  CHG  1  30   1
M  ISO  4  27  13  28  13  32   8  34   8
M  END
>  <DihAtoms>  (1) 
12,17,28,29

>  <DihDeg>  (1) 
-59.28682040829194

$$$$
