
 OpenBabel03252507513D

 29 30  0  0  1  0  0  0  0  0999 V2000
   47.2710   34.5970   42.0860 C   0  0  2  0  0  0  0  0  0  0  0  0
   46.6390   34.3190   40.7650 C   0  0  0  0  0  0  0  0  0  0  0  0
   47.8680   33.9190   39.9580 C   0  0  0  0  0  0  0  0  0  0  0  0
   48.7970   33.2430   40.9570 C   0  0  1  0  0  0  0  0  0  0  0  0
   48.0780   33.3050   42.2870 C   0  0  0  0  0  0  0  0  0  0  0  0
   47.9940   35.4290   42.0000 H   0  0  0  0  0  0  0  0  0  0  0  0
   45.8960   33.5240   40.8030 H   0  0  0  0  0  0  0  0  0  0  0  0
   46.2720   35.2760   40.3460 H   0  0  0  0  0  0  0  0  0  0  0  0
   47.4950   33.2090   39.1910 H   0  0  0  0  0  0  0  0  0  0  0  0
   48.3360   34.7850   39.4540 H   0  0  0  0  0  0  0  0  0  0  0  0
   49.6930   33.8510   41.0290 H   0  0  0  0  0  0  0  0  0  0  0  0
   48.8000   33.5230   43.0970 H   0  0  0  0  0  0  0  0  0  0  0  0
   47.3920   32.4750   42.4750 H   0  0  0  0  0  0  0  0  0  0  0  0
   44.5920   35.9730   44.3590 C   0  0  0  0  0  0  0  0  0  0  0  0
   45.4140   35.8700   43.2430 C   0  0  0  0  0  0  0  0  0  0  0  0
   46.3400   34.8350   43.2080 C   0  0  0  0  0  0  0  0  0  0  0  0
   46.3890   33.9790   44.2720 N   0  0  0  0  0  0  0  0  0  0  0  0
   45.5830   34.0960   45.3450 C   0  0  0  0  0  0  0  0  0  0  0  0
   44.6840   35.0910   45.3930 N   0  0  0  0  0  0  0  0  0  0  0  0
   43.8530   36.7730   44.4220 H   0  0  0  0  0  0  0  0  0  0  0  0
   45.3660   36.5440   42.4200 H   0  0  0  0  0  0  0  0  0  0  0  0
   45.6590   33.3960   46.1610 H   0  0  0  0  0  0  0  0  0  0  0  0
   48.9770   31.8320   40.5190 C   0  0  0  0  0  2  0  0  0  0  0  0
   50.3140   31.4240   40.2370 N   0  0  0  0  0  4  0  0  0  0  0  0
   50.3560   30.3880   40.4770 H   0  0  0  0  0  0  0  0  0  0  0  0
   50.6900   31.5210   38.8540 C   0  0  0  0  0  2  0  0  0  0  0  0
   51.5730   32.2120   38.7750 H   0  0  0  0  0  0  0  0  0  0  0  0
   51.3040   32.0240   41.1310 C   0  0  0  0  0  2  0  0  0  0  0  0
   52.1780   31.3130   41.2130 H   0  0  0  0  0  0  0  0  0  0  0  0
  1  6  1  6  0  0  0
  1  5  1  0  0  0  0
  1 16  1  0  0  0  0
  2  7  1  0  0  0  0
  2  1  1  0  0  0  0
  3  2  1  0  0  0  0
  3  4  1  0  0  0  0
  4 11  1  1  0  0  0
  4  5  1  0  0  0  0
  5 13  1  0  0  0  0
  5 12  1  0  0  0  0
  8  2  1  0  0  0  0
  9  3  1  0  0  0  0
 10  3  1  0  0  0  0
 14 20  1  0  0  0  0
 14 19  1  0  0  0  0
 15 14  2  0  0  0  0
 16 15  1  0  0  0  0
 16 17  2  0  0  0  0
 17 18  1  0  0  0  0
 18 19  2  0  0  0  0
 18 22  1  0  0  0  0
 21 15  1  0  0  0  0
 23  4  1  0  0  0  0
 24 25  1  0  0  0  0
 24 23  1  0  0  0  0
 24 28  1  0  0  0  0
 26 24  1  0  0  0  0
 27 26  1  0  0  0  0
 28 29  1  0  0  0  0
M  END
>  <minimizedAffinity>
-4.24424744

>  <minimizedRMSD>
1.63674784

$$$$
