
 OpenBabel03252507453D

 35 36  0  0  0  0  0  0  0  0999 V2000
   47.6050   34.5720   40.8190 C   0  0  0  0  0  0  0  0  0  0  0  0
   47.9520   35.4590   40.2230 H   0  0  0  0  0  0  0  0  0  0  0  0
   46.9310   34.0030   40.1600 H   0  0  0  0  0  0  0  0  0  0  0  0
   48.8330   33.8080   41.1330 C   0  0  0  0  0  0  0  0  0  0  0  0
   49.0990   32.6950   40.3430 C   0  0  0  0  0  0  0  0  0  0  0  0
   50.2290   31.9230   40.5710 C   0  0  0  0  0  0  0  0  0  0  0  0
   51.0520   32.3070   41.5910 N   0  0  0  0  0  0  0  0  0  0  0  0
   50.7580   33.4010   42.3410 C   0  0  0  0  0  0  0  0  0  0  0  0
   49.6740   34.1240   42.1090 N   0  0  0  0  0  0  0  0  0  0  0  0
   50.4600   31.0530   39.9720 H   0  0  0  0  0  0  0  0  0  0  0  0
   51.3900   33.7240   43.1510 H   0  0  0  0  0  0  0  0  0  0  0  0
   47.9760   32.2380   39.0110 S   0  0  0  0  0  0  0  0  0  0  0  0
   48.6010   33.0710   37.5260 C   0  0  0  0  0  2  0  0  0  0  0  0
   48.7620   32.0940   36.4820 N   0  0  0  0  0  4  0  0  0  0  0  0
   48.0150   31.3650   36.6500 H   0  0  0  0  0  0  0  0  0  0  0  0
   50.0330   31.4430   36.6390 C   0  0  0  0  0  2  0  0  0  0  0  0
   50.3360   31.3820   37.6830 H   0  0  0  0  0  0  0  0  0  0  0  0
   48.6110   32.6700   35.1600 C   0  0  0  0  0  2  0  0  0  0  0  0
   47.5810   32.5890   34.7690 H   0  0  0  0  0  0  0  0  0  0  0  0
   46.8210   34.9520   42.0290 C   0  0  0  0  0  0  0  0  0  0  0  0
   47.1500   34.3340   42.8860 H   0  0  0  0  0  0  0  0  0  0  0  0
   47.0900   36.0020   42.2720 H   0  0  0  0  0  0  0  0  0  0  0  0
   45.3520   34.9310   41.8330 C   0  0  0  0  0  0  0  0  0  0  0  0
   44.5010   35.6160   42.7620 C   0  0  0  0  0  0  0  0  0  0  0  0
   42.8200   35.2960   42.0970 S   0  0  0  0  0  0  0  0  0  0  0  0
   43.5490   34.2790   40.6610 C   0  0  0  0  0  0  0  0  0  0  0  0
   44.6660   34.3420   40.8780 N   0  0  0  0  0  0  0  0  0  0  0  0
   44.8000   36.1740   43.6290 H   0  0  0  0  0  0  0  0  0  0  0  0
   42.7660   33.6770   39.6740 O   0  0  0  0  0  0  0  0  0  0  0  0
   40.8650   33.9060   37.8420 O   0  0  0  0  0  0  0  0  0  0  0  0
   41.8740   34.7070   38.6540 P   0  0  0  0  0  0  0  0  0  0  0  0
   41.0410   35.8090   39.6350 O   0  0  0  0  0  0  0  0  0  0  0  0
   40.1850   35.4650   39.9500 H   0  0  0  0  0  0  0  0  0  0  0  0
   42.9380   35.5620   37.6420 O   0  0  0  0  0  0  0  0  0  0  0  0
   42.9330   36.5230   37.7830 H   0  0  0  0  0  0  0  0  0  0  0  0
  1  4  1  0  0  0  0
  1 20  1  0  0  0  0
  2  1  1  0  0  0  0
  3  1  1  0  0  0  0
  4  9  1  0  0  0  0
  5  6  1  0  0  0  0
  5  4  2  0  0  0  0
  6  7  2  0  0  0  0
  7  8  1  0  0  0  0
  8 11  1  0  0  0  0
  9  8  2  0  0  0  0
 10  6  1  0  0  0  0
 12  5  1  0  0  0  0
 13 12  1  0  0  0  0
 14 16  1  0  0  0  0
 14 15  1  0  0  0  0
 14 13  1  0  0  0  0
 16 17  1  0  0  0  0
 18 14  1  0  0  0  0
 19 18  1  0  0  0  0
 20 22  1  0  0  0  0
 20 21  1  0  0  0  0
 23 20  1  0  0  0  0
 23 24  2  0  0  0  0
 24 28  1  0  0  0  0
 25 24  1  0  0  0  0
 26 27  2  0  0  0  0
 26 25  1  0  0  0  0
 27 23  1  0  0  0  0
 29 26  1  0  0  0  0
 30 31  2  0  0  0  0
 31 32  1  0  0  0  0
 31 29  1  0  0  0  0
 32 33  1  0  0  0  0
 34 35  1  0  0  0  0
 34 31  1  0  0  0  0
M  END
>  <minimizedAffinity>
-4.51240587

>  <minimizedRMSD>
0.914055169

$$$$
