REMARK  Name = 
REMARK  12 active torsions:
REMARK  status: ('A' for Active; 'I' for Inactive)
REMARK    1  A    between atoms: C_1  and  C_2
REMARK    2  A    between atoms: C_1  and  C_12
REMARK    3  A    between atoms: C_5  and  O_7
REMARK    4  A    between atoms: O_7  and  P_9
REMARK    5  A    between atoms: P_9  and  O_10
REMARK    6  A    between atoms: P_9  and  O_11
REMARK    7  A    between atoms: C_12  and  C_13
REMARK    8  A    between atoms: C_14  and  S_19
REMARK    9  A    between atoms: S_19  and  C_29
REMARK   10  A    between atoms: C_29  and  N_30
REMARK   11  A    between atoms: N_30  and  C_31
REMARK   12  A    between atoms: N_30  and  C_33
REMARK                            x       y       z     vdW  Elec       q    Type
REMARK                         _______ _______ _______ _____ _____    ______ ____
ROOT
ATOM      1  C   UNL     1      47.131  34.354  40.834  0.00  0.00    +0.000 C 
ATOM      2  H   UNL     1      47.320  35.035  39.960  0.00  0.00    +0.000 HD
ATOM      3  H   UNL     1      46.538  33.511  40.445  0.00  0.00    +0.000 HD
ENDROOT
BRANCH   1   4
ATOM      4  C   UNL     1      48.471  33.915  41.283  0.00  0.00    +0.000 A 
ATOM      5  C   UNL     1      48.935  32.703  40.785  0.00  0.00    +0.000 A 
ATOM      6  C   UNL     1      50.181  32.219  41.156  0.00  0.00    +0.000 A 
ATOM      7  N   UNL     1      50.915  32.981  42.020  0.00  0.00    +0.000 NA
ATOM      8  C   UNL     1      50.427  34.160  42.486  0.00  0.00    +0.000 A 
ATOM      9  N   UNL     1      49.235  34.605  42.120  0.00  0.00    +0.000 NA
ATOM     10  H   UNL     1      50.566  31.280  40.783  0.00  0.00    +0.000 HD
ATOM     11  H   UNL     1      50.985  34.779  43.168  0.00  0.00    +0.000 HD
BRANCH   5  12
ATOM     12  S   UNL     1      47.922  31.742  39.647  0.00  0.00    +0.000 S 
BRANCH  12  13
ATOM     13  C   UNL     1      48.367  32.309  37.983  0.00  0.00    +0.000 C 
BRANCH  13  14
ATOM     14  N   UNL     1      49.373  33.331  38.097  0.00  0.00    +0.000 N 
ATOM     15  H   UNL     1      50.251  32.839  38.419  0.00  0.00    +0.000 HD
BRANCH  14  16
ATOM     16  C   UNL     1      48.995  34.249  39.136  0.00  0.00    +0.000 C 
ATOM     17  H   UNL     1      48.425  33.761  39.927  0.00  0.00    +0.000 HD
ENDBRANCH  14  16
BRANCH  14  18
ATOM     18  C   UNL     1      49.612  34.011  36.838  0.00  0.00    +0.000 C 
ATOM     19  H   UNL     1      50.445  33.571  36.262  0.00  0.00    +0.000 HD
ENDBRANCH  14  18
ENDBRANCH  13  14
ENDBRANCH  12  13
ENDBRANCH   5  12
ENDBRANCH   1   4
BRANCH   1  20
ATOM     20  C   UNL     1      46.328  34.997  41.913  0.00  0.00    +0.000 C 
ATOM     21  H   UNL     1      46.633  34.582  42.892  0.00  0.00    +0.000 HD
ATOM     22  H   UNL     1      46.604  36.073  41.923  0.00  0.00    +0.000 HD
BRANCH  20  23
ATOM     23  C   UNL     1      44.863  34.943  41.695  0.00  0.00    +0.000 A 
ATOM     24  C   UNL     1      43.975  35.439  42.706  0.00  0.00    +0.000 A 
ATOM     25  S   UNL     1      42.315  35.153  41.976  0.00  0.00    +0.000 S 
ATOM     26  C   UNL     1      43.100  34.404  40.410  0.00  0.00    +0.000 A 
ATOM     27  N   UNL     1      44.211  34.481  40.651  0.00  0.00    +0.000 NA
ATOM     28  H   UNL     1      44.242  35.868  43.653  0.00  0.00    +0.000 HD
BRANCH  26  29
ATOM     29  O   UNL     1      42.352  33.929  39.331  0.00  0.00    +0.000 OA
BRANCH  29  31
ATOM     30  O   UNL     1      40.403  34.395  37.598  0.00  0.00    +0.000 OA
ATOM     31  P   UNL     1      41.489  35.077  38.419  0.00  0.00    +0.000 P 
BRANCH  31  32
ATOM     32  O   UNL     1      40.762  36.157  39.504  0.00  0.00    +0.000 OA
ATOM     33  H   UNL     1      39.899  35.843  39.830  0.00  0.00    +0.000 HD
ENDBRANCH  31  32
BRANCH  31  34
ATOM     34  O   UNL     1      42.565  35.935  37.423  0.00  0.00    +0.000 OA
ATOM     35  H   UNL     1      42.625  36.883  37.627  0.00  0.00    +0.000 HD
ENDBRANCH  31  34
ENDBRANCH  29  31
ENDBRANCH  26  29
ENDBRANCH  20  23
ENDBRANCH   1  20
TORSDOF 12
