
     RDKit          3D

 41 42  0  0  0  0  0  0  0  0999 V2000
   46.3282   34.9971   41.9127 C   0  0  0  0  0  0  0  0  0  0  0  0
   44.8631   34.9430   41.6952 C   0  0  0  0  0  0  0  0  0  0  0  0
   43.9747   35.4386   42.7060 C   0  0  0  0  0  0  0  0  0  0  0  0
   42.3153   35.1534   41.9757 S   0  0  0  0  0  0  0  0  0  0  0  0
   43.1002   34.4043   40.4096 C   0  0  0  0  0  0  0  0  0  0  0  0
   44.2110   34.4806   40.6508 N   0  0  0  0  0  0  0  0  0  0  0  0
   42.3520   33.9294   39.3314 O   0  0  0  0  0  0  0  0  0  0  0  0
   40.4034   34.3945   37.5984 O   0  0  0  0  0  0  0  0  0  0  0  0
   41.4889   35.0772   38.4185 P   0  0  0  0  0  0  0  0  0  0  0  0
   40.7622   36.1572   39.5041 O   0  0  0  0  0  0  0  0  0  0  0  0
   42.5649   35.9349   37.4226 O   0  0  0  0  0  0  0  0  0  0  0  0
   47.1306   34.3536   40.8342 C   0  0  0  0  0  0  0  0  0  0  0  0
   48.4707   33.9148   41.2835 C   0  0  0  0  0  0  0  0  0  0  0  0
   48.9346   32.7030   40.7847 C   0  0  0  0  0  0  0  0  0  0  0  0
   50.1811   32.2193   41.1560 C   0  0  0  0  0  0  0  0  0  0  0  0
   50.9148   32.9809   42.0205 N   0  0  0  0  0  0  0  0  0  0  0  0
   50.4271   34.1601   42.4863 C   0  0  0  0  0  0  0  0  0  0  0  0
   49.2349   34.6049   42.1202 N   0  0  0  0  0  0  0  0  0  0  0  0
   47.9221   31.7420   39.6474 S   0  0  0  0  0  0  0  0  0  0  0  0
   46.6330   34.5818   42.8916 H   0  0  0  0  0  0  0  0  0  0  0  0
   46.6040   36.0733   41.9235 H   0  0  0  0  0  0  0  0  0  0  0  0
   44.2425   35.8680   43.6530 H   0  0  0  0  0  0  0  0  0  0  0  0
   39.8993   35.8429   39.8303 H   0  0  0  0  0  0  0  0  0  0  0  0
   42.6252   36.8830   37.6266 H   0  0  0  0  0  0  0  0  0  0  0  0
   47.3202   35.0350   39.9599 H   0  0  0  0  0  0  0  0  0  0  0  0
   46.5375   33.5107   40.4454 H   0  0  0  0  0  0  0  0  0  0  0  0
   50.5660   31.2805   40.7833 H   0  0  0  0  0  0  0  0  0  0  0  0
   50.9850   34.7785   43.1678 H   0  0  0  0  0  0  0  0  0  0  0  0
   48.3669   32.3089   37.9827 C   0  0  0  0  0  0  0  0  0  0  0  0
   47.5060   33.4039   37.6230 N   0  0  0  0  0  4  0  0  0  0  0  0
   46.1528   33.0749   37.9769 C   0  0  0  0  0  0  0  0  0  0  0  0
   46.1036   32.4281   38.8524 H   0  0  0  0  0  0  0  0  0  0  0  0
   47.6251   33.7608   36.2221 C   0  0  0  0  0  0  0  0  0  0  0  0
   48.3553   34.5698   36.0438 H   0  0  0  0  0  0  0  0  0  0  0  0
   49.4385   32.6199   38.0480 H   0  0  0  0  0  0  0  0  0  0  0  0
   48.3367   31.4848   37.2504 H   0  0  0  0  0  0  0  0  0  0  0  0
   47.8001   34.2160   38.2331 H   0  0  0  0  0  0  0  0  0  0  0  0
   45.6458   32.5847   37.0984 H   0  0  0  0  0  0  0  0  0  0  0  0
   45.6017   34.0332   38.1567 H   0  0  0  0  0  0  0  0  0  0  0  0
   46.6037   34.0516   35.8898 H   0  0  0  0  0  0  0  0  0  0  0  0
   47.9495   32.8731   35.6192 H   0  0  0  0  0  0  0  0  0  0  0  0
  2  1  1  0
  2  3  2  0
  4  3  1  0
  5  6  2  0
  5  4  1  0
  6  2  1  0
  7  5  1  0
  8  9  2  0
  9  7  1  0
  9 10  1  0
 11  9  1  0
 12 13  1  0
 12  1  1  0
 13 18  2  0
 14 15  2  0
 14 13  1  0
 15 16  1  0
 16 17  2  0
 18 17  1  0
 19 14  1  0
  1 20  1  0
  1 21  1  0
  3 22  1  0
 10 23  1  0
 11 24  1  0
 12 25  1  0
 12 26  1  0
 15 27  1  0
 17 28  1  0
 29 30  1  0
 30 31  1  0
 31 32  1  0
 30 33  1  0
 33 34  1  0
 29 35  1  0
 29 36  1  0
 30 37  1  0
 31 38  1  0
 31 39  1  0
 33 40  1  0
 33 41  1  0
 19 29  1  0
M  ISO  8  20   8  21   8  22  14  23   3  24   3  25   8  26   8  27  14
M  CHG  1  30   1
M  ISO  3  28  14  32   8  34   8
M  END
>  <DihAtoms>  (1) 
13,18,28,29

>  <DihDeg>  (1) 
179.99964293525815

$$$$
