
 OpenBabel03252508583D

 43 44  0  0  1  0  0  0  0  0999 V2000
   46.6900   34.5230   43.5470 N   0  0  0  0  0  0  0  0  0  0  0  0
   46.2040   35.5520   42.6990 C   0  0  0  0  0  0  0  0  0  0  0  0
   44.7060   35.7330   42.6990 C   0  0  0  0  0  0  0  0  0  0  0  0
   44.0350   35.4170   44.0100 C   0  0  0  0  0  0  0  0  0  0  0  0
   45.0460   35.1030   45.0860 C   0  0  0  0  0  0  0  0  0  0  0  0
   45.8630   33.9060   44.4720 C   0  0  2  0  0  0  0  0  0  0  0  0
   46.5220   35.5080   41.6530 H   0  0  0  0  0  0  0  0  0  0  0  0
   46.6400   36.5110   43.0980 H   0  0  0  0  0  0  0  0  0  0  0  0
   44.4680   36.8050   42.4720 H   0  0  0  0  0  0  0  0  0  0  0  0
   44.2880   35.1690   41.8410 H   0  0  0  0  0  0  0  0  0  0  0  0
   43.3790   34.5390   43.9060 H   0  0  0  0  0  0  0  0  0  0  0  0
   43.3960   36.2430   44.3940 H   0  0  0  0  0  0  0  0  0  0  0  0
   45.7440   35.9150   45.2910 H   0  0  0  0  0  0  0  0  0  0  0  0
   44.5520   34.6470   45.9530 H   0  0  0  0  0  0  0  0  0  0  0  0
   45.1270   33.1650   44.0920 H   0  0  0  0  0  0  0  0  0  0  0  0
   47.7870   33.7810   42.9990 C   0  0  0  0  0  0  0  0  0  0  0  0
   48.3800   33.2720   43.7970 H   0  0  0  0  0  0  0  0  0  0  0  0
   48.4540   34.4560   42.4570 H   0  0  0  0  0  0  0  0  0  0  0  0
   47.2420   32.7070   42.1040 C   0  0  0  0  0  0  0  0  0  0  0  0
   46.1310   32.8190   41.9870 H   0  0  0  0  0  0  0  0  0  0  0  0
   47.4040   31.6810   42.4500 H   0  0  0  0  0  0  0  0  0  0  0  0
   49.2430   32.0970   38.9830 C   0  0  0  0  0  0  0  0  0  0  0  0
   48.7010   31.9440   40.2730 C   0  0  0  0  0  0  0  0  0  0  0  0
   47.8090   32.8780   40.7390 C   0  0  0  0  0  0  0  0  0  0  0  0
   47.4970   33.9000   39.9310 N   0  0  0  0  0  0  0  0  0  0  0  0
   48.0230   34.0340   38.6990 C   0  0  0  0  0  0  0  0  0  0  0  0
   48.8990   33.1360   38.2140 N   0  0  0  0  0  0  0  0  0  0  0  0
   49.9310   31.3150   38.7080 H   0  0  0  0  0  0  0  0  0  0  0  0
   48.9610   31.1260   40.9000 H   0  0  0  0  0  0  0  0  0  0  0  0
   47.7060   34.8950   38.1260 H   0  0  0  0  0  0  0  0  0  0  0  0
   46.5710   33.4610   45.5780 O   0  0  0  0  0  0  0  0  0  0  0  0
   45.6120   31.1130   44.7830 O   0  0  0  0  0  0  0  0  0  0  0  0
   46.2400   31.8570   45.9640 P   0  0  2  0  0  0  0  0  0  0  0  0
   45.0010   31.9010   47.1470 O   0  0  0  0  0  0  0  0  0  0  0  0
   45.3940   31.9850   48.0520 H   0  0  0  0  0  0  0  0  0  0  0  0
   47.5540   31.0790   46.6100 O   0  0  0  0  0  0  0  0  0  0  0  0
   47.9540   29.9470   45.9590 C   0  0  0  0  0  2  0  0  0  0  0  0
   48.1300   28.9000   46.9520 N   0  0  0  0  0  4  0  0  0  0  0  0
   48.8140   28.2140   46.5670 H   0  0  0  0  0  0  0  0  0  0  0  0
   48.6910   29.4590   48.1680 C   0  0  0  0  0  2  0  0  0  0  0  0
   48.2850   30.4740   48.3640 H   0  0  0  0  0  0  0  0  0  0  0  0
   46.8860   28.2380   47.2840 C   0  0  0  0  0  2  0  0  0  0  0  0
   46.0400   28.9150   47.3700 H   0  0  0  0  0  0  0  0  0  0  0  0
  1  6  1  0  0  0  0
  2  3  1  0  0  0  0
  2  8  1  0  0  0  0
  2  1  1  0  0  0  0
  3  4  1  0  0  0  0
  4 12  1  0  0  0  0
  4  5  1  0  0  0  0
  5 13  1  0  0  0  0
  5 14  1  0  0  0  0
  6 15  1  6  0  0  0
  6  5  1  0  0  0  0
  6 31  1  0  0  0  0
  7  2  1  0  0  0  0
  9  3  1  0  0  0  0
 10  3  1  0  0  0  0
 11  4  1  0  0  0  0
 16  1  1  0  0  0  0
 16 17  1  0  0  0  0
 18 16  1  0  0  0  0
 19 21  1  0  0  0  0
 19 16  1  0  0  0  0
 20 19  1  0  0  0  0
 22 23  1  0  0  0  0
 23 24  2  0  0  0  0
 23 29  1  0  0  0  0
 24 19  1  0  0  0  0
 25 24  1  0  0  0  0
 26 25  2  0  0  0  0
 27 26  1  0  0  0  0
 27 22  2  0  0  0  0
 28 22  1  0  0  0  0
 30 26  1  0  0  0  0
 31 33  1  0  0  0  0
 33 32  2  6  0  0  0
 33 36  1  0  0  0  0
 33 34  1  0  0  0  0
 34 35  1  0  0  0  0
 37 36  1  0  0  0  0
 37 38  1  0  0  0  0
 38 42  1  0  0  0  0
 38 40  1  0  0  0  0
 39 38  1  0  0  0  0
 40 41  1  0  0  0  0
 42 43  1  0  0  0  0
M  END
>  <minimizedAffinity>
-3.97309518

>  <minimizedRMSD>
1.23816919

$$$$
