REMARK  Name = 
REMARK  11 active torsions:
REMARK  status: ('A' for Active; 'I' for Inactive)
REMARK    1  A    between atoms: N_1  and  C_7
REMARK    2  A    between atoms: C_6  and  O_15
REMARK    3  A    between atoms: C_7  and  C_8
REMARK    4  A    between atoms: C_8  and  C_11
REMARK    5  A    between atoms: O_15  and  P_17
REMARK    6  A    between atoms: P_17  and  O_18
REMARK    7  A    between atoms: P_17  and  O_19
REMARK    8  A    between atoms: O_19  and  C_37
REMARK    9  A    between atoms: C_37  and  N_38
REMARK   10  A    between atoms: N_38  and  C_39
REMARK   11  A    between atoms: N_38  and  C_41
REMARK                            x       y       z     vdW  Elec       q    Type
REMARK                         _______ _______ _______ _____ _____    ______ ____
ROOT
ATOM      1  N   UNL     1      47.170  34.155  43.085  0.00  0.00    +0.000 NA
ATOM      2  C   UNL     1      46.664  35.360  42.530  0.00  0.00    +0.000 C 
ATOM      3  C   UNL     1      45.191  35.601  42.748  0.00  0.00    +0.000 C 
ATOM      4  C   UNL     1      44.647  35.045  44.038  0.00  0.00    +0.000 C 
ATOM      5  C   UNL     1      45.746  34.468  44.897  0.00  0.00    +0.000 C 
ATOM      6  C   UNL     1      46.409  33.393  43.958  0.00  0.00    +0.000 C 
ATOM      7  H   UNL     1      46.862  35.523  41.467  0.00  0.00    +0.000 HD
ATOM      8  H   UNL     1      47.205  36.194  43.061  0.00  0.00    +0.000 HD
ATOM      9  H   UNL     1      45.002  36.706  42.775  0.00  0.00    +0.000 HD
ATOM     10  H   UNL     1      44.645  35.248  41.850  0.00  0.00    +0.000 HD
ATOM     11  H   UNL     1      43.926  34.237  43.837  0.00  0.00    +0.000 HD
ATOM     12  H   UNL     1      44.111  35.798  44.657  0.00  0.00    +0.000 HD
ATOM     13  H   UNL     1      46.515  35.188  45.178  0.00  0.00    +0.000 HD
ATOM     14  H   UNL     1      45.320  33.862  45.706  0.00  0.00    +0.000 HD
ATOM     15  H   UNL     1      45.588  32.781  43.526  0.00  0.00    +0.000 HD
ENDROOT
BRANCH   1  16
ATOM     16  C   UNL     1      48.148  33.499  42.269  0.00  0.00    +0.000 C 
ATOM     17  H   UNL     1      48.796  32.816  42.871  0.00  0.00    +0.000 HD
ATOM     18  H   UNL     1      48.789  34.244  41.791  0.00  0.00    +0.000 HD
BRANCH  16  19
ATOM     19  C   UNL     1      47.438  32.650  41.256  0.00  0.00    +0.000 C 
ATOM     20  H   UNL     1      46.350  32.924  41.207  0.00  0.00    +0.000 HD
ATOM     21  H   UNL     1      47.467  31.572  41.443  0.00  0.00    +0.000 HD
BRANCH  19  24
ATOM     22  C   UNL     1      49.327  32.286  38.028  0.00  0.00    +0.000 A 
ATOM     23  C   UNL     1      48.802  32.016  39.306  0.00  0.00    +0.000 A 
ATOM     24  C   UNL     1      47.987  32.945  39.905  0.00  0.00    +0.000 A 
ATOM     25  N   UNL     1      47.731  34.075  39.232  0.00  0.00    +0.000 NA
ATOM     26  C   UNL     1      48.239  34.321  38.010  0.00  0.00    +0.000 A 
ATOM     27  N   UNL     1      49.040  33.431  37.397  0.00  0.00    +0.000 NA
ATOM     28  H   UNL     1      49.952  31.499  37.643  0.00  0.00    +0.000 HD
ATOM     29  H   UNL     1      49.017  31.114  39.824  0.00  0.00    +0.000 HD
ATOM     30  H   UNL     1      47.971  35.263  37.552  0.00  0.00    +0.000 HD
ENDBRANCH  19  24
ENDBRANCH  16  19
ENDBRANCH   1  16
BRANCH   6  31
ATOM     31  O   UNL     1      47.202  32.696  44.856  0.00  0.00    +0.000 OA
BRANCH  31  33
ATOM     32  O   UNL     1      46.003  30.541  43.864  0.00  0.00    +0.000 OA
ATOM     33  P   UNL     1      46.667  31.122  45.115  0.00  0.00    +0.000 P 
BRANCH  33  34
ATOM     34  O   UNL     1      45.394  31.237  46.257  0.00  0.00    +0.000 OA
ATOM     35  H   UNL     1      45.757  31.211  47.178  0.00  0.00    +0.000 HD
ENDBRANCH  33  34
BRANCH  33  36
ATOM     36  O   UNL     1      47.851  30.148  45.746  0.00  0.00    +0.000 OA
BRANCH  36  37
ATOM     37  C   UNL     1      48.077  28.978  45.078  0.00  0.00    +0.000 C 
BRANCH  37  38
ATOM     38  N   UNL     1      48.806  29.293  43.861  0.00  0.00    +0.000 N 
ATOM     39  H   UNL     1      48.119  29.292  43.075  0.00  0.00    +0.000 HD
BRANCH  38  40
ATOM     40  C   UNL     1      49.377  30.625  43.955  0.00  0.00    +0.000 C 
ATOM     41  H   UNL     1      49.725  30.835  44.988  0.00  0.00    +0.000 HD
ENDBRANCH  38  40
BRANCH  38  42
ATOM     42  C   UNL     1      49.874  28.353  43.595  0.00  0.00    +0.000 C 
ATOM     43  H   UNL     1      50.427  28.059  44.484  0.00  0.00    +0.000 HD
ENDBRANCH  38  42
ENDBRANCH  37  38
ENDBRANCH  36  37
ENDBRANCH  33  36
ENDBRANCH  31  33
ENDBRANCH   6  31
TORSDOF 11
