
     RDKit          3D

 48 49  0  0  0  0  0  0  0  0999 V2000
   49.1333   34.2675   41.8454 C   0  0  0  0  0  0  0  0  0  0  0  0
   47.8459   35.0082   41.6798 C   0  0  0  0  0  0  0  0  0  0  0  0
   44.9085   35.1304   44.0352 C   0  0  0  0  0  0  0  0  0  0  0  0
   45.7527   35.4079   42.9350 C   0  0  0  0  0  0  0  0  0  0  0  0
   46.9542   34.7152   42.8418 C   0  0  0  0  0  0  0  0  0  0  0  0
   47.2728   33.8095   43.7945 N   0  0  0  0  0  0  0  0  0  0  0  0
   46.4319   33.5749   44.8336 C   0  0  0  0  0  0  0  0  0  0  0  0
   45.2682   34.2193   44.9600 N   0  0  0  0  0  0  0  0  0  0  0  0
   43.6755   35.8124   44.1701 N   0  0  0  0  0  0  0  0  0  0  0  0
   49.1764   33.1679   41.0005 O   0  0  0  0  0  0  0  0  0  0  0  0
   50.0795   31.2102   42.4664 O   0  0  0  0  0  0  0  0  0  0  0  0
   50.4817   32.1688   41.3612 P   0  0  2  0  0  0  0  0  0  0  0  0
   51.8040   33.1056   41.7675 O   0  0  0  0  0  0  0  0  0  0  0  0
   50.9012   31.2657   39.9682 O   0  0  0  0  0  0  0  0  0  0  0  0
   52.4157   31.5893   38.1917 C   0  0  1  0  0  0  0  0  0  0  0  0
   52.2280   31.3930   39.6659 C   0  0  2  0  0  0  0  0  0  0  0  0
   52.8060   29.9620   39.7842 C   0  0  0  0  0  0  0  0  0  0  0  0
   52.3596   29.2866   38.6819 O   0  0  0  0  0  0  0  0  0  0  0  0
   52.1341   30.1897   37.6746 C   0  0  0  0  0  0  0  0  0  0  0  0
   51.5069   32.5159   37.6623 O   0  0  0  0  0  0  0  0  0  0  0  0
   49.3002   33.9133   42.8776 H   0  0  0  0  0  0  0  0  0  0  0  0
   49.9613   34.9583   41.5139 H   0  0  0  0  0  0  0  0  0  0  0  0
   47.3279   34.6270   40.7645 H   0  0  0  0  0  0  0  0  0  0  0  0
   47.9954   36.0916   41.5406 H   0  0  0  0  0  0  0  0  0  0  0  0
   45.4177   36.1389   42.2330 H   0  0  0  0  0  0  0  0  0  0  0  0
   46.6913   32.8460   45.5978 H   0  0  0  0  0  0  0  0  0  0  0  0
   42.7837   35.3191   43.9179 H   0  0  0  0  0  0  0  0  0  0  0  0
   43.4993   36.7947   44.5032 H   0  0  0  0  0  0  0  0  0  0  0  0
   51.7397   33.9662   41.2812 H   0  0  0  0  0  0  0  0  0  0  0  0
   53.4681   31.8885   38.0083 H   0  0  0  0  0  0  0  0  0  0  0  0
   52.8102   32.0780   40.3081 H   0  0  0  0  0  0  0  0  0  0  0  0
   52.4986   29.5127   40.7490 H   0  0  0  0  0  0  0  0  0  0  0  0
   53.9008   30.0906   39.8021 H   0  0  0  0  0  0  0  0  0  0  0  0
   51.0898   30.1021   37.3464 H   0  0  0  0  0  0  0  0  0  0  0  0
   52.7975   29.9686   36.8210 H   0  0  0  0  0  0  0  0  0  0  0  0
   52.1665   33.5494   37.0565 C   0  0  0  0  0  0  0  0  0  0  0  0
   53.2430   33.9825   37.9068 N   0  0  0  0  0  4  0  0  0  0  0  0
   53.2486   35.4155   38.1142 C   0  0  0  0  0  0  0  0  0  0  0  0
   53.8599   35.8987   37.3232 H   0  0  0  0  0  0  0  0  0  0  0  0
   53.1873   33.3203   39.1759 C   0  0  0  0  0  0  0  0  0  0  0  0
   52.7580   32.3105   39.1424 H   0  0  0  0  0  0  0  0  0  0  0  0
   52.4896   33.3382   36.0182 H   0  0  0  0  0  0  0  0  0  0  0  0
   51.4482   34.4155   36.9793 H   0  0  0  0  0  0  0  0  0  0  0  0
   54.1326   33.7024   37.4225 H   0  0  0  0  0  0  0  0  0  0  0  0
   53.7123   35.6781   39.0834 H   0  0  0  0  0  0  0  0  0  0  0  0
   52.2405   35.8557   38.0740 H   0  0  0  0  0  0  0  0  0  0  0  0
   52.6739   33.9460   39.9556 H   0  0  0  0  0  0  0  0  0  0  0  0
   54.2409   33.2328   39.5489 H   0  0  0  0  0  0  0  0  0  0  0  0
  2  1  1  0
  2  5  1  0
  3  9  1  0
  3  8  2  0
  4  3  1  0
  5  4  2  0
  5  6  1  0
  6  7  2  0
  7  8  1  0
 12 10  1  6
 10  1  1  0
 12 13  1  0
 12 11  2  0
 14 12  1  0
 15 20  1  0
 15 16  1  0
 16 17  1  0
 16 14  1  0
 18 17  1  0
 19 15  1  0
 19 18  1  0
  1 21  1  0
  1 22  1  0
  2 23  1  0
  2 24  1  0
  4 25  1  0
  7 26  1  0
  9 27  1  0
  9 28  1  0
 13 29  1  0
 15 30  1  1
 16 31  1  1
 17 32  1  0
 17 33  1  0
 19 34  1  0
 19 35  1  0
 36 37  1  0
 37 38  1  0
 38 39  1  0
 37 40  1  0
 40 41  1  0
 36 42  1  0
 36 43  1  0
 37 44  1  0
 38 45  1  0
 38 46  1  0
 40 47  1  0
 40 48  1  0
 20 36  1  0
M  ISO  8  21   8  22   8  23   8  24   8  25  14  26  14  29   3  30  13
M  CHG  1  37   1
M  ISO  7  31  13  32  13  33  13  34  13  35  13  39   8  41   8
M  END
>  <DihAtoms>  (1) 
14,19,35,36

>  <DihDeg>  (1) 
-179.99460170572638

$$$$
