
 OpenBabel03252508593D

 43 44  0  0  1  0  0  0  0  0999 V2000
   46.7410   34.3740   43.4730 N   0  0  0  0  0  0  0  0  0  0  0  0
   46.4530   34.9310   42.1990 C   0  0  0  0  0  0  0  0  0  0  0  0
   44.9900   34.9860   41.8360 C   0  0  0  0  0  0  0  0  0  0  0  0
   44.0590   35.1830   43.0050 C   0  0  0  0  0  0  0  0  0  0  0  0
   44.8240   35.4090   44.2870 C   0  0  0  0  0  0  0  0  0  0  0  0
   45.7330   34.1290   44.3930 C   0  0  2  0  0  0  0  0  0  0  0  0
   46.9780   34.4870   41.3480 H   0  0  0  0  0  0  0  0  0  0  0  0
   46.8110   35.9980   42.2410 H   0  0  0  0  0  0  0  0  0  0  0  0
   44.8170   35.8520   41.1450 H   0  0  0  0  0  0  0  0  0  0  0  0
   44.7490   34.0920   41.2270 H   0  0  0  0  0  0  0  0  0  0  0  0
   43.4270   34.2930   43.1500 H   0  0  0  0  0  0  0  0  0  0  0  0
   43.3660   36.0450   42.8820 H   0  0  0  0  0  0  0  0  0  0  0  0
   45.4750   36.2830   44.2670 H   0  0  0  0  0  0  0  0  0  0  0  0
   44.1560   35.3120   45.1510 H   0  0  0  0  0  0  0  0  0  0  0  0
   45.0820   33.2460   44.2200 H   0  0  0  0  0  0  0  0  0  0  0  0
   47.9170   33.5560   43.5030 C   0  0  0  0  0  0  0  0  0  0  0  0
   48.1510   33.2090   44.5390 H   0  0  0  0  0  0  0  0  0  0  0  0
   48.7730   34.1270   43.1340 H   0  0  0  0  0  0  0  0  0  0  0  0
   47.6710   32.3300   42.6750 C   0  0  0  0  0  0  0  0  0  0  0  0
   46.7980   32.4890   41.9870 H   0  0  0  0  0  0  0  0  0  0  0  0
   47.4460   31.4190   43.2380 H   0  0  0  0  0  0  0  0  0  0  0  0
   51.2140   32.1820   41.4300 C   0  0  0  0  0  0  0  0  0  0  0  0
   50.0980   32.3950   42.2620 C   0  0  0  0  0  0  0  0  0  0  0  0
   48.8430   32.1010   41.7880 C   0  0  0  0  0  0  0  0  0  0  0  0
   48.7460   31.6200   40.5410 N   0  0  0  0  0  0  0  0  0  0  0  0
   49.8210   31.4200   39.7560 C   0  0  0  0  0  0  0  0  0  0  0  0
   51.0630   31.6980   40.1910 N   0  0  0  0  0  0  0  0  0  0  0  0
   52.1510   32.4410   41.8910 H   0  0  0  0  0  0  0  0  0  0  0  0
   50.1960   32.7780   43.2480 H   0  0  0  0  0  0  0  0  0  0  0  0
   49.6340   31.0280   38.7660 H   0  0  0  0  0  0  0  0  0  0  0  0
   46.1930   34.2270   45.6970 O   0  0  0  0  0  0  0  0  0  0  0  0
   45.7030   31.6160   45.6190 O   0  0  0  0  0  0  0  0  0  0  0  0
   46.0660   32.7800   46.5450 P   0  0  2  0  0  0  0  0  0  0  0  0
   44.7020   32.9500   47.5690 O   0  0  0  0  0  0  0  0  0  0  0  0
   44.9680   33.3700   48.4260 H   0  0  0  0  0  0  0  0  0  0  0  0
   47.3960   32.4820   47.4890 O   0  0  0  0  0  0  0  0  0  0  0  0
   47.3310   31.3640   48.2720 C   0  0  0  0  0  2  0  0  0  0  0  0
   47.8330   30.2440   47.4950 N   0  0  0  0  0  4  0  0  0  0  0  0
   47.9310   30.5660   46.5070 H   0  0  0  0  0  0  0  0  0  0  0  0
   49.1490   29.8580   47.9730 C   0  0  0  0  0  2  0  0  0  0  0  0
   49.2160   29.9590   49.0760 H   0  0  0  0  0  0  0  0  0  0  0  0
   46.9640   29.0890   47.5610 C   0  0  0  0  0  2  0  0  0  0  0  0
   46.5550   28.9060   48.5530 H   0  0  0  0  0  0  0  0  0  0  0  0
  1 16  1  0  0  0  0
  1  6  1  0  0  0  0
  2  8  1  0  0  0  0
  2  1  1  0  0  0  0
  3  2  1  0  0  0  0
  3  4  1  0  0  0  0
  4 11  1  0  0  0  0
  4  5  1  0  0  0  0
  5  6  1  0  0  0  0
  5 14  1  0  0  0  0
  6 15  1  6  0  0  0
  6 31  1  0  0  0  0
  7  2  1  0  0  0  0
  9  3  1  0  0  0  0
 10  3  1  0  0  0  0
 12  4  1  0  0  0  0
 13  5  1  0  0  0  0
 16 17  1  0  0  0  0
 18 16  1  0  0  0  0
 19 21  1  0  0  0  0
 19 16  1  0  0  0  0
 20 19  1  0  0  0  0
 22 28  1  0  0  0  0
 22 23  1  0  0  0  0
 23 29  1  0  0  0  0
 24 23  2  0  0  0  0
 24 19  1  0  0  0  0
 25 24  1  0  0  0  0
 26 27  1  0  0  0  0
 26 25  2  0  0  0  0
 27 22  2  0  0  0  0
 30 26  1  0  0  0  0
 31 33  1  0  0  0  0
 33 32  2  6  0  0  0
 33 36  1  0  0  0  0
 33 34  1  0  0  0  0
 34 35  1  0  0  0  0
 36 37  1  0  0  0  0
 38 42  1  0  0  0  0
 38 40  1  0  0  0  0
 38 37  1  0  0  0  0
 39 38  1  0  0  0  0
 40 41  1  0  0  0  0
 42 43  1  0  0  0  0
M  END
>  <minimizedAffinity>
-4.3690958

>  <minimizedRMSD>
2.75070834

$$$$
