
 OpenBabel03242516433D

 42 43  0  0  1  0  0  0  0  0999 V2000
   50.0400   31.3340   42.6210 O   0  0  0  0  0  0  0  0  0  0  0  0
   50.4750   32.1940   41.4490 P   0  0  2  0  0  0  0  0  0  0  0  0
   51.8050   33.1420   41.8000 O   0  0  0  0  0  0  0  0  0  0  0  0
   51.7620   33.9600   41.2450 H   0  0  0  0  0  0  0  0  0  0  0  0
   49.1900   33.1790   40.9870 O   0  0  0  0  0  0  0  0  0  0  0  0
   49.1120   34.3130   41.7810 C   0  0  0  0  0  0  0  0  0  0  0  0
   49.3140   34.0150   42.8250 H   0  0  0  0  0  0  0  0  0  0  0  0
   49.9010   35.0240   41.4020 H   0  0  0  0  0  0  0  0  0  0  0  0
   47.7890   34.9860   41.6080 C   0  0  0  0  0  0  0  0  0  0  0  0
   47.2760   34.5440   40.7180 H   0  0  0  0  0  0  0  0  0  0  0  0
   47.8850   36.0690   41.4230 H   0  0  0  0  0  0  0  0  0  0  0  0
   44.9230   35.1310   44.0490 C   0  0  0  0  0  0  0  0  0  0  0  0
   45.7370   35.4020   42.9240 C   0  0  0  0  0  0  0  0  0  0  0  0
   46.9300   34.7010   42.7960 C   0  0  0  0  0  0  0  0  0  0  0  0
   47.2710   33.7940   43.7400 N   0  0  0  0  0  0  0  0  0  0  0  0
   46.4590   33.5670   44.8050 C   0  0  0  0  0  0  0  0  0  0  0  0
   45.3040   34.2190   44.9640 N   0  0  0  0  0  0  0  0  0  0  0  0
   43.6990   35.8220   44.2190 N   0  0  0  0  0  0  0  0  0  0  0  0
   45.3870   36.1350   42.2310 H   0  0  0  0  0  0  0  0  0  0  0  0
   46.7360   32.8370   45.5620 H   0  0  0  0  0  0  0  0  0  0  0  0
   42.7980   35.3350   43.9940 H   0  0  0  0  0  0  0  0  0  0  0  0
   43.5400   36.8070   44.5560 H   0  0  0  0  0  0  0  0  0  0  0  0
   50.9020   31.1750   40.1410 O   0  0  0  0  0  0  0  0  0  0  0  0
   52.0780   31.4210   38.1140 C   0  0  1  0  0  0  0  0  0  0  0  0
   52.1130   31.5190   39.6090 C   0  0  2  0  0  0  0  0  0  0  0  0
   53.0370   30.3110   39.8980 C   0  0  0  0  0  0  0  0  0  0  0  0
   52.6500   29.3290   39.0300 O   0  0  0  0  0  0  0  0  0  0  0  0
   52.0940   29.9150   37.9210 C   0  0  0  0  0  0  0  0  0  0  0  0
   52.9950   31.8950   37.7090 H   0  0  0  0  0  0  0  0  0  0  0  0
   52.5760   32.4390   40.0080 H   0  0  0  0  0  0  0  0  0  0  0  0
   52.9620   30.0300   40.9670 H   0  0  0  0  0  0  0  0  0  0  0  0
   54.0600   30.6770   39.7130 H   0  0  0  0  0  0  0  0  0  0  0  0
   51.0740   29.5310   37.7890 H   0  0  0  0  0  0  0  0  0  0  0  0
   52.6900   29.6620   37.0280 H   0  0  0  0  0  0  0  0  0  0  0  0
   50.9140   31.9860   37.5750 O   0  0  0  0  0  0  0  0  0  0  0  0
   50.3190   31.1250   36.6960 C   0  0  0  0  0  0  0  0  0  0  0  0
   50.2140   31.7630   35.4100 N   0  0  0  0  0  0  0  0  0  0  0  0
   50.8390   32.6080   35.4490 H   0  0  0  0  0  0  0  0  0  0  0  0
   50.6440   30.9060   34.3240 C   0  0  0  0  0  0  0  0  0  0  0  0
   51.7320   31.0470   34.1540 H   0  0  0  0  0  0  0  0  0  0  0  0
   48.8710   32.2000   35.1670 C   0  0  0  0  0  0  0  0  0  0  0  0
   48.3130   32.4750   36.0710 H   0  0  0  0  0  0  0  0  0  0  0  0
  2  3  1  0  0  0  0
  2  1  2  1  0  0  0
  4  3  1  0  0  0  0
  5  2  1  0  0  0  0
  5  6  1  0  0  0  0
  6  7  1  0  0  0  0
  8  6  1  0  0  0  0
  9  6  1  0  0  0  0
  9 14  1  0  0  0  0
 10  9  1  0  0  0  0
 11  9  1  0  0  0  0
 12 18  1  0  0  0  0
 12 17  1  0  0  0  0
 13 12  2  0  0  0  0
 14 13  1  0  0  0  0
 14 15  2  0  0  0  0
 15 16  1  0  0  0  0
 16 17  2  0  0  0  0
 16 20  1  0  0  0  0
 18 22  1  0  0  0  0
 19 13  1  0  0  0  0
 21 18  1  0  0  0  0
 23  2  1  0  0  0  0
 24 29  1  6  0  0  0
 24 25  1  0  0  0  0
 25 26  1  0  0  0  0
 25 30  1  1  0  0  0
 25 23  1  0  0  0  0
 26 31  1  0  0  0  0
 27 26  1  0  0  0  0
 28 24  1  0  0  0  0
 28 27  1  0  0  0  0
 32 26  1  0  0  0  0
 33 28  1  0  0  0  0
 34 28  1  0  0  0  0
 35 24  1  0  0  0  0
 36 35  1  0  0  0  0
 37 38  1  0  0  0  0
 37 36  1  0  0  0  0
 39 37  1  0  0  0  0
 40 39  1  0  0  0  0
 41 37  1  0  0  0  0
 41 42  1  0  0  0  0
M  END
>  <minimizedAffinity>
-4.83490801

>  <minimizedRMSD>
2.12788296

$$$$
