
 OpenBabel03252508593D

 43 44  0  0  1  0  0  0  0  0999 V2000
   46.6920   34.4760   43.6320 N   0  0  0  0  0  0  0  0  0  0  0  0
   46.2200   35.4880   42.7550 C   0  0  0  0  0  0  0  0  0  0  0  0
   44.7250   35.6890   42.7480 C   0  0  0  0  0  0  0  0  0  0  0  0
   44.0480   35.4190   44.0660 C   0  0  0  0  0  0  0  0  0  0  0  0
   45.0540   35.1200   45.1520 C   0  0  0  0  0  0  0  0  0  0  0  0
   45.8550   33.8960   44.5730 C   0  0  2  0  0  0  0  0  0  0  0  0
   46.5380   35.4110   41.7110 H   0  0  0  0  0  0  0  0  0  0  0  0
   46.6690   36.4520   43.1280 H   0  0  0  0  0  0  0  0  0  0  0  0
   44.5020   36.7580   42.4910 H   0  0  0  0  0  0  0  0  0  0  0  0
   44.3010   35.1070   41.9060 H   0  0  0  0  0  0  0  0  0  0  0  0
   43.3800   34.5460   43.9860 H   0  0  0  0  0  0  0  0  0  0  0  0
   43.4200   36.2630   44.4270 H   0  0  0  0  0  0  0  0  0  0  0  0
   45.7620   35.9290   45.3360 H   0  0  0  0  0  0  0  0  0  0  0  0
   44.5530   34.6960   46.0300 H   0  0  0  0  0  0  0  0  0  0  0  0
   45.1100   33.1550   44.2120 H   0  0  0  0  0  0  0  0  0  0  0  0
   47.7790   33.7050   43.1060 C   0  0  0  0  0  0  0  0  0  0  0  0
   48.3580   33.2020   43.9190 H   0  0  0  0  0  0  0  0  0  0  0  0
   48.4610   34.3570   42.5550 H   0  0  0  0  0  0  0  0  0  0  0  0
   47.2210   32.6220   42.2300 C   0  0  0  0  0  0  0  0  0  0  0  0
   46.1070   32.7290   42.1340 H   0  0  0  0  0  0  0  0  0  0  0  0
   47.3940   31.5990   42.5790 H   0  0  0  0  0  0  0  0  0  0  0  0
   49.3220   32.1350   39.1530 C   0  0  0  0  0  0  0  0  0  0  0  0
   48.8040   31.9880   40.4530 C   0  0  0  0  0  0  0  0  0  0  0  0
   47.7600   32.7860   40.8530 C   0  0  0  0  0  0  0  0  0  0  0  0
   47.2830   33.6750   39.9710 N   0  0  0  0  0  0  0  0  0  0  0  0
   47.7870   33.8060   38.7300 C   0  0  0  0  0  0  0  0  0  0  0  0
   48.8090   33.0390   38.3090 N   0  0  0  0  0  0  0  0  0  0  0  0
   50.1360   31.4660   38.9330 H   0  0  0  0  0  0  0  0  0  0  0  0
   49.1970   31.2770   41.1380 H   0  0  0  0  0  0  0  0  0  0  0  0
   47.3310   34.5530   38.0960 H   0  0  0  0  0  0  0  0  0  0  0  0
   46.5560   33.4730   45.6910 O   0  0  0  0  0  0  0  0  0  0  0  0
   45.5910   31.1140   44.9380 O   0  0  0  0  0  0  0  0  0  0  0  0
   46.2250   31.8760   46.1040 P   0  0  2  0  0  0  0  0  0  0  0  0
   44.9890   31.9410   47.2910 O   0  0  0  0  0  0  0  0  0  0  0  0
   45.3860   32.0390   48.1930 H   0  0  0  0  0  0  0  0  0  0  0  0
   47.5400   31.1070   46.7580 O   0  0  0  0  0  0  0  0  0  0  0  0
   48.0130   30.0360   46.0540 C   0  0  0  0  0  2  0  0  0  0  0  0
   48.6380   29.1240   46.9960 N   0  0  0  0  0  4  0  0  0  0  0  0
   49.4990   28.7460   46.5440 H   0  0  0  0  0  0  0  0  0  0  0  0
   49.0400   29.8440   48.1920 C   0  0  0  0  0  2  0  0  0  0  0  0
   48.3020   30.6310   48.4490 H   0  0  0  0  0  0  0  0  0  0  0  0
   47.7590   28.0430   47.3870 C   0  0  0  0  0  2  0  0  0  0  0  0
   46.7300   28.3540   47.5520 H   0  0  0  0  0  0  0  0  0  0  0  0
  1  6  1  0  0  0  0
  2  8  1  0  0  0  0
  2  1  1  0  0  0  0
  3  2  1  0  0  0  0
  3  4  1  0  0  0  0
  4 12  1  0  0  0  0
  4  5  1  0  0  0  0
  5 13  1  0  0  0  0
  5 14  1  0  0  0  0
  6 15  1  6  0  0  0
  6  5  1  0  0  0  0
  6 31  1  0  0  0  0
  7  2  1  0  0  0  0
  9  3  1  0  0  0  0
 10  3  1  0  0  0  0
 11  4  1  0  0  0  0
 16  1  1  0  0  0  0
 16 17  1  0  0  0  0
 18 16  1  0  0  0  0
 19 21  1  0  0  0  0
 19 16  1  0  0  0  0
 20 19  1  0  0  0  0
 22 23  1  0  0  0  0
 23 24  2  0  0  0  0
 23 29  1  0  0  0  0
 24 19  1  0  0  0  0
 25 24  1  0  0  0  0
 26 25  2  0  0  0  0
 27 26  1  0  0  0  0
 27 22  2  0  0  0  0
 28 22  1  0  0  0  0
 30 26  1  0  0  0  0
 31 33  1  0  0  0  0
 33 32  2  6  0  0  0
 33 36  1  0  0  0  0
 33 34  1  0  0  0  0
 34 35  1  0  0  0  0
 37 36  1  0  0  0  0
 37 38  1  0  0  0  0
 38 42  1  0  0  0  0
 38 40  1  0  0  0  0
 39 38  1  0  0  0  0
 40 41  1  0  0  0  0
 42 43  1  0  0  0  0
M  END
>  <minimizedAffinity>
-3.98324108

>  <minimizedRMSD>
1.4864049

$$$$
