
 OpenBabel03252508593D

 43 44  0  0  1  0  0  0  0  0999 V2000
   46.6900   34.5220   43.5470 N   0  0  0  0  0  0  0  0  0  0  0  0
   46.2040   35.5520   42.6990 C   0  0  0  0  0  0  0  0  0  0  0  0
   44.7060   35.7330   42.6990 C   0  0  0  0  0  0  0  0  0  0  0  0
   44.0340   35.4180   44.0100 C   0  0  0  0  0  0  0  0  0  0  0  0
   45.0450   35.1030   45.0860 C   0  0  0  0  0  0  0  0  0  0  0  0
   45.8620   33.9060   44.4730 C   0  0  2  0  0  0  0  0  0  0  0  0
   46.5210   35.5070   41.6540 H   0  0  0  0  0  0  0  0  0  0  0  0
   46.6410   36.5110   43.0980 H   0  0  0  0  0  0  0  0  0  0  0  0
   44.4680   36.8050   42.4720 H   0  0  0  0  0  0  0  0  0  0  0  0
   44.2880   35.1680   41.8410 H   0  0  0  0  0  0  0  0  0  0  0  0
   43.3780   34.5390   43.9060 H   0  0  0  0  0  0  0  0  0  0  0  0
   43.3960   36.2440   44.3940 H   0  0  0  0  0  0  0  0  0  0  0  0
   45.7430   35.9150   45.2910 H   0  0  0  0  0  0  0  0  0  0  0  0
   44.5510   34.6480   45.9530 H   0  0  0  0  0  0  0  0  0  0  0  0
   45.1260   33.1650   44.0930 H   0  0  0  0  0  0  0  0  0  0  0  0
   47.7860   33.7800   43.0000 C   0  0  0  0  0  0  0  0  0  0  0  0
   48.3780   33.2700   43.7990 H   0  0  0  0  0  0  0  0  0  0  0  0
   48.4540   34.4550   42.4580 H   0  0  0  0  0  0  0  0  0  0  0  0
   47.2410   32.7060   42.1050 C   0  0  0  0  0  0  0  0  0  0  0  0
   46.1300   32.8200   41.9870 H   0  0  0  0  0  0  0  0  0  0  0  0
   47.4020   31.6800   42.4500 H   0  0  0  0  0  0  0  0  0  0  0  0
   49.2450   32.0970   38.9850 C   0  0  0  0  0  0  0  0  0  0  0  0
   48.7020   31.9440   40.2750 C   0  0  0  0  0  0  0  0  0  0  0  0
   47.8080   32.8770   40.7400 C   0  0  0  0  0  0  0  0  0  0  0  0
   47.4960   33.8980   39.9310 N   0  0  0  0  0  0  0  0  0  0  0  0
   48.0220   34.0330   38.6990 C   0  0  0  0  0  0  0  0  0  0  0  0
   48.9000   33.1360   38.2150 N   0  0  0  0  0  0  0  0  0  0  0  0
   49.9340   31.3160   38.7110 H   0  0  0  0  0  0  0  0  0  0  0  0
   48.9630   31.1270   40.9020 H   0  0  0  0  0  0  0  0  0  0  0  0
   47.7050   34.8930   38.1260 H   0  0  0  0  0  0  0  0  0  0  0  0
   46.5700   33.4620   45.5790 O   0  0  0  0  0  0  0  0  0  0  0  0
   45.6120   31.1130   44.7830 O   0  0  0  0  0  0  0  0  0  0  0  0
   46.2400   31.8570   45.9640 P   0  0  2  0  0  0  0  0  0  0  0  0
   45.0000   31.9000   47.1470 O   0  0  0  0  0  0  0  0  0  0  0  0
   45.3930   31.9840   48.0520 H   0  0  0  0  0  0  0  0  0  0  0  0
   47.5540   31.0800   46.6100 O   0  0  0  0  0  0  0  0  0  0  0  0
   47.9540   29.9470   45.9590 C   0  0  0  0  0  2  0  0  0  0  0  0
   48.1300   28.9020   46.9520 N   0  0  0  0  0  4  0  0  0  0  0  0
   48.8150   28.2150   46.5690 H   0  0  0  0  0  0  0  0  0  0  0  0
   48.6910   29.4600   48.1700 C   0  0  0  0  0  2  0  0  0  0  0  0
   48.2830   30.4750   48.3650 H   0  0  0  0  0  0  0  0  0  0  0  0
   46.8870   28.2380   47.2840 C   0  0  0  0  0  2  0  0  0  0  0  0
   46.0400   28.9140   47.3690 H   0  0  0  0  0  0  0  0  0  0  0  0
  1  6  1  0  0  0  0
  2  3  1  0  0  0  0
  2  8  1  0  0  0  0
  2  1  1  0  0  0  0
  3  4  1  0  0  0  0
  4 12  1  0  0  0  0
  4  5  1  0  0  0  0
  5 13  1  0  0  0  0
  5 14  1  0  0  0  0
  6 15  1  6  0  0  0
  6  5  1  0  0  0  0
  6 31  1  0  0  0  0
  7  2  1  0  0  0  0
  9  3  1  0  0  0  0
 10  3  1  0  0  0  0
 11  4  1  0  0  0  0
 16  1  1  0  0  0  0
 16 17  1  0  0  0  0
 18 16  1  0  0  0  0
 19 21  1  0  0  0  0
 19 16  1  0  0  0  0
 20 19  1  0  0  0  0
 22 23  1  0  0  0  0
 23 24  2  0  0  0  0
 23 29  1  0  0  0  0
 24 19  1  0  0  0  0
 25 24  1  0  0  0  0
 26 25  2  0  0  0  0
 27 26  1  0  0  0  0
 27 22  2  0  0  0  0
 28 22  1  0  0  0  0
 30 26  1  0  0  0  0
 31 33  1  0  0  0  0
 33 32  2  6  0  0  0
 33 36  1  0  0  0  0
 33 34  1  0  0  0  0
 34 35  1  0  0  0  0
 37 36  1  0  0  0  0
 37 38  1  0  0  0  0
 38 42  1  0  0  0  0
 38 40  1  0  0  0  0
 39 38  1  0  0  0  0
 40 41  1  0  0  0  0
 42 43  1  0  0  0  0
M  END
>  <minimizedAffinity>
-3.9731288

>  <minimizedRMSD>
1.11717248

$$$$
