
 OpenBabel03252508593D

 43 44  0  0  1  0  0  0  0  0999 V2000
   46.6270   34.4060   43.5550 N   0  0  0  0  0  0  0  0  0  0  0  0
   46.2990   34.9990   42.3070 C   0  0  0  0  0  0  0  0  0  0  0  0
   44.8240   35.0940   42.0070 C   0  0  0  0  0  0  0  0  0  0  0  0
   43.9470   35.2830   43.2170 C   0  0  0  0  0  0  0  0  0  0  0  0
   44.7680   35.4610   44.4710 C   0  0  0  0  0  0  0  0  0  0  0  0
   45.6530   34.1600   44.5100 C   0  0  2  0  0  0  0  0  0  0  0  0
   46.7780   34.5660   41.4250 H   0  0  0  0  0  0  0  0  0  0  0  0
   46.6820   36.0570   42.3600 H   0  0  0  0  0  0  0  0  0  0  0  0
   44.6430   35.9810   41.3440 H   0  0  0  0  0  0  0  0  0  0  0  0
   44.5390   34.2210   41.3870 H   0  0  0  0  0  0  0  0  0  0  0  0
   43.3010   34.4030   43.3680 H   0  0  0  0  0  0  0  0  0  0  0  0
   43.2690   36.1620   43.1440 H   0  0  0  0  0  0  0  0  0  0  0  0
   45.4380   36.3210   44.4460 H   0  0  0  0  0  0  0  0  0  0  0  0
   44.1350   35.3570   45.3610 H   0  0  0  0  0  0  0  0  0  0  0  0
   44.9750   33.2950   44.3430 H   0  0  0  0  0  0  0  0  0  0  0  0
   47.7840   33.5620   43.5170 C   0  0  0  0  0  0  0  0  0  0  0  0
   47.9890   33.0980   44.5120 H   0  0  0  0  0  0  0  0  0  0  0  0
   48.6600   34.1500   43.2280 H   0  0  0  0  0  0  0  0  0  0  0  0
   47.5300   32.4400   42.5540 C   0  0  0  0  0  0  0  0  0  0  0  0
   46.7510   32.7360   41.8020 H   0  0  0  0  0  0  0  0  0  0  0  0
   47.1740   31.5070   43.0020 H   0  0  0  0  0  0  0  0  0  0  0  0
   51.1560   32.3010   41.5760 C   0  0  0  0  0  0  0  0  0  0  0  0
   49.9790   32.5390   42.3110 C   0  0  0  0  0  0  0  0  0  0  0  0
   48.7680   32.1840   41.7690 C   0  0  0  0  0  0  0  0  0  0  0  0
   48.7710   31.6230   40.5520 N   0  0  0  0  0  0  0  0  0  0  0  0
   49.9030   31.4000   39.8600 C   0  0  0  0  0  0  0  0  0  0  0  0
   51.1050   31.7360   40.3630 N   0  0  0  0  0  0  0  0  0  0  0  0
   52.0520   32.6120   42.0840 H   0  0  0  0  0  0  0  0  0  0  0  0
   49.9970   32.9860   43.2740 H   0  0  0  0  0  0  0  0  0  0  0  0
   49.7970   30.9410   38.8870 H   0  0  0  0  0  0  0  0  0  0  0  0
   46.1680   34.2160   45.7950 O   0  0  0  0  0  0  0  0  0  0  0  0
   45.7150   31.6000   45.6550 O   0  0  0  0  0  0  0  0  0  0  0  0
   46.0510   32.7480   46.6100 P   0  0  2  0  0  0  0  0  0  0  0  0
   44.6730   32.8770   47.6210 O   0  0  0  0  0  0  0  0  0  0  0  0
   44.9230   33.2820   48.4900 H   0  0  0  0  0  0  0  0  0  0  0  0
   47.3740   32.4480   47.5630 O   0  0  0  0  0  0  0  0  0  0  0  0
   47.3200   31.3080   48.3140 C   0  0  0  0  0  2  0  0  0  0  0  0
   47.8710   30.2240   47.5190 N   0  0  0  0  0  4  0  0  0  0  0  0
   47.9880   30.5770   46.5450 H   0  0  0  0  0  0  0  0  0  0  0  0
   49.1840   29.8580   48.0220 C   0  0  0  0  0  2  0  0  0  0  0  0
   49.2200   29.9290   49.1290 H   0  0  0  0  0  0  0  0  0  0  0  0
   47.0330   29.0440   47.5310 C   0  0  0  0  0  2  0  0  0  0  0  0
   46.6030   28.8230   48.5040 H   0  0  0  0  0  0  0  0  0  0  0  0
  1  6  1  0  0  0  0
  2  8  1  0  0  0  0
  2  1  1  0  0  0  0
  3  2  1  0  0  0  0
  3  4  1  0  0  0  0
  4 11  1  0  0  0  0
  4  5  1  0  0  0  0
  5  6  1  0  0  0  0
  5 14  1  0  0  0  0
  6 15  1  6  0  0  0
  6 31  1  0  0  0  0
  7  2  1  0  0  0  0
  9  3  1  0  0  0  0
 10  3  1  0  0  0  0
 12  4  1  0  0  0  0
 13  5  1  0  0  0  0
 16  1  1  0  0  0  0
 16 17  1  0  0  0  0
 18 16  1  0  0  0  0
 19 21  1  0  0  0  0
 19 16  1  0  0  0  0
 20 19  1  0  0  0  0
 22 28  1  0  0  0  0
 22 23  1  0  0  0  0
 23 29  1  0  0  0  0
 24 23  2  0  0  0  0
 24 19  1  0  0  0  0
 25 24  1  0  0  0  0
 26 27  1  0  0  0  0
 26 25  2  0  0  0  0
 27 22  2  0  0  0  0
 30 26  1  0  0  0  0
 31 33  1  0  0  0  0
 33 32  2  6  0  0  0
 33 36  1  0  0  0  0
 33 34  1  0  0  0  0
 34 35  1  0  0  0  0
 36 37  1  0  0  0  0
 38 42  1  0  0  0  0
 38 40  1  0  0  0  0
 38 37  1  0  0  0  0
 39 38  1  0  0  0  0
 40 41  1  0  0  0  0
 42 43  1  0  0  0  0
M  END
>  <minimizedAffinity>
-4.38086224

>  <minimizedRMSD>
2.7214005

$$$$
