REMARK  Name = 
REMARK  12 active torsions:
REMARK  status: ('A' for Active; 'I' for Inactive)
REMARK    1  A    between atoms: C_1  and  C_2
REMARK    2  A    between atoms: C_1  and  O_10
REMARK    3  A    between atoms: C_2  and  C_5
REMARK    4  A    between atoms: O_10  and  P_12
REMARK    5  A    between atoms: P_12  and  O_13
REMARK    6  A    between atoms: P_12  and  O_14
REMARK    7  A    between atoms: O_14  and  C_16
REMARK    8  A    between atoms: C_15  and  O_20
REMARK    9  A    between atoms: O_20  and  C_36
REMARK   10  A    between atoms: C_36  and  N_37
REMARK   11  A    between atoms: N_37  and  C_38
REMARK   12  A    between atoms: N_37  and  C_40
REMARK                            x       y       z     vdW  Elec       q    Type
REMARK                         _______ _______ _______ _____ _____    ______ ____
ROOT
ATOM      1  O   UNL     1      50.080  31.210  42.466  0.00  0.00    +0.000 OA
ATOM      2  P   UNL     1      50.482  32.169  41.361  0.00  0.00    +0.000 P 
ENDROOT
BRANCH   2   3
ATOM      3  O   UNL     1      51.804  33.106  41.767  0.00  0.00    +0.000 OA
ATOM      4  H   UNL     1      51.740  33.966  41.281  0.00  0.00    +0.000 HD
ENDBRANCH   2   3
BRANCH   2   5
ATOM      5  O   UNL     1      49.176  33.168  41.001  0.00  0.00    +0.000 OA
BRANCH   5   6
ATOM      6  C   UNL     1      49.133  34.267  41.845  0.00  0.00    +0.000 C 
ATOM      7  H   UNL     1      49.300  33.913  42.878  0.00  0.00    +0.000 HD
ATOM      8  H   UNL     1      49.961  34.958  41.514  0.00  0.00    +0.000 HD
BRANCH   6   9
ATOM      9  C   UNL     1      47.846  35.008  41.680  0.00  0.00    +0.000 C 
ATOM     10  H   UNL     1      47.328  34.627  40.764  0.00  0.00    +0.000 HD
ATOM     11  H   UNL     1      47.995  36.092  41.541  0.00  0.00    +0.000 HD
BRANCH   9  14
ATOM     12  C   UNL     1      44.908  35.130  44.035  0.00  0.00    +0.000 A 
ATOM     13  C   UNL     1      45.753  35.408  42.935  0.00  0.00    +0.000 A 
ATOM     14  C   UNL     1      46.954  34.715  42.842  0.00  0.00    +0.000 A 
ATOM     15  N   UNL     1      47.273  33.809  43.794  0.00  0.00    +0.000 NA
ATOM     16  C   UNL     1      46.432  33.575  44.834  0.00  0.00    +0.000 A 
ATOM     17  N   UNL     1      45.268  34.219  44.960  0.00  0.00    +0.000 NA
ATOM     18  N   UNL     1      43.675  35.812  44.170  0.00  0.00    +0.000 N 
ATOM     19  H   UNL     1      45.418  36.139  42.233  0.00  0.00    +0.000 HD
ATOM     20  H   UNL     1      46.691  32.846  45.598  0.00  0.00    +0.000 HD
ATOM     21  H   UNL     1      42.784  35.319  43.918  0.00  0.00    +0.000 HD
ATOM     22  H   UNL     1      43.499  36.795  44.503  0.00  0.00    +0.000 HD
ENDBRANCH   9  14
ENDBRANCH   6   9
ENDBRANCH   5   6
ENDBRANCH   2   5
BRANCH   2  23
ATOM     23  O   UNL     1      50.901  31.266  39.968  0.00  0.00    +0.000 OA
BRANCH  23  25
ATOM     24  C   UNL     1      52.416  31.589  38.192  0.00  0.00    +0.000 C 
ATOM     25  C   UNL     1      52.228  31.393  39.666  0.00  0.00    +0.000 C 
ATOM     26  C   UNL     1      52.806  29.962  39.784  0.00  0.00    +0.000 C 
ATOM     27  O   UNL     1      52.360  29.287  38.682  0.00  0.00    +0.000 OA
ATOM     28  C   UNL     1      52.134  30.190  37.675  0.00  0.00    +0.000 C 
ATOM     29  H   UNL     1      53.468  31.889  38.008  0.00  0.00    +0.000 HD
ATOM     30  H   UNL     1      52.810  32.078  40.308  0.00  0.00    +0.000 HD
ATOM     31  H   UNL     1      52.499  29.513  40.749  0.00  0.00    +0.000 HD
ATOM     32  H   UNL     1      53.901  30.091  39.802  0.00  0.00    +0.000 HD
ATOM     33  H   UNL     1      51.090  30.102  37.346  0.00  0.00    +0.000 HD
ATOM     34  H   UNL     1      52.797  29.969  36.821  0.00  0.00    +0.000 HD
BRANCH  24  35
ATOM     35  O   UNL     1      51.507  32.516  37.662  0.00  0.00    +0.000 OA
BRANCH  35  36
ATOM     36  C   UNL     1      52.166  33.549  37.056  0.00  0.00    +0.000 C 
BRANCH  36  37
ATOM     37  N   UNL     1      53.243  33.983  37.907  0.00  0.00    +0.000 N 
ATOM     38  H   UNL     1      54.133  33.702  37.422  0.00  0.00    +0.000 HD
BRANCH  37  39
ATOM     39  C   UNL     1      53.249  35.416  38.114  0.00  0.00    +0.000 C 
ATOM     40  H   UNL     1      53.860  35.899  37.323  0.00  0.00    +0.000 HD
ENDBRANCH  37  39
BRANCH  37  41
ATOM     41  C   UNL     1      53.187  33.320  39.176  0.00  0.00    +0.000 C 
ATOM     42  H   UNL     1      52.758  32.310  39.142  0.00  0.00    +0.000 HD
ENDBRANCH  37  41
ENDBRANCH  36  37
ENDBRANCH  35  36
ENDBRANCH  24  35
ENDBRANCH  23  25
ENDBRANCH   2  23
TORSDOF 12
