REMARK  Name = 
REMARK  6 active torsions:
REMARK  status: ('A' for Active; 'I' for Inactive)
REMARK    1  A    between atoms: N_1  and  C_8
REMARK    2  A    between atoms: C_3  and  N_12
REMARK    3  A    between atoms: N_12  and  C_24
REMARK    4  A    between atoms: C_24  and  N_25
REMARK    5  A    between atoms: N_25  and  C_26
REMARK    6  A    between atoms: N_25  and  C_28
REMARK                            x       y       z     vdW  Elec       q    Type
REMARK                         _______ _______ _______ _____ _____    ______ ____
ROOT
ATOM      1  N   UNL     1      47.166  34.240  42.387  0.00  0.00    +0.000 N 
ATOM      2  C   UNL     1      48.019  35.045  41.538  0.00  0.00    +0.000 C 
ATOM      3  C   UNL     1      47.686  34.395  40.221  0.00  0.00    +0.000 C 
ATOM      4  C   UNL     1      47.930  32.939  40.573  0.00  0.00    +0.000 C 
ATOM      5  C   UNL     1      47.373  32.863  41.979  0.00  0.00    +0.000 C 
ATOM      6  H   UNL     1      47.770  36.122  41.592  0.00  0.00    +0.000 HD
ATOM      7  H   UNL     1      49.083  34.825  41.755  0.00  0.00    +0.000 HD
ATOM      8  H   UNL     1      46.631  34.545  39.924  0.00  0.00    +0.000 HD
ATOM      9  H   UNL     1      49.024  32.815  40.612  0.00  0.00    +0.000 HD
ATOM     10  H   UNL     1      47.408  32.231  39.901  0.00  0.00    +0.000 HD
ATOM     11  H   UNL     1      48.094  32.357  42.660  0.00  0.00    +0.000 HD
ATOM     12  H   UNL     1      46.425  32.303  41.968  0.00  0.00    +0.000 HD
ENDROOT
BRANCH   1  15
ATOM     13  C   UNL     1      44.594  35.946  44.468  0.00  0.00    +0.000 A 
ATOM     14  C   UNL     1      45.411  35.708  43.367  0.00  0.00    +0.000 A 
ATOM     15  C   UNL     1      46.281  34.606  43.423  0.00  0.00    +0.000 A 
ATOM     16  N   UNL     1      46.270  33.831  44.561  0.00  0.00    +0.000 NA
ATOM     17  C   UNL     1      45.465  34.091  45.608  0.00  0.00    +0.000 A 
ATOM     18  N   UNL     1      44.624  35.151  45.563  0.00  0.00    +0.000 NA
ATOM     19  H   UNL     1      43.954  36.814  44.344  0.00  0.00    +0.000 HD
ATOM     20  H   UNL     1      45.426  36.308  42.472  0.00  0.00    +0.000 HD
ATOM     21  H   UNL     1      45.475  33.470  46.489  0.00  0.00    +0.000 HD
ENDBRANCH   1  15
BRANCH   3  22
ATOM     22  N   UNL     1      48.632  34.726  39.193  0.00  0.00    +0.000 NA
ATOM     23  H   UNL     1      48.312  34.229  38.328  0.00  0.00    +0.000 HD
BRANCH  22  24
ATOM     24  C   UNL     1      48.619  36.166  39.020  0.00  0.00    +0.000 C 
BRANCH  24  25
ATOM     25  N   UNL     1      49.917  36.755  39.277  0.00  0.00    +0.000 N 
ATOM     26  H   UNL     1      50.562  36.137  39.819  0.00  0.00    +0.000 HD
BRANCH  25  27
ATOM     27  C   UNL     1      49.700  38.043  39.905  0.00  0.00    +0.000 C 
ATOM     28  H   UNL     1      50.270  38.079  40.856  0.00  0.00    +0.000 HD
ENDBRANCH  25  27
BRANCH  25  29
ATOM     29  C   UNL     1      50.605  37.056  38.012  0.00  0.00    +0.000 C 
ATOM     30  H   UNL     1      51.426  37.759  38.272  0.00  0.00    +0.000 HD
ENDBRANCH  25  29
ENDBRANCH  24  25
ENDBRANCH  22  24
ENDBRANCH   3  22
TORSDOF 6
