REMARK  Name = 
REMARK  6 active torsions:
REMARK  status: ('A' for Active; 'I' for Inactive)
REMARK    1  A    between atoms: C_1  and  C_7
REMARK    2  A    between atoms: C_7  and  O_9
REMARK    3  A    between atoms: O_9  and  C_13
REMARK    4  A    between atoms: C_13  and  N_14
REMARK    5  A    between atoms: N_14  and  C_15
REMARK    6  A    between atoms: N_14  and  C_17
REMARK                            x       y       z     vdW  Elec       q    Type
REMARK                         _______ _______ _______ _____ _____    ______ ____
ROOT
ATOM      1  C   UNL     1      46.989  34.903  41.928  0.00  0.00    +0.000 C 
ATOM      2  O   UNL     1      48.141  35.403  41.760  0.00  0.00    +0.000 OA
ENDROOT
BRANCH   1   3
ATOM      3  C   UNL     1      46.255  34.876  43.157  0.00  0.00    +0.000 A 
ATOM      4  C   UNL     1      45.328  35.916  43.274  0.00  0.00    +0.000 A 
ATOM      5  C   UNL     1      44.565  35.956  44.461  0.00  0.00    +0.000 A 
ATOM      6  N   UNL     1      44.764  35.011  45.403  0.00  0.00    +0.000 NA
ATOM      7  C   UNL     1      45.681  34.022  45.236  0.00  0.00    +0.000 A 
ATOM      8  N   UNL     1      46.413  33.967  44.118  0.00  0.00    +0.000 NA
ATOM      9  H   UNL     1      45.132  36.694  42.550  0.00  0.00    +0.000 HD
ATOM     10  H   UNL     1      43.833  36.734  44.610  0.00  0.00    +0.000 HD
ATOM     11  H   UNL     1      45.853  33.252  45.987  0.00  0.00    +0.000 HD
ENDBRANCH   1   3
BRANCH   1  12
ATOM     12  O   UNL     1      46.349  34.321  40.849  0.00  0.00    +0.000 OA
BRANCH  12  13
ATOM     13  C   UNL     1      46.982  34.285  39.561  0.00  0.00    +0.000 C 
BRANCH  13  14
ATOM     14  N   UNL     1      46.079  33.969  38.500  0.00  0.00    +0.000 N 
ATOM     15  H   UNL     1      45.464  34.752  38.253  0.00  0.00    +0.000 HD
BRANCH  14  16
ATOM     16  C   UNL     1      46.925  33.721  37.326  0.00  0.00    +0.000 C 
ATOM     17  H   UNL     1      47.779  33.116  37.712  0.00  0.00    +0.000 HD
ENDBRANCH  14  16
BRANCH  14  18
ATOM     18  C   UNL     1      45.320  32.760  38.730  0.00  0.00    +0.000 C 
ATOM     19  H   UNL     1      44.475  32.873  39.419  0.00  0.00    +0.000 HD
ENDBRANCH  14  18
ENDBRANCH  13  14
ENDBRANCH  12  13
ENDBRANCH   1  12
TORSDOF 6
