
     RDKit          3D

 25 25  0  0  0  0  0  0  0  0999 V2000
   46.2554   34.8762   43.1572 C   0  0  0  0  0  0  0  0  0  0  0  0
   45.3283   35.9155   43.2736 C   0  0  0  0  0  0  0  0  0  0  0  0
   44.5649   35.9561   44.4608 C   0  0  0  0  0  0  0  0  0  0  0  0
   44.7635   35.0110   45.4031 N   0  0  0  0  0  0  0  0  0  0  0  0
   45.6810   34.0215   45.2357 C   0  0  0  0  0  0  0  0  0  0  0  0
   46.4129   33.9670   44.1183 N   0  0  0  0  0  0  0  0  0  0  0  0
   46.9890   34.9031   41.9280 C   0  0  0  0  0  0  0  0  0  0  0  0
   48.1405   35.4031   41.7601 O   0  0  0  0  0  0  0  0  0  0  0  0
   46.3486   34.3205   40.8492 O   0  0  0  0  0  0  0  0  0  0  0  0
   45.1324   36.6939   42.5500 H   0  0  0  0  0  0  0  0  0  0  0  0
   43.8326   36.7345   44.6096 H   0  0  0  0  0  0  0  0  0  0  0  0
   45.8526   33.2520   45.9869 H   0  0  0  0  0  0  0  0  0  0  0  0
   46.9816   34.2845   39.5607 C   0  0  0  0  0  0  0  0  0  0  0  0
   47.7749   33.1148   39.3568 N   0  0  0  0  0  4  0  0  0  0  0  0
   48.5374   33.3669   38.1280 C   0  0  0  0  0  0  0  0  0  0  0  0
   48.8753   34.4262   38.2136 H   0  0  0  0  0  0  0  0  0  0  0  0
   48.7411   32.8834   40.4074 C   0  0  0  0  0  0  0  0  0  0  0  0
   48.3269   32.4470   41.3238 H   0  0  0  0  0  0  0  0  0  0  0  0
   47.5134   35.2180   39.3518 H   0  0  0  0  0  0  0  0  0  0  0  0
   46.1544   34.2333   38.8031 H   0  0  0  0  0  0  0  0  0  0  0  0
   47.2106   32.2755   39.1808 H   0  0  0  0  0  0  0  0  0  0  0  0
   47.9252   33.1610   37.2314 H   0  0  0  0  0  0  0  0  0  0  0  0
   49.4680   32.7425   38.1655 H   0  0  0  0  0  0  0  0  0  0  0  0
   49.3165   33.8033   40.5944 H   0  0  0  0  0  0  0  0  0  0  0  0
   49.4947   32.1611   39.9811 H   0  0  0  0  0  0  0  0  0  0  0  0
  1  2  2  0
  1  6  1  0
  2  3  1  0
  3  4  2  0
  5  4  1  0
  6  5  2  0
  7  1  1  0
  8  7  2  0
  9  7  1  0
  2 10  1  0
  3 11  1  0
  5 12  1  0
 13 14  1  0
 14 15  1  0
 15 16  1  0
 14 17  1  0
 17 18  1  0
 13 19  1  0
 13 20  1  0
 14 21  1  0
 15 22  1  0
 15 23  1  0
 17 24  1  0
 17 25  1  0
  9 13  1  0
M  CHG  1  14   1
M  ISO  5  10  14  11  14  12  14  16   8  18   8
M  END
>  <DihAtoms>  (1) 
6,8,12,13

>  <DihDeg>  (1) 
-60.00645712243277

$$$$
