
     RDKit          3D

 51 53  0  0  0  0  0  0  0  0999 V2000
   46.0823   33.8382   43.1365 C   0  0  2  0  0  0  0  0  0  0  0  0
   45.3472   34.9583   42.4840 C   0  0  2  0  0  0  0  0  0  0  0  0
   45.1901   36.1396   43.3653 C   0  0  0  0  0  0  0  0  0  0  0  0
   44.6118   35.8365   44.7205 C   0  0  0  0  0  0  0  0  0  0  0  0
   45.0440   34.5201   45.2861 C   0  0  0  0  0  0  0  0  0  0  0  0
   46.2933   33.9874   44.6133 C   0  0  0  0  0  0  0  0  0  0  0  0
   47.3884   33.5768   42.4981 C   0  0  0  0  0  0  0  0  0  0  0  0
   48.4325   34.3877   42.9409 C   0  0  0  0  0  0  0  0  0  0  0  0
   49.7225   34.2265   42.4072 C   0  0  0  0  0  0  0  0  0  0  0  0
   49.8549   33.2353   41.4450 N   0  0  0  0  0  0  0  0  0  0  0  0
   48.8135   32.4701   41.0426 C   0  0  0  0  0  0  0  0  0  0  0  0
   47.5872   32.6427   41.5690 N   0  0  0  0  0  0  0  0  0  0  0  0
   43.2625   35.4611   41.1500 C   0  0  1  0  0  0  0  0  0  0  0  0
   44.0063   34.4744   41.9770 C   0  0  1  0  0  0  0  0  0  0  0  0
   44.2203   33.3275   41.2223 O   0  0  0  0  0  0  0  0  0  0  0  0
   44.0696   33.6676   39.8849 C   0  0  0  0  0  0  0  0  0  0  0  0
   42.8680   34.5784   39.9462 C   0  0  2  0  0  0  0  0  0  0  0  0
   42.0984   35.9124   41.7419 O   0  0  0  0  0  0  0  0  0  0  0  0
   42.7673   35.3753   38.8124 O   0  0  0  0  0  0  0  0  0  0  0  0
   45.4880   32.8889   42.9727 H   0  0  0  0  0  0  0  0  0  0  0  0
   45.9217   35.2825   41.5905 H   0  0  0  0  0  0  0  0  0  0  0  0
   44.5633   36.8907   42.8560 H   0  0  0  0  0  0  0  0  0  0  0  0
   46.1851   36.6250   43.5291 H   0  0  0  0  0  0  0  0  0  0  0  0
   43.4929   35.8024   44.5953 H   0  0  0  0  0  0  0  0  0  0  0  0
   44.8134   36.6939   45.3884 H   0  0  0  0  0  0  0  0  0  0  0  0
   45.3446   34.7184   46.3454 H   0  0  0  0  0  0  0  0  0  0  0  0
   44.2511   33.7622   45.3363 H   0  0  0  0  0  0  0  0  0  0  0  0
   47.1783   34.5074   44.9438 H   0  0  0  0  0  0  0  0  0  0  0  0
   46.4000   32.9338   45.0200 H   0  0  0  0  0  0  0  0  0  0  0  0
   48.4758   35.1901   43.6605 H   0  0  0  0  0  0  0  0  0  0  0  0
   50.6037   34.7892   42.6691 H   0  0  0  0  0  0  0  0  0  0  0  0
   49.0463   31.7308   40.2843 H   0  0  0  0  0  0  0  0  0  0  0  0
   43.8604   36.2945   40.7759 H   0  0  0  0  0  0  0  0  0  0  0  0
   43.3604   34.1949   42.8434 H   0  0  0  0  0  0  0  0  0  0  0  0
   43.9145   32.7436   39.3204 H   0  0  0  0  0  0  0  0  0  0  0  0
   44.9566   34.2320   39.5153 H   0  0  0  0  0  0  0  0  0  0  0  0
   41.9541   34.0324   40.1784 H   0  0  0  0  0  0  0  0  0  0  0  0
   41.4756   36.3385   41.1254 H   0  0  0  0  0  0  0  0  0  0  0  0
   41.4983   35.2555   38.2830 C   0  0  0  0  0  0  0  0  0  0  0  0
   41.1481   33.9118   37.8923 N   0  0  0  0  0  4  0  0  0  0  0  0
   39.8778   33.5433   38.5259 C   0  0  0  0  0  0  0  0  0  0  0  0
   39.0890   33.7246   37.7642 H   0  0  0  0  0  0  0  0  0  0  0  0
   41.0033   33.8225   36.4421 C   0  0  0  0  0  0  0  0  0  0  0  0
   40.6649   32.8096   36.1850 H   0  0  0  0  0  0  0  0  0  0  0  0
   40.7029   35.6762   38.9541 H   0  0  0  0  0  0  0  0  0  0  0  0
   41.4495   35.9100   37.3672 H   0  0  0  0  0  0  0  0  0  0  0  0
   41.8674   33.2388   38.1870 H   0  0  0  0  0  0  0  0  0  0  0  0
   39.7061   34.2246   39.3600 H   0  0  0  0  0  0  0  0  0  0  0  0
   39.8938   32.4833   38.8418 H   0  0  0  0  0  0  0  0  0  0  0  0
   40.2124   34.5480   36.0962 H   0  0  0  0  0  0  0  0  0  0  0  0
   41.9335   34.0843   35.9360 H   0  0  0  0  0  0  0  0  0  0  0  0
  1  6  1  0
  2  1  1  0
  2  3  1  0
  3  4  1  0
  4  5  1  0
  6  5  1  0
  7  8  2  0
  7  1  1  0
  9  8  1  0
 10  9  2  0
 11 10  1  0
 11 12  2  0
 12  7  1  0
 13 18  1  0
 13 14  1  0
 14 15  1  0
 14  2  1  0
 16 17  1  0
 16 15  1  0
 17 19  1  0
 17 13  1  0
  1 20  1  1
  2 21  1  6
  3 22  1  0
  3 23  1  0
  4 24  1  0
  4 25  1  0
  5 26  1  0
  5 27  1  0
  6 28  1  0
  6 29  1  0
  8 30  1  0
  9 31  1  0
 11 32  1  0
 13 33  1  6
 14 34  1  1
 16 35  1  0
 16 36  1  0
 17 37  1  1
 18 38  1  0
 39 40  1  0
 40 41  1  0
 41 42  1  0
 40 43  1  0
 43 44  1  0
 39 45  1  0
 39 46  1  0
 40 47  1  0
 41 48  1  0
 41 49  1  0
 43 50  1  0
 43 51  1  0
 19 39  1  0
M  ISO  8  20  13  21  13  22  13  23  13  24  13  25  13  26  13  27  13
M  ISO  8  28  13  29  13  30  14  31  14  32  14  33  13  34  13  35  13
M  CHG  1  40   1
M  ISO  5  36  13  37  13  38   3  42   8  44   8
M  END
>  <DihAtoms>  (1) 
16,18,38,39

>  <DihDeg>  (1) 
-60.05721625323456

$$$$
