
 OpenBabel03242518283D

 19 19  0  0  0  0  0  0  0  0999 V2000
   47.1060   34.9440   41.9540 C   0  0  0  0  0  0  0  0  0  0  0  0
   48.2220   35.5270   41.8160 O   0  0  0  0  0  0  0  0  0  0  0  0
   46.3270   34.8900   43.1550 C   0  0  0  0  0  0  0  0  0  0  0  0
   45.3680   35.9030   43.2410 C   0  0  0  0  0  0  0  0  0  0  0  0
   44.5600   35.9160   44.3980 C   0  0  0  0  0  0  0  0  0  0  0  0
   44.7500   34.9720   45.3430 N   0  0  0  0  0  0  0  0  0  0  0  0
   45.7000   34.0100   45.2070 C   0  0  0  0  0  0  0  0  0  0  0  0
   46.4750   33.9810   44.1170 N   0  0  0  0  0  0  0  0  0  0  0  0
   45.1770   36.6790   42.5130 H   0  0  0  0  0  0  0  0  0  0  0  0
   43.8010   36.6720   44.5230 H   0  0  0  0  0  0  0  0  0  0  0  0
   45.8650   33.2410   45.9610 H   0  0  0  0  0  0  0  0  0  0  0  0
   46.5560   34.2880   40.8680 O   0  0  0  0  0  0  0  0  0  0  0  0
   47.3650   33.9670   39.7260 C   0  0  0  0  0  2  0  0  0  0  0  0
   46.8770   32.8450   38.9890 N   0  0  0  0  0  4  0  0  0  0  0  0
   45.9800   33.0310   38.5260 H   0  0  0  0  0  0  0  0  0  0  0  0
   47.8570   32.6220   37.9190 C   0  0  0  0  0  2  0  0  0  0  0  0
   48.8500   32.7490   38.4100 H   0  0  0  0  0  0  0  0  0  0  0  0
   46.8210   31.6260   39.7650 C   0  0  0  0  0  2  0  0  0  0  0  0
   45.9650   31.5540   40.4460 H   0  0  0  0  0  0  0  0  0  0  0  0
  1  3  1  0  0  0  0
  2  1  2  0  0  0  0
  3  4  2  0  0  0  0
  3  8  1  0  0  0  0
  4  5  1  0  0  0  0
  5 10  1  0  0  0  0
  5  6  2  0  0  0  0
  7  6  1  0  0  0  0
  7 11  1  0  0  0  0
  8  7  2  0  0  0  0
  9  4  1  0  0  0  0
 12  1  1  0  0  0  0
 13 12  1  0  0  0  0
 14 13  1  0  0  0  0
 14 18  1  0  0  0  0
 15 14  1  0  0  0  0
 16 17  1  0  0  0  0
 16 14  1  0  0  0  0
 18 19  1  0  0  0  0
M  END
>  <minimizedAffinity>
-3.42401576

>  <minimizedRMSD>
0.307817996

$$$$
