
 OpenBabel03242517123D

 45 47  0  0  1  0  0  0  0  0999 V2000
   37.1890   26.7130   41.2570 C   0  0  2  0  0  0  0  0  0  0  0  0
   37.6010   28.1300   41.0470 C   0  0  2  0  0  0  0  0  0  0  0  0
   38.1420   28.7650   42.2730 C   0  0  0  0  0  0  0  0  0  0  0  0
   37.2590   28.6370   43.4850 C   0  0  0  0  0  0  0  0  0  0  0  0
   36.5200   27.3380   43.5650 C   0  0  0  0  0  0  0  0  0  0  0  0
   37.1390   26.2680   42.6880 C   0  0  0  0  0  0  0  0  0  0  0  0
   36.1520   26.5840   40.8260 H   0  0  0  0  0  0  0  0  0  0  0  0
   38.4030   28.1520   40.2780 H   0  0  0  0  0  0  0  0  0  0  0  0
   38.3410   29.8310   42.0720 H   0  0  0  0  0  0  0  0  0  0  0  0
   39.1300   28.3070   42.5320 H   0  0  0  0  0  0  0  0  0  0  0  0
   36.4930   29.4600   43.4160 H   0  0  0  0  0  0  0  0  0  0  0  0
   37.8620   28.8610   44.3840 H   0  0  0  0  0  0  0  0  0  0  0  0
   36.6500   26.9680   44.6130 H   0  0  0  0  0  0  0  0  0  0  0  0
   35.4360   27.4190   43.4080 H   0  0  0  0  0  0  0  0  0  0  0  0
   38.0430   25.8690   43.1220 H   0  0  0  0  0  0  0  0  0  0  0  0
   36.3940   25.4140   42.7230 H   0  0  0  0  0  0  0  0  0  0  0  0
   36.6350   30.4030   40.5210 C   0  0  1  0  0  0  0  0  0  0  0  0
   36.4460   28.9280   40.4840 C   0  0  1  0  0  0  0  0  0  0  0  0
   36.2540   28.5350   39.1660 O   0  0  0  0  0  0  0  0  0  0  0  0
   36.7340   29.5470   38.3470 C   0  0  0  0  0  0  0  0  0  0  0  0
   36.2400   30.7730   39.0750 C   0  0  2  0  0  0  0  0  0  0  0  0
   37.6620   30.7330   40.6850 H   0  0  0  0  0  0  0  0  0  0  0  0
   35.5160   28.6870   41.0500 H   0  0  0  0  0  0  0  0  0  0  0  0
   36.3050   29.4040   37.3510 H   0  0  0  0  0  0  0  0  0  0  0  0
   37.8480   29.5430   38.3200 H   0  0  0  0  0  0  0  0  0  0  0  0
   35.1580   30.8790   39.0080 H   0  0  0  0  0  0  0  0  0  0  0  0
   35.7630   31.0500   41.3750 O   0  0  0  0  0  0  0  0  0  0  0  0
   35.6880   32.0090   41.2190 H   0  0  0  0  0  0  0  0  0  0  0  0
   36.9350   31.9140   38.6920 O   0  0  0  0  0  0  0  0  0  0  0  0
   38.2840   31.7200   38.9100 C   0  0  0  0  0  2  0  0  0  0  0  0
   39.0240   32.9360   39.1370 N   0  0  0  0  0  4  0  0  0  0  0  0
   39.2070   33.4310   38.2540 H   0  0  0  0  0  0  0  0  0  0  0  0
   38.2430   33.8180   40.0110 C   0  0  0  0  0  2  0  0  0  0  0  0
   38.6350   33.6580   41.0390 H   0  0  0  0  0  0  0  0  0  0  0  0
   40.3060   32.6440   39.7730 C   0  0  0  0  0  2  0  0  0  0  0  0
   40.8100   33.5930   39.9990 H   0  0  0  0  0  0  0  0  0  0  0  0
   38.0310   25.7660   40.4990 C   0  0  0  0  0  0  0  0  0  0  0  0
   37.9360   24.4360   40.9080 C   0  0  0  0  0  0  0  0  0  0  0  0
   38.6890   23.4450   40.2560 C   0  0  0  0  0  0  0  0  0  0  0  0
   39.4970   23.8890   39.2180 N   0  0  0  0  0  0  0  0  0  0  0  0
   39.5590   25.1910   38.8530 C   0  0  0  0  0  0  0  0  0  0  0  0
   38.8290   26.1220   39.4930 N   0  0  0  0  0  0  0  0  0  0  0  0
   37.3710   23.9540   41.6890 H   0  0  0  0  0  0  0  0  0  0  0  0
   38.6990   22.3900   40.4790 H   0  0  0  0  0  0  0  0  0  0  0  0
   40.2290   25.4100   38.0290 H   0  0  0  0  0  0  0  0  0  0  0  0
  1  7  1  6  0  0  0
  1  6  1  0  0  0  0
  2  8  1  6  0  0  0
  2  1  1  0  0  0  0
  2  3  1  0  0  0  0
  3 10  1  0  0  0  0
  3  4  1  0  0  0  0
  4  5  1  0  0  0  0
  4 12  1  0  0  0  0
  5 13  1  0  0  0  0
  6 16  1  0  0  0  0
  6 15  1  0  0  0  0
  6  5  1  0  0  0  0
  9  3  1  0  0  0  0
 11  4  1  0  0  0  0
 14  5  1  0  0  0  0
 17 22  1  1  0  0  0
 17 27  1  0  0  0  0
 18 17  1  0  0  0  0
 18  2  1  0  0  0  0
 18 23  1  1  0  0  0
 19 18  1  0  0  0  0
 20 21  1  0  0  0  0
 20 19  1  0  0  0  0
 21 26  1  6  0  0  0
 21 17  1  0  0  0  0
 24 20  1  0  0  0  0
 25 20  1  0  0  0  0
 28 27  1  0  0  0  0
 29 30  1  0  0  0  0
 29 21  1  0  0  0  0
 30 31  1  0  0  0  0
 31 35  1  0  0  0  0
 31 33  1  0  0  0  0
 32 31  1  0  0  0  0
 33 34  1  0  0  0  0
 35 36  1  0  0  0  0
 37 38  1  0  0  0  0
 37  1  1  0  0  0  0
 38 43  1  0  0  0  0
 39 44  1  0  0  0  0
 39 38  2  0  0  0  0
 40 39  1  0  0  0  0
 41 40  2  0  0  0  0
 41 42  1  0  0  0  0
 42 37  2  0  0  0  0
 45 41  1  0  0  0  0
M  END
>  <minimizedAffinity>
-5.57982683

$$$$

 OpenBabel03242517123D

 45 47  0  0  1  0  0  0  0  0999 V2000
   36.6990   28.5860   41.2950 C   0  0  2  0  0  0  0  0  0  0  0  0
   38.0100   29.2570   41.0740 C   0  0  2  0  0  0  0  0  0  0  0  0
   39.1380   28.5630   41.7400 C   0  0  0  0  0  0  0  0  0  0  0  0
   38.9220   28.2800   43.2020 C   0  0  0  0  0  0  0  0  0  0  0  0
   37.5070   27.9410   43.5530 C   0  0  0  0  0  0  0  0  0  0  0  0
   36.7000   27.5130   42.3430 C   0  0  0  0  0  0  0  0  0  0  0  0
   35.9540   29.3730   41.6180 H   0  0  0  0  0  0  0  0  0  0  0  0
   38.2210   29.2650   39.9830 H   0  0  0  0  0  0  0  0  0  0  0  0
   40.0570   29.1590   41.6120 H   0  0  0  0  0  0  0  0  0  0  0  0
   39.3300   27.5830   41.2370 H   0  0  0  0  0  0  0  0  0  0  0  0
   39.1930   29.2220   43.7580 H   0  0  0  0  0  0  0  0  0  0  0  0
   39.6540   27.5190   43.5250 H   0  0  0  0  0  0  0  0  0  0  0  0
   37.5550   27.0350   44.2070 H   0  0  0  0  0  0  0  0  0  0  0  0
   36.9850   28.7080   44.1420 H   0  0  0  0  0  0  0  0  0  0  0  0
   36.9460   26.5100   42.0350 H   0  0  0  0  0  0  0  0  0  0  0  0
   35.6350   27.4520   42.7270 H   0  0  0  0  0  0  0  0  0  0  0  0
   39.1140   31.5280   41.1330 C   0  0  1  0  0  0  0  0  0  0  0  0
   37.9310   30.7060   41.5030 C   0  0  1  0  0  0  0  0  0  0  0  0
   36.7990   31.2650   40.9240 O   0  0  0  0  0  0  0  0  0  0  0  0
   37.2170   32.0880   39.8870 C   0  0  0  0  0  0  0  0  0  0  0  0
   38.4180   32.7570   40.5080 C   0  0  2  0  0  0  0  0  0  0  0  0
   39.7650   31.0870   40.3770 H   0  0  0  0  0  0  0  0  0  0  0  0
   37.8080   30.7590   42.6110 H   0  0  0  0  0  0  0  0  0  0  0  0
   36.3920   32.7660   39.6450 H   0  0  0  0  0  0  0  0  0  0  0  0
   37.5290   31.4870   39.0020 H   0  0  0  0  0  0  0  0  0  0  0  0
   38.1350   33.4550   41.2950 H   0  0  0  0  0  0  0  0  0  0  0  0
   39.8440   31.9650   42.2220 O   0  0  0  0  0  0  0  0  0  0  0  0
   40.4480   32.7050   42.0270 H   0  0  0  0  0  0  0  0  0  0  0  0
   39.2540   33.3110   39.5460 O   0  0  0  0  0  0  0  0  0  0  0  0
   39.5510   32.3560   38.5960 C   0  0  0  0  0  2  0  0  0  0  0  0
   40.5410   32.7710   37.6330 N   0  0  0  0  0  4  0  0  0  0  0  0
   40.1020   33.2220   36.8200 H   0  0  0  0  0  0  0  0  0  0  0  0
   41.4500   33.7340   38.2640 C   0  0  0  0  0  2  0  0  0  0  0  0
   42.3410   33.1510   38.5850 H   0  0  0  0  0  0  0  0  0  0  0  0
   41.3100   31.6240   37.1620 C   0  0  0  0  0  2  0  0  0  0  0  0
   42.1000   31.9830   36.4900 H   0  0  0  0  0  0  0  0  0  0  0  0
   36.1370   28.0260   40.0500 C   0  0  0  0  0  0  0  0  0  0  0  0
   36.5630   26.7350   39.7410 C   0  0  0  0  0  0  0  0  0  0  0  0
   36.0900   26.0980   38.5800 C   0  0  0  0  0  0  0  0  0  0  0  0
   35.2050   26.8370   37.8070 N   0  0  0  0  0  0  0  0  0  0  0  0
   34.8180   28.0900   38.1450 C   0  0  0  0  0  0  0  0  0  0  0  0
   35.2840   28.6780   39.2610 N   0  0  0  0  0  0  0  0  0  0  0  0
   37.2410   26.0550   40.2300 H   0  0  0  0  0  0  0  0  0  0  0  0
   36.3440   25.1080   38.2380 H   0  0  0  0  0  0  0  0  0  0  0  0
   34.1240   28.5610   37.4580 H   0  0  0  0  0  0  0  0  0  0  0  0
  1  7  1  1  0  0  0
  1  6  1  0  0  0  0
  2  8  1  6  0  0  0
  2  1  1  0  0  0  0
  2 18  1  0  0  0  0
  2  3  1  0  0  0  0
  3  4  1  0  0  0  0
  4 12  1  0  0  0  0
  4  5  1  0  0  0  0
  4 11  1  0  0  0  0
  5 14  1  0  0  0  0
  5 13  1  0  0  0  0
  6 16  1  0  0  0  0
  6  5  1  0  0  0  0
  9  3  1  0  0  0  0
 10  3  1  0  0  0  0
 15  6  1  0  0  0  0
 17 22  1  6  0  0  0
 17 18  1  0  0  0  0
 17 27  1  0  0  0  0
 18 23  1  1  0  0  0
 19 18  1  0  0  0  0
 20 21  1  0  0  0  0
 20 19  1  0  0  0  0
 21 17  1  0  0  0  0
 21 26  1  1  0  0  0
 24 20  1  0  0  0  0
 25 20  1  0  0  0  0
 28 27  1  0  0  0  0
 29 21  1  0  0  0  0
 30 29  1  0  0  0  0
 31 33  1  0  0  0  0
 31 30  1  0  0  0  0
 32 31  1  0  0  0  0
 33 34  1  0  0  0  0
 35 31  1  0  0  0  0
 36 35  1  0  0  0  0
 37  1  1  0  0  0  0
 38 37  1  0  0  0  0
 38 43  1  0  0  0  0
 39 38  2  0  0  0  0
 40 41  2  0  0  0  0
 40 39  1  0  0  0  0
 41 42  1  0  0  0  0
 42 37  2  0  0  0  0
 44 39  1  0  0  0  0
 45 41  1  0  0  0  0
M  END
>  <minimizedAffinity>
-5.50194979

$$$$

 OpenBabel03242517123D

 45 47  0  0  1  0  0  0  0  0999 V2000
   38.1560   30.5310   40.2720 C   0  0  2  0  0  0  0  0  0  0  0  0
   39.4430   31.1720   39.8800 C   0  0  2  0  0  0  0  0  0  0  0  0
   39.4640   32.6330   40.1310 C   0  0  0  0  0  0  0  0  0  0  0  0
   38.2940   33.3830   39.5560 C   0  0  0  0  0  0  0  0  0  0  0  0
   37.0050   32.6240   39.5960 C   0  0  0  0  0  0  0  0  0  0  0  0
   37.0410   31.4810   40.5900 C   0  0  0  0  0  0  0  0  0  0  0  0
   37.8130   29.8810   39.4120 H   0  0  0  0  0  0  0  0  0  0  0  0
   40.2590   30.7180   40.4820 H   0  0  0  0  0  0  0  0  0  0  0  0
   40.4030   33.0550   39.7370 H   0  0  0  0  0  0  0  0  0  0  0  0
   39.4740   32.8270   41.2330 H   0  0  0  0  0  0  0  0  0  0  0  0
   38.5370   33.5820   38.4740 H   0  0  0  0  0  0  0  0  0  0  0  0
   38.2400   34.3750   40.0390 H   0  0  0  0  0  0  0  0  0  0  0  0
   36.2360   33.3330   39.9940 H   0  0  0  0  0  0  0  0  0  0  0  0
   36.6340   32.3000   38.6140 H   0  0  0  0  0  0  0  0  0  0  0  0
   36.9550   31.8320   41.6060 H   0  0  0  0  0  0  0  0  0  0  0  0
   36.0810   30.9100   40.3930 H   0  0  0  0  0  0  0  0  0  0  0  0
   40.6940   31.8180   37.7840 C   0  0  1  0  0  0  0  0  0  0  0  0
   39.7570   30.8630   38.4320 C   0  0  1  0  0  0  0  0  0  0  0  0
   40.3050   29.5880   38.3740 O   0  0  0  0  0  0  0  0  0  0  0  0
   41.6680   29.7240   38.1470 C   0  0  0  0  0  0  0  0  0  0  0  0
   41.6870   30.8350   37.1260 C   0  0  2  0  0  0  0  0  0  0  0  0
   41.2540   32.4550   38.4700 H   0  0  0  0  0  0  0  0  0  0  0  0
   38.8110   30.8540   37.8410 H   0  0  0  0  0  0  0  0  0  0  0  0
   42.0430   28.7630   37.7820 H   0  0  0  0  0  0  0  0  0  0  0  0
   42.1960   30.0470   39.0730 H   0  0  0  0  0  0  0  0  0  0  0  0
   41.2950   30.5100   36.1620 H   0  0  0  0  0  0  0  0  0  0  0  0
   40.1110   32.5650   36.7770 O   0  0  0  0  0  0  0  0  0  0  0  0
   40.7500   32.9900   36.1750 H   0  0  0  0  0  0  0  0  0  0  0  0
   42.9360   31.4380   37.0440 O   0  0  0  0  0  0  0  0  0  0  0  0
   43.7080   30.7610   36.1220 C   0  0  0  0  0  2  0  0  0  0  0  0
   44.9310   31.4390   35.7680 N   0  0  0  0  0  4  0  0  0  0  0  0
   44.7400   32.3540   35.3420 H   0  0  0  0  0  0  0  0  0  0  0  0
   45.7310   31.6490   36.9800 C   0  0  0  0  0  2  0  0  0  0  0  0
   46.4690   30.8180   37.0090 H   0  0  0  0  0  0  0  0  0  0  0  0
   45.7020   30.6420   34.8180 C   0  0  0  0  0  2  0  0  0  0  0  0
   46.6560   31.1490   34.6280 H   0  0  0  0  0  0  0  0  0  0  0  0
   38.3170   29.5970   41.4050 C   0  0  0  0  0  0  0  0  0  0  0  0
   37.1250   29.1320   41.9580 C   0  0  0  0  0  0  0  0  0  0  0  0
   37.1540   28.2350   43.0390 C   0  0  0  0  0  0  0  0  0  0  0  0
   38.4180   27.8720   43.4850 N   0  0  0  0  0  0  0  0  0  0  0  0
   39.5520   28.3490   42.9190 C   0  0  0  0  0  0  0  0  0  0  0  0
   39.4970   29.2080   41.8850 N   0  0  0  0  0  0  0  0  0  0  0  0
   36.0900   29.3290   41.7280 H   0  0  0  0  0  0  0  0  0  0  0  0
   36.3050   27.8070   43.5470 H   0  0  0  0  0  0  0  0  0  0  0  0
   40.4760   27.9910   43.3600 H   0  0  0  0  0  0  0  0  0  0  0  0
  1  7  1  6  0  0  0
  1  6  1  0  0  0  0
  1 37  1  0  0  0  0
  2  3  1  0  0  0  0
  2  1  1  0  0  0  0
  2  8  1  1  0  0  0
  3 10  1  0  0  0  0
  4  5  1  0  0  0  0
  4 12  1  0  0  0  0
  4  3  1  0  0  0  0
  5 13  1  0  0  0  0
  5  6  1  0  0  0  0
  6 15  1  0  0  0  0
  9  3  1  0  0  0  0
 11  4  1  0  0  0  0
 14  5  1  0  0  0  0
 16  6  1  0  0  0  0
 17 18  1  0  0  0  0
 17 22  1  1  0  0  0
 18 23  1  6  0  0  0
 18  2  1  0  0  0  0
 19 18  1  0  0  0  0
 20 19  1  0  0  0  0
 20 25  1  0  0  0  0
 21 26  1  6  0  0  0
 21 17  1  0  0  0  0
 21 20  1  0  0  0  0
 24 20  1  0  0  0  0
 27 17  1  0  0  0  0
 28 27  1  0  0  0  0
 29 21  1  0  0  0  0
 30 29  1  0  0  0  0
 31 30  1  0  0  0  0
 31 33  1  0  0  0  0
 32 31  1  0  0  0  0
 33 34  1  0  0  0  0
 35 31  1  0  0  0  0
 36 35  1  0  0  0  0
 37 42  2  0  0  0  0
 37 38  1  0  0  0  0
 38 39  2  0  0  0  0
 39 40  1  0  0  0  0
 39 44  1  0  0  0  0
 41 45  1  0  0  0  0
 41 40  2  0  0  0  0
 42 41  1  0  0  0  0
 43 38  1  0  0  0  0
M  END
>  <minimizedAffinity>
-5.33904219

$$$$

 OpenBabel03242517123D

 45 47  0  0  1  0  0  0  0  0999 V2000
   37.1070   27.9670   39.7390 C   0  0  2  0  0  0  0  0  0  0  0  0
   36.5430   29.2040   40.3480 C   0  0  2  0  0  0  0  0  0  0  0  0
   35.0610   29.2390   40.3260 C   0  0  0  0  0  0  0  0  0  0  0  0
   34.4500   28.9800   38.9750 C   0  0  0  0  0  0  0  0  0  0  0  0
   35.1990   27.9810   38.1500 C   0  0  0  0  0  0  0  0  0  0  0  0
   36.1240   27.1200   38.9870 C   0  0  0  0  0  0  0  0  0  0  0  0
   37.9160   28.2740   39.0100 H   0  0  0  0  0  0  0  0  0  0  0  0
   36.8620   29.2480   41.4120 H   0  0  0  0  0  0  0  0  0  0  0  0
   34.7150   30.2140   40.7070 H   0  0  0  0  0  0  0  0  0  0  0  0
   34.6530   28.4680   41.0280 H   0  0  0  0  0  0  0  0  0  0  0  0
   34.4650   29.9600   38.4200 H   0  0  0  0  0  0  0  0  0  0  0  0
   33.3830   28.7290   39.1150 H   0  0  0  0  0  0  0  0  0  0  0  0
   34.4330   27.2750   37.7420 H   0  0  0  0  0  0  0  0  0  0  0  0
   35.7130   28.4040   37.2760 H   0  0  0  0  0  0  0  0  0  0  0  0
   35.5800   26.3710   39.5400 H   0  0  0  0  0  0  0  0  0  0  0  0
   36.7310   26.5420   38.2240 H   0  0  0  0  0  0  0  0  0  0  0  0
   37.4710   31.5380   40.6020 C   0  0  1  0  0  0  0  0  0  0  0  0
   37.1270   30.4270   39.6760 C   0  0  1  0  0  0  0  0  0  0  0  0
   38.2740   30.0380   38.9970 O   0  0  0  0  0  0  0  0  0  0  0  0
   39.3680   30.4960   39.7180 C   0  0  0  0  0  0  0  0  0  0  0  0
   38.9000   31.8730   40.1200 C   0  0  2  0  0  0  0  0  0  0  0  0
   37.5260   31.2620   41.6560 H   0  0  0  0  0  0  0  0  0  0  0  0
   36.4020   30.8190   38.9230 H   0  0  0  0  0  0  0  0  0  0  0  0
   40.2360   30.4860   39.0520 H   0  0  0  0  0  0  0  0  0  0  0  0
   39.5380   29.8710   40.6250 H   0  0  0  0  0  0  0  0  0  0  0  0
   38.8490   32.5510   39.2690 H   0  0  0  0  0  0  0  0  0  0  0  0
   36.6920   32.6670   40.4250 O   0  0  0  0  0  0  0  0  0  0  0  0
   37.0640   33.4750   40.8210 H   0  0  0  0  0  0  0  0  0  0  0  0
   39.6330   32.3750   41.1880 O   0  0  0  0  0  0  0  0  0  0  0  0
   40.9210   32.6420   40.7700 C   0  0  0  0  0  2  0  0  0  0  0  0
   41.8200   33.0160   41.8340 N   0  0  0  0  0  4  0  0  0  0  0  0
   41.3150   33.4750   42.6030 H   0  0  0  0  0  0  0  0  0  0  0  0
   42.4700   31.8110   42.3600 C   0  0  0  0  0  2  0  0  0  0  0  0
   43.4590   31.7500   41.8560 H   0  0  0  0  0  0  0  0  0  0  0  0
   42.8420   33.9350   41.3420 C   0  0  0  0  0  2  0  0  0  0  0  0
   43.5500   34.1410   42.1550 H   0  0  0  0  0  0  0  0  0  0  0  0
   37.7980   27.1180   40.7300 C   0  0  0  0  0  0  0  0  0  0  0  0
   37.0670   26.0170   41.1730 C   0  0  0  0  0  0  0  0  0  0  0  0
   37.6250   25.1350   42.1150 C   0  0  0  0  0  0  0  0  0  0  0  0
   38.9090   25.4460   42.5420 N   0  0  0  0  0  0  0  0  0  0  0  0
   39.5830   26.5270   42.0850 C   0  0  0  0  0  0  0  0  0  0  0  0
   39.0270   27.3570   41.1840 N   0  0  0  0  0  0  0  0  0  0  0  0
   36.0750   25.6600   40.9430 H   0  0  0  0  0  0  0  0  0  0  0  0
   37.1610   24.2540   42.5290 H   0  0  0  0  0  0  0  0  0  0  0  0
   40.5780   26.6620   42.4970 H   0  0  0  0  0  0  0  0  0  0  0  0
  1  7  1  6  0  0  0
  1  2  1  0  0  0  0
  1 37  1  0  0  0  0
  2  8  1  1  0  0  0
  3  2  1  0  0  0  0
  3  9  1  0  0  0  0
  3 10  1  0  0  0  0
  4 12  1  0  0  0  0
  4  3  1  0  0  0  0
  5  4  1  0  0  0  0
  5  6  1  0  0  0  0
  6 15  1  0  0  0  0
  6  1  1  0  0  0  0
 11  4  1  0  0  0  0
 13  5  1  0  0  0  0
 14  5  1  0  0  0  0
 16  6  1  0  0  0  0
 17 22  1  1  0  0  0
 18 23  1  6  0  0  0
 18  2  1  0  0  0  0
 18 17  1  0  0  0  0
 19 18  1  0  0  0  0
 19 20  1  0  0  0  0
 20 21  1  0  0  0  0
 20 25  1  0  0  0  0
 21 26  1  6  0  0  0
 21 17  1  0  0  0  0
 21 29  1  0  0  0  0
 24 20  1  0  0  0  0
 27 17  1  0  0  0  0
 27 28  1  0  0  0  0
 30 29  1  0  0  0  0
 30 31  1  0  0  0  0
 31 33  1  0  0  0  0
 31 32  1  0  0  0  0
 34 33  1  0  0  0  0
 35 31  1  0  0  0  0
 35 36  1  0  0  0  0
 37 38  2  0  0  0  0
 37 42  1  0  0  0  0
 38 39  1  0  0  0  0
 39 44  1  0  0  0  0
 39 40  2  0  0  0  0
 41 45  1  0  0  0  0
 41 40  1  0  0  0  0
 42 41  2  0  0  0  0
 43 38  1  0  0  0  0
M  END
>  <minimizedAffinity>
-5.28148603

$$$$

 OpenBabel03242517123D

 45 47  0  0  1  0  0  0  0  0999 V2000
   36.3870   27.4700   38.5850 C   0  0  2  0  0  0  0  0  0  0  0  0
   35.5060   28.4430   39.2900 C   0  0  2  0  0  0  0  0  0  0  0  0
   34.2550   28.7350   38.5500 C   0  0  0  0  0  0  0  0  0  0  0  0
   34.4560   29.1360   37.1130 C   0  0  0  0  0  0  0  0  0  0  0  0
   35.5920   28.4310   36.4390 C   0  0  0  0  0  0  0  0  0  0  0  0
   36.0000   27.1680   37.1690 C   0  0  0  0  0  0  0  0  0  0  0  0
   37.4340   27.8970   38.5660 H   0  0  0  0  0  0  0  0  0  0  0  0
   35.2200   28.0110   40.2720 H   0  0  0  0  0  0  0  0  0  0  0  0
   33.6960   29.5250   39.0790 H   0  0  0  0  0  0  0  0  0  0  0  0
   33.5940   27.8320   38.5530 H   0  0  0  0  0  0  0  0  0  0  0  0
   34.6930   30.2370   37.1150 H   0  0  0  0  0  0  0  0  0  0  0  0
   33.4930   29.0360   36.5820 H   0  0  0  0  0  0  0  0  0  0  0  0
   35.2010   28.0840   35.4500 H   0  0  0  0  0  0  0  0  0  0  0  0
   36.4560   29.0700   36.2120 H   0  0  0  0  0  0  0  0  0  0  0  0
   35.3000   26.3650   36.9990 H   0  0  0  0  0  0  0  0  0  0  0  0
   36.9540   26.8420   36.6480 H   0  0  0  0  0  0  0  0  0  0  0  0
   36.3720   30.0520   41.0330 C   0  0  1  0  0  0  0  0  0  0  0  0
   36.2710   29.7140   39.5890 C   0  0  1  0  0  0  0  0  0  0  0  0
   37.5520   29.5770   39.0710 O   0  0  0  0  0  0  0  0  0  0  0  0
   38.4190   29.3670   40.1340 C   0  0  0  0  0  0  0  0  0  0  0  0
   37.8830   30.3480   41.1470 C   0  0  2  0  0  0  0  0  0  0  0  0
   36.1360   29.2350   41.7170 H   0  0  0  0  0  0  0  0  0  0  0  0
   35.7840   30.5720   39.0680 H   0  0  0  0  0  0  0  0  0  0  0  0
   39.4340   29.5800   39.7860 H   0  0  0  0  0  0  0  0  0  0  0  0
   38.3270   28.3270   40.5240 H   0  0  0  0  0  0  0  0  0  0  0  0
   38.0750   31.3810   40.8570 H   0  0  0  0  0  0  0  0  0  0  0  0
   35.6890   31.2020   41.3800 O   0  0  0  0  0  0  0  0  0  0  0  0
   35.9540   31.5800   42.2390 H   0  0  0  0  0  0  0  0  0  0  0  0
   38.3090   30.0440   42.4350 O   0  0  0  0  0  0  0  0  0  0  0  0
   38.8100   28.7590   42.4560 C   0  0  0  0  0  2  0  0  0  0  0  0
   38.4870   28.0210   43.6520 N   0  0  0  0  0  4  0  0  0  0  0  0
   38.7390   28.5510   44.4960 H   0  0  0  0  0  0  0  0  0  0  0  0
   37.0430   27.7610   43.6800 C   0  0  0  0  0  2  0  0  0  0  0  0
   36.9080   26.7310   43.2830 H   0  0  0  0  0  0  0  0  0  0  0  0
   39.2020   26.7480   43.6780 C   0  0  0  0  0  2  0  0  0  0  0  0
   38.8780   26.1810   44.5600 H   0  0  0  0  0  0  0  0  0  0  0  0
   36.5150   26.1950   39.3200 C   0  0  0  0  0  0  0  0  0  0  0  0
   36.1520   25.0600   38.5970 C   0  0  0  0  0  0  0  0  0  0  0  0
   36.2370   23.7900   39.1940 C   0  0  0  0  0  0  0  0  0  0  0  0
   36.6940   23.7710   40.5050 N   0  0  0  0  0  0  0  0  0  0  0  0
   37.0350   24.8990   41.1700 C   0  0  0  0  0  0  0  0  0  0  0  0
   36.9450   26.1040   40.5780 N   0  0  0  0  0  0  0  0  0  0  0  0
   35.7780   24.9240   37.5960 H   0  0  0  0  0  0  0  0  0  0  0  0
   35.9870   22.8450   38.7390 H   0  0  0  0  0  0  0  0  0  0  0  0
   37.3760   24.7510   42.1900 H   0  0  0  0  0  0  0  0  0  0  0  0
  1  7  1  6  0  0  0
  1  2  1  0  0  0  0
  1 37  1  0  0  0  0
  2 18  1  0  0  0  0
  2  8  1  1  0  0  0
  3 10  1  0  0  0  0
  3  9  1  0  0  0  0
  3  2  1  0  0  0  0
  4 11  1  0  0  0  0
  4  3  1  0  0  0  0
  5  4  1  0  0  0  0
  5  6  1  0  0  0  0
  6  1  1  0  0  0  0
 12  4  1  0  0  0  0
 13  5  1  0  0  0  0
 14  5  1  0  0  0  0
 15  6  1  0  0  0  0
 16  6  1  0  0  0  0
 17 21  1  0  0  0  0
 17 27  1  0  0  0  0
 17 22  1  1  0  0  0
 18 23  1  6  0  0  0
 18 17  1  0  0  0  0
 19 18  1  0  0  0  0
 19 20  1  0  0  0  0
 20 25  1  0  0  0  0
 20 21  1  0  0  0  0
 21 26  1  6  0  0  0
 21 29  1  0  0  0  0
 24 20  1  0  0  0  0
 27 28  1  0  0  0  0
 29 30  1  0  0  0  0
 30 31  1  0  0  0  0
 31 35  1  0  0  0  0
 31 33  1  0  0  0  0
 31 32  1  0  0  0  0
 34 33  1  0  0  0  0
 35 36  1  0  0  0  0
 37 42  1  0  0  0  0
 38 39  1  0  0  0  0
 38 37  2  0  0  0  0
 39 40  2  0  0  0  0
 40 41  1  0  0  0  0
 41 45  1  0  0  0  0
 42 41  2  0  0  0  0
 43 38  1  0  0  0  0
 44 39  1  0  0  0  0
M  END
>  <minimizedAffinity>
-5.27638674

$$$$

 OpenBabel03242517123D

 45 47  0  0  1  0  0  0  0  0999 V2000
   37.2270   30.5390   41.2140 C   0  0  2  0  0  0  0  0  0  0  0  0
   38.0420   29.2920   41.2270 C   0  0  2  0  0  0  0  0  0  0  0  0
   37.6160   28.3100   40.2010 C   0  0  0  0  0  0  0  0  0  0  0  0
   36.1460   27.9890   40.2150 C   0  0  0  0  0  0  0  0  0  0  0  0
   35.2720   29.1550   40.5600 C   0  0  0  0  0  0  0  0  0  0  0  0
   35.9840   30.4810   40.3790 C   0  0  0  0  0  0  0  0  0  0  0  0
   36.9100   30.7600   42.2780 H   0  0  0  0  0  0  0  0  0  0  0  0
   39.0990   29.5610   41.0130 H   0  0  0  0  0  0  0  0  0  0  0  0
   38.1970   27.3810   40.3250 H   0  0  0  0  0  0  0  0  0  0  0  0
   37.8620   28.6970   39.1810 H   0  0  0  0  0  0  0  0  0  0  0  0
   35.9930   27.2040   41.0080 H   0  0  0  0  0  0  0  0  0  0  0  0
   35.8830   27.5060   39.2580 H   0  0  0  0  0  0  0  0  0  0  0  0
   34.4470   29.1610   39.8060 H   0  0  0  0  0  0  0  0  0  0  0  0
   34.7830   29.0840   41.5410 H   0  0  0  0  0  0  0  0  0  0  0  0
   36.0650   30.7510   39.3380 H   0  0  0  0  0  0  0  0  0  0  0  0
   35.2720   31.2420   40.8260 H   0  0  0  0  0  0  0  0  0  0  0  0
   37.7510   27.2170   42.6360 C   0  0  1  0  0  0  0  0  0  0  0  0
   38.0300   28.6770   42.6090 C   0  0  1  0  0  0  0  0  0  0  0  0
   39.2690   28.9070   43.1930 O   0  0  0  0  0  0  0  0  0  0  0  0
   39.9700   27.7090   43.1840 C   0  0  0  0  0  0  0  0  0  0  0  0
   38.8860   26.7310   43.5640 C   0  0  2  0  0  0  0  0  0  0  0  0
   37.8580   26.7080   41.6770 H   0  0  0  0  0  0  0  0  0  0  0  0
   37.2590   29.1860   43.2350 H   0  0  0  0  0  0  0  0  0  0  0  0
   40.7840   27.7920   43.9100 H   0  0  0  0  0  0  0  0  0  0  0  0
   40.3510   27.4780   42.1620 H   0  0  0  0  0  0  0  0  0  0  0  0
   38.5800   26.8430   44.6030 H   0  0  0  0  0  0  0  0  0  0  0  0
   36.5480   26.8950   43.2370 O   0  0  0  0  0  0  0  0  0  0  0  0
   36.4710   25.9600   43.5000 H   0  0  0  0  0  0  0  0  0  0  0  0
   39.2250   25.4270   43.2210 O   0  0  0  0  0  0  0  0  0  0  0  0
   39.9420   25.4380   42.0420 C   0  0  0  0  0  2  0  0  0  0  0  0
   39.2010   24.9670   40.8990 N   0  0  0  0  0  4  0  0  0  0  0  0
   38.3960   25.5750   40.7010 H   0  0  0  0  0  0  0  0  0  0  0  0
   40.0810   24.9650   39.7250 C   0  0  0  0  0  2  0  0  0  0  0  0
   40.4560   23.9240   39.6230 H   0  0  0  0  0  0  0  0  0  0  0  0
   38.7090   23.6130   41.1300 C   0  0  0  0  0  2  0  0  0  0  0  0
   38.2150   23.2580   40.2160 H   0  0  0  0  0  0  0  0  0  0  0  0
   38.0140   31.7200   40.8050 C   0  0  0  0  0  0  0  0  0  0  0  0
   37.2880   32.7130   40.1490 C   0  0  0  0  0  0  0  0  0  0  0  0
   37.9320   33.8850   39.7170 C   0  0  0  0  0  0  0  0  0  0  0  0
   39.2910   33.9600   39.9900 N   0  0  0  0  0  0  0  0  0  0  0  0
   39.9580   32.9710   40.6300 C   0  0  0  0  0  0  0  0  0  0  0  0
   39.3190   31.8580   41.0340 N   0  0  0  0  0  0  0  0  0  0  0  0
   36.2510   32.7880   39.8640 H   0  0  0  0  0  0  0  0  0  0  0  0
   37.4800   34.7180   39.2030 H   0  0  0  0  0  0  0  0  0  0  0  0
   41.0170   33.1480   40.7810 H   0  0  0  0  0  0  0  0  0  0  0  0
  1  2  1  0  0  0  0
  1  7  1  1  0  0  0
  2  8  1  6  0  0  0
  2 18  1  0  0  0  0
  3  4  1  0  0  0  0
  3  9  1  0  0  0  0
  3  2  1  0  0  0  0
  4  5  1  0  0  0  0
  4 11  1  0  0  0  0
  5 14  1  0  0  0  0
  6  5  1  0  0  0  0
  6 16  1  0  0  0  0
  6  1  1  0  0  0  0
 10  3  1  0  0  0  0
 12  4  1  0  0  0  0
 13  5  1  0  0  0  0
 15  6  1  0  0  0  0
 17 22  1  6  0  0  0
 17 27  1  0  0  0  0
 17 21  1  0  0  0  0
 18 17  1  0  0  0  0
 18 19  1  0  0  0  0
 18 23  1  1  0  0  0
 20 19  1  0  0  0  0
 20 21  1  0  0  0  0
 20 24  1  0  0  0  0
 21 26  1  1  0  0  0
 25 20  1  0  0  0  0
 27 28  1  0  0  0  0
 29 21  1  0  0  0  0
 30 29  1  0  0  0  0
 31 35  1  0  0  0  0
 31 30  1  0  0  0  0
 32 31  1  0  0  0  0
 33 31  1  0  0  0  0
 34 33  1  0  0  0  0
 36 35  1  0  0  0  0
 37 42  1  0  0  0  0
 37  1  1  0  0  0  0
 38 37  2  0  0  0  0
 39 40  2  0  0  0  0
 39 38  1  0  0  0  0
 40 41  1  0  0  0  0
 41 45  1  0  0  0  0
 41 42  2  0  0  0  0
 43 38  1  0  0  0  0
 44 39  1  0  0  0  0
M  END
>  <minimizedAffinity>
-5.18650436

$$$$

 OpenBabel03242517123D

 45 47  0  0  1  0  0  0  0  0999 V2000
   39.7740   31.8800   39.8680 C   0  0  2  0  0  0  0  0  0  0  0  0
   38.3830   31.3570   39.7580 C   0  0  2  0  0  0  0  0  0  0  0  0
   37.4680   32.2850   39.0530 C   0  0  0  0  0  0  0  0  0  0  0  0
   37.4710   33.6930   39.5870 C   0  0  0  0  0  0  0  0  0  0  0  0
   38.8120   34.1610   40.0600 C   0  0  0  0  0  0  0  0  0  0  0  0
   39.9440   33.3230   39.5000 C   0  0  0  0  0  0  0  0  0  0  0  0
   40.1080   31.7630   40.9420 H   0  0  0  0  0  0  0  0  0  0  0  0
   38.4090   30.4090   39.1790 H   0  0  0  0  0  0  0  0  0  0  0  0
   36.4430   31.8800   39.0880 H   0  0  0  0  0  0  0  0  0  0  0  0
   37.7440   32.3400   37.9700 H   0  0  0  0  0  0  0  0  0  0  0  0
   36.7750   33.7040   40.4720 H   0  0  0  0  0  0  0  0  0  0  0  0
   37.0100   34.3550   38.8330 H   0  0  0  0  0  0  0  0  0  0  0  0
   38.9590   35.1800   39.6240 H   0  0  0  0  0  0  0  0  0  0  0  0
   38.8940   34.2850   41.1480 H   0  0  0  0  0  0  0  0  0  0  0  0
   40.1410   33.5580   38.4660 H   0  0  0  0  0  0  0  0  0  0  0  0
   40.8600   33.6820   40.0640 H   0  0  0  0  0  0  0  0  0  0  0  0
   36.6700   30.1020   41.1240 C   0  0  1  0  0  0  0  0  0  0  0  0
   37.8510   31.0040   41.1300 C   0  0  1  0  0  0  0  0  0  0  0  0
   38.8750   30.3970   41.8450 O   0  0  0  0  0  0  0  0  0  0  0  0
   38.5980   29.0380   41.9100 C   0  0  0  0  0  0  0  0  0  0  0  0
   37.1120   29.0530   42.1690 C   0  0  2  0  0  0  0  0  0  0  0  0
   36.4890   29.5840   40.1820 H   0  0  0  0  0  0  0  0  0  0  0  0
   37.5680   31.9390   41.6700 H   0  0  0  0  0  0  0  0  0  0  0  0
   39.1980   28.6120   42.7200 H   0  0  0  0  0  0  0  0  0  0  0  0
   38.8110   28.5410   40.9350 H   0  0  0  0  0  0  0  0  0  0  0  0
   36.8760   29.4130   43.1700 H   0  0  0  0  0  0  0  0  0  0  0  0
   35.5150   30.7010   41.5910 O   0  0  0  0  0  0  0  0  0  0  0  0
   34.8130   30.0730   41.8430 H   0  0  0  0  0  0  0  0  0  0  0  0
   36.5230   27.8320   41.8630 O   0  0  0  0  0  0  0  0  0  0  0  0
   36.9750   26.8750   42.7490 C   0  0  0  0  0  2  0  0  0  0  0  0
   37.1980   25.5810   42.1540 N   0  0  0  0  0  4  0  0  0  0  0  0
   36.5920   24.8670   42.5780 H   0  0  0  0  0  0  0  0  0  0  0  0
   36.8980   25.6540   40.7200 C   0  0  0  0  0  2  0  0  0  0  0  0
   37.8740   25.8030   40.2080 H   0  0  0  0  0  0  0  0  0  0  0  0
   38.5870   25.1680   42.3320 C   0  0  0  0  0  2  0  0  0  0  0  0
   38.7410   24.2180   41.8050 H   0  0  0  0  0  0  0  0  0  0  0  0
   40.7380   31.0780   39.0870 C   0  0  0  0  0  0  0  0  0  0  0  0
   41.7070   31.8180   38.4110 C   0  0  0  0  0  0  0  0  0  0  0  0
   42.6800   31.1620   37.6380 C   0  0  0  0  0  0  0  0  0  0  0  0
   42.5930   29.7770   37.6110 N   0  0  0  0  0  0  0  0  0  0  0  0
   41.6330   29.0970   38.2830 C   0  0  0  0  0  0  0  0  0  0  0  0
   40.7120   29.7480   39.0160 N   0  0  0  0  0  0  0  0  0  0  0  0
   41.8910   32.8780   38.3320 H   0  0  0  0  0  0  0  0  0  0  0  0
   43.4760   31.6220   37.0750 H   0  0  0  0  0  0  0  0  0  0  0  0
   41.6710   28.0180   38.1800 H   0  0  0  0  0  0  0  0  0  0  0  0
  1  7  1  1  0  0  0
  2  8  1  6  0  0  0
  2  1  1  0  0  0  0
  2 18  1  0  0  0  0
  3  9  1  0  0  0  0
  3  4  1  0  0  0  0
  3  2  1  0  0  0  0
  4  5  1  0  0  0  0
  4 11  1  0  0  0  0
  5 14  1  0  0  0  0
  6  1  1  0  0  0  0
  6  5  1  0  0  0  0
  6 16  1  0  0  0  0
 10  3  1  0  0  0  0
 12  4  1  0  0  0  0
 13  5  1  0  0  0  0
 15  6  1  0  0  0  0
 17 22  1  6  0  0  0
 17 18  1  0  0  0  0
 17 27  1  0  0  0  0
 17 21  1  0  0  0  0
 18 23  1  1  0  0  0
 18 19  1  0  0  0  0
 19 20  1  0  0  0  0
 20 21  1  0  0  0  0
 20 24  1  0  0  0  0
 21 26  1  1  0  0  0
 25 20  1  0  0  0  0
 27 28  1  0  0  0  0
 29 21  1  0  0  0  0
 29 30  1  0  0  0  0
 31 35  1  0  0  0  0
 31 32  1  0  0  0  0
 31 30  1  0  0  0  0
 33 31  1  0  0  0  0
 34 33  1  0  0  0  0
 36 35  1  0  0  0  0
 37  1  1  0  0  0  0
 38 37  2  0  0  0  0
 39 38  1  0  0  0  0
 40 39  2  0  0  0  0
 40 41  1  0  0  0  0
 41 42  2  0  0  0  0
 42 37  1  0  0  0  0
 43 38  1  0  0  0  0
 44 39  1  0  0  0  0
 45 41  1  0  0  0  0
M  END
>  <minimizedAffinity>
-5.13843393

$$$$

 OpenBabel03242517123D

 45 47  0  0  1  0  0  0  0  0999 V2000
   36.7230   26.1100   39.8780 C   0  0  2  0  0  0  0  0  0  0  0  0
   37.4580   27.2730   40.4510 C   0  0  2  0  0  0  0  0  0  0  0  0
   38.4750   26.8800   41.4550 C   0  0  0  0  0  0  0  0  0  0  0  0
   37.9620   25.9790   42.5460 C   0  0  0  0  0  0  0  0  0  0  0  0
   36.9260   25.0000   42.0900 C   0  0  0  0  0  0  0  0  0  0  0  0
   36.9400   24.8070   40.5870 C   0  0  0  0  0  0  0  0  0  0  0  0
   35.6160   26.3400   39.9230 H   0  0  0  0  0  0  0  0  0  0  0  0
   37.9880   27.7950   39.6260 H   0  0  0  0  0  0  0  0  0  0  0  0
   38.9140   27.7870   41.9020 H   0  0  0  0  0  0  0  0  0  0  0  0
   39.3170   26.3430   40.9500 H   0  0  0  0  0  0  0  0  0  0  0  0
   37.4820   26.6470   43.3170 H   0  0  0  0  0  0  0  0  0  0  0  0
   38.8260   25.5100   43.0500 H   0  0  0  0  0  0  0  0  0  0  0  0
   37.2250   24.0090   42.5140 H   0  0  0  0  0  0  0  0  0  0  0  0
   35.9140   25.1960   42.4680 H   0  0  0  0  0  0  0  0  0  0  0  0
   37.7690   24.1950   40.2700 H   0  0  0  0  0  0  0  0  0  0  0  0
   36.0160   24.1820   40.3790 H   0  0  0  0  0  0  0  0  0  0  0  0
   37.1040   29.4970   41.5930 C   0  0  1  0  0  0  0  0  0  0  0  0
   36.4790   28.2720   41.0300 C   0  0  1  0  0  0  0  0  0  0  0  0
   35.5970   28.6420   40.0230 O   0  0  0  0  0  0  0  0  0  0  0  0
   35.9350   29.9250   39.6150 C   0  0  0  0  0  0  0  0  0  0  0  0
   36.2280   30.5870   40.9380 C   0  0  2  0  0  0  0  0  0  0  0  0
   38.1390   29.6700   41.2910 H   0  0  0  0  0  0  0  0  0  0  0  0
   35.8860   27.7850   41.8400 H   0  0  0  0  0  0  0  0  0  0  0  0
   35.0780   30.3410   39.0760 H   0  0  0  0  0  0  0  0  0  0  0  0
   36.8520   29.9130   38.9820 H   0  0  0  0  0  0  0  0  0  0  0  0
   35.3240   30.7330   41.5300 H   0  0  0  0  0  0  0  0  0  0  0  0
   36.9620   29.6100   42.9640 O   0  0  0  0  0  0  0  0  0  0  0  0
   37.1220   30.5070   43.3090 H   0  0  0  0  0  0  0  0  0  0  0  0
   36.9820   31.7430   40.7800 O   0  0  0  0  0  0  0  0  0  0  0  0
   37.0030   32.0940   39.4450 C   0  0  0  0  0  2  0  0  0  0  0  0
   38.0960   32.9620   39.0820 N   0  0  0  0  0  4  0  0  0  0  0  0
   37.9670   33.3470   38.1380 H   0  0  0  0  0  0  0  0  0  0  0  0
   38.1610   34.0750   40.0340 C   0  0  0  0  0  2  0  0  0  0  0  0
   38.9340   33.7960   40.7830 H   0  0  0  0  0  0  0  0  0  0  0  0
   39.3600   32.2320   39.1110 C   0  0  0  0  0  2  0  0  0  0  0  0
   40.1760   32.9360   38.9030 H   0  0  0  0  0  0  0  0  0  0  0  0
   37.0090   25.9190   38.4420 C   0  0  0  0  0  0  0  0  0  0  0  0
   37.7950   26.9120   37.8610 C   0  0  0  0  0  0  0  0  0  0  0  0
   38.1350   26.8320   36.4990 C   0  0  0  0  0  0  0  0  0  0  0  0
   37.6390   25.7280   35.8200 N   0  0  0  0  0  0  0  0  0  0  0  0
   36.8780   24.7860   36.4240 C   0  0  0  0  0  0  0  0  0  0  0  0
   36.5660   24.8840   37.7290 N   0  0  0  0  0  0  0  0  0  0  0  0
   38.2350   27.8150   38.2530 H   0  0  0  0  0  0  0  0  0  0  0  0
   38.7340   27.5330   35.9410 H   0  0  0  0  0  0  0  0  0  0  0  0
   36.5510   23.9730   35.7840 H   0  0  0  0  0  0  0  0  0  0  0  0
  1  7  1  1  0  0  0
  1  2  1  0  0  0  0
  1  6  1  0  0  0  0
  2  8  1  6  0  0  0
  2 18  1  0  0  0  0
  2  3  1  0  0  0  0
  3  9  1  0  0  0  0
  3  4  1  0  0  0  0
  4 12  1  0  0  0  0
  4 11  1  0  0  0  0
  5 14  1  0  0  0  0
  5 13  1  0  0  0  0
  5  4  1  0  0  0  0
  6  5  1  0  0  0  0
 10  3  1  0  0  0  0
 15  6  1  0  0  0  0
 16  6  1  0  0  0  0
 17 22  1  6  0  0  0
 17 27  1  0  0  0  0
 18 17  1  0  0  0  0
 18 23  1  1  0  0  0
 19 18  1  0  0  0  0
 20 19  1  0  0  0  0
 20 21  1  0  0  0  0
 21 26  1  1  0  0  0
 21 17  1  0  0  0  0
 24 20  1  0  0  0  0
 25 20  1  0  0  0  0
 27 28  1  0  0  0  0
 29 21  1  0  0  0  0
 30 29  1  0  0  0  0
 31 35  1  0  0  0  0
 31 30  1  0  0  0  0
 31 33  1  0  0  0  0
 32 31  1  0  0  0  0
 33 34  1  0  0  0  0
 36 35  1  0  0  0  0
 37  1  1  0  0  0  0
 38 43  1  0  0  0  0
 38 37  1  0  0  0  0
 39 38  2  0  0  0  0
 40 41  2  0  0  0  0
 40 39  1  0  0  0  0
 41 42  1  0  0  0  0
 42 37  2  0  0  0  0
 44 39  1  0  0  0  0
 45 41  1  0  0  0  0
M  END
>  <minimizedAffinity>
-5.13525391

$$$$

 OpenBabel03242517123D

 45 47  0  0  1  0  0  0  0  0999 V2000
   37.1260   30.2540   38.6640 C   0  0  2  0  0  0  0  0  0  0  0  0
   36.7020   30.3930   40.0850 C   0  0  2  0  0  0  0  0  0  0  0  0
   36.5390   31.8050   40.5070 C   0  0  0  0  0  0  0  0  0  0  0  0
   37.7230   32.6860   40.2120 C   0  0  0  0  0  0  0  0  0  0  0  0
   38.4280   32.3500   38.9350 C   0  0  0  0  0  0  0  0  0  0  0  0
   37.5660   31.5250   38.0010 C   0  0  0  0  0  0  0  0  0  0  0  0
   37.9990   29.5350   38.6290 H   0  0  0  0  0  0  0  0  0  0  0  0
   35.7170   29.8920   40.2080 H   0  0  0  0  0  0  0  0  0  0  0  0
   36.3150   31.8370   41.5860 H   0  0  0  0  0  0  0  0  0  0  0  0
   35.6540   32.2550   39.9910 H   0  0  0  0  0  0  0  0  0  0  0  0
   38.4560   32.5350   41.0550 H   0  0  0  0  0  0  0  0  0  0  0  0
   37.4020   33.7400   40.2790 H   0  0  0  0  0  0  0  0  0  0  0  0
   38.5890   33.3210   38.4030 H   0  0  0  0  0  0  0  0  0  0  0  0
   39.4260   31.9110   39.0660 H   0  0  0  0  0  0  0  0  0  0  0  0
   36.8120   32.1260   37.5180 H   0  0  0  0  0  0  0  0  0  0  0  0
   38.2730   31.2150   37.1710 H   0  0  0  0  0  0  0  0  0  0  0  0
   37.0290   28.7410   41.9670 C   0  0  1  0  0  0  0  0  0  0  0  0
   37.6690   29.6610   40.9900 C   0  0  1  0  0  0  0  0  0  0  0  0
   38.5380   28.9310   40.1890 O   0  0  0  0  0  0  0  0  0  0  0  0
   38.1770   27.5940   40.2840 C   0  0  0  0  0  0  0  0  0  0  0  0
   37.8840   27.4720   41.7590 C   0  0  2  0  0  0  0  0  0  0  0  0
   35.9900   28.4880   41.7510 H   0  0  0  0  0  0  0  0  0  0  0  0
   38.2760   30.4030   41.5620 H   0  0  0  0  0  0  0  0  0  0  0  0
   39.0230   26.9930   39.9360 H   0  0  0  0  0  0  0  0  0  0  0  0
   37.2550   27.3870   39.6940 H   0  0  0  0  0  0  0  0  0  0  0  0
   38.7890   27.5390   42.3620 H   0  0  0  0  0  0  0  0  0  0  0  0
   37.1800   29.1400   43.2820 O   0  0  0  0  0  0  0  0  0  0  0  0
   37.0090   28.4370   43.9350 H   0  0  0  0  0  0  0  0  0  0  0  0
   37.1100   26.3520   42.0400 O   0  0  0  0  0  0  0  0  0  0  0  0
   37.9300   25.3280   42.4670 C   0  0  0  0  0  2  0  0  0  0  0  0
   37.7530   24.0920   41.7450 N   0  0  0  0  0  4  0  0  0  0  0  0
   37.7200   23.2880   42.3850 H   0  0  0  0  0  0  0  0  0  0  0  0
   36.4890   24.1470   41.0020 C   0  0  0  0  0  2  0  0  0  0  0  0
   36.7550   24.4490   39.9650 H   0  0  0  0  0  0  0  0  0  0  0  0
   38.8520   23.8860   40.8060 C   0  0  0  0  0  2  0  0  0  0  0  0
   38.6490   22.9790   40.2220 H   0  0  0  0  0  0  0  0  0  0  0  0
   36.0860   29.6230   37.8270 C   0  0  0  0  0  0  0  0  0  0  0  0
   35.0070   29.0910   38.5310 C   0  0  0  0  0  0  0  0  0  0  0  0
   33.9540   28.4680   37.8380 C   0  0  0  0  0  0  0  0  0  0  0  0
   34.0810   28.4340   36.4560 N   0  0  0  0  0  0  0  0  0  0  0  0
   35.1480   28.9630   35.8120 C   0  0  0  0  0  0  0  0  0  0  0  0
   36.1440   29.5530   36.4970 N   0  0  0  0  0  0  0  0  0  0  0  0
   34.7800   29.0360   39.5830 H   0  0  0  0  0  0  0  0  0  0  0  0
   33.0710   28.0240   38.2690 H   0  0  0  0  0  0  0  0  0  0  0  0
   35.1300   28.8700   34.7320 H   0  0  0  0  0  0  0  0  0  0  0  0
  1  7  1  6  0  0  0
  1  2  1  0  0  0  0
  2  8  1  1  0  0  0
  2  3  1  0  0  0  0
  2 18  1  0  0  0  0
  3  9  1  0  0  0  0
  4 12  1  0  0  0  0
  4  3  1  0  0  0  0
  4 11  1  0  0  0  0
  5 14  1  0  0  0  0
  5  4  1  0  0  0  0
  6  1  1  0  0  0  0
  6  5  1  0  0  0  0
 10  3  1  0  0  0  0
 13  5  1  0  0  0  0
 15  6  1  0  0  0  0
 16  6  1  0  0  0  0
 17 22  1  6  0  0  0
 17 27  1  0  0  0  0
 18 23  1  1  0  0  0
 18 17  1  0  0  0  0
 19 20  1  0  0  0  0
 19 18  1  0  0  0  0
 20 21  1  0  0  0  0
 21 17  1  0  0  0  0
 21 29  1  0  0  0  0
 21 26  1  1  0  0  0
 24 20  1  0  0  0  0
 25 20  1  0  0  0  0
 27 28  1  0  0  0  0
 29 30  1  0  0  0  0
 31 32  1  0  0  0  0
 31 30  1  0  0  0  0
 33 31  1  0  0  0  0
 34 33  1  0  0  0  0
 35 31  1  0  0  0  0
 36 35  1  0  0  0  0
 37 38  1  0  0  0  0
 37  1  1  0  0  0  0
 38 43  1  0  0  0  0
 39 44  1  0  0  0  0
 39 38  2  0  0  0  0
 40 39  1  0  0  0  0
 41 40  2  0  0  0  0
 41 42  1  0  0  0  0
 42 37  2  0  0  0  0
 45 41  1  0  0  0  0
M  END
>  <minimizedAffinity>
-5.11377907

$$$$
