
     RDKit          3D

 46 48  0  0  0  0  0  0  0  0999 V2000
   49.1680   30.3731   40.5591 C   0  0  0  0  0  0  0  0  0  0  0  0
   49.7133   31.5799   40.4142 C   0  0  0  0  0  0  0  0  0  0  0  0
   48.8923   32.7319   40.3339 N   0  0  0  0  0  0  0  0  0  0  0  0
   48.6704   34.0977   40.6257 C   0  0  0  0  0  0  0  0  0  0  0  0
   49.3552   35.0371   41.1491 O   0  0  0  0  0  0  0  0  0  0  0  0
   47.3116   34.1314   40.1117 C   0  0  1  0  0  0  0  0  0  0  0  0
   47.6062   32.7185   39.6677 C   0  0  2  0  0  0  0  0  0  0  0  0
   46.6201   31.4298   40.4396 S   0  0  0  0  0  0  0  0  0  0  0  0
   47.7198   30.0318   40.6628 C   0  0  0  0  0  0  0  0  0  0  0  0
   46.3092   34.3087   41.1512 C   0  0  0  0  0  0  0  0  0  0  0  0
   45.0655   34.2830   41.1452 O   0  0  0  0  0  0  0  0  0  0  0  0
   46.8713   34.5642   42.4554 N   0  0  0  0  0  0  0  0  0  0  0  0
   44.4394   36.0567   44.8286 C   0  0  0  0  0  0  0  0  0  0  0  0
   45.2163   35.8759   43.6836 C   0  0  0  0  0  0  0  0  0  0  0  0
   46.0467   34.7781   43.5866 C   0  0  0  0  0  0  0  0  0  0  0  0
   46.0839   33.9061   44.6073 N   0  0  0  0  0  0  0  0  0  0  0  0
   45.3185   34.0933   45.7239 C   0  0  0  0  0  0  0  0  0  0  0  0
   44.5116   35.1652   45.8118 N   0  0  0  0  0  0  0  0  0  0  0  0
   50.1379   29.2534   40.6232 C   0  0  0  0  0  0  0  0  0  0  0  0
   51.1520   31.7592   40.3335 C   0  0  0  0  0  0  0  0  0  0  0  0
   51.7956   31.6861   39.2510 O   0  0  0  0  0  0  0  0  0  0  0  0
   52.1272   32.0259   41.2698 O   0  0  0  0  0  0  0  0  0  0  0  0
   47.1108   34.7334   39.1816 H   0  0  0  0  0  0  0  0  0  0  0  0
   47.7271   32.6122   38.5676 H   0  0  0  0  0  0  0  0  0  0  0  0
   47.5316   29.2165   39.9546 H   0  0  0  0  0  0  0  0  0  0  0  0
   47.5695   29.6561   41.7003 H   0  0  0  0  0  0  0  0  0  0  0  0
   47.8470   34.6392   42.8218 H   0  0  0  0  0  0  0  0  0  0  0  0
   43.8289   36.9546   44.7867 H   0  0  0  0  0  0  0  0  0  0  0  0
   45.1910   36.5856   42.8442 H   0  0  0  0  0  0  0  0  0  0  0  0
   45.3574   33.3847   46.5381 H   0  0  0  0  0  0  0  0  0  0  0  0
   50.7509   29.1396   39.7047 H   0  0  0  0  0  0  0  0  0  0  0  0
   49.6535   28.2915   40.8803 H   0  0  0  0  0  0  0  0  0  0  0  0
   50.8440   29.5301   41.4508 H   0  0  0  0  0  0  0  0  0  0  0  0
   53.4827   32.1673   41.0052 C   0  0  0  0  0  0  0  0  0  0  0  0
   54.0902   30.8565   41.1202 N   0  0  0  0  0  4  0  0  0  0  0  0
   53.4603   29.8395   40.3367 C   0  0  0  0  0  0  0  0  0  0  0  0
   53.3543   28.8590   40.8630 H   0  0  0  0  0  0  0  0  0  0  0  0
   54.1244   30.4123   42.5017 C   0  0  0  0  0  0  0  0  0  0  0  0
   54.1677   29.3102   42.5766 H   0  0  0  0  0  0  0  0  0  0  0  0
   53.9169   32.7717   41.8534 H   0  0  0  0  0  0  0  0  0  0  0  0
   53.7559   32.6907   40.0899 H   0  0  0  0  0  0  0  0  0  0  0  0
   55.1139   30.9968   40.8643 H   0  0  0  0  0  0  0  0  0  0  0  0
   52.4425   30.0811   39.9766 H   0  0  0  0  0  0  0  0  0  0  0  0
   54.0689   29.6882   39.4000 H   0  0  0  0  0  0  0  0  0  0  0  0
   53.1783   30.6947   43.0447 H   0  0  0  0  0  0  0  0  0  0  0  0
   54.9640   30.8448   43.0836 H   0  0  0  0  0  0  0  0  0  0  0  0
  1 19  1  0
  1  9  1  0
  2  1  2  0
  3  2  1  0
  3  4  1  0
  4  5  2  0
  6  4  1  0
  6 10  1  0
  7  6  1  0
  7  3  1  0
  7  8  1  0
  8  9  1  0
 10 12  1  0
 11 10  2  0
 12 15  1  0
 13 18  2  0
 14 13  1  0
 15 14  2  0
 15 16  1  0
 16 17  2  0
 17 18  1  0
 20  2  1  0
 20 22  1  0
 21 20  2  0
  6 23  1  6
  7 24  1  6
  9 25  1  0
  9 26  1  0
 12 27  1  0
 13 28  1  0
 14 29  1  0
 17 30  1  0
 19 31  1  0
 19 32  1  0
 19 33  1  0
 34 35  1  0
 35 36  1  0
 36 37  1  0
 35 38  1  0
 38 39  1  0
 34 40  1  0
 34 41  1  0
 35 42  1  0
 36 43  1  0
 36 44  1  0
 38 45  1  0
 38 46  1  0
 22 34  1  0
M  ISO  8  23  13  24  13  25  13  26  13  28  14  29  14  30  14  31   8
M  CHG  1  35   1
M  ISO  4  32   8  33   8  37   8  39   8
M  END
>  <DihAtoms>  (1) 
19,21,33,34

>  <DihDeg>  (1) 
-179.99981970983336

$$$$
