
 OpenBabel03242517033D

 31 32  0  0  0  0  0  0  0  0999 V2000
   46.8910   34.8580   42.0330 C   0  0  0  0  0  0  0  0  0  0  0  0
   48.0800   35.5600   42.0260 C   0  0  0  0  0  0  0  0  0  0  0  0
   48.8610   35.4880   40.8840 C   0  0  0  0  0  0  0  0  0  0  0  0
   48.4620   34.7510   39.8160 C   0  0  0  0  0  0  0  0  0  0  0  0
   47.2760   34.0440   39.8040 C   0  0  0  0  0  0  0  0  0  0  0  0
   46.4940   34.1200   40.9580 C   0  0  0  0  0  0  0  0  0  0  0  0
   48.4220   36.1520   42.8560 H   0  0  0  0  0  0  0  0  0  0  0  0
   49.8040   36.0140   40.8120 H   0  0  0  0  0  0  0  0  0  0  0  0
   49.0160   34.6420   38.8800 H   0  0  0  0  0  0  0  0  0  0  0  0
   46.8460   33.4270   39.0320 H   0  0  0  0  0  0  0  0  0  0  0  0
   44.5180   35.9700   44.7620 C   0  0  0  0  0  0  0  0  0  0  0  0
   45.2280   35.9840   43.5320 C   0  0  0  0  0  0  0  0  0  0  0  0
   46.0980   34.9620   43.2630 C   0  0  0  0  0  0  0  0  0  0  0  0
   46.2330   33.9820   44.2040 N   0  0  0  0  0  0  0  0  0  0  0  0
   45.5530   33.9800   45.3700 C   0  0  0  0  0  0  0  0  0  0  0  0
   44.6910   34.9780   45.6530 N   0  0  0  0  0  0  0  0  0  0  0  0
   43.8650   36.8210   44.8620 H   0  0  0  0  0  0  0  0  0  0  0  0
   45.1060   36.7720   42.7980 H   0  0  0  0  0  0  0  0  0  0  0  0
   45.6780   33.1980   46.0910 H   0  0  0  0  0  0  0  0  0  0  0  0
   43.9160   33.7430   40.8130 C   0  0  0  0  0  0  0  0  0  0  0  0
   43.4940   34.7990   40.3700 O   0  0  0  0  0  0  0  0  0  0  0  0
   45.2610   33.4440   41.0930 N   0  0  0  0  0  0  0  0  0  0  0  0
   45.5240   32.5000   41.5120 H   0  0  0  0  0  0  0  0  0  0  0  0
   42.9710   32.7440   41.0620 O   0  0  0  0  0  0  0  0  0  0  0  0
   41.6420   32.9640   40.6210 C   0  0  0  0  0  0  0  0  0  0  0  0
   40.8140   33.3120   41.7350 N   0  0  0  0  0  0  0  0  0  0  0  0
   41.4030   33.3860   42.6170 H   0  0  0  0  0  0  0  0  0  0  0  0
   39.8080   32.3010   42.0140 C   0  0  0  0  0  0  0  0  0  0  0  0
   39.8190   31.9740   43.0660 H   0  0  0  0  0  0  0  0  0  0  0  0
   40.2250   34.6070   41.4980 C   0  0  0  0  0  0  0  0  0  0  0  0
   40.1240   34.7340   40.3820 H   0  0  0  0  0  0  0  0  0  0  0  0
  1 13  1  0  0  0  0
  2  1  1  0  0  0  0
  2  7  1  0  0  0  0
  3  2  2  0  0  0  0
  4  3  1  0  0  0  0
  5  4  2  0  0  0  0
  5  6  1  0  0  0  0
  6 22  1  0  0  0  0
  6  1  2  0  0  0  0
  8  3  1  0  0  0  0
  9  4  1  0  0  0  0
 10  5  1  0  0  0  0
 11 17  1  0  0  0  0
 11 16  1  0  0  0  0
 12 11  2  0  0  0  0
 13 12  1  0  0  0  0
 13 14  2  0  0  0  0
 14 15  1  0  0  0  0
 15 16  2  0  0  0  0
 15 19  1  0  0  0  0
 18 12  1  0  0  0  0
 20 24  1  0  0  0  0
 20 22  1  0  0  0  0
 21 20  2  0  0  0  0
 22 23  1  0  0  0  0
 25 24  1  0  0  0  0
 25 26  1  0  0  0  0
 26 28  1  0  0  0  0
 26 27  1  0  0  0  0
 28 29  1  0  0  0  0
 30 26  1  0  0  0  0
 31 30  1  0  0  0  0
M  END
>  <minimizedAffinity>
-5.65124273

>  <minimizedRMSD>
0.539580524

$$$$
