
 OpenBabel03252503363D

 40 42  0  0  1  0  0  0  0  0999 V2000
   48.6160   30.1570   40.1360 C   0  0  0  0  0  0  0  0  0  0  0  0
   49.1260   31.3630   39.8910 C   0  0  0  0  0  0  0  0  0  0  0  0
   48.2910   32.5080   39.8890 N   0  0  0  0  0  0  0  0  0  0  0  0
   48.0960   33.8800   40.1730 C   0  0  0  0  0  0  0  0  0  0  0  0
   48.8340   34.8360   40.5790 O   0  0  0  0  0  0  0  0  0  0  0  0
   46.6830   33.8910   39.8400 C   0  0  1  0  0  0  0  0  0  0  0  0
   46.9300   32.4690   39.3970 C   0  0  2  0  0  0  0  0  0  0  0  0
   46.0640   31.1950   40.3220 S   0  0  0  0  0  0  0  0  0  0  0  0
   47.1970   29.8100   40.4360 C   0  0  0  0  0  0  0  0  0  0  0  0
   46.3570   34.4670   38.9290 H   0  0  0  0  0  0  0  0  0  0  0  0
   46.9080   32.3350   38.2930 H   0  0  0  0  0  0  0  0  0  0  0  0
   46.9260   28.9750   39.7790 H   0  0  0  0  0  0  0  0  0  0  0  0
   47.1850   29.4610   41.4930 H   0  0  0  0  0  0  0  0  0  0  0  0
   45.8210   34.0900   40.9950 C   0  0  0  0  0  0  0  0  0  0  0  0
   44.5950   33.9800   41.1700 O   0  0  0  0  0  0  0  0  0  0  0  0
   46.5360   34.4930   42.1820 N   0  0  0  0  0  0  0  0  0  0  0  0
   47.5440   34.6650   42.3980 H   0  0  0  0  0  0  0  0  0  0  0  0
   44.4850   36.1120   44.8190 C   0  0  0  0  0  0  0  0  0  0  0  0
   45.1130   35.8930   43.5930 C   0  0  0  0  0  0  0  0  0  0  0  0
   45.8610   34.7480   43.4010 C   0  0  0  0  0  0  0  0  0  0  0  0
   45.9630   33.8690   44.4100 N   0  0  0  0  0  0  0  0  0  0  0  0
   45.3430   34.0940   45.6080 C   0  0  0  0  0  0  0  0  0  0  0  0
   44.6170   35.2110   45.7880 N   0  0  0  0  0  0  0  0  0  0  0  0
   43.9290   37.0450   44.8470 H   0  0  0  0  0  0  0  0  0  0  0  0
   45.0350   36.6090   42.7610 H   0  0  0  0  0  0  0  0  0  0  0  0
   45.4320   33.3790   46.4120 H   0  0  0  0  0  0  0  0  0  0  0  0
   49.5960   29.0450   40.1010 C   0  0  0  0  0  0  0  0  0  0  0  0
   50.0860   28.9120   39.1150 H   0  0  0  0  0  0  0  0  0  0  0  0
   49.1590   28.0870   40.4430 H   0  0  0  0  0  0  0  0  0  0  0  0
   50.4010   29.3480   40.8230 H   0  0  0  0  0  0  0  0  0  0  0  0
   50.5410   31.5490   39.6200 C   0  0  0  0  0  0  0  0  0  0  0  0
   50.9990   31.7560   38.4620 O   0  0  0  0  0  0  0  0  0  0  0  0
   51.6650   31.5580   40.4170 O   0  0  0  0  0  0  0  0  0  0  0  0
   52.9680   31.3730   39.9750 C   0  0  0  0  0  2  0  0  0  0  0  0
   53.4600   30.1440   40.5630 N   0  0  0  0  0  4  0  0  0  0  0  0
   54.4710   30.3430   40.8310 H   0  0  0  0  0  0  0  0  0  0  0  0
   53.3280   28.9910   39.7270 C   0  0  0  0  0  2  0  0  0  0  0  0
   52.9900   28.0720   40.2670 H   0  0  0  0  0  0  0  0  0  0  0  0
   52.8030   29.8670   41.8280 C   0  0  0  0  0  2  0  0  0  0  0  0
   52.8230   28.7880   42.0720 H   0  0  0  0  0  0  0  0  0  0  0  0
  1  9  1  0  0  0  0
  2  1  2  0  0  0  0
  3  2  1  0  0  0  0
  3  4  1  0  0  0  0
  4  5  2  0  0  0  0
  6 10  1  6  0  0  0
  6  4  1  0  0  0  0
  6 14  1  0  0  0  0
  7 11  1  6  0  0  0
  7  6  1  0  0  0  0
  7  3  1  0  0  0  0
  7  8  1  0  0  0  0
  8  9  1  0  0  0  0
  9 13  1  0  0  0  0
 12  9  1  0  0  0  0
 14 15  2  0  0  0  0
 14 16  1  0  0  0  0
 16 17  1  0  0  0  0
 16 20  1  0  0  0  0
 18 24  1  0  0  0  0
 18 23  1  0  0  0  0
 19 18  2  0  0  0  0
 20 19  1  0  0  0  0
 20 21  2  0  0  0  0
 21 22  1  0  0  0  0
 22 23  2  0  0  0  0
 22 26  1  0  0  0  0
 25 19  1  0  0  0  0
 27  1  1  0  0  0  0
 27 29  1  0  0  0  0
 27 30  1  0  0  0  0
 28 27  1  0  0  0  0
 31  2  1  0  0  0  0
 31 33  1  0  0  0  0
 32 31  2  0  0  0  0
 34 33  1  0  0  0  0
 34 35  1  0  0  0  0
 35 36  1  0  0  0  0
 35 39  1  0  0  0  0
 37 38  1  0  0  0  0
 37 35  1  0  0  0  0
 39 40  1  0  0  0  0
M  END
>  <minimizedAffinity>
-4.37020683

>  <minimizedRMSD>
0.772233367

$$$$
