
     RDKit          3D

 36 37  0  0  0  0  0  0  0  0999 V2000
   47.1660   34.2398   42.3872 N   0  0  0  0  0  0  0  0  0  0  0  0
   48.0190   35.0453   41.5381 C   0  0  0  0  0  0  0  0  0  0  0  0
   47.6860   34.3953   40.2213 C   0  0  2  0  0  0  0  0  0  0  0  0
   47.9298   32.9389   40.5728 C   0  0  0  0  0  0  0  0  0  0  0  0
   47.3727   32.8632   41.9790 C   0  0  0  0  0  0  0  0  0  0  0  0
   44.5939   35.9458   44.4675 C   0  0  0  0  0  0  0  0  0  0  0  0
   45.4112   35.7079   43.3668 C   0  0  0  0  0  0  0  0  0  0  0  0
   46.2807   34.6056   43.4231 C   0  0  0  0  0  0  0  0  0  0  0  0
   46.2705   33.8307   44.5610 N   0  0  0  0  0  0  0  0  0  0  0  0
   45.4653   34.0913   45.6075 C   0  0  0  0  0  0  0  0  0  0  0  0
   44.6236   35.1512   45.5633 N   0  0  0  0  0  0  0  0  0  0  0  0
   48.6324   34.7261   39.1925 N   0  0  0  0  0  0  0  0  0  0  0  0
   47.7697   36.1224   41.5917 H   0  0  0  0  0  0  0  0  0  0  0  0
   49.0826   34.8248   41.7549 H   0  0  0  0  0  0  0  0  0  0  0  0
   46.6308   34.5446   39.9239 H   0  0  0  0  0  0  0  0  0  0  0  0
   49.0240   32.8148   40.6116 H   0  0  0  0  0  0  0  0  0  0  0  0
   47.4084   32.2312   39.9010 H   0  0  0  0  0  0  0  0  0  0  0  0
   48.0941   32.3569   42.6597 H   0  0  0  0  0  0  0  0  0  0  0  0
   46.4253   32.3034   41.9677 H   0  0  0  0  0  0  0  0  0  0  0  0
   43.9540   36.8140   44.3437 H   0  0  0  0  0  0  0  0  0  0  0  0
   45.4263   36.3083   42.4723 H   0  0  0  0  0  0  0  0  0  0  0  0
   45.4749   33.4696   46.4889 H   0  0  0  0  0  0  0  0  0  0  0  0
   48.3125   34.2294   38.3283 H   0  0  0  0  0  0  0  0  0  0  0  0
   48.6194   36.1660   39.0196 C   0  0  0  0  0  0  0  0  0  0  0  0
   49.9173   36.7548   39.2768 N   0  0  0  0  0  4  0  0  0  0  0  0
   49.6995   38.0431   39.9050 C   0  0  0  0  0  0  0  0  0  0  0  0
   50.2697   38.0791   40.8565 H   0  0  0  0  0  0  0  0  0  0  0  0
   50.6051   37.0555   38.0122 C   0  0  0  0  0  0  0  0  0  0  0  0
   51.4258   37.7586   38.2715 H   0  0  0  0  0  0  0  0  0  0  0  0
   48.3139   36.3890   37.9811 H   0  0  0  0  0  0  0  0  0  0  0  0
   47.8926   36.5847   39.7370 H   0  0  0  0  0  0  0  0  0  0  0  0
   50.5622   36.1374   39.8189 H   0  0  0  0  0  0  0  0  0  0  0  0
   49.9702   38.9043   39.2801 H   0  0  0  0  0  0  0  0  0  0  0  0
   48.6166   38.1860   40.1873 H   0  0  0  0  0  0  0  0  0  0  0  0
   49.9102   37.6647   37.3644 H   0  0  0  0  0  0  0  0  0  0  0  0
   50.9237   36.1547   37.4738 H   0  0  0  0  0  0  0  0  0  0  0  0
  1  8  1  0
  2  1  1  0
  3  4  1  0
  3  2  1  0
  4  5  1  0
  5  1  1  0
  6 11  2  0
  7  8  2  0
  7  6  1  0
  8  9  1  0
  9 10  2  0
 11 10  1  0
 12  3  1  0
  2 13  1  0
  2 14  1  0
  3 15  1  6
  4 16  1  0
  4 17  1  0
  5 18  1  0
  5 19  1  0
  6 20  1  0
  7 21  1  0
 10 22  1  0
 12 23  1  0
 24 25  1  0
 25 26  1  0
 26 27  1  0
 25 28  1  0
 28 29  1  0
 24 30  1  0
 24 31  1  0
 25 32  1  0
 26 33  1  0
 26 34  1  0
 28 35  1  0
 28 36  1  0
 12 24  1  0
M  ISO  8  13  13  14  13  15  13  16  13  17  13  18  13  19  13  20  14
M  CHG  1  25   1
M  ISO  5  21  14  22  14  23   5  27   8  29   8
M  END
>  <DihAtoms>  (1) 
2,11,23,24

>  <DihDeg>  (1) 
-179.9686617939734

$$$$
