REMARK  Name = 
REMARK  8 active torsions:
REMARK  status: ('A' for Active; 'I' for Inactive)
REMARK    1  A    between atoms: C_1  and  C_7
REMARK    2  A    between atoms: C_2  and  C_14
REMARK    3  A    between atoms: C_13  and  O_18
REMARK    4  A    between atoms: C_17  and  O_19
REMARK    5  A    between atoms: O_19  and  C_39
REMARK    6  A    between atoms: C_39  and  N_40
REMARK    7  A    between atoms: N_40  and  C_41
REMARK    8  A    between atoms: N_40  and  C_43
REMARK                            x       y       z     vdW  Elec       q    Type
REMARK                         _______ _______ _______ _____ _____    ______ ____
ROOT
ATOM      1  C   UNL     1      46.082  33.838  43.136  0.00  0.00    +0.000 C 
ATOM      2  C   UNL     1      45.347  34.958  42.484  0.00  0.00    +0.000 C 
ATOM      3  C   UNL     1      45.190  36.140  43.365  0.00  0.00    +0.000 C 
ATOM      4  C   UNL     1      44.612  35.837  44.721  0.00  0.00    +0.000 C 
ATOM      5  C   UNL     1      45.044  34.520  45.286  0.00  0.00    +0.000 C 
ATOM      6  C   UNL     1      46.293  33.987  44.613  0.00  0.00    +0.000 C 
ATOM      7  H   UNL     1      45.488  32.889  42.973  0.00  0.00    +0.000 HD
ATOM      8  H   UNL     1      45.922  35.282  41.590  0.00  0.00    +0.000 HD
ATOM      9  H   UNL     1      44.563  36.891  42.856  0.00  0.00    +0.000 HD
ATOM     10  H   UNL     1      46.185  36.625  43.529  0.00  0.00    +0.000 HD
ATOM     11  H   UNL     1      43.493  35.802  44.595  0.00  0.00    +0.000 HD
ATOM     12  H   UNL     1      44.813  36.694  45.388  0.00  0.00    +0.000 HD
ATOM     13  H   UNL     1      45.345  34.718  46.345  0.00  0.00    +0.000 HD
ATOM     14  H   UNL     1      44.251  33.762  45.336  0.00  0.00    +0.000 HD
ATOM     15  H   UNL     1      47.178  34.507  44.944  0.00  0.00    +0.000 HD
ATOM     16  H   UNL     1      46.400  32.934  45.020  0.00  0.00    +0.000 HD
ENDROOT
BRANCH   2  18
ATOM     17  C   UNL     1      43.263  35.461  41.150  0.00  0.00    +0.000 C 
ATOM     18  C   UNL     1      44.006  34.474  41.977  0.00  0.00    +0.000 C 
ATOM     19  O   UNL     1      44.220  33.328  41.222  0.00  0.00    +0.000 OA
ATOM     20  C   UNL     1      44.070  33.668  39.885  0.00  0.00    +0.000 C 
ATOM     21  C   UNL     1      42.868  34.578  39.946  0.00  0.00    +0.000 C 
ATOM     22  H   UNL     1      43.860  36.294  40.776  0.00  0.00    +0.000 HD
ATOM     23  H   UNL     1      43.360  34.195  42.843  0.00  0.00    +0.000 HD
ATOM     24  H   UNL     1      43.914  32.744  39.320  0.00  0.00    +0.000 HD
ATOM     25  H   UNL     1      44.957  34.232  39.515  0.00  0.00    +0.000 HD
ATOM     26  H   UNL     1      41.954  34.032  40.178  0.00  0.00    +0.000 HD
BRANCH  17  27
ATOM     27  O   UNL     1      42.098  35.912  41.742  0.00  0.00    +0.000 OA
ATOM     28  H   UNL     1      41.476  36.339  41.125  0.00  0.00    +0.000 HD
ENDBRANCH  17  27
BRANCH  21  29
ATOM     29  O   UNL     1      42.767  35.375  38.812  0.00  0.00    +0.000 OA
BRANCH  29  30
ATOM     30  C   UNL     1      41.498  35.255  38.283  0.00  0.00    +0.000 C 
BRANCH  30  31
ATOM     31  N   UNL     1      40.752  34.131  38.793  0.00  0.00    +0.000 N 
ATOM     32  H   UNL     1      41.253  33.670  39.563  0.00  0.00    +0.000 HD
BRANCH  31  33
ATOM     33  C   UNL     1      39.457  34.603  39.295  0.00  0.00    +0.000 C 
ATOM     34  H   UNL     1      38.725  34.424  38.477  0.00  0.00    +0.000 HD
ENDBRANCH  31  33
BRANCH  31  35
ATOM     35  C   UNL     1      40.526  33.147  37.738  0.00  0.00    +0.000 C 
ATOM     36  H   UNL     1      39.894  32.343  38.138  0.00  0.00    +0.000 HD
ENDBRANCH  31  35
ENDBRANCH  30  31
ENDBRANCH  29  30
ENDBRANCH  21  29
ENDBRANCH   2  18
BRANCH   1  37
ATOM     37  C   UNL     1      47.388  33.577  42.498  0.00  0.00    +0.000 A 
ATOM     38  C   UNL     1      48.432  34.388  42.941  0.00  0.00    +0.000 A 
ATOM     39  C   UNL     1      49.722  34.227  42.407  0.00  0.00    +0.000 A 
ATOM     40  N   UNL     1      49.855  33.235  41.445  0.00  0.00    +0.000 NA
ATOM     41  C   UNL     1      48.813  32.470  41.043  0.00  0.00    +0.000 A 
ATOM     42  N   UNL     1      47.587  32.643  41.569  0.00  0.00    +0.000 NA
ATOM     43  H   UNL     1      48.476  35.190  43.660  0.00  0.00    +0.000 HD
ATOM     44  H   UNL     1      50.604  34.789  42.669  0.00  0.00    +0.000 HD
ATOM     45  H   UNL     1      49.046  31.731  40.284  0.00  0.00    +0.000 HD
ENDBRANCH   1  37
TORSDOF 8
