REMARK  Name = 
REMARK  9 active torsions:
REMARK  status: ('A' for Active; 'I' for Inactive)
REMARK    1  A    between atoms: C_1  and  C_19
REMARK    2  A    between atoms: C_2  and  C_20
REMARK    3  A    between atoms: C_6  and  C_10
REMARK    4  A    between atoms: N_12  and  C_15
REMARK    5  A    between atoms: C_20  and  O_22
REMARK    6  A    between atoms: O_22  and  C_34
REMARK    7  A    between atoms: C_34  and  N_35
REMARK    8  A    between atoms: N_35  and  C_36
REMARK    9  A    between atoms: N_35  and  C_38
REMARK                            x       y       z     vdW  Elec       q    Type
REMARK                         _______ _______ _______ _____ _____    ______ ____
ROOT
ATOM      1  C   UNL     1      49.168  30.373  40.559  0.00  0.00    +0.000 C 
ATOM      2  C   UNL     1      49.713  31.580  40.414  0.00  0.00    +0.000 C 
ATOM      3  N   UNL     1      48.892  32.732  40.334  0.00  0.00    +0.000 N 
ATOM      4  C   UNL     1      48.670  34.098  40.626  0.00  0.00    +0.000 C 
ATOM      5  O   UNL     1      49.355  35.037  41.149  0.00  0.00    +0.000 OA
ATOM      6  C   UNL     1      47.312  34.131  40.112  0.00  0.00    +0.000 C 
ATOM      7  C   UNL     1      47.606  32.718  39.668  0.00  0.00    +0.000 C 
ATOM      8  S   UNL     1      46.620  31.430  40.440  0.00  0.00    +0.000 S 
ATOM      9  C   UNL     1      47.720  30.032  40.663  0.00  0.00    +0.000 C 
ATOM     10  H   UNL     1      47.111  34.733  39.182  0.00  0.00    +0.000 HD
ATOM     11  H   UNL     1      47.727  32.612  38.568  0.00  0.00    +0.000 HD
ATOM     12  H   UNL     1      47.532  29.216  39.955  0.00  0.00    +0.000 HD
ATOM     13  H   UNL     1      47.569  29.656  41.700  0.00  0.00    +0.000 HD
ENDROOT
BRANCH   6  14
ATOM     14  C   UNL     1      46.309  34.309  41.151  0.00  0.00    +0.000 C 
ATOM     15  O   UNL     1      45.066  34.283  41.145  0.00  0.00    +0.000 OA
ATOM     16  N   UNL     1      46.871  34.564  42.455  0.00  0.00    +0.000 N 
ATOM     17  H   UNL     1      47.847  34.639  42.822  0.00  0.00    +0.000 HD
BRANCH  16  20
ATOM     18  C   UNL     1      44.439  36.057  44.829  0.00  0.00    +0.000 A 
ATOM     19  C   UNL     1      45.216  35.876  43.684  0.00  0.00    +0.000 A 
ATOM     20  C   UNL     1      46.047  34.778  43.587  0.00  0.00    +0.000 A 
ATOM     21  N   UNL     1      46.084  33.906  44.607  0.00  0.00    +0.000 NA
ATOM     22  C   UNL     1      45.319  34.093  45.724  0.00  0.00    +0.000 A 
ATOM     23  N   UNL     1      44.512  35.165  45.812  0.00  0.00    +0.000 NA
ATOM     24  H   UNL     1      43.829  36.955  44.787  0.00  0.00    +0.000 HD
ATOM     25  H   UNL     1      45.191  36.586  42.844  0.00  0.00    +0.000 HD
ATOM     26  H   UNL     1      45.357  33.385  46.538  0.00  0.00    +0.000 HD
ENDBRANCH  16  20
ENDBRANCH   6  14
BRANCH   1  27
ATOM     27  C   UNL     1      50.138  29.253  40.623  0.00  0.00    +0.000 C 
ATOM     28  H   UNL     1      50.751  29.140  39.705  0.00  0.00    +0.000 HD
ATOM     29  H   UNL     1      49.654  28.291  40.880  0.00  0.00    +0.000 HD
ATOM     30  H   UNL     1      50.844  29.530  41.451  0.00  0.00    +0.000 HD
ENDBRANCH   1  27
BRANCH   2  31
ATOM     31  C   UNL     1      51.152  31.759  40.334  0.00  0.00    +0.000 C 
ATOM     32  O   UNL     1      51.796  31.686  39.251  0.00  0.00    +0.000 OA
BRANCH  31  33
ATOM     33  O   UNL     1      52.127  32.026  41.270  0.00  0.00    +0.000 OA
BRANCH  33  34
ATOM     34  C   UNL     1      53.483  32.167  41.005  0.00  0.00    +0.000 C 
BRANCH  34  35
ATOM     35  N   UNL     1      54.146  30.962  41.461  0.00  0.00    +0.000 N 
ATOM     36  H   UNL     1      55.170  31.087  41.198  0.00  0.00    +0.000 HD
BRANCH  35  37
ATOM     37  C   UNL     1      53.589  29.748  40.948  0.00  0.00    +0.000 C 
ATOM     38  H   UNL     1      53.511  28.928  41.703  0.00  0.00    +0.000 HD
ENDBRANCH  35  37
BRANCH  35  39
ATOM     39  C   UNL     1      54.155  30.883  42.910  0.00  0.00    +0.000 C 
ATOM     40  H   UNL     1      54.246  29.839  43.263  0.00  0.00    +0.000 HD
ENDBRANCH  35  39
ENDBRANCH  34  35
ENDBRANCH  33  34
ENDBRANCH  31  33
ENDBRANCH   2  31
TORSDOF 9
