
 OpenBabel03242519033D

 30 31  0  0  1  0  0  0  0  0999 V2000
   47.5250   33.4580   43.0820 N   0  0  0  0  0  0  0  0  0  0  0  0
   48.5340   33.6800   42.0680 C   0  0  0  0  0  0  0  0  0  0  0  0
   48.3870   32.3770   41.3290 C   0  0  2  0  0  0  0  0  0  0  0  0
   48.5120   31.4000   42.4840 C   0  0  0  0  0  0  0  0  0  0  0  0
   47.7370   32.1090   43.5740 C   0  0  0  0  0  0  0  0  0  0  0  0
   48.3250   34.5790   41.4570 H   0  0  0  0  0  0  0  0  0  0  0  0
   49.5400   33.6850   42.5320 H   0  0  0  0  0  0  0  0  0  0  0  0
   47.4000   32.2690   40.8420 H   0  0  0  0  0  0  0  0  0  0  0  0
   49.5800   31.3830   42.7540 H   0  0  0  0  0  0  0  0  0  0  0  0
   48.0740   30.4060   42.2680 H   0  0  0  0  0  0  0  0  0  0  0  0
   48.3190   32.1250   44.5230 H   0  0  0  0  0  0  0  0  0  0  0  0
   46.7800   31.5900   43.7410 H   0  0  0  0  0  0  0  0  0  0  0  0
   44.9690   36.1350   43.4780 C   0  0  0  0  0  0  0  0  0  0  0  0
   45.9770   35.3950   42.8670 C   0  0  0  0  0  0  0  0  0  0  0  0
   46.5030   34.2980   43.5710 C   0  0  0  0  0  0  0  0  0  0  0  0
   45.9890   34.0240   44.8190 N   0  0  0  0  0  0  0  0  0  0  0  0
   45.0120   34.7630   45.3790 C   0  0  0  0  0  0  0  0  0  0  0  0
   44.5000   35.8210   44.7080 N   0  0  0  0  0  0  0  0  0  0  0  0
   44.6190   36.9620   42.8680 H   0  0  0  0  0  0  0  0  0  0  0  0
   46.3850   35.6010   41.8910 H   0  0  0  0  0  0  0  0  0  0  0  0
   44.6260   34.5290   46.3580 H   0  0  0  0  0  0  0  0  0  0  0  0
   49.4970   32.1140   40.4570 N   0  0  0  0  0  0  0  0  0  0  0  0
   49.5610   32.9350   39.8080 H   0  0  0  0  0  0  0  0  0  0  0  0
   50.6880   31.9830   41.2740 C   0  0  0  0  0  2  0  0  0  0  0  0
   51.5340   30.8950   40.8300 N   0  0  0  0  0  4  0  0  0  0  0  0
   51.0710   30.2490   40.1520 H   0  0  0  0  0  0  0  0  0  0  0  0
   52.0370   30.2180   42.0090 C   0  0  0  0  0  2  0  0  0  0  0  0
   51.7960   29.1380   41.9330 H   0  0  0  0  0  0  0  0  0  0  0  0
   52.7280   31.4170   40.1480 C   0  0  0  0  0  2  0  0  0  0  0  0
   53.4500   30.5730   40.1110 H   0  0  0  0  0  0  0  0  0  0  0  0
  1 15  1  0  0  0  0
  1  5  1  0  0  0  0
  2  7  1  0  0  0  0
  2  1  1  0  0  0  0
  3  8  1  6  0  0  0
  3  2  1  0  0  0  0
  3  4  1  0  0  0  0
  4  9  1  0  0  0  0
  4  5  1  0  0  0  0
  5 12  1  0  0  0  0
  5 11  1  0  0  0  0
  6  2  1  0  0  0  0
 10  4  1  0  0  0  0
 13 18  1  0  0  0  0
 14 13  2  0  0  0  0
 14 15  1  0  0  0  0
 15 16  2  0  0  0  0
 16 17  1  0  0  0  0
 17 21  1  0  0  0  0
 18 17  2  0  0  0  0
 19 13  1  0  0  0  0
 20 14  1  0  0  0  0
 22 24  1  0  0  0  0
 22  3  1  0  0  0  0
 23 22  1  0  0  0  0
 25 24  1  0  0  0  0
 25 27  1  0  0  0  0
 26 25  1  0  0  0  0
 28 27  1  0  0  0  0
 29 25  1  0  0  0  0
 30 29  1  0  0  0  0
M  END
>  <minimizedAffinity>
-3.65447927

>  <minimizedRMSD>
3.62706947

$$$$
