
 OpenBabel03252505283D

 22 22  0  0  0  0  0  0  0  0999 V2000
   34.7320   29.1480   39.7320 O   0  0  0  0  0  0  0  0  0  0  0  0
   35.8700   29.5340   40.6650 P   0  0  1  0  0  0  0  0  0  0  0  0
   35.5880   31.0020   41.4260 O   0  0  0  0  0  0  0  0  0  0  0  0
   36.4430   31.5260   41.4910 H   0  0  0  0  0  0  0  0  0  0  0  0
   36.0680   28.2940   41.7810 O   0  0  0  0  0  0  0  0  0  0  0  0
   38.5370   25.8490   42.5500 C   0  0  0  0  0  0  0  0  0  0  0  0
   39.5930   26.5910   43.0990 C   0  0  0  0  0  0  0  0  0  0  0  0
   39.4210   27.9900   43.1960 C   0  0  0  0  0  0  0  0  0  0  0  0
   38.2520   28.5160   42.7540 N   0  0  0  0  0  0  0  0  0  0  0  0
   37.2610   27.7730   42.2340 C   0  0  0  0  0  0  0  0  0  0  0  0
   37.3980   26.4490   42.1300 N   0  0  0  0  0  0  0  0  0  0  0  0
   38.6600   24.7630   42.4700 H   0  0  0  0  0  0  0  0  0  0  0  0
   40.5160   26.1300   43.4410 H   0  0  0  0  0  0  0  0  0  0  0  0
   40.2160   28.6010   43.6160 H   0  0  0  0  0  0  0  0  0  0  0  0
   37.2290   29.7350   39.6730 O   0  0  0  0  0  0  0  0  0  0  0  0
   37.7130   31.0200   39.9450 C   0  0  0  0  0  2  0  0  0  0  0  0
   37.1460   32.0110   39.0640 N   0  0  0  0  0  4  0  0  0  0  0  0
   36.1070   31.8300   39.0500 H   0  0  0  0  0  0  0  0  0  0  0  0
   37.6220   31.7590   37.7260 C   0  0  0  0  0  2  0  0  0  0  0  0
   38.7150   31.7790   37.6350 H   0  0  0  0  0  0  0  0  0  0  0  0
   37.3920   33.3450   39.5190 C   0  0  0  0  0  2  0  0  0  0  0  0
   38.1200   33.2880   40.3500 H   0  0  0  0  0  0  0  0  0  0  0  0
  2  1  2  6  0  0  0
  2  3  1  0  0  0  0
  2  5  1  0  0  0  0
  3  4  1  0  0  0  0
  5 10  1  0  0  0  0
  6  7  1  0  0  0  0
  7  8  2  0  0  0  0
  7 13  1  0  0  0  0
  8 14  1  0  0  0  0
  9  8  1  0  0  0  0
 10  9  2  0  0  0  0
 11 10  1  0  0  0  0
 11  6  2  0  0  0  0
 12  6  1  0  0  0  0
 15 16  1  0  0  0  0
 15  2  1  0  0  0  0
 17 21  1  0  0  0  0
 17 16  1  0  0  0  0
 18 17  1  0  0  0  0
 19 17  1  0  0  0  0
 20 19  1  0  0  0  0
 21 22  1  0  0  0  0
M  END
>  <minimizedAffinity>
-4.17744541

$$$$

 OpenBabel03252505283D

 22 22  0  0  0  0  0  0  0  0999 V2000
   37.0580   30.2250   39.3510 O   0  0  0  0  0  0  0  0  0  0  0  0
   37.0050   31.0810   40.6070 P   0  0  1  0  0  0  0  0  0  0  0  0
   35.5780   30.8560   41.4610 O   0  0  0  0  0  0  0  0  0  0  0  0
   35.2590   31.7330   41.8350 H   0  0  0  0  0  0  0  0  0  0  0  0
   38.3460   30.7050   41.5460 O   0  0  0  0  0  0  0  0  0  0  0  0
   37.6530   27.9180   43.6480 C   0  0  0  0  0  0  0  0  0  0  0  0
   38.8600   27.2050   43.6770 C   0  0  0  0  0  0  0  0  0  0  0  0
   39.9410   27.7270   42.9320 C   0  0  0  0  0  0  0  0  0  0  0  0
   39.7380   28.8780   42.2450 N   0  0  0  0  0  0  0  0  0  0  0  0
   38.5660   29.5350   42.2400 C   0  0  0  0  0  0  0  0  0  0  0  0
   37.5300   29.0620   42.9350 N   0  0  0  0  0  0  0  0  0  0  0  0
   36.8090   27.5220   44.2220 H   0  0  0  0  0  0  0  0  0  0  0  0
   38.9820   26.2830   44.2420 H   0  0  0  0  0  0  0  0  0  0  0  0
   40.8940   27.2030   42.9290 H   0  0  0  0  0  0  0  0  0  0  0  0
   37.0200   32.6880   40.0700 O   0  0  0  0  0  0  0  0  0  0  0  0
   37.8450   32.7050   38.9390 C   0  0  0  0  0  2  0  0  0  0  0  0
   39.2320   32.5070   39.2750 N   0  0  0  0  0  4  0  0  0  0  0  0
   39.2450   31.8050   40.0630 H   0  0  0  0  0  0  0  0  0  0  0  0
   39.7520   33.7380   39.8160 C   0  0  0  0  0  2  0  0  0  0  0  0
   39.6660   34.5920   39.1330 H   0  0  0  0  0  0  0  0  0  0  0  0
   39.9910   31.9990   38.1720 C   0  0  0  0  0  2  0  0  0  0  0  0
   39.3510   32.0550   37.2710 H   0  0  0  0  0  0  0  0  0  0  0  0
  2  1  2  6  0  0  0
  2  3  1  0  0  0  0
  2  5  1  0  0  0  0
  3  4  1  0  0  0  0
  5 10  1  0  0  0  0
  6  7  1  0  0  0  0
  6 12  1  0  0  0  0
  7 13  1  0  0  0  0
  8  7  2  0  0  0  0
  9  8  1  0  0  0  0
 10  9  2  0  0  0  0
 10 11  1  0  0  0  0
 11  6  2  0  0  0  0
 14  8  1  0  0  0  0
 15  2  1  0  0  0  0
 16 17  1  0  0  0  0
 16 15  1  0  0  0  0
 17 19  1  0  0  0  0
 17 18  1  0  0  0  0
 20 19  1  0  0  0  0
 21 17  1  0  0  0  0
 22 21  1  0  0  0  0
M  END
>  <minimizedAffinity>
-4.13650036

$$$$

 OpenBabel03252505283D

 22 22  0  0  0  0  0  0  0  0999 V2000
   36.8610   29.1220   39.9650 O   0  0  0  0  0  0  0  0  0  0  0  0
   36.8750   29.8690   41.2890 P   0  0  1  0  0  0  0  0  0  0  0  0
   35.5960   30.9470   41.4160 O   0  0  0  0  0  0  0  0  0  0  0  0
   35.9000   31.7900   41.8710 H   0  0  0  0  0  0  0  0  0  0  0  0
   36.8420   28.7320   42.5250 O   0  0  0  0  0  0  0  0  0  0  0  0
   39.7190   26.9560   43.6370 C   0  0  0  0  0  0  0  0  0  0  0  0
   39.5370   25.6610   43.1310 C   0  0  0  0  0  0  0  0  0  0  0  0
   38.3660   25.4160   42.3800 C   0  0  0  0  0  0  0  0  0  0  0  0
   37.5030   26.4460   42.1990 N   0  0  0  0  0  0  0  0  0  0  0  0
   37.7110   27.6760   42.7000 C   0  0  0  0  0  0  0  0  0  0  0  0
   38.8090   27.9330   43.4130 N   0  0  0  0  0  0  0  0  0  0  0  0
   40.6240   27.1560   44.2210 H   0  0  0  0  0  0  0  0  0  0  0  0
   40.2540   24.8610   43.2980 H   0  0  0  0  0  0  0  0  0  0  0  0
   38.1880   24.4250   41.9700 H   0  0  0  0  0  0  0  0  0  0  0  0
   38.3020   30.7820   41.2880 O   0  0  0  0  0  0  0  0  0  0  0  0
   38.5440   31.1100   39.9490 C   0  0  0  0  0  2  0  0  0  0  0  0
   37.5720   32.0400   39.4330 N   0  0  0  0  0  4  0  0  0  0  0  0
   36.6330   31.7020   39.7750 H   0  0  0  0  0  0  0  0  0  0  0  0
   37.5480   31.9260   37.9960 C   0  0  0  0  0  2  0  0  0  0  0  0
   38.5180   32.1200   37.5210 H   0  0  0  0  0  0  0  0  0  0  0  0
   37.7960   33.3740   39.9000 C   0  0  0  0  0  2  0  0  0  0  0  0
   38.7810   33.3920   40.4050 H   0  0  0  0  0  0  0  0  0  0  0  0
  2  1  2  6  0  0  0
  2  3  1  0  0  0  0
  2  5  1  0  0  0  0
  3  4  1  0  0  0  0
  5 10  1  0  0  0  0
  6 12  1  0  0  0  0
  7 13  1  0  0  0  0
  7  6  2  0  0  0  0
  8  7  1  0  0  0  0
  9  8  2  0  0  0  0
  9 10  1  0  0  0  0
 10 11  2  0  0  0  0
 11  6  1  0  0  0  0
 14  8  1  0  0  0  0
 15  2  1  0  0  0  0
 16 15  1  0  0  0  0
 17 18  1  0  0  0  0
 17 21  1  0  0  0  0
 17 16  1  0  0  0  0
 19 17  1  0  0  0  0
 20 19  1  0  0  0  0
 21 22  1  0  0  0  0
M  END
>  <minimizedAffinity>
-4.0418458

$$$$

 OpenBabel03252505283D

 22 22  0  0  0  0  0  0  0  0999 V2000
   37.7520   29.7190   42.5840 O   0  0  0  0  0  0  0  0  0  0  0  0
   37.0160   29.9550   41.2750 P   0  0  1  0  0  0  0  0  0  0  0  0
   35.7690   31.0660   41.4470 O   0  0  0  0  0  0  0  0  0  0  0  0
   34.9770   30.7820   40.8980 H   0  0  0  0  0  0  0  0  0  0  0  0
   38.1370   30.4660   40.1340 O   0  0  0  0  0  0  0  0  0  0  0  0
   40.4450   32.9930   39.1560 C   0  0  0  0  0  0  0  0  0  0  0  0
   39.9450   34.1600   39.7520 C   0  0  0  0  0  0  0  0  0  0  0  0
   38.7630   34.0440   40.5160 C   0  0  0  0  0  0  0  0  0  0  0  0
   38.1960   32.8170   40.6220 N   0  0  0  0  0  0  0  0  0  0  0  0
   38.7030   31.7200   40.0360 C   0  0  0  0  0  0  0  0  0  0  0  0
   39.8190   31.8030   39.3080 N   0  0  0  0  0  0  0  0  0  0  0  0
   41.3610   33.0720   38.5610 H   0  0  0  0  0  0  0  0  0  0  0  0
   40.4310   35.1270   39.6420 H   0  0  0  0  0  0  0  0  0  0  0  0
   38.3440   34.9260   40.9950 H   0  0  0  0  0  0  0  0  0  0  0  0
   36.3110   28.4690   40.8700 O   0  0  0  0  0  0  0  0  0  0  0  0
   36.8810   27.5270   41.7340 C   0  0  0  0  0  2  0  0  0  0  0  0
   37.1160   26.2640   41.0820 N   0  0  0  0  0  4  0  0  0  0  0  0
   36.2130   26.0130   40.5950 H   0  0  0  0  0  0  0  0  0  0  0  0
   37.3250   25.2590   42.0950 C   0  0  0  0  0  2  0  0  0  0  0  0
   38.1640   25.4780   42.7670 H   0  0  0  0  0  0  0  0  0  0  0  0
   38.1720   26.3380   40.1190 C   0  0  0  0  0  2  0  0  0  0  0  0
   38.6730   27.3170   40.2450 H   0  0  0  0  0  0  0  0  0  0  0  0
  2  3  1  0  0  0  0
  2  1  2  1  0  0  0
  4  3  1  0  0  0  0
  5  2  1  0  0  0  0
  6 11  2  0  0  0  0
  6  7  1  0  0  0  0
  7  8  2  0  0  0  0
  8  9  1  0  0  0  0
  8 14  1  0  0  0  0
 10  5  1  0  0  0  0
 10  9  2  0  0  0  0
 11 10  1  0  0  0  0
 12  6  1  0  0  0  0
 13  7  1  0  0  0  0
 15  2  1  0  0  0  0
 15 16  1  0  0  0  0
 17 16  1  0  0  0  0
 17 19  1  0  0  0  0
 18 17  1  0  0  0  0
 19 20  1  0  0  0  0
 21 22  1  0  0  0  0
 21 17  1  0  0  0  0
M  END
>  <minimizedAffinity>
-3.89921927

$$$$

 OpenBabel03252505283D

 22 22  0  0  0  0  0  0  0  0999 V2000
   37.7260   30.7110   39.2660 O   0  0  0  0  0  0  0  0  0  0  0  0
   37.4630   31.4050   40.5930 P   0  0  1  0  0  0  0  0  0  0  0  0
   35.8390   31.3650   41.0120 O   0  0  0  0  0  0  0  0  0  0  0  0
   35.5710   32.2360   41.4350 H   0  0  0  0  0  0  0  0  0  0  0  0
   38.4150   30.6640   41.7620 O   0  0  0  0  0  0  0  0  0  0  0  0
   36.7570   27.6460   42.6650 C   0  0  0  0  0  0  0  0  0  0  0  0
   37.7540   26.8860   43.2950 C   0  0  0  0  0  0  0  0  0  0  0  0
   39.0400   27.4600   43.3990 C   0  0  0  0  0  0  0  0  0  0  0  0
   39.2230   28.7010   42.8860 N   0  0  0  0  0  0  0  0  0  0  0  0
   38.2440   29.4010   42.2890 C   0  0  0  0  0  0  0  0  0  0  0  0
   37.0190   28.8820   42.1770 N   0  0  0  0  0  0  0  0  0  0  0  0
   35.7560   27.2110   42.5790 H   0  0  0  0  0  0  0  0  0  0  0  0
   37.5660   25.8920   43.6940 H   0  0  0  0  0  0  0  0  0  0  0  0
   39.8400   26.9020   43.8810 H   0  0  0  0  0  0  0  0  0  0  0  0
   37.8790   33.0290   40.3540 O   0  0  0  0  0  0  0  0  0  0  0  0
   39.1530   33.1840   40.9140 C   0  0  0  0  0  2  0  0  0  0  0  0
   40.1720   32.5250   40.1370 N   0  0  0  0  0  4  0  0  0  0  0  0
   39.7920   31.5680   39.9080 H   0  0  0  0  0  0  0  0  0  0  0  0
   41.3240   32.3160   40.9780 C   0  0  0  0  0  2  0  0  0  0  0  0
   41.7370   33.2410   41.4000 H   0  0  0  0  0  0  0  0  0  0  0  0
   40.4660   33.2240   38.9230 C   0  0  0  0  0  2  0  0  0  0  0  0
   39.9580   34.2060   38.9690 H   0  0  0  0  0  0  0  0  0  0  0  0
  2  1  2  6  0  0  0
  2  3  1  0  0  0  0
  2  5  1  0  0  0  0
  3  4  1  0  0  0  0
  5 10  1  0  0  0  0
  6  7  1  0  0  0  0
  7  8  2  0  0  0  0
  7 13  1  0  0  0  0
  8 14  1  0  0  0  0
  9  8  1  0  0  0  0
 10  9  2  0  0  0  0
 11 10  1  0  0  0  0
 11  6  2  0  0  0  0
 12  6  1  0  0  0  0
 15  2  1  0  0  0  0
 15 16  1  0  0  0  0
 17 16  1  0  0  0  0
 17 19  1  0  0  0  0
 18 17  1  0  0  0  0
 19 20  1  0  0  0  0
 21 22  1  0  0  0  0
 21 17  1  0  0  0  0
M  END
>  <minimizedAffinity>
-3.89870453

$$$$

 OpenBabel03252505283D

 22 22  0  0  0  0  0  0  0  0999 V2000
   38.5930   29.3300   40.8550 O   0  0  0  0  0  0  0  0  0  0  0  0
   38.5340   29.4070   42.3720 P   0  0  1  0  0  0  0  0  0  0  0  0
   36.9650   29.6150   42.9300 O   0  0  0  0  0  0  0  0  0  0  0  0
   36.9590   30.2460   43.7130 H   0  0  0  0  0  0  0  0  0  0  0  0
   39.2210   28.0040   42.9880 O   0  0  0  0  0  0  0  0  0  0  0  0
   37.0740   25.2880   42.1610 C   0  0  0  0  0  0  0  0  0  0  0  0
   37.9230   24.1710   42.1580 C   0  0  0  0  0  0  0  0  0  0  0  0
   39.2860   24.3910   42.4560 C   0  0  0  0  0  0  0  0  0  0  0  0
   39.6780   25.6610   42.7250 N   0  0  0  0  0  0  0  0  0  0  0  0
   38.8360   26.7070   42.7180 C   0  0  0  0  0  0  0  0  0  0  0  0
   37.5430   26.5270   42.4390 N   0  0  0  0  0  0  0  0  0  0  0  0
   36.0150   25.1280   41.9310 H   0  0  0  0  0  0  0  0  0  0  0  0
   37.5680   23.1670   41.9370 H   0  0  0  0  0  0  0  0  0  0  0  0
   39.9760   23.5510   42.4650 H   0  0  0  0  0  0  0  0  0  0  0  0
   39.4060   30.7960   42.7970 O   0  0  0  0  0  0  0  0  0  0  0  0
   40.0890   31.1870   41.6400 C   0  0  0  0  0  2  0  0  0  0  0  0
   40.0790   32.6170   41.4600 N   0  0  0  0  0  4  0  0  0  0  0  0
   40.1160   33.0340   42.4290 H   0  0  0  0  0  0  0  0  0  0  0  0
   38.8070   32.9980   40.8990 C   0  0  0  0  0  2  0  0  0  0  0  0
   38.5840   32.5140   39.9400 H   0  0  0  0  0  0  0  0  0  0  0  0
   41.2030   33.0770   40.7020 C   0  0  0  0  0  2  0  0  0  0  0  0
   41.7120   32.1880   40.2830 H   0  0  0  0  0  0  0  0  0  0  0  0
  2  1  2  6  0  0  0
  2 15  1  0  0  0  0
  2  3  1  0  0  0  0
  2  5  1  0  0  0  0
  3  4  1  0  0  0  0
  6 11  1  0  0  0  0
  7  6  2  0  0  0  0
  7  8  1  0  0  0  0
  8 14  1  0  0  0  0
  8  9  2  0  0  0  0
 10  9  1  0  0  0  0
 10  5  1  0  0  0  0
 11 10  2  0  0  0  0
 12  6  1  0  0  0  0
 13  7  1  0  0  0  0
 16 15  1  0  0  0  0
 17 16  1  0  0  0  0
 17 18  1  0  0  0  0
 19 17  1  0  0  0  0
 20 19  1  0  0  0  0
 21 17  1  0  0  0  0
 22 21  1  0  0  0  0
M  END
>  <minimizedAffinity>
-3.83843946

$$$$

 OpenBabel03252505283D

 22 22  0  0  0  0  0  0  0  0999 V2000
   38.8260   33.2990   41.0260 O   0  0  0  0  0  0  0  0  0  0  0  0
   39.4420   31.9190   41.1940 P   0  0  1  0  0  0  0  0  0  0  0  0
   40.5390   31.8710   42.4630 O   0  0  0  0  0  0  0  0  0  0  0  0
   41.3250   31.2960   42.2160 H   0  0  0  0  0  0  0  0  0  0  0  0
   38.1930   30.8190   41.4220 O   0  0  0  0  0  0  0  0  0  0  0  0
   39.6260   28.0580   43.1530 C   0  0  0  0  0  0  0  0  0  0  0  0
   38.5180   27.3010   43.5620 C   0  0  0  0  0  0  0  0  0  0  0  0
   37.2370   27.7840   43.2140 C   0  0  0  0  0  0  0  0  0  0  0  0
   37.1660   28.9410   42.5120 N   0  0  0  0  0  0  0  0  0  0  0  0
   38.2500   29.6410   42.1360 C   0  0  0  0  0  0  0  0  0  0  0  0
   39.4720   29.2070   42.4520 N   0  0  0  0  0  0  0  0  0  0  0  0
   40.6240   27.6930   43.4170 H   0  0  0  0  0  0  0  0  0  0  0  0
   38.6180   26.3770   44.1260 H   0  0  0  0  0  0  0  0  0  0  0  0
   36.3530   27.2260   43.5130 H   0  0  0  0  0  0  0  0  0  0  0  0
   40.3100   31.6260   39.7690 O   0  0  0  0  0  0  0  0  0  0  0  0
   39.6900   32.3970   38.7780 C   0  0  0  0  0  2  0  0  0  0  0  0
   40.6440   32.9900   37.8750 N   0  0  0  0  0  4  0  0  0  0  0  0
   40.0780   33.5050   37.1490 H   0  0  0  0  0  0  0  0  0  0  0  0
   41.3340   31.9320   37.1790 C   0  0  0  0  0  2  0  0  0  0  0  0
   41.8560   31.2330   37.8450 H   0  0  0  0  0  0  0  0  0  0  0  0
   41.5190   33.9090   38.5360 C   0  0  0  0  0  2  0  0  0  0  0  0
   41.3600   33.7990   39.6260 H   0  0  0  0  0  0  0  0  0  0  0  0
  2  1  2  6  0  0  0
  2  5  1  0  0  0  0
  2  3  1  0  0  0  0
  4  3  1  0  0  0  0
  5 10  1  0  0  0  0
  6 12  1  0  0  0  0
  6  7  1  0  0  0  0
  7 13  1  0  0  0  0
  8 14  1  0  0  0  0
  8  7  2  0  0  0  0
  9  8  1  0  0  0  0
 10 11  1  0  0  0  0
 10  9  2  0  0  0  0
 11  6  2  0  0  0  0
 15  2  1  0  0  0  0
 16 15  1  0  0  0  0
 17 21  1  0  0  0  0
 17 16  1  0  0  0  0
 18 17  1  0  0  0  0
 19 20  1  0  0  0  0
 19 17  1  0  0  0  0
 21 22  1  0  0  0  0
M  END
>  <minimizedAffinity>
-3.80867839

$$$$

 OpenBabel03252505283D

 22 22  0  0  0  0  0  0  0  0999 V2000
   36.7210   30.5620   37.6820 O   0  0  0  0  0  0  0  0  0  0  0  0
   37.2050   30.6150   39.1230 P   0  0  1  0  0  0  0  0  0  0  0  0
   36.6500   31.9820   39.9220 O   0  0  0  0  0  0  0  0  0  0  0  0
   37.3680   32.3420   40.5260 H   0  0  0  0  0  0  0  0  0  0  0  0
   36.6980   29.2090   39.8900 O   0  0  0  0  0  0  0  0  0  0  0  0
   36.9070   27.0820   42.7360 C   0  0  0  0  0  0  0  0  0  0  0  0
   37.6270   27.8370   43.6740 C   0  0  0  0  0  0  0  0  0  0  0  0
   38.0460   29.1290   43.2840 C   0  0  0  0  0  0  0  0  0  0  0  0
   37.7240   29.5480   42.0350 N   0  0  0  0  0  0  0  0  0  0  0  0
   37.0320   28.7960   41.1630 C   0  0  0  0  0  0  0  0  0  0  0  0
   36.6250   27.5730   41.5060 N   0  0  0  0  0  0  0  0  0  0  0  0
   36.5780   26.0800   43.0290 H   0  0  0  0  0  0  0  0  0  0  0  0
   37.8660   27.4640   44.6670 H   0  0  0  0  0  0  0  0  0  0  0  0
   38.6070   29.7460   43.9820 H   0  0  0  0  0  0  0  0  0  0  0  0
   38.8930   30.7330   39.0380 O   0  0  0  0  0  0  0  0  0  0  0  0
   39.2290   31.9000   39.7350 C   0  0  0  0  0  2  0  0  0  0  0  0
   39.6460   32.9590   38.8510 N   0  0  0  0  0  4  0  0  0  0  0  0
   38.7680   33.3180   38.3890 H   0  0  0  0  0  0  0  0  0  0  0  0
   40.4550   32.3880   37.8030 C   0  0  0  0  0  2  0  0  0  0  0  0
   41.3420   31.8550   38.1690 H   0  0  0  0  0  0  0  0  0  0  0  0
   40.2870   34.0300   39.5520 C   0  0  0  0  0  2  0  0  0  0  0  0
   40.4650   33.6920   40.5910 H   0  0  0  0  0  0  0  0  0  0  0  0
  2  1  2  6  0  0  0
  2  5  1  0  0  0  0
  2  3  1  0  0  0  0
  3  4  1  0  0  0  0
  5 10  1  0  0  0  0
  6 12  1  0  0  0  0
  6  7  1  0  0  0  0
  7 13  1  0  0  0  0
  8  7  2  0  0  0  0
  8 14  1  0  0  0  0
  9  8  1  0  0  0  0
 10 11  1  0  0  0  0
 10  9  2  0  0  0  0
 11  6  2  0  0  0  0
 15  2  1  0  0  0  0
 15 16  1  0  0  0  0
 17 21  1  0  0  0  0
 17 16  1  0  0  0  0
 18 17  1  0  0  0  0
 19 20  1  0  0  0  0
 19 17  1  0  0  0  0
 21 22  1  0  0  0  0
M  END
>  <minimizedAffinity>
-3.76923513

$$$$

 OpenBabel03252505283D

 22 22  0  0  0  0  0  0  0  0999 V2000
   36.9900   28.7790   40.4780 O   0  0  0  0  0  0  0  0  0  0  0  0
   37.1250   30.1260   41.1710 P   0  0  1  0  0  0  0  0  0  0  0  0
   35.6360   30.8620   41.4100 O   0  0  0  0  0  0  0  0  0  0  0  0
   35.7120   31.8520   41.2550 H   0  0  0  0  0  0  0  0  0  0  0  0
   37.9280   29.8820   42.6260 O   0  0  0  0  0  0  0  0  0  0  0  0
   39.3030   26.7720   43.6800 C   0  0  0  0  0  0  0  0  0  0  0  0
   40.6820   26.9210   43.4700 C   0  0  0  0  0  0  0  0  0  0  0  0
   41.1290   28.1530   42.9430 C   0  0  0  0  0  0  0  0  0  0  0  0
   40.1990   29.1030   42.6780 N   0  0  0  0  0  0  0  0  0  0  0  0
   38.8850   28.9250   42.8910 C   0  0  0  0  0  0  0  0  0  0  0  0
   38.4360   27.7700   43.3880 N   0  0  0  0  0  0  0  0  0  0  0  0
   38.9450   25.8210   44.0880 H   0  0  0  0  0  0  0  0  0  0  0  0
   41.3960   26.1330   43.6960 H   0  0  0  0  0  0  0  0  0  0  0  0
   42.1910   28.3070   42.7660 H   0  0  0  0  0  0  0  0  0  0  0  0
   38.0030   31.1060   40.1030 O   0  0  0  0  0  0  0  0  0  0  0  0
   38.5630   30.2370   39.1600 C   0  0  0  0  0  2  0  0  0  0  0  0
   38.2030   30.5940   37.8110 N   0  0  0  0  0  4  0  0  0  0  0  0
   39.1100   30.6750   37.2770 H   0  0  0  0  0  0  0  0  0  0  0  0
   37.6210   31.9140   37.8280 C   0  0  0  0  0  2  0  0  0  0  0  0
   36.7350   31.9970   38.4710 H   0  0  0  0  0  0  0  0  0  0  0  0
   37.3720   29.6080   37.1910 C   0  0  0  0  0  2  0  0  0  0  0  0
   37.0610   28.8910   37.9740 H   0  0  0  0  0  0  0  0  0  0  0  0
  2  1  2  6  0  0  0
  2  3  1  0  0  0  0
  2  5  1  0  0  0  0
  4  3  1  0  0  0  0
  5 10  1  0  0  0  0
  6 12  1  0  0  0  0
  7  6  1  0  0  0  0
  7 13  1  0  0  0  0
  8  7  2  0  0  0  0
  9 10  2  0  0  0  0
  9  8  1  0  0  0  0
 10 11  1  0  0  0  0
 11  6  2  0  0  0  0
 14  8  1  0  0  0  0
 15  2  1  0  0  0  0
 16 15  1  0  0  0  0
 17 19  1  0  0  0  0
 17 16  1  0  0  0  0
 18 17  1  0  0  0  0
 19 20  1  0  0  0  0
 21 17  1  0  0  0  0
 21 22  1  0  0  0  0
M  END
>  <minimizedAffinity>
-3.75302029

$$$$
