
     RDKit          3D

 39 39  0  0  0  0  0  0  0  0999 V2000
   42.5372   35.2799   40.8891 O   0  0  0  0  0  0  0  0  0  0  0  0
   41.2745   35.7336   41.1690 C   0  0  0  0  0  0  0  0  0  0  0  0
   40.2515   33.5953   41.6236 C   0  0  0  0  0  0  0  0  0  0  0  0
   40.2015   34.7634   40.8325 C   0  0  0  0  0  0  0  0  0  0  0  0
   39.2148   34.8408   39.9024 C   0  0  0  0  0  0  0  0  0  0  0  0
   38.3714   33.8159   39.8047 N   0  0  0  0  0  0  0  0  0  0  0  0
   38.4180   32.7145   40.5500 C   0  0  0  0  0  0  0  0  0  0  0  0
   39.4028   32.5595   41.5279 N   0  0  0  0  0  0  0  0  0  0  0  0
   43.7364   35.6631   41.4655 C   0  0  0  0  0  0  0  0  0  0  0  0
   43.9411   35.2806   42.7357 C   0  0  0  0  0  0  0  0  0  0  0  0
   45.1815   35.5836   43.5567 C   0  0  0  0  0  0  0  0  0  0  0  0
   45.0511   34.9286   44.7527 O   0  0  0  0  0  0  0  0  0  0  0  0
   45.5454   32.3384   44.4131 O   0  0  0  0  0  0  0  0  0  0  0  0
   46.1464   33.6142   44.8794 P   0  0  1  0  0  0  0  0  0  0  0  0
   47.5175   33.9743   43.9317 O   0  0  0  0  0  0  0  0  0  0  0  0
   46.6770   33.5496   46.4800 O   0  0  0  0  0  0  0  0  0  0  0  0
   41.1908   35.8510   42.2931 H   0  0  0  0  0  0  0  0  0  0  0  0
   41.0552   36.6992   40.7165 H   0  0  0  0  0  0  0  0  0  0  0  0
   40.9964   33.4097   42.4071 H   0  0  0  0  0  0  0  0  0  0  0  0
   39.2315   35.7581   39.3311 H   0  0  0  0  0  0  0  0  0  0  0  0
   37.6859   31.9397   40.3917 H   0  0  0  0  0  0  0  0  0  0  0  0
   44.5285   36.2292   41.0273 H   0  0  0  0  0  0  0  0  0  0  0  0
   43.1083   34.6984   43.1641 H   0  0  0  0  0  0  0  0  0  0  0  0
   46.0069   35.1165   42.9760 H   0  0  0  0  0  0  0  0  0  0  0  0
   45.2933   36.6749   43.6398 H   0  0  0  0  0  0  0  0  0  0  0  0
   47.7410   34.9159   44.1025 H   0  0  0  0  0  0  0  0  0  0  0  0
   47.9223   33.0232   46.6788 C   0  0  0  0  0  0  0  0  0  0  0  0
   48.5764   33.2821   47.9180 N   0  0  0  0  0  4  0  0  0  0  0  0
   48.4759   32.2383   48.9077 C   0  0  0  0  0  0  0  0  0  0  0  0
   49.4459   32.1945   49.4993 H   0  0  0  0  0  0  0  0  0  0  0  0
   48.2998   34.5727   48.4999 C   0  0  0  0  0  0  0  0  0  0  0  0
   47.5843   35.1641   47.9012 H   0  0  0  0  0  0  0  0  0  0  0  0
   48.5578   33.4298   45.8304 H   0  0  0  0  0  0  0  0  0  0  0  0
   47.9410   31.9027   46.4983 H   0  0  0  0  0  0  0  0  0  0  0  0
   49.6351   33.3026   47.6788 H   0  0  0  0  0  0  0  0  0  0  0  0
   48.4511   31.2327   48.4135 H   0  0  0  0  0  0  0  0  0  0  0  0
   47.6268   32.3451   49.6017 H   0  0  0  0  0  0  0  0  0  0  0  0
   47.9545   34.4960   49.5522 H   0  0  0  0  0  0  0  0  0  0  0  0
   49.2208   35.2019   48.5539 H   0  0  0  0  0  0  0  0  0  0  0  0
  1  2  1  0
  1  9  1  0
  4  2  1  0
  4  3  2  0
  5  4  1  0
  6  5  2  0
  6  7  1  0
  7  8  2  0
  8  3  1  0
  9 10  2  0
 10 11  1  0
 11 12  1  0
 14 12  1  1
 13 14  2  0
 14 16  1  0
 15 14  1  0
  2 17  1  0
  2 18  1  0
  3 19  1  0
  5 20  1  0
  7 21  1  0
  9 22  1  0
 10 23  1  0
 11 24  1  0
 11 25  1  0
 15 26  1  0
 27 28  1  0
 28 29  1  0
 29 30  1  0
 28 31  1  0
 31 32  1  0
 27 33  1  0
 27 34  1  0
 28 35  1  0
 29 36  1  0
 29 37  1  0
 31 38  1  0
 31 39  1  0
 16 27  1  0
M  ISO  8  17   8  18   8  19  14  20  14  21  14  24   8  25   8  26   3
M  CHG  1  28   1
M  ISO  2  30   8  32   8
M  END
>  <DihAtoms>  (1) 
13,15,26,27

>  <DihDeg>  (1) 
-62.587849948962095

$$$$
