
 OpenBabel03252506143D

 34 35  0  0  0  0  0  0  0  0999 V2000
   37.8110   27.7320   39.5900 F   0  0  0  0  0  0  0  0  0  0  0  0
   37.5950   27.7420   40.8910 C   0  0  0  0  0  0  0  0  0  0  0  0
   37.2140   26.5750   41.5160 C   0  0  0  0  0  0  0  0  0  0  0  0
   36.9630   26.4820   42.8920 C   0  0  0  0  0  0  0  0  0  0  0  0
   37.1040   27.6260   43.6760 C   0  0  0  0  0  0  0  0  0  0  0  0
   37.4870   28.7720   43.0140 C   0  0  0  0  0  0  0  0  0  0  0  0
   37.7330   28.8790   41.6830 C   0  0  0  0  0  0  0  0  0  0  0  0
   36.6650   25.5150   43.3030 H   0  0  0  0  0  0  0  0  0  0  0  0
   36.9000   27.4970   44.7160 H   0  0  0  0  0  0  0  0  0  0  0  0
   37.5650   29.5770   43.7500 H   0  0  0  0  0  0  0  0  0  0  0  0
   37.5760   23.0870   40.4310 C   0  0  0  0  0  0  0  0  0  0  0  0
   36.7550   23.0590   39.2660 C   0  0  0  0  0  0  0  0  0  0  0  0
   36.0800   24.2560   38.8650 C   0  0  0  0  0  0  0  0  0  0  0  0
   36.2780   25.3590   39.6470 N   0  0  0  0  0  0  0  0  0  0  0  0
   37.0560   25.3380   40.7290 C   0  0  0  0  0  0  0  0  0  0  0  0
   37.6970   24.2200   41.1160 N   0  0  0  0  0  0  0  0  0  0  0  0
   36.6070   22.1760   38.6580 H   0  0  0  0  0  0  0  0  0  0  0  0
   35.4630   24.2580   38.0030 H   0  0  0  0  0  0  0  0  0  0  0  0
   38.2100   21.8910   40.8050 N   0  0  0  0  0  0  0  0  0  0  0  0
   37.5230   21.3790   41.4320 H   0  0  0  0  0  0  0  0  0  0  0  0
   39.1580   21.5460   40.5390 H   0  0  0  0  0  0  0  0  0  0  0  0
   38.1070   30.0760   41.1370 O   0  0  0  0  0  0  0  0  0  0  0  0
   37.6690   32.6320   40.5990 O   0  0  0  0  0  0  0  0  0  0  0  0
   37.0920   31.2380   40.4750 P   0  0  2  0  0  0  0  0  0  0  0  0
   35.5850   31.1540   41.2860 O   0  0  0  0  0  0  0  0  0  0  0  0
   35.0710   31.9430   40.9300 H   0  0  0  0  0  0  0  0  0  0  0  0
   36.7340   30.9680   38.8450 O   0  0  0  0  0  0  0  0  0  0  0  0
   37.7140   31.4740   38.0230 C   0  0  0  0  0  2  0  0  0  0  0  0
   39.0450   31.0370   38.3540 N   0  0  0  0  0  4  0  0  0  0  0  0
   39.1390   30.9480   39.3890 H   0  0  0  0  0  0  0  0  0  0  0  0
   39.9860   32.0670   37.9380 C   0  0  0  0  0  2  0  0  0  0  0  0
   39.7210   33.0020   38.4710 H   0  0  0  0  0  0  0  0  0  0  0  0
   39.3890   29.7870   37.6930 C   0  0  0  0  0  2  0  0  0  0  0  0
   38.5520   29.3910   37.0800 H   0  0  0  0  0  0  0  0  0  0  0  0
  1  2  1  0  0  0  0
  2  3  2  0  0  0  0
  2  7  1  0  0  0  0
  3  4  1  0  0  0  0
  4  8  1  0  0  0  0
  4  5  2  0  0  0  0
  5  9  1  0  0  0  0
  6  5  1  0  0  0  0
  6 10  1  0  0  0  0
  7  6  2  0  0  0  0
 11 19  1  0  0  0  0
 11 16  1  0  0  0  0
 12 11  2  0  0  0  0
 13 12  1  0  0  0  0
 13 14  2  0  0  0  0
 14 15  1  0  0  0  0
 15 16  2  0  0  0  0
 15  3  1  0  0  0  0
 17 12  1  0  0  0  0
 18 13  1  0  0  0  0
 19 20  1  0  0  0  0
 21 19  1  0  0  0  0
 22  7  1  0  0  0  0
 24 23  2  1  0  0  0
 24 22  1  0  0  0  0
 24 25  1  0  0  0  0
 26 25  1  0  0  0  0
 27 24  1  0  0  0  0
 28 29  1  0  0  0  0
 28 27  1  0  0  0  0
 29 30  1  0  0  0  0
 31 29  1  0  0  0  0
 31 32  1  0  0  0  0
 33 29  1  0  0  0  0
 34 33  1  0  0  0  0
M  END
>  <minimizedAffinity>
-5.55588531

$$$$

 OpenBabel03252506143D

 34 35  0  0  0  0  0  0  0  0999 V2000
   39.3430   28.5370   39.6760 F   0  0  0  0  0  0  0  0  0  0  0  0
   38.0660   28.7560   39.9230 C   0  0  0  0  0  0  0  0  0  0  0  0
   37.4810   28.1500   41.0120 C   0  0  0  0  0  0  0  0  0  0  0  0
   36.1330   28.3190   41.3600 C   0  0  0  0  0  0  0  0  0  0  0  0
   35.3370   29.1440   40.5660 C   0  0  0  0  0  0  0  0  0  0  0  0
   35.9600   29.7320   39.4860 C   0  0  0  0  0  0  0  0  0  0  0  0
   37.2630   29.5770   39.1370 C   0  0  0  0  0  0  0  0  0  0  0  0
   35.7530   27.7990   42.2410 H   0  0  0  0  0  0  0  0  0  0  0  0
   34.3200   29.2360   40.8770 H   0  0  0  0  0  0  0  0  0  0  0  0
   35.2230   30.3500   38.9670 H   0  0  0  0  0  0  0  0  0  0  0  0
   38.9360   25.1180   42.4850 C   0  0  0  0  0  0  0  0  0  0  0  0
   39.7740   25.6630   43.5010 C   0  0  0  0  0  0  0  0  0  0  0  0
   39.8270   27.0840   43.6680 C   0  0  0  0  0  0  0  0  0  0  0  0
   39.0540   27.8270   42.8220 N   0  0  0  0  0  0  0  0  0  0  0  0
   38.2840   27.2730   41.8840 C   0  0  0  0  0  0  0  0  0  0  0  0
   38.2250   25.9390   41.7180 N   0  0  0  0  0  0  0  0  0  0  0  0
   40.3820   25.0610   44.1630 H   0  0  0  0  0  0  0  0  0  0  0  0
   40.4440   27.5110   44.4170 H   0  0  0  0  0  0  0  0  0  0  0  0
   38.9210   23.7220   42.3380 N   0  0  0  0  0  0  0  0  0  0  0  0
   39.7080   23.4900   41.6640 H   0  0  0  0  0  0  0  0  0  0  0  0
   38.2830   23.0280   42.7840 H   0  0  0  0  0  0  0  0  0  0  0  0
   37.7690   30.2140   38.0370 O   0  0  0  0  0  0  0  0  0  0  0  0
   37.8600   32.7250   38.8730 O   0  0  0  0  0  0  0  0  0  0  0  0
   38.5580   31.6960   38.0100 P   0  0  2  0  0  0  0  0  0  0  0  0
   38.6170   32.2390   36.3850 O   0  0  0  0  0  0  0  0  0  0  0  0
   38.9900   33.1710   36.4530 H   0  0  0  0  0  0  0  0  0  0  0  0
   40.1710   31.6080   38.5080 O   0  0  0  0  0  0  0  0  0  0  0  0
   40.7850   32.8380   38.4490 C   0  0  0  0  0  2  0  0  0  0  0  0
   41.5510   33.0580   37.2510 N   0  0  0  0  0  4  0  0  0  0  0  0
   40.9070   33.2240   36.4470 H   0  0  0  0  0  0  0  0  0  0  0  0
   42.2910   31.8420   36.9460 C   0  0  0  0  0  2  0  0  0  0  0  0
   41.5560   31.0230   36.8140 H   0  0  0  0  0  0  0  0  0  0  0  0
   42.4910   34.1590   37.3990 C   0  0  0  0  0  2  0  0  0  0  0  0
   42.4220   34.6400   38.3970 H   0  0  0  0  0  0  0  0  0  0  0  0
  1  2  1  0  0  0  0
  2  3  1  0  0  0  0
  3  4  2  0  0  0  0
  3 15  1  0  0  0  0
  4  8  1  0  0  0  0
  5  9  1  0  0  0  0
  5  4  1  0  0  0  0
  6  5  2  0  0  0  0
  7  6  1  0  0  0  0
  7  2  2  0  0  0  0
 10  6  1  0  0  0  0
 11 12  1  0  0  0  0
 12 13  2  0  0  0  0
 12 17  1  0  0  0  0
 13 18  1  0  0  0  0
 14 13  1  0  0  0  0
 15 14  2  0  0  0  0
 16 15  1  0  0  0  0
 16 11  2  0  0  0  0
 19 11  1  0  0  0  0
 19 21  1  0  0  0  0
 20 19  1  0  0  0  0
 22  7  1  0  0  0  0
 24 22  1  0  0  0  0
 24 27  1  0  0  0  0
 24 23  2  1  0  0  0
 25 26  1  0  0  0  0
 25 24  1  0  0  0  0
 28 27  1  0  0  0  0
 29 33  1  0  0  0  0
 29 28  1  0  0  0  0
 30 29  1  0  0  0  0
 31 29  1  0  0  0  0
 32 31  1  0  0  0  0
 33 34  1  0  0  0  0
M  END
>  <minimizedAffinity>
-5.54101992

$$$$

 OpenBabel03252506143D

 34 35  0  0  0  0  0  0  0  0999 V2000
   39.3320   29.7890   42.0970 F   0  0  0  0  0  0  0  0  0  0  0  0
   38.1100   29.6570   41.6200 C   0  0  0  0  0  0  0  0  0  0  0  0
   37.5140   28.4160   41.6390 C   0  0  0  0  0  0  0  0  0  0  0  0
   36.2200   28.1720   41.1580 C   0  0  0  0  0  0  0  0  0  0  0  0
   35.4910   29.2390   40.6310 C   0  0  0  0  0  0  0  0  0  0  0  0
   36.1230   30.4640   40.6310 C   0  0  0  0  0  0  0  0  0  0  0  0
   37.3750   30.7150   41.0920 C   0  0  0  0  0  0  0  0  0  0  0  0
   35.8260   27.1560   41.2120 H   0  0  0  0  0  0  0  0  0  0  0  0
   34.5130   28.9960   40.2790 H   0  0  0  0  0  0  0  0  0  0  0  0
   35.4350   31.1980   40.2020 H   0  0  0  0  0  0  0  0  0  0  0  0
   38.5930   24.9560   42.2220 C   0  0  0  0  0  0  0  0  0  0  0  0
   39.5990   25.1300   43.2170 C   0  0  0  0  0  0  0  0  0  0  0  0
   39.8960   26.4520   43.6790 C   0  0  0  0  0  0  0  0  0  0  0  0
   39.1760   27.4700   43.1190 N   0  0  0  0  0  0  0  0  0  0  0  0
   38.2430   27.2590   42.1900 C   0  0  0  0  0  0  0  0  0  0  0  0
   37.9550   26.0210   41.7480 N   0  0  0  0  0  0  0  0  0  0  0  0
   40.1620   24.3130   43.6500 H   0  0  0  0  0  0  0  0  0  0  0  0
   40.6410   26.6050   44.4180 H   0  0  0  0  0  0  0  0  0  0  0  0
   38.3400   23.6480   41.7800 N   0  0  0  0  0  0  0  0  0  0  0  0
   39.0120   23.4740   40.9770 H   0  0  0  0  0  0  0  0  0  0  0  0
   37.6440   22.9620   42.1430 H   0  0  0  0  0  0  0  0  0  0  0  0
   37.8970   31.9780   41.0380 O   0  0  0  0  0  0  0  0  0  0  0  0
   39.4610   33.8100   39.9370 O   0  0  0  0  0  0  0  0  0  0  0  0
   38.3550   32.8160   39.6560 P   0  0  2  0  0  0  0  0  0  0  0  0
   36.9770   33.6320   39.0460 O   0  0  0  0  0  0  0  0  0  0  0  0
   37.3400   34.2010   38.3000 H   0  0  0  0  0  0  0  0  0  0  0  0
   38.8670   31.8090   38.3980 O   0  0  0  0  0  0  0  0  0  0  0  0
   37.8420   31.5340   37.5230 C   0  0  0  0  0  2  0  0  0  0  0  0
   37.8520   30.1900   37.0070 N   0  0  0  0  0  4  0  0  0  0  0  0
   38.1830   30.1950   36.0190 H   0  0  0  0  0  0  0  0  0  0  0  0
   36.4830   29.6940   36.9840 C   0  0  0  0  0  2  0  0  0  0  0  0
   35.8890   30.3730   36.3400 H   0  0  0  0  0  0  0  0  0  0  0  0
   38.6640   29.2990   37.8220 C   0  0  0  0  0  2  0  0  0  0  0  0
   39.1450   29.8270   38.6720 H   0  0  0  0  0  0  0  0  0  0  0  0
  2  3  1  0  0  0  0
  2  1  1  0  0  0  0
  3 15  1  0  0  0  0
  4  8  1  0  0  0  0
  4  3  2  0  0  0  0
  5  4  1  0  0  0  0
  6  5  2  0  0  0  0
  6  7  1  0  0  0  0
  7  2  2  0  0  0  0
  9  5  1  0  0  0  0
 10  6  1  0  0  0  0
 11 12  1  0  0  0  0
 12 17  1  0  0  0  0
 12 13  2  0  0  0  0
 13 18  1  0  0  0  0
 14 13  1  0  0  0  0
 15 14  2  0  0  0  0
 16 15  1  0  0  0  0
 16 11  2  0  0  0  0
 19 21  1  0  0  0  0
 19 11  1  0  0  0  0
 20 19  1  0  0  0  0
 22  7  1  0  0  0  0
 24 23  2  1  0  0  0
 24 22  1  0  0  0  0
 25 24  1  0  0  0  0
 26 25  1  0  0  0  0
 27 24  1  0  0  0  0
 28 27  1  0  0  0  0
 29 28  1  0  0  0  0
 29 33  1  0  0  0  0
 30 29  1  0  0  0  0
 31 29  1  0  0  0  0
 32 31  1  0  0  0  0
 33 34  1  0  0  0  0
M  END
>  <minimizedAffinity>
-5.45127869

$$$$

 OpenBabel03252506143D

 34 35  0  0  0  0  0  0  0  0999 V2000
   39.4410   28.5730   39.8280 F   0  0  0  0  0  0  0  0  0  0  0  0
   38.1530   28.7430   40.0550 C   0  0  0  0  0  0  0  0  0  0  0  0
   37.5630   28.0720   41.1020 C   0  0  0  0  0  0  0  0  0  0  0  0
   36.2030   28.1860   41.4250 C   0  0  0  0  0  0  0  0  0  0  0  0
   35.4000   29.0220   40.6500 C   0  0  0  0  0  0  0  0  0  0  0  0
   36.0290   29.6770   39.6130 C   0  0  0  0  0  0  0  0  0  0  0  0
   37.3430   29.5750   39.2870 C   0  0  0  0  0  0  0  0  0  0  0  0
   35.8200   27.6160   42.2730 H   0  0  0  0  0  0  0  0  0  0  0  0
   34.3740   29.0710   40.9410 H   0  0  0  0  0  0  0  0  0  0  0  0
   35.2850   30.2960   39.1040 H   0  0  0  0  0  0  0  0  0  0  0  0
   38.9750   25.0120   42.5580 C   0  0  0  0  0  0  0  0  0  0  0  0
   39.8740   25.5420   43.5290 C   0  0  0  0  0  0  0  0  0  0  0  0
   39.9840   26.9620   43.6710 C   0  0  0  0  0  0  0  0  0  0  0  0
   39.2010   27.7200   42.8460 N   0  0  0  0  0  0  0  0  0  0  0  0
   38.3720   27.1790   41.9520 C   0  0  0  0  0  0  0  0  0  0  0  0
   38.2600   25.8460   41.8100 N   0  0  0  0  0  0  0  0  0  0  0  0
   40.4890   24.9280   44.1740 H   0  0  0  0  0  0  0  0  0  0  0  0
   40.6480   27.3780   44.3860 H   0  0  0  0  0  0  0  0  0  0  0  0
   38.9050   23.6150   42.4350 N   0  0  0  0  0  0  0  0  0  0  0  0
   39.6530   23.3450   41.7320 H   0  0  0  0  0  0  0  0  0  0  0  0
   38.2640   22.9510   42.9200 H   0  0  0  0  0  0  0  0  0  0  0  0
   37.8550   30.2760   38.2290 O   0  0  0  0  0  0  0  0  0  0  0  0
   37.2200   32.8220   38.5840 O   0  0  0  0  0  0  0  0  0  0  0  0
   38.3510   31.8800   38.2330 P   0  0  2  0  0  0  0  0  0  0  0  0
   38.9620   32.2540   36.6760 O   0  0  0  0  0  0  0  0  0  0  0  0
   39.1290   33.2450   36.7100 H   0  0  0  0  0  0  0  0  0  0  0  0
   39.6300   32.1860   39.2960 O   0  0  0  0  0  0  0  0  0  0  0  0
   39.1750   32.5930   40.5280 C   0  0  0  0  0  2  0  0  0  0  0  0
   40.1250   32.4160   41.5960 N   0  0  0  0  0  4  0  0  0  0  0  0
   40.0860   33.2350   42.2400 H   0  0  0  0  0  0  0  0  0  0  0  0
   41.4640   32.3980   41.0250 C   0  0  0  0  0  2  0  0  0  0  0  0
   41.6180   33.3610   40.4980 H   0  0  0  0  0  0  0  0  0  0  0  0
   39.9030   31.1740   42.3220 C   0  0  0  0  0  2  0  0  0  0  0  0
   39.0280   30.6110   41.9350 H   0  0  0  0  0  0  0  0  0  0  0  0
  1  2  1  0  0  0  0
  2  3  1  0  0  0  0
  3  4  2  0  0  0  0
  3 15  1  0  0  0  0
  4  8  1  0  0  0  0
  5  9  1  0  0  0  0
  5  4  1  0  0  0  0
  6  5  2  0  0  0  0
  7  6  1  0  0  0  0
  7  2  2  0  0  0  0
 10  6  1  0  0  0  0
 11 12  1  0  0  0  0
 12 13  2  0  0  0  0
 12 17  1  0  0  0  0
 13 18  1  0  0  0  0
 14 13  1  0  0  0  0
 15 14  2  0  0  0  0
 16 15  1  0  0  0  0
 16 11  2  0  0  0  0
 19 11  1  0  0  0  0
 19 21  1  0  0  0  0
 20 19  1  0  0  0  0
 22 24  1  0  0  0  0
 22  7  1  0  0  0  0
 24 23  2  1  0  0  0
 24 27  1  0  0  0  0
 25 26  1  0  0  0  0
 25 24  1  0  0  0  0
 27 28  1  0  0  0  0
 28 29  1  0  0  0  0
 29 30  1  0  0  0  0
 29 33  1  0  0  0  0
 31 29  1  0  0  0  0
 32 31  1  0  0  0  0
 34 33  1  0  0  0  0
M  END
>  <minimizedAffinity>
-5.42084742

$$$$

 OpenBabel03252506143D

 34 35  0  0  0  0  0  0  0  0999 V2000
   38.4470   27.9730   39.8980 F   0  0  0  0  0  0  0  0  0  0  0  0
   37.9140   27.8060   41.0920 C   0  0  0  0  0  0  0  0  0  0  0  0
   37.8110   28.8890   41.9370 C   0  0  0  0  0  0  0  0  0  0  0  0
   37.2600   28.8160   43.2240 C   0  0  0  0  0  0  0  0  0  0  0  0
   36.7880   27.5850   43.6790 C   0  0  0  0  0  0  0  0  0  0  0  0
   36.9080   26.5270   42.8040 C   0  0  0  0  0  0  0  0  0  0  0  0
   37.4400   26.5820   41.5560 C   0  0  0  0  0  0  0  0  0  0  0  0
   37.2190   29.7250   43.8250 H   0  0  0  0  0  0  0  0  0  0  0  0
   36.3790   27.5880   44.6660 H   0  0  0  0  0  0  0  0  0  0  0  0
   36.4930   25.6400   43.2890 H   0  0  0  0  0  0  0  0  0  0  0  0
   37.8270   32.2840   40.5400 C   0  0  0  0  0  0  0  0  0  0  0  0
   39.1950   32.6530   40.6910 C   0  0  0  0  0  0  0  0  0  0  0  0
   40.1050   31.7170   41.2790 C   0  0  0  0  0  0  0  0  0  0  0  0
   39.5810   30.5140   41.6590 N   0  0  0  0  0  0  0  0  0  0  0  0
   38.2920   30.2120   41.4970 C   0  0  0  0  0  0  0  0  0  0  0  0
   37.4270   31.0820   40.9460 N   0  0  0  0  0  0  0  0  0  0  0  0
   39.5940   33.6110   40.3850 H   0  0  0  0  0  0  0  0  0  0  0  0
   41.1270   31.9710   41.4010 H   0  0  0  0  0  0  0  0  0  0  0  0
   36.9590   33.2320   39.9750 N   0  0  0  0  0  0  0  0  0  0  0  0
   36.6000   33.8190   40.7840 H   0  0  0  0  0  0  0  0  0  0  0  0
   36.6990   33.3610   38.9730 H   0  0  0  0  0  0  0  0  0  0  0  0
   37.5070   25.4600   40.7770 O   0  0  0  0  0  0  0  0  0  0  0  0
   39.1940   24.1480   39.2130 O   0  0  0  0  0  0  0  0  0  0  0  0
   38.8040   24.4000   40.6530 P   0  0  2  0  0  0  0  0  0  0  0  0
   38.3610   22.9250   41.4050 O   0  0  0  0  0  0  0  0  0  0  0  0
   39.1240   22.3040   41.1950 H   0  0  0  0  0  0  0  0  0  0  0  0
   40.1820   24.9240   41.4820 O   0  0  0  0  0  0  0  0  0  0  0  0
   40.1120   24.6160   42.8200 C   0  0  0  0  0  2  0  0  0  0  0  0
   40.9880   25.4010   43.6520 N   0  0  0  0  0  4  0  0  0  0  0  0
   40.9500   25.0490   44.6330 H   0  0  0  0  0  0  0  0  0  0  0  0
   40.4940   26.7700   43.6800 C   0  0  0  0  0  2  0  0  0  0  0  0
   39.4620   26.7480   44.0830 H   0  0  0  0  0  0  0  0  0  0  0  0
   42.3560   25.4010   43.1550 C   0  0  0  0  0  2  0  0  0  0  0  0
   42.4730   24.7760   42.2450 H   0  0  0  0  0  0  0  0  0  0  0  0
  1  2  1  0  0  0  0
  2  7  2  0  0  0  0
  2  3  1  0  0  0  0
  3  4  2  0  0  0  0
  4  5  1  0  0  0  0
  4  8  1  0  0  0  0
  5  9  1  0  0  0  0
  6 10  1  0  0  0  0
  6  5  2  0  0  0  0
  7  6  1  0  0  0  0
 11 12  2  0  0  0  0
 11 16  1  0  0  0  0
 12 13  1  0  0  0  0
 13 18  1  0  0  0  0
 13 14  2  0  0  0  0
 15 14  1  0  0  0  0
 15  3  1  0  0  0  0
 16 15  2  0  0  0  0
 17 12  1  0  0  0  0
 19 11  1  0  0  0  0
 19 20  1  0  0  0  0
 21 19  1  0  0  0  0
 22  7  1  0  0  0  0
 24 23  2  6  0  0  0
 24 22  1  0  0  0  0
 24 25  1  0  0  0  0
 24 27  1  0  0  0  0
 26 25  1  0  0  0  0
 27 28  1  0  0  0  0
 28 29  1  0  0  0  0
 29 31  1  0  0  0  0
 29 30  1  0  0  0  0
 31 32  1  0  0  0  0
 33 29  1  0  0  0  0
 34 33  1  0  0  0  0
M  END
>  <minimizedAffinity>
-5.40057087

$$$$

 OpenBabel03252506143D

 34 35  0  0  0  0  0  0  0  0999 V2000
   40.1810   28.5330   40.8160 F   0  0  0  0  0  0  0  0  0  0  0  0
   39.2400   28.3720   41.7260 C   0  0  0  0  0  0  0  0  0  0  0  0
   38.0740   29.0980   41.6200 C   0  0  0  0  0  0  0  0  0  0  0  0
   37.0160   28.9990   42.5330 C   0  0  0  0  0  0  0  0  0  0  0  0
   37.1420   28.1200   43.6090 C   0  0  0  0  0  0  0  0  0  0  0  0
   38.3220   27.4120   43.6790 C   0  0  0  0  0  0  0  0  0  0  0  0
   39.3560   27.4980   42.8030 C   0  0  0  0  0  0  0  0  0  0  0  0
   36.1280   29.6130   42.3710 H   0  0  0  0  0  0  0  0  0  0  0  0
   36.3050   28.0850   44.2720 H   0  0  0  0  0  0  0  0  0  0  0  0
   38.2750   26.7640   44.5580 H   0  0  0  0  0  0  0  0  0  0  0  0
   37.4340   32.1990   39.7630 C   0  0  0  0  0  0  0  0  0  0  0  0
   37.5630   31.7610   38.4130 C   0  0  0  0  0  0  0  0  0  0  0  0
   37.8730   30.3870   38.1570 C   0  0  0  0  0  0  0  0  0  0  0  0
   38.0240   29.5820   39.2500 N   0  0  0  0  0  0  0  0  0  0  0  0
   37.8930   30.0370   40.4970 C   0  0  0  0  0  0  0  0  0  0  0  0
   37.6020   31.3250   40.7510 N   0  0  0  0  0  0  0  0  0  0  0  0
   37.4410   32.4120   37.5570 H   0  0  0  0  0  0  0  0  0  0  0  0
   37.9740   30.0390   37.1600 H   0  0  0  0  0  0  0  0  0  0  0  0
   37.1460   33.5570   39.9780 N   0  0  0  0  0  0  0  0  0  0  0  0
   38.0840   34.0520   40.0200 H   0  0  0  0  0  0  0  0  0  0  0  0
   36.2150   34.0160   40.0790 H   0  0  0  0  0  0  0  0  0  0  0  0
   40.4830   26.7420   42.9790 O   0  0  0  0  0  0  0  0  0  0  0  0
   39.7590   24.2170   43.3140 O   0  0  0  0  0  0  0  0  0  0  0  0
   40.6890   25.1320   42.5480 P   0  0  2  0  0  0  0  0  0  0  0  0
   42.3190   24.7020   42.8580 O   0  0  0  0  0  0  0  0  0  0  0  0
   42.3450   23.7100   42.6930 H   0  0  0  0  0  0  0  0  0  0  0  0
   40.4600   24.8440   40.8980 O   0  0  0  0  0  0  0  0  0  0  0  0
   39.2930   24.1550   40.6640 C   0  0  0  0  0  2  0  0  0  0  0  0
   38.1020   24.9540   40.7850 N   0  0  0  0  0  4  0  0  0  0  0  0
   38.1950   25.6030   41.5960 H   0  0  0  0  0  0  0  0  0  0  0  0
   36.9820   24.0730   41.0830 C   0  0  0  0  0  2  0  0  0  0  0  0
   37.2130   23.5420   42.0280 H   0  0  0  0  0  0  0  0  0  0  0  0
   37.8130   25.6900   39.5630 C   0  0  0  0  0  2  0  0  0  0  0  0
   38.5780   25.5180   38.7780 H   0  0  0  0  0  0  0  0  0  0  0  0
  1  2  1  0  0  0  0
  2  7  1  0  0  0  0
  3  2  2  0  0  0  0
  3  4  1  0  0  0  0
  4  5  2  0  0  0  0
  5  6  1  0  0  0  0
  5  9  1  0  0  0  0
  6 10  1  0  0  0  0
  7 22  1  0  0  0  0
  7  6  2  0  0  0  0
  8  4  1  0  0  0  0
 11 19  1  0  0  0  0
 11 16  1  0  0  0  0
 12 11  2  0  0  0  0
 13 12  1  0  0  0  0
 13 14  2  0  0  0  0
 14 15  1  0  0  0  0
 15 16  2  0  0  0  0
 15  3  1  0  0  0  0
 17 12  1  0  0  0  0
 18 13  1  0  0  0  0
 19 20  1  0  0  0  0
 19 21  1  0  0  0  0
 24 25  1  0  0  0  0
 24 22  1  0  0  0  0
 24 23  2  1  0  0  0
 26 25  1  0  0  0  0
 27 24  1  0  0  0  0
 28 29  1  0  0  0  0
 28 27  1  0  0  0  0
 29 31  1  0  0  0  0
 29 30  1  0  0  0  0
 31 32  1  0  0  0  0
 33 29  1  0  0  0  0
 34 33  1  0  0  0  0
M  END
>  <minimizedAffinity>
-5.39291763

$$$$

 OpenBabel03252506143D

 34 35  0  0  0  0  0  0  0  0999 V2000
   40.4670   30.0990   40.5650 F   0  0  0  0  0  0  0  0  0  0  0  0
   39.2830   30.5550   40.2080 C   0  0  0  0  0  0  0  0  0  0  0  0
   39.1860   31.8200   39.6720 C   0  0  0  0  0  0  0  0  0  0  0  0
   37.9750   32.3940   39.2610 C   0  0  0  0  0  0  0  0  0  0  0  0
   36.8030   31.6510   39.3980 C   0  0  0  0  0  0  0  0  0  0  0  0
   36.9420   30.3910   39.9360 C   0  0  0  0  0  0  0  0  0  0  0  0
   38.1070   29.8210   40.3400 C   0  0  0  0  0  0  0  0  0  0  0  0
   37.9910   33.4040   38.8480 H   0  0  0  0  0  0  0  0  0  0  0  0
   35.9110   32.1380   39.0680 H   0  0  0  0  0  0  0  0  0  0  0  0
   35.9520   29.9280   39.9740 H   0  0  0  0  0  0  0  0  0  0  0  0
   41.9240   33.6730   38.0770 C   0  0  0  0  0  0  0  0  0  0  0  0
   42.6410   34.1610   39.2080 C   0  0  0  0  0  0  0  0  0  0  0  0
   42.1660   33.8420   40.5210 C   0  0  0  0  0  0  0  0  0  0  0  0
   41.0370   33.0760   40.5920 N   0  0  0  0  0  0  0  0  0  0  0  0
   40.3990   32.6410   39.5040 C   0  0  0  0  0  0  0  0  0  0  0  0
   40.8350   32.9340   38.2660 N   0  0  0  0  0  0  0  0  0  0  0  0
   43.5340   34.7680   39.1360 H   0  0  0  0  0  0  0  0  0  0  0  0
   42.6840   34.1950   41.3760 H   0  0  0  0  0  0  0  0  0  0  0  0
   42.4080   34.0190   36.8050 N   0  0  0  0  0  0  0  0  0  0  0  0
   41.9510   34.9460   36.5600 H   0  0  0  0  0  0  0  0  0  0  0  0
   43.0780   33.4980   36.2000 H   0  0  0  0  0  0  0  0  0  0  0  0
   38.1200   28.5570   40.8640 O   0  0  0  0  0  0  0  0  0  0  0  0
   37.1150   26.8460   42.6170 O   0  0  0  0  0  0  0  0  0  0  0  0
   37.8930   28.1350   42.4730 P   0  0  2  0  0  0  0  0  0  0  0  0
   37.0550   29.4140   43.2470 O   0  0  0  0  0  0  0  0  0  0  0  0
   36.8490   29.0530   44.1630 H   0  0  0  0  0  0  0  0  0  0  0  0
   39.3390   27.9680   43.3340 O   0  0  0  0  0  0  0  0  0  0  0  0
   40.3190   27.3850   42.5650 C   0  0  0  0  0  2  0  0  0  0  0  0
   39.9320   26.1330   41.9680 N   0  0  0  0  0  4  0  0  0  0  0  0
   38.8950   26.0990   41.8620 H   0  0  0  0  0  0  0  0  0  0  0  0
   40.2920   25.0560   42.8800 C   0  0  0  0  0  2  0  0  0  0  0  0
   39.7600   25.2320   43.8360 H   0  0  0  0  0  0  0  0  0  0  0  0
   40.5920   25.9110   40.6910 C   0  0  0  0  0  2  0  0  0  0  0  0
   41.2480   26.7590   40.4030 H   0  0  0  0  0  0  0  0  0  0  0  0
  2  7  1  0  0  0  0
  2  1  1  0  0  0  0
  3  2  2  0  0  0  0
  4  5  2  0  0  0  0
  4  3  1  0  0  0  0
  5  6  1  0  0  0  0
  6 10  1  0  0  0  0
  6  7  2  0  0  0  0
  7 22  1  0  0  0  0
  8  4  1  0  0  0  0
  9  5  1  0  0  0  0
 11 16  2  0  0  0  0
 11 12  1  0  0  0  0
 12 13  2  0  0  0  0
 13 14  1  0  0  0  0
 13 18  1  0  0  0  0
 15  3  1  0  0  0  0
 15 14  2  0  0  0  0
 16 15  1  0  0  0  0
 17 12  1  0  0  0  0
 19 11  1  0  0  0  0
 20 19  1  0  0  0  0
 21 19  1  0  0  0  0
 22 24  1  0  0  0  0
 24 23  2  1  0  0  0
 24 25  1  0  0  0  0
 24 27  1  0  0  0  0
 25 26  1  0  0  0  0
 28 27  1  0  0  0  0
 29 28  1  0  0  0  0
 29 31  1  0  0  0  0
 30 29  1  0  0  0  0
 31 32  1  0  0  0  0
 33 29  1  0  0  0  0
 34 33  1  0  0  0  0
M  END
>  <minimizedAffinity>
-5.22015858

$$$$

 OpenBabel03252506143D

 34 35  0  0  0  0  0  0  0  0999 V2000
   38.2120   27.5190   39.7460 F   0  0  0  0  0  0  0  0  0  0  0  0
   37.8080   27.6440   40.9950 C   0  0  0  0  0  0  0  0  0  0  0  0
   37.3890   26.5240   41.6780 C   0  0  0  0  0  0  0  0  0  0  0  0
   36.9420   26.5510   43.0060 C   0  0  0  0  0  0  0  0  0  0  0  0
   36.9190   27.7730   43.6780 C   0  0  0  0  0  0  0  0  0  0  0  0
   37.3470   28.8690   42.9610 C   0  0  0  0  0  0  0  0  0  0  0  0
   37.7810   28.8590   41.6740 C   0  0  0  0  0  0  0  0  0  0  0  0
   36.6280   25.6140   43.4700 H   0  0  0  0  0  0  0  0  0  0  0  0
   36.5700   27.7340   44.6870 H   0  0  0  0  0  0  0  0  0  0  0  0
   37.2820   29.7450   43.6120 H   0  0  0  0  0  0  0  0  0  0  0  0
   36.3850   23.7130   39.5410 C   0  0  0  0  0  0  0  0  0  0  0  0
   37.4320   22.7770   39.7820 C   0  0  0  0  0  0  0  0  0  0  0  0
   38.4840   23.1310   40.6870 C   0  0  0  0  0  0  0  0  0  0  0  0
   38.4010   24.3660   41.2650 N   0  0  0  0  0  0  0  0  0  0  0  0
   37.4000   25.2090   41.0100 C   0  0  0  0  0  0  0  0  0  0  0  0
   36.4060   24.8890   40.1610 N   0  0  0  0  0  0  0  0  0  0  0  0
   37.4840   21.8020   39.3150 H   0  0  0  0  0  0  0  0  0  0  0  0
   39.2730   22.4510   40.8810 H   0  0  0  0  0  0  0  0  0  0  0  0
   35.3790   23.3390   38.6350 N   0  0  0  0  0  0  0  0  0  0  0  0
   35.7220   23.6400   37.6770 H   0  0  0  0  0  0  0  0  0  0  0  0
   34.4720   22.8640   38.8300 H   0  0  0  0  0  0  0  0  0  0  0  0
   38.1810   30.0160   41.0640 O   0  0  0  0  0  0  0  0  0  0  0  0
   37.7720   32.6020   40.6620 O   0  0  0  0  0  0  0  0  0  0  0  0
   37.1870   31.2220   40.4500 P   0  0  2  0  0  0  0  0  0  0  0  0
   35.6640   31.1060   41.2280 O   0  0  0  0  0  0  0  0  0  0  0  0
   35.1630   31.9180   40.9070 H   0  0  0  0  0  0  0  0  0  0  0  0
   36.8570   31.0460   38.8010 O   0  0  0  0  0  0  0  0  0  0  0  0
   36.0920   29.9290   38.5570 C   0  0  0  0  0  2  0  0  0  0  0  0
   35.9900   29.5770   37.1640 N   0  0  0  0  0  4  0  0  0  0  0  0
   35.9480   30.4430   36.5850 H   0  0  0  0  0  0  0  0  0  0  0  0
   34.7320   28.8750   36.9560 C   0  0  0  0  0  2  0  0  0  0  0  0
   33.9120   29.5540   37.2650 H   0  0  0  0  0  0  0  0  0  0  0  0
   37.0860   28.7210   36.7370 C   0  0  0  0  0  2  0  0  0  0  0  0
   37.8090   28.5220   37.5560 H   0  0  0  0  0  0  0  0  0  0  0  0
  1  2  1  0  0  0  0
  2  7  2  0  0  0  0
  2  3  1  0  0  0  0
  3  4  2  0  0  0  0
  4  8  1  0  0  0  0
  4  5  1  0  0  0  0
  5  9  1  0  0  0  0
  6 10  1  0  0  0  0
  6  5  2  0  0  0  0
  7  6  1  0  0  0  0
 11 12  2  0  0  0  0
 11 16  1  0  0  0  0
 12 13  1  0  0  0  0
 13 18  1  0  0  0  0
 13 14  2  0  0  0  0
 15 14  1  0  0  0  0
 15  3  1  0  0  0  0
 16 15  2  0  0  0  0
 17 12  1  0  0  0  0
 19 21  1  0  0  0  0
 19 11  1  0  0  0  0
 20 19  1  0  0  0  0
 22  7  1  0  0  0  0
 24 23  2  1  0  0  0
 24 22  1  0  0  0  0
 24 25  1  0  0  0  0
 26 25  1  0  0  0  0
 27 24  1  0  0  0  0
 28 27  1  0  0  0  0
 29 28  1  0  0  0  0
 30 29  1  0  0  0  0
 31 29  1  0  0  0  0
 31 32  1  0  0  0  0
 33 29  1  0  0  0  0
 33 34  1  0  0  0  0
M  END
>  <minimizedAffinity>
-5.18705368

$$$$

 OpenBabel03252506143D

 34 35  0  0  0  0  0  0  0  0999 V2000
   40.2630   29.9140   40.5930 F   0  0  0  0  0  0  0  0  0  0  0  0
   39.3450   30.8310   40.3580 C   0  0  0  0  0  0  0  0  0  0  0  0
   38.0560   30.6150   40.7930 C   0  0  0  0  0  0  0  0  0  0  0  0
   37.0100   31.5260   40.5930 C   0  0  0  0  0  0  0  0  0  0  0  0
   37.2810   32.7170   39.9200 C   0  0  0  0  0  0  0  0  0  0  0  0
   38.5820   32.8960   39.5030 C   0  0  0  0  0  0  0  0  0  0  0  0
   39.6050   32.0220   39.6870 C   0  0  0  0  0  0  0  0  0  0  0  0
   36.0190   31.2720   40.9720 H   0  0  0  0  0  0  0  0  0  0  0  0
   36.4480   33.3740   39.7970 H   0  0  0  0  0  0  0  0  0  0  0  0
   38.6460   33.8670   39.0040 H   0  0  0  0  0  0  0  0  0  0  0  0
   37.1600   27.1130   41.4310 C   0  0  0  0  0  0  0  0  0  0  0  0
   37.1090   27.0820   42.8550 C   0  0  0  0  0  0  0  0  0  0  0  0
   37.3880   28.2810   43.5860 C   0  0  0  0  0  0  0  0  0  0  0  0
   37.6870   29.3900   42.8460 N   0  0  0  0  0  0  0  0  0  0  0  0
   37.7230   29.3720   41.5120 C   0  0  0  0  0  0  0  0  0  0  0  0
   37.4630   28.2510   40.8150 N   0  0  0  0  0  0  0  0  0  0  0  0
   36.8700   26.1950   43.4270 H   0  0  0  0  0  0  0  0  0  0  0  0
   37.3560   28.2810   44.6450 H   0  0  0  0  0  0  0  0  0  0  0  0
   36.8970   25.9140   40.7480 N   0  0  0  0  0  0  0  0  0  0  0  0
   37.8300   25.4150   40.6630 H   0  0  0  0  0  0  0  0  0  0  0  0
   35.9860   25.5580   40.3860 H   0  0  0  0  0  0  0  0  0  0  0  0
   40.8600   32.3110   39.2230 O   0  0  0  0  0  0  0  0  0  0  0  0
   41.9690   33.8640   37.3880 O   0  0  0  0  0  0  0  0  0  0  0  0
   41.3140   32.5200   37.6200 P   0  0  2  0  0  0  0  0  0  0  0  0
   39.9110   32.3770   36.6460 O   0  0  0  0  0  0  0  0  0  0  0  0
   40.2270   32.6270   35.7240 H   0  0  0  0  0  0  0  0  0  0  0  0
   42.3680   31.3230   37.0590 O   0  0  0  0  0  0  0  0  0  0  0  0
   43.2090   30.8840   38.0550 C   0  0  0  0  0  2  0  0  0  0  0  0
   43.9270   31.9370   38.7250 N   0  0  0  0  0  4  0  0  0  0  0  0
   43.3810   32.8230   38.6730 H   0  0  0  0  0  0  0  0  0  0  0  0
   45.1730   32.1730   38.0100 C   0  0  0  0  0  2  0  0  0  0  0  0
   44.9170   32.4550   36.9690 H   0  0  0  0  0  0  0  0  0  0  0  0
   44.2320   31.5950   40.1060 C   0  0  0  0  0  2  0  0  0  0  0  0
   43.8300   30.6000   40.3920 H   0  0  0  0  0  0  0  0  0  0  0  0
  2  1  1  0  0  0  0
  2  3  1  0  0  0  0
  3 15  1  0  0  0  0
  4  3  2  0  0  0  0
  4  8  1  0  0  0  0
  5  4  1  0  0  0  0
  6  7  1  0  0  0  0
  6  5  2  0  0  0  0
  7  2  2  0  0  0  0
  9  5  1  0  0  0  0
 10  6  1  0  0  0  0
 11 12  1  0  0  0  0
 12 17  1  0  0  0  0
 12 13  2  0  0  0  0
 13 18  1  0  0  0  0
 14 13  1  0  0  0  0
 15 14  2  0  0  0  0
 16 11  2  0  0  0  0
 16 15  1  0  0  0  0
 19 11  1  0  0  0  0
 20 19  1  0  0  0  0
 21 19  1  0  0  0  0
 22  7  1  0  0  0  0
 24 23  2  6  0  0  0
 24 22  1  0  0  0  0
 25 24  1  0  0  0  0
 26 25  1  0  0  0  0
 27 24  1  0  0  0  0
 27 28  1  0  0  0  0
 28 29  1  0  0  0  0
 29 33  1  0  0  0  0
 30 29  1  0  0  0  0
 31 29  1  0  0  0  0
 32 31  1  0  0  0  0
 33 34  1  0  0  0  0
M  END
>  <minimizedAffinity>
-5.14445448

$$$$
