REMARK  Name = 
REMARK  10 active torsions:
REMARK  status: ('A' for Active; 'I' for Inactive)
REMARK    1  A    between atoms: C_3  and  C_12
REMARK    2  A    between atoms: C_7  and  O_15
REMARK    3  A    between atoms: C_8  and  N_14
REMARK    4  A    between atoms: O_15  and  P_17
REMARK    5  A    between atoms: P_17  and  O_18
REMARK    6  A    between atoms: P_17  and  O_19
REMARK    7  A    between atoms: O_19  and  C_28
REMARK    8  A    between atoms: C_28  and  N_29
REMARK    9  A    between atoms: N_29  and  C_30
REMARK   10  A    between atoms: N_29  and  C_32
REMARK                            x       y       z     vdW  Elec       q    Type
REMARK                         _______ _______ _______ _____ _____    ______ ____
ROOT
ATOM      1  F   UNL     1      45.141  33.513  41.163  0.00  0.00    +0.000 F 
ATOM      2  C   UNL     1      46.324  34.084  41.047  0.00  0.00    +0.000 A 
ATOM      3  C   UNL     1      46.831  34.796  42.111  0.00  0.00    +0.000 A 
ATOM      4  C   UNL     1      48.077  35.438  42.088  0.00  0.00    +0.000 A 
ATOM      5  C   UNL     1      48.850  35.355  40.930  0.00  0.00    +0.000 A 
ATOM      6  C   UNL     1      48.308  34.633  39.889  0.00  0.00    +0.000 A 
ATOM      7  C   UNL     1      47.103  34.007  39.896  0.00  0.00    +0.000 A 
ATOM      8  H   UNL     1      48.400  35.981  42.978  0.00  0.00    +0.000 HD
ATOM      9  H   UNL     1      49.789  35.862  40.969  0.00  0.00    +0.000 HD
ATOM     10  H   UNL     1      49.022  34.647  39.061  0.00  0.00    +0.000 HD
ENDROOT
BRANCH   3  15
ATOM     11  C   UNL     1      45.456  34.007  45.422  0.00  0.00    +0.000 A 
ATOM     12  C   UNL     1      44.608  35.128  45.658  0.00  0.00    +0.000 A 
ATOM     13  C   UNL     1      44.520  36.153  44.663  0.00  0.00    +0.000 A 
ATOM     14  N   UNL     1      45.272  35.975  43.536  0.00  0.00    +0.000 NA
ATOM     15  C   UNL     1      46.052  34.908  43.358  0.00  0.00    +0.000 A 
ATOM     16  N   UNL     1      46.143  33.938  44.286  0.00  0.00    +0.000 NA
ATOM     17  H   UNL     1      44.019  35.255  46.557  0.00  0.00    +0.000 HD
ATOM     18  H   UNL     1      43.896  36.996  44.818  0.00  0.00    +0.000 HD
BRANCH  11  19
ATOM     19  N   UNL     1      45.531  33.029  46.427  0.00  0.00    +0.000 N 
ATOM     20  H   UNL     1      46.306  33.341  47.082  0.00  0.00    +0.000 HD
ATOM     21  H   UNL     1      44.959  32.164  46.537  0.00  0.00    +0.000 HD
ENDBRANCH  11  19
ENDBRANCH   3  15
BRANCH   7  22
ATOM     22  O   UNL     1      46.669  33.319  38.796  0.00  0.00    +0.000 OA
BRANCH  22  24
ATOM     23  O   UNL     1      48.082  34.660  37.002  0.00  0.00    +0.000 OA
ATOM     24  P   UNL     1      47.332  33.370  37.254  0.00  0.00    +0.000 P 
BRANCH  24  25
ATOM     25  O   UNL     1      46.058  33.203  36.120  0.00  0.00    +0.000 OA
ATOM     26  H   UNL     1      46.501  33.359  35.230  0.00  0.00    +0.000 HD
ENDBRANCH  24  25
BRANCH  24  27
ATOM     27  O   UNL     1      48.384  32.086  36.932  0.00  0.00    +0.000 OA
BRANCH  27  28
ATOM     28  C   UNL     1      47.738  31.053  36.294  0.00  0.00    +0.000 C 
BRANCH  28  29
ATOM     29  N   UNL     1      48.620  30.087  35.691  0.00  0.00    +0.000 N 
ATOM     30  H   UNL     1      48.643  29.222  36.272  0.00  0.00    +0.000 HD
BRANCH  29  31
ATOM     31  C   UNL     1      49.971  30.630  35.698  0.00  0.00    +0.000 C 
ATOM     32  H   UNL     1      50.248  30.833  36.751  0.00  0.00    +0.000 HD
ENDBRANCH  29  31
BRANCH  29  33
ATOM     33  C   UNL     1      48.239  29.782  34.321  0.00  0.00    +0.000 C 
ATOM     34  H   UNL     1      47.325  30.329  34.006  0.00  0.00    +0.000 HD
ENDBRANCH  29  33
ENDBRANCH  28  29
ENDBRANCH  27  28
ENDBRANCH  24  27
ENDBRANCH  22  24
ENDBRANCH   7  22
TORSDOF 10
