
     RDKit          3D

 40 41  0  0  0  0  0  0  0  0999 V2000
   45.1414   33.5128   41.1630 F   0  0  0  0  0  0  0  0  0  0  0  0
   46.3243   34.0840   41.0470 C   0  0  0  0  0  0  0  0  0  0  0  0
   46.8314   34.7962   42.1109 C   0  0  0  0  0  0  0  0  0  0  0  0
   48.0767   35.4375   42.0876 C   0  0  0  0  0  0  0  0  0  0  0  0
   48.8502   35.3547   40.9298 C   0  0  0  0  0  0  0  0  0  0  0  0
   48.3084   34.6335   39.8893 C   0  0  0  0  0  0  0  0  0  0  0  0
   47.1026   34.0067   39.8959 C   0  0  0  0  0  0  0  0  0  0  0  0
   45.4556   34.0073   45.4224 C   0  0  0  0  0  0  0  0  0  0  0  0
   44.6084   35.1283   45.6582 C   0  0  0  0  0  0  0  0  0  0  0  0
   44.5201   36.1527   44.6633 C   0  0  0  0  0  0  0  0  0  0  0  0
   45.2718   35.9749   43.5361 N   0  0  0  0  0  0  0  0  0  0  0  0
   46.0518   34.9076   43.3581 C   0  0  0  0  0  0  0  0  0  0  0  0
   46.1431   33.9384   44.2857 N   0  0  0  0  0  0  0  0  0  0  0  0
   45.5306   33.0292   46.4274 N   0  0  0  0  0  0  0  0  0  0  0  0
   46.6688   33.3191   38.7960 O   0  0  0  0  0  0  0  0  0  0  0  0
   48.0820   34.6605   37.0018 O   0  0  0  0  0  0  0  0  0  0  0  0
   47.3318   33.3697   37.2541 P   0  0  2  0  0  0  0  0  0  0  0  0
   46.0579   33.2035   36.1198 O   0  0  0  0  0  0  0  0  0  0  0  0
   48.3841   32.0856   36.9316 O   0  0  0  0  0  0  0  0  0  0  0  0
   48.3998   35.9809   42.9776 H   0  0  0  0  0  0  0  0  0  0  0  0
   49.7889   35.8617   40.9687 H   0  0  0  0  0  0  0  0  0  0  0  0
   49.0216   34.6474   39.0614 H   0  0  0  0  0  0  0  0  0  0  0  0
   44.0185   35.2545   46.5574 H   0  0  0  0  0  0  0  0  0  0  0  0
   43.8956   36.9964   44.8178 H   0  0  0  0  0  0  0  0  0  0  0  0
   46.3058   33.3410   47.0824 H   0  0  0  0  0  0  0  0  0  0  0  0
   44.9585   32.1642   46.5370 H   0  0  0  0  0  0  0  0  0  0  0  0
   46.5005   33.3593   35.2301 H   0  0  0  0  0  0  0  0  0  0  0  0
   47.7380   31.0527   36.2944 C   0  0  0  0  0  0  0  0  0  0  0  0
   48.6198   30.0875   35.6913 N   0  0  0  0  0  4  0  0  0  0  0  0
   49.9709   30.6299   35.6982 C   0  0  0  0  0  0  0  0  0  0  0  0
   50.2484   30.8326   36.7514 H   0  0  0  0  0  0  0  0  0  0  0  0
   48.2385   29.7824   34.3213 C   0  0  0  0  0  0  0  0  0  0  0  0
   47.3252   30.3290   34.0062 H   0  0  0  0  0  0  0  0  0  0  0  0
   47.1408   31.5008   35.4471 H   0  0  0  0  0  0  0  0  0  0  0  0
   47.0099   30.6097   36.9998 H   0  0  0  0  0  0  0  0  0  0  0  0
   48.6431   29.2216   36.2724 H   0  0  0  0  0  0  0  0  0  0  0  0
   49.9771   31.5757   35.0950 H   0  0  0  0  0  0  0  0  0  0  0  0
   50.6485   29.8673   35.2405 H   0  0  0  0  0  0  0  0  0  0  0  0
   48.0602   28.6928   34.2077 H   0  0  0  0  0  0  0  0  0  0  0  0
   49.0774   30.0315   33.6313 H   0  0  0  0  0  0  0  0  0  0  0  0
  2  1  1  0
  2  3  2  0
  3 12  1  0
  4  3  1  0
  5  4  2  0
  6  7  2  0
  6  5  1  0
  7  2  1  0
  8  9  2  0
  8 14  1  0
 10  9  1  0
 11 10  2  0
 12 11  1  0
 12 13  2  0
 13  8  1  0
 15  7  1  0
 16 17  2  0
 17 15  1  1
 18 17  1  0
 19 17  1  0
  4 20  1  0
  5 21  1  0
  6 22  1  0
  9 23  1  0
 10 24  1  0
 14 25  1  0
 14 26  1  0
 18 27  1  0
 28 29  1  0
 29 30  1  0
 30 31  1  0
 29 32  1  0
 32 33  1  0
 28 34  1  0
 28 35  1  0
 29 36  1  0
 30 37  1  0
 30 38  1  0
 32 39  1  0
 32 40  1  0
 19 28  1  0
M  ISO  8  20  14  21  14  22  14  23  14  24  14  27   3  31   8  33   8
M  CHG  1  29   1
M  END
>  <DihAtoms>  (1) 
16,18,27,28

>  <DihDeg>  (1) 
179.99938502554977

$$$$
