REMARK  Name = 
REMARK  8 active torsions:
REMARK  status: ('A' for Active; 'I' for Inactive)
REMARK    1  A    between atoms: C_1  and  C_2
REMARK    2  A    between atoms: C_1  and  C_8
REMARK    3  A    between atoms: C_8  and  C_9
REMARK    4  A    between atoms: C_12  and  O_14
REMARK    5  A    between atoms: O_14  and  C_24
REMARK    6  A    between atoms: C_24  and  N_25
REMARK    7  A    between atoms: N_25  and  C_26
REMARK    8  A    between atoms: N_25  and  C_28
REMARK                            x       y       z     vdW  Elec       q    Type
REMARK                         _______ _______ _______ _____ _____    ______ ____
ROOT
ATOM      1  C   UNL     1      48.236  33.841  42.648  0.00  0.00    +0.000 C 
ATOM      2  H   UNL     1      47.387  33.161  42.971  0.00  0.00    +0.000 HD
ATOM      3  H   UNL     1      48.756  34.029  43.634  0.00  0.00    +0.000 HD
ENDROOT
BRANCH   1   4
ATOM      4  C   UNL     1      49.097  33.097  41.812  0.00  0.00    +0.000 A 
ATOM      5  C   UNL     1      48.984  32.326  40.631  0.00  0.00    +0.000 A 
ATOM      6  C   UNL     1      50.059  31.711  40.092  0.00  0.00    +0.000 A 
ATOM      7  C   UNL     1      51.316  31.877  40.769  0.00  0.00    +0.000 A 
ATOM      8  S   UNL     1      50.938  32.925  42.186  0.00  0.00    +0.000 S 
ATOM      9  H   UNL     1      47.972  32.313  40.266  0.00  0.00    +0.000 HD
ATOM     10  H   UNL     1      49.976  31.124  39.195  0.00  0.00    +0.000 HD
BRANCH   7  11
ATOM     11  O   UNL     1      52.454  31.378  40.424  0.00  0.00    +0.000 OA
BRANCH  11  12
ATOM     12  C   UNL     1      52.914  30.571  39.389  0.00  0.00    +0.000 C 
BRANCH  12  13
ATOM     13  N   UNL     1      53.193  29.211  39.735  0.00  0.00    +0.000 N 
ATOM     14  H   UNL     1      54.112  29.045  40.160  0.00  0.00    +0.000 HD
BRANCH  13  15
ATOM     15  C   UNL     1      53.160  28.419  38.512  0.00  0.00    +0.000 C 
ATOM     16  H   UNL     1      53.686  28.939  37.681  0.00  0.00    +0.000 HD
ENDBRANCH  13  15
BRANCH  13  17
ATOM     17  C   UNL     1      52.141  28.696  40.590  0.00  0.00    +0.000 C 
ATOM     18  H   UNL     1      52.293  28.979  41.643  0.00  0.00    +0.000 HD
ENDBRANCH  13  17
ENDBRANCH  12  13
ENDBRANCH  11  12
ENDBRANCH   7  11
ENDBRANCH   1   4
BRANCH   1  19
ATOM     19  C   UNL     1      47.678  35.103  42.134  0.00  0.00    +0.000 C 
ATOM     20  H   UNL     1      47.962  35.971  42.797  0.00  0.00    +0.000 HD
ATOM     21  H   UNL     1      48.060  35.397  41.119  0.00  0.00    +0.000 HD
BRANCH  19  22
ATOM     22  C   UNL     1      46.226  35.057  42.085  0.00  0.00    +0.000 A 
ATOM     23  C   UNL     1      45.446  35.630  43.066  0.00  0.00    +0.000 A 
ATOM     24  C   UNL     1      44.065  35.548  42.961  0.00  0.00    +0.000 A 
ATOM     25  N   UNL     1      43.547  34.909  41.897  0.00  0.00    +0.000 NA
ATOM     26  C   UNL     1      44.338  34.358  40.952  0.00  0.00    +0.000 A 
ATOM     27  N   UNL     1      45.642  34.434  41.049  0.00  0.00    +0.000 NA
ATOM     28  H   UNL     1      45.854  36.135  43.908  0.00  0.00    +0.000 HD
ATOM     29  H   UNL     1      43.437  35.994  43.725  0.00  0.00    +0.000 HD
ATOM     30  H   UNL     1      43.854  33.851  40.107  0.00  0.00    +0.000 HD
ENDBRANCH  19  22
ENDBRANCH   1  19
TORSDOF 8
