
 OpenBabel03252509123D

 30 32  0  0  0  0  0  0  0  0999 V2000
   47.5930   32.2780   44.0570 C   0  0  0  0  0  0  0  0  0  0  0  0
   46.9900   33.4160   43.5140 C   0  0  0  0  0  0  0  0  0  0  0  0
   46.0690   34.1560   44.1980 C   0  0  0  0  0  0  0  0  0  0  0  0
   45.6910   33.7840   45.4970 C   0  0  0  0  0  0  0  0  0  0  0  0
   44.8380   34.2560   46.4470 N   0  0  0  0  0  0  0  0  0  0  0  0
   44.9080   33.4470   47.5300 C   0  0  0  0  0  0  0  0  0  0  0  0
   45.8010   32.4860   47.2380 N   0  0  0  0  0  0  0  0  0  0  0  0
   46.2950   32.6650   46.0050 C   0  0  0  0  0  0  0  0  0  0  0  0
   47.2360   31.8850   45.3450 C   0  0  0  0  0  0  0  0  0  0  0  0
   48.3260   31.6910   43.5080 H   0  0  0  0  0  0  0  0  0  0  0  0
   44.2970   35.1170   46.2050 H   0  0  0  0  0  0  0  0  0  0  0  0
   44.2950   33.6550   48.4110 H   0  0  0  0  0  0  0  0  0  0  0  0
   47.6680   31.0120   45.8190 H   0  0  0  0  0  0  0  0  0  0  0  0
   47.1260   33.5890   39.8550 C   0  0  0  0  0  0  0  0  0  0  0  0
   48.0590   34.6010   39.6320 C   0  0  0  0  0  0  0  0  0  0  0  0
   48.6390   35.2200   40.7360 C   0  0  0  0  0  0  0  0  0  0  0  0
   48.2660   34.8070   41.9920 N   0  0  0  0  0  0  0  0  0  0  0  0
   47.3610   33.8270   42.1640 C   0  0  0  0  0  0  0  0  0  0  0  0
   46.7830   33.2090   41.1110 N   0  0  0  0  0  0  0  0  0  0  0  0
   46.6460   33.0770   39.0140 H   0  0  0  0  0  0  0  0  0  0  0  0
   48.3200   34.8900   38.6140 H   0  0  0  0  0  0  0  0  0  0  0  0
   49.3570   35.9980   40.6100 H   0  0  0  0  0  0  0  0  0  0  0  0
   45.3050   35.6100   43.5040 S   0  0  0  0  0  0  0  0  0  0  0  0
   43.6930   35.2850   42.7720 C   0  0  0  0  0  2  0  0  0  0  0  0
   43.9120   34.4050   41.6150 N   0  0  0  0  0  4  0  0  0  0  0  0
   44.9260   34.2810   41.4010 H   0  0  0  0  0  0  0  0  0  0  0  0
   43.3420   35.1040   40.4600 C   0  0  0  0  0  2  0  0  0  0  0  0
   43.5480   36.1940   40.6340 H   0  0  0  0  0  0  0  0  0  0  0  0
   43.3600   33.0980   41.8020 C   0  0  0  0  0  2  0  0  0  0  0  0
   43.3320   32.8000   42.8770 H   0  0  0  0  0  0  0  0  0  0  0  0
  1  9  1  0  0  0  0
  2  1  2  0  0  0  0
  2  3  1  0  0  0  0
  3  4  2  0  0  0  0
  4  8  1  0  0  0  0
  4  5  1  0  0  0  0
  5  6  1  0  0  0  0
  6 12  1  0  0  0  0
  7  6  2  0  0  0  0
  8  7  1  0  0  0  0
  9 13  1  0  0  0  0
  9  8  2  0  0  0  0
 10  1  1  0  0  0  0
 11  5  1  0  0  0  0
 14 19  1  0  0  0  0
 15 14  2  0  0  0  0
 15 16  1  0  0  0  0
 16 17  2  0  0  0  0
 17 18  1  0  0  0  0
 18  2  1  0  0  0  0
 19 18  2  0  0  0  0
 20 14  1  0  0  0  0
 21 15  1  0  0  0  0
 22 16  1  0  0  0  0
 23  3  1  0  0  0  0
 24 23  1  0  0  0  0
 25 29  1  0  0  0  0
 25 24  1  0  0  0  0
 26 25  1  0  0  0  0
 27 28  1  0  0  0  0
 27 25  1  0  0  0  0
 29 30  1  0  0  0  0
M  END
>  <minimizedAffinity>
-4.72029686

>  <minimizedRMSD>
1.45318353

$$$$
