
 OpenBabel03252509123D

 30 32  0  0  0  0  0  0  0  0999 V2000
   47.3430   32.5790   44.4570 C   0  0  0  0  0  0  0  0  0  0  0  0
   47.8430   33.0970   43.2590 C   0  0  0  0  0  0  0  0  0  0  0  0
   47.3240   34.2130   42.6680 C   0  0  0  0  0  0  0  0  0  0  0  0
   46.2460   34.8870   43.2620 C   0  0  0  0  0  0  0  0  0  0  0  0
   45.4940   35.9860   42.9760 N   0  0  0  0  0  0  0  0  0  0  0  0
   44.5700   36.1420   43.9530 C   0  0  0  0  0  0  0  0  0  0  0  0
   44.7590   35.1400   44.8290 N   0  0  0  0  0  0  0  0  0  0  0  0
   45.7740   34.3590   44.4340 C   0  0  0  0  0  0  0  0  0  0  0  0
   46.2730   33.2280   45.0680 C   0  0  0  0  0  0  0  0  0  0  0  0
   47.7600   31.6890   44.9240 H   0  0  0  0  0  0  0  0  0  0  0  0
   45.7350   36.5040   42.1010 H   0  0  0  0  0  0  0  0  0  0  0  0
   43.8610   36.9730   43.9100 H   0  0  0  0  0  0  0  0  0  0  0  0
   45.8420   32.8740   45.9970 H   0  0  0  0  0  0  0  0  0  0  0  0
   49.8400   30.5070   41.6040 C   0  0  0  0  0  0  0  0  0  0  0  0
   51.0650   31.1440   41.4100 C   0  0  0  0  0  0  0  0  0  0  0  0
   51.2030   32.4590   41.8470 C   0  0  0  0  0  0  0  0  0  0  0  0
   50.1280   33.0670   42.4480 N   0  0  0  0  0  0  0  0  0  0  0  0
   48.9620   32.4170   42.6160 C   0  0  0  0  0  0  0  0  0  0  0  0
   48.8010   31.1420   42.2020 N   0  0  0  0  0  0  0  0  0  0  0  0
   49.6900   29.4730   41.2740 H   0  0  0  0  0  0  0  0  0  0  0  0
   51.8870   30.6140   40.9270 H   0  0  0  0  0  0  0  0  0  0  0  0
   52.1230   32.9830   41.7180 H   0  0  0  0  0  0  0  0  0  0  0  0
   47.9660   34.8740   41.1430 S   0  0  0  0  0  0  0  0  0  0  0  0
   47.4620   33.9330   39.6930 C   0  0  0  0  0  0  0  0  0  0  0  0
   48.6530   33.7720   38.8460 N   0  0  0  0  0  0  0  0  0  0  0  0
   49.4960   34.2280   39.2610 H   0  0  0  0  0  0  0  0  0  0  0  0
   48.3730   34.5040   37.6070 C   0  0  0  0  0  0  0  0  0  0  0  0
   47.7780   35.4050   37.9170 H   0  0  0  0  0  0  0  0  0  0  0  0
   48.9880   32.4000   38.6170 C   0  0  0  0  0  0  0  0  0  0  0  0
   48.6670   31.7410   39.4570 H   0  0  0  0  0  0  0  0  0  0  0  0
  1 10  1  0  0  0  0
  1  9  1  0  0  0  0
  2  1  2  0  0  0  0
  3  2  1  0  0  0  0
  3  4  2  0  0  0  0
  4  8  1  0  0  0  0
  5  4  1  0  0  0  0
  5  6  1  0  0  0  0
  6  7  2  0  0  0  0
  8  7  1  0  0  0  0
  8  9  2  0  0  0  0
  9 13  1  0  0  0  0
 11  5  1  0  0  0  0
 12  6  1  0  0  0  0
 14 19  1  0  0  0  0
 15 14  2  0  0  0  0
 15 16  1  0  0  0  0
 16 17  2  0  0  0  0
 17 18  1  0  0  0  0
 18  2  1  0  0  0  0
 19 18  2  0  0  0  0
 20 14  1  0  0  0  0
 21 15  1  0  0  0  0
 22 16  1  0  0  0  0
 23  3  1  0  0  0  0
 24 23  1  0  0  0  0
 25 26  1  0  0  0  0
 25 24  1  0  0  0  0
 27 28  1  0  0  0  0
 27 25  1  0  0  0  0
 29 25  1  0  0  0  0
 29 30  1  0  0  0  0
M  END
>  <minimizedAffinity>
-4.75463581

>  <minimizedRMSD>
5.15349627

$$$$
