REMARK  Name = 
REMARK  9 active torsions:
REMARK  status: ('A' for Active; 'I' for Inactive)
REMARK    1  A    between atoms: C_2  and  O_17
REMARK    2  A    between atoms: C_3  and  C_7
REMARK    3  A    between atoms: O_17  and  P_19
REMARK    4  A    between atoms: P_19  and  O_20
REMARK    5  A    between atoms: P_19  and  O_21
REMARK    6  A    between atoms: O_21  and  C_32
REMARK    7  A    between atoms: C_32  and  N_33
REMARK    8  A    between atoms: N_33  and  C_34
REMARK    9  A    between atoms: N_33  and  C_36
REMARK                            x       y       z     vdW  Elec       q    Type
REMARK                         _______ _______ _______ _____ _____    ______ ____
ROOT
ATOM      1  C   UNL     1      46.229  35.218  42.735  0.00  0.00    +0.000 A 
ATOM      2  C   UNL     1      46.828  34.038  43.176  0.00  0.00    +0.000 A 
ATOM      3  C   UNL     1      46.415  33.473  44.370  0.00  0.00    +0.000 A 
ATOM      4  N   UNL     1      45.416  34.104  45.069  0.00  0.00    +0.000 NA
ATOM      5  C   UNL     1      44.852  35.235  44.626  0.00  0.00    +0.000 A 
ATOM      6  N   UNL     1      45.266  35.781  43.465  0.00  0.00    +0.000 NA
ATOM      7  H   UNL     1      46.533  35.694  41.797  0.00  0.00    +0.000 HD
ATOM      8  H   UNL     1      44.070  35.679  45.229  0.00  0.00    +0.000 HD
ENDROOT
BRANCH   3   9
ATOM      9  C   UNL     1      46.945  32.271  44.922  0.00  0.00    +0.000 A 
ATOM     10  C   UNL     1      47.661  31.310  44.229  0.00  0.00    +0.000 A 
ATOM     11  C   UNL     1      48.077  30.121  44.764  0.00  0.00    +0.000 A 
ATOM     12  C   UNL     1      47.779  29.821  46.087  0.00  0.00    +0.000 A 
ATOM     13  C   UNL     1      47.046  30.796  46.815  0.00  0.00    +0.000 A 
ATOM     14  C   UNL     1      46.762  30.510  48.118  0.00  0.00    +0.000 A 
ATOM     15  C   UNL     1      46.068  31.420  48.900  0.00  0.00    +0.000 A 
ATOM     16  C   UNL     1      45.667  32.634  48.337  0.00  0.00    +0.000 A 
ATOM     17  C   UNL     1      45.976  32.896  46.990  0.00  0.00    +0.000 A 
ATOM     18  C   UNL     1      46.661  31.965  46.236  0.00  0.00    +0.000 A 
ATOM     19  H   UNL     1      47.922  31.450  43.227  0.00  0.00    +0.000 HD
ATOM     20  H   UNL     1      48.639  29.380  44.209  0.00  0.00    +0.000 HD
ATOM     21  H   UNL     1      48.091  28.890  46.537  0.00  0.00    +0.000 HD
ATOM     22  H   UNL     1      47.094  29.546  48.534  0.00  0.00    +0.000 HD
ATOM     23  H   UNL     1      45.895  31.084  49.924  0.00  0.00    +0.000 HD
ATOM     24  H   UNL     1      45.154  33.206  49.080  0.00  0.00    +0.000 HD
ATOM     25  H   UNL     1      45.604  33.858  46.855  0.00  0.00    +0.000 HD
ENDBRANCH   3   9
BRANCH   2  26
ATOM     26  O   UNL     1      47.794  33.503  42.377  0.00  0.00    +0.000 OA
BRANCH  26  28
ATOM     27  O   UNL     1      50.304  33.288  41.611  0.00  0.00    +0.000 OA
ATOM     28  P   UNL     1      49.273  34.278  42.039  0.00  0.00    +0.000 P 
BRANCH  28  29
ATOM     29  O   UNL     1      49.097  35.397  40.778  0.00  0.00    +0.000 OA
ATOM     30  H   UNL     1      48.931  34.883  39.948  0.00  0.00    +0.000 HD
ENDBRANCH  28  29
BRANCH  28  31
ATOM     31  O   UNL     1      49.772  35.108  43.405  0.00  0.00    +0.000 OA
BRANCH  31  32
ATOM     32  C   UNL     1      51.099  34.788  43.664  0.00  0.00    +0.000 C 
BRANCH  32  33
ATOM     33  N   UNL     1      51.515  33.853  42.632  0.00  0.00    +0.000 N 
ATOM     34  H   UNL     1      50.826  33.078  42.619  0.00  0.00    +0.000 HD
BRANCH  33  35
ATOM     35  C   UNL     1      52.828  33.323  42.883  0.00  0.00    +0.000 C 
ATOM     36  H   UNL     1      52.942  32.345  42.377  0.00  0.00    +0.000 HD
ENDBRANCH  33  35
BRANCH  33  37
ATOM     37  C   UNL     1      51.439  34.578  41.378  0.00  0.00    +0.000 C 
ATOM     38  H   UNL     1      51.938  35.553  41.555  0.00  0.00    +0.000 HD
ENDBRANCH  33  37
ENDBRANCH  32  33
ENDBRANCH  31  32
ENDBRANCH  28  31
ENDBRANCH  26  28
ENDBRANCH   2  26
TORSDOF 9
