REMARK  Name = 
REMARK  7 active torsions:
REMARK  status: ('A' for Active; 'I' for Inactive)
REMARK    1  A    between atoms: C_1  and  N_9
REMARK    2  A    between atoms: C_2  and  N_11
REMARK    3  A    between atoms: C_7  and  O_10
REMARK    4  A    between atoms: O_10  and  C_17
REMARK    5  A    between atoms: C_17  and  N_18
REMARK    6  A    between atoms: N_18  and  C_19
REMARK    7  A    between atoms: N_18  and  C_21
REMARK                            x       y       z     vdW  Elec       q    Type
REMARK                         _______ _______ _______ _____ _____    ______ ____
ROOT
ATOM      1  C   UNL     1      44.159  35.354  42.648  0.00  0.00    +0.000 C 
ATOM      2  O   UNL     1      44.111  34.084  42.661  0.00  0.00    +0.000 OA
ATOM      3  N   UNL     1      45.069  35.869  43.624  0.00  0.00    +0.000 N 
ATOM      4  H   UNL     1      45.237  36.881  43.724  0.00  0.00    +0.000 HD
ENDROOT
BRANCH   3   5
ATOM      5  C   UNL     1      45.647  34.754  44.368  0.00  0.00    +0.000 A 
ATOM      6  C   UNL     1      45.272  34.387  45.636  0.00  0.00    +0.000 A 
ATOM      7  C   UNL     1      45.943  33.290  46.171  0.00  0.00    +0.000 A 
ATOM      8  N   UNL     1      46.884  32.693  45.415  0.00  0.00    +0.000 NA
ATOM      9  C   UNL     1      47.218  33.085  44.181  0.00  0.00    +0.000 A 
ATOM     10  N   UNL     1      46.594  34.151  43.611  0.00  0.00    +0.000 NA
ATOM     11  H   UNL     1      45.652  32.997  47.168  0.00  0.00    +0.000 HD
ATOM     12  H   UNL     1      47.989  32.541  43.650  0.00  0.00    +0.000 HD
BRANCH   6  13
ATOM     13  N   UNL     1      44.262  35.141  46.264  0.00  0.00    +0.000 N 
ATOM     14  H   UNL     1      43.303  34.868  46.595  0.00  0.00    +0.000 HD
ATOM     15  H   UNL     1      44.570  36.134  46.402  0.00  0.00    +0.000 HD
ENDBRANCH   6  13
ENDBRANCH   3   5
BRANCH   1  16
ATOM     16  O   UNL     1      43.440  36.207  41.811  0.00  0.00    +0.000 OA
BRANCH  16  17
ATOM     17  C   UNL     1      42.546  35.609  40.856  0.00  0.00    +0.000 C 
BRANCH  17  18
ATOM     18  N   UNL     1      42.786  34.219  40.687  0.00  0.00    +0.000 N 
ATOM     19  H   UNL     1      42.236  33.911  39.853  0.00  0.00    +0.000 HD
BRANCH  18  20
ATOM     20  C   UNL     1      42.266  33.439  41.795  0.00  0.00    +0.000 C 
ATOM     21  H   UNL     1      41.165  33.650  41.830  0.00  0.00    +0.000 HD
ENDBRANCH  18  20
BRANCH  18  22
ATOM     22  C   UNL     1      44.161  33.877  40.396  0.00  0.00    +0.000 C 
ATOM     23  H   UNL     1      44.832  33.928  41.253  0.00  0.00    +0.000 HD
ENDBRANCH  18  22
ENDBRANCH  17  18
ENDBRANCH  16  17
ENDBRANCH   1  16
TORSDOF 7
