
     RDKit          3D

 44 46  0  0  0  0  0  0  0  0999 V2000
   46.2290   35.2177   42.7349 C   0  0  0  0  0  0  0  0  0  0  0  0
   46.8282   34.0378   43.1760 C   0  0  0  0  0  0  0  0  0  0  0  0
   46.4152   33.4730   44.3701 C   0  0  0  0  0  0  0  0  0  0  0  0
   45.4158   34.1043   45.0689 N   0  0  0  0  0  0  0  0  0  0  0  0
   44.8524   35.2354   44.6264 C   0  0  0  0  0  0  0  0  0  0  0  0
   45.2664   35.7806   43.4651 N   0  0  0  0  0  0  0  0  0  0  0  0
   46.9450   32.2706   44.9222 C   0  0  0  0  0  0  0  0  0  0  0  0
   47.6606   31.3103   44.2293 C   0  0  0  0  0  0  0  0  0  0  0  0
   48.0774   30.1208   44.7644 C   0  0  0  0  0  0  0  0  0  0  0  0
   47.7790   29.8211   46.0870 C   0  0  0  0  0  0  0  0  0  0  0  0
   47.0464   30.7963   46.8154 C   0  0  0  0  0  0  0  0  0  0  0  0
   46.7622   30.5099   48.1182 C   0  0  0  0  0  0  0  0  0  0  0  0
   46.0681   31.4203   48.8998 C   0  0  0  0  0  0  0  0  0  0  0  0
   45.6673   32.6339   48.3373 C   0  0  0  0  0  0  0  0  0  0  0  0
   45.9757   32.8956   46.9901 C   0  0  0  0  0  0  0  0  0  0  0  0
   46.6611   31.9647   46.2364 C   0  0  0  0  0  0  0  0  0  0  0  0
   47.7943   33.5033   42.3769 O   0  0  0  0  0  0  0  0  0  0  0  0
   50.3044   33.2884   41.6113 O   0  0  0  0  0  0  0  0  0  0  0  0
   49.2730   34.2778   42.0394 P   0  0  1  0  0  0  0  0  0  0  0  0
   49.0975   35.3966   40.7784 O   0  0  0  0  0  0  0  0  0  0  0  0
   49.7719   35.1085   43.4046 O   0  0  0  0  0  0  0  0  0  0  0  0
   46.5335   35.6943   41.7972 H   0  0  0  0  0  0  0  0  0  0  0  0
   44.0697   35.6793   45.2294 H   0  0  0  0  0  0  0  0  0  0  0  0
   47.9224   31.4495   43.2267 H   0  0  0  0  0  0  0  0  0  0  0  0
   48.6385   29.3801   44.2095 H   0  0  0  0  0  0  0  0  0  0  0  0
   48.0907   28.8901   46.5373 H   0  0  0  0  0  0  0  0  0  0  0  0
   47.0938   29.5455   48.5339 H   0  0  0  0  0  0  0  0  0  0  0  0
   45.8945   31.0845   49.9244 H   0  0  0  0  0  0  0  0  0  0  0  0
   45.1537   33.2058   49.0796 H   0  0  0  0  0  0  0  0  0  0  0  0
   45.6043   33.8585   46.8553 H   0  0  0  0  0  0  0  0  0  0  0  0
   48.9314   34.8825   39.9481 H   0  0  0  0  0  0  0  0  0  0  0  0
   51.0995   34.7883   43.6636 C   0  0  0  0  0  0  0  0  0  0  0  0
   51.5147   33.8535   42.6318 N   0  0  0  0  0  4  0  0  0  0  0  0
   52.8282   33.3228   42.8833 C   0  0  0  0  0  0  0  0  0  0  0  0
   52.9424   32.3454   42.3770 H   0  0  0  0  0  0  0  0  0  0  0  0
   51.4393   34.5775   41.3781 C   0  0  0  0  0  0  0  0  0  0  0  0
   51.9378   35.5532   41.5546 H   0  0  0  0  0  0  0  0  0  0  0  0
   51.1664   34.2639   44.6514 H   0  0  0  0  0  0  0  0  0  0  0  0
   51.7270   35.6975   43.6307 H   0  0  0  0  0  0  0  0  0  0  0  0
   50.8259   33.0780   42.6186 H   0  0  0  0  0  0  0  0  0  0  0  0
   53.6140   34.0293   42.5549 H   0  0  0  0  0  0  0  0  0  0  0  0
   52.9393   33.1863   43.9810 H   0  0  0  0  0  0  0  0  0  0  0  0
   50.3814   34.7684   41.1594 H   0  0  0  0  0  0  0  0  0  0  0  0
   51.9532   34.0543   40.5436 H   0  0  0  0  0  0  0  0  0  0  0  0
  1  2  2  0
  1  6  1  0
  2  3  1  0
  3  7  1  0
  3  4  2  0
  5  4  1  0
  6  5  2  0
  7 16  2  0
  8  9  2  0
  8  7  1  0
  9 10  1  0
 10 11  2  0
 11 12  1  0
 12 13  2  0
 14 13  1  0
 15 14  2  0
 16 11  1  0
 16 15  1  0
 17  2  1  0
 18 19  2  0
 19 17  1  1
 19 21  1  0
 20 19  1  0
  1 22  1  0
  5 23  1  0
  8 24  1  0
  9 25  1  0
 10 26  1  0
 12 27  1  0
 13 28  1  0
 14 29  1  0
 15 30  1  0
 20 31  1  0
 32 33  1  0
 33 34  1  0
 34 35  1  0
 33 36  1  0
 36 37  1  0
 32 38  1  0
 32 39  1  0
 33 40  1  0
 34 41  1  0
 34 42  1  0
 36 43  1  0
 36 44  1  0
 21 32  1  0
M  ISO  8  22  14  23  14  24  14  25  14  26  14  27  14  28  14  29  14
M  CHG  1  33   1
M  ISO  4  30  14  31   3  35   8  37   8
M  END
>  <DihAtoms>  (1) 
18,20,31,32

>  <DihDeg>  (1) 
-179.99955335283943

$$$$
