
 OpenBabel03252506123D

 34 35  0  0  0  0  0  0  0  0999 V2000
   45.1790   33.4370   41.1890 F   0  0  0  0  0  0  0  0  0  0  0  0
   46.3450   34.0390   41.0580 C   0  0  0  0  0  0  0  0  0  0  0  0
   46.8340   34.7880   42.1060 C   0  0  0  0  0  0  0  0  0  0  0  0
   48.0610   35.4640   42.0660 C   0  0  0  0  0  0  0  0  0  0  0  0
   48.8330   35.3790   40.9070 C   0  0  0  0  0  0  0  0  0  0  0  0
   48.3090   34.6210   39.8830 C   0  0  0  0  0  0  0  0  0  0  0  0
   47.1230   33.9610   39.9070 C   0  0  0  0  0  0  0  0  0  0  0  0
   48.3700   36.0350   42.9430 H   0  0  0  0  0  0  0  0  0  0  0  0
   49.7570   35.9140   40.9330 H   0  0  0  0  0  0  0  0  0  0  0  0
   49.0210   34.6380   39.0530 H   0  0  0  0  0  0  0  0  0  0  0  0
   45.4560   34.0060   45.4170 C   0  0  0  0  0  0  0  0  0  0  0  0
   44.6110   35.1300   45.6520 C   0  0  0  0  0  0  0  0  0  0  0  0
   44.5260   36.1540   44.6560 C   0  0  0  0  0  0  0  0  0  0  0  0
   45.2780   35.9720   43.5290 N   0  0  0  0  0  0  0  0  0  0  0  0
   46.0550   34.9030   43.3520 C   0  0  0  0  0  0  0  0  0  0  0  0
   46.1430   33.9340   44.2820 N   0  0  0  0  0  0  0  0  0  0  0  0
   44.0220   35.2590   46.5510 H   0  0  0  0  0  0  0  0  0  0  0  0
   43.9040   36.9980   44.8090 H   0  0  0  0  0  0  0  0  0  0  0  0
   45.5290   33.0290   46.4240 N   0  0  0  0  0  0  0  0  0  0  0  0
   46.3040   33.3400   47.0780 H   0  0  0  0  0  0  0  0  0  0  0  0
   44.9550   32.1660   46.5350 H   0  0  0  0  0  0  0  0  0  0  0  0
   46.7060   33.2380   38.8220 O   0  0  0  0  0  0  0  0  0  0  0  0
   48.0850   34.6370   37.0460 O   0  0  0  0  0  0  0  0  0  0  0  0
   47.2660   33.3800   37.2460 P   0  0  2  0  0  0  0  0  0  0  0  0
   45.9100   33.3930   36.1970 O   0  0  0  0  0  0  0  0  0  0  0  0
   46.3030   33.5970   35.2930 H   0  0  0  0  0  0  0  0  0  0  0  0
   48.2030   32.0650   36.7440 O   0  0  0  0  0  0  0  0  0  0  0  0
   47.5250   31.2790   35.8410 C   0  0  0  0  0  2  0  0  0  0  0  0
   48.2300   31.0590   34.6050 N   0  0  0  0  0  4  0  0  0  0  0  0
   48.1730   30.0520   34.3420 H   0  0  0  0  0  0  0  0  0  0  0  0
   49.6390   31.3550   34.8180 C   0  0  0  0  0  2  0  0  0  0  0  0
   50.0070   30.6850   35.6200 H   0  0  0  0  0  0  0  0  0  0  0  0
   47.7250   31.9040   33.5330 C   0  0  0  0  0  2  0  0  0  0  0  0
   46.8750   32.5380   33.8610 H   0  0  0  0  0  0  0  0  0  0  0  0
  2  1  1  0  0  0  0
  2  3  1  0  0  0  0
  3 15  1  0  0  0  0
  4  3  2  0  0  0  0
  4  8  1  0  0  0  0
  5  9  1  0  0  0  0
  5  4  1  0  0  0  0
  6  7  1  0  0  0  0
  6  5  2  0  0  0  0
  7  2  2  0  0  0  0
 10  6  1  0  0  0  0
 11 12  1  0  0  0  0
 11 19  1  0  0  0  0
 12 17  1  0  0  0  0
 13 18  1  0  0  0  0
 13 12  2  0  0  0  0
 14 13  1  0  0  0  0
 15 14  2  0  0  0  0
 15 16  1  0  0  0  0
 16 11  2  0  0  0  0
 19 21  1  0  0  0  0
 19 20  1  0  0  0  0
 22  7  1  0  0  0  0
 24 23  2  6  0  0  0
 24 22  1  0  0  0  0
 25 24  1  0  0  0  0
 26 25  1  0  0  0  0
 27 24  1  0  0  0  0
 28 27  1  0  0  0  0
 29 31  1  0  0  0  0
 29 28  1  0  0  0  0
 30 29  1  0  0  0  0
 31 32  1  0  0  0  0
 33 34  1  0  0  0  0
 33 29  1  0  0  0  0
M  END
>  <minimizedAffinity>
-5.82910681

>  <minimizedRMSD>
0.50609833

$$$$
