
 OpenBabel03252501343D

 23 23  0  0  0  0  0  0  0  0999 V2000
   42.0430   33.9450   41.2530 C   0  0  0  0  0  0  0  0  0  0  0  0
   42.7880   33.0130   41.6900 O   0  0  0  0  0  0  0  0  0  0  0  0
   42.7090   35.2110   41.2500 N   0  0  0  0  0  0  0  0  0  0  0  0
   42.2450   36.0640   40.9030 H   0  0  0  0  0  0  0  0  0  0  0  0
   44.0530   35.0400   41.7920 C   0  0  0  0  0  0  0  0  0  0  0  0
   44.4120   35.3180   43.0870 C   0  0  0  0  0  0  0  0  0  0  0  0
   45.7470   35.0830   43.4080 C   0  0  0  0  0  0  0  0  0  0  0  0
   46.5570   34.6120   42.4410 N   0  0  0  0  0  0  0  0  0  0  0  0
   46.1640   34.3540   41.1890 C   0  0  0  0  0  0  0  0  0  0  0  0
   44.8720   34.5660   40.8220 N   0  0  0  0  0  0  0  0  0  0  0  0
   46.0340   35.3000   44.4250 H   0  0  0  0  0  0  0  0  0  0  0  0
   46.8900   33.9770   40.4800 H   0  0  0  0  0  0  0  0  0  0  0  0
   43.4140   35.8060   43.9520 N   0  0  0  0  0  0  0  0  0  0  0  0
   43.0060   35.4010   44.8310 H   0  0  0  0  0  0  0  0  0  0  0  0
   43.0510   36.7320   43.6180 H   0  0  0  0  0  0  0  0  0  0  0  0
   40.7250   33.8220   40.8120 O   0  0  0  0  0  0  0  0  0  0  0  0
   39.7800   33.1950   41.6960 C   0  0  0  0  0  0  0  0  0  0  0  0
   38.5120   33.0030   41.0850 N   0  0  0  0  0  0  0  0  0  0  0  0
   37.7960   33.4100   41.7290 H   0  0  0  0  0  0  0  0  0  0  0  0
   38.1690   31.5960   40.9760 C   0  0  0  0  0  0  0  0  0  0  0  0
   38.1700   31.1970   42.0240 H   0  0  0  0  0  0  0  0  0  0  0  0
   38.3410   33.6910   39.8250 C   0  0  0  0  0  0  0  0  0  0  0  0
   38.8580   33.2310   38.9820 H   0  0  0  0  0  0  0  0  0  0  0  0
  1  2  2  0  0  0  0
  3  1  1  0  0  0  0
  3  5  1  0  0  0  0
  4  3  1  0  0  0  0
  5  6  1  0  0  0  0
  6  7  2  0  0  0  0
  6 13  1  0  0  0  0
  7 11  1  0  0  0  0
  8  7  1  0  0  0  0
  9  8  2  0  0  0  0
 10  9  1  0  0  0  0
 10  5  2  0  0  0  0
 12  9  1  0  0  0  0
 13 14  1  0  0  0  0
 15 13  1  0  0  0  0
 16  1  1  0  0  0  0
 16 17  1  0  0  0  0
 18 17  1  0  0  0  0
 18 19  1  0  0  0  0
 20 18  1  0  0  0  0
 20 21  1  0  0  0  0
 22 18  1  0  0  0  0
 23 22  1  0  0  0  0
M  END
>  <minimizedAffinity>
-4.67503977

>  <minimizedRMSD>
3.93988371

$$$$
