
     RDKit          3D

 29 29  0  0  0  0  0  0  0  0999 V2000
   45.6466   34.7537   44.3683 C   0  0  0  0  0  0  0  0  0  0  0  0
   45.2716   34.3868   45.6364 C   0  0  0  0  0  0  0  0  0  0  0  0
   45.9426   33.2900   46.1711 C   0  0  0  0  0  0  0  0  0  0  0  0
   46.8842   32.6929   45.4150 N   0  0  0  0  0  0  0  0  0  0  0  0
   47.2181   33.0849   44.1814 C   0  0  0  0  0  0  0  0  0  0  0  0
   46.5942   34.1507   43.6109 N   0  0  0  0  0  0  0  0  0  0  0  0
   44.1586   35.3539   42.6476 C   0  0  0  0  0  0  0  0  0  0  0  0
   44.1111   34.0844   42.6615 O   0  0  0  0  0  0  0  0  0  0  0  0
   45.0694   35.8686   43.6243 N   0  0  0  0  0  0  0  0  0  0  0  0
   43.4401   36.2074   41.8109 O   0  0  0  0  0  0  0  0  0  0  0  0
   44.2616   35.1408   46.2645 N   0  0  0  0  0  0  0  0  0  0  0  0
   45.6518   32.9970   47.1681 H   0  0  0  0  0  0  0  0  0  0  0  0
   47.9888   32.5413   43.6501 H   0  0  0  0  0  0  0  0  0  0  0  0
   45.2369   36.8808   43.7245 H   0  0  0  0  0  0  0  0  0  0  0  0
   43.3031   34.8683   46.5947 H   0  0  0  0  0  0  0  0  0  0  0  0
   44.5697   36.1340   46.4019 H   0  0  0  0  0  0  0  0  0  0  0  0
   42.5458   35.6091   40.8563 C   0  0  0  0  0  0  0  0  0  0  0  0
   42.7856   34.2193   40.6870 N   0  0  0  0  0  4  0  0  0  0  0  0
   42.2663   33.4386   41.7949 C   0  0  0  0  0  0  0  0  0  0  0  0
   41.1646   33.6495   41.8302 H   0  0  0  0  0  0  0  0  0  0  0  0
   44.1611   33.8771   40.3956 C   0  0  0  0  0  0  0  0  0  0  0  0
   44.8324   33.9278   41.2531 H   0  0  0  0  0  0  0  0  0  0  0  0
   42.5315   36.1770   39.9069 H   0  0  0  0  0  0  0  0  0  0  0  0
   41.5416   35.7162   41.3271 H   0  0  0  0  0  0  0  0  0  0  0  0
   42.2360   33.9111   39.8535 H   0  0  0  0  0  0  0  0  0  0  0  0
   42.7655   33.6964   42.7371 H   0  0  0  0  0  0  0  0  0  0  0  0
   42.3390   32.3505   41.5376 H   0  0  0  0  0  0  0  0  0  0  0  0
   44.1330   32.8180   40.0274 H   0  0  0  0  0  0  0  0  0  0  0  0
   44.4746   34.4984   39.5344 H   0  0  0  0  0  0  0  0  0  0  0  0
  1  2  2  0
  2  3  1  0
  2 11  1  0
  4  3  2  0
  5  4  1  0
  6  5  2  0
  6  1  1  0
  7  8  2  0
  7  9  1  0
  9  1  1  0
 10  7  1  0
  3 12  1  0
  5 13  1  0
  9 14  1  0
 11 15  1  0
 11 16  1  0
 17 18  1  0
 18 19  1  0
 19 20  1  0
 18 21  1  0
 21 22  1  0
 17 23  1  0
 17 24  1  0
 18 25  1  0
 19 26  1  0
 19 27  1  0
 21 28  1  0
 21 29  1  0
 10 17  1  0
M  CHG  1  18   1
M  ISO  4  12  14  13  14  20   8  22   8
M  END
>  <DihAtoms>  (1) 
6,9,16,17

>  <DihDeg>  (1) 
179.9982133784492

$$$$
