
     RDKit          3D

 49 50  0  0  0  0  0  0  0  0999 V2000
   47.5358   34.4598   40.7656 C   0  0  0  0  0  0  0  0  0  0  0  0
   48.7866   33.7726   41.1291 C   0  0  0  0  0  0  0  0  0  0  0  0
   49.1021   32.6233   40.4156 C   0  0  0  0  0  0  0  0  0  0  0  0
   50.2529   31.9112   40.6842 C   0  0  0  0  0  0  0  0  0  0  0  0
   51.0648   32.4108   41.7004 N   0  0  0  0  0  0  0  0  0  0  0  0
   50.7118   33.5443   42.3730 C   0  0  0  0  0  0  0  0  0  0  0  0
   49.5925   34.1987   42.0803 N   0  0  0  0  0  0  0  0  0  0  0  0
   48.0064   32.0436   39.1222 S   0  0  0  0  0  0  0  0  0  0  0  0
   48.8232   32.1708   37.5051 C   0  0  0  0  0  0  0  0  0  0  0  0
   48.4900   33.4950   36.8923 C   0  0  0  0  0  0  0  0  0  0  0  0
   48.1922   33.3104   35.5064 N   0  0  0  0  0  0  0  0  0  0  0  0
   46.7571   34.9419   41.9413 C   0  0  0  0  0  0  0  0  0  0  0  0
   45.2811   34.9379   41.7511 C   0  0  0  0  0  0  0  0  0  0  0  0
   44.4336   35.6090   42.6818 C   0  0  0  0  0  0  0  0  0  0  0  0
   42.7645   35.3176   42.0238 S   0  0  0  0  0  0  0  0  0  0  0  0
   43.4895   34.3143   40.5651 C   0  0  0  0  0  0  0  0  0  0  0  0
   44.6038   34.3712   40.7918 N   0  0  0  0  0  0  0  0  0  0  0  0
   42.7013   33.7386   39.5782 O   0  0  0  0  0  0  0  0  0  0  0  0
   40.7478   33.9791   37.8040 O   0  0  0  0  0  0  0  0  0  0  0  0
   41.7913   34.7767   38.6033 P   0  0  1  0  0  0  0  0  0  0  0  0
   40.9350   35.8352   39.6303 O   0  0  0  0  0  0  0  0  0  0  0  0
   42.7707   35.6886   37.6082 O   0  0  0  0  0  0  0  0  0  0  0  0
   46.9077   33.8804   40.0870 H   0  0  0  0  0  0  0  0  0  0  0  0
   47.8368   35.3735   40.1744 H   0  0  0  0  0  0  0  0  0  0  0  0
   50.5066   31.0259   40.1425 H   0  0  0  0  0  0  0  0  0  0  0  0
   51.4111   33.8304   43.1293 H   0  0  0  0  0  0  0  0  0  0  0  0
   48.3971   31.3511   36.8669 H   0  0  0  0  0  0  0  0  0  0  0  0
   49.9160   32.0352   37.5876 H   0  0  0  0  0  0  0  0  0  0  0  0
   47.5764   33.9156   37.3896 H   0  0  0  0  0  0  0  0  0  0  0  0
   49.2972   34.2541   37.0581 H   0  0  0  0  0  0  0  0  0  0  0  0
   48.3007   34.1858   34.9486 H   0  0  0  0  0  0  0  0  0  0  0  0
   48.9138   32.6475   35.1160 H   0  0  0  0  0  0  0  0  0  0  0  0
   46.9436   34.2162   42.7861 H   0  0  0  0  0  0  0  0  0  0  0  0
   47.0845   35.9406   42.2664 H   0  0  0  0  0  0  0  0  0  0  0  0
   44.7480   36.1498   43.5559 H   0  0  0  0  0  0  0  0  0  0  0  0
   41.2838   36.7600   39.5618 H   0  0  0  0  0  0  0  0  0  0  0  0
   43.8290   35.0315   37.0602 C   0  0  0  0  0  0  0  0  0  0  0  0
   44.7871   34.4573   37.9562 N   0  0  0  0  0  4  0  0  0  0  0  0
   45.8591   33.9285   37.0954 C   0  0  0  0  0  0  0  0  0  0  0  0
   46.6097   33.4091   37.7256 H   0  0  0  0  0  0  0  0  0  0  0  0
   44.2738   33.3247   38.6908 C   0  0  0  0  0  0  0  0  0  0  0  0
   43.1674   33.2459   38.6444 H   0  0  0  0  0  0  0  0  0  0  0  0
   43.4171   34.1927   36.4578 H   0  0  0  0  0  0  0  0  0  0  0  0
   44.3504   35.6780   36.3241 H   0  0  0  0  0  0  0  0  0  0  0  0
   45.2362   35.0982   38.6137 H   0  0  0  0  0  0  0  0  0  0  0  0
   46.3640   34.7629   36.5622 H   0  0  0  0  0  0  0  0  0  0  0  0
   45.4227   33.2538   36.3299 H   0  0  0  0  0  0  0  0  0  0  0  0
   44.6559   32.3531   38.3162 H   0  0  0  0  0  0  0  0  0  0  0  0
   44.6174   33.3633   39.7659 H   0  0  0  0  0  0  0  0  0  0  0  0
  1  2  1  0
  1 12  1  0
  2  7  2  0
  3  4  2  0
  3  2  1  0
  4  5  1  0
  5  6  2  0
  7  6  1  0
  8  3  1  0
  9  8  1  0
 10  9  1  0
 11 10  1  0
 13 12  1  0
 13 14  2  0
 15 14  1  0
 16 17  2  0
 16 15  1  0
 17 13  1  0
 18 16  1  0
 19 20  2  0
 20 18  1  1
 20 21  1  0
 22 20  1  0
  1 23  1  0
  1 24  1  0
  4 25  1  0
  6 26  1  0
  9 27  1  0
  9 28  1  0
 10 29  1  0
 10 30  1  0
 11 31  1  0
 11 32  1  0
 12 33  1  0
 12 34  1  0
 14 35  1  0
 21 36  1  0
 37 38  1  0
 38 39  1  0
 39 40  1  0
 38 41  1  0
 41 42  1  0
 37 43  1  0
 37 44  1  0
 38 45  1  0
 39 46  1  0
 39 47  1  0
 41 48  1  0
 41 49  1  0
 22 37  1  0
M  ISO  8  23   8  24   8  25  14  26  14  27   8  28   8  29   8  30   8
M  ISO  8  31   5  32   5  33   8  34   8  35  14  36   3  40   8  42   8
M  CHG  1  38   1
M  END
>  <DihAtoms>  (1) 
19,21,36,37

>  <DihDeg>  (1) 
59.99896738800965

$$$$
