
 OpenBabel03252505273D

 22 22  0  0  0  0  0  0  0  0999 V2000
   47.2420   32.7920   47.5610 O   0  0  0  0  0  0  0  0  0  0  0  0
   45.8450   32.5100   47.0310 P   0  0  1  0  0  0  0  0  0  0  0  0
   44.6910   33.4980   47.7440 O   0  0  0  0  0  0  0  0  0  0  0  0
   43.8480   32.9770   47.9120 H   0  0  0  0  0  0  0  0  0  0  0  0
   45.8730   32.7080   45.3640 O   0  0  0  0  0  0  0  0  0  0  0  0
   44.6120   35.9590   44.6510 C   0  0  0  0  0  0  0  0  0  0  0  0
   45.1510   36.2650   43.3930 C   0  0  0  0  0  0  0  0  0  0  0  0
   45.9790   35.2940   42.7880 C   0  0  0  0  0  0  0  0  0  0  0  0
   46.1950   34.1380   43.4610 N   0  0  0  0  0  0  0  0  0  0  0  0
   45.6620   33.8790   44.6670 C   0  0  0  0  0  0  0  0  0  0  0  0
   44.8760   34.7790   45.2610 N   0  0  0  0  0  0  0  0  0  0  0  0
   43.9690   36.7050   45.1290 H   0  0  0  0  0  0  0  0  0  0  0  0
   44.9530   37.2060   42.8850 H   0  0  0  0  0  0  0  0  0  0  0  0
   46.4160   35.4940   41.8120 H   0  0  0  0  0  0  0  0  0  0  0  0
   45.4920   30.9170   47.4880 O   0  0  0  0  0  0  0  0  0  0  0  0
   45.5930   30.1530   46.3200 C   0  0  0  0  0  2  0  0  0  0  0  0
   45.1290   28.8030   46.5110 N   0  0  0  0  0  4  0  0  0  0  0  0
   45.8140   28.1830   46.0010 H   0  0  0  0  0  0  0  0  0  0  0  0
   43.8630   28.6530   45.8370 C   0  0  0  0  0  2  0  0  0  0  0  0
   43.0910   29.3520   46.1870 H   0  0  0  0  0  0  0  0  0  0  0  0
   45.0910   28.4320   47.8930 C   0  0  0  0  0  2  0  0  0  0  0  0
   45.2590   29.3480   48.4910 H   0  0  0  0  0  0  0  0  0  0  0  0
  2 15  1  0  0  0  0
  2  1  2  1  0  0  0
  2  3  1  0  0  0  0
  3  4  1  0  0  0  0
  5  2  1  0  0  0  0
  6 12  1  0  0  0  0
  6 11  1  0  0  0  0
  7  6  2  0  0  0  0
  8  7  1  0  0  0  0
  8  9  2  0  0  0  0
  9 10  1  0  0  0  0
 10 11  2  0  0  0  0
 10  5  1  0  0  0  0
 13  7  1  0  0  0  0
 14  8  1  0  0  0  0
 16 17  1  0  0  0  0
 16 15  1  0  0  0  0
 17 21  1  0  0  0  0
 18 17  1  0  0  0  0
 19 20  1  0  0  0  0
 19 17  1  0  0  0  0
 21 22  1  0  0  0  0
M  END
>  <minimizedAffinity>
-4.23822784

>  <minimizedRMSD>
1.97833264

$$$$
