
 OpenBabel03252502253D

 32 33  0  0  1  0  0  0  0  0999 V2000
   36.9350   30.7310   39.2350 N   0  0  0  0  0  0  0  0  0  0  0  0
   37.2020   29.9230   38.0500 C   0  0  0  0  0  0  0  0  0  0  0  0
   35.8240   29.6620   37.4360 C   0  0  0  0  0  0  0  0  0  0  0  0
   34.9890   28.8220   38.3720 C   0  0  0  0  0  0  0  0  0  0  0  0
   35.1590   29.1400   39.8200 C   0  0  0  0  0  0  0  0  0  0  0  0
   35.8250   30.4640   40.0870 C   0  0  1  0  0  0  0  0  0  0  0  0
   37.6700   28.9880   38.4130 H   0  0  0  0  0  0  0  0  0  0  0  0
   37.8250   30.4500   37.3090 H   0  0  0  0  0  0  0  0  0  0  0  0
   35.3870   30.6400   37.2160 H   0  0  0  0  0  0  0  0  0  0  0  0
   35.9680   29.0880   36.5020 H   0  0  0  0  0  0  0  0  0  0  0  0
   33.9170   29.0140   38.1080 H   0  0  0  0  0  0  0  0  0  0  0  0
   35.1480   27.7380   38.2020 H   0  0  0  0  0  0  0  0  0  0  0  0
   35.8420   28.3720   40.2710 H   0  0  0  0  0  0  0  0  0  0  0  0
   34.2250   29.1090   40.4110 H   0  0  0  0  0  0  0  0  0  0  0  0
   35.0590   31.2540   40.0400 H   0  0  0  0  0  0  0  0  0  0  0  0
   38.2470   34.1490   39.9300 C   0  0  0  0  0  0  0  0  0  0  0  0
   37.3250   33.1470   39.5800 C   0  0  0  0  0  0  0  0  0  0  0  0
   37.7880   31.8200   39.5750 C   0  0  0  0  0  0  0  0  0  0  0  0
   39.0890   31.6040   39.9060 N   0  0  0  0  0  0  0  0  0  0  0  0
   39.9400   32.5990   40.2360 C   0  0  0  0  0  0  0  0  0  0  0  0
   39.5030   33.8800   40.2450 N   0  0  0  0  0  0  0  0  0  0  0  0
   37.7590   35.1260   39.8950 H   0  0  0  0  0  0  0  0  0  0  0  0
   36.2980   33.2890   39.3160 H   0  0  0  0  0  0  0  0  0  0  0  0
   40.9720   32.4220   40.4980 H   0  0  0  0  0  0  0  0  0  0  0  0
   36.2660   30.4090   41.4300 O   0  0  0  0  0  0  0  0  0  0  0  0
   36.6510   29.1310   41.8050 C   0  0  0  0  0  2  0  0  0  0  0  0
   37.3240   29.2400   43.0910 N   0  0  0  0  0  4  0  0  0  0  0  0
   36.8690   29.8930   43.7510 H   0  0  0  0  0  0  0  0  0  0  0  0
   38.6970   29.6610   42.9300 C   0  0  0  0  0  2  0  0  0  0  0  0
   39.2350   29.5150   43.8830 H   0  0  0  0  0  0  0  0  0  0  0  0
   37.3700   27.9040   43.6780 C   0  0  0  0  0  2  0  0  0  0  0  0
   38.1990   27.2930   43.2840 H   0  0  0  0  0  0  0  0  0  0  0  0
  1 18  1  0  0  0  0
  1  6  1  0  0  0  0
  2  7  1  0  0  0  0
  2  1  1  0  0  0  0
  3  2  1  0  0  0  0
  3  4  1  0  0  0  0
  4  5  1  0  0  0  0
  5  6  1  0  0  0  0
  5 13  1  0  0  0  0
  5 14  1  0  0  0  0
  6 15  1  6  0  0  0
  6 25  1  0  0  0  0
  8  2  1  0  0  0  0
  9  3  1  0  0  0  0
 10  3  1  0  0  0  0
 11  4  1  0  0  0  0
 12  4  1  0  0  0  0
 16 21  1  0  0  0  0
 17 16  2  0  0  0  0
 18 17  1  0  0  0  0
 18 19  2  0  0  0  0
 19 20  1  0  0  0  0
 20 21  2  0  0  0  0
 20 24  1  0  0  0  0
 22 16  1  0  0  0  0
 23 17  1  0  0  0  0
 25 26  1  0  0  0  0
 26 27  1  0  0  0  0
 27 31  1  0  0  0  0
 27 28  1  0  0  0  0
 29 27  1  0  0  0  0
 29 30  1  0  0  0  0
 32 31  1  0  0  0  0
M  END
>  <minimizedAffinity>
-4.66248322

$$$$

 OpenBabel03252502253D

 32 33  0  0  1  0  0  0  0  0999 V2000
   38.0230   26.2620   41.4300 N   0  0  0  0  0  0  0  0  0  0  0  0
   39.4780   26.1700   41.3540 C   0  0  0  0  0  0  0  0  0  0  0  0
   39.9270   25.8870   42.7900 C   0  0  0  0  0  0  0  0  0  0  0  0
   39.5970   27.0600   43.6800 C   0  0  0  0  0  0  0  0  0  0  0  0
   38.2980   27.7290   43.3790 C   0  0  0  0  0  0  0  0  0  0  0  0
   37.3710   26.9170   42.5130 C   0  0  1  0  0  0  0  0  0  0  0  0
   39.8310   27.1590   41.0060 H   0  0  0  0  0  0  0  0  0  0  0  0
   39.8180   25.3450   40.7080 H   0  0  0  0  0  0  0  0  0  0  0  0
   39.4400   24.9550   43.0940 H   0  0  0  0  0  0  0  0  0  0  0  0
   41.0250   25.7600   42.7880 H   0  0  0  0  0  0  0  0  0  0  0  0
   39.5380   26.6650   44.7270 H   0  0  0  0  0  0  0  0  0  0  0  0
   40.4140   27.8080   43.6900 H   0  0  0  0  0  0  0  0  0  0  0  0
   38.5110   28.6600   42.7880 H   0  0  0  0  0  0  0  0  0  0  0  0
   37.7290   28.0520   44.2700 H   0  0  0  0  0  0  0  0  0  0  0  0
   36.8190   26.2160   43.1580 H   0  0  0  0  0  0  0  0  0  0  0  0
   36.2370   25.6620   38.2150 C   0  0  0  0  0  0  0  0  0  0  0  0
   37.0630   26.3060   39.1540 C   0  0  0  0  0  0  0  0  0  0  0  0
   37.2100   25.6920   40.4090 C   0  0  0  0  0  0  0  0  0  0  0  0
   36.5460   24.5250   40.6230 N   0  0  0  0  0  0  0  0  0  0  0  0
   35.7630   23.9420   39.6910 C   0  0  0  0  0  0  0  0  0  0  0  0
   35.6150   24.5250   38.4780 N   0  0  0  0  0  0  0  0  0  0  0  0
   36.2120   26.2420   37.2900 H   0  0  0  0  0  0  0  0  0  0  0  0
   37.5960   27.2230   39.0120 H   0  0  0  0  0  0  0  0  0  0  0  0
   35.2370   23.0150   39.8660 H   0  0  0  0  0  0  0  0  0  0  0  0
   36.4200   27.8310   42.0040 O   0  0  0  0  0  0  0  0  0  0  0  0
   36.9030   29.1310   41.9710 C   0  0  0  0  0  2  0  0  0  0  0  0
   35.8640   29.9660   41.3880 N   0  0  0  0  0  4  0  0  0  0  0  0
   35.1740   30.3190   42.0720 H   0  0  0  0  0  0  0  0  0  0  0  0
   35.1400   29.2600   40.3570 C   0  0  0  0  0  2  0  0  0  0  0  0
   34.5250   29.9800   39.7880 H   0  0  0  0  0  0  0  0  0  0  0  0
   36.5210   31.0920   40.7320 C   0  0  0  0  0  2  0  0  0  0  0  0
   36.8970   30.8390   39.7260 H   0  0  0  0  0  0  0  0  0  0  0  0
  1  6  1  0  0  0  0
  2  1  1  0  0  0  0
  2  3  1  0  0  0  0
  3  9  1  0  0  0  0
  3  4  1  0  0  0  0
  4 12  1  0  0  0  0
  4 11  1  0  0  0  0
  5  4  1  0  0  0  0
  5 14  1  0  0  0  0
  6 15  1  1  0  0  0
  6  5  1  0  0  0  0
  7  2  1  0  0  0  0
  8  2  1  0  0  0  0
 10  3  1  0  0  0  0
 13  5  1  0  0  0  0
 16 21  2  0  0  0  0
 16 17  1  0  0  0  0
 17 18  2  0  0  0  0
 18 19  1  0  0  0  0
 18  1  1  0  0  0  0
 20 24  1  0  0  0  0
 20 19  2  0  0  0  0
 21 20  1  0  0  0  0
 22 16  1  0  0  0  0
 23 17  1  0  0  0  0
 25  6  1  0  0  0  0
 26 25  1  0  0  0  0
 27 26  1  0  0  0  0
 27 28  1  0  0  0  0
 29 27  1  0  0  0  0
 30 29  1  0  0  0  0
 31 27  1  0  0  0  0
 32 31  1  0  0  0  0
M  END
>  <minimizedAffinity>
-4.35981417

$$$$

 OpenBabel03252502253D

 32 33  0  0  1  0  0  0  0  0999 V2000
   36.6420   28.3030   41.0090 N   0  0  0  0  0  0  0  0  0  0  0  0
   36.9530   27.0210   41.6330 C   0  0  0  0  0  0  0  0  0  0  0  0
   36.6920   27.2400   43.1250 C   0  0  0  0  0  0  0  0  0  0  0  0
   37.6610   28.2560   43.6790 C   0  0  0  0  0  0  0  0  0  0  0  0
   37.9760   29.3880   42.7610 C   0  0  0  0  0  0  0  0  0  0  0  0
   37.0110   29.5390   41.6140 C   0  0  1  0  0  0  0  0  0  0  0  0
   38.0240   26.8320   41.4310 H   0  0  0  0  0  0  0  0  0  0  0  0
   36.3030   26.2070   41.2760 H   0  0  0  0  0  0  0  0  0  0  0  0
   35.6440   27.5360   43.2220 H   0  0  0  0  0  0  0  0  0  0  0  0
   36.8690   26.2820   43.6490 H   0  0  0  0  0  0  0  0  0  0  0  0
   37.1870   28.6880   44.5980 H   0  0  0  0  0  0  0  0  0  0  0  0
   38.6000   27.7790   44.0270 H   0  0  0  0  0  0  0  0  0  0  0  0
   38.9710   29.1880   42.2830 H   0  0  0  0  0  0  0  0  0  0  0  0
   38.0630   30.3730   43.2560 H   0  0  0  0  0  0  0  0  0  0  0  0
   36.1400   30.1120   41.9650 H   0  0  0  0  0  0  0  0  0  0  0  0
   34.1010   28.9640   38.3650 C   0  0  0  0  0  0  0  0  0  0  0  0
   34.6970   28.9710   39.6380 C   0  0  0  0  0  0  0  0  0  0  0  0
   35.9530   28.3510   39.7630 C   0  0  0  0  0  0  0  0  0  0  0  0
   36.4950   27.7930   38.6490 N   0  0  0  0  0  0  0  0  0  0  0  0
   35.8850   27.8110   37.4450 C   0  0  0  0  0  0  0  0  0  0  0  0
   34.6760   28.4050   37.3130 N   0  0  0  0  0  0  0  0  0  0  0  0
   33.1360   29.4760   38.4080 H   0  0  0  0  0  0  0  0  0  0  0  0
   34.2930   29.4030   40.5300 H   0  0  0  0  0  0  0  0  0  0  0  0
   36.3210   27.3650   36.5620 H   0  0  0  0  0  0  0  0  0  0  0  0
   37.6700   30.3490   40.6600 O   0  0  0  0  0  0  0  0  0  0  0  0
   37.2630   31.6730   40.7230 C   0  0  0  0  0  2  0  0  0  0  0  0
   37.7560   32.3360   39.5250 N   0  0  0  0  0  4  0  0  0  0  0  0
   38.7860   32.3850   39.4630 H   0  0  0  0  0  0  0  0  0  0  0  0
   37.2430   33.6830   39.4230 C   0  0  0  0  0  2  0  0  0  0  0  0
   37.4450   34.0720   38.4090 H   0  0  0  0  0  0  0  0  0  0  0  0
   37.2310   31.6090   38.3730 C   0  0  0  0  0  2  0  0  0  0  0  0
   36.1960   31.8980   38.1210 H   0  0  0  0  0  0  0  0  0  0  0  0
  1  6  1  0  0  0  0
  1  2  1  0  0  0  0
  2  3  1  0  0  0  0
  3  9  1  0  0  0  0
  3 10  1  0  0  0  0
  3  4  1  0  0  0  0
  4 12  1  0  0  0  0
  4 11  1  0  0  0  0
  5 14  1  0  0  0  0
  5  4  1  0  0  0  0
  6 15  1  1  0  0  0
  6  5  1  0  0  0  0
  7  2  1  0  0  0  0
  8  2  1  0  0  0  0
 13  5  1  0  0  0  0
 16 22  1  0  0  0  0
 16 17  1  0  0  0  0
 17 18  2  0  0  0  0
 17 23  1  0  0  0  0
 18  1  1  0  0  0  0
 19 18  1  0  0  0  0
 20 19  2  0  0  0  0
 21 20  1  0  0  0  0
 21 16  2  0  0  0  0
 24 20  1  0  0  0  0
 25 26  1  0  0  0  0
 25  6  1  0  0  0  0
 27 26  1  0  0  0  0
 28 27  1  0  0  0  0
 29 27  1  0  0  0  0
 30 29  1  0  0  0  0
 31 27  1  0  0  0  0
 32 31  1  0  0  0  0
M  END
>  <minimizedAffinity>
-4.22382116

$$$$

 OpenBabel03252502253D

 32 33  0  0  1  0  0  0  0  0999 V2000
   37.6680   29.9560   40.2750 N   0  0  0  0  0  0  0  0  0  0  0  0
   36.3330   30.2020   39.7380 C   0  0  0  0  0  0  0  0  0  0  0  0
   36.5270   30.2540   38.2200 C   0  0  0  0  0  0  0  0  0  0  0  0
   37.3870   31.4370   37.8460 C   0  0  0  0  0  0  0  0  0  0  0  0
   38.5030   31.7250   38.7920 C   0  0  0  0  0  0  0  0  0  0  0  0
   38.8210   30.5940   39.7350 C   0  0  1  0  0  0  0  0  0  0  0  0
   36.0150   31.1820   40.1410 H   0  0  0  0  0  0  0  0  0  0  0  0
   35.6250   29.3930   39.9760 H   0  0  0  0  0  0  0  0  0  0  0  0
   36.9530   29.2910   37.9240 H   0  0  0  0  0  0  0  0  0  0  0  0
   35.5360   30.3940   37.7520 H   0  0  0  0  0  0  0  0  0  0  0  0
   37.8410   31.2030   36.8490 H   0  0  0  0  0  0  0  0  0  0  0  0
   36.7790   32.3510   37.6890 H   0  0  0  0  0  0  0  0  0  0  0  0
   38.1940   32.5780   39.4520 H   0  0  0  0  0  0  0  0  0  0  0  0
   39.4480   32.0340   38.3100 H   0  0  0  0  0  0  0  0  0  0  0  0
   39.4890   29.8880   39.2180 H   0  0  0  0  0  0  0  0  0  0  0  0
   38.6670   27.0310   42.3570 C   0  0  0  0  0  0  0  0  0  0  0  0
   38.5390   27.8430   41.2160 C   0  0  0  0  0  0  0  0  0  0  0  0
   37.8530   29.0610   41.3680 C   0  0  0  0  0  0  0  0  0  0  0  0
   37.3650   29.3610   42.6000 N   0  0  0  0  0  0  0  0  0  0  0  0
   37.5120   28.5490   43.6690 C   0  0  0  0  0  0  0  0  0  0  0  0
   38.1720   27.3750   43.5340 N   0  0  0  0  0  0  0  0  0  0  0  0
   39.2180   26.1230   42.1000 H   0  0  0  0  0  0  0  0  0  0  0  0
   38.9130   27.6310   40.2360 H   0  0  0  0  0  0  0  0  0  0  0  0
   37.1220   28.7930   44.6460 H   0  0  0  0  0  0  0  0  0  0  0  0
   39.5750   31.1680   40.7850 O   0  0  0  0  0  0  0  0  0  0  0  0
   39.3500   32.5300   40.9110 C   0  0  0  0  0  2  0  0  0  0  0  0
   40.6140   33.1460   41.2850 N   0  0  0  0  0  4  0  0  0  0  0  0
   40.6000   33.6120   42.2080 H   0  0  0  0  0  0  0  0  0  0  0  0
   41.0330   34.1220   40.3050 C   0  0  0  0  0  2  0  0  0  0  0  0
   42.0850   34.3990   40.4960 H   0  0  0  0  0  0  0  0  0  0  0  0
   41.6320   32.0990   41.2830 C   0  0  0  0  0  2  0  0  0  0  0  0
   42.0220   31.8860   40.2730 H   0  0  0  0  0  0  0  0  0  0  0  0
  1 18  1  0  0  0  0
  2  8  1  0  0  0  0
  2  7  1  0  0  0  0
  2  1  1  0  0  0  0
  3  2  1  0  0  0  0
  4  3  1  0  0  0  0
  4  5  1  0  0  0  0
  5 13  1  0  0  0  0
  5  6  1  0  0  0  0
  6 15  1  6  0  0  0
  6  1  1  0  0  0  0
  6 25  1  0  0  0  0
  9  3  1  0  0  0  0
 10  3  1  0  0  0  0
 11  4  1  0  0  0  0
 12  4  1  0  0  0  0
 14  5  1  0  0  0  0
 16 21  1  0  0  0  0
 17 18  1  0  0  0  0
 17 16  2  0  0  0  0
 18 19  2  0  0  0  0
 19 20  1  0  0  0  0
 20 24  1  0  0  0  0
 21 20  2  0  0  0  0
 22 16  1  0  0  0  0
 23 17  1  0  0  0  0
 25 26  1  0  0  0  0
 26 27  1  0  0  0  0
 27 28  1  0  0  0  0
 29 30  1  0  0  0  0
 29 27  1  0  0  0  0
 31 27  1  0  0  0  0
 32 31  1  0  0  0  0
M  END
>  <minimizedAffinity>
-4.04795742

$$$$

 OpenBabel03252502253D

 32 33  0  0  1  0  0  0  0  0999 V2000
   36.5870   26.7050   39.7280 N   0  0  0  0  0  0  0  0  0  0  0  0
   35.8880   26.0530   38.6260 C   0  0  0  0  0  0  0  0  0  0  0  0
   35.9660   27.0520   37.4690 C   0  0  0  0  0  0  0  0  0  0  0  0
   35.1970   28.3040   37.8100 C   0  0  0  0  0  0  0  0  0  0  0  0
   35.3050   28.7380   39.2330 C   0  0  0  0  0  0  0  0  0  0  0  0
   36.4380   28.0970   39.9900 C   0  0  1  0  0  0  0  0  0  0  0  0
   34.8460   25.9050   38.9670 H   0  0  0  0  0  0  0  0  0  0  0  0
   36.3710   25.1120   38.3140 H   0  0  0  0  0  0  0  0  0  0  0  0
   37.0290   27.2280   37.2760 H   0  0  0  0  0  0  0  0  0  0  0  0
   35.4890   26.5910   36.5840 H   0  0  0  0  0  0  0  0  0  0  0  0
   35.6180   29.1250   37.1740 H   0  0  0  0  0  0  0  0  0  0  0  0
   34.1300   28.2210   37.5200 H   0  0  0  0  0  0  0  0  0  0  0  0
   34.3740   28.4160   39.7700 H   0  0  0  0  0  0  0  0  0  0  0  0
   35.3820   29.8310   39.3770 H   0  0  0  0  0  0  0  0  0  0  0  0
   37.3590   28.6650   39.7840 H   0  0  0  0  0  0  0  0  0  0  0  0
   37.9120   24.1730   42.1200 C   0  0  0  0  0  0  0  0  0  0  0  0
   36.9830   24.8440   41.3060 C   0  0  0  0  0  0  0  0  0  0  0  0
   37.4480   25.9560   40.5820 C   0  0  0  0  0  0  0  0  0  0  0  0
   38.7560   26.2980   40.7210 N   0  0  0  0  0  0  0  0  0  0  0  0
   39.6130   25.6220   41.5160 C   0  0  0  0  0  0  0  0  0  0  0  0
   39.1760   24.5500   42.2170 N   0  0  0  0  0  0  0  0  0  0  0  0
   37.4220   23.3350   42.6220 H   0  0  0  0  0  0  0  0  0  0  0  0
   35.9500   24.5960   41.1780 H   0  0  0  0  0  0  0  0  0  0  0  0
   40.6520   25.8990   41.6230 H   0  0  0  0  0  0  0  0  0  0  0  0
   36.1430   28.2880   41.3600 O   0  0  0  0  0  0  0  0  0  0  0  0
   36.6490   29.4840   41.8450 C   0  0  0  0  0  2  0  0  0  0  0  0
   37.2440   29.2080   43.1450 N   0  0  0  0  0  4  0  0  0  0  0  0
   37.0020   29.8980   43.8750 H   0  0  0  0  0  0  0  0  0  0  0  0
   38.6850   29.1450   43.0590 C   0  0  0  0  0  2  0  0  0  0  0  0
   39.0860   28.7150   43.9940 H   0  0  0  0  0  0  0  0  0  0  0  0
   36.7990   27.8810   43.5590 C   0  0  0  0  0  2  0  0  0  0  0  0
   37.3920   27.0700   43.1030 H   0  0  0  0  0  0  0  0  0  0  0  0
  1  6  1  0  0  0  0
  1 18  1  0  0  0  0
  2  7  1  0  0  0  0
  2  1  1  0  0  0  0
  3  4  1  0  0  0  0
  3  2  1  0  0  0  0
  4  5  1  0  0  0  0
  5 14  1  0  0  0  0
  5 13  1  0  0  0  0
  5  6  1  0  0  0  0
  6 15  1  6  0  0  0
  6 25  1  0  0  0  0
  8  2  1  0  0  0  0
  9  3  1  0  0  0  0
 10  3  1  0  0  0  0
 11  4  1  0  0  0  0
 12  4  1  0  0  0  0
 16 21  1  0  0  0  0
 16 22  1  0  0  0  0
 17 16  2  0  0  0  0
 18 19  2  0  0  0  0
 18 17  1  0  0  0  0
 19 20  1  0  0  0  0
 20 24  1  0  0  0  0
 20 21  2  0  0  0  0
 23 17  1  0  0  0  0
 25 26  1  0  0  0  0
 26 27  1  0  0  0  0
 27 31  1  0  0  0  0
 27 28  1  0  0  0  0
 29 27  1  0  0  0  0
 29 30  1  0  0  0  0
 32 31  1  0  0  0  0
M  END
>  <minimizedAffinity>
-4.03886223

$$$$

 OpenBabel03252502253D

 32 33  0  0  1  0  0  0  0  0999 V2000
   36.2970   28.7760   40.0190 N   0  0  0  0  0  0  0  0  0  0  0  0
   34.9290   29.2800   39.9690 C   0  0  0  0  0  0  0  0  0  0  0  0
   34.3540   28.7200   38.6660 C   0  0  0  0  0  0  0  0  0  0  0  0
   35.0890   29.2990   37.4820 C   0  0  0  0  0  0  0  0  0  0  0  0
   36.5560   29.4790   37.6810 C   0  0  0  0  0  0  0  0  0  0  0  0
   37.1170   28.7200   38.8550 C   0  0  1  0  0  0  0  0  0  0  0  0
   35.0080   30.3830   39.9380 H   0  0  0  0  0  0  0  0  0  0  0  0
   34.3130   28.9210   40.8100 H   0  0  0  0  0  0  0  0  0  0  0  0
   34.4210   27.6300   38.7340 H   0  0  0  0  0  0  0  0  0  0  0  0
   33.2960   29.0330   38.5950 H   0  0  0  0  0  0  0  0  0  0  0  0
   34.9490   28.5820   36.6320 H   0  0  0  0  0  0  0  0  0  0  0  0
   34.6340   30.2520   37.1440 H   0  0  0  0  0  0  0  0  0  0  0  0
   36.7500   30.5600   37.9120 H   0  0  0  0  0  0  0  0  0  0  0  0
   37.1740   29.2350   36.7980 H   0  0  0  0  0  0  0  0  0  0  0  0
   37.3230   27.6870   38.5350 H   0  0  0  0  0  0  0  0  0  0  0  0
   37.6210   26.6110   42.7480 C   0  0  0  0  0  0  0  0  0  0  0  0
   37.0650   26.9550   41.5030 C   0  0  0  0  0  0  0  0  0  0  0  0
   36.8550   28.3210   41.2480 C   0  0  0  0  0  0  0  0  0  0  0  0
   37.2030   29.2060   42.2200 N   0  0  0  0  0  0  0  0  0  0  0  0
   37.7350   28.8290   43.4020 C   0  0  0  0  0  0  0  0  0  0  0  0
   37.9420   27.5150   43.6580 N   0  0  0  0  0  0  0  0  0  0  0  0
   37.7300   25.5250   42.8140 H   0  0  0  0  0  0  0  0  0  0  0  0
   36.7830   26.2800   40.7220 H   0  0  0  0  0  0  0  0  0  0  0  0
   38.0100   29.5360   44.1710 H   0  0  0  0  0  0  0  0  0  0  0  0
   38.3690   29.3140   39.1350 O   0  0  0  0  0  0  0  0  0  0  0  0
   38.3870   30.6690   38.8400 C   0  0  0  0  0  2  0  0  0  0  0  0
   38.5080   31.3860   40.1010 N   0  0  0  0  0  4  0  0  0  0  0  0
   38.5690   30.7730   40.9300 H   0  0  0  0  0  0  0  0  0  0  0  0
   37.3970   32.2880   40.2990 C   0  0  0  0  0  2  0  0  0  0  0  0
   37.6300   32.9710   41.1350 H   0  0  0  0  0  0  0  0  0  0  0  0
   39.7040   32.2190   40.0190 C   0  0  0  0  0  2  0  0  0  0  0  0
   39.5280   33.1680   39.4840 H   0  0  0  0  0  0  0  0  0  0  0  0
  1 18  1  0  0  0  0
  2  1  1  0  0  0  0
  2  8  1  0  0  0  0
  3  9  1  0  0  0  0
  3  2  1  0  0  0  0
  4  5  1  0  0  0  0
  4  3  1  0  0  0  0
  5 13  1  0  0  0  0
  5  6  1  0  0  0  0
  6 15  1  6  0  0  0
  6 25  1  0  0  0  0
  6  1  1  0  0  0  0
  7  2  1  0  0  0  0
 10  3  1  0  0  0  0
 11  4  1  0  0  0  0
 12  4  1  0  0  0  0
 14  5  1  0  0  0  0
 16 22  1  0  0  0  0
 16 21  1  0  0  0  0
 17 16  2  0  0  0  0
 18 17  1  0  0  0  0
 18 19  2  0  0  0  0
 19 20  1  0  0  0  0
 20 21  2  0  0  0  0
 20 24  1  0  0  0  0
 23 17  1  0  0  0  0
 26 25  1  0  0  0  0
 26 27  1  0  0  0  0
 27 29  1  0  0  0  0
 27 28  1  0  0  0  0
 29 30  1  0  0  0  0
 31 27  1  0  0  0  0
 32 31  1  0  0  0  0
M  END
>  <minimizedAffinity>
-4.03121614

$$$$

 OpenBabel03252502253D

 32 33  0  0  1  0  0  0  0  0999 V2000
   38.4820   30.1400   38.9400 N   0  0  0  0  0  0  0  0  0  0  0  0
   39.4900   29.7170   37.9730 C   0  0  0  0  0  0  0  0  0  0  0  0
   38.7690   28.7100   37.0740 C   0  0  0  0  0  0  0  0  0  0  0  0
   38.3720   27.4920   37.8710 C   0  0  0  0  0  0  0  0  0  0  0  0
   37.9120   27.7750   39.2610 C   0  0  0  0  0  0  0  0  0  0  0  0
   37.5610   29.2180   39.5140 C   0  0  1  0  0  0  0  0  0  0  0  0
   40.2950   29.2350   38.5600 H   0  0  0  0  0  0  0  0  0  0  0  0
   39.8570   30.5480   37.3510 H   0  0  0  0  0  0  0  0  0  0  0  0
   37.9220   29.2380   36.6260 H   0  0  0  0  0  0  0  0  0  0  0  0
   39.4750   28.3850   36.2870 H   0  0  0  0  0  0  0  0  0  0  0  0
   37.5190   27.0130   37.3240 H   0  0  0  0  0  0  0  0  0  0  0  0
   39.1780   26.7320   37.8870 H   0  0  0  0  0  0  0  0  0  0  0  0
   38.7570   27.5510   39.9640 H   0  0  0  0  0  0  0  0  0  0  0  0
   37.0580   27.1590   39.5990 H   0  0  0  0  0  0  0  0  0  0  0  0
   36.5280   29.3890   39.1750 H   0  0  0  0  0  0  0  0  0  0  0  0
   37.2620   33.6160   39.5090 C   0  0  0  0  0  0  0  0  0  0  0  0
   37.2500   32.2790   39.0740 C   0  0  0  0  0  0  0  0  0  0  0  0
   38.3930   31.5050   39.3390 C   0  0  0  0  0  0  0  0  0  0  0  0
   39.4220   32.1040   39.9940 N   0  0  0  0  0  0  0  0  0  0  0  0
   39.3900   33.3930   40.3940 C   0  0  0  0  0  0  0  0  0  0  0  0
   38.2930   34.1470   40.1440 N   0  0  0  0  0  0  0  0  0  0  0  0
   36.3190   34.0980   39.2410 H   0  0  0  0  0  0  0  0  0  0  0  0
   36.4540   31.7830   38.5570 H   0  0  0  0  0  0  0  0  0  0  0  0
   40.2110   33.8650   40.9150 H   0  0  0  0  0  0  0  0  0  0  0  0
   37.5570   29.3730   40.9200 O   0  0  0  0  0  0  0  0  0  0  0  0
   36.5350   28.6560   41.5250 C   0  0  0  0  0  2  0  0  0  0  0  0
   36.7540   28.7190   42.9630 N   0  0  0  0  0  4  0  0  0  0  0  0
   36.1640   29.4150   43.4490 H   0  0  0  0  0  0  0  0  0  0  0  0
   38.1330   29.0180   43.2710 C   0  0  0  0  0  2  0  0  0  0  0  0
   38.3120   28.8350   44.3450 H   0  0  0  0  0  0  0  0  0  0  0  0
   36.4890   27.3900   43.5060 C   0  0  0  0  0  2  0  0  0  0  0  0
   37.3470   26.7060   43.3950 H   0  0  0  0  0  0  0  0  0  0  0  0
  1 18  1  0  0  0  0
  1  6  1  0  0  0  0
  2  7  1  0  0  0  0
  2  1  1  0  0  0  0
  3  4  1  0  0  0  0
  3  2  1  0  0  0  0
  4 12  1  0  0  0  0
  4  5  1  0  0  0  0
  5  6  1  0  0  0  0
  5 14  1  0  0  0  0
  5 13  1  0  0  0  0
  6 15  1  6  0  0  0
  6 25  1  0  0  0  0
  8  2  1  0  0  0  0
  9  3  1  0  0  0  0
 10  3  1  0  0  0  0
 11  4  1  0  0  0  0
 16 21  1  0  0  0  0
 17 18  1  0  0  0  0
 17 16  2  0  0  0  0
 18 19  2  0  0  0  0
 19 20  1  0  0  0  0
 20 24  1  0  0  0  0
 21 20  2  0  0  0  0
 22 16  1  0  0  0  0
 23 17  1  0  0  0  0
 25 26  1  0  0  0  0
 26 27  1  0  0  0  0
 27 29  1  0  0  0  0
 27 28  1  0  0  0  0
 27 31  1  0  0  0  0
 29 30  1  0  0  0  0
 32 31  1  0  0  0  0
M  END
>  <minimizedAffinity>
-4.01442814

$$$$

 OpenBabel03252502253D

 32 33  0  0  1  0  0  0  0  0999 V2000
   37.5360   30.3310   40.3590 N   0  0  0  0  0  0  0  0  0  0  0  0
   36.4180   30.0720   41.2610 C   0  0  0  0  0  0  0  0  0  0  0  0
   36.6700   28.6620   41.8000 C   0  0  0  0  0  0  0  0  0  0  0  0
   36.5860   27.6540   40.6810 C   0  0  0  0  0  0  0  0  0  0  0  0
   37.1550   28.1120   39.3800 C   0  0  0  0  0  0  0  0  0  0  0  0
   38.0430   29.3240   39.4870 C   0  0  1  0  0  0  0  0  0  0  0  0
   35.5040   30.1120   40.6370 H   0  0  0  0  0  0  0  0  0  0  0  0
   36.3850   30.7740   42.1080 H   0  0  0  0  0  0  0  0  0  0  0  0
   37.6440   28.6850   42.2980 H   0  0  0  0  0  0  0  0  0  0  0  0
   35.8740   28.4260   42.5300 H   0  0  0  0  0  0  0  0  0  0  0  0
   37.1730   26.7570   41.0090 H   0  0  0  0  0  0  0  0  0  0  0  0
   35.5490   27.2910   40.5330 H   0  0  0  0  0  0  0  0  0  0  0  0
   36.3070   28.4270   38.7170 H   0  0  0  0  0  0  0  0  0  0  0  0
   37.7130   27.3370   38.8230 H   0  0  0  0  0  0  0  0  0  0  0  0
   39.0530   28.9920   39.7720 H   0  0  0  0  0  0  0  0  0  0  0  0
   38.1440   33.9880   39.9780 C   0  0  0  0  0  0  0  0  0  0  0  0
   37.4390   32.7710   39.9790 C   0  0  0  0  0  0  0  0  0  0  0  0
   38.1560   31.6130   40.3270 C   0  0  0  0  0  0  0  0  0  0  0  0
   39.4720   31.7540   40.6350 N   0  0  0  0  0  0  0  0  0  0  0  0
   40.1080   32.9450   40.6210 C   0  0  0  0  0  0  0  0  0  0  0  0
   39.4270   34.0660   40.2880 N   0  0  0  0  0  0  0  0  0  0  0  0
   37.4710   34.8000   39.6920 H   0  0  0  0  0  0  0  0  0  0  0  0
   36.4050   32.6320   39.7410 H   0  0  0  0  0  0  0  0  0  0  0  0
   41.1540   33.0520   40.8670 H   0  0  0  0  0  0  0  0  0  0  0  0
   38.1430   29.8450   38.1770 O   0  0  0  0  0  0  0  0  0  0  0  0
   37.0120   29.5830   37.4180 C   0  0  0  0  0  2  0  0  0  0  0  0
   37.4330   29.4960   36.0270 N   0  0  0  0  0  4  0  0  0  0  0  0
   38.2230   30.1180   35.7860 H   0  0  0  0  0  0  0  0  0  0  0  0
   36.3420   29.8000   35.1290 C   0  0  0  0  0  2  0  0  0  0  0  0
   36.6260   29.5060   34.1030 H   0  0  0  0  0  0  0  0  0  0  0  0
   37.8070   28.1090   35.7670 C   0  0  0  0  0  2  0  0  0  0  0  0
   36.9360   27.4660   35.5540 H   0  0  0  0  0  0  0  0  0  0  0  0
  1  2  1  0  0  0  0
  2  3  1  0  0  0  0
  2  8  1  0  0  0  0
  3  9  1  0  0  0  0
  3 10  1  0  0  0  0
  4 11  1  0  0  0  0
  4  3  1  0  0  0  0
  5  6  1  0  0  0  0
  5  4  1  0  0  0  0
  6 15  1  1  0  0  0
  6  1  1  0  0  0  0
  7  2  1  0  0  0  0
 12  4  1  0  0  0  0
 13  5  1  0  0  0  0
 14  5  1  0  0  0  0
 16 17  2  0  0  0  0
 16 21  1  0  0  0  0
 17 18  1  0  0  0  0
 18  1  1  0  0  0  0
 18 19  2  0  0  0  0
 20 19  1  0  0  0  0
 20 24  1  0  0  0  0
 21 20  2  0  0  0  0
 22 16  1  0  0  0  0
 23 17  1  0  0  0  0
 25  6  1  0  0  0  0
 26 25  1  0  0  0  0
 27 26  1  0  0  0  0
 28 27  1  0  0  0  0
 29 27  1  0  0  0  0
 30 29  1  0  0  0  0
 31 27  1  0  0  0  0
 32 31  1  0  0  0  0
M  END
>  <minimizedAffinity>
-3.95074177

$$$$

 OpenBabel03252502253D

 32 33  0  0  1  0  0  0  0  0999 V2000
   38.1020   30.5910   41.0270 N   0  0  0  0  0  0  0  0  0  0  0  0
   39.3640   31.2770   40.7690 C   0  0  0  0  0  0  0  0  0  0  0  0
   39.0680   32.7540   41.0410 C   0  0  0  0  0  0  0  0  0  0  0  0
   38.0620   33.2750   40.0450 C   0  0  0  0  0  0  0  0  0  0  0  0
   36.9840   32.3110   39.6790 C   0  0  0  0  0  0  0  0  0  0  0  0
   36.8530   31.1440   40.6230 C   0  0  1  0  0  0  0  0  0  0  0  0
   39.5990   31.0990   39.7030 H   0  0  0  0  0  0  0  0  0  0  0  0
   40.1710   30.9480   41.4430 H   0  0  0  0  0  0  0  0  0  0  0  0
   38.7320   32.8220   42.0810 H   0  0  0  0  0  0  0  0  0  0  0  0
   40.0060   33.3230   40.9060 H   0  0  0  0  0  0  0  0  0  0  0  0
   37.5720   34.1660   40.5160 H   0  0  0  0  0  0  0  0  0  0  0  0
   38.5540   33.6570   39.1280 H   0  0  0  0  0  0  0  0  0  0  0  0
   37.2400   31.8570   38.6860 H   0  0  0  0  0  0  0  0  0  0  0  0
   35.9820   32.7620   39.5640 H   0  0  0  0  0  0  0  0  0  0  0  0
   36.2350   31.4560   41.4780 H   0  0  0  0  0  0  0  0  0  0  0  0
   37.7130   27.9350   43.6120 C   0  0  0  0  0  0  0  0  0  0  0  0
   37.6930   29.2200   43.0420 C   0  0  0  0  0  0  0  0  0  0  0  0
   38.0870   29.3340   41.6980 C   0  0  0  0  0  0  0  0  0  0  0  0
   38.4590   28.1990   41.0510 N   0  0  0  0  0  0  0  0  0  0  0  0
   38.4630   26.9830   41.6390 C   0  0  0  0  0  0  0  0  0  0  0  0
   38.0840   26.8620   42.9330 N   0  0  0  0  0  0  0  0  0  0  0  0
   37.3850   27.9890   44.6530 H   0  0  0  0  0  0  0  0  0  0  0  0
   37.4040   30.1290   43.5290 H   0  0  0  0  0  0  0  0  0  0  0  0
   38.7600   26.0840   41.1200 H   0  0  0  0  0  0  0  0  0  0  0  0
   36.1110   30.1650   39.9230 O   0  0  0  0  0  0  0  0  0  0  0  0
   36.3610   30.1880   38.5600 C   0  0  0  0  0  2  0  0  0  0  0  0
   37.0670   28.9600   38.2260 N   0  0  0  0  0  4  0  0  0  0  0  0
   37.2910   28.3670   39.0430 H   0  0  0  0  0  0  0  0  0  0  0  0
   38.3040   29.2390   37.5320 C   0  0  0  0  0  2  0  0  0  0  0  0
   38.6950   28.3010   37.0980 H   0  0  0  0  0  0  0  0  0  0  0  0
   36.2310   28.2120   37.2930 C   0  0  0  0  0  2  0  0  0  0  0  0
   36.3320   28.5650   36.2520 H   0  0  0  0  0  0  0  0  0  0  0  0
  1 18  1  0  0  0  0
  2  1  1  0  0  0  0
  2  3  1  0  0  0  0
  2  8  1  0  0  0  0
  3  9  1  0  0  0  0
  4 11  1  0  0  0  0
  4  3  1  0  0  0  0
  5  4  1  0  0  0  0
  5  6  1  0  0  0  0
  6  1  1  0  0  0  0
  6 15  1  1  0  0  0
  7  2  1  0  0  0  0
 10  3  1  0  0  0  0
 12  4  1  0  0  0  0
 13  5  1  0  0  0  0
 14  5  1  0  0  0  0
 16 22  1  0  0  0  0
 17 23  1  0  0  0  0
 17 16  1  0  0  0  0
 18 17  2  0  0  0  0
 19 20  2  0  0  0  0
 19 18  1  0  0  0  0
 20 21  1  0  0  0  0
 21 16  2  0  0  0  0
 24 20  1  0  0  0  0
 25  6  1  0  0  0  0
 26 25  1  0  0  0  0
 27 26  1  0  0  0  0
 27 28  1  0  0  0  0
 29 27  1  0  0  0  0
 30 29  1  0  0  0  0
 31 27  1  0  0  0  0
 32 31  1  0  0  0  0
M  END
>  <minimizedAffinity>
-3.93741369

$$$$
