
     RDKit          3D

 40 41  0  0  0  0  0  0  0  0999 V2000
   44.5707   35.5896   44.7525 C   0  0  0  0  0  0  0  0  0  0  0  0
   45.1465   35.7350   43.4779 C   0  0  0  0  0  0  0  0  0  0  0  0
   46.1971   34.8734   43.1570 C   0  0  0  0  0  0  0  0  0  0  0  0
   46.5992   33.9648   44.0648 N   0  0  0  0  0  0  0  0  0  0  0  0
   46.0386   33.8419   45.2722 C   0  0  0  0  0  0  0  0  0  0  0  0
   45.0130   34.6653   45.6162 N   0  0  0  0  0  0  0  0  0  0  0  0
   45.4109   32.5531   47.3229 C   0  0  1  0  0  0  0  0  0  0  0  0
   46.4540   32.8742   46.2978 C   0  0  1  0  0  0  0  0  0  0  0  0
   46.5925   31.4739   45.6563 C   0  0  0  0  0  0  0  0  0  0  0  0
   46.3449   30.5650   46.6362 O   0  0  0  0  0  0  0  0  0  0  0  0
   45.9671   31.2174   47.8077 C   0  0  0  0  0  0  0  0  0  0  0  0
   45.2635   33.4922   48.2997 O   0  0  0  0  0  0  0  0  0  0  0  0
   46.7557   35.0261   41.8978 O   0  0  0  0  0  0  0  0  0  0  0  0
   48.5977   33.2551   41.1497 O   0  0  0  0  0  0  0  0  0  0  0  0
   48.4247   34.6953   41.6638 P   0  0  1  0  0  0  0  0  0  0  0  0
   49.0341   35.7863   40.5816 O   0  0  0  0  0  0  0  0  0  0  0  0
   49.1548   34.7684   43.1791 O   0  0  0  0  0  0  0  0  0  0  0  0
   43.7442   36.2519   45.0327 H   0  0  0  0  0  0  0  0  0  0  0  0
   44.7605   36.4867   42.8217 H   0  0  0  0  0  0  0  0  0  0  0  0
   44.4576   32.4139   46.7742 H   0  0  0  0  0  0  0  0  0  0  0  0
   47.4248   33.1191   46.7748 H   0  0  0  0  0  0  0  0  0  0  0  0
   47.6381   31.4109   45.2569 H   0  0  0  0  0  0  0  0  0  0  0  0
   45.8762   31.4180   44.8331 H   0  0  0  0  0  0  0  0  0  0  0  0
   46.8383   31.4371   48.4429 H   0  0  0  0  0  0  0  0  0  0  0  0
   45.1719   30.6550   48.3517 H   0  0  0  0  0  0  0  0  0  0  0  0
   44.5737   34.1209   48.0402 H   0  0  0  0  0  0  0  0  0  0  0  0
   48.4090   36.0102   39.8689 H   0  0  0  0  0  0  0  0  0  0  0  0
   49.1621   36.0285   43.7146 C   0  0  0  0  0  0  0  0  0  0  0  0
   48.8791   37.1013   42.8111 N   0  0  0  0  0  4  0  0  0  0  0  0
   49.4804   36.9512   41.5172 C   0  0  0  0  0  0  0  0  0  0  0  0
   48.8780   37.4259   40.7409 H   0  0  0  0  0  0  0  0  0  0  0  0
   49.3476   38.3567   43.4209 C   0  0  0  0  0  0  0  0  0  0  0  0
   48.5880   39.1417   43.4181 H   0  0  0  0  0  0  0  0  0  0  0  0
   48.3810   36.0236   44.5304 H   0  0  0  0  0  0  0  0  0  0  0  0
   50.1398   36.2728   44.1771 H   0  0  0  0  0  0  0  0  0  0  0  0
   47.8547   37.2138   42.7331 H   0  0  0  0  0  0  0  0  0  0  0  0
   49.8038   35.9119   41.3054 H   0  0  0  0  0  0  0  0  0  0  0  0
   50.4430   37.5430   41.5356 H   0  0  0  0  0  0  0  0  0  0  0  0
   50.2301   38.7560   42.8680 H   0  0  0  0  0  0  0  0  0  0  0  0
   49.7104   38.1920   44.4573 H   0  0  0  0  0  0  0  0  0  0  0  0
  1  6  2  0
  2  1  1  0
  3  2  2  0
  3  4  1  0
  4  5  2  0
  5  6  1  0
  7 11  1  0
  7 12  1  0
  8  5  1  0
  8  7  1  0
  9  8  1  0
  9 10  1  0
 10 11  1  0
 13  3  1  0
 14 15  2  0
 15 13  1  1
 15 17  1  0
 16 15  1  0
  1 18  1  0
  2 19  1  0
  7 20  1  6
  8 21  1  1
  9 22  1  0
  9 23  1  0
 11 24  1  0
 11 25  1  0
 12 26  1  0
 16 27  1  0
 28 29  1  0
 29 30  1  0
 30 31  1  0
 29 32  1  0
 32 33  1  0
 28 34  1  0
 28 35  1  0
 29 36  1  0
 30 37  1  0
 30 38  1  0
 32 39  1  0
 32 40  1  0
 17 28  1  0
M  ISO  8  18  14  19  14  20  13  21  13  22  13  23  13  24  13  25  13
M  CHG  1  29   1
M  ISO  4  26   3  27   3  31   8  33   8
M  END
>  <DihAtoms>  (1) 
14,16,27,28

>  <DihDeg>  (1) 
-60.114991470706116

$$$$
