
 OpenBabel03242510493D

 37 38  0  0  1  0  0  0  0  0999 V2000
   39.7740   30.4730   39.0460 C   0  0  1  0  0  0  0  0  0  0  0  0
   38.5690   29.6520   39.2790 C   0  0  2  0  0  0  0  0  0  0  0  0
   37.7270   29.6250   38.1210 O   0  0  0  0  0  0  0  0  0  0  0  0
   37.1830   30.9100   38.0360 C   0  0  0  0  0  0  0  0  0  0  0  0
   38.2490   31.8980   37.6060 C   0  0  1  0  0  0  0  0  0  0  0  0
   39.6370   31.3560   37.8220 C   0  0  1  0  0  0  0  0  0  0  0  0
   40.6850   29.8520   38.8800 H   0  0  0  0  0  0  0  0  0  0  0  0
   38.8240   28.5670   39.3880 H   0  0  0  0  0  0  0  0  0  0  0  0
   36.8140   31.2160   39.0410 H   0  0  0  0  0  0  0  0  0  0  0  0
   36.3340   30.8880   37.3260 H   0  0  0  0  0  0  0  0  0  0  0  0
   38.1260   32.8370   38.1660 H   0  0  0  0  0  0  0  0  0  0  0  0
   39.9260   30.8040   36.9230 H   0  0  0  0  0  0  0  0  0  0  0  0
   40.0920   31.2480   40.1790 O   0  0  0  0  0  0  0  0  0  0  0  0
   39.6340   32.1210   40.1350 H   0  0  0  0  0  0  0  0  0  0  0  0
   38.0600   32.0780   36.2230 O   0  0  0  0  0  0  0  0  0  0  0  0
   38.2310   33.0580   36.0750 H   0  0  0  0  0  0  0  0  0  0  0  0
   37.7380   30.0580   40.3570 O   0  0  0  0  0  0  0  0  0  0  0  0
   37.3030   26.8740   41.9390 C   0  0  0  0  0  0  0  0  0  0  0  0
   37.3320   27.1800   43.3140 C   0  0  0  0  0  0  0  0  0  0  0  0
   37.5050   28.5150   43.6800 C   0  0  0  0  0  0  0  0  0  0  0  0
   37.6360   29.4440   42.6990 N   0  0  0  0  0  0  0  0  0  0  0  0
   37.6050   29.1390   41.4040 C   0  0  0  0  0  0  0  0  0  0  0  0
   37.4370   27.8480   41.0150 N   0  0  0  0  0  0  0  0  0  0  0  0
   37.2310   26.4570   44.0930 H   0  0  0  0  0  0  0  0  0  0  0  0
   37.5400   28.8310   44.7070 H   0  0  0  0  0  0  0  0  0  0  0  0
   37.1200   25.4370   41.5580 C   0  0  0  0  0  0  0  0  0  0  0  0
   36.4680   24.7440   42.5320 F   0  0  0  0  0  0  0  0  0  0  0  0
   36.4530   25.3970   40.3430 F   0  0  0  0  0  0  0  0  0  0  0  0
   38.3960   24.8800   41.2870 F   0  0  0  0  0  0  0  0  0  0  0  0
   40.4940   32.4650   38.0060 O   0  0  0  0  0  0  0  0  0  0  0  0
   41.5570   32.2260   37.1350 C   0  0  0  0  0  2  0  0  0  0  0  0
   42.4500   33.3440   37.0190 N   0  0  0  0  0  4  0  0  0  0  0  0
   42.4650   33.7570   36.0490 H   0  0  0  0  0  0  0  0  0  0  0  0
   42.0210   34.3480   37.9770 C   0  0  0  0  0  2  0  0  0  0  0  0
   42.8050   35.1020   38.1930 H   0  0  0  0  0  0  0  0  0  0  0  0
   43.8160   32.9960   37.4240 C   0  0  0  0  0  2  0  0  0  0  0  0
   44.3920   33.9430   37.4560 H   0  0  0  0  0  0  0  0  0  0  0  0
  1  7  1  6  0  0  0
  1  2  1  0  0  0  0
  1 13  1  0  0  0  0
  2  8  1  1  0  0  0
  2 17  1  0  0  0  0
  3  2  1  0  0  0  0
  4  3  1  0  0  0  0
  4  9  1  0  0  0  0
  5  6  1  0  0  0  0
  5  4  1  0  0  0  0
  5 11  1  1  0  0  0
  6 12  1  6  0  0  0
  6 30  1  0  0  0  0
  6  1  1  0  0  0  0
 10  4  1  0  0  0  0
 14 13  1  0  0  0  0
 15  5  1  0  0  0  0
 16 15  1  0  0  0  0
 17 22  1  0  0  0  0
 18 19  1  0  0  0  0
 19 20  2  0  0  0  0
 19 24  1  0  0  0  0
 20 25  1  0  0  0  0
 21 20  1  0  0  0  0
 22 21  2  0  0  0  0
 23 22  1  0  0  0  0
 23 18  2  0  0  0  0
 26 18  1  0  0  0  0
 26 27  1  0  0  0  0
 28 26  1  0  0  0  0
 29 26  1  0  0  0  0
 31 30  1  0  0  0  0
 32 31  1  0  0  0  0
 32 36  1  0  0  0  0
 32 34  1  0  0  0  0
 33 32  1  0  0  0  0
 34 35  1  0  0  0  0
 36 37  1  0  0  0  0
M  END
>  <minimizedAffinity>
-5.54812288

$$$$

 OpenBabel03242510493D

 37 38  0  0  1  0  0  0  0  0999 V2000
   40.8100   31.0500   39.5660 C   0  0  1  0  0  0  0  0  0  0  0  0
   39.7180   30.5700   40.4360 C   0  0  2  0  0  0  0  0  0  0  0  0
   38.5710   31.4220   40.3470 O   0  0  0  0  0  0  0  0  0  0  0  0
   38.9460   32.6060   40.9910 C   0  0  0  0  0  0  0  0  0  0  0  0
   39.9470   33.3640   40.1420 C   0  0  1  0  0  0  0  0  0  0  0  0
   40.5910   32.4780   39.1090 C   0  0  1  0  0  0  0  0  0  0  0  0
   40.9140   30.4400   38.6390 H   0  0  0  0  0  0  0  0  0  0  0  0
   39.2960   29.5990   40.0700 H   0  0  0  0  0  0  0  0  0  0  0  0
   39.4350   32.3540   41.9590 H   0  0  0  0  0  0  0  0  0  0  0  0
   38.0360   33.2050   41.1870 H   0  0  0  0  0  0  0  0  0  0  0  0
   40.7210   33.8020   40.7890 H   0  0  0  0  0  0  0  0  0  0  0  0
   39.9650   32.4970   38.2120 H   0  0  0  0  0  0  0  0  0  0  0  0
   42.0620   30.9230   40.2000 O   0  0  0  0  0  0  0  0  0  0  0  0
   42.2700   31.7400   40.7120 H   0  0  0  0  0  0  0  0  0  0  0  0
   39.1990   34.3480   39.4680 O   0  0  0  0  0  0  0  0  0  0  0  0
   39.7990   35.1560   39.4660 H   0  0  0  0  0  0  0  0  0  0  0  0
   40.0230   30.4670   41.8200 O   0  0  0  0  0  0  0  0  0  0  0  0
   38.2240   27.5220   42.7810 C   0  0  0  0  0  0  0  0  0  0  0  0
   39.1870   26.7540   43.4650 C   0  0  0  0  0  0  0  0  0  0  0  0
   40.4730   27.2800   43.5850 C   0  0  0  0  0  0  0  0  0  0  0  0
   40.7290   28.4970   43.0420 N   0  0  0  0  0  0  0  0  0  0  0  0
   39.8080   29.2120   42.4000 C   0  0  0  0  0  0  0  0  0  0  0  0
   38.5460   28.7270   42.2650 N   0  0  0  0  0  0  0  0  0  0  0  0
   38.9960   25.7960   43.8950 H   0  0  0  0  0  0  0  0  0  0  0  0
   41.2650   26.7570   44.0910 H   0  0  0  0  0  0  0  0  0  0  0  0
   36.8470   26.9460   42.6550 C   0  0  0  0  0  0  0  0  0  0  0  0
   36.0440   27.3490   43.6760 F   0  0  0  0  0  0  0  0  0  0  0  0
   36.3450   27.3040   41.4120 F   0  0  0  0  0  0  0  0  0  0  0  0
   36.9570   25.5330   42.6040 F   0  0  0  0  0  0  0  0  0  0  0  0
   41.8630   33.0280   38.8230 O   0  0  0  0  0  0  0  0  0  0  0  0
   41.8740   33.1640   37.4350 C   0  0  0  0  0  2  0  0  0  0  0  0
   43.1450   32.8440   36.8500 N   0  0  0  0  0  4  0  0  0  0  0  0
   43.2710   33.2600   35.8890 H   0  0  0  0  0  0  0  0  0  0  0  0
   44.1760   33.3450   37.7430 C   0  0  0  0  0  2  0  0  0  0  0  0
   45.1690   32.8880   37.5560 H   0  0  0  0  0  0  0  0  0  0  0  0
   43.3690   31.3960   36.7900 C   0  0  0  0  0  2  0  0  0  0  0  0
   44.4230   31.2480   36.4790 H   0  0  0  0  0  0  0  0  0  0  0  0
  1  7  1  6  0  0  0
  1 13  1  0  0  0  0
  1  2  1  0  0  0  0
  2  8  1  6  0  0  0
  2 17  1  0  0  0  0
  3  2  1  0  0  0  0
  3  4  1  0  0  0  0
  4 10  1  0  0  0  0
  4  9  1  0  0  0  0
  5 11  1  1  0  0  0
  5  4  1  0  0  0  0
  6 12  1  6  0  0  0
  6  1  1  0  0  0  0
  6  5  1  0  0  0  0
 13 14  1  0  0  0  0
 15  5  1  0  0  0  0
 16 15  1  0  0  0  0
 17 22  1  0  0  0  0
 18 19  1  0  0  0  0
 19 20  2  0  0  0  0
 19 24  1  0  0  0  0
 20 25  1  0  0  0  0
 21 20  1  0  0  0  0
 22 21  2  0  0  0  0
 23 22  1  0  0  0  0
 23 18  2  0  0  0  0
 26 18  1  0  0  0  0
 26 27  1  0  0  0  0
 28 26  1  0  0  0  0
 29 26  1  0  0  0  0
 30  6  1  0  0  0  0
 31 30  1  0  0  0  0
 32 31  1  0  0  0  0
 32 34  1  0  0  0  0
 33 32  1  0  0  0  0
 35 34  1  0  0  0  0
 36 32  1  0  0  0  0
 37 36  1  0  0  0  0
M  END
>  <minimizedAffinity>
-5.34336662

$$$$

 OpenBabel03242510493D

 37 38  0  0  1  0  0  0  0  0999 V2000
   39.7110   31.4730   40.4270 C   0  0  1  0  0  0  0  0  0  0  0  0
   38.7240   30.3750   40.4110 C   0  0  2  0  0  0  0  0  0  0  0  0
   37.6010   30.6980   39.5840 O   0  0  0  0  0  0  0  0  0  0  0  0
   36.9080   31.6900   40.2830 C   0  0  0  0  0  0  0  0  0  0  0  0
   37.6870   32.9900   40.2490 C   0  0  1  0  0  0  0  0  0  0  0  0
   39.1330   32.7690   39.8940 C   0  0  1  0  0  0  0  0  0  0  0  0
   40.6060   31.2500   39.7990 H   0  0  0  0  0  0  0  0  0  0  0  0
   39.1260   29.4680   39.8880 H   0  0  0  0  0  0  0  0  0  0  0  0
   36.8020   31.3800   41.3470 H   0  0  0  0  0  0  0  0  0  0  0  0
   35.9030   31.8030   39.8340 H   0  0  0  0  0  0  0  0  0  0  0  0
   37.6180   33.4870   41.2280 H   0  0  0  0  0  0  0  0  0  0  0  0
   39.2210   32.8020   38.8040 H   0  0  0  0  0  0  0  0  0  0  0  0
   40.2410   31.6660   41.7190 O   0  0  0  0  0  0  0  0  0  0  0  0
   39.6900   32.3110   42.2210 H   0  0  0  0  0  0  0  0  0  0  0  0
   37.0980   33.7550   39.2240 O   0  0  0  0  0  0  0  0  0  0  0  0
   37.1050   34.6950   39.5830 H   0  0  0  0  0  0  0  0  0  0  0  0
   38.1880   30.0010   41.6720 O   0  0  0  0  0  0  0  0  0  0  0  0
   38.2040   26.4820   42.3450 C   0  0  0  0  0  0  0  0  0  0  0  0
   39.3690   26.2970   43.1140 C   0  0  0  0  0  0  0  0  0  0  0  0
   40.1480   27.4200   43.3950 C   0  0  0  0  0  0  0  0  0  0  0  0
   39.7460   28.6240   42.9160 N   0  0  0  0  0  0  0  0  0  0  0  0
   38.6420   28.7830   42.1910 C   0  0  0  0  0  0  0  0  0  0  0  0
   37.8610   27.7100   41.8990 N   0  0  0  0  0  0  0  0  0  0  0  0
   39.6950   25.3550   43.4960 H   0  0  0  0  0  0  0  0  0  0  0  0
   41.0520   27.3630   43.9750 H   0  0  0  0  0  0  0  0  0  0  0  0
   37.3770   25.2690   42.0460 C   0  0  0  0  0  0  0  0  0  0  0  0
   36.3280   25.1600   42.9050 F   0  0  0  0  0  0  0  0  0  0  0  0
   36.9720   25.3420   40.7210 F   0  0  0  0  0  0  0  0  0  0  0  0
   38.2190   24.1290   42.1030 F   0  0  0  0  0  0  0  0  0  0  0  0
   39.8720   33.8270   40.4720 O   0  0  0  0  0  0  0  0  0  0  0  0
   40.8530   34.1190   39.5240 C   0  0  0  0  0  2  0  0  0  0  0  0
   42.1570   33.6540   39.9050 N   0  0  0  0  0  4  0  0  0  0  0  0
   42.1900   32.6130   40.0640 H   0  0  0  0  0  0  0  0  0  0  0  0
   43.0790   34.0210   38.8440 C   0  0  0  0  0  2  0  0  0  0  0  0
   44.1400   33.9940   39.1670 H   0  0  0  0  0  0  0  0  0  0  0  0
   42.6570   34.3480   41.0960 C   0  0  0  0  0  2  0  0  0  0  0  0
   43.7160   34.0460   41.2210 H   0  0  0  0  0  0  0  0  0  0  0  0
  1  7  1  6  0  0  0
  1 13  1  0  0  0  0
  2  8  1  6  0  0  0
  2  1  1  0  0  0  0
  2 17  1  0  0  0  0
  3  4  1  0  0  0  0
  3  2  1  0  0  0  0
  4  9  1  0  0  0  0
  5  4  1  0  0  0  0
  5 11  1  1  0  0  0
  6 12  1  6  0  0  0
  6  5  1  0  0  0  0
  6  1  1  0  0  0  0
  6 30  1  0  0  0  0
 10  4  1  0  0  0  0
 13 14  1  0  0  0  0
 15 16  1  0  0  0  0
 15  5  1  0  0  0  0
 17 22  1  0  0  0  0
 18 19  1  0  0  0  0
 19 20  2  0  0  0  0
 19 24  1  0  0  0  0
 20 25  1  0  0  0  0
 21 20  1  0  0  0  0
 22 21  2  0  0  0  0
 23 22  1  0  0  0  0
 23 18  2  0  0  0  0
 26 29  1  0  0  0  0
 26 18  1  0  0  0  0
 26 27  1  0  0  0  0
 28 26  1  0  0  0  0
 31 32  1  0  0  0  0
 31 30  1  0  0  0  0
 32 33  1  0  0  0  0
 32 36  1  0  0  0  0
 34 35  1  0  0  0  0
 34 32  1  0  0  0  0
 36 37  1  0  0  0  0
M  END
>  <minimizedAffinity>
-5.20812559

$$$$

 OpenBabel03242510493D

 37 38  0  0  1  0  0  0  0  0999 V2000
   39.1050   30.3600   40.7770 C   0  0  1  0  0  0  0  0  0  0  0  0
   39.2150   31.7010   40.1680 C   0  0  2  0  0  0  0  0  0  0  0  0
   38.1450   32.5530   40.5900 O   0  0  0  0  0  0  0  0  0  0  0  0
   37.0060   32.0460   39.9550 C   0  0  0  0  0  0  0  0  0  0  0  0
   36.6040   30.7280   40.5860 C   0  0  1  0  0  0  0  0  0  0  0  0
   37.7320   30.1120   41.3690 C   0  0  1  0  0  0  0  0  0  0  0  0
   39.8340   30.2100   41.6080 H   0  0  0  0  0  0  0  0  0  0  0  0
   40.1050   32.2590   40.5590 H   0  0  0  0  0  0  0  0  0  0  0  0
   37.2390   31.8590   38.8830 H   0  0  0  0  0  0  0  0  0  0  0  0
   36.1970   32.7990   40.0280 H   0  0  0  0  0  0  0  0  0  0  0  0
   36.2740   30.0310   39.8010 H   0  0  0  0  0  0  0  0  0  0  0  0
   37.6850   30.5020   42.3900 H   0  0  0  0  0  0  0  0  0  0  0  0
   39.4310   29.3490   39.8510 O   0  0  0  0  0  0  0  0  0  0  0  0
   38.6250   29.0630   39.3600 H   0  0  0  0  0  0  0  0  0  0  0  0
   35.5670   31.0410   41.4850 O   0  0  0  0  0  0  0  0  0  0  0  0
   34.9220   30.2740   41.3960 H   0  0  0  0  0  0  0  0  0  0  0  0
   39.2130   31.7420   38.7480 O   0  0  0  0  0  0  0  0  0  0  0  0
   42.1810   30.9420   36.9090 C   0  0  0  0  0  0  0  0  0  0  0  0
   42.8930   32.1560   36.8840 C   0  0  0  0  0  0  0  0  0  0  0  0
   42.3220   33.2580   37.5200 C   0  0  0  0  0  0  0  0  0  0  0  0
   41.1170   33.1050   38.1260 N   0  0  0  0  0  0  0  0  0  0  0  0
   40.4560   31.9500   38.1420 C   0  0  0  0  0  0  0  0  0  0  0  0
   40.9860   30.8570   37.5310 N   0  0  0  0  0  0  0  0  0  0  0  0
   43.8410   32.2880   36.4110 H   0  0  0  0  0  0  0  0  0  0  0  0
   42.8010   34.2210   37.5460 H   0  0  0  0  0  0  0  0  0  0  0  0
   42.8020   29.7660   36.2200 C   0  0  0  0  0  0  0  0  0  0  0  0
   43.2160   30.0880   34.9640 F   0  0  0  0  0  0  0  0  0  0  0  0
   43.8390   29.3010   37.0150 F   0  0  0  0  0  0  0  0  0  0  0  0
   41.8590   28.7070   36.2030 F   0  0  0  0  0  0  0  0  0  0  0  0
   37.5230   28.7130   41.3730 O   0  0  0  0  0  0  0  0  0  0  0  0
   37.5700   28.3630   42.7230 C   0  0  0  0  0  2  0  0  0  0  0  0
   38.4080   27.2270   42.9790 N   0  0  0  0  0  4  0  0  0  0  0  0
   38.0450   26.6180   43.7590 H   0  0  0  0  0  0  0  0  0  0  0  0
   38.4900   26.4580   41.7490 C   0  0  0  0  0  2  0  0  0  0  0  0
   39.3440   25.7500   41.7400 H   0  0  0  0  0  0  0  0  0  0  0  0
   39.7900   27.6230   43.2700 C   0  0  0  0  0  2  0  0  0  0  0  0
   40.3910   26.6920   43.2950 H   0  0  0  0  0  0  0  0  0  0  0  0
  1  6  1  0  0  0  0
  1  7  1  1  0  0  0
  2  8  1  1  0  0  0
  2  3  1  0  0  0  0
  2  1  1  0  0  0  0
  4 10  1  0  0  0  0
  4  5  1  0  0  0  0
  4  3  1  0  0  0  0
  5 11  1  6  0  0  0
  5  6  1  0  0  0  0
  5 15  1  0  0  0  0
  6 30  1  0  0  0  0
  6 12  1  1  0  0  0
  9  4  1  0  0  0  0
 13  1  1  0  0  0  0
 14 13  1  0  0  0  0
 16 15  1  0  0  0  0
 17  2  1  0  0  0  0
 18 23  1  0  0  0  0
 19 18  2  0  0  0  0
 19 20  1  0  0  0  0
 20 25  1  0  0  0  0
 20 21  2  0  0  0  0
 21 22  1  0  0  0  0
 22 17  1  0  0  0  0
 23 22  2  0  0  0  0
 24 19  1  0  0  0  0
 26 18  1  0  0  0  0
 26 28  1  0  0  0  0
 27 26  1  0  0  0  0
 29 26  1  0  0  0  0
 30 31  1  0  0  0  0
 31 32  1  0  0  0  0
 32 36  1  0  0  0  0
 32 33  1  0  0  0  0
 34 32  1  0  0  0  0
 35 34  1  0  0  0  0
 36 37  1  0  0  0  0
M  END
>  <minimizedAffinity>
-5.17539406

$$$$

 OpenBabel03242510493D

 37 38  0  0  1  0  0  0  0  0999 V2000
   37.5050   29.5400   39.2810 C   0  0  1  0  0  0  0  0  0  0  0  0
   37.4530   29.8230   40.7300 C   0  0  2  0  0  0  0  0  0  0  0  0
   36.8980   31.1180   40.9860 O   0  0  0  0  0  0  0  0  0  0  0  0
   37.8740   32.0230   40.5560 C   0  0  0  0  0  0  0  0  0  0  0  0
   37.9470   32.0260   39.0420 C   0  0  1  0  0  0  0  0  0  0  0  0
   37.3210   30.7920   38.4480 C   0  0  1  0  0  0  0  0  0  0  0  0
   36.7070   28.8320   38.9580 H   0  0  0  0  0  0  0  0  0  0  0  0
   36.7140   29.1620   41.2520 H   0  0  0  0  0  0  0  0  0  0  0  0
   38.8650   31.7040   40.9500 H   0  0  0  0  0  0  0  0  0  0  0  0
   37.6260   33.0250   40.9570 H   0  0  0  0  0  0  0  0  0  0  0  0
   38.9990   32.0970   38.7260 H   0  0  0  0  0  0  0  0  0  0  0  0
   36.2570   30.9940   38.2970 H   0  0  0  0  0  0  0  0  0  0  0  0
   38.7030   28.8870   38.9300 O   0  0  0  0  0  0  0  0  0  0  0  0
   39.4000   29.5480   38.7060 H   0  0  0  0  0  0  0  0  0  0  0  0
   37.1930   33.1400   38.6310 O   0  0  0  0  0  0  0  0  0  0  0  0
   37.7110   33.5170   37.8540 H   0  0  0  0  0  0  0  0  0  0  0  0
   38.6960   29.7860   41.4170 O   0  0  0  0  0  0  0  0  0  0  0  0
   38.3500   26.3550   42.3880 C   0  0  0  0  0  0  0  0  0  0  0  0
   39.3850   26.1690   43.3240 C   0  0  0  0  0  0  0  0  0  0  0  0
   40.2060   27.2600   43.6110 C   0  0  0  0  0  0  0  0  0  0  0  0
   39.9650   28.4370   42.9790 N   0  0  0  0  0  0  0  0  0  0  0  0
   38.9820   28.5970   42.0970 C   0  0  0  0  0  0  0  0  0  0  0  0
   38.1650   27.5540   41.7940 N   0  0  0  0  0  0  0  0  0  0  0  0
   39.5840   25.2490   43.8270 H   0  0  0  0  0  0  0  0  0  0  0  0
   41.0180   27.2010   44.3130 H   0  0  0  0  0  0  0  0  0  0  0  0
   37.4780   25.1760   42.0840 C   0  0  0  0  0  0  0  0  0  0  0  0
   38.1340   24.0040   42.3030 F   0  0  0  0  0  0  0  0  0  0  0  0
   36.3240   25.2870   42.8460 F   0  0  0  0  0  0  0  0  0  0  0  0
   37.0330   25.2820   40.7410 F   0  0  0  0  0  0  0  0  0  0  0  0
   37.9520   30.5640   37.2020 O   0  0  0  0  0  0  0  0  0  0  0  0
   36.9250   30.1040   36.3770 C   0  0  0  0  0  2  0  0  0  0  0  0
   37.3980   29.2960   35.2890 N   0  0  0  0  0  4  0  0  0  0  0  0
   38.3400   29.6050   34.9290 H   0  0  0  0  0  0  0  0  0  0  0  0
   37.4750   27.9250   35.7640 C   0  0  0  0  0  2  0  0  0  0  0  0
   37.5240   27.1850   34.9400 H   0  0  0  0  0  0  0  0  0  0  0  0
   36.4390   29.2580   34.1800 C   0  0  0  0  0  2  0  0  0  0  0  0
   36.8070   28.4950   33.4650 H   0  0  0  0  0  0  0  0  0  0  0  0
  1  7  1  6  0  0  0
  1  2  1  0  0  0  0
  2  3  1  0  0  0  0
  2  8  1  1  0  0  0
  2 17  1  0  0  0  0
  4  9  1  0  0  0  0
  4 10  1  0  0  0  0
  4  3  1  0  0  0  0
  5 11  1  6  0  0  0
  5  4  1  0  0  0  0
  6 12  1  6  0  0  0
  6  5  1  0  0  0  0
  6  1  1  0  0  0  0
 13  1  1  0  0  0  0
 14 13  1  0  0  0  0
 15  5  1  0  0  0  0
 16 15  1  0  0  0  0
 17 22  1  0  0  0  0
 18 19  1  0  0  0  0
 19 20  2  0  0  0  0
 19 24  1  0  0  0  0
 20 25  1  0  0  0  0
 21 20  1  0  0  0  0
 22 21  2  0  0  0  0
 23 22  1  0  0  0  0
 23 18  2  0  0  0  0
 26 27  1  0  0  0  0
 26 18  1  0  0  0  0
 26 28  1  0  0  0  0
 29 26  1  0  0  0  0
 30  6  1  0  0  0  0
 31 30  1  0  0  0  0
 32 34  1  0  0  0  0
 32 31  1  0  0  0  0
 33 32  1  0  0  0  0
 35 34  1  0  0  0  0
 36 32  1  0  0  0  0
 37 36  1  0  0  0  0
M  END
>  <minimizedAffinity>
-5.11011553

$$$$

 OpenBabel03242510493D

 37 38  0  0  1  0  0  0  0  0999 V2000
   38.6440   30.4010   38.9380 C   0  0  1  0  0  0  0  0  0  0  0  0
   37.6860   29.5590   39.6810 C   0  0  2  0  0  0  0  0  0  0  0  0
   36.4630   30.2600   39.9300 O   0  0  0  0  0  0  0  0  0  0  0  0
   36.7880   31.2290   40.8860 C   0  0  0  0  0  0  0  0  0  0  0  0
   37.6330   32.3180   40.2540 C   0  0  1  0  0  0  0  0  0  0  0  0
   38.2560   31.8650   38.9600 C   0  0  1  0  0  0  0  0  0  0  0  0
   38.7170   30.1150   37.8620 H   0  0  0  0  0  0  0  0  0  0  0  0
   37.3210   28.7020   39.0580 H   0  0  0  0  0  0  0  0  0  0  0  0
   37.3860   30.7550   41.6960 H   0  0  0  0  0  0  0  0  0  0  0  0
   35.8500   31.6330   41.3120 H   0  0  0  0  0  0  0  0  0  0  0  0
   38.4200   32.6260   40.9570 H   0  0  0  0  0  0  0  0  0  0  0  0
   37.5500   32.0820   38.1530 H   0  0  0  0  0  0  0  0  0  0  0  0
   39.9570   30.2330   39.4240 O   0  0  0  0  0  0  0  0  0  0  0  0
   40.1360   30.8750   40.1500 H   0  0  0  0  0  0  0  0  0  0  0  0
   36.7400   33.3670   39.9660 O   0  0  0  0  0  0  0  0  0  0  0  0
   37.2620   34.2010   40.1780 H   0  0  0  0  0  0  0  0  0  0  0  0
   38.1270   29.0780   40.9430 O   0  0  0  0  0  0  0  0  0  0  0  0
   37.9780   25.5060   41.1680 C   0  0  0  0  0  0  0  0  0  0  0  0
   39.3210   25.1090   41.0230 C   0  0  0  0  0  0  0  0  0  0  0  0
   40.2800   26.1070   40.8470 C   0  0  0  0  0  0  0  0  0  0  0  0
   39.8720   27.4010   40.8240 N   0  0  0  0  0  0  0  0  0  0  0  0
   38.5980   27.7610   40.9630 C   0  0  0  0  0  0  0  0  0  0  0  0
   37.6400   26.8130   41.1360 N   0  0  0  0  0  0  0  0  0  0  0  0
   39.6530   24.0940   41.0390 H   0  0  0  0  0  0  0  0  0  0  0  0
   41.3260   25.8870   40.7280 H   0  0  0  0  0  0  0  0  0  0  0  0
   36.9570   24.4250   41.3520 C   0  0  0  0  0  0  0  0  0  0  0  0
   36.0460   24.4260   40.3420 F   0  0  0  0  0  0  0  0  0  0  0  0
   37.6280   23.2160   41.4600 F   0  0  0  0  0  0  0  0  0  0  0  0
   36.3370   24.6070   42.6150 F   0  0  0  0  0  0  0  0  0  0  0  0
   39.4400   32.6170   38.7830 O   0  0  0  0  0  0  0  0  0  0  0  0
   39.5510   33.3660   39.9550 C   0  0  0  0  0  2  0  0  0  0  0  0
   40.8230   34.0190   40.0860 N   0  0  0  0  0  4  0  0  0  0  0  0
   40.7540   34.9590   40.5570 H   0  0  0  0  0  0  0  0  0  0  0  0
   41.6880   33.1410   40.8560 C   0  0  0  0  0  2  0  0  0  0  0  0
   42.7620   33.3940   40.7510 H   0  0  0  0  0  0  0  0  0  0  0  0
   41.4950   34.1680   38.7900 C   0  0  0  0  0  2  0  0  0  0  0  0
   42.5210   34.5290   39.0020 H   0  0  0  0  0  0  0  0  0  0  0  0
  1  7  1  6  0  0  0
  1  6  1  0  0  0  0
  1 13  1  0  0  0  0
  1  2  1  0  0  0  0
  2  8  1  6  0  0  0
  2  3  1  0  0  0  0
  2 17  1  0  0  0  0
  3  4  1  0  0  0  0
  4 10  1  0  0  0  0
  4  9  1  0  0  0  0
  5  4  1  0  0  0  0
  5 11  1  1  0  0  0
  6 12  1  6  0  0  0
  6  5  1  0  0  0  0
 13 14  1  0  0  0  0
 15 16  1  0  0  0  0
 15  5  1  0  0  0  0
 17 22  1  0  0  0  0
 18 26  1  0  0  0  0
 19 24  1  0  0  0  0
 19 18  2  0  0  0  0
 20 19  1  0  0  0  0
 21 20  2  0  0  0  0
 21 22  1  0  0  0  0
 22 23  2  0  0  0  0
 23 18  1  0  0  0  0
 25 20  1  0  0  0  0
 26 28  1  0  0  0  0
 26 29  1  0  0  0  0
 27 26  1  0  0  0  0
 30  6  1  0  0  0  0
 30 31  1  0  0  0  0
 31 32  1  0  0  0  0
 32 33  1  0  0  0  0
 32 34  1  0  0  0  0
 35 34  1  0  0  0  0
 36 37  1  0  0  0  0
 36 32  1  0  0  0  0
M  END
>  <minimizedAffinity>
-5.06069422

$$$$

 OpenBabel03242510493D

 37 38  0  0  1  0  0  0  0  0999 V2000
   38.7260   30.7710   38.9940 C   0  0  1  0  0  0  0  0  0  0  0  0
   37.9610   30.7480   40.2570 C   0  0  2  0  0  0  0  0  0  0  0  0
   37.5690   32.0680   40.6510 O   0  0  0  0  0  0  0  0  0  0  0  0
   38.7540   32.6950   41.0500 C   0  0  0  0  0  0  0  0  0  0  0  0
   39.6190   32.9890   39.8400 C   0  0  1  0  0  0  0  0  0  0  0  0
   39.2160   32.1630   38.6480 C   0  0  1  0  0  0  0  0  0  0  0  0
   38.1200   30.4300   38.1230 H   0  0  0  0  0  0  0  0  0  0  0  0
   36.9630   30.2560   40.1240 H   0  0  0  0  0  0  0  0  0  0  0  0
   39.3210   32.0090   41.7200 H   0  0  0  0  0  0  0  0  0  0  0  0
   38.4970   33.6170   41.6040 H   0  0  0  0  0  0  0  0  0  0  0  0
   40.6730   32.7950   40.0860 H   0  0  0  0  0  0  0  0  0  0  0  0
   38.4410   32.7130   38.1040 H   0  0  0  0  0  0  0  0  0  0  0  0
   39.8060   29.8660   39.0340 O   0  0  0  0  0  0  0  0  0  0  0  0
   40.6100   30.3100   39.3930 H   0  0  0  0  0  0  0  0  0  0  0  0
   39.3870   34.3430   39.5330 O   0  0  0  0  0  0  0  0  0  0  0  0
   40.2900   34.6930   39.2590 H   0  0  0  0  0  0  0  0  0  0  0  0
   38.6260   30.1850   41.3780 O   0  0  0  0  0  0  0  0  0  0  0  0
   37.4630   26.8080   41.6550 C   0  0  0  0  0  0  0  0  0  0  0  0
   36.8520   26.7710   42.9230 C   0  0  0  0  0  0  0  0  0  0  0  0
   36.8510   27.9430   43.6800 C   0  0  0  0  0  0  0  0  0  0  0  0
   37.4350   29.0510   43.1590 N   0  0  0  0  0  0  0  0  0  0  0  0
   38.0080   29.0710   41.9570 C   0  0  0  0  0  0  0  0  0  0  0  0
   38.0260   27.9460   41.1950 N   0  0  0  0  0  0  0  0  0  0  0  0
   36.3900   25.9050   43.3430 H   0  0  0  0  0  0  0  0  0  0  0  0
   36.4070   27.9970   44.6570 H   0  0  0  0  0  0  0  0  0  0  0  0
   37.4620   25.5430   40.8530 C   0  0  0  0  0  0  0  0  0  0  0  0
   38.7260   25.0880   40.6410 F   0  0  0  0  0  0  0  0  0  0  0  0
   36.6690   24.6160   41.5150 F   0  0  0  0  0  0  0  0  0  0  0  0
   36.7840   25.7880   39.6310 F   0  0  0  0  0  0  0  0  0  0  0  0
   40.3640   32.0150   37.8360 O   0  0  0  0  0  0  0  0  0  0  0  0
   41.4210   32.4010   38.6610 C   0  0  0  0  0  2  0  0  0  0  0  0
   42.6590   32.5560   37.9520 N   0  0  0  0  0  4  0  0  0  0  0  0
   43.5030   32.3760   38.5570 H   0  0  0  0  0  0  0  0  0  0  0  0
   42.6430   31.6250   36.8370 C   0  0  0  0  0  2  0  0  0  0  0  0
   43.3910   31.8740   36.0560 H   0  0  0  0  0  0  0  0  0  0  0  0
   42.7730   33.8810   37.3350 C   0  0  0  0  0  2  0  0  0  0  0  0
   43.6700   33.8560   36.6850 H   0  0  0  0  0  0  0  0  0  0  0  0
  1  7  1  6  0  0  0
  1 13  1  0  0  0  0
  1  2  1  0  0  0  0
  2  8  1  6  0  0  0
  2  3  1  0  0  0  0
  2 17  1  0  0  0  0
  3  4  1  0  0  0  0
  4 10  1  0  0  0  0
  4  9  1  0  0  0  0
  5 11  1  1  0  0  0
  5  4  1  0  0  0  0
  6 12  1  6  0  0  0
  6  1  1  0  0  0  0
  6  5  1  0  0  0  0
 13 14  1  0  0  0  0
 15  5  1  0  0  0  0
 16 15  1  0  0  0  0
 17 22  1  0  0  0  0
 18 19  1  0  0  0  0
 19 24  1  0  0  0  0
 19 20  2  0  0  0  0
 20 25  1  0  0  0  0
 21 20  1  0  0  0  0
 22 21  2  0  0  0  0
 23 18  2  0  0  0  0
 23 22  1  0  0  0  0
 26 28  1  0  0  0  0
 26 18  1  0  0  0  0
 27 26  1  0  0  0  0
 29 26  1  0  0  0  0
 30  6  1  0  0  0  0
 30 31  1  0  0  0  0
 32 33  1  0  0  0  0
 32 31  1  0  0  0  0
 34 32  1  0  0  0  0
 35 34  1  0  0  0  0
 36 32  1  0  0  0  0
 37 36  1  0  0  0  0
M  END
>  <minimizedAffinity>
-4.94162369

$$$$

 OpenBabel03242510493D

 37 38  0  0  1  0  0  0  0  0999 V2000
   41.1440   30.6520   37.7840 C   0  0  1  0  0  0  0  0  0  0  0  0
   40.1440   31.2930   38.6620 C   0  0  2  0  0  0  0  0  0  0  0  0
   39.8990   32.6480   38.2670 O   0  0  0  0  0  0  0  0  0  0  0  0
   41.0640   33.3420   38.6110 C   0  0  0  0  0  0  0  0  0  0  0  0
   42.1930   32.9590   37.6750 C   0  0  1  0  0  0  0  0  0  0  0  0
   41.9120   31.6650   36.9590 C   0  0  1  0  0  0  0  0  0  0  0  0
   40.6810   29.9460   37.0570 H   0  0  0  0  0  0  0  0  0  0  0  0
   39.1280   30.8410   38.5270 H   0  0  0  0  0  0  0  0  0  0  0  0
   41.3630   33.0610   39.6460 H   0  0  0  0  0  0  0  0  0  0  0  0
   40.8510   34.4280   38.5750 H   0  0  0  0  0  0  0  0  0  0  0  0
   43.1290   32.8720   38.2450 H   0  0  0  0  0  0  0  0  0  0  0  0
   41.3640   31.9000   36.0420 H   0  0  0  0  0  0  0  0  0  0  0  0
   42.0320   29.8460   38.5240 O   0  0  0  0  0  0  0  0  0  0  0  0
   42.8070   30.3770   38.8230 H   0  0  0  0  0  0  0  0  0  0  0  0
   42.2500   33.9860   36.7150 O   0  0  0  0  0  0  0  0  0  0  0  0
   43.2350   34.1160   36.5510 H   0  0  0  0  0  0  0  0  0  0  0  0
   40.4670   31.3390   40.0440 O   0  0  0  0  0  0  0  0  0  0  0  0
   37.4460   29.7240   41.0930 C   0  0  0  0  0  0  0  0  0  0  0  0
   37.7230   29.3300   42.4160 C   0  0  0  0  0  0  0  0  0  0  0  0
   38.9800   29.6370   42.9360 C   0  0  0  0  0  0  0  0  0  0  0  0
   39.8660   30.2960   42.1470 N   0  0  0  0  0  0  0  0  0  0  0  0
   39.5880   30.6630   40.8980 C   0  0  0  0  0  0  0  0  0  0  0  0
   38.3730   30.3790   40.3610 N   0  0  0  0  0  0  0  0  0  0  0  0
   37.0340   28.8100   43.0450 H   0  0  0  0  0  0  0  0  0  0  0  0
   39.2700   29.3690   43.9370 H   0  0  0  0  0  0  0  0  0  0  0  0
   36.0940   29.3860   40.5420 C   0  0  0  0  0  0  0  0  0  0  0  0
   35.3450   30.5040   40.3440 F   0  0  0  0  0  0  0  0  0  0  0  0
   36.2760   28.6570   39.3760 F   0  0  0  0  0  0  0  0  0  0  0  0
   35.4610   28.4840   41.4350 F   0  0  0  0  0  0  0  0  0  0  0  0
   43.1630   31.0850   36.6400 O   0  0  0  0  0  0  0  0  0  0  0  0
   44.0760   31.7840   37.4310 C   0  0  0  0  0  2  0  0  0  0  0  0
   45.4170   31.7270   36.9220 N   0  0  0  0  0  4  0  0  0  0  0  0
   46.0830   31.2360   37.5750 H   0  0  0  0  0  0  0  0  0  0  0  0
   45.3720   31.0310   35.6470 C   0  0  0  0  0  2  0  0  0  0  0  0
   46.2770   31.2030   35.0290 H   0  0  0  0  0  0  0  0  0  0  0  0
   45.9370   33.0610   36.6040 C   0  0  0  0  0  2  0  0  0  0  0  0
   46.9000   32.9120   36.0750 H   0  0  0  0  0  0  0  0  0  0  0  0
  1  7  1  6  0  0  0
  1 13  1  0  0  0  0
  1  2  1  0  0  0  0
  2  8  1  6  0  0  0
  2 17  1  0  0  0  0
  3  4  1  0  0  0  0
  3  2  1  0  0  0  0
  4  9  1  0  0  0  0
  5 11  1  1  0  0  0
  5  4  1  0  0  0  0
  6 12  1  6  0  0  0
  6  5  1  0  0  0  0
  6  1  1  0  0  0  0
 10  4  1  0  0  0  0
 13 14  1  0  0  0  0
 15  5  1  0  0  0  0
 16 15  1  0  0  0  0
 17 22  1  0  0  0  0
 18 19  1  0  0  0  0
 19 20  2  0  0  0  0
 19 24  1  0  0  0  0
 20 25  1  0  0  0  0
 21 20  1  0  0  0  0
 22 21  2  0  0  0  0
 23 22  1  0  0  0  0
 23 18  2  0  0  0  0
 26 18  1  0  0  0  0
 26 29  1  0  0  0  0
 27 26  1  0  0  0  0
 28 26  1  0  0  0  0
 30  6  1  0  0  0  0
 30 31  1  0  0  0  0
 32 31  1  0  0  0  0
 32 33  1  0  0  0  0
 34 32  1  0  0  0  0
 35 34  1  0  0  0  0
 36 32  1  0  0  0  0
 37 36  1  0  0  0  0
M  END
>  <minimizedAffinity>
-4.91648769

$$$$

 OpenBabel03242510493D

 37 38  0  0  1  0  0  0  0  0999 V2000
   36.8630   29.8250   38.4740 C   0  0  1  0  0  0  0  0  0  0  0  0
   37.3430   30.4540   39.7210 C   0  0  2  0  0  0  0  0  0  0  0  0
   37.8440   31.7740   39.4770 O   0  0  0  0  0  0  0  0  0  0  0  0
   39.0400   31.5850   38.7770 C   0  0  0  0  0  0  0  0  0  0  0  0
   38.7480   31.1110   37.3670 C   0  0  1  0  0  0  0  0  0  0  0  0
   37.3550   30.5540   37.2400 C   0  0  1  0  0  0  0  0  0  0  0  0
   35.7510   29.8120   38.4050 H   0  0  0  0  0  0  0  0  0  0  0  0
   36.4980   30.6700   40.4250 H   0  0  0  0  0  0  0  0  0  0  0  0
   39.6400   30.7980   39.2880 H   0  0  0  0  0  0  0  0  0  0  0  0
   39.6060   32.5360   38.7820 H   0  0  0  0  0  0  0  0  0  0  0  0
   39.4820   30.3450   37.0770 H   0  0  0  0  0  0  0  0  0  0  0  0
   36.6820   31.3810   36.9960 H   0  0  0  0  0  0  0  0  0  0  0  0
   37.2240   28.4630   38.4180 O   0  0  0  0  0  0  0  0  0  0  0  0
   38.1070   28.3610   37.9910 H   0  0  0  0  0  0  0  0  0  0  0  0
   38.8330   32.2610   36.5590 O   0  0  0  0  0  0  0  0  0  0  0  0
   39.2750   31.9370   35.7150 H   0  0  0  0  0  0  0  0  0  0  0  0
   38.3760   29.7640   40.4100 O   0  0  0  0  0  0  0  0  0  0  0  0
   37.4850   26.7270   42.0870 C   0  0  0  0  0  0  0  0  0  0  0  0
   37.1700   27.1490   43.3930 C   0  0  0  0  0  0  0  0  0  0  0  0
   37.2720   28.5100   43.6790 C   0  0  0  0  0  0  0  0  0  0  0  0
   37.6670   29.3530   42.6910 N   0  0  0  0  0  0  0  0  0  0  0  0
   37.9610   28.9380   41.4610 C   0  0  0  0  0  0  0  0  0  0  0  0
   37.8720   27.6180   41.1500 N   0  0  0  0  0  0  0  0  0  0  0  0
   36.8590   26.4950   44.1780 H   0  0  0  0  0  0  0  0  0  0  0  0
   37.0500   28.9130   44.6510 H   0  0  0  0  0  0  0  0  0  0  0  0
   37.3760   25.2620   41.7930 C   0  0  0  0  0  0  0  0  0  0  0  0
   37.1090   25.0390   40.4770 F   0  0  0  0  0  0  0  0  0  0  0  0
   38.5520   24.6520   42.2050 F   0  0  0  0  0  0  0  0  0  0  0  0
   36.3720   24.7110   42.6290 F   0  0  0  0  0  0  0  0  0  0  0  0
   37.3760   29.6180   36.1800 O   0  0  0  0  0  0  0  0  0  0  0  0
   36.1480   29.7940   35.5410 C   0  0  0  0  0  2  0  0  0  0  0  0
   35.2630   28.6770   35.7080 N   0  0  0  0  0  4  0  0  0  0  0  0
   35.0480   28.4720   36.7200 H   0  0  0  0  0  0  0  0  0  0  0  0
   34.0350   28.9800   34.9930 C   0  0  0  0  0  2  0  0  0  0  0  0
   33.4190   28.0800   34.7930 H   0  0  0  0  0  0  0  0  0  0  0  0
   35.7850   27.4660   35.0640 C   0  0  0  0  0  2  0  0  0  0  0  0
   34.9770   26.7090   35.1040 H   0  0  0  0  0  0  0  0  0  0  0  0
  1  7  1  1  0  0  0
  1  2  1  0  0  0  0
  2 17  1  0  0  0  0
  2  8  1  1  0  0  0
  3  2  1  0  0  0  0
  4 10  1  0  0  0  0
  4  9  1  0  0  0  0
  4  3  1  0  0  0  0
  5 11  1  6  0  0  0
  5  4  1  0  0  0  0
  6 12  1  6  0  0  0
  6  5  1  0  0  0  0
  6  1  1  0  0  0  0
 13  1  1  0  0  0  0
 14 13  1  0  0  0  0
 15  5  1  0  0  0  0
 16 15  1  0  0  0  0
 17 22  1  0  0  0  0
 18 19  1  0  0  0  0
 19 20  2  0  0  0  0
 19 24  1  0  0  0  0
 20 25  1  0  0  0  0
 21 20  1  0  0  0  0
 22 21  2  0  0  0  0
 23 22  1  0  0  0  0
 23 18  2  0  0  0  0
 26 18  1  0  0  0  0
 26 28  1  0  0  0  0
 26 29  1  0  0  0  0
 27 26  1  0  0  0  0
 30  6  1  0  0  0  0
 31 32  1  0  0  0  0
 31 30  1  0  0  0  0
 32 33  1  0  0  0  0
 34 32  1  0  0  0  0
 35 34  1  0  0  0  0
 36 37  1  0  0  0  0
 36 32  1  0  0  0  0
M  END
>  <minimizedAffinity>
-4.91229248

$$$$
