
 OpenBabel03252502553D

 35 36  0  0  0  0  0  0  0  0999 V2000
   45.5560   29.9420   44.7810 Br  0  0  0  0  0  0  0  0  0  0  0  0
   45.6440   30.5930   46.5990 C   0  0  0  0  0  0  0  0  0  0  0  0
   46.3470   31.7570   46.7800 C   0  0  0  0  0  0  0  0  0  0  0  0
   46.3870   32.1930   48.1060 C   0  0  0  0  0  0  0  0  0  0  0  0
   45.7820   31.5270   49.1490 C   0  0  0  0  0  0  0  0  0  0  0  0
   45.1010   30.3730   48.8830 C   0  0  0  0  0  0  0  0  0  0  0  0
   45.0190   29.8850   47.6030 C   0  0  0  0  0  0  0  0  0  0  0  0
   46.9230   33.1120   48.3430 H   0  0  0  0  0  0  0  0  0  0  0  0
   45.8510   31.9230   50.1660 H   0  0  0  0  0  0  0  0  0  0  0  0
   44.6370   29.8780   49.7380 H   0  0  0  0  0  0  0  0  0  0  0  0
   47.0260   32.5520   45.7730 C   0  0  0  0  0  0  0  0  0  0  0  0
   47.2880   31.8760   44.9170 H   0  0  0  0  0  0  0  0  0  0  0  0
   47.9970   32.9920   46.1070 H   0  0  0  0  0  0  0  0  0  0  0  0
   44.5470   35.3100   45.4070 C   0  0  0  0  0  0  0  0  0  0  0  0
   44.7660   35.7240   44.0780 C   0  0  0  0  0  0  0  0  0  0  0  0
   45.7450   35.0600   43.3440 C   0  0  0  0  0  0  0  0  0  0  0  0
   46.4340   34.0610   43.9250 N   0  0  0  0  0  0  0  0  0  0  0  0
   46.2050   33.6720   45.2230 C   0  0  0  0  0  0  0  0  0  0  0  0
   45.2530   34.3250   45.9210 N   0  0  0  0  0  0  0  0  0  0  0  0
   43.8240   35.7300   46.0960 H   0  0  0  0  0  0  0  0  0  0  0  0
   44.1500   36.5330   43.7310 H   0  0  0  0  0  0  0  0  0  0  0  0
   45.9030   35.3830   42.3360 H   0  0  0  0  0  0  0  0  0  0  0  0
   44.3270   28.7120   47.3370 O   0  0  0  0  0  0  0  0  0  0  0  0
   44.0840   26.1490   46.9860 O   0  0  0  0  0  0  0  0  0  0  0  0
   44.8840   27.1640   47.7870 P   0  0  2  0  0  0  0  0  0  0  0  0
   44.5900   26.9780   49.4280 O   0  0  0  0  0  0  0  0  0  0  0  0
   45.3320   27.2160   50.0180 H   0  0  0  0  0  0  0  0  0  0  0  0
   46.5120   26.9640   47.4300 O   0  0  0  0  0  0  0  0  0  0  0  0
   46.8500   25.6210   47.2740 C   0  0  0  0  0  2  0  0  0  0  0  0
   46.5000   24.8150   48.4230 N   0  0  0  0  0  4  0  0  0  0  0  0
   45.7010   25.2220   48.9500 H   0  0  0  0  0  0  0  0  0  0  0  0
   46.1770   23.4740   47.9420 C   0  0  0  0  0  2  0  0  0  0  0  0
   45.7490   23.5980   46.9180 H   0  0  0  0  0  0  0  0  0  0  0  0
   47.6240   24.6640   49.3350 C   0  0  0  0  0  2  0  0  0  0  0  0
   47.8640   25.6080   49.8670 H   0  0  0  0  0  0  0  0  0  0  0  0
  1  2  1  0  0  0  0
  2  3  2  0  0  0  0
  2  7  1  0  0  0  0
  3  4  1  0  0  0  0
  4  8  1  0  0  0  0
  4  5  2  0  0  0  0
  5  9  1  0  0  0  0
  6  5  1  0  0  0  0
  6 10  1  0  0  0  0
  7  6  2  0  0  0  0
 11 13  1  0  0  0  0
 11  3  1  0  0  0  0
 12 11  1  0  0  0  0
 14 19  1  0  0  0  0
 14 20  1  0  0  0  0
 15 14  2  0  0  0  0
 16 17  2  0  0  0  0
 16 15  1  0  0  0  0
 17 18  1  0  0  0  0
 18 11  1  0  0  0  0
 18 19  2  0  0  0  0
 21 15  1  0  0  0  0
 22 16  1  0  0  0  0
 23  7  1  0  0  0  0
 23 25  1  0  0  0  0
 25 24  2  6  0  0  0
 25 26  1  0  0  0  0
 26 27  1  0  0  0  0
 28 25  1  0  0  0  0
 29 28  1  0  0  0  0
 29 30  1  0  0  0  0
 30 31  1  0  0  0  0
 30 34  1  0  0  0  0
 32 30  1  0  0  0  0
 33 32  1  0  0  0  0
 34 35  1  0  0  0  0
M  END
>  <minimizedAffinity>
-4.83356714

>  <minimizedRMSD>
0.340488762

$$$$
