REMARK  Name = 
REMARK  6 active torsions:
REMARK  status: ('A' for Active; 'I' for Inactive)
REMARK    1  A    between atoms: N_1  and  C_9
REMARK    2  A    between atoms: C_6  and  O_13
REMARK    3  A    between atoms: O_13  and  C_26
REMARK    4  A    between atoms: C_26  and  N_27
REMARK    5  A    between atoms: N_27  and  C_28
REMARK    6  A    between atoms: N_27  and  C_30
REMARK                            x       y       z     vdW  Elec       q    Type
REMARK                         _______ _______ _______ _____ _____    ______ ____
ROOT
ATOM      1  N   UNL     1      46.877  34.618  42.231  0.00  0.00    +0.000 N 
ATOM      2  C   UNL     1      48.326  34.791  42.261  0.00  0.00    +0.000 C 
ATOM      3  C   UNL     1      48.659  35.520  40.957  0.00  0.00    +0.000 C 
ATOM      4  C   UNL     1      48.336  34.642  39.773  0.00  0.00    +0.000 C 
ATOM      5  C   UNL     1      47.101  33.819  39.921  0.00  0.00    +0.000 C 
ATOM      6  C   UNL     1      46.190  34.267  41.034  0.00  0.00    +0.000 C 
ATOM      7  H   UNL     1      48.757  33.772  42.279  0.00  0.00    +0.000 HD
ATOM      8  H   UNL     1      48.662  35.410  43.108  0.00  0.00    +0.000 HD
ATOM      9  H   UNL     1      48.101  36.461  40.971  0.00  0.00    +0.000 HD
ATOM     10  H   UNL     1      49.746  35.721  40.944  0.00  0.00    +0.000 HD
ATOM     11  H   UNL     1      48.184  35.324  38.897  0.00  0.00    +0.000 HD
ATOM     12  H   UNL     1      49.192  33.993  39.499  0.00  0.00    +0.000 HD
ATOM     13  H   UNL     1      47.405  32.774  40.194  0.00  0.00    +0.000 HD
ATOM     14  H   UNL     1      46.491  33.734  39.003  0.00  0.00    +0.000 HD
ATOM     15  H   UNL     1      45.557  35.085  40.657  0.00  0.00    +0.000 HD
ENDROOT
BRANCH   1  18
ATOM     16  C   UNL     1      44.516  35.977  44.774  0.00  0.00    +0.000 A 
ATOM     17  C   UNL     1      45.234  35.891  43.568  0.00  0.00    +0.000 A 
ATOM     18  C   UNL     1      46.104  34.798  43.414  0.00  0.00    +0.000 A 
ATOM     19  N   UNL     1      46.187  33.908  44.438  0.00  0.00    +0.000 NA
ATOM     20  C   UNL     1      45.477  34.031  45.580  0.00  0.00    +0.000 A 
ATOM     21  N   UNL     1      44.636  35.080  45.738  0.00  0.00    +0.000 NA
ATOM     22  H   UNL     1      43.882  36.867  44.761  0.00  0.00    +0.000 HD
ATOM     23  H   UNL     1      45.187  36.576  42.747  0.00  0.00    +0.000 HD
ATOM     24  H   UNL     1      45.547  33.321  46.391  0.00  0.00    +0.000 HD
ENDBRANCH   1  18
BRANCH   6  25
ATOM     25  O   UNL     1      45.329  33.175  41.290  0.00  0.00    +0.000 OA
BRANCH  25  26
ATOM     26  C   UNL     1      44.006  33.467  40.995  0.00  0.00    +0.000 C 
BRANCH  26  27
ATOM     27  N   UNL     1      43.242  33.310  42.224  0.00  0.00    +0.000 N 
ATOM     28  H   UNL     1      42.627  34.112  42.443  0.00  0.00    +0.000 HD
BRANCH  27  29
ATOM     29  C   UNL     1      44.112  33.099  43.358  0.00  0.00    +0.000 C 
ATOM     30  H   UNL     1      43.508  32.761  44.219  0.00  0.00    +0.000 HD
ENDBRANCH  27  29
BRANCH  27  31
ATOM     31  C   UNL     1      42.438  32.099  42.091  0.00  0.00    +0.000 C 
ATOM     32  H   UNL     1      43.008  31.182  42.316  0.00  0.00    +0.000 HD
ENDBRANCH  27  31
ENDBRANCH  26  27
ENDBRANCH  25  26
ENDBRANCH   6  25
TORSDOF 6
