
 OpenBabel03252502553D

 35 36  0  0  0  0  0  0  0  0999 V2000
   45.5650   29.9470   44.7660 Br  0  0  0  0  0  0  0  0  0  0  0  0
   45.6500   30.5920   46.5860 C   0  0  0  0  0  0  0  0  0  0  0  0
   46.3500   31.7560   46.7730 C   0  0  0  0  0  0  0  0  0  0  0  0
   46.3870   32.1880   48.1000 C   0  0  0  0  0  0  0  0  0  0  0  0
   45.7810   31.5170   49.1400 C   0  0  0  0  0  0  0  0  0  0  0  0
   45.1030   30.3620   48.8680 C   0  0  0  0  0  0  0  0  0  0  0  0
   45.0250   29.8790   47.5870 C   0  0  0  0  0  0  0  0  0  0  0  0
   46.9210   33.1070   48.3420 H   0  0  0  0  0  0  0  0  0  0  0  0
   45.8480   31.9090   50.1590 H   0  0  0  0  0  0  0  0  0  0  0  0
   44.6390   29.8630   49.7210 H   0  0  0  0  0  0  0  0  0  0  0  0
   47.0290   32.5570   45.7700 C   0  0  0  0  0  0  0  0  0  0  0  0
   47.2950   31.8840   44.9120 H   0  0  0  0  0  0  0  0  0  0  0  0
   47.9980   32.9990   46.1070 H   0  0  0  0  0  0  0  0  0  0  0  0
   44.5450   35.3110   45.4070 C   0  0  0  0  0  0  0  0  0  0  0  0
   44.7620   35.7260   44.0780 C   0  0  0  0  0  0  0  0  0  0  0  0
   45.7420   35.0640   43.3430 C   0  0  0  0  0  0  0  0  0  0  0  0
   46.4330   34.0650   43.9230 N   0  0  0  0  0  0  0  0  0  0  0  0
   46.2060   33.6750   45.2210 C   0  0  0  0  0  0  0  0  0  0  0  0
   45.2530   34.3270   45.9200 N   0  0  0  0  0  0  0  0  0  0  0  0
   43.8220   35.7290   46.0970 H   0  0  0  0  0  0  0  0  0  0  0  0
   44.1450   36.5340   43.7320 H   0  0  0  0  0  0  0  0  0  0  0  0
   45.8980   35.3870   42.3350 H   0  0  0  0  0  0  0  0  0  0  0  0
   44.3350   28.7060   47.3160 O   0  0  0  0  0  0  0  0  0  0  0  0
   44.0980   26.1450   46.9450 O   0  0  0  0  0  0  0  0  0  0  0  0
   44.9020   27.1560   47.7470 P   0  0  2  0  0  0  0  0  0  0  0  0
   44.6240   26.9550   49.3890 O   0  0  0  0  0  0  0  0  0  0  0  0
   45.3700   27.1900   49.9740 H   0  0  0  0  0  0  0  0  0  0  0  0
   46.5270   26.9640   47.3730 O   0  0  0  0  0  0  0  0  0  0  0  0
   47.1240   25.9670   48.1420 C   0  0  0  0  0  2  0  0  0  0  0  0
   46.3740   24.7290   48.1400 N   0  0  0  0  0  4  0  0  0  0  0  0
   45.3580   24.8950   47.9950 H   0  0  0  0  0  0  0  0  0  0  0  0
   46.9180   23.8830   47.0800 C   0  0  0  0  0  2  0  0  0  0  0  0
   47.2880   24.5710   46.2830 H   0  0  0  0  0  0  0  0  0  0  0  0
   46.5500   23.9940   49.3830 C   0  0  0  0  0  2  0  0  0  0  0  0
   46.0440   24.4870   50.2390 H   0  0  0  0  0  0  0  0  0  0  0  0
  1  2  1  0  0  0  0
  2  3  2  0  0  0  0
  2  7  1  0  0  0  0
  3  4  1  0  0  0  0
  4  8  1  0  0  0  0
  4  5  2  0  0  0  0
  5  9  1  0  0  0  0
  6  5  1  0  0  0  0
  6 10  1  0  0  0  0
  7  6  2  0  0  0  0
 11 13  1  0  0  0  0
 11  3  1  0  0  0  0
 12 11  1  0  0  0  0
 14 19  1  0  0  0  0
 14 20  1  0  0  0  0
 15 14  2  0  0  0  0
 16 17  2  0  0  0  0
 16 15  1  0  0  0  0
 17 18  1  0  0  0  0
 18 11  1  0  0  0  0
 18 19  2  0  0  0  0
 21 15  1  0  0  0  0
 22 16  1  0  0  0  0
 23  7  1  0  0  0  0
 23 25  1  0  0  0  0
 25 24  2  6  0  0  0
 25 26  1  0  0  0  0
 26 27  1  0  0  0  0
 28 25  1  0  0  0  0
 28 29  1  0  0  0  0
 30 29  1  0  0  0  0
 30 34  1  0  0  0  0
 31 30  1  0  0  0  0
 32 30  1  0  0  0  0
 33 32  1  0  0  0  0
 34 35  1  0  0  0  0
M  END
>  <minimizedAffinity>
-4.78387499

>  <minimizedRMSD>
0.83648622

$$$$
