
 OpenBabel03252502553D

 35 36  0  0  0  0  0  0  0  0999 V2000
   45.6070   30.0010   44.7020 Br  0  0  0  0  0  0  0  0  0  0  0  0
   45.6730   30.7080   46.4990 C   0  0  0  0  0  0  0  0  0  0  0  0
   46.3580   31.8860   46.6510 C   0  0  0  0  0  0  0  0  0  0  0  0
   46.3820   32.3630   47.9620 C   0  0  0  0  0  0  0  0  0  0  0  0
   45.7780   31.7200   49.0210 C   0  0  0  0  0  0  0  0  0  0  0  0
   45.1160   30.5490   48.7850 C   0  0  0  0  0  0  0  0  0  0  0  0
   45.0510   30.0220   47.5200 C   0  0  0  0  0  0  0  0  0  0  0  0
   46.9040   33.2960   48.1760 H   0  0  0  0  0  0  0  0  0  0  0  0
   45.8340   32.1470   50.0260 H   0  0  0  0  0  0  0  0  0  0  0  0
   44.6520   30.0740   49.6520 H   0  0  0  0  0  0  0  0  0  0  0  0
   47.0340   32.6600   45.6240 C   0  0  0  0  0  0  0  0  0  0  0  0
   47.2850   31.9680   44.7780 H   0  0  0  0  0  0  0  0  0  0  0  0
   48.0100   33.1000   45.9430 H   0  0  0  0  0  0  0  0  0  0  0  0
   44.5390   35.3970   45.2170 C   0  0  0  0  0  0  0  0  0  0  0  0
   44.7830   35.8190   43.8950 C   0  0  0  0  0  0  0  0  0  0  0  0
   45.7830   35.1670   43.1790 C   0  0  0  0  0  0  0  0  0  0  0  0
   46.4680   34.1720   43.7710 N   0  0  0  0  0  0  0  0  0  0  0  0
   46.2150   33.7750   45.0610 C   0  0  0  0  0  0  0  0  0  0  0  0
   45.2420   34.4170   45.7420 N   0  0  0  0  0  0  0  0  0  0  0  0
   43.7980   35.8080   45.8920 H   0  0  0  0  0  0  0  0  0  0  0  0
   44.1670   36.6240   43.5380 H   0  0  0  0  0  0  0  0  0  0  0  0
   45.9590   35.4960   42.1760 H   0  0  0  0  0  0  0  0  0  0  0  0
   44.3760   28.8320   47.2850 O   0  0  0  0  0  0  0  0  0  0  0  0
   44.3030   26.2900   46.7510 O   0  0  0  0  0  0  0  0  0  0  0  0
   45.0250   27.2940   47.6360 P   0  0  2  0  0  0  0  0  0  0  0  0
   44.7200   26.9740   49.2540 O   0  0  0  0  0  0  0  0  0  0  0  0
   45.4370   27.2150   49.8730 H   0  0  0  0  0  0  0  0  0  0  0  0
   46.6670   27.2220   47.2960 O   0  0  0  0  0  0  0  0  0  0  0  0
   47.2000   25.9630   47.5640 C   0  0  0  0  0  2  0  0  0  0  0  0
   47.6430   25.8180   48.9340 N   0  0  0  0  0  4  0  0  0  0  0  0
   47.2350   26.5510   49.5490 H   0  0  0  0  0  0  0  0  0  0  0  0
   47.2550   24.4850   49.3870 C   0  0  0  0  0  2  0  0  0  0  0  0
   46.3180   24.2230   48.8380 H   0  0  0  0  0  0  0  0  0  0  0  0
   49.0930   25.8820   49.0400 C   0  0  0  0  0  2  0  0  0  0  0  0
   49.4840   26.9020   48.8510 H   0  0  0  0  0  0  0  0  0  0  0  0
  1  2  1  0  0  0  0
  2  3  2  0  0  0  0
  2  7  1  0  0  0  0
  3  4  1  0  0  0  0
  4  8  1  0  0  0  0
  4  5  2  0  0  0  0
  5  9  1  0  0  0  0
  6  5  1  0  0  0  0
  6 10  1  0  0  0  0
  7  6  2  0  0  0  0
 11 13  1  0  0  0  0
 11  3  1  0  0  0  0
 12 11  1  0  0  0  0
 14 19  1  0  0  0  0
 14 20  1  0  0  0  0
 15 14  2  0  0  0  0
 16 17  2  0  0  0  0
 16 15  1  0  0  0  0
 17 18  1  0  0  0  0
 18 11  1  0  0  0  0
 18 19  2  0  0  0  0
 21 15  1  0  0  0  0
 22 16  1  0  0  0  0
 23  7  1  0  0  0  0
 23 25  1  0  0  0  0
 25 24  2  6  0  0  0
 25 26  1  0  0  0  0
 26 27  1  0  0  0  0
 28 29  1  0  0  0  0
 28 25  1  0  0  0  0
 29 30  1  0  0  0  0
 30 34  1  0  0  0  0
 30 32  1  0  0  0  0
 30 31  1  0  0  0  0
 33 32  1  0  0  0  0
 35 34  1  0  0  0  0
M  END
>  <minimizedAffinity>
-5.09069729

>  <minimizedRMSD>
0.81610167

$$$$
