
 OpenBabel03242510483D

 37 38  0  0  1  0  0  0  0  0999 V2000
   46.2190   34.0680   41.1200 C   0  0  1  0  0  0  0  0  0  0  0  0
   46.9490   32.7900   41.0000 C   0  0  2  0  0  0  0  0  0  0  0  0
   46.0700   31.6720   41.1650 O   0  0  0  0  0  0  0  0  0  0  0  0
   45.7280   31.6760   42.5210 C   0  0  0  0  0  0  0  0  0  0  0  0
   44.7960   32.8340   42.8180 C   0  0  1  0  0  0  0  0  0  0  0  0
   44.8490   33.8870   41.7430 C   0  0  1  0  0  0  0  0  0  0  0  0
   46.0490   34.5540   40.1310 H   0  0  0  0  0  0  0  0  0  0  0  0
   47.3190   32.6230   39.9560 H   0  0  0  0  0  0  0  0  0  0  0  0
   46.6500   31.8110   43.1290 H   0  0  0  0  0  0  0  0  0  0  0  0
   45.2640   30.7020   42.7720 H   0  0  0  0  0  0  0  0  0  0  0  0
   45.0610   33.2800   43.7880 H   0  0  0  0  0  0  0  0  0  0  0  0
   44.1160   33.6220   40.9760 H   0  0  0  0  0  0  0  0  0  0  0  0
   46.9670   35.0180   41.8430 O   0  0  0  0  0  0  0  0  0  0  0  0
   46.7670   34.9490   42.8060 H   0  0  0  0  0  0  0  0  0  0  0  0
   43.5010   32.2830   42.8250 O   0  0  0  0  0  0  0  0  0  0  0  0
   43.0310   32.7620   43.5750 H   0  0  0  0  0  0  0  0  0  0  0  0
   48.0130   32.5910   41.9210 O   0  0  0  0  0  0  0  0  0  0  0  0
   51.1060   30.7850   41.8800 C   0  0  0  0  0  0  0  0  0  0  0  0
   51.5250   30.8760   40.5390 C   0  0  0  0  0  0  0  0  0  0  0  0
   50.7120   31.5770   39.6490 C   0  0  0  0  0  0  0  0  0  0  0  0
   49.5660   32.1340   40.1180 N   0  0  0  0  0  0  0  0  0  0  0  0
   49.1840   32.0400   41.3900 C   0  0  0  0  0  0  0  0  0  0  0  0
   49.9540   31.3630   42.2820 N   0  0  0  0  0  0  0  0  0  0  0  0
   52.4240   30.4420   40.1580 H   0  0  0  0  0  0  0  0  0  0  0  0
   50.9600   31.6910   38.6090 H   0  0  0  0  0  0  0  0  0  0  0  0
   51.9860   30.0260   42.8260 C   0  0  0  0  0  0  0  0  0  0  0  0
   52.1240   30.6820   44.0100 F   0  0  0  0  0  0  0  0  0  0  0  0
   51.4510   28.7560   42.9830 F   0  0  0  0  0  0  0  0  0  0  0  0
   53.2390   29.8130   42.1980 F   0  0  0  0  0  0  0  0  0  0  0  0
   44.4970   35.1170   42.3460 O   0  0  0  0  0  0  0  0  0  0  0  0
   43.6190   35.7060   41.4360 C   0  0  0  0  0  0  0  0  0  0  0  0
   42.5370   34.8410   41.0600 N   0  0  0  0  0  0  0  0  0  0  0  0
   42.7060   33.8350   41.3250 H   0  0  0  0  0  0  0  0  0  0  0  0
   41.3370   35.3300   41.7180 C   0  0  0  0  0  0  0  0  0  0  0  0
   40.4050   34.9400   41.2600 H   0  0  0  0  0  0  0  0  0  0  0  0
   42.2430   34.9270   39.6260 C   0  0  0  0  0  0  0  0  0  0  0  0
   41.3060   34.3590   39.4560 H   0  0  0  0  0  0  0  0  0  0  0  0
  1  7  1  6  0  0  0
  1  6  1  0  0  0  0
  1 13  1  0  0  0  0
  2  8  1  6  0  0  0
  2  1  1  0  0  0  0
  2  3  1  0  0  0  0
  2 17  1  0  0  0  0
  3  4  1  0  0  0  0
  4 10  1  0  0  0  0
  4  5  1  0  0  0  0
  4  9  1  0  0  0  0
  5 15  1  0  0  0  0
  5 11  1  1  0  0  0
  6 12  1  6  0  0  0
  6 30  1  0  0  0  0
  6  5  1  0  0  0  0
 13 14  1  0  0  0  0
 15 16  1  0  0  0  0
 18 23  1  0  0  0  0
 18 26  1  0  0  0  0
 19 18  2  0  0  0  0
 20 21  2  0  0  0  0
 20 19  1  0  0  0  0
 21 22  1  0  0  0  0
 22 17  1  0  0  0  0
 22 23  2  0  0  0  0
 24 19  1  0  0  0  0
 25 20  1  0  0  0  0
 26 28  1  0  0  0  0
 26 27  1  0  0  0  0
 29 26  1  0  0  0  0
 31 30  1  0  0  0  0
 32 33  1  0  0  0  0
 32 31  1  0  0  0  0
 32 34  1  0  0  0  0
 35 34  1  0  0  0  0
 36 32  1  0  0  0  0
 37 36  1  0  0  0  0
M  END
>  <minimizedAffinity>
-3.87533092

>  <minimizedRMSD>
3.14629483

$$$$
