
 OpenBabel03252501043D

 29 30  0  0  1  0  0  0  0  0999 V2000
   37.2530   31.1380   38.0070 C   0  0  1  0  0  0  0  0  0  0  0  0
   38.0000   29.9890   37.4380 C   0  0  0  0  0  0  0  0  0  0  0  0
   37.1160   29.8270   38.6670 C   0  0  1  0  0  0  0  0  0  0  0  0
   36.4010   31.5530   37.4290 H   0  0  0  0  0  0  0  0  0  0  0  0
   39.0480   29.7660   37.6390 H   0  0  0  0  0  0  0  0  0  0  0  0
   37.6550   29.5730   36.4600 H   0  0  0  0  0  0  0  0  0  0  0  0
   36.2330   29.2020   38.4300 H   0  0  0  0  0  0  0  0  0  0  0  0
   40.2130   33.1460   39.2090 C   0  0  0  0  0  0  0  0  0  0  0  0
   39.4790   32.1670   38.5210 C   0  0  0  0  0  0  0  0  0  0  0  0
   38.0910   32.1570   38.7030 C   0  0  0  0  0  0  0  0  0  0  0  0
   37.5130   33.0770   39.5230 N   0  0  0  0  0  0  0  0  0  0  0  0
   38.2510   34.0090   40.1730 C   0  0  0  0  0  0  0  0  0  0  0  0
   39.6040   34.0410   40.0130 N   0  0  0  0  0  0  0  0  0  0  0  0
   41.2850   33.1620   39.0750 H   0  0  0  0  0  0  0  0  0  0  0  0
   40.0090   31.4750   37.8880 H   0  0  0  0  0  0  0  0  0  0  0  0
   37.7780   34.7420   40.8270 H   0  0  0  0  0  0  0  0  0  0  0  0
   37.6050   29.6930   39.9070 O   0  0  0  0  0  0  0  0  0  0  0  0
   35.5710   28.5840   41.2010 O   0  0  0  0  0  0  0  0  0  0  0  0
   36.5780   29.7120   41.1850 P   0  0  2  0  0  0  0  0  0  0  0  0
   35.6790   31.1450   41.3240 O   0  0  0  0  0  0  0  0  0  0  0  0
   35.0340   31.0150   42.0770 H   0  0  0  0  0  0  0  0  0  0  0  0
   37.4520   29.5500   42.6170 O   0  0  0  0  0  0  0  0  0  0  0  0
   37.5950   28.2290   43.0090 C   0  0  0  0  0  2  0  0  0  0  0  0
   38.2700   27.4400   41.9910 N   0  0  0  0  0  4  0  0  0  0  0  0
   38.0000   27.8210   41.0550 H   0  0  0  0  0  0  0  0  0  0  0  0
   39.7180   27.5540   42.1130 C   0  0  0  0  0  2  0  0  0  0  0  0
   40.1070   26.9770   42.9580 H   0  0  0  0  0  0  0  0  0  0  0  0
   37.9110   26.0540   42.0580 C   0  0  0  0  0  2  0  0  0  0  0  0
   37.9170   25.7370   43.1190 H   0  0  0  0  0  0  0  0  0  0  0  0
  1  4  1  6  0  0  0
  1  3  1  0  0  0  0
  1 10  1  0  0  0  0
  2  5  1  0  0  0  0
  2  1  1  0  0  0  0
  2  3  1  0  0  0  0
  3  7  1  6  0  0  0
  3 17  1  0  0  0  0
  6  2  1  0  0  0  0
  8 13  1  0  0  0  0
  9 10  1  0  0  0  0
  9  8  2  0  0  0  0
 10 11  2  0  0  0  0
 11 12  1  0  0  0  0
 12 16  1  0  0  0  0
 13 12  2  0  0  0  0
 14  8  1  0  0  0  0
 15  9  1  0  0  0  0
 17 19  1  0  0  0  0
 19 18  2  6  0  0  0
 19 20  1  0  0  0  0
 19 22  1  0  0  0  0
 20 21  1  0  0  0  0
 22 23  1  0  0  0  0
 24 28  1  0  0  0  0
 24 26  1  0  0  0  0
 24 23  1  0  0  0  0
 25 24  1  0  0  0  0
 26 27  1  0  0  0  0
 28 29  1  0  0  0  0
M  END
>  <minimizedAffinity>
-4.46685028

$$$$

 OpenBabel03252501043D

 29 30  0  0  1  0  0  0  0  0999 V2000
   36.9610   26.8070   42.7090 C   0  0  1  0  0  0  0  0  0  0  0  0
   36.7620   27.9200   43.6690 C   0  0  0  0  0  0  0  0  0  0  0  0
   36.5960   28.1290   42.1710 C   0  0  1  0  0  0  0  0  0  0  0  0
   36.2170   25.9830   42.6920 H   0  0  0  0  0  0  0  0  0  0  0  0
   37.5620   28.5260   44.0950 H   0  0  0  0  0  0  0  0  0  0  0  0
   35.8540   27.8940   44.3190 H   0  0  0  0  0  0  0  0  0  0  0  0
   35.5360   28.3280   41.9210 H   0  0  0  0  0  0  0  0  0  0  0  0
   40.6700   26.3290   43.2160 C   0  0  0  0  0  0  0  0  0  0  0  0
   39.3560   26.7630   43.4480 C   0  0  0  0  0  0  0  0  0  0  0  0
   38.3770   26.3730   42.5260 C   0  0  0  0  0  0  0  0  0  0  0  0
   38.7260   25.6040   41.4580 N   0  0  0  0  0  0  0  0  0  0  0  0
   40.0050   25.2020   41.2640 C   0  0  0  0  0  0  0  0  0  0  0  0
   40.9770   25.5670   42.1470 N   0  0  0  0  0  0  0  0  0  0  0  0
   41.4330   26.6240   43.9230 H   0  0  0  0  0  0  0  0  0  0  0  0
   39.1580   27.3680   44.3170 H   0  0  0  0  0  0  0  0  0  0  0  0
   40.2750   24.5850   40.4060 H   0  0  0  0  0  0  0  0  0  0  0  0
   37.4990   28.7730   41.4180 O   0  0  0  0  0  0  0  0  0  0  0  0
   38.1180   31.3360   41.1200 O   0  0  0  0  0  0  0  0  0  0  0  0
   37.1270   30.2420   40.7920 P   0  0  2  0  0  0  0  0  0  0  0  0
   35.6070   30.8280   41.2680 O   0  0  0  0  0  0  0  0  0  0  0  0
   35.5220   31.7550   40.9020 H   0  0  0  0  0  0  0  0  0  0  0  0
   37.1030   30.1520   39.1090 O   0  0  0  0  0  0  0  0  0  0  0  0
   38.3740   30.0940   38.5600 C   0  0  0  0  0  2  0  0  0  0  0  0
   38.3300   29.7440   37.1490 N   0  0  0  0  0  4  0  0  0  0  0  0
   38.8680   30.4680   36.6200 H   0  0  0  0  0  0  0  0  0  0  0  0
   38.9690   28.4560   36.9070 C   0  0  0  0  0  2  0  0  0  0  0  0
   38.3440   27.6190   37.2350 H   0  0  0  0  0  0  0  0  0  0  0  0
   36.9880   29.6920   36.6470 C   0  0  0  0  0  2  0  0  0  0  0  0
   36.3550   29.1610   37.3840 H   0  0  0  0  0  0  0  0  0  0  0  0
  1  4  1  6  0  0  0
  1  2  1  0  0  0  0
  2  5  1  0  0  0  0
  2  6  1  0  0  0  0
  3  7  1  6  0  0  0
  3  1  1  0  0  0  0
  3  2  1  0  0  0  0
  8  9  1  0  0  0  0
  8 14  1  0  0  0  0
  9 15  1  0  0  0  0
 10  1  1  0  0  0  0
 10  9  2  0  0  0  0
 11 10  1  0  0  0  0
 12 11  2  0  0  0  0
 12 13  1  0  0  0  0
 13  8  2  0  0  0  0
 16 12  1  0  0  0  0
 17  3  1  0  0  0  0
 19 18  2  1  0  0  0
 19 20  1  0  0  0  0
 19 17  1  0  0  0  0
 21 20  1  0  0  0  0
 22 19  1  0  0  0  0
 23 22  1  0  0  0  0
 24 23  1  0  0  0  0
 25 24  1  0  0  0  0
 26 24  1  0  0  0  0
 26 27  1  0  0  0  0
 28 24  1  0  0  0  0
 28 29  1  0  0  0  0
M  END
>  <minimizedAffinity>
-4.34879923

$$$$

 OpenBabel03252501043D

 29 30  0  0  1  0  0  0  0  0999 V2000
   38.2530   28.5480   43.2190 C   0  0  1  0  0  0  0  0  0  0  0  0
   39.4280   29.3670   42.8320 C   0  0  0  0  0  0  0  0  0  0  0  0
   38.0450   29.6490   42.2620 C   0  0  1  0  0  0  0  0  0  0  0  0
   37.8620   28.6400   44.2550 H   0  0  0  0  0  0  0  0  0  0  0  0
   40.1530   29.0920   42.0650 H   0  0  0  0  0  0  0  0  0  0  0  0
   39.8550   30.0620   43.5940 H   0  0  0  0  0  0  0  0  0  0  0  0
   37.6590   30.6170   42.6390 H   0  0  0  0  0  0  0  0  0  0  0  0
   37.0860   25.1390   42.0990 C   0  0  0  0  0  0  0  0  0  0  0  0
   37.0370   26.4390   42.6240 C   0  0  0  0  0  0  0  0  0  0  0  0
   38.2350   27.1630   42.6660 C   0  0  0  0  0  0  0  0  0  0  0  0
   39.3820   26.5920   42.2070 N   0  0  0  0  0  0  0  0  0  0  0  0
   39.3950   25.3330   41.7050 C   0  0  0  0  0  0  0  0  0  0  0  0
   38.2430   24.6080   41.6530 N   0  0  0  0  0  0  0  0  0  0  0  0
   36.1670   24.5730   42.0620 H   0  0  0  0  0  0  0  0  0  0  0  0
   36.0900   26.8220   42.9660 H   0  0  0  0  0  0  0  0  0  0  0  0
   40.3200   24.8860   41.3390 H   0  0  0  0  0  0  0  0  0  0  0  0
   37.6920   29.3340   41.0090 O   0  0  0  0  0  0  0  0  0  0  0  0
   36.5840   30.7510   39.0570 O   0  0  0  0  0  0  0  0  0  0  0  0
   36.3490   30.0110   40.3550 P   0  0  2  0  0  0  0  0  0  0  0  0
   35.5600   31.1060   41.3840 O   0  0  0  0  0  0  0  0  0  0  0  0
   34.8130   31.5160   40.8590 H   0  0  0  0  0  0  0  0  0  0  0  0
   35.2300   28.8050   39.9840 O   0  0  0  0  0  0  0  0  0  0  0  0
   35.7120   27.8970   39.0560 C   0  0  0  0  0  2  0  0  0  0  0  0
   34.8080   27.7560   37.9260 N   0  0  0  0  0  4  0  0  0  0  0  0
   34.3400   26.8240   38.0010 H   0  0  0  0  0  0  0  0  0  0  0  0
   33.7670   28.7760   37.9570 C   0  0  0  0  0  2  0  0  0  0  0  0
   34.1450   29.7590   37.6580 H   0  0  0  0  0  0  0  0  0  0  0  0
   35.4960   27.8400   36.6720 C   0  0  0  0  0  2  0  0  0  0  0  0
   36.2190   28.6760   36.7200 H   0  0  0  0  0  0  0  0  0  0  0  0
  1  4  1  1  0  0  0
  2  1  1  0  0  0  0
  2  6  1  0  0  0  0
  3  7  1  1  0  0  0
  3  2  1  0  0  0  0
  3  1  1  0  0  0  0
  5  2  1  0  0  0  0
  8  9  1  0  0  0  0
  9 10  2  0  0  0  0
  9 15  1  0  0  0  0
 10  1  1  0  0  0  0
 11 10  1  0  0  0  0
 12 11  2  0  0  0  0
 13 12  1  0  0  0  0
 13  8  2  0  0  0  0
 14  8  1  0  0  0  0
 16 12  1  0  0  0  0
 17  3  1  0  0  0  0
 19 18  2  6  0  0  0
 19 17  1  0  0  0  0
 19 20  1  0  0  0  0
 21 20  1  0  0  0  0
 22 19  1  0  0  0  0
 23 22  1  0  0  0  0
 24 26  1  0  0  0  0
 24 25  1  0  0  0  0
 24 23  1  0  0  0  0
 27 26  1  0  0  0  0
 28 29  1  0  0  0  0
 28 24  1  0  0  0  0
M  END
>  <minimizedAffinity>
-4.30512905

$$$$

 OpenBabel03252501043D

 29 30  0  0  1  0  0  0  0  0999 V2000
   35.4030   29.9000   40.2200 C   0  0  1  0  0  0  0  0  0  0  0  0
   35.2430   28.7410   39.3070 C   0  0  0  0  0  0  0  0  0  0  0  0
   35.7820   28.5660   40.7200 C   0  0  1  0  0  0  0  0  0  0  0  0
   34.4910   30.3950   40.6130 H   0  0  0  0  0  0  0  0  0  0  0  0
   35.9610   28.4470   38.5410 H   0  0  0  0  0  0  0  0  0  0  0  0
   34.2060   28.3990   39.0740 H   0  0  0  0  0  0  0  0  0  0  0  0
   35.0580   28.0070   41.3450 H   0  0  0  0  0  0  0  0  0  0  0  0
   38.0440   31.7910   38.2990 C   0  0  0  0  0  0  0  0  0  0  0  0
   36.9890   30.9030   38.5580 C   0  0  0  0  0  0  0  0  0  0  0  0
   36.5180   30.8300   39.8750 C   0  0  0  0  0  0  0  0  0  0  0  0
   37.0880   31.6050   40.8370 N   0  0  0  0  0  0  0  0  0  0  0  0
   38.1050   32.4530   40.5530 C   0  0  0  0  0  0  0  0  0  0  0  0
   38.5820   32.5440   39.2790 N   0  0  0  0  0  0  0  0  0  0  0  0
   38.4140   31.8550   37.2860 H   0  0  0  0  0  0  0  0  0  0  0  0
   36.5890   30.3240   37.7430 H   0  0  0  0  0  0  0  0  0  0  0  0
   38.5540   33.0710   41.3310 H   0  0  0  0  0  0  0  0  0  0  0  0
   37.0750   28.3380   40.9870 O   0  0  0  0  0  0  0  0  0  0  0  0
   36.5580   27.5490   43.4680 O   0  0  0  0  0  0  0  0  0  0  0  0
   37.5650   28.2000   42.5450 P   0  0  2  0  0  0  0  0  0  0  0  0
   37.9770   29.6790   43.2700 O   0  0  0  0  0  0  0  0  0  0  0  0
   38.1770   29.4890   44.2310 H   0  0  0  0  0  0  0  0  0  0  0  0
   38.9380   27.2250   42.6240 O   0  0  0  0  0  0  0  0  0  0  0  0
   38.6340   25.8740   42.6160 C   0  0  0  0  0  2  0  0  0  0  0  0
   37.8290   25.5150   41.4600 N   0  0  0  0  0  4  0  0  0  0  0  0
   37.2640   26.3520   41.1860 H   0  0  0  0  0  0  0  0  0  0  0  0
   38.6700   25.1600   40.3230 C   0  0  0  0  0  2  0  0  0  0  0  0
   39.1220   24.1690   40.4390 H   0  0  0  0  0  0  0  0  0  0  0  0
   36.9460   24.4200   41.7370 C   0  0  0  0  0  2  0  0  0  0  0  0
   37.5050   23.6490   42.3020 H   0  0  0  0  0  0  0  0  0  0  0  0
  1  4  1  1  0  0  0
  1  3  1  0  0  0  0
  2  1  1  0  0  0  0
  2  3  1  0  0  0  0
  3 17  1  0  0  0  0
  3  7  1  1  0  0  0
  5  2  1  0  0  0  0
  6  2  1  0  0  0  0
  8  9  2  0  0  0  0
  8 13  1  0  0  0  0
  9 10  1  0  0  0  0
 10  1  1  0  0  0  0
 10 11  2  0  0  0  0
 12 11  1  0  0  0  0
 12 16  1  0  0  0  0
 13 12  2  0  0  0  0
 14  8  1  0  0  0  0
 15  9  1  0  0  0  0
 17 19  1  0  0  0  0
 19 22  1  0  0  0  0
 19 20  1  0  0  0  0
 19 18  2  1  0  0  0
 20 21  1  0  0  0  0
 23 22  1  0  0  0  0
 24 28  1  0  0  0  0
 24 23  1  0  0  0  0
 25 24  1  0  0  0  0
 26 27  1  0  0  0  0
 26 24  1  0  0  0  0
 28 29  1  0  0  0  0
M  END
>  <minimizedAffinity>
-4.20479345

$$$$

 OpenBabel03252501043D

 29 30  0  0  1  0  0  0  0  0999 V2000
   36.3610   28.6960   39.9970 C   0  0  1  0  0  0  0  0  0  0  0  0
   34.9370   29.0540   40.2140 C   0  0  0  0  0  0  0  0  0  0  0  0
   35.9610   30.1000   39.7950 C   0  0  1  0  0  0  0  0  0  0  0  0
   36.6210   28.0680   39.1190 H   0  0  0  0  0  0  0  0  0  0  0  0
   34.4890   29.2660   41.1850 H   0  0  0  0  0  0  0  0  0  0  0  0
   34.1890   28.6960   39.4670 H   0  0  0  0  0  0  0  0  0  0  0  0
   35.7570   30.4530   38.7650 H   0  0  0  0  0  0  0  0  0  0  0  0
   37.2530   27.6520   43.5120 C   0  0  0  0  0  0  0  0  0  0  0  0
   36.4720   27.9160   42.3760 C   0  0  0  0  0  0  0  0  0  0  0  0
   37.1330   28.3880   41.2360 C   0  0  0  0  0  0  0  0  0  0  0  0
   38.4820   28.5720   41.2670 N   0  0  0  0  0  0  0  0  0  0  0  0
   39.2070   28.3060   42.3810 C   0  0  0  0  0  0  0  0  0  0  0  0
   38.5880   27.8460   43.5040 N   0  0  0  0  0  0  0  0  0  0  0  0
   36.7520   27.2870   44.3970 H   0  0  0  0  0  0  0  0  0  0  0  0
   35.4100   27.7440   42.4290 H   0  0  0  0  0  0  0  0  0  0  0  0
   40.2870   28.4560   42.3950 H   0  0  0  0  0  0  0  0  0  0  0  0
   36.4510   31.0210   40.6360 O   0  0  0  0  0  0  0  0  0  0  0  0
   38.7910   32.2440   40.9080 O   0  0  0  0  0  0  0  0  0  0  0  0
   37.5290   32.1260   40.0820 P   0  0  2  0  0  0  0  0  0  0  0  0
   36.9010   33.6980   39.9570 O   0  0  0  0  0  0  0  0  0  0  0  0
   37.6580   34.2960   39.6940 H   0  0  0  0  0  0  0  0  0  0  0  0
   38.0460   31.6890   38.5380 O   0  0  0  0  0  0  0  0  0  0  0  0
   39.4130   31.4760   38.4730 C   0  0  0  0  0  2  0  0  0  0  0  0
   39.7640   30.1260   38.8860 N   0  0  0  0  0  4  0  0  0  0  0  0
   39.1820   29.8820   39.7190 H   0  0  0  0  0  0  0  0  0  0  0  0
   39.4600   29.1610   37.8370 C   0  0  0  0  0  2  0  0  0  0  0  0
   40.1840   29.2030   37.0160 H   0  0  0  0  0  0  0  0  0  0  0  0
   41.1510   30.0110   39.2280 C   0  0  0  0  0  2  0  0  0  0  0  0
   41.7500   30.5450   38.4660 H   0  0  0  0  0  0  0  0  0  0  0  0
  1  4  1  6  0  0  0
  1  2  1  0  0  0  0
  1 10  1  0  0  0  0
  2  5  1  0  0  0  0
  3  7  1  6  0  0  0
  3  1  1  0  0  0  0
  3  2  1  0  0  0  0
  3 17  1  0  0  0  0
  6  2  1  0  0  0  0
  8 14  1  0  0  0  0
  9 15  1  0  0  0  0
  9  8  2  0  0  0  0
 10 11  2  0  0  0  0
 10  9  1  0  0  0  0
 11 12  1  0  0  0  0
 12 16  1  0  0  0  0
 12 13  2  0  0  0  0
 13  8  1  0  0  0  0
 19 17  1  0  0  0  0
 19 18  2  1  0  0  0
 20 19  1  0  0  0  0
 21 20  1  0  0  0  0
 22 19  1  0  0  0  0
 23 22  1  0  0  0  0
 23 24  1  0  0  0  0
 24 28  1  0  0  0  0
 24 25  1  0  0  0  0
 26 24  1  0  0  0  0
 27 26  1  0  0  0  0
 29 28  1  0  0  0  0
M  END
>  <minimizedAffinity>
-4.16669655

$$$$

 OpenBabel03252501043D

 29 30  0  0  1  0  0  0  0  0999 V2000
   36.9160   27.0120   43.1660 C   0  0  1  0  0  0  0  0  0  0  0  0
   37.7640   28.2020   43.4250 C   0  0  0  0  0  0  0  0  0  0  0  0
   36.5990   28.2590   42.4470 C   0  0  1  0  0  0  0  0  0  0  0  0
   36.2420   26.6570   43.9730 H   0  0  0  0  0  0  0  0  0  0  0  0
   38.7260   28.3980   42.9480 H   0  0  0  0  0  0  0  0  0  0  0  0
   37.6680   28.7070   44.4160 H   0  0  0  0  0  0  0  0  0  0  0  0
   35.7930   28.9100   42.8400 H   0  0  0  0  0  0  0  0  0  0  0  0
   37.4970   23.8300   41.2220 C   0  0  0  0  0  0  0  0  0  0  0  0
   36.8240   24.8200   41.9550 C   0  0  0  0  0  0  0  0  0  0  0  0
   37.5690   25.9280   42.3760 C   0  0  0  0  0  0  0  0  0  0  0  0
   38.8930   26.0050   42.0680 N   0  0  0  0  0  0  0  0  0  0  0  0
   39.5120   25.0310   41.3580 C   0  0  0  0  0  0  0  0  0  0  0  0
   38.8100   23.9430   40.9360 N   0  0  0  0  0  0  0  0  0  0  0  0
   36.9300   22.9720   40.8920 H   0  0  0  0  0  0  0  0  0  0  0  0
   35.7740   24.6880   42.1570 H   0  0  0  0  0  0  0  0  0  0  0  0
   40.5730   25.1030   41.1160 H   0  0  0  0  0  0  0  0  0  0  0  0
   36.7590   28.2770   41.1170 O   0  0  0  0  0  0  0  0  0  0  0  0
   34.4280   29.1280   40.1770 O   0  0  0  0  0  0  0  0  0  0  0  0
   35.9220   29.3620   40.2170 P   0  0  2  0  0  0  0  0  0  0  0  0
   36.4270   29.4490   38.5990 O   0  0  0  0  0  0  0  0  0  0  0  0
   35.8000   30.0720   38.1290 H   0  0  0  0  0  0  0  0  0  0  0  0
   36.1140   30.9060   40.8670 O   0  0  0  0  0  0  0  0  0  0  0  0
   37.1610   31.6020   40.2850 C   0  0  0  0  0  2  0  0  0  0  0  0
   38.4170   30.8800   40.4060 N   0  0  0  0  0  4  0  0  0  0  0  0
   38.2060   29.8560   40.3630 H   0  0  0  0  0  0  0  0  0  0  0  0
   39.3110   31.1930   39.2990 C   0  0  0  0  0  2  0  0  0  0  0  0
   39.7600   32.1870   39.4010 H   0  0  0  0  0  0  0  0  0  0  0  0
   39.0900   31.1720   41.6380 C   0  0  0  0  0  2  0  0  0  0  0  0
   39.0430   32.2630   41.8170 H   0  0  0  0  0  0  0  0  0  0  0  0
  1  2  1  0  0  0  0
  1  4  1  1  0  0  0
  2  6  1  0  0  0  0
  3  7  1  1  0  0  0
  3  1  1  0  0  0  0
  3  2  1  0  0  0  0
  5  2  1  0  0  0  0
  8  9  1  0  0  0  0
  9 15  1  0  0  0  0
  9 10  2  0  0  0  0
 10  1  1  0  0  0  0
 11 10  1  0  0  0  0
 12 11  2  0  0  0  0
 13  8  2  0  0  0  0
 13 12  1  0  0  0  0
 14  8  1  0  0  0  0
 16 12  1  0  0  0  0
 17  3  1  0  0  0  0
 19 18  2  1  0  0  0
 19 22  1  0  0  0  0
 19 17  1  0  0  0  0
 20 19  1  0  0  0  0
 21 20  1  0  0  0  0
 23 24  1  0  0  0  0
 23 22  1  0  0  0  0
 24 28  1  0  0  0  0
 25 24  1  0  0  0  0
 26 27  1  0  0  0  0
 26 24  1  0  0  0  0
 28 29  1  0  0  0  0
M  END
>  <minimizedAffinity>
-4.15690708

$$$$

 OpenBabel03252501043D

 29 30  0  0  1  0  0  0  0  0999 V2000
   37.6500   26.9950   38.9150 C   0  0  1  0  0  0  0  0  0  0  0  0
   36.3300   27.4650   38.4260 C   0  0  0  0  0  0  0  0  0  0  0  0
   37.1030   28.2390   39.4850 C   0  0  1  0  0  0  0  0  0  0  0  0
   38.5180   27.0420   38.2240 H   0  0  0  0  0  0  0  0  0  0  0  0
   35.3670   27.1020   38.7870 H   0  0  0  0  0  0  0  0  0  0  0  0
   36.2720   27.8720   37.3880 H   0  0  0  0  0  0  0  0  0  0  0  0
   37.4520   29.2090   39.0790 H   0  0  0  0  0  0  0  0  0  0  0  0
   36.4870   23.8540   40.6540 C   0  0  0  0  0  0  0  0  0  0  0  0
   36.4660   24.9760   39.8110 C   0  0  0  0  0  0  0  0  0  0  0  0
   37.6100   25.7820   39.7840 C   0  0  0  0  0  0  0  0  0  0  0  0
   38.6800   25.4590   40.5600 N   0  0  0  0  0  0  0  0  0  0  0  0
   38.6680   24.3680   41.3640 C   0  0  0  0  0  0  0  0  0  0  0  0
   37.5670   23.5660   41.4080 N   0  0  0  0  0  0  0  0  0  0  0  0
   35.6100   23.2240   40.6810 H   0  0  0  0  0  0  0  0  0  0  0  0
   35.5820   25.1640   39.2250 H   0  0  0  0  0  0  0  0  0  0  0  0
   39.5310   24.1170   41.9810 H   0  0  0  0  0  0  0  0  0  0  0  0
   36.7660   28.2420   40.7810 O   0  0  0  0  0  0  0  0  0  0  0  0
   39.0400   28.4870   42.1270 O   0  0  0  0  0  0  0  0  0  0  0  0
   37.6790   29.0850   41.8510 P   0  0  2  0  0  0  0  0  0  0  0  0
   36.9430   29.2990   43.3660 O   0  0  0  0  0  0  0  0  0  0  0  0
   37.6150   29.7460   43.9570 H   0  0  0  0  0  0  0  0  0  0  0  0
   37.9850   30.6280   41.2420 O   0  0  0  0  0  0  0  0  0  0  0  0
   36.8250   31.3390   40.9840 C   0  0  0  0  0  2  0  0  0  0  0  0
   37.1040   32.5730   40.2660 N   0  0  0  0  0  4  0  0  0  0  0  0
   36.3440   33.2560   40.4900 H   0  0  0  0  0  0  0  0  0  0  0  0
   38.3660   33.1590   40.6990 C   0  0  0  0  0  2  0  0  0  0  0  0
   39.2300   32.6170   40.3020 H   0  0  0  0  0  0  0  0  0  0  0  0
   37.1540   32.3710   38.8470 C   0  0  0  0  0  2  0  0  0  0  0  0
   37.7340   31.4510   38.6410 H   0  0  0  0  0  0  0  0  0  0  0  0
  1  4  1  6  0  0  0
  1  3  1  0  0  0  0
  1 10  1  0  0  0  0
  2  5  1  0  0  0  0
  2  1  1  0  0  0  0
  2  3  1  0  0  0  0
  3  7  1  6  0  0  0
  3 17  1  0  0  0  0
  6  2  1  0  0  0  0
  8 14  1  0  0  0  0
  8 13  1  0  0  0  0
  9  8  2  0  0  0  0
 10  9  1  0  0  0  0
 10 11  2  0  0  0  0
 11 12  1  0  0  0  0
 12 13  2  0  0  0  0
 12 16  1  0  0  0  0
 15  9  1  0  0  0  0
 17 19  1  0  0  0  0
 19 18  2  1  0  0  0
 19 20  1  0  0  0  0
 20 21  1  0  0  0  0
 22 19  1  0  0  0  0
 23 22  1  0  0  0  0
 24 25  1  0  0  0  0
 24 26  1  0  0  0  0
 24 23  1  0  0  0  0
 27 26  1  0  0  0  0
 28 24  1  0  0  0  0
 29 28  1  0  0  0  0
M  END
>  <minimizedAffinity>
-4.12294531

$$$$

 OpenBabel03252501043D

 29 30  0  0  1  0  0  0  0  0999 V2000
   38.2230   28.0710   43.3290 C   0  0  1  0  0  0  0  0  0  0  0  0
   39.3160   28.9590   42.8610 C   0  0  0  0  0  0  0  0  0  0  0  0
   37.8700   29.1980   42.4480 C   0  0  1  0  0  0  0  0  0  0  0  0
   37.9380   28.1030   44.4020 H   0  0  0  0  0  0  0  0  0  0  0  0
   39.9690   28.7490   42.0130 H   0  0  0  0  0  0  0  0  0  0  0  0
   39.7890   29.6430   43.6060 H   0  0  0  0  0  0  0  0  0  0  0  0
   37.4850   30.1310   42.9050 H   0  0  0  0  0  0  0  0  0  0  0  0
   37.0550   24.7210   42.0440 C   0  0  0  0  0  0  0  0  0  0  0  0
   37.0040   26.0000   42.6200 C   0  0  0  0  0  0  0  0  0  0  0  0
   38.2070   26.7100   42.7200 C   0  0  0  0  0  0  0  0  0  0  0  0
   39.3600   26.1470   42.2660 N   0  0  0  0  0  0  0  0  0  0  0  0
   39.3750   24.9100   41.7140 C   0  0  0  0  0  0  0  0  0  0  0  0
   38.2180   24.1980   41.6050 N   0  0  0  0  0  0  0  0  0  0  0  0
   36.1320   24.1650   41.9620 H   0  0  0  0  0  0  0  0  0  0  0  0
   36.0520   26.3770   42.9550 H   0  0  0  0  0  0  0  0  0  0  0  0
   40.3040   24.4680   41.3520 H   0  0  0  0  0  0  0  0  0  0  0  0
   37.4020   28.9170   41.2240 O   0  0  0  0  0  0  0  0  0  0  0  0
   36.3770   31.3550   41.0060 O   0  0  0  0  0  0  0  0  0  0  0  0
   36.3110   29.9220   40.5270 P   0  0  2  0  0  0  0  0  0  0  0  0
   34.6980   29.4340   40.7310 O   0  0  0  0  0  0  0  0  0  0  0  0
   34.1220   30.1550   40.3440 H   0  0  0  0  0  0  0  0  0  0  0  0
   36.5860   29.9940   38.8650 O   0  0  0  0  0  0  0  0  0  0  0  0
   37.9060   29.7370   38.5320 C   0  0  0  0  0  2  0  0  0  0  0  0
   38.8110   30.6850   39.1620 N   0  0  0  0  0  4  0  0  0  0  0  0
   38.4380   30.9040   40.1140 H   0  0  0  0  0  0  0  0  0  0  0  0
   40.1400   30.1110   39.3290 C   0  0  0  0  0  2  0  0  0  0  0  0
   40.6900   30.0640   38.3840 H   0  0  0  0  0  0  0  0  0  0  0  0
   38.9270   31.9000   38.4100 C   0  0  0  0  0  2  0  0  0  0  0  0
   39.0280   31.6450   37.3370 H   0  0  0  0  0  0  0  0  0  0  0  0
  1  4  1  1  0  0  0
  2  1  1  0  0  0  0
  2  6  1  0  0  0  0
  3  2  1  0  0  0  0
  3  7  1  1  0  0  0
  3  1  1  0  0  0  0
  5  2  1  0  0  0  0
  8  9  1  0  0  0  0
  9 10  2  0  0  0  0
  9 15  1  0  0  0  0
 10  1  1  0  0  0  0
 11 10  1  0  0  0  0
 12 11  2  0  0  0  0
 13 12  1  0  0  0  0
 13  8  2  0  0  0  0
 14  8  1  0  0  0  0
 16 12  1  0  0  0  0
 17  3  1  0  0  0  0
 19 20  1  0  0  0  0
 19 18  2  1  0  0  0
 19 17  1  0  0  0  0
 21 20  1  0  0  0  0
 22 19  1  0  0  0  0
 23 22  1  0  0  0  0
 23 24  1  0  0  0  0
 24 26  1  0  0  0  0
 24 25  1  0  0  0  0
 27 26  1  0  0  0  0
 28 24  1  0  0  0  0
 29 28  1  0  0  0  0
M  END
>  <minimizedAffinity>
-4.12185478

$$$$

 OpenBabel03252501043D

 29 30  0  0  1  0  0  0  0  0999 V2000
   39.4090   30.4780   42.8260 C   0  0  1  0  0  0  0  0  0  0  0  0
   40.8580   30.4180   42.5140 C   0  0  0  0  0  0  0  0  0  0  0  0
   39.8720   31.0820   41.5630 C   0  0  1  0  0  0  0  0  0  0  0  0
   39.0730   31.1340   43.6570 H   0  0  0  0  0  0  0  0  0  0  0  0
   41.3640   29.5620   42.0670 H   0  0  0  0  0  0  0  0  0  0  0  0
   41.5490   31.0570   43.1150 H   0  0  0  0  0  0  0  0  0  0  0  0
   40.0430   32.1760   41.5280 H   0  0  0  0  0  0  0  0  0  0  0  0
   38.6460   26.7840   42.7300 C   0  0  0  0  0  0  0  0  0  0  0  0
   39.3840   27.9730   42.8430 C   0  0  0  0  0  0  0  0  0  0  0  0
   38.6830   29.1790   42.7230 C   0  0  0  0  0  0  0  0  0  0  0  0
   37.3400   29.1580   42.5050 N   0  0  0  0  0  0  0  0  0  0  0  0
   36.6570   27.9930   42.4010 C   0  0  0  0  0  0  0  0  0  0  0  0
   37.3150   26.8050   42.5140 N   0  0  0  0  0  0  0  0  0  0  0  0
   39.1770   25.8480   42.8220 H   0  0  0  0  0  0  0  0  0  0  0  0
   40.4440   27.9070   43.0180 H   0  0  0  0  0  0  0  0  0  0  0  0
   35.5800   27.9870   42.2270 H   0  0  0  0  0  0  0  0  0  0  0  0
   39.4720   30.5210   40.4140 O   0  0  0  0  0  0  0  0  0  0  0  0
   38.5160   32.7140   39.2640 O   0  0  0  0  0  0  0  0  0  0  0  0
   39.3250   31.4510   39.0710 P   0  0  2  0  0  0  0  0  0  0  0  0
   38.6280   30.6450   37.7500 O   0  0  0  0  0  0  0  0  0  0  0  0
   38.5100   31.3210   37.0230 H   0  0  0  0  0  0  0  0  0  0  0  0
   40.8490   31.9700   38.5710 O   0  0  0  0  0  0  0  0  0  0  0  0
   40.8830   32.3070   37.2280 C   0  0  0  0  0  2  0  0  0  0  0  0
   42.1520   32.9150   36.8620 N   0  0  0  0  0  4  0  0  0  0  0  0
   42.1180   33.1450   35.8420 H   0  0  0  0  0  0  0  0  0  0  0  0
   42.3670   34.1600   37.5880 C   0  0  0  0  0  2  0  0  0  0  0  0
   42.6400   33.9850   38.6340 H   0  0  0  0  0  0  0  0  0  0  0  0
   43.2600   32.0400   37.1120 C   0  0  0  0  0  2  0  0  0  0  0  0
   43.1220   31.5680   38.1030 H   0  0  0  0  0  0  0  0  0  0  0  0
  1  4  1  1  0  0  0
  2  1  1  0  0  0  0
  2  6  1  0  0  0  0
  3  7  1  6  0  0  0
  3  2  1  0  0  0  0
  3  1  1  0  0  0  0
  5  2  1  0  0  0  0
  8 14  1  0  0  0  0
  8  9  1  0  0  0  0
  9 15  1  0  0  0  0
 10  1  1  0  0  0  0
 10  9  2  0  0  0  0
 11 10  1  0  0  0  0
 12 11  2  0  0  0  0
 12 13  1  0  0  0  0
 13  8  2  0  0  0  0
 16 12  1  0  0  0  0
 17  3  1  0  0  0  0
 19 18  2  1  0  0  0
 19 17  1  0  0  0  0
 20 19  1  0  0  0  0
 21 20  1  0  0  0  0
 22 19  1  0  0  0  0
 23 22  1  0  0  0  0
 24 28  1  0  0  0  0
 24 23  1  0  0  0  0
 24 26  1  0  0  0  0
 25 24  1  0  0  0  0
 26 27  1  0  0  0  0
 28 29  1  0  0  0  0
M  END
>  <minimizedAffinity>
-4.04181099

$$$$
