
 OpenBabel03252502553D

 35 36  0  0  0  0  0  0  0  0999 V2000
   45.5610   29.9470   44.7810 Br  0  0  0  0  0  0  0  0  0  0  0  0
   45.6460   30.5950   46.5990 C   0  0  0  0  0  0  0  0  0  0  0  0
   46.3470   31.7590   46.7840 C   0  0  0  0  0  0  0  0  0  0  0  0
   46.3850   32.1940   48.1100 C   0  0  0  0  0  0  0  0  0  0  0  0
   45.7780   31.5260   49.1510 C   0  0  0  0  0  0  0  0  0  0  0  0
   45.0990   30.3710   48.8820 C   0  0  0  0  0  0  0  0  0  0  0  0
   45.0200   29.8850   47.6020 C   0  0  0  0  0  0  0  0  0  0  0  0
   46.9200   33.1130   48.3500 H   0  0  0  0  0  0  0  0  0  0  0  0
   45.8450   31.9200   50.1690 H   0  0  0  0  0  0  0  0  0  0  0  0
   44.6330   29.8750   49.7360 H   0  0  0  0  0  0  0  0  0  0  0  0
   47.0280   32.5570   45.7790 C   0  0  0  0  0  0  0  0  0  0  0  0
   47.2950   31.8810   44.9240 H   0  0  0  0  0  0  0  0  0  0  0  0
   47.9970   32.9990   46.1160 H   0  0  0  0  0  0  0  0  0  0  0  0
   44.5460   35.3100   45.4050 C   0  0  0  0  0  0  0  0  0  0  0  0
   44.7650   35.7210   44.0760 C   0  0  0  0  0  0  0  0  0  0  0  0
   45.7440   35.0570   43.3440 C   0  0  0  0  0  0  0  0  0  0  0  0
   46.4350   34.0600   43.9280 N   0  0  0  0  0  0  0  0  0  0  0  0
   46.2060   33.6740   45.2260 C   0  0  0  0  0  0  0  0  0  0  0  0
   45.2530   34.3280   45.9220 N   0  0  0  0  0  0  0  0  0  0  0  0
   43.8220   35.7310   46.0930 H   0  0  0  0  0  0  0  0  0  0  0  0
   44.1470   36.5290   43.7260 H   0  0  0  0  0  0  0  0  0  0  0  0
   45.9020   35.3780   42.3350 H   0  0  0  0  0  0  0  0  0  0  0  0
   44.3290   28.7130   47.3330 O   0  0  0  0  0  0  0  0  0  0  0  0
   44.0820   26.1490   46.9870 O   0  0  0  0  0  0  0  0  0  0  0  0
   44.8840   27.1650   47.7850 P   0  0  2  0  0  0  0  0  0  0  0  0
   44.5910   26.9820   49.4260 O   0  0  0  0  0  0  0  0  0  0  0  0
   45.3340   27.2200   50.0160 H   0  0  0  0  0  0  0  0  0  0  0  0
   46.5120   26.9610   47.4280 O   0  0  0  0  0  0  0  0  0  0  0  0
   46.8470   25.6180   47.2720 C   0  0  0  0  0  2  0  0  0  0  0  0
   46.4960   24.8130   48.4230 N   0  0  0  0  0  4  0  0  0  0  0  0
   45.6960   25.2210   48.9480 H   0  0  0  0  0  0  0  0  0  0  0  0
   46.1730   23.4710   47.9420 C   0  0  0  0  0  2  0  0  0  0  0  0
   45.7460   23.5940   46.9180 H   0  0  0  0  0  0  0  0  0  0  0  0
   47.6190   24.6630   49.3360 C   0  0  0  0  0  2  0  0  0  0  0  0
   47.8590   25.6070   49.8670 H   0  0  0  0  0  0  0  0  0  0  0  0
  1  2  1  0  0  0  0
  2  3  2  0  0  0  0
  2  7  1  0  0  0  0
  3  4  1  0  0  0  0
  4  8  1  0  0  0  0
  4  5  2  0  0  0  0
  5  9  1  0  0  0  0
  6  5  1  0  0  0  0
  6 10  1  0  0  0  0
  7  6  2  0  0  0  0
 11 13  1  0  0  0  0
 11  3  1  0  0  0  0
 12 11  1  0  0  0  0
 14 19  1  0  0  0  0
 14 20  1  0  0  0  0
 15 14  2  0  0  0  0
 16 17  2  0  0  0  0
 16 15  1  0  0  0  0
 17 18  1  0  0  0  0
 18 11  1  0  0  0  0
 18 19  2  0  0  0  0
 21 15  1  0  0  0  0
 22 16  1  0  0  0  0
 23  7  1  0  0  0  0
 23 25  1  0  0  0  0
 25 24  2  6  0  0  0
 25 26  1  0  0  0  0
 26 27  1  0  0  0  0
 28 25  1  0  0  0  0
 29 28  1  0  0  0  0
 29 30  1  0  0  0  0
 30 31  1  0  0  0  0
 30 34  1  0  0  0  0
 32 30  1  0  0  0  0
 33 32  1  0  0  0  0
 34 35  1  0  0  0  0
M  END
>  <minimizedAffinity>
-4.83810902

>  <minimizedRMSD>
0.927487493

$$$$
