
 OpenBabel03242521073D

 38 40  0  0  1  0  0  0  0  0999 V2000
   46.0420   32.5300   38.7860 C   0  0  2  0  0  0  0  0  0  0  0  0
   46.9140   31.5220   38.1550 C   0  0  0  0  0  0  0  0  0  0  0  0
   46.2880   32.6720   37.3630 C   0  0  1  0  0  0  0  0  0  0  0  0
   45.0200   32.1350   39.0710 H   0  0  0  0  0  0  0  0  0  0  0  0
   46.4930   30.5340   37.8820 H   0  0  0  0  0  0  0  0  0  0  0  0
   47.9940   31.4810   38.3250 H   0  0  0  0  0  0  0  0  0  0  0  0
   47.0990   33.2590   36.9120 H   0  0  0  0  0  0  0  0  0  0  0  0
   46.5530   34.5700   41.8100 C   0  0  0  0  0  0  0  0  0  0  0  0
   47.7550   35.1390   41.4490 C   0  0  0  0  0  0  0  0  0  0  0  0
   48.4240   34.8990   40.2680 C   0  0  0  0  0  0  0  0  0  0  0  0
   47.8460   34.0170   39.3740 C   0  0  0  0  0  0  0  0  0  0  0  0
   46.6530   33.4670   39.7570 C   0  0  0  0  0  0  0  0  0  0  0  0
   46.0570   33.7320   40.9010 N   0  0  0  0  0  0  0  0  0  0  0  0
   48.2440   35.8410   42.1320 H   0  0  0  0  0  0  0  0  0  0  0  0
   49.3650   35.3670   40.0270 H   0  0  0  0  0  0  0  0  0  0  0  0
   48.3200   33.7910   38.4390 H   0  0  0  0  0  0  0  0  0  0  0  0
   44.5510   36.1210   44.6070 C   0  0  0  0  0  0  0  0  0  0  0  0
   45.1300   35.9860   43.3410 C   0  0  0  0  0  0  0  0  0  0  0  0
   45.8850   34.8580   43.0830 C   0  0  0  0  0  0  0  0  0  0  0  0
   46.0270   33.9460   44.0580 N   0  0  0  0  0  0  0  0  0  0  0  0
   45.4500   34.1030   45.2860 C   0  0  0  0  0  0  0  0  0  0  0  0
   44.7220   35.1900   45.5340 N   0  0  0  0  0  0  0  0  0  0  0  0
   43.9860   37.0440   44.6850 H   0  0  0  0  0  0  0  0  0  0  0  0
   45.0390   36.6910   42.5400 H   0  0  0  0  0  0  0  0  0  0  0  0
   45.5810   33.3510   46.0550 H   0  0  0  0  0  0  0  0  0  0  0  0
   45.3120   32.3010   36.4230 O   0  0  0  0  0  0  0  0  0  0  0  0
   45.7060   30.6150   34.5430 O   0  0  0  0  0  0  0  0  0  0  0  0
   45.9550   32.0920   34.8630 P   0  0  1  0  0  0  0  0  0  0  0  0
   45.0480   33.0020   33.7660 O   0  0  0  0  0  0  0  0  0  0  0  0
   44.8490   33.8660   34.2180 H   0  0  0  0  0  0  0  0  0  0  0  0
   47.5910   32.3420   34.7560 O   0  0  0  0  0  0  0  0  0  0  0  0
   48.0530   32.4840   33.4970 C   0  0  0  0  0  2  0  0  0  0  0  0
   48.8040   31.4390   32.8960 N   0  0  0  0  0  4  0  0  0  0  0  0
   49.6530   31.9380   32.4350 H   0  0  0  0  0  0  0  0  0  0  0  0
   49.4150   30.5010   33.8080 C   0  0  0  0  0  2  0  0  0  0  0  0
   49.1600   29.4480   33.5690 H   0  0  0  0  0  0  0  0  0  0  0  0
   48.1970   30.7310   31.8150 C   0  0  0  0  0  2  0  0  0  0  0  0
   47.6870   29.8010   32.0700 H   0  0  0  0  0  0  0  0  0  0  0  0
  1  4  1  1  0  0  0
  1 12  1  0  0  0  0
  2  6  1  0  0  0  0
  2  1  1  0  0  0  0
  3  7  1  6  0  0  0
  3  2  1  0  0  0  0
  3  1  1  0  0  0  0
  5  2  1  0  0  0  0
  8 19  1  0  0  0  0
  9  8  1  0  0  0  0
  9 14  1  0  0  0  0
 10  9  2  0  0  0  0
 11 12  2  0  0  0  0
 11 10  1  0  0  0  0
 12 13  1  0  0  0  0
 13  8  2  0  0  0  0
 15 10  1  0  0  0  0
 16 11  1  0  0  0  0
 17 23  1  0  0  0  0
 17 22  1  0  0  0  0
 18 17  2  0  0  0  0
 19 18  1  0  0  0  0
 19 20  2  0  0  0  0
 20 21  1  0  0  0  0
 21 22  2  0  0  0  0
 21 25  1  0  0  0  0
 24 18  1  0  0  0  0
 26  3  1  0  0  0  0
 28 27  2  6  0  0  0
 28 26  1  0  0  0  0
 29 30  1  0  0  0  0
 29 28  1  0  0  0  0
 31 28  1  0  0  0  0
 32 31  1  0  0  0  0
 33 32  1  0  0  0  0
 33 35  1  0  0  0  0
 34 33  1  0  0  0  0
 36 35  1  0  0  0  0
 37 38  1  0  0  0  0
 37 33  1  0  0  0  0
M  END
>  <minimizedAffinity>
-5.94452381

>  <minimizedRMSD>
0.463887185

$$$$
