
 OpenBabel03242513263D

 28 29  0  0  0  0  0  0  0  0999 V2000
   46.5040   34.1100   41.0360 C   0  0  0  0  0  0  0  0  0  0  0  0
   46.9570   34.8690   42.0930 C   0  0  0  0  0  0  0  0  0  0  0  0
   48.1410   35.5330   41.9070 C   0  0  0  0  0  0  0  0  0  0  0  0
   48.8580   35.4550   40.7280 C   0  0  0  0  0  0  0  0  0  0  0  0
   48.3960   34.7000   39.6940 C   0  0  0  0  0  0  0  0  0  0  0  0
   47.2040   34.0120   39.8350 C   0  0  0  0  0  0  0  0  0  0  0  0
   48.4980   36.1370   42.7510 H   0  0  0  0  0  0  0  0  0  0  0  0
   49.7900   36.0060   40.6460 H   0  0  0  0  0  0  0  0  0  0  0  0
   48.9130   34.6010   38.7470 H   0  0  0  0  0  0  0  0  0  0  0  0
   44.5110   35.9380   44.7530 C   0  0  0  0  0  0  0  0  0  0  0  0
   45.2660   35.9160   43.5690 C   0  0  0  0  0  0  0  0  0  0  0  0
   46.1740   34.9160   43.2950 C   0  0  0  0  0  0  0  0  0  0  0  0
   46.2750   33.9600   44.2630 N   0  0  0  0  0  0  0  0  0  0  0  0
   45.5580   33.9760   45.3950 C   0  0  0  0  0  0  0  0  0  0  0  0
   44.6750   34.9610   45.6460 N   0  0  0  0  0  0  0  0  0  0  0  0
   43.8380   36.7840   44.8300 H   0  0  0  0  0  0  0  0  0  0  0  0
   45.1860   36.6830   42.7870 H   0  0  0  0  0  0  0  0  0  0  0  0
   45.6540   33.2060   46.1520 H   0  0  0  0  0  0  0  0  0  0  0  0
   45.3020   33.4160   41.1780 O   0  0  0  0  0  0  0  0  0  0  0  0
   45.2560   32.4540   41.4410 H   0  0  0  0  0  0  0  0  0  0  0  0
   46.6410   33.2090   38.8370 O   0  0  0  0  0  0  0  0  0  0  0  0
   46.8730   33.4110   37.4720 C   0  0  0  0  0  0  0  0  0  0  0  0
   45.6000   33.4740   36.7880 N   0  0  0  0  0  0  0  0  0  0  0  0
   45.4590   34.4380   36.3750 H   0  0  0  0  0  0  0  0  0  0  0  0
   45.5920   32.5500   35.6700 C   0  0  0  0  0  0  0  0  0  0  0  0
   44.6030   32.0670   35.5370 H   0  0  0  0  0  0  0  0  0  0  0  0
   44.4880   33.2080   37.6770 C   0  0  0  0  0  0  0  0  0  0  0  0
   43.8820   32.3300   37.3390 H   0  0  0  0  0  0  0  0  0  0  0  0
  1 19  1  0  0  0  0
  1  2  1  0  0  0  0
  2 12  1  0  0  0  0
  3  2  2  0  0  0  0
  3  7  1  0  0  0  0
  4  3  1  0  0  0  0
  5  6  1  0  0  0  0
  5  4  2  0  0  0  0
  6  1  2  0  0  0  0
  8  4  1  0  0  0  0
  9  5  1  0  0  0  0
 10 16  1  0  0  0  0
 10 15  1  0  0  0  0
 11 10  2  0  0  0  0
 12 11  1  0  0  0  0
 12 13  2  0  0  0  0
 13 14  1  0  0  0  0
 14 15  2  0  0  0  0
 14 18  1  0  0  0  0
 17 11  1  0  0  0  0
 19 20  1  0  0  0  0
 21  6  1  0  0  0  0
 22 21  1  0  0  0  0
 23 22  1  0  0  0  0
 23 27  1  0  0  0  0
 24 23  1  0  0  0  0
 25 23  1  0  0  0  0
 26 25  1  0  0  0  0
 28 27  1  0  0  0  0
M  END
>  <minimizedAffinity>
-5.26635313

>  <minimizedRMSD>
0.301265329

$$$$
