
     RDKit          3D

 42 45  0  0  0  0  0  0  0  0999 V2000
   45.1338   33.5083   41.1550 F   0  0  0  0  0  0  0  0  0  0  0  0
   46.3330   34.0895   41.0453 C   0  0  0  0  0  0  0  0  0  0  0  0
   46.8301   34.8011   42.1170 C   0  0  0  0  0  0  0  0  0  0  0  0
   48.0738   35.4382   42.0871 C   0  0  0  0  0  0  0  0  0  0  0  0
   48.8551   35.3593   40.9334 C   0  0  0  0  0  0  0  0  0  0  0  0
   48.3106   34.6319   39.8840 C   0  0  0  0  0  0  0  0  0  0  0  0
   47.1036   34.0074   39.8968 C   0  0  0  0  0  0  0  0  0  0  0  0
   45.4540   34.0158   45.4247 C   0  0  0  0  0  0  0  0  0  0  0  0
   44.6100   35.1252   45.6571 C   0  0  0  0  0  0  0  0  0  0  0  0
   44.5180   36.1429   44.6699 C   0  0  0  0  0  0  0  0  0  0  0  0
   45.2692   35.9718   43.5414 N   0  0  0  0  0  0  0  0  0  0  0  0
   46.0556   34.9123   43.3541 C   0  0  0  0  0  0  0  0  0  0  0  0
   46.1442   33.9481   44.2869 N   0  0  0  0  0  0  0  0  0  0  0  0
   45.5280   33.0199   46.4202 N   0  0  0  0  0  0  0  0  0  0  0  0
   46.6760   33.3218   38.7991 O   0  0  0  0  0  0  0  0  0  0  0  0
   48.0808   34.6574   36.9978 O   0  0  0  0  0  0  0  0  0  0  0  0
   47.3366   33.3767   37.2491 P   0  0  2  0  0  0  0  0  0  0  0  0
   46.0596   33.1987   36.1222 O   0  0  0  0  0  0  0  0  0  0  0  0
   48.3691   32.0757   36.9368 O   0  0  0  0  0  0  0  0  0  0  0  0
   48.4032   35.9861   42.9774 H   0  0  0  0  0  0  0  0  0  0  0  0
   49.7866   35.8638   40.9758 H   0  0  0  0  0  0  0  0  0  0  0  0
   49.0230   34.6486   39.0640 H   0  0  0  0  0  0  0  0  0  0  0  0
   44.0396   35.2074   46.5678 H   0  0  0  0  0  0  0  0  0  0  0  0
   43.8799   37.0027   44.8218 H   0  0  0  0  0  0  0  0  0  0  0  0
   44.9850   32.1966   46.0714 H   0  0  0  0  0  0  0  0  0  0  0  0
   45.9901   32.9802   47.3501 H   0  0  0  0  0  0  0  0  0  0  0  0
   46.3985   33.3456   35.1859 H   0  0  0  0  0  0  0  0  0  0  0  0
   48.4754   31.3695   35.7717 C   0  0  0  0  0  0  0  0  0  0  0  0
   48.8117   30.0834   35.5737 N   0  0  0  0  0  0  0  0  0  0  0  0
   48.8719   29.5316   34.3554 C   0  0  0  0  0  0  0  0  0  0  0  0
   48.5896   30.2636   33.2432 N   0  0  0  0  0  0  0  0  0  0  0  0
   48.2461   31.5564   33.3707 C   0  0  0  0  0  0  0  0  0  0  0  0
   47.9721   32.2434   32.2038 C   0  0  0  0  0  0  0  0  0  0  0  0
   47.6157   33.5734   32.2927 C   0  0  0  0  0  0  0  0  0  0  0  0
   47.3781   34.2168   31.4565 H   0  0  0  0  0  0  0  0  0  0  0  0
   47.5435   34.1755   33.5357 C   0  0  0  0  0  0  0  0  0  0  0  0
   47.2665   35.2252   33.6620 H   0  0  0  0  0  0  0  0  0  0  0  0
   47.8269   33.4451   34.6675 C   0  0  0  0  0  0  0  0  0  0  0  0
   48.1914   32.0974   34.6227 C   0  0  0  0  0  0  0  0  0  0  0  0
   49.1561   28.4769   34.3055 H   0  0  0  0  0  0  0  0  0  0  0  0
   48.0225   31.7918   31.2212 H   0  0  0  0  0  0  0  0  0  0  0  0
   47.7623   33.9476   35.6449 H   0  0  0  0  0  0  0  0  0  0  0  0
  2  1  1  0
  2  3  2  0
  3 12  1  0
  4  3  1  0
  5  4  2  0
  6  7  2  0
  6  5  1  0
  7  2  1  0
  8  9  2  0
  8 14  1  0
 10  9  1  0
 11 10  2  0
 12 11  1  0
 12 13  2  0
 13  8  1  0
 15  7  1  0
 16 17  2  0
 17 15  1  1
 18 17  1  0
 19 17  1  0
  4 20  1  0
  5 21  1  0
  6 22  1  0
  9 23  1  0
 10 24  1  0
 14 25  1  0
 14 26  1  0
 18 27  1  0
 28 29  2  0
 29 30  1  0
 30 31  2  0
 31 32  1  0
 32 33  2  0
 33 34  1  0
 34 35  1  0
 34 36  2  0
 36 37  1  0
 36 38  1  0
 38 39  2  0
 39 28  1  0
 39 32  1  0
 30 40  1  0
 33 41  1  0
 38 42  1  0
 19 28  1  0
M  ISO  8  20  14  21  14  22  14  23  14  24  14  27   3  35  16  37  16
M  END
>  <DihAtoms>  (1) 
16,18,27,28

>  <DihDeg>  (1) 
0.0006405618606919809

$$$$
