
     RDKit          3D

 25 27  0  0  0  0  0  0  0  0999 V2000
   44.5443   36.0271   44.5247 C   0  0  0  0  0  0  0  0  0  0  0  0
   45.2606   35.8930   43.3191 C   0  0  0  0  0  0  0  0  0  0  0  0
   46.1288   34.7956   43.2096 C   0  0  0  0  0  0  0  0  0  0  0  0
   46.2282   33.9412   44.2505 N   0  0  0  0  0  0  0  0  0  0  0  0
   45.5283   34.0946   45.3960 C   0  0  0  0  0  0  0  0  0  0  0  0
   44.6941   35.1381   45.5172 N   0  0  0  0  0  0  0  0  0  0  0  0
   47.0667   34.5635   41.7118 S   0  0  0  0  0  0  0  0  0  0  0  0
   43.8934   36.8760   44.5689 H   0  0  0  0  0  0  0  0  0  0  0  0
   45.1356   36.6071   42.5310 H   0  0  0  0  0  0  0  0  0  0  0  0
   45.5943   33.4211   46.2405 H   0  0  0  0  0  0  0  0  0  0  0  0
   46.0789   33.5554   40.6157 C   0  0  0  0  0  0  0  0  0  0  0  0
   45.2611   34.2633   39.7850 N   0  0  0  0  0  0  0  0  0  0  0  0
   44.4523   33.6417   38.8972 C   0  0  0  0  0  0  0  0  0  0  0  0
   44.4941   32.3056   38.8745 N   0  0  0  0  0  0  0  0  0  0  0  0
   45.2647   31.5439   39.6526 C   0  0  0  0  0  0  0  0  0  0  0  0
   45.2854   30.1651   39.6057 C   0  0  0  0  0  0  0  0  0  0  0  0
   46.1248   29.4692   40.4601 C   0  0  0  0  0  0  0  0  0  0  0  0
   46.1190   28.3863   40.4002 H   0  0  0  0  0  0  0  0  0  0  0  0
   46.9330   30.1472   41.3499 C   0  0  0  0  0  0  0  0  0  0  0  0
   47.5804   29.5672   42.0066 H   0  0  0  0  0  0  0  0  0  0  0  0
   46.9496   31.5388   41.4370 C   0  0  0  0  0  0  0  0  0  0  0  0
   46.0902   32.1710   40.5584 C   0  0  0  0  0  0  0  0  0  0  0  0
   43.8135   34.2432   38.2507 H   0  0  0  0  0  0  0  0  0  0  0  0
   44.6263   29.7166   38.8853 H   0  0  0  0  0  0  0  0  0  0  0  0
   47.5774   32.0835   42.1292 H   0  0  0  0  0  0  0  0  0  0  0  0
  1  6  2  0
  2  1  1  0
  3  2  2  0
  3  4  1  0
  4  5  2  0
  5  6  1  0
  7  3  1  0
  1  8  1  0
  2  9  1  0
  5 10  1  0
 11 12  2  0
 12 13  1  0
 13 14  2  0
 14 15  1  0
 15 16  2  0
 16 17  1  0
 17 18  1  0
 17 19  2  0
 19 20  1  0
 19 21  1  0
 21 22  2  0
 22 11  1  0
 22 15  1  0
 13 23  1  0
 16 24  1  0
 21 25  1  0
  7 11  1  0
M  ISO  5   8  14   9  14  10  14  18  16  20  16
M  END
>  <DihAtoms>  (1) 
2,6,10,11

>  <DihDeg>  (1) 
-89.61400676986321

$$$$
