
 OpenBabel03252505473D

 32 35  0  0  1  0  0  0  0  0999 V2000
   46.3200   31.7680   43.6120 C   0  0  0  0  0  0  0  0  0  0  0  0
   46.4930   33.0490   43.0350 C   0  0  0  0  0  0  0  0  0  0  0  0
   45.5720   33.5630   42.1180 C   0  0  0  0  0  0  0  0  0  0  0  0
   44.5130   32.7590   41.8180 N   0  0  0  0  0  0  0  0  0  0  0  0
   44.3810   31.5290   42.3940 C   0  0  0  0  0  0  0  0  0  0  0  0
   45.2540   31.0450   43.2640 N   0  0  0  0  0  0  0  0  0  0  0  0
   47.3480   33.6350   43.3100 H   0  0  0  0  0  0  0  0  0  0  0  0
   45.7110   34.5390   41.6840 H   0  0  0  0  0  0  0  0  0  0  0  0
   47.3370   31.2940   44.5560 C   0  0  1  0  0  0  0  0  0  0  0  0
   47.4150   29.7240   44.5630 C   0  0  1  0  0  0  0  0  0  0  0  0
   48.5530   30.6600   44.2140 C   0  0  0  0  0  0  0  0  0  0  0  0
   47.1720   31.7140   45.5890 H   0  0  0  0  0  0  0  0  0  0  0  0
   46.9340   29.1840   43.7540 H   0  0  0  0  0  0  0  0  0  0  0  0
   48.8860   30.6040   43.1440 H   0  0  0  0  0  0  0  0  0  0  0  0
   49.4350   30.7030   44.8900 H   0  0  0  0  0  0  0  0  0  0  0  0
   47.5260   29.1260   45.9450 C   0  0  0  0  0  0  0  0  0  0  0  0
   47.4920   27.7610   45.9540 F   0  0  0  0  0  0  0  0  0  0  0  0
   48.7500   29.5210   46.5070 F   0  0  0  0  0  0  0  0  0  0  0  0
   46.5600   29.6570   46.7870 F   0  0  0  0  0  0  0  0  0  0  0  0
   43.2580   30.8340   41.9860 O   0  0  0  0  0  0  0  0  0  0  0  0
   42.0540   31.3900   41.6570 C   0  0  0  0  0  0  0  0  0  0  0  0
   41.1300   31.9310   42.4880 N   0  0  0  0  0  0  0  0  0  0  0  0
   39.9710   32.4460   41.9910 C   0  0  0  0  0  3  0  0  0  0  0  0
   39.7020   32.4400   40.6720 N   0  0  0  0  0  0  0  0  0  0  0  0
   40.5920   31.9150   39.8240 C   0  0  0  0  0  0  0  0  0  0  0  0
   40.2700   31.9310   38.4810 C   0  0  0  0  0  3  0  0  0  0  0  0
   41.1570   31.4020   37.5810 C   0  0  0  0  0  0  0  0  0  0  0  0
   40.9550   31.3890   36.5160 H   0  0  0  0  0  0  0  0  0  0  0  0
   42.3700   30.8510   38.0010 C   0  0  0  0  0  0  0  0  0  0  0  0
   43.1180   30.4160   37.3520 H   0  0  0  0  0  0  0  0  0  0  0  0
   42.6670   30.8480   39.3480 C   0  0  0  0  0  3  0  0  0  0  0  0
   41.7980   31.3710   40.2800 C   0  0  0  0  0  0  0  0  0  0  0  0
  1  9  1  0  0  0  0
  2  7  1  0  0  0  0
  2  1  2  0  0  0  0
  3  2  1  0  0  0  0
  4  3  2  0  0  0  0
  4  5  1  0  0  0  0
  5  6  2  0  0  0  0
  6  1  1  0  0  0  0
  8  3  1  0  0  0  0
  9 10  1  0  0  0  0
  9 12  1  1  0  0  0
 10 13  1  6  0  0  0
 10 16  1  0  0  0  0
 11  9  1  0  0  0  0
 11 10  1  0  0  0  0
 11 15  1  0  0  0  0
 14 11  1  0  0  0  0
 16 17  1  0  0  0  0
 16 18  1  0  0  0  0
 16 19  1  0  0  0  0
 20  5  1  0  0  0  0
 21 20  1  0  0  0  0
 21 22  1  0  0  0  0
 23 22  2  0  0  0  0
 24 23  1  0  0  0  0
 25 32  1  0  0  0  0
 25 24  2  0  0  0  0
 26 25  1  0  0  0  0
 27 29  1  0  0  0  0
 27 26  2  0  0  0  0
 28 27  1  0  0  0  0
 29 31  2  0  0  0  0
 30 29  1  0  0  0  0
 31 32  1  0  0  0  0
 32 21  2  0  0  0  0
M  END
>  <minimizedAffinity>
-2.79580832

>  <minimizedRMSD>
9.58350945

$$$$
