REMARK  Name = 
REMARK  3 active torsions:
REMARK  status: ('A' for Active; 'I' for Inactive)
REMARK    1  A    between atoms: C_2  and  C_13
REMARK    2  A    between atoms: C_3  and  C_7
REMARK    3  A    between atoms: C_13  and  C_23
REMARK                            x       y       z     vdW  Elec       q    Type
REMARK                         _______ _______ _______ _____ _____    ______ ____
ROOT
ATOM      1  C   UNL     1      44.624  35.464  45.011  0.00  0.00    +0.000 A 
ATOM      2  C   UNL     1      45.284  35.547  43.779  0.00  0.00    +0.000 A 
ATOM      3  C   UNL     1      46.274  34.591  43.537  0.00  0.00    +0.000 A 
ATOM      4  N   UNL     1      46.543  33.654  44.480  0.00  0.00    +0.000 NA
ATOM      5  C   UNL     1      45.870  33.624  45.654  0.00  0.00    +0.000 A 
ATOM      6  N   UNL     1      44.905  34.523  45.940  0.00  0.00    +0.000 NA
ATOM      7  H   UNL     1      43.840  36.145  45.316  0.00  0.00    +0.000 HD
ATOM      8  H   UNL     1      46.219  32.807  46.283  0.00  0.00    +0.000 HD
ENDROOT
BRANCH   3   9
ATOM      9  C   UNL     1      46.987  34.654  42.269  0.00  0.00    +0.000 A 
ATOM     10  C   UNL     1      48.131  35.373  41.964  0.00  0.00    +0.000 A 
ATOM     11  C   UNL     1      48.656  35.300  40.682  0.00  0.00    +0.000 A 
ATOM     12  C   UNL     1      48.048  34.525  39.729  0.00  0.00    +0.000 A 
ATOM     13  C   UNL     1      46.906  33.805  40.024  0.00  0.00    +0.000 A 
ATOM     14  C   UNL     1      46.390  33.883  41.302  0.00  0.00    +0.000 A 
ATOM     15  H   UNL     1      48.518  35.945  42.795  0.00  0.00    +0.000 HD
ATOM     16  H   UNL     1      49.551  35.881  40.498  0.00  0.00    +0.000 HD
ATOM     17  H   UNL     1      48.539  34.544  38.774  0.00  0.00    +0.000 HD
ATOM     18  H   UNL     1      46.489  33.222  39.220  0.00  0.00    +0.000 HD
ATOM     19  H   UNL     1      45.489  33.268  41.415  0.00  0.00    +0.000 HD
ENDBRANCH   3   9
BRANCH   2  20
ATOM     20  C   UNL     1      44.907  36.601  42.847  0.00  0.00    +0.000 C 
ATOM     21  H   UNL     1      45.877  36.940  42.370  0.00  0.00    +0.000 HD
ATOM     22  H   UNL     1      44.475  37.444  43.417  0.00  0.00    +0.000 HD
BRANCH  20  23
ATOM     23  C   UNL     1      44.019  36.235  41.746  0.00  0.00    +0.000 A 
ATOM     24  N   UNL     1      43.624  36.961  40.682  0.00  0.00    +0.000 NA
ATOM     25  C   UNL     1      42.797  36.445  39.742  0.00  0.00    +0.000 A 
ATOM     26  N   UNL     1      42.315  35.182  39.806  0.00  0.00    +0.000 NA
ATOM     27  C   UNL     1      42.698  34.420  40.876  0.00  0.00    +0.000 A 
ATOM     28  C   UNL     1      42.148  33.138  40.846  0.00  0.00    +0.000 A 
ATOM     29  C   UNL     1      42.545  32.367  41.941  0.00  0.00    +0.000 A 
ATOM     30  H   UNL     1      42.147  31.348  41.975  0.00  0.00    +0.000 HD
ATOM     31  C   UNL     1      43.379  32.782  42.954  0.00  0.00    +0.000 A 
ATOM     32  H   UNL     1      43.636  32.120  43.767  0.00  0.00    +0.000 HD
ATOM     33  C   UNL     1      43.833  34.056  42.843  0.00  0.00    +0.000 A 
ATOM     34  C   UNL     1      43.540  34.945  41.831  0.00  0.00    +0.000 A 
ENDBRANCH  20  23
ENDBRANCH   2  20
TORSDOF 3
