
 OpenBabel03252503283D

 28 30  0  0  0  0  0  0  0  0999 V2000
   45.5170   35.4330   42.8500 C   0  0  0  0  0  0  0  0  0  0  0  0
   45.7070   36.8300   42.7500 C   0  0  0  0  0  0  0  0  0  0  0  0
   45.2510   37.5660   43.8630 C   0  0  0  0  0  0  0  0  0  0  0  0
   44.6870   36.8980   44.8980 N   0  0  0  0  0  0  0  0  0  0  0  0
   44.5360   35.5510   44.9240 C   0  0  0  0  0  0  0  0  0  0  0  0
   44.9560   34.8140   43.8890 N   0  0  0  0  0  0  0  0  0  0  0  0
   47.3660   34.4270   41.7390 C   0  0  0  0  0  0  0  0  0  0  0  0
   48.0100   35.0330   42.6320 O   0  0  0  0  0  0  0  0  0  0  0  0
   45.9630   34.5940   41.7800 N   0  0  0  0  0  0  0  0  0  0  0  0
   46.1610   37.2800   41.8970 H   0  0  0  0  0  0  0  0  0  0  0  0
   44.0690   35.1590   45.8180 H   0  0  0  0  0  0  0  0  0  0  0  0
   45.2880   34.1810   41.1380 H   0  0  0  0  0  0  0  0  0  0  0  0
   47.7710   33.5480   40.6140 C   0  0  0  0  0  0  0  0  0  0  0  0
   47.0160   33.3180   39.5220 N   0  0  0  0  0  0  0  0  0  0  0  0
   47.3780   32.5320   38.5190 C   0  0  0  0  0  3  0  0  0  0  0  0
   48.5390   31.8920   38.5090 N   0  0  0  0  0  0  0  0  0  0  0  0
   49.3760   32.0550   39.5630 C   0  0  0  0  0  0  0  0  0  0  0  0
   50.5770   31.3920   39.5480 C   0  0  0  0  0  3  0  0  0  0  0  0
   51.4580   31.5170   40.5810 C   0  0  0  0  0  0  0  0  0  0  0  0
   52.3760   30.9600   40.4850 H   0  0  0  0  0  0  0  0  0  0  0  0
   51.0860   32.3370   41.6330 C   0  0  0  0  0  0  0  0  0  0  0  0
   51.8080   32.4200   42.4430 H   0  0  0  0  0  0  0  0  0  0  0  0
   49.8710   32.9850   41.6070 C   0  0  0  0  0  3  0  0  0  0  0  0
   48.9690   32.8800   40.5890 C   0  0  0  0  0  0  0  0  0  0  0  0
   45.4490   39.0130   43.7600 C   0  0  0  0  0  0  0  0  0  0  0  0
   44.8580   39.6240   44.8790 F   0  0  0  0  0  0  0  0  0  0  0  0
   44.7290   39.4400   42.6680 F   0  0  0  0  0  0  0  0  0  0  0  0
   46.7650   39.3860   43.7560 F   0  0  0  0  0  0  0  0  0  0  0  0
  1  6  1  0  0  0  0
  2  1  2  0  0  0  0
  2  3  1  0  0  0  0
  3  4  2  0  0  0  0
  4  5  1  0  0  0  0
  5 11  1  0  0  0  0
  6  5  2  0  0  0  0
  7  9  1  0  0  0  0
  7  8  2  0  0  0  0
  9  1  1  0  0  0  0
 10  2  1  0  0  0  0
 12  9  1  0  0  0  0
 13  7  1  0  0  0  0
 14 13  2  0  0  0  0
 15 14  1  0  0  0  0
 16 15  2  0  0  0  0
 16 17  1  0  0  0  0
 17 24  1  0  0  0  0
 18 17  2  0  0  0  0
 18 19  1  0  0  0  0
 19 21  2  0  0  0  0
 20 19  1  0  0  0  0
 21 22  1  0  0  0  0
 23 21  1  0  0  0  0
 24 13  1  0  0  0  0
 24 23  2  0  0  0  0
 25  3  1  0  0  0  0
 25 26  1  0  0  0  0
 27 25  1  0  0  0  0
 28 25  1  0  0  0  0
M  END
>  <minimizedAffinity>
-4.07755995

>  <minimizedRMSD>
7.41255522

$$$$
