
 OpenBabel03252508443D

 42 45  0  0  0  0  0  0  0  0999 V2000
   36.9390   28.0080   39.4880 C   0  0  0  0  0  0  0  0  0  0  0  0
   37.9260   28.1750   39.9510 H   0  0  0  0  0  0  0  0  0  0  0  0
   36.9780   28.4010   38.4520 H   0  0  0  0  0  0  0  0  0  0  0  0
   37.1550   25.7260   40.4680 C   0  0  0  0  0  0  0  0  0  0  0  0
   36.6590   26.5510   39.4720 C   0  0  0  0  0  0  0  0  0  0  0  0
   35.9040   25.9810   38.4760 C   0  0  0  0  0  0  0  0  0  0  0  0
   35.6490   24.6420   38.4680 C   0  0  0  0  0  0  0  0  0  0  0  0
   36.1290   23.8050   39.4430 C   0  0  0  0  0  0  0  0  0  0  0  0
   36.8900   24.4150   40.4340 C   0  0  0  0  0  0  0  0  0  0  0  0
   35.5030   26.5970   37.6870 H   0  0  0  0  0  0  0  0  0  0  0  0
   35.0560   24.1770   37.6890 H   0  0  0  0  0  0  0  0  0  0  0  0
   35.9900   22.7370   39.5330 H   0  0  0  0  0  0  0  0  0  0  0  0
   37.3060   23.8230   41.2410 H   0  0  0  0  0  0  0  0  0  0  0  0
   38.3470   27.3150   43.6800 C   0  0  0  0  0  0  0  0  0  0  0  0
   37.4900   26.6890   42.7610 C   0  0  0  0  0  0  0  0  0  0  0  0
   37.9550   26.3780   41.5090 C   0  0  0  0  0  0  0  0  0  0  0  0
   39.2470   26.6980   41.2130 N   0  0  0  0  0  0  0  0  0  0  0  0
   40.0630   27.3010   42.1080 C   0  0  0  0  0  0  0  0  0  0  0  0
   39.6230   27.6090   43.3320 N   0  0  0  0  0  0  0  0  0  0  0  0
   37.9800   27.5590   44.6640 H   0  0  0  0  0  0  0  0  0  0  0  0
   36.4600   26.4360   43.0010 H   0  0  0  0  0  0  0  0  0  0  0  0
   41.0840   27.5370   41.8300 H   0  0  0  0  0  0  0  0  0  0  0  0
   35.9800   28.7880   40.2250 N   0  0  0  0  0  0  0  0  0  0  0  0
   35.4890   28.2590   40.9550 H   0  0  0  0  0  0  0  0  0  0  0  0
   36.6440   30.2470   40.8270 S   0  0  0  0  0  0  0  0  0  0  0  0
   37.6620   29.9690   41.8880 O   0  0  0  0  0  0  0  0  0  0  0  0
   37.5320   29.6740   42.8060 H   0  0  0  0  0  0  0  0  0  0  0  0
   35.5920   31.1680   41.3450 O   0  0  0  0  0  0  0  0  0  0  0  0
   35.0210   31.7680   40.7960 H   0  0  0  0  0  0  0  0  0  0  0  0
   37.4190   30.9930   39.5350 O   0  0  0  0  0  0  0  0  0  0  0  0
   38.2800   32.0700   39.7010 C   0  0  0  0  0  0  0  0  0  0  0  0
   38.0840   33.1200   40.5520 N   0  0  0  0  0  0  0  0  0  0  0  0
   38.9900   34.1110   40.6290 C   0  0  0  0  0  3  0  0  0  0  0  0
   40.1310   34.1570   39.9010 N   0  0  0  0  0  0  0  0  0  0  0  0
   40.3340   33.1180   39.0530 C   0  0  0  0  0  0  0  0  0  0  0  0
   41.4990   33.1690   38.3110 C   0  0  0  0  0  3  0  0  0  0  0  0
   41.7910   32.1470   37.4140 C   0  0  0  0  0  0  0  0  0  0  0  0
   42.7170   32.1920   36.8280 H   0  0  0  0  0  0  0  0  0  0  0  0
   40.9050   31.0870   37.2770 C   0  0  0  0  0  0  0  0  0  0  0  0
   41.1520   30.2990   36.5720 H   0  0  0  0  0  0  0  0  0  0  0  0
   39.7430   31.0670   38.0380 C   0  0  0  0  0  3  0  0  0  0  0  0
   39.4270   32.0670   38.9340 C   0  0  0  0  0  0  0  0  0  0  0  0
  1  2  1  0  0  0  0
  1 23  1  0  0  0  0
  3  1  1  0  0  0  0
  4 16  1  0  0  0  0
  5  1  1  0  0  0  0
  5  4  2  0  0  0  0
  6  5  1  0  0  0  0
  7  6  2  0  0  0  0
  7  8  1  0  0  0  0
  8 12  1  0  0  0  0
  8  9  2  0  0  0  0
  9  4  1  0  0  0  0
  9 13  1  0  0  0  0
 10  6  1  0  0  0  0
 11  7  1  0  0  0  0
 14 20  1  0  0  0  0
 15 21  1  0  0  0  0
 15 14  2  0  0  0  0
 16 15  1  0  0  0  0
 17 16  2  0  0  0  0
 17 18  1  0  0  0  0
 18 19  2  0  0  0  0
 19 14  1  0  0  0  0
 22 18  1  0  0  0  0
 23 25  1  0  0  0  0
 23 24  1  0  0  0  0
 25 28  1  0  0  0  0
 25 26  1  0  0  0  0
 26 27  1  0  0  0  0
 29 28  1  0  0  0  0
 30 31  1  0  0  0  0
 30 25  1  0  0  0  0
 31 32  1  0  0  0  0
 32 33  2  0  0  0  0
 34 33  1  0  0  0  0
 35 34  2  0  0  0  0
 36 35  1  0  0  0  0
 37 36  2  0  0  0  0
 38 37  1  0  0  0  0
 39 37  1  0  0  0  0
 39 41  2  0  0  0  0
 40 39  1  0  0  0  0
 41 42  1  0  0  0  0
 42 35  1  0  0  0  0
 42 31  2  0  0  0  0
M  END
>  <minimizedAffinity>
-6.14671707

$$$$

 OpenBabel03252508443D

 42 45  0  0  0  0  0  0  0  0999 V2000
   36.6370   27.8100   39.8420 C   0  0  0  0  0  0  0  0  0  0  0  0
   37.6240   28.3010   39.8250 H   0  0  0  0  0  0  0  0  0  0  0  0
   36.2320   27.8230   38.8100 H   0  0  0  0  0  0  0  0  0  0  0  0
   36.6690   25.3530   39.4240 C   0  0  0  0  0  0  0  0  0  0  0  0
   36.8070   26.4110   40.3070 C   0  0  0  0  0  0  0  0  0  0  0  0
   37.1050   26.1260   41.6170 C   0  0  0  0  0  0  0  0  0  0  0  0
   37.2600   24.8390   42.0370 C   0  0  0  0  0  0  0  0  0  0  0  0
   37.1280   23.7750   41.1820 C   0  0  0  0  0  0  0  0  0  0  0  0
   36.8260   24.0990   39.8650 C   0  0  0  0  0  0  0  0  0  0  0  0
   37.2190   26.9290   42.3280 H   0  0  0  0  0  0  0  0  0  0  0  0
   37.4940   24.5980   43.0680 H   0  0  0  0  0  0  0  0  0  0  0  0
   37.2290   22.7220   41.4070 H   0  0  0  0  0  0  0  0  0  0  0  0
   36.7060   23.3150   39.1250 H   0  0  0  0  0  0  0  0  0  0  0  0
   34.8930   26.1750   36.1940 C   0  0  0  0  0  0  0  0  0  0  0  0
   35.0790   25.8330   37.5430 C   0  0  0  0  0  0  0  0  0  0  0  0
   36.3510   25.7050   38.0360 C   0  0  0  0  0  0  0  0  0  0  0  0
   37.3910   25.9180   37.1800 N   0  0  0  0  0  0  0  0  0  0  0  0
   37.1980   26.2470   35.8820 C   0  0  0  0  0  0  0  0  0  0  0  0
   35.9630   26.3760   35.3870 N   0  0  0  0  0  0  0  0  0  0  0  0
   33.8910   26.2760   35.8070 H   0  0  0  0  0  0  0  0  0  0  0  0
   34.2470   25.6630   38.2230 H   0  0  0  0  0  0  0  0  0  0  0  0
   38.0530   26.4080   35.2360 H   0  0  0  0  0  0  0  0  0  0  0  0
   35.7720   28.6090   40.6700 N   0  0  0  0  0  0  0  0  0  0  0  0
   35.2540   28.0670   41.3720 H   0  0  0  0  0  0  0  0  0  0  0  0
   36.5820   29.9480   41.3650 S   0  0  0  0  0  0  0  0  0  0  0  0
   36.9490   29.6670   42.7880 O   0  0  0  0  0  0  0  0  0  0  0  0
   36.3790   29.6290   43.5770 H   0  0  0  0  0  0  0  0  0  0  0  0
   35.7740   31.1980   41.2740 O   0  0  0  0  0  0  0  0  0  0  0  0
   35.6950   31.7840   40.4750 H   0  0  0  0  0  0  0  0  0  0  0  0
   37.9990   30.1620   40.4870 O   0  0  0  0  0  0  0  0  0  0  0  0
   38.5530   31.4150   40.2560 C   0  0  0  0  0  0  0  0  0  0  0  0
   38.2250   32.5620   40.9200 N   0  0  0  0  0  0  0  0  0  0  0  0
   38.8300   33.7240   40.6100 C   0  0  0  0  0  3  0  0  0  0  0  0
   39.7780   33.8560   39.6530 N   0  0  0  0  0  0  0  0  0  0  0  0
   40.1100   32.7210   38.9880 C   0  0  0  0  0  0  0  0  0  0  0  0
   41.0780   32.8590   38.0110 C   0  0  0  0  0  3  0  0  0  0  0  0
   41.4820   31.7490   37.2780 C   0  0  0  0  0  0  0  0  0  0  0  0
   42.2510   31.8640   36.5040 H   0  0  0  0  0  0  0  0  0  0  0  0
   40.9050   30.5140   37.5390 C   0  0  0  0  0  0  0  0  0  0  0  0
   41.2350   29.6590   36.9550 H   0  0  0  0  0  0  0  0  0  0  0  0
   39.9350   30.4090   38.5270 C   0  0  0  0  0  3  0  0  0  0  0  0
   39.5150   31.4930   39.2700 C   0  0  0  0  0  0  0  0  0  0  0  0
  1  5  1  0  0  0  0
  1 23  1  0  0  0  0
  2  1  1  0  0  0  0
  3  1  1  0  0  0  0
  4  9  2  0  0  0  0
  4  5  1  0  0  0  0
  5  6  2  0  0  0  0
  6  7  1  0  0  0  0
  6 10  1  0  0  0  0
  7 11  1  0  0  0  0
  8 12  1  0  0  0  0
  8  7  2  0  0  0  0
  9  8  1  0  0  0  0
 13  9  1  0  0  0  0
 14 15  1  0  0  0  0
 15 16  2  0  0  0  0
 15 21  1  0  0  0  0
 16  4  1  0  0  0  0
 17 16  1  0  0  0  0
 18 17  2  0  0  0  0
 19 18  1  0  0  0  0
 19 14  2  0  0  0  0
 20 14  1  0  0  0  0
 22 18  1  0  0  0  0
 23 25  1  0  0  0  0
 23 24  1  0  0  0  0
 25 26  1  0  0  0  0
 26 27  1  0  0  0  0
 28 25  1  0  0  0  0
 29 28  1  0  0  0  0
 30 25  1  0  0  0  0
 31 30  1  0  0  0  0
 31 32  1  0  0  0  0
 33 32  2  0  0  0  0
 34 33  1  0  0  0  0
 35 42  1  0  0  0  0
 35 34  2  0  0  0  0
 36 35  1  0  0  0  0
 37 39  1  0  0  0  0
 37 36  2  0  0  0  0
 38 37  1  0  0  0  0
 39 41  2  0  0  0  0
 40 39  1  0  0  0  0
 41 42  1  0  0  0  0
 42 31  2  0  0  0  0
M  END
>  <minimizedAffinity>
-6.10402393

$$$$

 OpenBabel03252508443D

 42 45  0  0  0  0  0  0  0  0999 V2000
   37.7340   30.7000   37.4580 C   0  0  0  0  0  0  0  0  0  0  0  0
   37.2450   31.2630   36.6460 H   0  0  0  0  0  0  0  0  0  0  0  0
   38.4000   31.3990   38.0040 H   0  0  0  0  0  0  0  0  0  0  0  0
   36.5300   30.6960   39.6400 C   0  0  0  0  0  0  0  0  0  0  0  0
   36.6900   30.1700   38.3690 C   0  0  0  0  0  0  0  0  0  0  0  0
   35.8570   29.1490   37.9810 C   0  0  0  0  0  0  0  0  0  0  0  0
   34.9000   28.6660   38.8230 C   0  0  0  0  0  0  0  0  0  0  0  0
   34.7230   29.1710   40.0860 C   0  0  0  0  0  0  0  0  0  0  0  0
   35.5820   30.2020   40.4460 C   0  0  0  0  0  0  0  0  0  0  0  0
   35.9570   28.7180   36.9980 H   0  0  0  0  0  0  0  0  0  0  0  0
   34.2360   27.8600   38.5330 H   0  0  0  0  0  0  0  0  0  0  0  0
   34.0010   28.8660   40.8310 H   0  0  0  0  0  0  0  0  0  0  0  0
   35.5070   30.6560   41.4270 H   0  0  0  0  0  0  0  0  0  0  0  0
   38.2220   34.0490   40.0330 C   0  0  0  0  0  0  0  0  0  0  0  0
   37.2860   33.0880   39.6180 C   0  0  0  0  0  0  0  0  0  0  0  0
   37.4410   31.7840   40.0090 C   0  0  0  0  0  0  0  0  0  0  0  0
   38.5140   31.4770   40.7930 N   0  0  0  0  0  0  0  0  0  0  0  0
   39.4100   32.4130   41.1860 C   0  0  0  0  0  0  0  0  0  0  0  0
   39.2700   33.6890   40.8120 N   0  0  0  0  0  0  0  0  0  0  0  0
   38.0990   35.0760   39.7240 H   0  0  0  0  0  0  0  0  0  0  0  0
   36.4310   33.3370   38.9930 H   0  0  0  0  0  0  0  0  0  0  0  0
   40.2480   32.1250   41.8090 H   0  0  0  0  0  0  0  0  0  0  0  0
   38.5570   29.6890   36.8450 N   0  0  0  0  0  0  0  0  0  0  0  0
   38.6410   29.7850   35.8260 H   0  0  0  0  0  0  0  0  0  0  0  0
   40.0840   29.5380   37.6040 S   0  0  0  0  0  0  0  0  0  0  0  0
   40.4180   30.7740   38.3780 O   0  0  0  0  0  0  0  0  0  0  0  0
   40.6900   31.6510   38.0540 H   0  0  0  0  0  0  0  0  0  0  0  0
   41.1660   29.2300   36.6250 O   0  0  0  0  0  0  0  0  0  0  0  0
   41.3730   28.3340   36.2480 H   0  0  0  0  0  0  0  0  0  0  0  0
   39.9610   28.2560   38.6850 O   0  0  0  0  0  0  0  0  0  0  0  0
   40.0820   28.4220   40.0580 C   0  0  0  0  0  0  0  0  0  0  0  0
   41.0990   29.0760   40.6920 N   0  0  0  0  0  0  0  0  0  0  0  0
   41.1140   29.1750   42.0330 C   0  0  0  0  0  3  0  0  0  0  0  0
   40.1610   28.6570   42.8440 N   0  0  0  0  0  0  0  0  0  0  0  0
   39.1460   28.0050   42.2230 C   0  0  0  0  0  0  0  0  0  0  0  0
   38.1760   27.4770   43.0540 C   0  0  0  0  0  3  0  0  0  0  0  0
   37.0970   26.7910   42.5060 C   0  0  0  0  0  0  0  0  0  0  0  0
   36.3290   26.3740   43.1700 H   0  0  0  0  0  0  0  0  0  0  0  0
   37.0110   26.6460   41.1280 C   0  0  0  0  0  0  0  0  0  0  0  0
   36.1600   26.1080   40.7200 H   0  0  0  0  0  0  0  0  0  0  0  0
   38.0030   27.1890   40.3220 C   0  0  0  0  0  3  0  0  0  0  0  0
   39.0840   27.8740   40.8370 C   0  0  0  0  0  0  0  0  0  0  0  0
  1  3  1  0  0  0  0
  1  5  1  0  0  0  0
  2  1  1  0  0  0  0
  4 16  1  0  0  0  0
  4  9  1  0  0  0  0
  5  4  2  0  0  0  0
  6  5  1  0  0  0  0
  6  7  2  0  0  0  0
  7  8  1  0  0  0  0
  8  9  2  0  0  0  0
  8 12  1  0  0  0  0
  9 13  1  0  0  0  0
 10  6  1  0  0  0  0
 11  7  1  0  0  0  0
 14 19  1  0  0  0  0
 15 16  1  0  0  0  0
 15 14  2  0  0  0  0
 16 17  2  0  0  0  0
 17 18  1  0  0  0  0
 18 22  1  0  0  0  0
 19 18  2  0  0  0  0
 20 14  1  0  0  0  0
 21 15  1  0  0  0  0
 23  1  1  0  0  0  0
 23 25  1  0  0  0  0
 24 23  1  0  0  0  0
 25 26  1  0  0  0  0
 25 30  1  0  0  0  0
 27 26  1  0  0  0  0
 28 25  1  0  0  0  0
 29 28  1  0  0  0  0
 30 31  1  0  0  0  0
 31 32  2  0  0  0  0
 31 42  1  0  0  0  0
 32 33  1  0  0  0  0
 33 34  2  0  0  0  0
 35 34  1  0  0  0  0
 35 36  1  0  0  0  0
 37 36  2  0  0  0  0
 37 38  1  0  0  0  0
 39 37  1  0  0  0  0
 40 39  1  0  0  0  0
 41 42  1  0  0  0  0
 41 39  2  0  0  0  0
 42 35  2  0  0  0  0
M  END
>  <minimizedAffinity>
-6.09196949

$$$$

 OpenBabel03252508443D

 42 45  0  0  0  0  0  0  0  0999 V2000
   37.2370   30.2850   40.5850 C   0  0  0  0  0  0  0  0  0  0  0  0
   37.7370   31.2440   40.7940 H   0  0  0  0  0  0  0  0  0  0  0  0
   36.2600   30.2880   41.1080 H   0  0  0  0  0  0  0  0  0  0  0  0
   37.5890   31.0840   38.2500 C   0  0  0  0  0  0  0  0  0  0  0  0
   37.0330   30.1620   39.1200 C   0  0  0  0  0  0  0  0  0  0  0  0
   36.2910   29.1360   38.5880 C   0  0  0  0  0  0  0  0  0  0  0  0
   36.1070   29.0280   37.2420 C   0  0  0  0  0  0  0  0  0  0  0  0
   36.6490   29.9290   36.3610 C   0  0  0  0  0  0  0  0  0  0  0  0
   37.3920   30.9540   36.9330 C   0  0  0  0  0  0  0  0  0  0  0  0
   35.8450   28.4010   39.2400 H   0  0  0  0  0  0  0  0  0  0  0  0
   35.5240   28.2250   36.8060 H   0  0  0  0  0  0  0  0  0  0  0  0
   36.5670   29.9390   35.2830 H   0  0  0  0  0  0  0  0  0  0  0  0
   37.8540   31.7070   36.3050 H   0  0  0  0  0  0  0  0  0  0  0  0
   38.6850   34.1610   40.1460 C   0  0  0  0  0  0  0  0  0  0  0  0
   37.8360   33.1820   39.6050 C   0  0  0  0  0  0  0  0  0  0  0  0
   38.3730   32.1610   38.8640 C   0  0  0  0  0  0  0  0  0  0  0  0
   39.7240   32.1470   38.6840 N   0  0  0  0  0  0  0  0  0  0  0  0
   40.5310   33.0970   39.2110 C   0  0  0  0  0  0  0  0  0  0  0  0
   40.0210   34.0980   39.9360 N   0  0  0  0  0  0  0  0  0  0  0  0
   38.2610   34.9640   40.7300 H   0  0  0  0  0  0  0  0  0  0  0  0
   36.7590   33.1970   39.7500 H   0  0  0  0  0  0  0  0  0  0  0  0
   41.6010   33.0470   39.0440 H   0  0  0  0  0  0  0  0  0  0  0  0
   38.0470   29.2420   41.1600 N   0  0  0  0  0  0  0  0  0  0  0  0
   39.0020   29.5410   41.3920 H   0  0  0  0  0  0  0  0  0  0  0  0
   37.2800   28.4680   42.4810 S   0  0  0  0  0  0  0  0  0  0  0  0
   35.9140   27.9940   42.0980 O   0  0  0  0  0  0  0  0  0  0  0  0
   35.0990   28.5080   41.9540 H   0  0  0  0  0  0  0  0  0  0  0  0
   37.2070   29.3510   43.6800 O   0  0  0  0  0  0  0  0  0  0  0  0
   37.9420   29.5150   44.3280 H   0  0  0  0  0  0  0  0  0  0  0  0
   38.2170   27.1250   42.8620 O   0  0  0  0  0  0  0  0  0  0  0  0
   39.0610   26.5180   41.9420 C   0  0  0  0  0  0  0  0  0  0  0  0
   40.3050   26.9600   41.5940 N   0  0  0  0  0  0  0  0  0  0  0  0
   41.0370   26.2880   40.6860 C   0  0  0  0  0  3  0  0  0  0  0  0
   40.6240   25.1600   40.0620 N   0  0  0  0  0  0  0  0  0  0  0  0
   39.3900   24.7120   40.4020 C   0  0  0  0  0  0  0  0  0  0  0  0
   38.9720   23.5610   39.7630 C   0  0  0  0  0  3  0  0  0  0  0  0
   37.7190   23.0280   40.0490 C   0  0  0  0  0  0  0  0  0  0  0  0
   37.3920   22.1130   39.5380 H   0  0  0  0  0  0  0  0  0  0  0  0
   36.9040   23.6640   40.9750 C   0  0  0  0  0  0  0  0  0  0  0  0
   35.9290   23.2320   41.1840 H   0  0  0  0  0  0  0  0  0  0  0  0
   37.3540   24.8200   41.5990 C   0  0  0  0  0  3  0  0  0  0  0  0
   38.5910   25.3710   41.3360 C   0  0  0  0  0  0  0  0  0  0  0  0
  1  2  1  0  0  0  0
  1  3  1  0  0  0  0
  1 23  1  0  0  0  0
  4 16  1  0  0  0  0
  4  5  1  0  0  0  0
  5  1  1  0  0  0  0
  6  5  2  0  0  0  0
  6 10  1  0  0  0  0
  7  6  1  0  0  0  0
  8  9  1  0  0  0  0
  8  7  2  0  0  0  0
  9  4  2  0  0  0  0
 11  7  1  0  0  0  0
 12  8  1  0  0  0  0
 13  9  1  0  0  0  0
 14 20  1  0  0  0  0
 15 21  1  0  0  0  0
 15 14  2  0  0  0  0
 16 15  1  0  0  0  0
 17 16  2  0  0  0  0
 17 18  1  0  0  0  0
 18 19  2  0  0  0  0
 19 14  1  0  0  0  0
 22 18  1  0  0  0  0
 23 24  1  0  0  0  0
 23 25  1  0  0  0  0
 25 30  1  0  0  0  0
 25 28  1  0  0  0  0
 26 25  1  0  0  0  0
 27 26  1  0  0  0  0
 28 29  1  0  0  0  0
 31 30  1  0  0  0  0
 32 31  1  0  0  0  0
 33 32  2  0  0  0  0
 34 35  2  0  0  0  0
 34 33  1  0  0  0  0
 35 42  1  0  0  0  0
 36 37  2  0  0  0  0
 36 35  1  0  0  0  0
 37 39  1  0  0  0  0
 38 37  1  0  0  0  0
 39 40  1  0  0  0  0
 39 41  2  0  0  0  0
 42 41  1  0  0  0  0
 42 31  2  0  0  0  0
M  END
>  <minimizedAffinity>
-6.08884716

$$$$

 OpenBabel03252508443D

 42 45  0  0  0  0  0  0  0  0999 V2000
   37.8380   29.1400   37.8850 C   0  0  0  0  0  0  0  0  0  0  0  0
   38.0820   29.5050   38.8960 H   0  0  0  0  0  0  0  0  0  0  0  0
   38.2850   28.1320   37.7680 H   0  0  0  0  0  0  0  0  0  0  0  0
   35.5570   28.8980   38.8590 C   0  0  0  0  0  0  0  0  0  0  0  0
   36.3630   29.0660   37.7450 C   0  0  0  0  0  0  0  0  0  0  0  0
   35.7570   29.1610   36.5160 C   0  0  0  0  0  0  0  0  0  0  0  0
   34.4020   29.0920   36.3950 C   0  0  0  0  0  0  0  0  0  0  0  0
   33.5830   28.9270   37.4830 C   0  0  0  0  0  0  0  0  0  0  0  0
   34.2280   28.8340   38.7100 C   0  0  0  0  0  0  0  0  0  0  0  0
   36.3580   29.2920   35.6300 H   0  0  0  0  0  0  0  0  0  0  0  0
   33.9090   29.1640   35.4320 H   0  0  0  0  0  0  0  0  0  0  0  0
   32.5040   28.8590   37.5010 H   0  0  0  0  0  0  0  0  0  0  0  0
   33.6530   28.7020   39.6190 H   0  0  0  0  0  0  0  0  0  0  0  0
   37.2190   29.6660   42.1620 C   0  0  0  0  0  0  0  0  0  0  0  0
   36.5540   29.8770   40.9430 C   0  0  0  0  0  0  0  0  0  0  0  0
   36.2470   28.8030   40.1490 C   0  0  0  0  0  0  0  0  0  0  0  0
   36.6080   27.5630   40.5870 N   0  0  0  0  0  0  0  0  0  0  0  0
   37.2480   27.3730   41.7640 C   0  0  0  0  0  0  0  0  0  0  0  0
   37.5540   28.4120   42.5490 N   0  0  0  0  0  0  0  0  0  0  0  0
   37.4610   30.5120   42.7860 H   0  0  0  0  0  0  0  0  0  0  0  0
   36.2690   30.8670   40.5960 H   0  0  0  0  0  0  0  0  0  0  0  0
   37.5160   26.3700   42.0740 H   0  0  0  0  0  0  0  0  0  0  0  0
   38.4790   30.0220   36.9430 N   0  0  0  0  0  0  0  0  0  0  0  0
   38.0050   30.0710   36.0340 H   0  0  0  0  0  0  0  0  0  0  0  0
   38.7750   31.5770   37.5970 S   0  0  0  0  0  0  0  0  0  0  0  0
   37.5130   32.3790   37.6520 O   0  0  0  0  0  0  0  0  0  0  0  0
   37.0170   32.8010   36.9280 H   0  0  0  0  0  0  0  0  0  0  0  0
   39.8250   32.3120   36.8350 O   0  0  0  0  0  0  0  0  0  0  0  0
   40.8070   32.1910   36.9310 H   0  0  0  0  0  0  0  0  0  0  0  0
   39.3210   31.3430   39.1690 O   0  0  0  0  0  0  0  0  0  0  0  0
   40.2920   32.1470   39.7510 C   0  0  0  0  0  0  0  0  0  0  0  0
   40.6430   33.3980   39.3300 N   0  0  0  0  0  0  0  0  0  0  0  0
   41.6020   34.0880   39.9730 C   0  0  0  0  0  3  0  0  0  0  0  0
   42.2790   33.6250   41.0510 N   0  0  0  0  0  0  0  0  0  0  0  0
   41.9360   32.3830   41.4770 C   0  0  0  0  0  0  0  0  0  0  0  0
   42.6290   31.9140   42.5760 C   0  0  0  0  0  3  0  0  0  0  0  0
   42.3460   30.6510   43.0840 C   0  0  0  0  0  0  0  0  0  0  0  0
   42.8980   30.2830   43.9570 H   0  0  0  0  0  0  0  0  0  0  0  0
   41.3670   29.8760   42.4740 C   0  0  0  0  0  0  0  0  0  0  0  0
   41.1610   28.8920   42.8860 H   0  0  0  0  0  0  0  0  0  0  0  0
   40.6900   30.3780   41.3710 C   0  0  0  0  0  3  0  0  0  0  0  0
   40.9500   31.6270   40.8460 C   0  0  0  0  0  0  0  0  0  0  0  0
  1  2  1  0  0  0  0
  3  1  1  0  0  0  0
  4 16  1  0  0  0  0
  5  1  1  0  0  0  0
  5  4  2  0  0  0  0
  6  5  1  0  0  0  0
  7  6  2  0  0  0  0
  7  8  1  0  0  0  0
  8 12  1  0  0  0  0
  8  9  2  0  0  0  0
  9  4  1  0  0  0  0
  9 13  1  0  0  0  0
 10  6  1  0  0  0  0
 11  7  1  0  0  0  0
 14 19  1  0  0  0  0
 14 20  1  0  0  0  0
 15 14  2  0  0  0  0
 16 17  2  0  0  0  0
 16 15  1  0  0  0  0
 17 18  1  0  0  0  0
 18 22  1  0  0  0  0
 18 19  2  0  0  0  0
 21 15  1  0  0  0  0
 23 25  1  0  0  0  0
 23  1  1  0  0  0  0
 24 23  1  0  0  0  0
 25 26  1  0  0  0  0
 25 30  1  0  0  0  0
 27 26  1  0  0  0  0
 28 29  1  0  0  0  0
 28 25  1  0  0  0  0
 30 31  1  0  0  0  0
 31 42  1  0  0  0  0
 32 31  2  0  0  0  0
 32 33  1  0  0  0  0
 33 34  2  0  0  0  0
 34 35  1  0  0  0  0
 35 36  1  0  0  0  0
 36 37  2  0  0  0  0
 37 38  1  0  0  0  0
 39 40  1  0  0  0  0
 39 37  1  0  0  0  0
 41 39  2  0  0  0  0
 42 41  1  0  0  0  0
 42 35  2  0  0  0  0
M  END
>  <minimizedAffinity>
-6.07757616

$$$$

 OpenBabel03252508443D

 42 45  0  0  0  0  0  0  0  0999 V2000
   36.1990   30.7690   40.0820 C   0  0  0  0  0  0  0  0  0  0  0  0
   37.2780   30.9930   40.0400 H   0  0  0  0  0  0  0  0  0  0  0  0
   35.6470   31.7050   39.8630 H   0  0  0  0  0  0  0  0  0  0  0  0
   36.8200   29.3850   38.1040 C   0  0  0  0  0  0  0  0  0  0  0  0
   35.8840   29.7380   39.0620 C   0  0  0  0  0  0  0  0  0  0  0  0
   34.6640   29.1080   39.0390 C   0  0  0  0  0  0  0  0  0  0  0  0
   34.3810   28.1620   38.1000 C   0  0  0  0  0  0  0  0  0  0  0  0
   35.2910   27.7950   37.1420 C   0  0  0  0  0  0  0  0  0  0  0  0
   36.5140   28.4520   37.1940 C   0  0  0  0  0  0  0  0  0  0  0  0
   33.9150   29.3610   39.7720 H   0  0  0  0  0  0  0  0  0  0  0  0
   33.4230   27.6560   38.0680 H   0  0  0  0  0  0  0  0  0  0  0  0
   35.1730   27.0620   36.3550 H   0  0  0  0  0  0  0  0  0  0  0  0
   37.2890   28.2200   36.4720 H   0  0  0  0  0  0  0  0  0  0  0  0
   39.6090   31.9110   37.7850 C   0  0  0  0  0  0  0  0  0  0  0  0
   38.3320   31.3390   37.6670 C   0  0  0  0  0  0  0  0  0  0  0  0
   38.1080   30.0830   38.1690 C   0  0  0  0  0  0  0  0  0  0  0  0
   39.1500   29.4410   38.7680 N   0  0  0  0  0  0  0  0  0  0  0  0
   40.3770   30.0040   38.8760 C   0  0  0  0  0  0  0  0  0  0  0  0
   40.6090   31.2270   38.3900 N   0  0  0  0  0  0  0  0  0  0  0  0
   39.7840   32.8990   37.3890 H   0  0  0  0  0  0  0  0  0  0  0  0
   37.5020   31.8540   37.1880 H   0  0  0  0  0  0  0  0  0  0  0  0
   41.1780   29.4580   39.3600 H   0  0  0  0  0  0  0  0  0  0  0  0
   35.8930   30.3790   41.4340 N   0  0  0  0  0  0  0  0  0  0  0  0
   34.9480   29.9920   41.5490 H   0  0  0  0  0  0  0  0  0  0  0  0
   37.0900   29.3570   42.1100 S   0  0  0  0  0  0  0  0  0  0  0  0
   36.9500   29.2870   43.5980 O   0  0  0  0  0  0  0  0  0  0  0  0
   37.1710   29.9550   44.2710 H   0  0  0  0  0  0  0  0  0  0  0  0
   38.4670   29.7890   41.7370 O   0  0  0  0  0  0  0  0  0  0  0  0
   38.9260   29.5950   40.8770 H   0  0  0  0  0  0  0  0  0  0  0  0
   36.8220   27.8210   41.4820 O   0  0  0  0  0  0  0  0  0  0  0  0
   37.6080   26.7280   41.8210 C   0  0  0  0  0  0  0  0  0  0  0  0
   38.5130   26.6870   42.8440 N   0  0  0  0  0  0  0  0  0  0  0  0
   39.2220   25.5680   43.0810 C   0  0  0  0  0  3  0  0  0  0  0  0
   39.1080   24.4290   42.3580 N   0  0  0  0  0  0  0  0  0  0  0  0
   38.2120   24.4600   41.3400 C   0  0  0  0  0  0  0  0  0  0  0  0
   38.1000   23.2960   40.6040 C   0  0  0  0  0  3  0  0  0  0  0  0
   37.2060   23.2350   39.5410 C   0  0  0  0  0  0  0  0  0  0  0  0
   37.1200   22.3080   38.9600 H   0  0  0  0  0  0  0  0  0  0  0  0
   36.4370   24.3490   39.2330 C   0  0  0  0  0  0  0  0  0  0  0  0
   35.7440   24.2810   38.3990 H   0  0  0  0  0  0  0  0  0  0  0  0
   36.5740   25.5030   39.9920 C   0  0  0  0  0  3  0  0  0  0  0  0
   37.4530   25.5930   41.0520 C   0  0  0  0  0  0  0  0  0  0  0  0
  1 23  1  0  0  0  0
  2  1  1  0  0  0  0
  3  1  1  0  0  0  0
  4 16  1  0  0  0  0
  4  5  1  0  0  0  0
  5  1  1  0  0  0  0
  6  5  2  0  0  0  0
  6 10  1  0  0  0  0
  7  6  1  0  0  0  0
  8  9  1  0  0  0  0
  8  7  2  0  0  0  0
  9  4  2  0  0  0  0
 11  7  1  0  0  0  0
 12  8  1  0  0  0  0
 13  9  1  0  0  0  0
 14 19  1  0  0  0  0
 15 14  2  0  0  0  0
 15 16  1  0  0  0  0
 16 17  2  0  0  0  0
 17 18  1  0  0  0  0
 18 22  1  0  0  0  0
 19 18  2  0  0  0  0
 20 14  1  0  0  0  0
 21 15  1  0  0  0  0
 23 24  1  0  0  0  0
 23 25  1  0  0  0  0
 25 26  1  0  0  0  0
 26 27  1  0  0  0  0
 28 25  1  0  0  0  0
 29 28  1  0  0  0  0
 30 31  1  0  0  0  0
 30 25  1  0  0  0  0
 31 32  1  0  0  0  0
 32 33  2  0  0  0  0
 34 33  1  0  0  0  0
 35 34  2  0  0  0  0
 36 35  1  0  0  0  0
 37 36  2  0  0  0  0
 38 37  1  0  0  0  0
 39 37  1  0  0  0  0
 39 41  2  0  0  0  0
 40 39  1  0  0  0  0
 41 42  1  0  0  0  0
 42 35  1  0  0  0  0
 42 31  2  0  0  0  0
M  END
>  <minimizedAffinity>
-6.07094812

$$$$

 OpenBabel03252508443D

 42 45  0  0  0  0  0  0  0  0999 V2000
   37.0110   30.7170   41.0700 C   0  0  0  0  0  0  0  0  0  0  0  0
   36.3700   30.6920   40.1740 H   0  0  0  0  0  0  0  0  0  0  0  0
   36.5510   31.4150   41.7990 H   0  0  0  0  0  0  0  0  0  0  0  0
   36.7170   28.2480   40.8910 C   0  0  0  0  0  0  0  0  0  0  0  0
   37.0830   29.3510   41.6450 C   0  0  0  0  0  0  0  0  0  0  0  0
   37.5120   29.1410   42.9320 C   0  0  0  0  0  0  0  0  0  0  0  0
   37.5760   27.8830   43.4540 C   0  0  0  0  0  0  0  0  0  0  0  0
   37.2190   26.7760   42.7270 C   0  0  0  0  0  0  0  0  0  0  0  0
   36.7900   27.0250   41.4290 C   0  0  0  0  0  0  0  0  0  0  0  0
   37.8040   29.9790   43.5440 H   0  0  0  0  0  0  0  0  0  0  0  0
   37.9120   27.7010   44.4690 H   0  0  0  0  0  0  0  0  0  0  0  0
   37.2310   25.7410   43.0390 H   0  0  0  0  0  0  0  0  0  0  0  0
   36.4900   26.2030   40.7880 H   0  0  0  0  0  0  0  0  0  0  0  0
   36.5530   28.8660   37.1690 C   0  0  0  0  0  0  0  0  0  0  0  0
   37.0970   28.5990   38.4350 C   0  0  0  0  0  0  0  0  0  0  0  0
   36.2660   28.5210   39.5220 C   0  0  0  0  0  0  0  0  0  0  0  0
   34.9310   28.7100   39.3180 N   0  0  0  0  0  0  0  0  0  0  0  0
   34.4190   28.9670   38.0920 C   0  0  0  0  0  0  0  0  0  0  0  0
   35.2190   29.0450   37.0230 N   0  0  0  0  0  0  0  0  0  0  0  0
   37.2090   28.9270   36.3140 H   0  0  0  0  0  0  0  0  0  0  0  0
   38.1620   28.4490   38.5950 H   0  0  0  0  0  0  0  0  0  0  0  0
   33.3520   29.1100   37.9750 H   0  0  0  0  0  0  0  0  0  0  0  0
   38.2840   31.2620   40.6750 N   0  0  0  0  0  0  0  0  0  0  0  0
   38.9110   30.5740   40.2400 H   0  0  0  0  0  0  0  0  0  0  0  0
   38.1260   32.6770   39.7230 S   0  0  0  0  0  0  0  0  0  0  0  0
   36.9490   33.4860   40.1670 O   0  0  0  0  0  0  0  0  0  0  0  0
   35.9990   33.3180   40.0360 H   0  0  0  0  0  0  0  0  0  0  0  0
   38.0230   32.3630   38.2700 O   0  0  0  0  0  0  0  0  0  0  0  0
   38.7820   32.1570   37.6630 H   0  0  0  0  0  0  0  0  0  0  0  0
   39.5170   33.5860   39.9770 O   0  0  0  0  0  0  0  0  0  0  0  0
   40.7370   33.0090   40.3050 C   0  0  0  0  0  0  0  0  0  0  0  0
   40.9860   32.2570   41.4180 N   0  0  0  0  0  0  0  0  0  0  0  0
   42.2120   31.7470   41.6340 C   0  0  0  0  0  3  0  0  0  0  0  0
   43.2660   31.9240   40.8030 N   0  0  0  0  0  0  0  0  0  0  0  0
   43.0280   32.6690   39.6950 C   0  0  0  0  0  0  0  0  0  0  0  0
   44.1070   32.8480   38.8500 C   0  0  0  0  0  3  0  0  0  0  0  0
   43.9560   33.5980   37.6880 C   0  0  0  0  0  0  0  0  0  0  0  0
   44.8160   33.7370   37.0200 H   0  0  0  0  0  0  0  0  0  0  0  0
   42.7210   34.1580   37.3940 C   0  0  0  0  0  0  0  0  0  0  0  0
   42.6240   34.7400   36.4820 H   0  0  0  0  0  0  0  0  0  0  0  0
   41.6570   33.9590   38.2650 C   0  0  0  0  0  3  0  0  0  0  0  0
   41.7770   33.2200   39.4240 C   0  0  0  0  0  0  0  0  0  0  0  0
  1  5  1  0  0  0  0
  1  3  1  0  0  0  0
  2  1  1  0  0  0  0
  4  9  2  0  0  0  0
  4  5  1  0  0  0  0
  5  6  2  0  0  0  0
  6  7  1  0  0  0  0
  6 10  1  0  0  0  0
  7 11  1  0  0  0  0
  8 12  1  0  0  0  0
  8  7  2  0  0  0  0
  9  8  1  0  0  0  0
 13  9  1  0  0  0  0
 14 15  1  0  0  0  0
 15 21  1  0  0  0  0
 15 16  2  0  0  0  0
 16  4  1  0  0  0  0
 17 16  1  0  0  0  0
 18 17  2  0  0  0  0
 19 14  2  0  0  0  0
 19 18  1  0  0  0  0
 20 14  1  0  0  0  0
 22 18  1  0  0  0  0
 23  1  1  0  0  0  0
 24 23  1  0  0  0  0
 25 30  1  0  0  0  0
 25 26  1  0  0  0  0
 25 23  1  0  0  0  0
 27 26  1  0  0  0  0
 28 25  1  0  0  0  0
 29 28  1  0  0  0  0
 30 31  1  0  0  0  0
 31 32  1  0  0  0  0
 32 33  2  0  0  0  0
 34 33  1  0  0  0  0
 35 34  2  0  0  0  0
 36 35  1  0  0  0  0
 37 36  2  0  0  0  0
 38 37  1  0  0  0  0
 39 37  1  0  0  0  0
 39 41  2  0  0  0  0
 40 39  1  0  0  0  0
 41 42  1  0  0  0  0
 42 35  1  0  0  0  0
 42 31  2  0  0  0  0
M  END
>  <minimizedAffinity>
-6.04002666

$$$$

 OpenBabel03252508443D

 42 45  0  0  0  0  0  0  0  0999 V2000
   35.0130   29.1530   38.3850 C   0  0  0  0  0  0  0  0  0  0  0  0
   36.0620   29.4730   38.2720 H   0  0  0  0  0  0  0  0  0  0  0  0
   34.3850   29.8130   37.7520 H   0  0  0  0  0  0  0  0  0  0  0  0
   33.9380   27.3840   36.9980 C   0  0  0  0  0  0  0  0  0  0  0  0
   34.8920   27.7450   37.9350 C   0  0  0  0  0  0  0  0  0  0  0  0
   35.7160   26.7650   38.4300 C   0  0  0  0  0  0  0  0  0  0  0  0
   35.6000   25.4720   38.0120 C   0  0  0  0  0  0  0  0  0  0  0  0
   34.6630   25.0910   37.0850 C   0  0  0  0  0  0  0  0  0  0  0  0
   33.8460   26.1070   36.6060 C   0  0  0  0  0  0  0  0  0  0  0  0
   36.4690   27.0140   39.1600 H   0  0  0  0  0  0  0  0  0  0  0  0
   36.2420   24.6870   38.3940 H   0  0  0  0  0  0  0  0  0  0  0  0
   34.4850   24.1020   36.6860 H   0  0  0  0  0  0  0  0  0  0  0  0
   33.0800   25.8880   35.8710 H   0  0  0  0  0  0  0  0  0  0  0  0
   32.2550   29.9950   34.8500 C   0  0  0  0  0  0  0  0  0  0  0  0
   33.1260   28.9560   35.2190 C   0  0  0  0  0  0  0  0  0  0  0  0
   33.0810   28.4630   36.4970 C   0  0  0  0  0  0  0  0  0  0  0  0
   32.1810   29.0130   37.3610 N   0  0  0  0  0  0  0  0  0  0  0  0
   31.3470   30.0130   36.9930 C   0  0  0  0  0  0  0  0  0  0  0  0
   31.3800   30.5040   35.7490 N   0  0  0  0  0  0  0  0  0  0  0  0
   32.2920   30.3820   33.8440 H   0  0  0  0  0  0  0  0  0  0  0  0
   33.8430   28.5210   34.5280 H   0  0  0  0  0  0  0  0  0  0  0  0
   30.6460   30.4210   37.7110 H   0  0  0  0  0  0  0  0  0  0  0  0
   34.6420   29.3710   39.7590 N   0  0  0  0  0  0  0  0  0  0  0  0
   34.1280   28.5870   40.1780 H   0  0  0  0  0  0  0  0  0  0  0  0
   35.9680   29.8580   40.7280 S   0  0  0  0  0  0  0  0  0  0  0  0
   35.6370   31.0990   41.4950 O   0  0  0  0  0  0  0  0  0  0  0  0
   35.5580   32.0170   41.1810 H   0  0  0  0  0  0  0  0  0  0  0  0
   37.2050   30.0600   39.9200 O   0  0  0  0  0  0  0  0  0  0  0  0
   37.8200   29.3450   39.6080 H   0  0  0  0  0  0  0  0  0  0  0  0
   36.2430   28.6160   41.8260 O   0  0  0  0  0  0  0  0  0  0  0  0
   37.5200   28.2270   42.2100 C   0  0  0  0  0  0  0  0  0  0  0  0
   38.5330   29.0700   42.5690 N   0  0  0  0  0  0  0  0  0  0  0  0
   39.7340   28.5790   42.9230 C   0  0  0  0  0  3  0  0  0  0  0  0
   40.0360   27.2590   42.9550 N   0  0  0  0  0  0  0  0  0  0  0  0
   39.0360   26.4140   42.6010 C   0  0  0  0  0  0  0  0  0  0  0  0
   39.3490   25.0680   42.6340 C   0  0  0  0  0  3  0  0  0  0  0  0
   38.3860   24.1270   42.2860 C   0  0  0  0  0  0  0  0  0  0  0  0
   38.6380   23.0600   42.3140 H   0  0  0  0  0  0  0  0  0  0  0  0
   37.1200   24.5550   41.9080 C   0  0  0  0  0  0  0  0  0  0  0  0
   36.3820   23.8050   41.6400 H   0  0  0  0  0  0  0  0  0  0  0  0
   36.8390   25.9150   41.8850 C   0  0  0  0  0  3  0  0  0  0  0  0
   37.7740   26.8710   42.2250 C   0  0  0  0  0  0  0  0  0  0  0  0
  1 23  1  0  0  0  0
  2  1  1  0  0  0  0
  3  1  1  0  0  0  0
  4  5  1  0  0  0  0
  5  1  1  0  0  0  0
  5  6  2  0  0  0  0
  6 10  1  0  0  0  0
  7 11  1  0  0  0  0
  7  6  1  0  0  0  0
  8  7  2  0  0  0  0
  9  4  2  0  0  0  0
  9  8  1  0  0  0  0
 12  8  1  0  0  0  0
 13  9  1  0  0  0  0
 14 15  2  0  0  0  0
 14 19  1  0  0  0  0
 15 16  1  0  0  0  0
 16  4  1  0  0  0  0
 16 17  2  0  0  0  0
 18 17  1  0  0  0  0
 18 22  1  0  0  0  0
 19 18  2  0  0  0  0
 20 14  1  0  0  0  0
 21 15  1  0  0  0  0
 23 24  1  0  0  0  0
 23 25  1  0  0  0  0
 25 26  1  0  0  0  0
 25 30  1  0  0  0  0
 27 26  1  0  0  0  0
 28 25  1  0  0  0  0
 29 28  1  0  0  0  0
 30 31  1  0  0  0  0
 31 42  2  0  0  0  0
 31 32  1  0  0  0  0
 32 33  2  0  0  0  0
 33 34  1  0  0  0  0
 35 36  1  0  0  0  0
 35 34  2  0  0  0  0
 37 38  1  0  0  0  0
 37 36  2  0  0  0  0
 39 37  1  0  0  0  0
 40 39  1  0  0  0  0
 41 39  2  0  0  0  0
 41 42  1  0  0  0  0
 42 35  1  0  0  0  0
M  END
>  <minimizedAffinity>
-6.03946495

$$$$

 OpenBabel03252508443D

 42 45  0  0  0  0  0  0  0  0999 V2000
   35.4520   29.5750   40.5290 C   0  0  0  0  0  0  0  0  0  0  0  0
   35.6790   29.6660   39.4540 H   0  0  0  0  0  0  0  0  0  0  0  0
   34.3530   29.4740   40.6380 H   0  0  0  0  0  0  0  0  0  0  0  0
   36.6580   27.4180   40.2000 C   0  0  0  0  0  0  0  0  0  0  0  0
   36.1320   28.3680   41.0600 C   0  0  0  0  0  0  0  0  0  0  0  0
   36.2580   28.1580   42.4120 C   0  0  0  0  0  0  0  0  0  0  0  0
   36.8840   27.0470   42.8940 C   0  0  0  0  0  0  0  0  0  0  0  0
   37.4140   26.0940   42.0620 C   0  0  0  0  0  0  0  0  0  0  0  0
   37.2670   26.3370   40.7020 C   0  0  0  0  0  0  0  0  0  0  0  0
   35.8590   28.8790   43.1070 H   0  0  0  0  0  0  0  0  0  0  0  0
   36.9910   26.8670   43.9570 H   0  0  0  0  0  0  0  0  0  0  0  0
   37.9260   25.1820   42.3340 H   0  0  0  0  0  0  0  0  0  0  0  0
   37.6580   25.6320   39.9770 H   0  0  0  0  0  0  0  0  0  0  0  0
   35.3210   27.7160   36.6810 C   0  0  0  0  0  0  0  0  0  0  0  0
   35.3600   27.4180   38.0530 C   0  0  0  0  0  0  0  0  0  0  0  0
   36.4990   27.6850   38.7670 C   0  0  0  0  0  0  0  0  0  0  0  0
   37.5550   28.2340   38.1010 N   0  0  0  0  0  0  0  0  0  0  0  0
   37.5040   28.5160   36.7790 C   0  0  0  0  0  0  0  0  0  0  0  0
   36.4000   28.2610   36.0700 N   0  0  0  0  0  0  0  0  0  0  0  0
   34.4240   27.5050   36.1200 H   0  0  0  0  0  0  0  0  0  0  0  0
   34.5170   26.9800   38.5810 H   0  0  0  0  0  0  0  0  0  0  0  0
   38.3670   28.9520   36.2890 H   0  0  0  0  0  0  0  0  0  0  0  0
   35.8510   30.8060   41.1590 N   0  0  0  0  0  0  0  0  0  0  0  0
   36.1170   30.6990   42.1450 H   0  0  0  0  0  0  0  0  0  0  0  0
   37.0420   31.6480   40.2610 S   0  0  0  0  0  0  0  0  0  0  0  0
   36.8560   33.1270   40.3870 O   0  0  0  0  0  0  0  0  0  0  0  0
   36.1800   33.7000   39.9860 H   0  0  0  0  0  0  0  0  0  0  0  0
   37.0480   31.2440   38.8260 O   0  0  0  0  0  0  0  0  0  0  0  0
   37.4790   30.4310   38.4510 H   0  0  0  0  0  0  0  0  0  0  0  0
   38.5280   31.2430   40.9360 O   0  0  0  0  0  0  0  0  0  0  0  0
   39.4670   30.4700   40.2670 C   0  0  0  0  0  0  0  0  0  0  0  0
   39.8580   30.6420   38.9690 N   0  0  0  0  0  0  0  0  0  0  0  0
   40.7800   29.8280   38.4230 C   0  0  0  0  0  3  0  0  0  0  0  0
   41.3790   28.8080   39.0810 N   0  0  0  0  0  0  0  0  0  0  0  0
   40.9980   28.6300   40.3710 C   0  0  0  0  0  0  0  0  0  0  0  0
   41.6110   27.5880   41.0390 C   0  0  0  0  0  3  0  0  0  0  0  0
   41.2830   27.3300   42.3660 C   0  0  0  0  0  0  0  0  0  0  0  0
   41.7730   26.5010   42.8920 H   0  0  0  0  0  0  0  0  0  0  0  0
   40.3390   28.1260   43.0010 C   0  0  0  0  0  0  0  0  0  0  0  0
   40.0970   27.9080   44.0370 H   0  0  0  0  0  0  0  0  0  0  0  0
   39.7410   29.1650   42.3000 C   0  0  0  0  0  3  0  0  0  0  0  0
   40.0470   29.4440   40.9840 C   0  0  0  0  0  0  0  0  0  0  0  0
  1  3  1  0  0  0  0
  1  5  1  0  0  0  0
  1 23  1  0  0  0  0
  2  1  1  0  0  0  0
  4  9  2  0  0  0  0
  4  5  1  0  0  0  0
  5  6  2  0  0  0  0
  6  7  1  0  0  0  0
  6 10  1  0  0  0  0
  7 11  1  0  0  0  0
  8 12  1  0  0  0  0
  8  7  2  0  0  0  0
  9  8  1  0  0  0  0
 13  9  1  0  0  0  0
 14 15  1  0  0  0  0
 15 21  1  0  0  0  0
 15 16  2  0  0  0  0
 16  4  1  0  0  0  0
 17 16  1  0  0  0  0
 18 17  2  0  0  0  0
 19 14  2  0  0  0  0
 19 18  1  0  0  0  0
 20 14  1  0  0  0  0
 22 18  1  0  0  0  0
 23 24  1  0  0  0  0
 25 26  1  0  0  0  0
 25 30  1  0  0  0  0
 25 23  1  0  0  0  0
 27 26  1  0  0  0  0
 28 25  1  0  0  0  0
 29 28  1  0  0  0  0
 31 30  1  0  0  0  0
 31 42  1  0  0  0  0
 32 31  2  0  0  0  0
 33 32  1  0  0  0  0
 33 34  2  0  0  0  0
 34 35  1  0  0  0  0
 35 42  2  0  0  0  0
 35 36  1  0  0  0  0
 36 37  2  0  0  0  0
 37 38  1  0  0  0  0
 37 39  1  0  0  0  0
 39 40  1  0  0  0  0
 41 39  2  0  0  0  0
 42 41  1  0  0  0  0
M  END
>  <minimizedAffinity>
-6.00083685

$$$$
