
     RDKit          3D

 48 52  0  0  0  0  0  0  0  0999 V2000
   43.9691   34.6546   42.3740 C   0  0  1  0  0  0  0  0  0  0  0  0
   44.1551   36.1343   41.9091 C   0  0  0  0  0  0  0  0  0  0  0  0
   44.0013   34.9425   40.9700 C   0  0  2  0  0  0  0  0  0  0  0  0
   45.1140   34.1193   43.1393 C   0  0  0  0  0  0  0  0  0  0  0  0
   46.3583   34.0522   42.4892 C   0  0  0  0  0  0  0  0  0  0  0  0
   47.4524   33.5534   43.1932 C   0  0  0  0  0  0  0  0  0  0  0  0
   47.2596   33.1579   44.4714 N   0  0  0  0  0  0  0  0  0  0  0  0
   46.0503   33.2337   45.0725 C   0  0  0  0  0  0  0  0  0  0  0  0
   45.0228   33.7166   44.3693 N   0  0  0  0  0  0  0  0  0  0  0  0
   46.0498   32.7524   46.4802 C   0  0  0  0  0  0  0  0  0  0  0  0
   45.0875   33.3960   47.2342 F   0  0  0  0  0  0  0  0  0  0  0  0
   47.2857   33.0660   47.0843 F   0  0  0  0  0  0  0  0  0  0  0  0
   45.9496   31.3892   46.5154 F   0  0  0  0  0  0  0  0  0  0  0  0
   42.6694   34.7994   40.2694 C   0  0  0  0  0  0  0  0  0  0  0  0
   42.4956   35.2004   38.9676 C   0  0  0  0  0  0  0  0  0  0  0  0
   41.3056   35.0627   38.2874 C   0  0  0  0  0  0  0  0  0  0  0  0
   40.2753   34.5024   38.9561 N   0  0  0  0  0  0  0  0  0  0  0  0
   40.4298   34.1008   40.2400 C   0  0  0  0  0  0  0  0  0  0  0  0
   41.5974   34.2430   40.8906 N   0  0  0  0  0  0  0  0  0  0  0  0
   39.3230   33.4570   41.0113 C   0  0  0  0  0  0  0  0  0  0  0  0
   38.3993   32.7272   40.1003 C   0  0  0  0  0  0  0  0  0  0  0  0
   42.9887   34.5605   42.9104 H   0  0  0  0  0  0  0  0  0  0  0  0
   45.1930   36.5327   41.9575 H   0  0  0  0  0  0  0  0  0  0  0  0
   43.3028   36.8087   41.9536 H   0  0  0  0  0  0  0  0  0  0  0  0
   44.8211   34.7562   40.2682 H   0  0  0  0  0  0  0  0  0  0  0  0
   46.5114   34.3659   41.4754 H   0  0  0  0  0  0  0  0  0  0  0  0
   48.4290   33.4837   42.7317 H   0  0  0  0  0  0  0  0  0  0  0  0
   43.3328   35.6520   38.4340 H   0  0  0  0  0  0  0  0  0  0  0  0
   41.2226   35.3962   37.2615 H   0  0  0  0  0  0  0  0  0  0  0  0
   38.7401   34.2850   41.5063 H   0  0  0  0  0  0  0  0  0  0  0  0
   39.6821   32.8320   41.8228 H   0  0  0  0  0  0  0  0  0  0  0  0
   38.9728   31.9705   39.5056 H   0  0  0  0  0  0  0  0  0  0  0  0
   38.0091   33.4639   39.3441 H   0  0  0  0  0  0  0  0  0  0  0  0
   37.2699   32.0417   40.7673 C   0  0  0  0  0  0  0  0  0  0  0  0
   36.9614   32.2511   42.0815 N   0  0  0  0  0  0  0  0  0  0  0  0
   35.9380   31.6038   42.6747 C   0  0  0  0  0  0  0  0  0  0  0  0
   35.1422   30.7121   42.0458 N   0  0  0  0  0  0  0  0  0  0  0  0
   35.4145   30.4772   40.7440 C   0  0  0  0  0  0  0  0  0  0  0  0
   34.6250   29.5691   40.0335 C   0  0  0  0  0  0  0  0  0  0  0  0
   34.8510   29.2930   38.7040 C   0  0  0  0  0  0  0  0  0  0  0  0
   34.2570   28.5956   38.1311 H   0  0  0  0  0  0  0  0  0  0  0  0
   35.8878   29.9432   38.0850 C   0  0  0  0  0  0  0  0  0  0  0  0
   36.0672   29.7216   37.0219 H   0  0  0  0  0  0  0  0  0  0  0  0
   36.6660   30.8392   38.7877 C   0  0  0  0  0  0  0  0  0  0  0  0
   36.4692   31.1337   40.1027 C   0  0  0  0  0  0  0  0  0  0  0  0
   35.7567   31.8231   43.7170 H   0  0  0  0  0  0  0  0  0  0  0  0
   33.7960   29.0338   40.4836 H   0  0  0  0  0  0  0  0  0  0  0  0
   37.4474   31.3091   38.2438 H   0  0  0  0  0  0  0  0  0  0  0  0
  1  4  1  0
  2  1  1  0
  3  2  1  0
  3  1  1  0
  4  9  1  0
  5  4  2  0
  5  6  1  0
  6  7  2  0
  7  8  1  0
  8 10  1  0
  9  8  2  0
 10 13  1  0
 10 12  1  0
 10 11  1  0
 14 19  1  0
 14  3  1  0
 15 14  2  0
 16 17  2  0
 16 15  1  0
 17 18  1  0
 18 19  2  0
 18 20  1  0
 21 20  1  0
  1 22  1  1
  2 23  1  0
  2 24  1  0
  3 25  1  6
  5 26  1  0
  6 27  1  0
 15 28  1  0
 16 29  1  0
 20 30  1  0
 20 31  1  0
 21 32  1  0
 21 33  1  0
 34 35  2  0
 35 36  1  0
 36 37  2  0
 37 38  1  0
 38 39  2  0
 39 40  1  0
 40 41  1  0
 40 42  2  0
 42 43  1  0
 42 44  1  0
 44 45  2  0
 45 34  1  0
 45 38  1  0
 36 46  1  0
 39 47  1  0
 44 48  1  0
 21 34  1  0
M  ISO  8  22  13  23  13  24  13  25  13  26  14  27  14  28  14  29  14
M  ISO  6  30   8  31   8  32   8  33   8  41  16  43  16
M  END
>  <DihAtoms>  (1) 
19,20,33,34

>  <DihDeg>  (1) 
100.92412463448906

$$$$
