
 OpenBabel03252504333D

 43 46  0  0  0  0  0  0  0  0999 V2000
   41.8090   35.5220   40.6390 C   0  0  0  0  0  0  0  0  0  0  0  0
   41.6590   36.0690   41.5980 H   0  0  0  0  0  0  0  0  0  0  0  0
   41.3160   36.1360   39.8560 H   0  0  0  0  0  0  0  0  0  0  0  0
   41.1370   33.3380   39.7690 C   0  0  0  0  0  0  0  0  0  0  0  0
   40.9600   34.2930   40.7990 C   0  0  0  0  0  0  0  0  0  0  0  0
   40.0690   33.9850   41.7680 C   0  0  0  0  0  0  0  0  0  0  0  0
   39.4330   32.8300   41.6870 N   0  0  0  0  0  0  0  0  0  0  0  0
   39.5900   31.9420   40.7380 C   0  0  0  0  0  0  0  0  0  0  0  0
   40.4770   32.1740   39.7130 N   0  0  0  0  0  0  0  0  0  0  0  0
   41.8450   33.5350   38.9580 H   0  0  0  0  0  0  0  0  0  0  0  0
   39.9480   34.7030   42.5270 H   0  0  0  0  0  0  0  0  0  0  0  0
   38.9340   30.6250   40.5490 C   0  0  0  0  0  0  0  0  0  0  0  0
   37.8660   30.4260   39.7360 N   0  0  0  0  0  0  0  0  0  0  0  0
   37.2480   29.2790   39.5340 C   0  0  0  0  0  3  0  0  0  0  0  0
   37.6740   28.1590   40.1710 N   0  0  0  0  0  0  0  0  0  0  0  0
   38.7440   28.2340   41.0190 C   0  0  0  0  0  0  0  0  0  0  0  0
   39.1690   27.0910   41.6600 C   0  0  0  0  0  3  0  0  0  0  0  0
   40.2460   27.1360   42.5200 C   0  0  0  0  0  0  0  0  0  0  0  0
   40.4790   26.1810   42.9570 H   0  0  0  0  0  0  0  0  0  0  0  0
   40.8470   28.3640   42.6870 C   0  0  0  0  0  0  0  0  0  0  0  0
   41.6950   28.3490   43.3770 H   0  0  0  0  0  0  0  0  0  0  0  0
   40.3840   29.4760   42.0220 C   0  0  0  0  0  3  0  0  0  0  0  0
   39.3280   29.4680   41.1690 C   0  0  0  0  0  0  0  0  0  0  0  0
   43.0900   35.2300   40.2730 O   0  0  0  0  0  0  0  0  0  0  0  0
   44.1750   34.9590   41.0880 C   0  0  0  0  0  3  0  0  0  0  0  0
   44.2380   35.6520   42.2200 C   0  0  0  0  0  3  0  0  0  0  0  0
   45.3250   35.5290   43.2730 C   0  0  0  0  0  0  0  0  0  0  0  0
   46.2210   35.2350   42.6940 H   0  0  0  0  0  0  0  0  0  0  0  0
   45.4740   36.4630   43.8210 H   0  0  0  0  0  0  0  0  0  0  0  0
   44.9460   34.5110   44.1280 O   0  0  0  0  0  0  0  0  0  0  0  0
   45.8950   32.3900   42.8430 O   0  0  0  0  0  0  0  0  0  0  0  0
   46.0530   33.2390   44.0830 P   0  0  1  0  0  0  0  0  0  0  0  0
   47.6460   33.8270   44.0690 O   0  0  0  0  0  0  0  0  0  0  0  0
   47.6070   34.8200   44.1700 H   0  0  0  0  0  0  0  0  0  0  0  0
   45.8790   32.2860   45.4660 O   0  0  0  0  0  0  0  0  0  0  0  0
   46.1650   32.9860   46.6210 C   0  0  0  0  0  0  0  0  0  0  0  0
   47.0560   32.3680   47.6510 C   0  0  0  0  0  0  0  0  0  0  0  0
   45.5530   32.4120   47.8790 C   0  0  0  0  0  0  0  0  0  0  0  0
   46.3170   34.0580   46.4870 H   0  0  0  0  0  0  0  0  0  0  0  0
   47.7280   32.9690   48.2780 H   0  0  0  0  0  0  0  0  0  0  0  0
   47.4300   31.3360   47.4810 H   0  0  0  0  0  0  0  0  0  0  0  0
   45.2590   33.1920   48.6280 H   0  0  0  0  0  0  0  0  0  0  0  0
   44.9600   31.4980   47.8310 H   0  0  0  0  0  0  0  0  0  0  0  0
  1  5  1  0  0  0  0
  1  2  1  0  0  0  0
  3  1  1  0  0  0  0
  4  5  1  0  0  0  0
  5  6  2  0  0  0  0
  6 11  1  0  0  0  0
  7  6  1  0  0  0  0
  8  7  2  0  0  0  0
  9  4  2  0  0  0  0
  9  8  1  0  0  0  0
 10  4  1  0  0  0  0
 12  8  1  0  0  0  0
 12 23  1  0  0  0  0
 13 12  2  0  0  0  0
 14 13  1  0  0  0  0
 14 15  2  0  0  0  0
 15 16  1  0  0  0  0
 16 23  2  0  0  0  0
 16 17  1  0  0  0  0
 17 18  2  0  0  0  0
 18 20  1  0  0  0  0
 18 19  1  0  0  0  0
 20 21  1  0  0  0  0
 22 20  2  0  0  0  0
 23 22  1  0  0  0  0
 24  1  1  0  0  0  0
 24 25  1  0  0  0  0
 25 26  2  0  0  0  0
 26 27  1  0  0  0  0
 27 29  1  0  0  0  0
 27 30  1  0  0  0  0
 28 27  1  0  0  0  0
 32 31  2  6  0  0  0
 32 30  1  0  0  0  0
 32 35  1  0  0  0  0
 33 32  1  0  0  0  0
 33 34  1  0  0  0  0
 35 36  1  0  0  0  0
 36 37  1  0  0  0  0
 36 38  1  0  0  0  0
 37 38  1  0  0  0  0
 37 40  1  0  0  0  0
 38 42  1  0  0  0  0
 39 36  1  0  0  0  0
 41 37  1  0  0  0  0
 43 38  1  0  0  0  0
M  END
>  <minimizedAffinity>
-5.09491348

>  <minimizedRMSD>
1.78583992

$$$$
