
 OpenBabel03252506463D

 45 49  0  0  1  0  0  0  0  0999 V2000
   49.4130   33.3450   41.3670 N   0  0  1  0  0  0  0  0  0  0  0  0
   50.6730   33.0650   42.0080 C   0  0  0  0  0  0  0  0  0  0  0  0
   51.2750   31.7390   41.6550 C   0  0  0  0  0  0  0  0  0  0  0  0
   50.3760   30.6420   42.1870 C   0  0  0  0  0  0  0  0  0  0  0  0
   48.9320   31.0350   42.0960 C   0  0  0  0  0  0  0  0  0  0  0  0
   48.7690   32.0950   41.0350 C   0  0  2  0  0  0  0  0  0  0  0  0
   50.5560   33.0810   43.1130 H   0  0  0  0  0  0  0  0  0  0  0  0
   51.3490   33.9010   41.7540 H   0  0  0  0  0  0  0  0  0  0  0  0
   52.2630   31.7140   42.2080 H   0  0  0  0  0  0  0  0  0  0  0  0
   51.5540   31.6020   40.6090 H   0  0  0  0  0  0  0  0  0  0  0  0
   50.6010   29.6580   41.7580 H   0  0  0  0  0  0  0  0  0  0  0  0
   50.6050   30.5720   43.2870 H   0  0  0  0  0  0  0  0  0  0  0  0
   48.2560   30.2070   41.8590 H   0  0  0  0  0  0  0  0  0  0  0  0
   48.5520   31.4820   43.0430 H   0  0  0  0  0  0  0  0  0  0  0  0
   47.6790   32.3080   40.9930 H   0  0  0  0  0  0  0  0  0  0  0  0
   49.1280   31.5750   39.7440 N   0  0  0  0  0  0  0  0  0  0  0  0
   49.8400   30.8240   39.8240 H   0  0  0  0  0  0  0  0  0  0  0  0
   48.6540   31.9750   38.4750 C   0  0  0  0  0  0  0  0  0  0  0  0
   49.0240   33.0930   37.8390 N   0  0  0  0  0  0  0  0  0  0  0  0
   48.6210   33.5140   36.6530 C   0  0  0  0  0  3  0  0  0  0  0  0
   47.7390   32.7540   35.9830 N   0  0  0  0  0  0  0  0  0  0  0  0
   47.2890   31.6080   36.5140 C   0  0  0  0  0  0  0  0  0  0  0  0
   46.3920   30.8550   35.8110 C   0  0  0  0  0  3  0  0  0  0  0  0
   45.8900   29.6670   36.2970 C   0  0  0  0  0  0  0  0  0  0  0  0
   45.1900   29.1300   35.6930 H   0  0  0  0  0  0  0  0  0  0  0  0
   46.3450   29.2730   37.5440 C   0  0  0  0  0  0  0  0  0  0  0  0
   45.9440   28.3390   37.9140 H   0  0  0  0  0  0  0  0  0  0  0  0
   47.2440   30.0460   38.2270 C   0  0  0  0  0  3  0  0  0  0  0  0
   47.7500   31.2290   37.7520 C   0  0  0  0  0  0  0  0  0  0  0  0
   47.2650   34.6420   41.9290 C   0  0  1  0  0  0  0  0  0  0  0  0
   48.3990   35.5710   41.7120 C   0  0  0  0  0  0  0  0  0  0  0  0
   48.6580   34.2010   42.1940 C   0  0  2  0  0  0  0  0  0  0  0  0
   46.7130   34.3540   41.0070 H   0  0  0  0  0  0  0  0  0  0  0  0
   48.5680   36.3940   42.4330 H   0  0  0  0  0  0  0  0  0  0  0  0
   48.7080   35.8540   40.6750 H   0  0  0  0  0  0  0  0  0  0  0  0
   48.8840   34.0770   43.2970 H   0  0  0  0  0  0  0  0  0  0  0  0
   45.5450   36.0360   43.1110 C   0  0  0  0  0  0  0  0  0  0  0  0
   46.3520   34.8900   43.0630 C   0  0  0  0  0  0  0  0  0  0  0  0
   46.2510   33.9690   44.1320 C   0  0  0  0  0  0  0  0  0  0  0  0
   45.3860   34.2430   45.1350 N   0  0  0  0  0  0  0  0  0  0  0  0
   44.6200   35.3510   45.1580 C   0  0  0  0  0  0  0  0  0  0  0  0
   44.6920   36.2650   44.1400 N   0  0  0  0  0  0  0  0  0  0  0  0
   45.6240   36.7380   42.2930 H   0  0  0  0  0  0  0  0  0  0  0  0
   46.8600   33.0740   44.1280 H   0  0  0  0  0  0  0  0  0  0  0  0
   43.9730   35.4410   46.0220 H   0  0  0  0  0  0  0  0  0  0  0  0
  1  2  1  1  0  0  0
  1 32  1  0  0  0  0
  2  7  1  0  0  0  0
  3  2  1  0  0  0  0
  3  4  1  0  0  0  0
  3  9  1  0  0  0  0
  4 12  1  0  0  0  0
  5  4  1  0  0  0  0
  5 14  1  0  0  0  0
  6 15  1  6  0  0  0
  6  1  1  0  0  0  0
  6  5  1  0  0  0  0
  8  2  1  0  0  0  0
 10  3  1  0  0  0  0
 11  4  1  0  0  0  0
 13  5  1  0  0  0  0
 16 17  1  0  0  0  0
 16  6  1  0  0  0  0
 18 16  1  0  0  0  0
 19 18  1  0  0  0  0
 20 19  2  0  0  0  0
 21 22  2  0  0  0  0
 21 20  1  0  0  0  0
 22 29  1  0  0  0  0
 23 24  2  0  0  0  0
 23 22  1  0  0  0  0
 24 26  1  0  0  0  0
 25 24  1  0  0  0  0
 26 27  1  0  0  0  0
 26 28  2  0  0  0  0
 29 28  1  0  0  0  0
 29 18  2  0  0  0  0
 30 33  1  6  0  0  0
 30 32  1  0  0  0  0
 30 38  1  0  0  0  0
 31 30  1  0  0  0  0
 31 32  1  0  0  0  0
 31 34  1  0  0  0  0
 32 36  1  1  0  0  0
 35 31  1  0  0  0  0
 37 42  1  0  0  0  0
 38 37  2  0  0  0  0
 38 39  1  0  0  0  0
 39 40  2  0  0  0  0
 40 41  1  0  0  0  0
 41 45  1  0  0  0  0
 42 41  2  0  0  0  0
 43 37  1  0  0  0  0
 44 39  1  0  0  0  0
M  END
>  <minimizedAffinity>
-5.64616156

>  <minimizedRMSD>
3.28763771

$$$$
