
 OpenBabel03252501333D

 27 29  0  0  0  0  0  0  0  0999 V2000
   39.2700   32.0840   39.9970 C   0  0  0  0  0  0  0  0  0  0  0  0
   40.2940   31.2940   39.8890 O   0  0  0  0  0  0  0  0  0  0  0  0
   39.4810   33.3420   39.4060 N   0  0  0  0  0  0  0  0  0  0  0  0
   38.5890   33.7600   39.5850 H   0  0  0  0  0  0  0  0  0  0  0  0
   38.5430   31.0740   40.7020 C   0  0  0  0  0  0  0  0  0  0  0  0
   39.2310   30.9110   41.8450 N   0  0  0  0  0  0  0  0  0  0  0  0
   38.8230   30.0080   42.7850 C   0  0  0  0  0  3  0  0  0  0  0  0
   37.7240   29.3150   42.5010 N   0  0  0  0  0  0  0  0  0  0  0  0
   37.0100   29.4410   41.3800 C   0  0  0  0  0  0  0  0  0  0  0  0
   35.8610   28.7210   41.0720 C   0  0  0  0  0  3  0  0  0  0  0  0
   35.1920   28.9390   39.8630 C   0  0  0  0  0  0  0  0  0  0  0  0
   34.2970   28.3480   39.6730 H   0  0  0  0  0  0  0  0  0  0  0  0
   35.6990   29.8900   38.9710 C   0  0  0  0  0  0  0  0  0  0  0  0
   35.0910   29.9610   38.0790 H   0  0  0  0  0  0  0  0  0  0  0  0
   36.8340   30.6150   39.2520 C   0  0  0  0  0  3  0  0  0  0  0  0
   37.4310   30.3470   40.4530 C   0  0  0  0  0  0  0  0  0  0  0  0
   40.8070   33.3890   38.8710 C   0  0  0  0  0  0  0  0  0  0  0  0
   41.2020   32.9190   37.6110 C   0  0  0  0  0  0  0  0  0  0  0  0
   42.5380   33.0520   37.2860 C   0  0  0  0  0  0  0  0  0  0  0  0
   43.3570   33.6130   38.1850 N   0  0  0  0  0  0  0  0  0  0  0  0
   42.9670   34.0630   39.3950 C   0  0  0  0  0  0  0  0  0  0  0  0
   41.6770   33.9520   39.7500 N   0  0  0  0  0  0  0  0  0  0  0  0
   42.8260   32.6840   36.3120 H   0  0  0  0  0  0  0  0  0  0  0  0
   43.6490   34.5100   40.0960 H   0  0  0  0  0  0  0  0  0  0  0  0
   40.1810   32.3600   36.8100 N   0  0  0  0  0  0  0  0  0  0  0  0
   39.5630   31.5290   36.9710 H   0  0  0  0  0  0  0  0  0  0  0  0
   40.1350   32.9530   35.9620 H   0  0  0  0  0  0  0  0  0  0  0  0
  1  5  1  0  0  0  0
  2  1  2  0  0  0  0
  3  4  1  0  0  0  0
  3  1  1  0  0  0  0
  5  6  1  0  0  0  0
  6  7  2  0  0  0  0
  8  7  1  0  0  0  0
  9  8  2  0  0  0  0
 10  9  1  0  0  0  0
 11 10  2  0  0  0  0
 12 11  1  0  0  0  0
 13 15  2  0  0  0  0
 13 11  1  0  0  0  0
 14 13  1  0  0  0  0
 15 16  1  0  0  0  0
 16  5  2  0  0  0  0
 16  9  1  0  0  0  0
 17  3  1  0  0  0  0
 17 22  1  0  0  0  0
 18 17  2  0  0  0  0
 19 18  1  0  0  0  0
 19 20  2  0  0  0  0
 20 21  1  0  0  0  0
 21 22  2  0  0  0  0
 21 24  1  0  0  0  0
 23 19  1  0  0  0  0
 25 26  1  0  0  0  0
 25 18  1  0  0  0  0
 27 25  1  0  0  0  0
M  END
>  <minimizedAffinity>
-5.74546289

$$$$

 OpenBabel03252501333D

 27 29  0  0  0  0  0  0  0  0999 V2000
   38.9640   31.4430   41.2550 C   0  0  0  0  0  0  0  0  0  0  0  0
   39.2720   31.0470   40.0580 O   0  0  0  0  0  0  0  0  0  0  0  0
   39.7230   32.5460   41.6830 N   0  0  0  0  0  0  0  0  0  0  0  0
   39.3160   32.6850   42.5880 H   0  0  0  0  0  0  0  0  0  0  0  0
   37.9750   30.4140   41.3590 C   0  0  0  0  0  0  0  0  0  0  0  0
   36.9630   30.8520   40.5900 N   0  0  0  0  0  0  0  0  0  0  0  0
   35.8230   30.1130   40.4460 C   0  0  0  0  0  3  0  0  0  0  0  0
   35.7810   28.9570   41.1020 N   0  0  0  0  0  0  0  0  0  0  0  0
   36.7610   28.4820   41.8760 C   0  0  0  0  0  0  0  0  0  0  0  0
   36.7280   27.2760   42.5670 C   0  0  0  0  0  3  0  0  0  0  0  0
   37.8160   26.8780   43.3500 C   0  0  0  0  0  0  0  0  0  0  0  0
   37.7370   25.9240   43.8690 H   0  0  0  0  0  0  0  0  0  0  0  0
   38.9360   27.7140   43.4270 C   0  0  0  0  0  0  0  0  0  0  0  0
   39.7020   27.2920   44.0620 H   0  0  0  0  0  0  0  0  0  0  0  0
   38.9920   28.9130   42.7530 C   0  0  0  0  0  3  0  0  0  0  0  0
   37.8910   29.2320   42.0090 C   0  0  0  0  0  0  0  0  0  0  0  0
   40.6530   32.8980   40.6550 C   0  0  0  0  0  0  0  0  0  0  0  0
   40.3740   33.6790   39.5260 C   0  0  0  0  0  0  0  0  0  0  0  0
   41.4150   33.8980   38.6450 C   0  0  0  0  0  0  0  0  0  0  0  0
   42.6080   33.3550   38.9250 N   0  0  0  0  0  0  0  0  0  0  0  0
   42.8670   32.6050   40.0150 C   0  0  0  0  0  0  0  0  0  0  0  0
   41.8810   32.3680   40.8960 N   0  0  0  0  0  0  0  0  0  0  0  0
   41.1840   34.5010   37.7790 H   0  0  0  0  0  0  0  0  0  0  0  0
   43.8350   32.1830   40.2120 H   0  0  0  0  0  0  0  0  0  0  0  0
   39.0500   34.1600   39.4160 N   0  0  0  0  0  0  0  0  0  0  0  0
   38.1400   33.6450   39.3350 H   0  0  0  0  0  0  0  0  0  0  0  0
   39.1250   35.1920   39.4290 H   0  0  0  0  0  0  0  0  0  0  0  0
  1  5  1  0  0  0  0
  1  3  1  0  0  0  0
  2  1  2  0  0  0  0
  3  4  1  0  0  0  0
  5 16  1  0  0  0  0
  6  5  2  0  0  0  0
  7  6  1  0  0  0  0
  7  8  2  0  0  0  0
  8  9  1  0  0  0  0
  9 16  2  0  0  0  0
  9 10  1  0  0  0  0
 10 11  2  0  0  0  0
 11 13  1  0  0  0  0
 11 12  1  0  0  0  0
 13 14  1  0  0  0  0
 15 13  2  0  0  0  0
 16 15  1  0  0  0  0
 17 22  1  0  0  0  0
 17  3  1  0  0  0  0
 18 17  2  0  0  0  0
 19 20  2  0  0  0  0
 19 18  1  0  0  0  0
 20 21  1  0  0  0  0
 21 24  1  0  0  0  0
 21 22  2  0  0  0  0
 23 19  1  0  0  0  0
 25 27  1  0  0  0  0
 25 18  1  0  0  0  0
 26 25  1  0  0  0  0
M  END
>  <minimizedAffinity>
-5.67968512

$$$$

 OpenBabel03252501333D

 27 29  0  0  0  0  0  0  0  0999 V2000
   37.9810   29.8140   40.4530 C   0  0  0  0  0  0  0  0  0  0  0  0
   38.7590   30.3540   41.3400 O   0  0  0  0  0  0  0  0  0  0  0  0
   37.9070   30.5560   39.2610 N   0  0  0  0  0  0  0  0  0  0  0  0
   37.2920   29.9640   38.7370 H   0  0  0  0  0  0  0  0  0  0  0  0
   37.6890   28.7320   41.3420 C   0  0  0  0  0  0  0  0  0  0  0  0
   37.6790   29.3020   42.5600 N   0  0  0  0  0  0  0  0  0  0  0  0
   37.4290   28.5590   43.6790 C   0  0  0  0  0  3  0  0  0  0  0  0
   37.2000   27.2630   43.4880 N   0  0  0  0  0  0  0  0  0  0  0  0
   37.2000   26.6540   42.2990 C   0  0  0  0  0  0  0  0  0  0  0  0
   36.9630   25.3000   42.0890 C   0  0  0  0  0  3  0  0  0  0  0  0
   36.9870   24.7700   40.7940 C   0  0  0  0  0  0  0  0  0  0  0  0
   36.7940   23.7030   40.6870 H   0  0  0  0  0  0  0  0  0  0  0  0
   37.2550   25.6240   39.7180 C   0  0  0  0  0  0  0  0  0  0  0  0
   37.2440   25.0910   38.7780 H   0  0  0  0  0  0  0  0  0  0  0  0
   37.4930   26.9670   39.9010 C   0  0  0  0  0  3  0  0  0  0  0  0
   37.4520   27.4100   41.1940 C   0  0  0  0  0  0  0  0  0  0  0  0
   38.7110   31.7320   39.3950 C   0  0  0  0  0  0  0  0  0  0  0  0
   38.2910   32.9600   39.9250 C   0  0  0  0  0  0  0  0  0  0  0  0
   39.2250   33.9770   39.9590 C   0  0  0  0  0  0  0  0  0  0  0  0
   40.4540   33.7260   39.4890 N   0  0  0  0  0  0  0  0  0  0  0  0
   40.8490   32.5410   38.9810 C   0  0  0  0  0  0  0  0  0  0  0  0
   39.9710   31.5250   38.9300 N   0  0  0  0  0  0  0  0  0  0  0  0
   38.8850   34.9170   40.3690 H   0  0  0  0  0  0  0  0  0  0  0  0
   41.8440   32.3700   38.6120 H   0  0  0  0  0  0  0  0  0  0  0  0
   36.9500   33.0180   40.3680 N   0  0  0  0  0  0  0  0  0  0  0  0
   36.0500   32.8890   39.8460 H   0  0  0  0  0  0  0  0  0  0  0  0
   37.0000   33.2260   41.3810 H   0  0  0  0  0  0  0  0  0  0  0  0
  1  2  2  0  0  0  0
  1  5  1  0  0  0  0
  3 17  1  0  0  0  0
  3  1  1  0  0  0  0
  4  3  1  0  0  0  0
  5  6  1  0  0  0  0
  6  7  2  0  0  0  0
  8  7  1  0  0  0  0
  9  8  2  0  0  0  0
 10  9  1  0  0  0  0
 11 10  2  0  0  0  0
 12 11  1  0  0  0  0
 13 15  2  0  0  0  0
 13 11  1  0  0  0  0
 14 13  1  0  0  0  0
 15 16  1  0  0  0  0
 16  5  2  0  0  0  0
 16  9  1  0  0  0  0
 17 18  1  0  0  0  0
 18 19  2  0  0  0  0
 18 25  1  0  0  0  0
 19 23  1  0  0  0  0
 20 19  1  0  0  0  0
 21 20  2  0  0  0  0
 22 21  1  0  0  0  0
 22 17  2  0  0  0  0
 24 21  1  0  0  0  0
 25 27  1  0  0  0  0
 26 25  1  0  0  0  0
M  END
>  <minimizedAffinity>
-5.60037756

$$$$

 OpenBabel03252501333D

 27 29  0  0  0  0  0  0  0  0999 V2000
   39.3310   31.7590   37.8830 C   0  0  0  0  0  0  0  0  0  0  0  0
   40.1010   31.4230   38.8730 O   0  0  0  0  0  0  0  0  0  0  0  0
   40.0310   32.3500   36.8170 N   0  0  0  0  0  0  0  0  0  0  0  0
   39.2690   32.5010   36.1840 H   0  0  0  0  0  0  0  0  0  0  0  0
   38.1860   31.2670   38.5860 C   0  0  0  0  0  0  0  0  0  0  0  0
   38.2930   31.8120   39.8110 N   0  0  0  0  0  0  0  0  0  0  0  0
   37.3580   31.5600   40.7730 C   0  0  0  0  0  3  0  0  0  0  0  0
   36.3550   30.7580   40.4270 N   0  0  0  0  0  0  0  0  0  0  0  0
   36.2080   30.1940   39.2260 C   0  0  0  0  0  0  0  0  0  0  0  0
   35.1650   29.3530   38.8540 C   0  0  0  0  0  3  0  0  0  0  0  0
   35.1130   28.8180   37.5620 C   0  0  0  0  0  0  0  0  0  0  0  0
   34.2740   28.1650   37.3240 H   0  0  0  0  0  0  0  0  0  0  0  0
   36.1270   29.1430   36.6540 C   0  0  0  0  0  0  0  0  0  0  0  0
   35.9690   28.6660   35.6960 H   0  0  0  0  0  0  0  0  0  0  0  0
   37.1700   29.9720   36.9980 C   0  0  0  0  0  3  0  0  0  0  0  0
   37.1510   30.4550   38.2770 C   0  0  0  0  0  0  0  0  0  0  0  0
   41.4170   32.4320   37.1590 C   0  0  0  0  0  0  0  0  0  0  0  0
   42.3670   31.4140   36.9960 C   0  0  0  0  0  0  0  0  0  0  0  0
   43.6580   31.6950   37.3970 C   0  0  0  0  0  0  0  0  0  0  0  0
   43.9150   32.9060   37.9090 N   0  0  0  0  0  0  0  0  0  0  0  0
   42.9940   33.8800   38.0610 C   0  0  0  0  0  0  0  0  0  0  0  0
   41.7260   33.6470   37.6840 N   0  0  0  0  0  0  0  0  0  0  0  0
   44.3770   30.9000   37.2650 H   0  0  0  0  0  0  0  0  0  0  0  0
   43.2310   34.8430   38.4750 H   0  0  0  0  0  0  0  0  0  0  0  0
   41.8920   30.2080   36.4340 N   0  0  0  0  0  0  0  0  0  0  0  0
   41.1660   29.5320   36.7770 H   0  0  0  0  0  0  0  0  0  0  0  0
   42.4190   30.0830   35.5520 H   0  0  0  0  0  0  0  0  0  0  0  0
  1  5  1  0  0  0  0
  1  2  2  0  0  0  0
  3 17  1  0  0  0  0
  3  1  1  0  0  0  0
  4  3  1  0  0  0  0
  5  6  1  0  0  0  0
  6  7  2  0  0  0  0
  8  7  1  0  0  0  0
  9  8  2  0  0  0  0
 10  9  1  0  0  0  0
 11 10  2  0  0  0  0
 12 11  1  0  0  0  0
 13 15  2  0  0  0  0
 13 11  1  0  0  0  0
 14 13  1  0  0  0  0
 15 16  1  0  0  0  0
 16  5  2  0  0  0  0
 16  9  1  0  0  0  0
 17 22  1  0  0  0  0
 18 17  2  0  0  0  0
 18 19  1  0  0  0  0
 19 20  2  0  0  0  0
 20 21  1  0  0  0  0
 21 24  1  0  0  0  0
 22 21  2  0  0  0  0
 23 19  1  0  0  0  0
 25 26  1  0  0  0  0
 25 18  1  0  0  0  0
 27 25  1  0  0  0  0
M  END
>  <minimizedAffinity>
-5.55058575

$$$$

 OpenBabel03252501333D

 27 29  0  0  0  0  0  0  0  0999 V2000
   39.7150   31.8040   41.2980 C   0  0  0  0  0  0  0  0  0  0  0  0
   40.5940   31.1670   40.5860 O   0  0  0  0  0  0  0  0  0  0  0  0
   39.9250   33.1940   41.3170 N   0  0  0  0  0  0  0  0  0  0  0  0
   39.1480   33.4700   41.8860 H   0  0  0  0  0  0  0  0  0  0  0  0
   39.0600   30.5740   41.6210 C   0  0  0  0  0  0  0  0  0  0  0  0
   39.9560   29.9110   42.3720 N   0  0  0  0  0  0  0  0  0  0  0  0
   39.6720   28.6720   42.8700 C   0  0  0  0  0  3  0  0  0  0  0  0
   38.4750   28.1740   42.5710 N   0  0  0  0  0  0  0  0  0  0  0  0
   37.5540   28.7950   41.8290 C   0  0  0  0  0  0  0  0  0  0  0  0
   36.3010   28.2850   41.5090 C   0  0  0  0  0  3  0  0  0  0  0  0
   35.4140   29.0270   40.7220 C   0  0  0  0  0  0  0  0  0  0  0  0
   34.4460   28.5790   40.5020 H   0  0  0  0  0  0  0  0  0  0  0  0
   35.8100   30.2880   40.2630 C   0  0  0  0  0  0  0  0  0  0  0  0
   35.0360   30.7540   39.6690 H   0  0  0  0  0  0  0  0  0  0  0  0
   37.0450   30.8150   40.5660 C   0  0  0  0  0  3  0  0  0  0  0  0
   37.8550   30.0310   41.3390 C   0  0  0  0  0  0  0  0  0  0  0  0
   41.0910   33.4990   40.5470 C   0  0  0  0  0  0  0  0  0  0  0  0
   42.4130   33.4780   41.0130 C   0  0  0  0  0  0  0  0  0  0  0  0
   43.4000   33.8130   40.1070 C   0  0  0  0  0  0  0  0  0  0  0  0
   43.0330   34.1310   38.8580 N   0  0  0  0  0  0  0  0  0  0  0  0
   41.7580   34.1480   38.4180 C   0  0  0  0  0  0  0  0  0  0  0  0
   40.7690   33.8280   39.2680 N   0  0  0  0  0  0  0  0  0  0  0  0
   44.4130   33.7940   40.4820 H   0  0  0  0  0  0  0  0  0  0  0  0
   41.4960   34.4070   37.4090 H   0  0  0  0  0  0  0  0  0  0  0  0
   42.5870   33.1140   42.3670 N   0  0  0  0  0  0  0  0  0  0  0  0
   42.2400   33.5660   43.2480 H   0  0  0  0  0  0  0  0  0  0  0  0
   43.1620   32.2540   42.3530 H   0  0  0  0  0  0  0  0  0  0  0  0
  1  3  1  0  0  0  0
  1  5  1  0  0  0  0
  2  1  2  0  0  0  0
  3  4  1  0  0  0  0
  5  6  1  0  0  0  0
  6  7  2  0  0  0  0
  8  7  1  0  0  0  0
  9  8  2  0  0  0  0
 10  9  1  0  0  0  0
 11 10  2  0  0  0  0
 12 11  1  0  0  0  0
 13 15  2  0  0  0  0
 13 11  1  0  0  0  0
 14 13  1  0  0  0  0
 15 16  1  0  0  0  0
 16  5  2  0  0  0  0
 16  9  1  0  0  0  0
 17 18  1  0  0  0  0
 17  3  1  0  0  0  0
 18 25  1  0  0  0  0
 19 23  1  0  0  0  0
 19 18  2  0  0  0  0
 20 19  1  0  0  0  0
 21 20  2  0  0  0  0
 21 22  1  0  0  0  0
 22 17  2  0  0  0  0
 24 21  1  0  0  0  0
 25 26  1  0  0  0  0
 27 25  1  0  0  0  0
M  END
>  <minimizedAffinity>
-5.54941559

$$$$

 OpenBabel03252501333D

 27 29  0  0  0  0  0  0  0  0999 V2000
   40.0610   30.7870   39.7130 C   0  0  0  0  0  0  0  0  0  0  0  0
   39.9680   32.0220   40.1010 O   0  0  0  0  0  0  0  0  0  0  0  0
   41.1190   30.5720   38.8120 N   0  0  0  0  0  0  0  0  0  0  0  0
   41.0160   29.5850   38.6710 H   0  0  0  0  0  0  0  0  0  0  0  0
   38.9360   30.4310   40.5220 C   0  0  0  0  0  0  0  0  0  0  0  0
   37.9420   31.2110   40.0630 N   0  0  0  0  0  0  0  0  0  0  0  0
   36.6920   31.1450   40.6090 C   0  0  0  0  0  3  0  0  0  0  0  0
   36.5260   30.2760   41.6030 N   0  0  0  0  0  0  0  0  0  0  0  0
   37.4830   29.4820   42.0900 C   0  0  0  0  0  0  0  0  0  0  0  0
   37.3220   28.5710   43.1290 C   0  0  0  0  0  3  0  0  0  0  0  0
   38.3990   27.7880   43.5580 C   0  0  0  0  0  0  0  0  0  0  0  0
   38.2160   27.0910   44.3750 H   0  0  0  0  0  0  0  0  0  0  0  0
   39.6380   27.9390   42.9270 C   0  0  0  0  0  0  0  0  0  0  0  0
   40.3820   27.2790   43.3510 H   0  0  0  0  0  0  0  0  0  0  0  0
   39.8230   28.8340   41.8980 C   0  0  0  0  0  3  0  0  0  0  0  0
   38.7240   29.5620   41.5350 C   0  0  0  0  0  0  0  0  0  0  0  0
   41.7800   31.8160   38.5640 C   0  0  0  0  0  0  0  0  0  0  0  0
   41.3990   32.7740   37.6150 C   0  0  0  0  0  0  0  0  0  0  0  0
   42.1790   33.9100   37.5280 C   0  0  0  0  0  0  0  0  0  0  0  0
   43.2340   34.0200   38.3460 N   0  0  0  0  0  0  0  0  0  0  0  0
   43.5930   33.0930   39.2570 C   0  0  0  0  0  0  0  0  0  0  0  0
   42.8610   31.9730   39.3730 N   0  0  0  0  0  0  0  0  0  0  0  0
   41.8730   34.6390   36.7910 H   0  0  0  0  0  0  0  0  0  0  0  0
   44.4460   33.2100   39.9000 H   0  0  0  0  0  0  0  0  0  0  0  0
   40.2510   32.4670   36.8500 N   0  0  0  0  0  0  0  0  0  0  0  0
   40.0620   31.6760   36.1880 H   0  0  0  0  0  0  0  0  0  0  0  0
   39.5650   33.2110   37.0640 H   0  0  0  0  0  0  0  0  0  0  0  0
  1  2  2  0  0  0  0
  1  5  1  0  0  0  0
  3  1  1  0  0  0  0
  4  3  1  0  0  0  0
  5 16  1  0  0  0  0
  6  5  2  0  0  0  0
  6  7  1  0  0  0  0
  7  8  2  0  0  0  0
  8  9  1  0  0  0  0
  9 10  1  0  0  0  0
 10 11  2  0  0  0  0
 11 12  1  0  0  0  0
 13 14  1  0  0  0  0
 13 11  1  0  0  0  0
 15 13  2  0  0  0  0
 16 15  1  0  0  0  0
 16  9  2  0  0  0  0
 17  3  1  0  0  0  0
 17 22  1  0  0  0  0
 18 17  2  0  0  0  0
 19 18  1  0  0  0  0
 19 20  2  0  0  0  0
 20 21  1  0  0  0  0
 21 22  2  0  0  0  0
 21 24  1  0  0  0  0
 23 19  1  0  0  0  0
 25 27  1  0  0  0  0
 25 18  1  0  0  0  0
 26 25  1  0  0  0  0
M  END
>  <minimizedAffinity>
-5.4764719

$$$$

 OpenBabel03252501333D

 27 29  0  0  0  0  0  0  0  0999 V2000
   37.3880   27.6400   41.7870 C   0  0  0  0  0  0  0  0  0  0  0  0
   38.1460   27.9720   40.7860 O   0  0  0  0  0  0  0  0  0  0  0  0
   36.9200   28.7480   42.5140 N   0  0  0  0  0  0  0  0  0  0  0  0
   36.3620   28.2730   43.1970 H   0  0  0  0  0  0  0  0  0  0  0  0
   37.5410   26.2550   41.4640 C   0  0  0  0  0  0  0  0  0  0  0  0
   38.3080   25.7690   42.4560 N   0  0  0  0  0  0  0  0  0  0  0  0
   38.6680   24.4520   42.4820 C   0  0  0  0  0  3  0  0  0  0  0  0
   38.2190   23.6970   41.4830 N   0  0  0  0  0  0  0  0  0  0  0  0
   37.4560   24.1350   40.4780 C   0  0  0  0  0  0  0  0  0  0  0  0
   36.9810   23.3550   39.4290 C   0  0  0  0  0  3  0  0  0  0  0  0
   36.1850   23.9230   38.4280 C   0  0  0  0  0  0  0  0  0  0  0  0
   35.8410   23.2670   37.6300 H   0  0  0  0  0  0  0  0  0  0  0  0
   35.8780   25.2860   38.5010 C   0  0  0  0  0  0  0  0  0  0  0  0
   35.2600   25.5980   37.6700 H   0  0  0  0  0  0  0  0  0  0  0  0
   36.3360   26.0790   39.5280 C   0  0  0  0  0  3  0  0  0  0  0  0
   37.1060   25.4520   40.4680 C   0  0  0  0  0  0  0  0  0  0  0  0
   37.4540   29.9430   41.9360 C   0  0  0  0  0  0  0  0  0  0  0  0
   36.7590   30.8400   41.1130 C   0  0  0  0  0  0  0  0  0  0  0  0
   37.4630   31.9350   40.6510 C   0  0  0  0  0  0  0  0  0  0  0  0
   38.7450   32.0660   41.0150 N   0  0  0  0  0  0  0  0  0  0  0  0
   39.4050   31.1980   41.8080 C   0  0  0  0  0  0  0  0  0  0  0  0
   38.7570   30.1190   42.2790 N   0  0  0  0  0  0  0  0  0  0  0  0
   36.9130   32.6170   40.0170 H   0  0  0  0  0  0  0  0  0  0  0  0
   40.4350   31.3310   42.0830 H   0  0  0  0  0  0  0  0  0  0  0  0
   35.4090   30.5200   40.8490 N   0  0  0  0  0  0  0  0  0  0  0  0
   34.9830   29.6890   40.3720 H   0  0  0  0  0  0  0  0  0  0  0  0
   34.8550   31.3050   41.2340 H   0  0  0  0  0  0  0  0  0  0  0  0
  1  3  1  0  0  0  0
  2  1  2  0  0  0  0
  3  4  1  0  0  0  0
  5  1  1  0  0  0  0
  5  6  1  0  0  0  0
  6  7  2  0  0  0  0
  8  7  1  0  0  0  0
  9  8  2  0  0  0  0
 10  9  1  0  0  0  0
 11 13  1  0  0  0  0
 11 10  2  0  0  0  0
 12 11  1  0  0  0  0
 13 15  2  0  0  0  0
 14 13  1  0  0  0  0
 15 16  1  0  0  0  0
 16  9  1  0  0  0  0
 16  5  2  0  0  0  0
 17 22  1  0  0  0  0
 17  3  1  0  0  0  0
 18 17  2  0  0  0  0
 19 20  2  0  0  0  0
 19 18  1  0  0  0  0
 20 21  1  0  0  0  0
 21 24  1  0  0  0  0
 21 22  2  0  0  0  0
 23 19  1  0  0  0  0
 25 18  1  0  0  0  0
 25 27  1  0  0  0  0
 26 25  1  0  0  0  0
M  END
>  <minimizedAffinity>
-5.45551777

$$$$

 OpenBabel03252501333D

 27 29  0  0  0  0  0  0  0  0999 V2000
   39.0070   30.5890   39.7040 C   0  0  0  0  0  0  0  0  0  0  0  0
   39.9330   29.8760   39.1400 O   0  0  0  0  0  0  0  0  0  0  0  0
   39.2610   31.9700   39.6420 N   0  0  0  0  0  0  0  0  0  0  0  0
   38.4390   32.3090   40.1020 H   0  0  0  0  0  0  0  0  0  0  0  0
   38.2790   29.4050   40.0440 C   0  0  0  0  0  0  0  0  0  0  0  0
   37.9700   28.8560   38.8560 N   0  0  0  0  0  0  0  0  0  0  0  0
   37.2620   27.6910   38.7860 C   0  0  0  0  0  3  0  0  0  0  0  0
   36.9060   27.1450   39.9450 N   0  0  0  0  0  0  0  0  0  0  0  0
   37.1900   27.6520   41.1470 C   0  0  0  0  0  0  0  0  0  0  0  0
   36.8230   27.0910   42.3650 C   0  0  0  0  0  3  0  0  0  0  0  0
   37.1780   27.7120   43.5670 C   0  0  0  0  0  0  0  0  0  0  0  0
   36.8640   27.2290   44.4920 H   0  0  0  0  0  0  0  0  0  0  0  0
   37.9050   28.9070   43.5220 C   0  0  0  0  0  0  0  0  0  0  0  0
   38.1130   29.2820   44.5150 H   0  0  0  0  0  0  0  0  0  0  0  0
   38.2800   29.4830   42.3300 C   0  0  0  0  0  3  0  0  0  0  0  0
   37.8970   28.8160   41.1990 C   0  0  0  0  0  0  0  0  0  0  0  0
   40.5120   32.1840   38.9830 C   0  0  0  0  0  0  0  0  0  0  0  0
   40.7010   32.3110   37.6000 C   0  0  0  0  0  0  0  0  0  0  0  0
   41.9970   32.5070   37.1620 C   0  0  0  0  0  0  0  0  0  0  0  0
   42.9740   32.5630   38.0770 N   0  0  0  0  0  0  0  0  0  0  0  0
   42.7820   32.4400   39.4060 C   0  0  0  0  0  0  0  0  0  0  0  0
   41.5370   32.2480   39.8730 N   0  0  0  0  0  0  0  0  0  0  0  0
   42.1250   32.6020   36.0940 H   0  0  0  0  0  0  0  0  0  0  0  0
   43.5870   32.4890   40.1160 H   0  0  0  0  0  0  0  0  0  0  0  0
   39.5370   32.2240   36.8040 N   0  0  0  0  0  0  0  0  0  0  0  0
   38.8500   31.4410   36.6800 H   0  0  0  0  0  0  0  0  0  0  0  0
   39.4610   33.1350   36.3200 H   0  0  0  0  0  0  0  0  0  0  0  0
  1  5  1  0  0  0  0
  2  1  2  0  0  0  0
  3  1  1  0  0  0  0
  3  4  1  0  0  0  0
  5 16  1  0  0  0  0
  6  5  2  0  0  0  0
  7  6  1  0  0  0  0
  7  8  2  0  0  0  0
  8  9  1  0  0  0  0
  9 16  2  0  0  0  0
  9 10  1  0  0  0  0
 10 11  2  0  0  0  0
 11 12  1  0  0  0  0
 13 11  1  0  0  0  0
 13 14  1  0  0  0  0
 15 13  2  0  0  0  0
 16 15  1  0  0  0  0
 17  3  1  0  0  0  0
 17 22  1  0  0  0  0
 18 17  2  0  0  0  0
 19 18  1  0  0  0  0
 19 20  2  0  0  0  0
 20 21  1  0  0  0  0
 21 22  2  0  0  0  0
 21 24  1  0  0  0  0
 23 19  1  0  0  0  0
 25 18  1  0  0  0  0
 26 25  1  0  0  0  0
 27 25  1  0  0  0  0
M  END
>  <minimizedAffinity>
-5.37263107

$$$$

 OpenBabel03252501333D

 27 29  0  0  0  0  0  0  0  0999 V2000
   37.3930   29.3910   40.5420 C   0  0  0  0  0  0  0  0  0  0  0  0
   38.2940   29.5650   39.6240 O   0  0  0  0  0  0  0  0  0  0  0  0
   37.3380   30.4480   41.4680 N   0  0  0  0  0  0  0  0  0  0  0  0
   36.5890   30.1210   42.0470 H   0  0  0  0  0  0  0  0  0  0  0  0
   37.0180   28.1390   39.9600 C   0  0  0  0  0  0  0  0  0  0  0  0
   36.7140   28.4460   38.6870 N   0  0  0  0  0  0  0  0  0  0  0  0
   36.3070   27.4800   37.8120 C   0  0  0  0  0  3  0  0  0  0  0  0
   36.2320   26.2410   38.2910 N   0  0  0  0  0  0  0  0  0  0  0  0
   36.5230   25.8900   39.5470 C   0  0  0  0  0  0  0  0  0  0  0  0
   36.4480   24.6000   40.0590 C   0  0  0  0  0  3  0  0  0  0  0  0
   36.7790   24.3470   41.3950 C   0  0  0  0  0  0  0  0  0  0  0  0
   36.7030   23.3180   41.7430 H   0  0  0  0  0  0  0  0  0  0  0  0
   37.1850   25.4140   42.2040 C   0  0  0  0  0  0  0  0  0  0  0  0
   37.4110   25.0860   43.2090 H   0  0  0  0  0  0  0  0  0  0  0  0
   37.2670   26.7000   41.7200 C   0  0  0  0  0  3  0  0  0  0  0  0
   36.9280   26.8670   40.4060 C   0  0  0  0  0  0  0  0  0  0  0  0
   38.3380   31.4140   41.1300 C   0  0  0  0  0  0  0  0  0  0  0  0
   38.1180   32.6220   40.4530 C   0  0  0  0  0  0  0  0  0  0  0  0
   39.2240   33.4150   40.2180 C   0  0  0  0  0  0  0  0  0  0  0  0
   40.4180   32.9830   40.6470 N   0  0  0  0  0  0  0  0  0  0  0  0
   40.6190   31.8200   41.2980 C   0  0  0  0  0  0  0  0  0  0  0  0
   39.5690   31.0190   41.5460 N   0  0  0  0  0  0  0  0  0  0  0  0
   39.0380   34.3420   39.6950 H   0  0  0  0  0  0  0  0  0  0  0  0
   41.5900   31.5000   41.6300 H   0  0  0  0  0  0  0  0  0  0  0  0
   36.7810   32.8930   40.0870 N   0  0  0  0  0  0  0  0  0  0  0  0
   36.1250   32.3720   39.4550 H   0  0  0  0  0  0  0  0  0  0  0  0
   36.5260   33.7640   40.5850 H   0  0  0  0  0  0  0  0  0  0  0  0
  1  3  1  0  0  0  0
  2  1  2  0  0  0  0
  3  4  1  0  0  0  0
  5 16  1  0  0  0  0
  5  1  1  0  0  0  0
  6  5  2  0  0  0  0
  7  8  2  0  0  0  0
  7  6  1  0  0  0  0
  8  9  1  0  0  0  0
  9 10  2  0  0  0  0
  9 16  1  0  0  0  0
 10 11  1  0  0  0  0
 11 12  1  0  0  0  0
 11 13  2  0  0  0  0
 13 14  1  0  0  0  0
 15 13  1  0  0  0  0
 16 15  2  0  0  0  0
 17  3  1  0  0  0  0
 17 22  1  0  0  0  0
 18 17  2  0  0  0  0
 19 18  1  0  0  0  0
 19 20  2  0  0  0  0
 20 21  1  0  0  0  0
 21 22  2  0  0  0  0
 21 24  1  0  0  0  0
 23 19  1  0  0  0  0
 25 18  1  0  0  0  0
 25 27  1  0  0  0  0
 26 25  1  0  0  0  0
M  END
>  <minimizedAffinity>
-5.35198069

$$$$
