
     RDKit          3D

 42 45  0  0  0  0  0  0  0  0999 V2000
   45.1338   33.5083   41.1550 F   0  0  0  0  0  0  0  0  0  0  0  0
   46.3330   34.0895   41.0453 C   0  0  0  0  0  0  0  0  0  0  0  0
   46.8301   34.8011   42.1170 C   0  0  0  0  0  0  0  0  0  0  0  0
   48.0738   35.4382   42.0871 C   0  0  0  0  0  0  0  0  0  0  0  0
   48.8551   35.3593   40.9334 C   0  0  0  0  0  0  0  0  0  0  0  0
   48.3106   34.6319   39.8840 C   0  0  0  0  0  0  0  0  0  0  0  0
   47.1036   34.0074   39.8968 C   0  0  0  0  0  0  0  0  0  0  0  0
   45.4540   34.0158   45.4247 C   0  0  0  0  0  0  0  0  0  0  0  0
   44.6100   35.1252   45.6571 C   0  0  0  0  0  0  0  0  0  0  0  0
   44.5180   36.1429   44.6699 C   0  0  0  0  0  0  0  0  0  0  0  0
   45.2692   35.9718   43.5414 N   0  0  0  0  0  0  0  0  0  0  0  0
   46.0556   34.9123   43.3541 C   0  0  0  0  0  0  0  0  0  0  0  0
   46.1442   33.9481   44.2869 N   0  0  0  0  0  0  0  0  0  0  0  0
   45.5280   33.0199   46.4202 N   0  0  0  0  0  0  0  0  0  0  0  0
   46.6760   33.3218   38.7991 O   0  0  0  0  0  0  0  0  0  0  0  0
   48.0808   34.6574   36.9978 O   0  0  0  0  0  0  0  0  0  0  0  0
   47.3366   33.3767   37.2491 P   0  0  2  0  0  0  0  0  0  0  0  0
   46.0596   33.1987   36.1222 O   0  0  0  0  0  0  0  0  0  0  0  0
   48.3691   32.0757   36.9368 O   0  0  0  0  0  0  0  0  0  0  0  0
   48.4032   35.9861   42.9774 H   0  0  0  0  0  0  0  0  0  0  0  0
   49.7866   35.8638   40.9758 H   0  0  0  0  0  0  0  0  0  0  0  0
   49.0230   34.6486   39.0640 H   0  0  0  0  0  0  0  0  0  0  0  0
   44.0396   35.2074   46.5678 H   0  0  0  0  0  0  0  0  0  0  0  0
   43.8799   37.0027   44.8218 H   0  0  0  0  0  0  0  0  0  0  0  0
   44.9850   32.1966   46.0714 H   0  0  0  0  0  0  0  0  0  0  0  0
   45.9901   32.9802   47.3501 H   0  0  0  0  0  0  0  0  0  0  0  0
   46.3985   33.3456   35.1859 H   0  0  0  0  0  0  0  0  0  0  0  0
   48.4754   31.3695   35.7717 C   0  0  0  0  0  0  0  0  0  0  0  0
   49.5722   30.9694   35.1060 N   0  0  0  0  0  0  0  0  0  0  0  0
   49.5108   30.2758   33.9626 C   0  0  0  0  0  0  0  0  0  0  0  0
   48.3114   29.9394   33.4143 N   0  0  0  0  0  0  0  0  0  0  0  0
   47.1751   30.3085   34.0294 C   0  0  0  0  0  0  0  0  0  0  0  0
   45.9915   29.9360   33.4217 C   0  0  0  0  0  0  0  0  0  0  0  0
   44.8028   30.2963   34.0224 C   0  0  0  0  0  0  0  0  0  0  0  0
   43.8149   30.0656   33.6476 H   0  0  0  0  0  0  0  0  0  0  0  0
   44.8294   31.0133   35.2048 C   0  0  0  0  0  0  0  0  0  0  0  0
   43.9175   31.3236   35.7213 H   0  0  0  0  0  0  0  0  0  0  0  0
   46.0366   31.3593   35.7684 C   0  0  0  0  0  0  0  0  0  0  0  0
   47.2624   31.0150   35.1940 C   0  0  0  0  0  0  0  0  0  0  0  0
   50.4631   29.9996   33.5018 H   0  0  0  0  0  0  0  0  0  0  0  0
   45.9480   29.3750   32.4968 H   0  0  0  0  0  0  0  0  0  0  0  0
   46.0306   31.9301   36.7098 H   0  0  0  0  0  0  0  0  0  0  0  0
  2  1  1  0
  2  3  2  0
  3 12  1  0
  4  3  1  0
  5  4  2  0
  6  7  2  0
  6  5  1  0
  7  2  1  0
  8  9  2  0
  8 14  1  0
 10  9  1  0
 11 10  2  0
 12 11  1  0
 12 13  2  0
 13  8  1  0
 15  7  1  0
 16 17  2  0
 17 15  1  1
 18 17  1  0
 19 17  1  0
  4 20  1  0
  5 21  1  0
  6 22  1  0
  9 23  1  0
 10 24  1  0
 14 25  1  0
 14 26  1  0
 18 27  1  0
 28 29  2  0
 29 30  1  0
 30 31  2  0
 31 32  1  0
 32 33  2  0
 33 34  1  0
 34 35  1  0
 34 36  2  0
 36 37  1  0
 36 38  1  0
 38 39  2  0
 39 28  1  0
 39 32  1  0
 30 40  1  0
 33 41  1  0
 38 42  1  0
 19 28  1  0
M  ISO  8  20  14  21  14  22  14  23  14  24  14  27   3  35  16  37  16
M  END
>  <DihAtoms>  (1) 
16,18,27,28

>  <DihDeg>  (1) 
0.0006405618606919809

$$$$
