
     RDKit          3D

 28 30  0  0  0  0  0  0  0  0999 V2000
   44.5072   36.0007   44.5249 C   0  0  0  0  0  0  0  0  0  0  0  0
   45.2101   35.8759   43.3177 C   0  0  0  0  0  0  0  0  0  0  0  0
   46.1257   34.8169   43.1774 C   0  0  0  0  0  0  0  0  0  0  0  0
   46.2958   33.9510   44.2194 N   0  0  0  0  0  0  0  0  0  0  0  0
   45.5874   34.1106   45.3809 C   0  0  0  0  0  0  0  0  0  0  0  0
   44.7208   35.1157   45.5102 N   0  0  0  0  0  0  0  0  0  0  0  0
   45.8714   33.1010   46.4234 C   0  0  0  0  0  0  0  0  0  0  0  0
   46.5046   31.6082   45.5911 S   0  0  0  0  0  0  0  0  0  0  0  0
   43.8150   36.8228   44.5980 H   0  0  0  0  0  0  0  0  0  0  0  0
   45.1184   36.5248   42.4633 H   0  0  0  0  0  0  0  0  0  0  0  0
   46.7023   34.6471   42.2939 H   0  0  0  0  0  0  0  0  0  0  0  0
   46.6038   33.4738   47.1749 H   0  0  0  0  0  0  0  0  0  0  0  0
   44.9391   32.8868   46.9753 H   0  0  0  0  0  0  0  0  0  0  0  0
   45.2011   30.9034   44.5967 C   0  0  0  0  0  0  0  0  0  0  0  0
   44.9478   31.2045   43.2996 N   0  0  0  0  0  0  0  0  0  0  0  0
   43.9272   30.6036   42.6578 C   0  0  0  0  0  0  0  0  0  0  0  0
   43.1304   29.6911   43.2770 N   0  0  0  0  0  0  0  0  0  0  0  0
   43.3393   29.3509   44.5798 C   0  0  0  0  0  0  0  0  0  0  0  0
   42.5045   28.4219   45.1652 C   0  0  0  0  0  0  0  0  0  0  0  0
   42.7452   28.0957   46.5034 C   0  0  0  0  0  0  0  0  0  0  0  0
   42.1613   27.3854   47.0675 H   0  0  0  0  0  0  0  0  0  0  0  0
   43.7806   28.6938   47.1838 C   0  0  0  0  0  0  0  0  0  0  0  0
   44.0066   28.4690   48.2327 H   0  0  0  0  0  0  0  0  0  0  0  0
   44.5815   29.6171   46.5412 C   0  0  0  0  0  0  0  0  0  0  0  0
   44.3884   29.9780   45.2157 C   0  0  0  0  0  0  0  0  0  0  0  0
   43.7424   30.8645   41.6059 H   0  0  0  0  0  0  0  0  0  0  0  0
   41.6855   27.9398   44.6539 H   0  0  0  0  0  0  0  0  0  0  0  0
   45.3884   30.0768   47.0905 H   0  0  0  0  0  0  0  0  0  0  0  0
  1  6  2  0
  2  1  1  0
  3  2  2  0
  3  4  1  0
  4  5  2  0
  5  6  1  0
  5  7  1  0
  8  7  1  0
  1  9  1  0
  2 10  1  0
  3 11  1  0
  7 12  1  0
  7 13  1  0
 14 15  2  0
 15 16  1  0
 16 17  2  0
 17 18  1  0
 18 19  2  0
 19 20  1  0
 20 21  1  0
 20 22  2  0
 22 23  1  0
 22 24  1  0
 24 25  2  0
 25 14  1  0
 25 18  1  0
 16 26  1  0
 19 27  1  0
 24 28  1  0
  8 14  1  0
M  ISO  7   9  14  10  14  11  14  12   8  13   8  21  16  23  16
M  END
>  <DihAtoms>  (1) 
6,7,13,14

>  <DihDeg>  (1) 
0.10962892898769254

$$$$
