
 OpenBabel03252507593D

 32 35  0  0  1  0  0  0  0  0999 V2000
   46.4350   34.6880   43.2720 C   0  0  0  0  0  0  0  0  0  0  0  0
   45.4190   35.6670   43.5580 C   0  0  0  0  0  0  0  0  0  0  0  0
   44.6950   35.4810   44.7340 C   0  0  0  0  0  0  0  0  0  0  0  0
   44.9810   34.4160   45.5190 N   0  0  0  0  0  0  0  0  0  0  0  0
   45.9640   33.5160   45.1880 C   0  0  0  0  0  0  0  0  0  0  0  0
   46.6970   33.6250   44.0880 N   0  0  0  0  0  0  0  0  0  0  0  0
   45.2700   36.4670   42.8800 H   0  0  0  0  0  0  0  0  0  0  0  0
   43.9300   36.1950   44.9760 H   0  0  0  0  0  0  0  0  0  0  0  0
   46.2230   32.3700   46.1080 C   0  0  1  0  0  0  0  0  0  0  0  0
   47.0430   32.6130   47.3530 C   0  0  0  0  0  0  0  0  0  0  0  0
   45.5470   32.4700   47.4180 C   0  0  1  0  0  0  0  0  0  0  0  0
   46.3180   31.3740   45.6340 H   0  0  0  0  0  0  0  0  0  0  0  0
   47.6820   31.7630   47.6690 H   0  0  0  0  0  0  0  0  0  0  0  0
   47.5170   33.6240   47.3650 H   0  0  0  0  0  0  0  0  0  0  0  0
   45.2140   31.5450   47.9500 H   0  0  0  0  0  0  0  0  0  0  0  0
   44.8840   33.7240   47.7930 N   0  0  0  0  0  0  0  0  0  0  0  0
   45.5490   34.3920   48.2550 H   0  0  0  0  0  0  0  0  0  0  0  0
   44.1710   33.4940   48.5330 H   0  0  0  0  0  0  0  0  0  0  0  0
   47.1540   34.8730   42.0390 C   0  0  2  0  0  3  0  0  0  0  0  0
   48.1490   35.7070   41.9680 O   0  0  0  0  0  1  0  0  0  0  0  0
   47.0790   34.3340   40.6840 C   0  0  0  0  0  0  0  0  0  0  0  0
   48.1190   34.5340   39.8620 N   0  0  0  0  0  0  0  0  0  0  0  0
   48.1450   34.0690   38.5740 C   0  0  0  0  0  3  0  0  0  0  0  0
   47.1230   33.3850   38.0680 N   0  0  0  0  0  0  0  0  0  0  0  0
   46.0120   33.1220   38.8130 C   0  0  0  0  0  0  0  0  0  0  0  0
   44.9370   32.4160   38.3290 C   0  0  0  0  0  3  0  0  0  0  0  0
   43.8280   32.1600   39.1090 C   0  0  0  0  0  0  0  0  0  0  0  0
   43.0560   31.6030   38.6220 H   0  0  0  0  0  0  0  0  0  0  0  0
   43.8550   32.6560   40.4130 C   0  0  0  0  0  0  0  0  0  0  0  0
   42.9780   32.4420   40.9970 H   0  0  0  0  0  0  0  0  0  0  0  0
   44.9520   33.3530   40.8400 C   0  0  0  0  0  3  0  0  0  0  0  0
   46.0660   33.6220   40.0900 C   0  0  0  0  0  0  0  0  0  0  0  0
  1  2  2  0  0  0  0
  1  6  1  0  0  0  0
  2  3  1  0  0  0  0
  3  8  1  0  0  0  0
  3  4  2  0  0  0  0
  5  4  1  0  0  0  0
  5  9  1  0  0  0  0
  6  5  2  0  0  0  0
  7  2  1  0  0  0  0
  9 12  1  6  0  0  0
  9 10  1  0  0  0  0
  9 11  1  0  0  0  0
 10 14  1  0  0  0  0
 10 11  1  0  0  0  0
 10 13  1  0  0  0  0
 11 16  1  0  0  0  0
 11 15  1  1  0  0  0
 16 17  1  0  0  0  0
 16 18  1  0  0  0  0
 19 20  1  6  0  0  0
 19  1  1  0  0  0  0
 21 19  1  0  0  0  0
 22 21  2  0  0  0  0
 23 22  1  0  0  0  0
 24 23  2  0  0  0  0
 24 25  1  0  0  0  0
 25 32  1  0  0  0  0
 26 25  2  0  0  0  0
 26 27  1  0  0  0  0
 27 29  2  0  0  0  0
 28 27  1  0  0  0  0
 29 31  1  0  0  0  0
 29 30  1  0  0  0  0
 32 21  1  0  0  0  0
 32 31  2  0  0  0  0
M  END
>  <minimizedAffinity>
-6.12726688

>  <minimizedRMSD>
0.528916061

$$$$
