
 OpenBabel03252500483D

 31 34  0  0  0  0  0  0  0  0999 V2000
   44.8830   34.4150   46.3440 C   0  0  0  0  0  0  0  0  0  0  0  0
   45.3120   34.7960   45.0520 C   0  0  0  0  0  0  0  0  0  0  0  0
   46.3710   34.1090   44.4420 C   0  0  0  0  0  0  0  0  0  0  0  0
   46.9440   33.0850   45.1500 N   0  0  0  0  0  0  0  0  0  0  0  0
   46.5140   32.7470   46.3820 C   0  0  0  0  0  0  0  0  0  0  0  0
   45.5000   33.4020   46.9660 N   0  0  0  0  0  0  0  0  0  0  0  0
   44.0780   34.9030   46.8590 H   0  0  0  0  0  0  0  0  0  0  0  0
   46.6960   34.4000   43.4550 H   0  0  0  0  0  0  0  0  0  0  0  0
   47.1660   31.6540   47.0930 C   0  0  0  0  0  0  0  0  0  0  0  0
   47.6240   31.7650   48.3680 C   0  0  0  0  0  0  0  0  0  0  0  0
   48.2410   30.7710   49.0750 C   0  0  0  0  0  0  0  0  0  0  0  0
   48.3850   29.6050   48.4210 N   0  0  0  0  0  0  0  0  0  0  0  0
   47.9350   29.4860   47.1630 C   0  0  0  0  0  0  0  0  0  0  0  0
   47.3220   30.4630   46.4500 N   0  0  0  0  0  0  0  0  0  0  0  0
   47.4810   32.7460   48.8590 H   0  0  0  0  0  0  0  0  0  0  0  0
   48.5800   30.9300   50.0820 H   0  0  0  0  0  0  0  0  0  0  0  0
   48.0570   28.5230   46.6320 H   0  0  0  0  0  0  0  0  0  0  0  0
   44.6380   35.9150   44.4370 C   0  0  0  0  0  0  0  0  0  0  0  0
   43.4320   35.6790   44.0700 O   0  0  0  0  0  0  0  0  0  0  0  0
   44.9390   37.2960   44.0970 C   0  0  0  0  0  0  0  0  0  0  0  0
   45.2840   37.5410   42.8220 N   0  0  0  0  0  0  0  0  0  0  0  0
   45.5870   38.8100   42.3960 C   0  0  0  0  0  3  0  0  0  0  0  0
   45.5560   39.8680   43.2160 N   0  0  0  0  0  0  0  0  0  0  0  0
   45.2190   39.6930   44.5020 C   0  0  0  0  0  0  0  0  0  0  0  0
   45.1770   40.7430   45.3940 C   0  0  0  0  0  3  0  0  0  0  0  0
   44.8330   40.5590   46.7350 C   0  0  0  0  0  0  0  0  0  0  0  0
   44.8240   41.4370   47.3630 H   0  0  0  0  0  0  0  0  0  0  0  0
   44.5360   39.2620   47.1200 C   0  0  0  0  0  0  0  0  0  0  0  0
   44.2750   39.1680   48.1720 H   0  0  0  0  0  0  0  0  0  0  0  0
   44.5920   38.2480   46.2000 C   0  0  0  0  0  3  0  0  0  0  0  0
   44.9240   38.4110   44.8920 C   0  0  0  0  0  0  0  0  0  0  0  0
  1  7  1  0  0  0  0
  1  6  1  0  0  0  0
  2  1  2  0  0  0  0
  3  2  1  0  0  0  0
  3  4  2  0  0  0  0
  4  5  1  0  0  0  0
  5  6  2  0  0  0  0
  5  9  1  0  0  0  0
  8  3  1  0  0  0  0
  9 10  1  0  0  0  0
 10 15  1  0  0  0  0
 10 11  2  0  0  0  0
 11 16  1  0  0  0  0
 12 11  1  0  0  0  0
 13 12  2  0  0  0  0
 14  9  2  0  0  0  0
 14 13  1  0  0  0  0
 17 13  1  0  0  0  0
 18  2  1  0  0  0  0
 19 18  2  0  0  0  0
 20 18  1  0  0  0  0
 20 31  1  0  0  0  0
 21 20  2  0  0  0  0
 22 21  1  0  0  0  0
 22 23  2  0  0  0  0
 23 24  1  0  0  0  0
 24 31  2  0  0  0  0
 24 25  1  0  0  0  0
 25 26  2  0  0  0  0
 26 28  1  0  0  0  0
 26 27  1  0  0  0  0
 28 29  1  0  0  0  0
 30 28  2  0  0  0  0
 31 30  1  0  0  0  0
M  END
>  <minimizedAffinity>
1.62084031

>  <minimizedRMSD>
1.96901977

$$$$
