REMARK  Name = 
REMARK  6 active torsions:
REMARK  status: ('A' for Active; 'I' for Inactive)
REMARK    1  A    between atoms: C_1  and  S_13
REMARK    2  A    between atoms: C_6  and  C_7
REMARK    3  A    between atoms: S_13  and  C_15
REMARK    4  A    between atoms: C_18  and  C_20
REMARK    5  A    between atoms: C_20  and  C_21
REMARK    6  A    between atoms: C_21  and  C_35
REMARK                            x       y       z     vdW  Elec       q    Type
REMARK                         _______ _______ _______ _____ _____    ______ ____
ROOT
ATOM      1  C   UNL     1      38.572  31.775  41.244  0.00  0.00    +0.000 A 
ATOM      2  C   UNL     1      39.937  31.594  41.006  0.00  0.00    +0.000 A 
ATOM      3  C   UNL     1      40.363  30.331  40.671  0.00  0.00    +0.000 A 
ATOM      4  N   UNL     1      39.450  29.330  40.588  0.00  0.00    +0.000 NA
ATOM      5  C   UNL     1      38.129  29.542  40.826  0.00  0.00    +0.000 A 
ATOM      6  N   UNL     1      37.668  30.743  41.153  0.00  0.00    +0.000 NA
ATOM      7  H   UNL     1      38.174  32.759  41.515  0.00  0.00    +0.000 HD
ATOM      8  H   UNL     1      41.418  30.161  40.480  0.00  0.00    +0.000 HD
ENDROOT
BRANCH   5   9
ATOM      9  C   UNL     1      37.217  28.386  40.711  0.00  0.00    +0.000 C 
ATOM     10  H   UNL     1      36.690  28.295  41.693  0.00  0.00    +0.000 HD
ATOM     11  H   UNL     1      37.727  27.446  40.511  0.00  0.00    +0.000 HD
BRANCH   9  12
ATOM     12  C   UNL     1      36.132  28.654  39.660  0.00  0.00    +0.000 C 
ATOM     13  H   UNL     1      35.509  27.745  39.532  0.00  0.00    +0.000 HD
ATOM     14  H   UNL     1      35.502  29.501  39.944  0.00  0.00    +0.000 HD
BRANCH  12  15
ATOM     15  C   UNL     1      36.853  28.884  38.379  0.00  0.00    +0.000 A 
ATOM     16  N   UNL     1      38.189  28.851  38.226  0.00  0.00    +0.000 NA
ATOM     17  C   UNL     1      38.794  29.065  37.046  0.00  0.00    +0.000 A 
ATOM     18  N   UNL     1      38.089  29.328  35.934  0.00  0.00    +0.000 NA
ATOM     19  C   UNL     1      36.738  29.379  36.005  0.00  0.00    +0.000 A 
ATOM     20  C   UNL     1      36.058  29.652  34.839  0.00  0.00    +0.000 A 
ATOM     21  C   UNL     1      34.685  29.712  34.870  0.00  0.00    +0.000 A 
ATOM     22  H   UNL     1      34.080  29.922  33.994  0.00  0.00    +0.000 HD
ATOM     23  C   UNL     1      34.052  29.496  36.064  0.00  0.00    +0.000 A 
ATOM     24  H   UNL     1      32.973  29.543  36.090  0.00  0.00    +0.000 HD
ATOM     25  C   UNL     1      34.724  29.220  37.243  0.00  0.00    +0.000 A 
ATOM     26  C   UNL     1      36.116  29.157  37.223  0.00  0.00    +0.000 A 
ENDBRANCH  12  15
ENDBRANCH   9  12
ENDBRANCH   5   9
BRANCH   2  27
ATOM     27  S   UNL     1      41.074  32.939  41.131  0.00  0.00    +0.000 S 
BRANCH  27  28
ATOM     28  C   UNL     1      40.958  33.983  39.707  0.00  0.00    +0.000 A 
ATOM     29  C   UNL     1      39.859  33.997  38.859  0.00  0.00    +0.000 A 
ATOM     30  C   UNL     1      39.846  34.847  37.763  0.00  0.00    +0.000 A 
ATOM     31  C   UNL     1      40.895  35.677  37.493  0.00  0.00    +0.000 A 
ATOM     32  C   UNL     1      41.984  35.657  38.342  0.00  0.00    +0.000 A 
ATOM     33  C   UNL     1      42.028  34.822  39.442  0.00  0.00    +0.000 A 
ATOM     34  H   UNL     1      39.041  33.338  39.083  0.00  0.00    +0.000 HD
ATOM     35  H   UNL     1      38.936  34.778  37.163  0.00  0.00    +0.000 HD
ATOM     36  H   UNL     1      40.782  36.286  36.629  0.00  0.00    +0.000 HD
ATOM     37  H   UNL     1      42.795  36.332  38.092  0.00  0.00    +0.000 HD
BRANCH  33  38
ATOM     38  C   UNL     1      43.183  34.815  40.325  0.00  0.00    +0.000 A 
ATOM     39  C   UNL     1      44.283  34.033  40.154  0.00  0.00    +0.000 A 
ATOM     40  C   UNL     1      45.382  34.042  41.015  0.00  0.00    +0.000 A 
ATOM     41  N   UNL     1      45.352  34.868  42.072  0.00  0.00    +0.000 NA
ATOM     42  C   UNL     1      44.263  35.648  42.250  0.00  0.00    +0.000 A 
ATOM     43  N   UNL     1      43.207  35.627  41.407  0.00  0.00    +0.000 NA
ATOM     44  H   UNL     1      44.319  33.358  39.298  0.00  0.00    +0.000 HD
ATOM     45  H   UNL     1      46.229  33.401  40.830  0.00  0.00    +0.000 HD
ATOM     46  H   UNL     1      44.103  36.368  43.068  0.00  0.00    +0.000 HD
ENDBRANCH  33  38
ENDBRANCH  27  28
ENDBRANCH   2  27
TORSDOF 6
