
 OpenBabel03252503273D

 28 30  0  0  0  0  0  0  0  0999 V2000
   45.2630   34.8240   42.5880 C   0  0  0  0  0  0  0  0  0  0  0  0
   46.3470   35.2480   41.7860 C   0  0  0  0  0  0  0  0  0  0  0  0
   47.6180   34.8670   42.2650 C   0  0  0  0  0  0  0  0  0  0  0  0
   47.6920   34.1510   43.4130 N   0  0  0  0  0  0  0  0  0  0  0  0
   46.6050   33.7780   44.1330 C   0  0  0  0  0  0  0  0  0  0  0  0
   45.3800   34.1190   43.7140 N   0  0  0  0  0  0  0  0  0  0  0  0
   43.4680   34.3650   41.0930 C   0  0  0  0  0  0  0  0  0  0  0  0
   44.2840   33.5180   40.6500 O   0  0  0  0  0  0  0  0  0  0  0  0
   43.9310   35.1440   42.1790 N   0  0  0  0  0  0  0  0  0  0  0  0
   46.2030   35.8120   40.8940 H   0  0  0  0  0  0  0  0  0  0  0  0
   46.8210   33.2090   45.0280 H   0  0  0  0  0  0  0  0  0  0  0  0
   43.4080   35.8750   42.6610 H   0  0  0  0  0  0  0  0  0  0  0  0
   42.0830   34.7370   40.7150 C   0  0  0  0  0  0  0  0  0  0  0  0
   41.4640   35.8640   41.1180 N   0  0  0  0  0  0  0  0  0  0  0  0
   40.2280   36.1960   40.7800 C   0  0  0  0  0  3  0  0  0  0  0  0
   39.4800   35.4280   39.9980 N   0  0  0  0  0  0  0  0  0  0  0  0
   40.0080   34.2680   39.5380 C   0  0  0  0  0  0  0  0  0  0  0  0
   39.2330   33.4760   38.7300 C   0  0  0  0  0  3  0  0  0  0  0  0
   39.7110   32.2990   38.2370 C   0  0  0  0  0  0  0  0  0  0  0  0
   39.0320   31.7410   37.6110 H   0  0  0  0  0  0  0  0  0  0  0  0
   41.0040   31.9440   38.5860 C   0  0  0  0  0  0  0  0  0  0  0  0
   41.3600   31.0000   38.1790 H   0  0  0  0  0  0  0  0  0  0  0  0
   41.7480   32.7700   39.4000 C   0  0  0  0  0  3  0  0  0  0  0  0
   41.2980   33.9530   39.9080 C   0  0  0  0  0  0  0  0  0  0  0  0
   48.7400   35.3060   41.4350 C   0  0  0  0  0  0  0  0  0  0  0  0
   49.8360   34.4640   41.6860 F   0  0  0  0  0  0  0  0  0  0  0  0
   49.1070   36.5540   41.8840 F   0  0  0  0  0  0  0  0  0  0  0  0
   48.4870   35.2360   40.0920 F   0  0  0  0  0  0  0  0  0  0  0  0
  1  6  1  0  0  0  0
  2  3  1  0  0  0  0
  2  1  2  0  0  0  0
  3  4  2  0  0  0  0
  4  5  1  0  0  0  0
  5 11  1  0  0  0  0
  6  5  2  0  0  0  0
  7  9  1  0  0  0  0
  8  7  2  0  0  0  0
  9  1  1  0  0  0  0
  9 12  1  0  0  0  0
 10  2  1  0  0  0  0
 13  7  1  0  0  0  0
 13 14  1  0  0  0  0
 15 14  2  0  0  0  0
 16 15  1  0  0  0  0
 17 24  1  0  0  0  0
 17 16  2  0  0  0  0
 18 17  1  0  0  0  0
 19 21  1  0  0  0  0
 19 18  2  0  0  0  0
 20 19  1  0  0  0  0
 21 23  2  0  0  0  0
 22 21  1  0  0  0  0
 23 24  1  0  0  0  0
 24 13  2  0  0  0  0
 25 26  1  0  0  0  0
 25 27  1  0  0  0  0
 25  3  1  0  0  0  0
 28 25  1  0  0  0  0
M  END
>  <minimizedAffinity>
-6.75143671

>  <minimizedRMSD>
2.04360676

$$$$
