
 OpenBabel03242523303D

 25 27  0  0  0  0  0  0  0  0999 V2000
   46.4340   32.2440   45.5030 S   0  0  0  0  0  0  0  0  0  0  0  0
   46.1160   33.6960   44.5160 C   0  0  0  0  0  0  0  0  0  0  0  0
   45.0570   34.5300   44.6580 N   0  0  0  0  0  0  0  0  0  0  0  0
   44.9290   35.5960   43.8430 C   0  0  0  0  0  3  0  0  0  0  0  0
   45.8380   35.8660   42.8690 N   0  0  0  0  0  0  0  0  0  0  0  0
   46.9220   35.0610   42.6810 C   0  0  0  0  0  0  0  0  0  0  0  0
   47.8170   35.3760   41.6810 C   0  0  0  0  0  3  0  0  0  0  0  0
   48.9180   34.5290   41.5150 C   0  0  0  0  0  0  0  0  0  0  0  0
   49.6830   34.6710   40.7670 H   0  0  0  0  0  0  0  0  0  0  0  0
   49.0750   33.4340   42.3320 C   0  0  0  0  0  0  0  0  0  0  0  0
   49.9220   32.7430   42.2380 H   0  0  0  0  0  0  0  0  0  0  0  0
   48.1430   33.1730   43.3170 C   0  0  0  0  0  3  0  0  0  0  0  0
   47.0340   33.9790   43.5270 C   0  0  0  0  0  0  0  0  0  0  0  0
   45.7620   30.7850   44.6400 C   0  0  0  0  0  0  0  0  0  0  0  0
   46.4930   30.3980   43.8940 H   0  0  0  0  0  0  0  0  0  0  0  0
   44.8460   31.0390   44.0780 H   0  0  0  0  0  0  0  0  0  0  0  0
   44.2200   27.9530   46.5040 C   0  0  0  0  0  0  0  0  0  0  0  0
   44.9720   27.9800   47.6880 C   0  0  0  0  0  0  0  0  0  0  0  0
   45.9800   28.9530   47.8250 C   0  0  0  0  0  0  0  0  0  0  0  0
   46.1880   29.8340   46.8020 N   0  0  0  0  0  0  0  0  0  0  0  0
   45.4280   29.7710   45.6630 C   0  0  0  0  0  0  0  0  0  0  0  0
   44.4750   28.8480   45.5380 N   0  0  0  0  0  0  0  0  0  0  0  0
   43.4580   27.1960   46.4340 H   0  0  0  0  0  0  0  0  0  0  0  0
   44.8540   27.3150   48.5270 H   0  0  0  0  0  0  0  0  0  0  0  0
   46.5990   29.0460   48.6900 H   0  0  0  0  0  0  0  0  0  0  0  0
  2  3  1  0  0  0  0
  2  1  1  0  0  0  0
  4  3  2  0  0  0  0
  5  4  1  0  0  0  0
  6  5  2  0  0  0  0
  6 13  1  0  0  0  0
  7  6  1  0  0  0  0
  8  7  2  0  0  0  0
  8 10  1  0  0  0  0
  9  8  1  0  0  0  0
 10 12  2  0  0  0  0
 11 10  1  0  0  0  0
 12 13  1  0  0  0  0
 13  2  2  0  0  0  0
 14  1  1  0  0  0  0
 14 21  1  0  0  0  0
 15 14  1  0  0  0  0
 16 14  1  0  0  0  0
 17 18  1  0  0  0  0
 18 19  2  0  0  0  0
 18 24  1  0  0  0  0
 19 25  1  0  0  0  0
 20 19  1  0  0  0  0
 21 20  2  0  0  0  0
 22 21  1  0  0  0  0
 22 17  2  0  0  0  0
 23 17  1  0  0  0  0
M  END
>  <minimizedAffinity>
-4.36417484

>  <minimizedRMSD>
5.38278008

$$$$
