REMARK  Name = 
REMARK  2 active torsions:
REMARK  status: ('A' for Active; 'I' for Inactive)
REMARK    1  A    between atoms: N_1  and  C_8
REMARK    2  A    between atoms: C_3  and  N_12
REMARK                            x       y       z     vdW  Elec       q    Type
REMARK                         _______ _______ _______ _____ _____    ______ ____
ROOT
ATOM      1  N   UNL     1      47.165  34.251  42.386  0.00  0.00    +0.000 N 
ATOM      2  C   UNL     1      48.005  35.053  41.531  0.00  0.00    +0.000 C 
ATOM      3  C   UNL     1      47.692  34.386  40.225  0.00  0.00    +0.000 C 
ATOM      4  C   UNL     1      47.897  32.935  40.563  0.00  0.00    +0.000 C 
ATOM      5  C   UNL     1      47.387  32.869  41.991  0.00  0.00    +0.000 C 
ATOM      6  H   UNL     1      47.770  36.128  41.571  0.00  0.00    +0.000 HD
ATOM      7  H   UNL     1      49.051  34.814  41.790  0.00  0.00    +0.000 HD
ATOM      8  H   UNL     1      46.652  34.562  39.884  0.00  0.00    +0.000 HD
ATOM      9  H   UNL     1      48.923  32.573  40.436  0.00  0.00    +0.000 HD
ATOM     10  H   UNL     1      47.155  32.356  39.958  0.00  0.00    +0.000 HD
ATOM     11  H   UNL     1      48.247  32.517  42.613  0.00  0.00    +0.000 HD
ATOM     12  H   UNL     1      46.497  32.235  42.112  0.00  0.00    +0.000 HD
ENDROOT
BRANCH   3  13
ATOM     13  N   UNL     1      48.658  34.721  39.194  0.00  0.00    +0.000 N 
ATOM     14  H   UNL     1      49.414  35.353  39.474  0.00  0.00    +0.000 HD
ATOM     15  C   UNL     1      48.433  34.130  37.927  0.00  0.00    +0.000 A 
ATOM     16  N   UNL     1      49.446  33.580  37.251  0.00  0.00    +0.000 NA
ATOM     17  C   UNL     1      49.243  33.015  36.044  0.00  0.00    +0.000 A 
ATOM     18  N   UNL     1      48.041  32.955  35.431  0.00  0.00    +0.000 NA
ATOM     19  C   UNL     1      46.997  33.503  36.090  0.00  0.00    +0.000 A 
ATOM     20  C   UNL     1      45.767  33.446  35.471  0.00  0.00    +0.000 A 
ATOM     21  C   UNL     1      44.703  34.006  36.147  0.00  0.00    +0.000 A 
ATOM     22  H   UNL     1      43.715  33.989  35.706  0.00  0.00    +0.000 HD
ATOM     23  C   UNL     1      44.832  34.607  37.394  0.00  0.00    +0.000 A 
ATOM     24  H   UNL     1      43.995  35.034  37.898  0.00  0.00    +0.000 HD
ATOM     25  C   UNL     1      46.104  34.616  37.936  0.00  0.00    +0.000 A 
ATOM     26  C   UNL     1      47.194  34.083  37.325  0.00  0.00    +0.000 A 
ENDBRANCH   3  13
BRANCH   1  29
ATOM     27  C   UNL     1      44.592  35.941  44.472  0.00  0.00    +0.000 A 
ATOM     28  C   UNL     1      45.414  35.698  43.377  0.00  0.00    +0.000 A 
ATOM     29  C   UNL     1      46.280  34.616  43.415  0.00  0.00    +0.000 A 
ATOM     30  N   UNL     1      46.272  33.835  44.556  0.00  0.00    +0.000 NA
ATOM     31  C   UNL     1      45.469  34.085  45.608  0.00  0.00    +0.000 A 
ATOM     32  N   UNL     1      44.621  35.150  45.563  0.00  0.00    +0.000 NA
ATOM     33  H   UNL     1      43.934  36.795  44.397  0.00  0.00    +0.000 HD
ATOM     34  H   UNL     1      45.424  36.303  42.486  0.00  0.00    +0.000 HD
ATOM     35  H   UNL     1      45.551  33.402  46.450  0.00  0.00    +0.000 HD
ENDBRANCH   1  29
TORSDOF 2
