
 OpenBabel03242520343D

 31 34  0  0  1  0  0  0  0  0999 V2000
   46.1660   33.0610   42.7430 C   0  0  0  0  0  0  0  0  0  0  0  0
   47.4290   32.7200   42.1800 C   0  0  0  0  0  0  0  0  0  0  0  0
   48.3070   32.0220   42.9860 C   0  0  0  0  0  0  0  0  0  0  0  0
   47.9260   31.7110   44.2390 N   0  0  0  0  0  0  0  0  0  0  0  0
   46.7560   32.0330   44.7510 C   0  0  0  0  0  0  0  0  0  0  0  0
   45.8830   32.7050   44.0010 N   0  0  0  0  0  0  0  0  0  0  0  0
   45.5210   33.6010   42.0770 H   0  0  0  0  0  0  0  0  0  0  0  0
   49.2830   31.7170   42.6550 H   0  0  0  0  0  0  0  0  0  0  0  0
   46.1840   31.7780   46.0850 C   0  0  0  0  0  0  0  0  0  0  0  0
   45.9690   32.7310   47.0250 N   0  0  0  0  0  0  0  0  0  0  0  0
   45.4520   32.5120   48.2340 C   0  0  0  0  0  0  0  0  0  0  0  0
   45.0900   31.2820   48.6320 N   0  0  0  0  0  0  0  0  0  0  0  0
   45.2620   30.2690   47.7790 C   0  0  0  0  0  0  0  0  0  0  0  0
   44.8860   29.0210   48.2060 C   0  0  0  0  0  0  0  0  0  0  0  0
   45.0320   27.9380   47.3880 C   0  0  0  0  0  0  0  0  0  0  0  0
   44.7300   26.9710   47.7460 H   0  0  0  0  0  0  0  0  0  0  0  0
   45.5680   28.1670   46.1360 C   0  0  0  0  0  0  0  0  0  0  0  0
   45.6700   27.2750   45.5070 H   0  0  0  0  0  0  0  0  0  0  0  0
   45.9320   29.4330   45.7450 C   0  0  0  0  0  0  0  0  0  0  0  0
   45.7990   30.5360   46.5390 C   0  0  0  0  0  0  0  0  0  0  0  0
   47.7950   33.1220   40.7930 C   0  0  1  0  0  0  0  0  0  0  0  0
   47.0520   34.1560   40.1030 C   0  0  0  0  0  0  0  0  0  0  0  0
   48.4130   34.4990   40.5880 C   0  0  1  0  0  0  0  0  0  0  0  0
   48.2480   32.2880   40.2180 H   0  0  0  0  0  0  0  0  0  0  0  0
   46.1740   34.6830   40.5640 H   0  0  0  0  0  0  0  0  0  0  0  0
   46.9090   34.1010   38.9890 H   0  0  0  0  0  0  0  0  0  0  0  0
   49.2260   34.4980   39.8180 H   0  0  0  0  0  0  0  0  0  0  0  0
   48.6180   35.4160   41.7410 C   0  0  0  0  0  0  0  0  0  0  0  0
   49.2870   36.5700   41.3820 F   0  0  0  0  0  0  0  0  0  0  0  0
   49.3250   34.7950   42.7800 F   0  0  0  0  0  0  0  0  0  0  0  0
   47.3820   35.7920   42.2120 F   0  0  0  0  0  0  0  0  0  0  0  0
  1  6  1  0  0  0  0
  2  1  2  0  0  0  0
  2  3  1  0  0  0  0
  3  4  2  0  0  0  0
  4  5  1  0  0  0  0
  5  9  1  0  0  0  0
  6  5  2  0  0  0  0
  7  1  1  0  0  0  0
  8  3  1  0  0  0  0
  9 20  2  0  0  0  0
  9 10  1  0  0  0  0
 10 11  2  0  0  0  0
 11 12  1  0  0  0  0
 13 14  1  0  0  0  0
 13 12  2  0  0  0  0
 15 16  1  0  0  0  0
 15 14  2  0  0  0  0
 17 15  1  0  0  0  0
 18 17  1  0  0  0  0
 19 17  2  0  0  0  0
 19 20  1  0  0  0  0
 20 13  1  0  0  0  0
 21 24  1  6  0  0  0
 21  2  1  0  0  0  0
 22 25  1  0  0  0  0
 22 23  1  0  0  0  0
 22 21  1  0  0  0  0
 23 27  1  6  0  0  0
 23 21  1  0  0  0  0
 23 28  1  0  0  0  0
 26 22  1  0  0  0  0
 28 31  1  0  0  0  0
 28 30  1  0  0  0  0
 29 28  1  0  0  0  0
M  END
>  <minimizedAffinity>
-5.76043415

>  <minimizedRMSD>
2.57522869

$$$$
