
 OpenBabel03242519033D

 35 38  0  0  1  0  0  0  0  0999 V2000
   47.4510   34.3320   42.4870 N   0  0  0  0  0  0  0  0  0  0  0  0
   47.7670   35.1340   41.3310 C   0  0  0  0  0  0  0  0  0  0  0  0
   47.8140   34.0390   40.3080 C   0  0  2  0  0  0  0  0  0  0  0  0
   48.7200   33.0380   40.9690 C   0  0  0  0  0  0  0  0  0  0  0  0
   48.3290   33.1740   42.4290 C   0  0  0  0  0  0  0  0  0  0  0  0
   47.0270   35.9240   41.1320 H   0  0  0  0  0  0  0  0  0  0  0  0
   48.7950   35.5100   41.4710 H   0  0  0  0  0  0  0  0  0  0  0  0
   46.8210   33.5890   40.1060 H   0  0  0  0  0  0  0  0  0  0  0  0
   49.7880   33.1850   40.7760 H   0  0  0  0  0  0  0  0  0  0  0  0
   48.3600   32.0240   40.6610 H   0  0  0  0  0  0  0  0  0  0  0  0
   49.2570   33.4780   42.9740 H   0  0  0  0  0  0  0  0  0  0  0  0
   47.8770   32.2650   42.8510 H   0  0  0  0  0  0  0  0  0  0  0  0
   48.4700   34.4610   39.0840 N   0  0  0  0  0  0  0  0  0  0  0  0
   49.1550   35.2170   39.1780 H   0  0  0  0  0  0  0  0  0  0  0  0
   48.0810   33.7720   37.9100 C   0  0  0  0  0  0  0  0  0  0  0  0
   48.9460   33.6120   36.9050 N   0  0  0  0  0  0  0  0  0  0  0  0
   48.5860   32.9580   35.7830 C   0  0  0  0  0  0  0  0  0  0  0  0
   47.3620   32.4250   35.5790 N   0  0  0  0  0  0  0  0  0  0  0  0
   46.4640   32.5710   36.5780 C   0  0  0  0  0  0  0  0  0  0  0  0
   45.2130   32.0290   36.3780 C   0  0  0  0  0  0  0  0  0  0  0  0
   44.2990   32.1800   37.4000 C   0  0  0  0  0  0  0  0  0  0  0  0
   43.3000   31.7750   37.2960 H   0  0  0  0  0  0  0  0  0  0  0  0
   44.5940   32.8420   38.5870 C   0  0  0  0  0  0  0  0  0  0  0  0
   43.8720   32.9460   39.3640 H   0  0  0  0  0  0  0  0  0  0  0  0
   45.8750   33.3510   38.6960 C   0  0  0  0  0  0  0  0  0  0  0  0
   46.8230   33.2380   37.7300 C   0  0  0  0  0  0  0  0  0  0  0  0
   44.6470   35.5560   44.6010 C   0  0  0  0  0  0  0  0  0  0  0  0
   45.5040   35.4760   43.5090 C   0  0  0  0  0  0  0  0  0  0  0  0
   46.5140   34.5260   43.5170 C   0  0  0  0  0  0  0  0  0  0  0  0
   46.6070   33.7060   44.6270 N   0  0  0  0  0  0  0  0  0  0  0  0
   45.7680   33.7980   45.6760 C   0  0  0  0  0  0  0  0  0  0  0  0
   44.7780   34.7340   45.6600 N   0  0  0  0  0  0  0  0  0  0  0  0
   43.8750   36.3110   44.5500 H   0  0  0  0  0  0  0  0  0  0  0  0
   45.4360   36.1120   42.6420 H   0  0  0  0  0  0  0  0  0  0  0  0
   45.9390   33.1000   46.4920 H   0  0  0  0  0  0  0  0  0  0  0  0
  1 29  1  0  0  0  0
  2  7  1  0  0  0  0
  2  1  1  0  0  0  0
  3  8  1  6  0  0  0
  3  4  1  0  0  0  0
  3  2  1  0  0  0  0
  4  5  1  0  0  0  0
  5  1  1  0  0  0  0
  5 12  1  0  0  0  0
  5 11  1  0  0  0  0
  6  2  1  0  0  0  0
  9  4  1  0  0  0  0
 10  4  1  0  0  0  0
 13 14  1  0  0  0  0
 13  3  1  0  0  0  0
 15 13  1  0  0  0  0
 16 15  2  0  0  0  0
 17 16  1  0  0  0  0
 18 17  2  0  0  0  0
 18 19  1  0  0  0  0
 19 26  1  0  0  0  0
 20 19  2  0  0  0  0
 20 21  1  0  0  0  0
 21 23  2  0  0  0  0
 22 21  1  0  0  0  0
 23 25  1  0  0  0  0
 23 24  1  0  0  0  0
 26 15  1  0  0  0  0
 26 25  2  0  0  0  0
 27 32  1  0  0  0  0
 28 29  1  0  0  0  0
 28 27  2  0  0  0  0
 29 30  2  0  0  0  0
 30 31  1  0  0  0  0
 31 35  1  0  0  0  0
 32 31  2  0  0  0  0
 33 27  1  0  0  0  0
 34 28  1  0  0  0  0
M  END
>  <minimizedAffinity>
-5.67888641

>  <minimizedRMSD>
0.748993576

$$$$
