
     RDKit          3D

 49 52  0  0  0  0  0  0  0  0999 V2000
   45.1539   32.1042   48.1878 O   0  0  0  0  0  0  0  0  0  0  0  0
   46.9838   30.5706   48.2069 C   0  0  2  0  0  0  0  0  0  0  0  0
   45.5306   30.7971   48.3650 C   0  0  2  0  0  0  0  0  0  0  0  0
   44.8736   29.8822   47.4570 C   0  0  0  0  0  0  0  0  0  0  0  0
   45.7461   28.8211   47.1789 O   0  0  0  0  0  0  0  0  0  0  0  0
   46.8358   29.0168   47.9555 C   0  0  0  0  0  0  0  0  0  0  0  0
   47.7602   30.7313   49.2892 O   0  0  0  0  0  0  0  0  0  0  0  0
   49.0124   31.0925   49.2891 C   0  0  0  0  0  0  0  0  0  0  0  0
   49.7287   30.3375   50.4019 C   0  0  0  0  0  0  0  0  0  0  0  0
   47.1673   32.9963   46.9412 O   0  0  0  0  0  0  0  0  0  0  0  0
   45.7285   32.6676   46.7410 P   0  0  1  0  0  0  0  0  0  0  0  0
   45.5933   31.4681   45.5583 O   0  0  0  0  0  0  0  0  0  0  0  0
   44.9732   34.1205   46.2617 O   0  0  0  0  0  0  0  0  0  0  0  0
   44.9812   36.3901   43.4780 C   0  0  0  0  0  0  0  0  0  0  0  0
   45.0316   35.5453   42.3446 C   0  0  0  0  0  0  0  0  0  0  0  0
   45.0622   34.1585   42.6094 C   0  0  0  0  0  0  0  0  0  0  0  0
   45.0421   33.7275   43.8875 N   0  0  0  0  0  0  0  0  0  0  0  0
   44.9936   34.5675   44.9316 C   0  0  0  0  0  0  0  0  0  0  0  0
   44.9634   35.8910   44.7182 N   0  0  0  0  0  0  0  0  0  0  0  0
   44.9535   37.7353   43.2783 O   0  0  0  0  0  0  0  0  0  0  0  0
   47.4443   30.7692   47.2249 H   0  0  0  0  0  0  0  0  0  0  0  0
   45.3748   30.6387   49.4736 H   0  0  0  0  0  0  0  0  0  0  0  0
   44.1692   29.2965   48.1506 H   0  0  0  0  0  0  0  0  0  0  0  0
   44.1405   30.1381   46.7246 H   0  0  0  0  0  0  0  0  0  0  0  0
   46.6293   28.5806   48.9660 H   0  0  0  0  0  0  0  0  0  0  0  0
   47.7853   28.5919   47.6349 H   0  0  0  0  0  0  0  0  0  0  0  0
   49.2887   32.0923   49.1035 H   0  0  0  0  0  0  0  0  0  0  0  0
   49.4622   30.5951   48.2835 H   0  0  0  0  0  0  0  0  0  0  0  0
   49.8081   30.9693   51.3185 H   0  0  0  0  0  0  0  0  0  0  0  0
   49.1835   29.4385   50.7038 H   0  0  0  0  0  0  0  0  0  0  0  0
   50.7519   30.1006   50.0548 H   0  0  0  0  0  0  0  0  0  0  0  0
   44.8394   31.5996   44.9390 H   0  0  0  0  0  0  0  0  0  0  0  0
   45.0465   35.9188   41.3272 H   0  0  0  0  0  0  0  0  0  0  0  0
   45.1014   33.4507   41.7883 H   0  0  0  0  0  0  0  0  0  0  0  0
   44.9069   38.6904   44.2498 C   0  0  0  0  0  0  0  0  0  0  0  0
   45.4617   39.9237   44.0711 N   0  0  0  0  0  0  0  0  0  0  0  0
   45.3750   40.8135   45.0773 C   0  0  0  0  0  0  0  0  0  0  0  0
   44.7651   40.5234   46.2361 N   0  0  0  0  0  0  0  0  0  0  0  0
   44.2074   39.3163   46.4448 C   0  0  0  0  0  0  0  0  0  0  0  0
   43.5731   38.9977   47.6347 C   0  0  0  0  0  0  0  0  0  0  0  0
   43.0036   37.7605   47.8436 C   0  0  0  0  0  0  0  0  0  0  0  0
   42.5035   37.4777   48.7537 H   0  0  0  0  0  0  0  0  0  0  0  0
   43.0835   36.8239   46.8118 C   0  0  0  0  0  0  0  0  0  0  0  0
   42.6335   35.8571   46.9867 H   0  0  0  0  0  0  0  0  0  0  0  0
   43.7142   37.1056   45.5967 C   0  0  0  0  0  0  0  0  0  0  0  0
   44.2621   38.3485   45.4430 C   0  0  0  0  0  0  0  0  0  0  0  0
   45.8273   41.7867   44.9024 H   0  0  0  0  0  0  0  0  0  0  0  0
   43.5101   39.7201   48.4342 H   0  0  0  0  0  0  0  0  0  0  0  0
   43.7733   36.3807   44.8043 H   0  0  0  0  0  0  0  0  0  0  0  0
  1  3  1  0
  2  3  1  0
  2  7  1  0
  4  3  1  0
  5  4  1  0
  5  6  1  0
  6  2  1  0
  8  7  1  0
  8  9  1  0
 11 10  2  0
 11  1  1  1
 12 11  1  0
 13 11  1  0
 14 19  2  0
 15 16  2  0
 15 14  1  0
 16 17  1  0
 17 18  2  0
 18 13  1  0
 19 18  1  0
 20 14  1  0
  2 21  1  6
  3 22  1  1
  4 23  1  0
  4 24  1  0
  6 25  1  0
  6 26  1  0
  8 27  1  0
  8 28  1  0
  9 29  1  0
  9 30  1  0
  9 31  1  0
 12 32  1  0
 15 33  1  0
 16 34  1  0
 35 36  2  0
 36 37  1  0
 37 38  2  0
 38 39  1  0
 39 40  2  0
 40 41  1  0
 41 42  1  0
 41 43  2  0
 43 44  1  0
 43 45  1  0
 45 46  2  0
 46 35  1  0
 46 39  1  0
 37 47  1  0
 40 48  1  0
 45 49  1  0
 20 35  1  0
M  ISO  8  21  13  22  13  23  13  24  13  25  13  26  13  27   8  28   8
M  ISO  8  29   8  30   8  31   8  32   3  33  14  34  14  42  16  44  16
M  END
>  <DihAtoms>  (1) 
13,19,34,35

>  <DihDeg>  (1) 
0.0008245762946584331

$$$$
