
     RDKit          3D

 39 42  0  0  0  0  0  0  0  0999 V2000
   44.5004   35.7464   44.9966 C   0  0  0  0  0  0  0  0  0  0  0  0
   45.1287   35.7082   43.7407 C   0  0  0  0  0  0  0  0  0  0  0  0
   46.0168   34.7078   43.4763 C   0  0  0  0  0  0  0  0  0  0  0  0
   46.2259   33.8104   44.4703 N   0  0  0  0  0  0  0  0  0  0  0  0
   45.6314   33.8509   45.6515 C   0  0  0  0  0  0  0  0  0  0  0  0
   44.7505   34.8167   45.9563 N   0  0  0  0  0  0  0  0  0  0  0  0
   45.9501   32.8410   46.5895 N   0  0  0  0  0  0  0  0  0  0  0  0
   45.1623   32.5608   47.7999 C   0  0  0  0  0  0  0  0  0  0  0  0
   46.2391   32.2348   48.8090 C   0  0  0  0  0  0  0  0  0  0  0  0
   47.5214   32.0786   48.0379 C   0  0  0  0  0  0  0  0  0  0  0  0
   47.0239   31.8950   46.6293 C   0  0  1  0  0  0  0  0  0  0  0  0
   44.7409   36.7738   42.8523 N   0  0  0  0  0  0  0  0  0  0  0  0
   46.4906   30.1996   46.4014 S   0  0  0  0  0  0  0  0  0  0  0  0
   43.7703   36.5052   45.3175 H   0  0  0  0  0  0  0  0  0  0  0  0
   46.4664   34.7172   42.5180 H   0  0  0  0  0  0  0  0  0  0  0  0
   44.4203   31.7701   47.6517 H   0  0  0  0  0  0  0  0  0  0  0  0
   44.7081   33.5275   48.1313 H   0  0  0  0  0  0  0  0  0  0  0  0
   45.9911   31.2160   49.2055 H   0  0  0  0  0  0  0  0  0  0  0  0
   46.3020   32.9589   49.6252 H   0  0  0  0  0  0  0  0  0  0  0  0
   48.1705   31.2575   48.3835 H   0  0  0  0  0  0  0  0  0  0  0  0
   48.0368   33.0767   48.0607 H   0  0  0  0  0  0  0  0  0  0  0  0
   47.7646   32.2258   45.8704 H   0  0  0  0  0  0  0  0  0  0  0  0
   43.7854   36.8502   42.4106 H   0  0  0  0  0  0  0  0  0  0  0  0
   45.4898   37.4672   42.6832 H   0  0  0  0  0  0  0  0  0  0  0  0
   45.8782   29.8206   44.7942 C   0  0  0  0  0  0  0  0  0  0  0  0
   44.9178   28.9203   44.4241 N   0  0  0  0  0  0  0  0  0  0  0  0
   44.6153   28.7855   43.1237 C   0  0  0  0  0  0  0  0  0  0  0  0
   45.1909   29.4791   42.1237 N   0  0  0  0  0  0  0  0  0  0  0  0
   46.1476   30.3818   42.4464 C   0  0  0  0  0  0  0  0  0  0  0  0
   46.6897   31.0457   41.3686 C   0  0  0  0  0  0  0  0  0  0  0  0
   47.6861   31.9847   41.6585 C   0  0  0  0  0  0  0  0  0  0  0  0
   48.1624   32.5478   40.8718 H   0  0  0  0  0  0  0  0  0  0  0  0
   48.0640   32.1937   42.9591 C   0  0  0  0  0  0  0  0  0  0  0  0
   48.8336   32.9159   43.2054 H   0  0  0  0  0  0  0  0  0  0  0  0
   47.4713   31.4871   43.9832 C   0  0  0  0  0  0  0  0  0  0  0  0
   46.4753   30.5378   43.7756 C   0  0  0  0  0  0  0  0  0  0  0  0
   43.8504   28.0620   42.8797 H   0  0  0  0  0  0  0  0  0  0  0  0
   46.3762   30.8644   40.3561 H   0  0  0  0  0  0  0  0  0  0  0  0
   47.7977   31.6809   45.0041 H   0  0  0  0  0  0  0  0  0  0  0  0
  1  6  2  0
  2  1  1  0
  3  2  2  0
  3  4  1  0
  4  5  2  0
  5  6  1  0
  5  7  1  0
  7 11  1  0
  7  8  1  0
  8  9  1  0
 10  9  1  0
 11 10  1  0
 12  2  1  0
 13 11  1  0
  1 14  1  0
  3 15  1  0
  8 16  1  0
  8 17  1  0
  9 18  1  0
  9 19  1  0
 10 20  1  0
 10 21  1  0
 11 22  1  6
 12 23  1  0
 12 24  1  0
 25 26  2  0
 26 27  1  0
 27 28  2  0
 28 29  1  0
 29 30  2  0
 30 31  1  0
 31 32  1  0
 31 33  2  0
 33 34  1  0
 33 35  1  0
 35 36  2  0
 36 25  1  0
 36 29  1  0
 27 37  1  0
 30 38  1  0
 35 39  1  0
 13 25  1  0
M  ISO  8  14  14  15  14  16  13  17  13  18  13  19  13  20  13  21  13
M  ISO  3  22  13  32  16  34  16
M  END
>  <DihAtoms>  (1) 
10,12,24,25

>  <DihDeg>  (1) 
-88.57208054460864

$$$$
