
 OpenBabel03252502243D

 37 40  0  0  1  0  0  0  0  0999 V2000
   46.7010   34.4840   42.2680 N   0  0  0  0  0  0  0  0  0  0  0  0
   48.1470   34.2970   42.3040 C   0  0  0  0  0  0  0  0  0  0  0  0
   48.6590   35.0630   41.0870 C   0  0  0  0  0  0  0  0  0  0  0  0
   48.1570   34.4300   39.8240 C   0  0  0  0  0  0  0  0  0  0  0  0
   46.7530   33.9450   39.8830 C   0  0  0  0  0  0  0  0  0  0  0  0
   45.9530   34.4270   41.0430 C   0  0  1  0  0  0  0  0  0  0  0  0
   48.3290   33.2330   42.0940 H   0  0  0  0  0  0  0  0  0  0  0  0
   48.5970   34.6730   43.2170 H   0  0  0  0  0  0  0  0  0  0  0  0
   49.7740   34.8860   41.1070 H   0  0  0  0  0  0  0  0  0  0  0  0
   48.4230   36.1220   41.1940 H   0  0  0  0  0  0  0  0  0  0  0  0
   48.8410   33.6110   39.4730 H   0  0  0  0  0  0  0  0  0  0  0  0
   48.2160   35.2040   39.0210 H   0  0  0  0  0  0  0  0  0  0  0  0
   46.1820   34.1270   38.9470 H   0  0  0  0  0  0  0  0  0  0  0  0
   46.7850   32.8230   39.9660 H   0  0  0  0  0  0  0  0  0  0  0  0
   45.5340   35.4370   40.7980 H   0  0  0  0  0  0  0  0  0  0  0  0
   44.4700   36.0360   44.8380 C   0  0  0  0  0  0  0  0  0  0  0  0
   45.1450   35.8690   43.6240 C   0  0  0  0  0  0  0  0  0  0  0  0
   45.9770   34.7330   43.4700 C   0  0  0  0  0  0  0  0  0  0  0  0
   46.0680   33.8710   44.5170 N   0  0  0  0  0  0  0  0  0  0  0  0
   45.3900   34.0780   45.6780 C   0  0  0  0  0  0  0  0  0  0  0  0
   44.5970   35.1580   45.8280 N   0  0  0  0  0  0  0  0  0  0  0  0
   43.8760   36.9400   44.8120 H   0  0  0  0  0  0  0  0  0  0  0  0
   45.0940   36.5330   42.7770 H   0  0  0  0  0  0  0  0  0  0  0  0
   45.4760   33.3810   46.5000 H   0  0  0  0  0  0  0  0  0  0  0  0
   44.8800   33.5380   41.2260 O   0  0  0  0  0  0  0  0  0  0  0  0
   43.5620   33.8190   40.9720 C   0  0  0  0  0  0  0  0  0  0  0  0
   43.0270   34.8800   40.3460 N   0  0  0  0  0  0  0  0  0  0  0  0
   41.7140   35.0190   40.1710 C   0  0  0  0  0  3  0  0  0  0  0  0
   40.8470   34.0760   40.6250 N   0  0  0  0  0  0  0  0  0  0  0  0
   41.3150   32.9920   41.2580 C   0  0  0  0  0  0  0  0  0  0  0  0
   40.4370   32.0370   41.7180 C   0  0  0  0  0  3  0  0  0  0  0  0
   40.8740   30.9100   42.3710 C   0  0  0  0  0  0  0  0  0  0  0  0
   40.2610   30.1040   42.7700 H   0  0  0  0  0  0  0  0  0  0  0  0
   42.2140   30.7500   42.5610 C   0  0  0  0  0  0  0  0  0  0  0  0
   42.6440   29.8960   43.0640 H   0  0  0  0  0  0  0  0  0  0  0  0
   43.0840   31.7140   42.0950 C   0  0  0  0  0  3  0  0  0  0  0  0
   42.6790   32.8600   41.4340 C   0  0  0  0  0  0  0  0  0  0  0  0
  1  2  1  0  0  0  0
  1 18  1  0  0  0  0
  2  8  1  0  0  0  0
  3  9  1  0  0  0  0
  3 10  1  0  0  0  0
  3  2  1  0  0  0  0
  4  5  1  0  0  0  0
  4  3  1  0  0  0  0
  5 14  1  0  0  0  0
  5  6  1  0  0  0  0
  6 15  1  6  0  0  0
  6 25  1  0  0  0  0
  6  1  1  0  0  0  0
  7  2  1  0  0  0  0
 11  4  1  0  0  0  0
 12  4  1  0  0  0  0
 13  5  1  0  0  0  0
 16 21  1  0  0  0  0
 17 16  2  0  0  0  0
 18 17  1  0  0  0  0
 18 19  2  0  0  0  0
 19 20  1  0  0  0  0
 20 21  2  0  0  0  0
 20 24  1  0  0  0  0
 22 16  1  0  0  0  0
 23 17  1  0  0  0  0
 26 25  1  0  0  0  0
 26 37  1  0  0  0  0
 27 26  2  0  0  0  0
 28 27  1  0  0  0  0
 28 29  2  0  0  0  0
 29 30  1  0  0  0  0
 30 37  2  0  0  0  0
 30 31  1  0  0  0  0
 31 32  2  0  0  0  0
 32 34  1  0  0  0  0
 32 33  1  0  0  0  0
 34 35  1  0  0  0  0
 36 34  2  0  0  0  0
 37 36  1  0  0  0  0
M  END
>  <minimizedAffinity>
-6.24684811

>  <minimizedRMSD>
1.10840142

$$$$
