
 OpenBabel03242523133D

 49 54  0  0  1  0  0  0  0  0999 V2000
   36.0880   27.1860   39.3260 C   0  0  0  0  0  0  0  0  0  0  0  0
   36.2630   28.5550   39.6300 C   0  0  0  0  0  0  0  0  0  0  0  0
   35.7860   29.3490   38.6170 C   0  0  0  0  0  0  0  0  0  0  0  0
   35.2160   28.9230   37.4590 C   0  0  0  0  0  0  0  0  0  0  0  0
   35.0860   27.5570   37.2370 C   0  0  0  0  0  0  0  0  0  0  0  0
   35.5280   26.6780   38.1880 C   0  0  0  0  0  0  0  0  0  0  0  0
   34.4860   27.4580   35.9910 O   0  0  0  0  0  0  0  0  0  0  0  0
   34.2050   28.7400   35.4760 C   0  0  2  0  0  0  0  0  0  0  0  0
   34.7200   29.6820   36.4140 O   0  0  0  0  0  0  0  0  0  0  0  0
   36.3500   26.2890   39.9280 H   0  0  0  0  0  0  0  0  0  0  0  0
   35.9060   30.3650   38.8220 H   0  0  0  0  0  0  0  0  0  0  0  0
   35.3750   25.6590   37.9100 H   0  0  0  0  0  0  0  0  0  0  0  0
   34.6670   28.9630   34.5150 H   0  0  0  0  0  0  0  0  0  0  0  0
   38.2440   29.6790   42.6030 C   0  0  0  0  0  0  0  0  0  0  0  0
   37.7500   29.7560   41.3010 C   0  0  0  0  0  0  0  0  0  0  0  0
   36.9160   28.7810   40.8440 C   0  0  0  0  0  0  0  0  0  0  0  0
   36.6130   27.7650   41.7120 N   0  0  0  0  0  0  0  0  0  0  0  0
   37.0850   27.6890   42.9580 C   0  0  0  0  0  0  0  0  0  0  0  0
   37.8880   28.6360   43.3920 N   0  0  0  0  0  0  0  0  0  0  0  0
   38.9080   30.4510   42.9750 H   0  0  0  0  0  0  0  0  0  0  0  0
   36.8800   26.9160   43.6830 H   0  0  0  0  0  0  0  0  0  0  0  0
   38.1610   30.8370   40.5250 N   0  0  0  0  0  0  0  0  0  0  0  0
   39.2430   30.7290   39.6000 C   0  0  0  0  0  0  0  0  0  0  0  0
   39.4440   31.9330   38.7230 C   0  0  0  0  0  0  0  0  0  0  0  0
   38.2760   32.5300   38.2550 N   0  0  0  0  0  0  0  0  0  0  0  0
   37.2510   32.6700   39.1660 C   0  0  0  0  0  0  0  0  0  0  0  0
   37.6090   32.1330   40.5340 C   0  0  0  0  0  0  0  0  0  0  0  0
   40.1790   30.6070   40.1980 H   0  0  0  0  0  0  0  0  0  0  0  0
   39.2080   29.7980   38.9770 H   0  0  0  0  0  0  0  0  0  0  0  0
   40.0890   32.6740   39.2440 H   0  0  0  0  0  0  0  0  0  0  0  0
   40.0730   31.5910   37.8510 H   0  0  0  0  0  0  0  0  0  0  0  0
   38.4980   33.3750   37.7220 H   0  0  0  0  0  0  0  0  0  0  0  0
   36.2950   32.2740   38.7760 H   0  0  0  0  0  0  0  0  0  0  0  0
   37.0450   33.7690   39.3280 H   0  0  0  0  0  0  0  0  0  0  0  0
   36.7020   32.2610   41.1740 H   0  0  0  0  0  0  0  0  0  0  0  0
   38.3700   32.8510   40.9460 H   0  0  0  0  0  0  0  0  0  0  0  0
   32.7970   28.8670   35.4510 O   0  0  0  0  0  0  0  0  0  0  0  0
   32.0900   30.0230   35.2710 C   0  0  0  0  0  0  0  0  0  0  0  0
   32.0810   30.8340   34.1750 N   0  0  0  0  0  0  0  0  0  0  0  0
   31.3270   31.9520   34.1430 C   0  0  0  0  0  3  0  0  0  0  0  0
   30.5390   32.3510   35.1590 N   0  0  0  0  0  0  0  0  0  0  0  0
   30.5170   31.5750   36.2670 C   0  0  0  0  0  0  0  0  0  0  0  0
   29.7160   31.9620   37.3280 C   0  0  0  0  0  3  0  0  0  0  0  0
   29.6550   31.2050   38.4880 C   0  0  0  0  0  0  0  0  0  0  0  0
   29.0550   31.4350   39.3670 H   0  0  0  0  0  0  0  0  0  0  0  0
   30.4170   30.0350   38.5780 C   0  0  0  0  0  0  0  0  0  0  0  0
   30.4340   29.3720   39.4540 H   0  0  0  0  0  0  0  0  0  0  0  0
   31.2010   29.6840   37.5030 C   0  0  0  0  0  3  0  0  0  0  0  0
   31.2880   30.4190   36.3230 C   0  0  0  0  0  0  0  0  0  0  0  0
  1  2  1  0  0  0  0
  1 10  1  0  0  0  0
  2 16  1  0  0  0  0
  3 11  1  0  0  0  0
  3  2  2  0  0  0  0
  4  3  1  0  0  0  0
  5  4  2  0  0  0  0
  5  6  1  0  0  0  0
  6  1  2  0  0  0  0
  7  5  1  0  0  0  0
  8 13  1  6  0  0  0
  8  7  1  0  0  0  0
  8  9  1  0  0  0  0
  9  4  1  0  0  0  0
 12  6  1  0  0  0  0
 14 20  1  0  0  0  0
 14 19  1  0  0  0  0
 15 14  2  0  0  0  0
 16 15  1  0  0  0  0
 16 17  2  0  0  0  0
 17 18  1  0  0  0  0
 18 19  2  0  0  0  0
 18 21  1  0  0  0  0
 22 27  1  0  0  0  0
 22 15  1  0  0  0  0
 23 28  1  0  0  0  0
 23 22  1  0  0  0  0
 24 30  1  0  0  0  0
 24 23  1  0  0  0  0
 25 24  1  0  0  0  0
 25 26  1  0  0  0  0
 26 34  1  0  0  0  0
 26 27  1  0  0  0  0
 27 36  1  0  0  0  0
 27 35  1  0  0  0  0
 29 23  1  0  0  0  0
 31 24  1  0  0  0  0
 32 25  1  0  0  0  0
 33 26  1  0  0  0  0
 37  8  1  0  0  0  0
 38 37  1  0  0  0  0
 38 49  1  0  0  0  0
 39 38  2  0  0  0  0
 40 39  1  0  0  0  0
 40 41  2  0  0  0  0
 41 42  1  0  0  0  0
 42 49  2  0  0  0  0
 42 43  1  0  0  0  0
 43 44  2  0  0  0  0
 44 46  1  0  0  0  0
 44 45  1  0  0  0  0
 46 47  1  0  0  0  0
 48 46  2  0  0  0  0
 49 48  1  0  0  0  0
M  END
>  <minimizedAffinity>
-6.98066664

$$$$

 OpenBabel03242523133D

 49 54  0  0  1  0  0  0  0  0999 V2000
   42.6900   31.9820   41.9090 C   0  0  0  0  0  0  0  0  0  0  0  0
   42.4340   31.3540   40.6690 C   0  0  0  0  0  0  0  0  0  0  0  0
   42.3170   29.9950   40.8210 C   0  0  0  0  0  0  0  0  0  0  0  0
   42.4250   29.3010   41.9840 C   0  0  0  0  0  0  0  0  0  0  0  0
   42.6820   29.9970   43.1600 C   0  0  0  0  0  0  0  0  0  0  0  0
   42.8140   31.3580   43.1180 C   0  0  0  0  0  0  0  0  0  0  0  0
   42.7390   29.0200   44.1420 O   0  0  0  0  0  0  0  0  0  0  0  0
   42.4710   27.7500   43.5900 C   0  0  2  0  0  0  0  0  0  0  0  0
   42.3120   27.9370   42.1870 O   0  0  0  0  0  0  0  0  0  0  0  0
   42.8260   33.0610   42.1410 H   0  0  0  0  0  0  0  0  0  0  0  0
   42.1280   29.5110   39.9150 H   0  0  0  0  0  0  0  0  0  0  0  0
   43.0070   31.7830   44.0780 H   0  0  0  0  0  0  0  0  0  0  0  0
   43.2610   27.0130   43.7260 H   0  0  0  0  0  0  0  0  0  0  0  0
   41.7490   33.6920   37.8240 C   0  0  0  0  0  0  0  0  0  0  0  0
   41.4190   32.8430   38.8800 C   0  0  0  0  0  0  0  0  0  0  0  0
   42.4140   32.2380   39.5870 C   0  0  0  0  0  0  0  0  0  0  0  0
   43.7010   32.5070   39.2040 N   0  0  0  0  0  0  0  0  0  0  0  0
   44.0190   33.3190   38.1940 C   0  0  0  0  0  0  0  0  0  0  0  0
   43.0520   33.9000   37.5170 N   0  0  0  0  0  0  0  0  0  0  0  0
   40.9630   34.1780   37.2560 H   0  0  0  0  0  0  0  0  0  0  0  0
   45.0120   33.5670   37.8480 H   0  0  0  0  0  0  0  0  0  0  0  0
   40.0650   32.6470   39.1430 N   0  0  0  0  0  0  0  0  0  0  0  0
   39.3020   33.5910   39.8940 C   0  0  0  0  0  0  0  0  0  0  0  0
   37.8250   33.3130   39.9390 C   0  0  0  0  0  0  0  0  0  0  0  0
   37.2680   32.8650   38.7430 N   0  0  0  0  0  0  0  0  0  0  0  0
   37.9910   31.9210   38.0450 C   0  0  0  0  0  0  0  0  0  0  0  0
   39.2830   31.5480   38.7360 C   0  0  0  0  0  0  0  0  0  0  0  0
   39.6680   33.5480   40.9480 H   0  0  0  0  0  0  0  0  0  0  0  0
   39.4870   34.6550   39.5950 H   0  0  0  0  0  0  0  0  0  0  0  0
   37.5990   32.6120   40.7710 H   0  0  0  0  0  0  0  0  0  0  0  0
   37.3300   34.2770   40.2530 H   0  0  0  0  0  0  0  0  0  0  0  0
   36.2790   32.6390   38.8750 H   0  0  0  0  0  0  0  0  0  0  0  0
   38.1270   32.2060   36.9860 H   0  0  0  0  0  0  0  0  0  0  0  0
   37.3980   30.9620   37.9940 H   0  0  0  0  0  0  0  0  0  0  0  0
   39.8000   30.8150   38.0700 H   0  0  0  0  0  0  0  0  0  0  0  0
   38.9760   30.9620   39.6460 H   0  0  0  0  0  0  0  0  0  0  0  0
   41.2300   27.3310   44.1240 O   0  0  0  0  0  0  0  0  0  0  0  0
   40.3720   26.4260   43.5640 C   0  0  0  0  0  0  0  0  0  0  0  0
   40.5790   25.0940   43.3620 N   0  0  0  0  0  0  0  0  0  0  0  0
   39.6310   24.3210   42.7930 C   0  0  0  0  0  3  0  0  0  0  0  0
   38.4340   24.7840   42.3880 N   0  0  0  0  0  0  0  0  0  0  0  0
   38.1850   26.1010   42.5690 C   0  0  0  0  0  0  0  0  0  0  0  0
   36.9620   26.6050   42.1620 C   0  0  0  0  0  3  0  0  0  0  0  0
   36.6550   27.9470   42.3230 C   0  0  0  0  0  0  0  0  0  0  0  0
   35.7210   28.4250   42.0320 H   0  0  0  0  0  0  0  0  0  0  0  0
   37.6000   28.7970   42.9080 C   0  0  0  0  0  0  0  0  0  0  0  0
   37.4480   29.8710   43.0770 H   0  0  0  0  0  0  0  0  0  0  0  0
   38.8040   28.2580   43.3000 C   0  0  0  0  0  3  0  0  0  0  0  0
   39.1490   26.9170   43.1530 C   0  0  0  0  0  0  0  0  0  0  0  0
  1 10  1  0  0  0  0
  1  6  1  0  0  0  0
  2  3  1  0  0  0  0
  2  1  2  0  0  0  0
  3  4  2  0  0  0  0
  4  9  1  0  0  0  0
  4  5  1  0  0  0  0
  5  7  1  0  0  0  0
  6  5  2  0  0  0  0
  6 12  1  0  0  0  0
  8 13  1  1  0  0  0
  8 37  1  0  0  0  0
  8  7  1  0  0  0  0
  9  8  1  0  0  0  0
 11  3  1  0  0  0  0
 14 15  1  0  0  0  0
 15 22  1  0  0  0  0
 15 16  2  0  0  0  0
 16  2  1  0  0  0  0
 17 16  1  0  0  0  0
 18 17  2  0  0  0  0
 19 14  2  0  0  0  0
 19 18  1  0  0  0  0
 20 14  1  0  0  0  0
 21 18  1  0  0  0  0
 22 23  1  0  0  0  0
 23 24  1  0  0  0  0
 23 28  1  0  0  0  0
 24 31  1  0  0  0  0
 24 30  1  0  0  0  0
 25 32  1  0  0  0  0
 25 24  1  0  0  0  0
 26 27  1  0  0  0  0
 26 25  1  0  0  0  0
 27 22  1  0  0  0  0
 27 36  1  0  0  0  0
 29 23  1  0  0  0  0
 33 26  1  0  0  0  0
 34 26  1  0  0  0  0
 35 27  1  0  0  0  0
 38 37  1  0  0  0  0
 39 38  1  0  0  0  0
 40 39  2  0  0  0  0
 41 42  2  0  0  0  0
 41 40  1  0  0  0  0
 42 49  1  0  0  0  0
 43 44  2  0  0  0  0
 43 42  1  0  0  0  0
 44 46  1  0  0  0  0
 45 44  1  0  0  0  0
 46 47  1  0  0  0  0
 46 48  2  0  0  0  0
 49 48  1  0  0  0  0
 49 38  2  0  0  0  0
M  END
>  <minimizedAffinity>
-6.80370522

$$$$

 OpenBabel03242523133D

 49 54  0  0  1  0  0  0  0  0999 V2000
   40.7540   31.5280   42.1970 C   0  0  0  0  0  0  0  0  0  0  0  0
   39.9900   31.3330   41.0240 C   0  0  0  0  0  0  0  0  0  0  0  0
   40.1480   30.0570   40.5410 C   0  0  0  0  0  0  0  0  0  0  0  0
   40.9230   29.0810   41.0800 C   0  0  0  0  0  0  0  0  0  0  0  0
   41.6470   29.3580   42.2350 C   0  0  0  0  0  0  0  0  0  0  0  0
   41.5570   30.6010   42.8000 C   0  0  0  0  0  0  0  0  0  0  0  0
   42.3230   28.1810   42.5170 O   0  0  0  0  0  0  0  0  0  0  0  0
   41.9840   27.1810   41.5830 C   0  0  2  0  0  0  0  0  0  0  0  0
   41.1110   27.7850   40.6320 O   0  0  0  0  0  0  0  0  0  0  0  0
   40.8440   32.4290   42.8410 H   0  0  0  0  0  0  0  0  0  0  0  0
   39.5910   29.8930   39.6730 H   0  0  0  0  0  0  0  0  0  0  0  0
   42.1520   30.6960   43.6800 H   0  0  0  0  0  0  0  0  0  0  0  0
   42.8230   26.7670   41.0250 H   0  0  0  0  0  0  0  0  0  0  0  0
   37.6800   34.0000   39.7690 C   0  0  0  0  0  0  0  0  0  0  0  0
   38.0620   32.6990   40.0960 C   0  0  0  0  0  0  0  0  0  0  0  0
   39.3060   32.4760   40.6050 C   0  0  0  0  0  0  0  0  0  0  0  0
   40.1180   33.5680   40.7630 N   0  0  0  0  0  0  0  0  0  0  0  0
   39.7550   34.8130   40.4500 C   0  0  0  0  0  0  0  0  0  0  0  0
   38.5520   35.0200   39.9600 N   0  0  0  0  0  0  0  0  0  0  0  0
   36.6920   34.1870   39.3630 H   0  0  0  0  0  0  0  0  0  0  0  0
   40.3500   35.7080   40.5530 H   0  0  0  0  0  0  0  0  0  0  0  0
   37.1380   31.6840   39.8610 N   0  0  0  0  0  0  0  0  0  0  0  0
   36.9610   31.1150   38.5640 C   0  0  0  0  0  0  0  0  0  0  0  0
   36.0510   29.9190   38.5210 C   0  0  0  0  0  0  0  0  0  0  0  0
   36.1880   29.0280   39.5830 N   0  0  0  0  0  0  0  0  0  0  0  0
   36.3150   29.5850   40.8370 C   0  0  0  0  0  0  0  0  0  0  0  0
   36.2790   31.0970   40.8110 C   0  0  0  0  0  0  0  0  0  0  0  0
   36.4920   31.8980   37.9200 H   0  0  0  0  0  0  0  0  0  0  0  0
   37.9250   30.8870   38.0400 H   0  0  0  0  0  0  0  0  0  0  0  0
   34.9960   30.2520   38.4130 H   0  0  0  0  0  0  0  0  0  0  0  0
   36.2690   29.3890   37.5490 H   0  0  0  0  0  0  0  0  0  0  0  0
   35.4930   28.2810   39.5120 H   0  0  0  0  0  0  0  0  0  0  0  0
   37.1850   29.1770   41.3840 H   0  0  0  0  0  0  0  0  0  0  0  0
   35.4300   29.2820   41.4700 H   0  0  0  0  0  0  0  0  0  0  0  0
   36.4290   31.4380   41.8650 H   0  0  0  0  0  0  0  0  0  0  0  0
   35.2170   31.3650   40.5570 H   0  0  0  0  0  0  0  0  0  0  0  0
   41.2540   26.1970   42.2900 O   0  0  0  0  0  0  0  0  0  0  0  0
   40.0740   25.6280   41.9010 C   0  0  0  0  0  0  0  0  0  0  0  0
   39.8930   24.5950   41.0300 N   0  0  0  0  0  0  0  0  0  0  0  0
   38.6570   24.1370   40.7410 C   0  0  0  0  0  3  0  0  0  0  0  0
   37.5290   24.6450   41.2730 N   0  0  0  0  0  0  0  0  0  0  0  0
   37.6630   25.6720   42.1430 C   0  0  0  0  0  0  0  0  0  0  0  0
   36.5200   26.2150   42.7050 C   0  0  0  0  0  3  0  0  0  0  0  0
   36.5980   27.2680   43.6020 C   0  0  0  0  0  0  0  0  0  0  0  0
   35.7530   27.7530   44.0890 H   0  0  0  0  0  0  0  0  0  0  0  0
   37.8530   27.7840   43.9390 C   0  0  0  0  0  0  0  0  0  0  0  0
   38.0150   28.6160   44.6390 H   0  0  0  0  0  0  0  0  0  0  0  0
   38.9660   27.2180   43.3600 C   0  0  0  0  0  3  0  0  0  0  0  0
   38.9270   26.1610   42.4550 C   0  0  0  0  0  0  0  0  0  0  0  0
  1  6  1  0  0  0  0
  1 10  1  0  0  0  0
  2  1  2  0  0  0  0
  3  2  1  0  0  0  0
  3  4  2  0  0  0  0
  4  5  1  0  0  0  0
  5  7  1  0  0  0  0
  5  6  2  0  0  0  0
  6 12  1  0  0  0  0
  8 13  1  6  0  0  0
  8 37  1  0  0  0  0
  8  7  1  0  0  0  0
  9  4  1  0  0  0  0
  9  8  1  0  0  0  0
 11  3  1  0  0  0  0
 14 19  2  0  0  0  0
 14 15  1  0  0  0  0
 15 16  2  0  0  0  0
 16 17  1  0  0  0  0
 16  2  1  0  0  0  0
 18 21  1  0  0  0  0
 18 17  2  0  0  0  0
 19 18  1  0  0  0  0
 20 14  1  0  0  0  0
 22 15  1  0  0  0  0
 22 27  1  0  0  0  0
 23 22  1  0  0  0  0
 24 23  1  0  0  0  0
 24 25  1  0  0  0  0
 25 26  1  0  0  0  0
 26 33  1  0  0  0  0
 26 34  1  0  0  0  0
 27 26  1  0  0  0  0
 27 35  1  0  0  0  0
 28 23  1  0  0  0  0
 29 23  1  0  0  0  0
 30 24  1  0  0  0  0
 31 24  1  0  0  0  0
 32 25  1  0  0  0  0
 36 27  1  0  0  0  0
 38 37  1  0  0  0  0
 38 49  1  0  0  0  0
 39 38  2  0  0  0  0
 40 39  1  0  0  0  0
 40 41  2  0  0  0  0
 41 42  1  0  0  0  0
 42 49  2  0  0  0  0
 42 43  1  0  0  0  0
 43 44  2  0  0  0  0
 44 46  1  0  0  0  0
 44 45  1  0  0  0  0
 46 47  1  0  0  0  0
 48 46  2  0  0  0  0
 49 48  1  0  0  0  0
M  END
>  <minimizedAffinity>
-6.73008776

$$$$

 OpenBabel03242523133D

 49 54  0  0  1  0  0  0  0  0999 V2000
   41.1050   30.9470   39.7770 C   0  0  0  0  0  0  0  0  0  0  0  0
   40.9960   31.7810   40.9130 C   0  0  0  0  0  0  0  0  0  0  0  0
   39.6820   32.0760   41.1820 C   0  0  0  0  0  0  0  0  0  0  0  0
   38.6000   31.6500   40.4800 C   0  0  0  0  0  0  0  0  0  0  0  0
   38.7970   30.8340   39.3710 C   0  0  0  0  0  0  0  0  0  0  0  0
   40.0700   30.4790   39.0180 C   0  0  0  0  0  0  0  0  0  0  0  0
   37.5220   30.5870   38.8850 O   0  0  0  0  0  0  0  0  0  0  0  0
   36.5530   31.1970   39.7080 C   0  0  2  0  0  0  0  0  0  0  0  0
   37.2620   31.9170   40.7130 O   0  0  0  0  0  0  0  0  0  0  0  0
   42.0120   30.5170   39.3000 H   0  0  0  0  0  0  0  0  0  0  0  0
   39.5790   32.6920   42.0180 H   0  0  0  0  0  0  0  0  0  0  0  0
   40.0980   29.8510   38.1550 H   0  0  0  0  0  0  0  0  0  0  0  0
   35.9020   31.9100   39.2050 H   0  0  0  0  0  0  0  0  0  0  0  0
   44.3810   33.0900   41.8360 C   0  0  0  0  0  0  0  0  0  0  0  0
   43.2610   32.9230   41.0230 C   0  0  0  0  0  0  0  0  0  0  0  0
   42.2280   32.1490   41.4590 C   0  0  0  0  0  0  0  0  0  0  0  0
   42.3610   31.5720   42.6940 N   0  0  0  0  0  0  0  0  0  0  0  0
   43.4330   31.7300   43.4730 C   0  0  0  0  0  0  0  0  0  0  0  0
   44.4250   32.4800   43.0450 N   0  0  0  0  0  0  0  0  0  0  0  0
   45.2080   33.7040   41.4970 H   0  0  0  0  0  0  0  0  0  0  0  0
   43.5930   31.3020   44.4520 H   0  0  0  0  0  0  0  0  0  0  0  0
   43.2730   33.5550   39.7810 N   0  0  0  0  0  0  0  0  0  0  0  0
   44.1880   33.1730   38.7540 C   0  0  0  0  0  0  0  0  0  0  0  0
   43.9530   33.8360   37.4250 C   0  0  0  0  0  0  0  0  0  0  0  0
   42.6170   33.9730   37.0560 N   0  0  0  0  0  0  0  0  0  0  0  0
   41.7470   34.3840   38.0440 C   0  0  0  0  0  0  0  0  0  0  0  0
   42.4360   34.6110   39.3710 C   0  0  0  0  0  0  0  0  0  0  0  0
   45.2080   33.4790   39.0890 H   0  0  0  0  0  0  0  0  0  0  0  0
   44.2760   32.0640   38.6220 H   0  0  0  0  0  0  0  0  0  0  0  0
   44.4770   34.8160   37.3950 H   0  0  0  0  0  0  0  0  0  0  0  0
   44.4980   33.2130   36.6580 H   0  0  0  0  0  0  0  0  0  0  0  0
   42.5430   34.4880   36.1750 H   0  0  0  0  0  0  0  0  0  0  0  0
   40.8630   33.7230   38.1160 H   0  0  0  0  0  0  0  0  0  0  0  0
   41.3130   35.3880   37.7630 H   0  0  0  0  0  0  0  0  0  0  0  0
   41.6390   34.8990   40.0990 H   0  0  0  0  0  0  0  0  0  0  0  0
   43.0600   35.5350   39.2280 H   0  0  0  0  0  0  0  0  0  0  0  0
   35.8400   30.1490   40.3370 O   0  0  0  0  0  0  0  0  0  0  0  0
   36.1180   28.8140   40.2510 C   0  0  0  0  0  0  0  0  0  0  0  0
   35.8310   27.9650   39.2240 N   0  0  0  0  0  0  0  0  0  0  0  0
   36.1710   26.6610   39.2820 C   0  0  0  0  0  3  0  0  0  0  0  0
   36.8040   26.1010   40.3300 N   0  0  0  0  0  0  0  0  0  0  0  0
   37.1080   26.9070   41.3730 C   0  0  0  0  0  0  0  0  0  0  0  0
   37.7590   26.3570   42.4640 C   0  0  0  0  0  3  0  0  0  0  0  0
   38.0950   27.1360   43.5600 C   0  0  0  0  0  0  0  0  0  0  0  0
   38.6050   26.7870   44.4570 H   0  0  0  0  0  0  0  0  0  0  0  0
   37.7670   28.4960   43.5550 C   0  0  0  0  0  0  0  0  0  0  0  0
   37.9920   29.1910   44.3750 H   0  0  0  0  0  0  0  0  0  0  0  0
   37.1200   29.0050   42.4520 C   0  0  0  0  0  3  0  0  0  0  0  0
   36.7670   28.2550   41.3340 C   0  0  0  0  0  0  0  0  0  0  0  0
  1  2  1  0  0  0  0
  2  3  2  0  0  0  0
  2 16  1  0  0  0  0
  3 11  1  0  0  0  0
  4  9  1  0  0  0  0
  4  3  1  0  0  0  0
  5  4  2  0  0  0  0
  6  5  1  0  0  0  0
  6  1  2  0  0  0  0
  7  5  1  0  0  0  0
  7  8  1  0  0  0  0
  8 13  1  6  0  0  0
  8 37  1  0  0  0  0
  8  9  1  0  0  0  0
 10  1  1  0  0  0  0
 12  6  1  0  0  0  0
 14 19  1  0  0  0  0
 15 16  1  0  0  0  0
 15 14  2  0  0  0  0
 16 17  2  0  0  0  0
 17 18  1  0  0  0  0
 18 21  1  0  0  0  0
 19 18  2  0  0  0  0
 20 14  1  0  0  0  0
 22 15  1  0  0  0  0
 23 28  1  0  0  0  0
 23 22  1  0  0  0  0
 24 23  1  0  0  0  0
 25 24  1  0  0  0  0
 25 26  1  0  0  0  0
 26 33  1  0  0  0  0
 26 27  1  0  0  0  0
 27 22  1  0  0  0  0
 27 35  1  0  0  0  0
 29 23  1  0  0  0  0
 30 24  1  0  0  0  0
 31 24  1  0  0  0  0
 32 25  1  0  0  0  0
 34 26  1  0  0  0  0
 36 27  1  0  0  0  0
 38 37  1  0  0  0  0
 38 49  1  0  0  0  0
 39 40  1  0  0  0  0
 39 38  2  0  0  0  0
 40 41  2  0  0  0  0
 41 42  1  0  0  0  0
 42 43  1  0  0  0  0
 43 44  2  0  0  0  0
 44 45  1  0  0  0  0
 46 44  1  0  0  0  0
 46 47  1  0  0  0  0
 48 46  2  0  0  0  0
 49 42  2  0  0  0  0
 49 48  1  0  0  0  0
M  END
>  <minimizedAffinity>
-6.6594038

$$$$

 OpenBabel03242523133D

 49 54  0  0  1  0  0  0  0  0999 V2000
   41.1010   29.7420   37.8390 C   0  0  0  0  0  0  0  0  0  0  0  0
   40.6630   31.0800   37.9700 C   0  0  0  0  0  0  0  0  0  0  0  0
   39.2970   31.1640   37.8550 C   0  0  0  0  0  0  0  0  0  0  0  0
   38.4410   30.1320   37.6430 C   0  0  0  0  0  0  0  0  0  0  0  0
   38.9550   28.8450   37.5220 C   0  0  0  0  0  0  0  0  0  0  0  0
   40.3060   28.6520   37.6240 C   0  0  0  0  0  0  0  0  0  0  0  0
   37.8460   28.0400   37.3110 O   0  0  0  0  0  0  0  0  0  0  0  0
   36.6650   28.8090   37.3510 C   0  0  2  0  0  0  0  0  0  0  0  0
   37.0620   30.1660   37.5240 O   0  0  0  0  0  0  0  0  0  0  0  0
   42.1300   29.3260   37.8930 H   0  0  0  0  0  0  0  0  0  0  0  0
   38.9540   32.1450   37.9480 H   0  0  0  0  0  0  0  0  0  0  0  0
   40.5840   27.6270   37.5170 H   0  0  0  0  0  0  0  0  0  0  0  0
   36.0570   28.7680   36.4480 H   0  0  0  0  0  0  0  0  0  0  0  0
   43.0780   33.8110   38.8270 C   0  0  0  0  0  0  0  0  0  0  0  0
   41.8870   33.0920   38.9180 C   0  0  0  0  0  0  0  0  0  0  0  0
   41.7050   31.9970   38.1290 C   0  0  0  0  0  0  0  0  0  0  0  0
   42.7260   31.6670   37.2770 N   0  0  0  0  0  0  0  0  0  0  0  0
   43.8660   32.3540   37.1880 C   0  0  0  0  0  0  0  0  0  0  0  0
   44.0350   33.4100   37.9540 N   0  0  0  0  0  0  0  0  0  0  0  0
   43.2320   34.6840   39.4510 H   0  0  0  0  0  0  0  0  0  0  0  0
   44.7020   32.1420   36.5370 H   0  0  0  0  0  0  0  0  0  0  0  0
   40.9280   33.5570   39.8150 N   0  0  0  0  0  0  0  0  0  0  0  0
   40.3210   34.8410   39.6680 C   0  0  0  0  0  0  0  0  0  0  0  0
   39.1890   35.1140   40.6180 C   0  0  0  0  0  0  0  0  0  0  0  0
   38.3340   34.0400   40.8490 N   0  0  0  0  0  0  0  0  0  0  0  0
   38.9300   32.8110   41.0340 C   0  0  0  0  0  0  0  0  0  0  0  0
   40.4380   32.8740   40.9460 C   0  0  0  0  0  0  0  0  0  0  0  0
   41.1080   35.6050   39.8780 H   0  0  0  0  0  0  0  0  0  0  0  0
   40.0080   35.0700   38.6160 H   0  0  0  0  0  0  0  0  0  0  0  0
   39.5890   35.5190   41.5730 H   0  0  0  0  0  0  0  0  0  0  0  0
   38.6080   35.9760   40.1790 H   0  0  0  0  0  0  0  0  0  0  0  0
   37.6330   34.2880   41.5530 H   0  0  0  0  0  0  0  0  0  0  0  0
   38.4860   32.0340   40.3840 H   0  0  0  0  0  0  0  0  0  0  0  0
   38.7130   32.4450   42.0800 H   0  0  0  0  0  0  0  0  0  0  0  0
   40.8100   31.8270   41.0700 H   0  0  0  0  0  0  0  0  0  0  0  0
   40.7680   33.4200   41.8720 H   0  0  0  0  0  0  0  0  0  0  0  0
   35.9590   28.4050   38.5080 O   0  0  0  0  0  0  0  0  0  0  0  0
   36.3160   27.4030   39.3670 C   0  0  0  0  0  0  0  0  0  0  0  0
   36.2750   26.0590   39.1450 N   0  0  0  0  0  0  0  0  0  0  0  0
   36.6630   25.1840   40.0960 C   0  0  0  0  0  3  0  0  0  0  0  0
   37.1120   25.5530   41.3110 N   0  0  0  0  0  0  0  0  0  0  0  0
   37.1690   26.8780   41.5750 C   0  0  0  0  0  0  0  0  0  0  0  0
   37.6260   27.2860   42.8160 C   0  0  0  0  0  3  0  0  0  0  0  0
   37.7050   28.6310   43.1400 C   0  0  0  0  0  0  0  0  0  0  0  0
   38.0510   29.0380   44.0890 H   0  0  0  0  0  0  0  0  0  0  0  0
   37.3160   29.5840   42.1920 C   0  0  0  0  0  0  0  0  0  0  0  0
   37.3430   30.6690   42.3570 H   0  0  0  0  0  0  0  0  0  0  0  0
   36.8670   29.1390   40.9690 C   0  0  0  0  0  3  0  0  0  0  0  0
   36.7730   27.7980   40.6090 C   0  0  0  0  0  0  0  0  0  0  0  0
  1 10  1  0  0  0  0
  1  2  1  0  0  0  0
  2 16  1  0  0  0  0
  3 11  1  0  0  0  0
  3  2  2  0  0  0  0
  4  3  1  0  0  0  0
  5  6  1  0  0  0  0
  5  4  2  0  0  0  0
  6  1  2  0  0  0  0
  7  8  1  0  0  0  0
  7  5  1  0  0  0  0
  8 13  1  6  0  0  0
  8  9  1  0  0  0  0
  8 37  1  0  0  0  0
  9  4  1  0  0  0  0
 12  6  1  0  0  0  0
 14 15  1  0  0  0  0
 14 20  1  0  0  0  0
 15 22  1  0  0  0  0
 16 15  2  0  0  0  0
 17 16  1  0  0  0  0
 18 17  2  0  0  0  0
 18 19  1  0  0  0  0
 19 14  2  0  0  0  0
 21 18  1  0  0  0  0
 22 27  1  0  0  0  0
 23 22  1  0  0  0  0
 23 28  1  0  0  0  0
 23 24  1  0  0  0  0
 24 25  1  0  0  0  0
 24 30  1  0  0  0  0
 25 26  1  0  0  0  0
 25 32  1  0  0  0  0
 26 34  1  0  0  0  0
 27 26  1  0  0  0  0
 27 35  1  0  0  0  0
 27 36  1  0  0  0  0
 29 23  1  0  0  0  0
 31 24  1  0  0  0  0
 33 26  1  0  0  0  0
 37 38  1  0  0  0  0
 38 49  1  0  0  0  0
 39 38  2  0  0  0  0
 39 40  1  0  0  0  0
 40 41  2  0  0  0  0
 41 42  1  0  0  0  0
 42 43  1  0  0  0  0
 43 44  2  0  0  0  0
 44 45  1  0  0  0  0
 46 47  1  0  0  0  0
 46 44  1  0  0  0  0
 48 46  2  0  0  0  0
 49 48  1  0  0  0  0
 49 42  2  0  0  0  0
M  END
>  <minimizedAffinity>
-6.61987972

$$$$

 OpenBabel03242523133D

 49 54  0  0  1  0  0  0  0  0999 V2000
   35.7000   28.3480   39.5650 C   0  0  0  0  0  0  0  0  0  0  0  0
   36.8910   27.5870   39.5380 C   0  0  0  0  0  0  0  0  0  0  0  0
   37.9590   28.3580   39.1500 C   0  0  0  0  0  0  0  0  0  0  0  0
   37.9250   29.6760   38.8240 C   0  0  0  0  0  0  0  0  0  0  0  0
   36.7100   30.3500   38.8720 C   0  0  0  0  0  0  0  0  0  0  0  0
   35.5830   29.6730   39.2510 C   0  0  0  0  0  0  0  0  0  0  0  0
   37.0110   31.6470   38.4850 O   0  0  0  0  0  0  0  0  0  0  0  0
   38.3940   31.7830   38.2500 C   0  0  2  0  0  0  0  0  0  0  0  0
   38.9710   30.4930   38.4300 O   0  0  0  0  0  0  0  0  0  0  0  0
   34.6690   28.0390   39.8430 H   0  0  0  0  0  0  0  0  0  0  0  0
   38.8490   27.8130   39.1230 H   0  0  0  0  0  0  0  0  0  0  0  0
   34.7130   30.2910   39.2530 H   0  0  0  0  0  0  0  0  0  0  0  0
   38.6620   32.1140   37.2480 H   0  0  0  0  0  0  0  0  0  0  0  0
   36.6790   24.1170   40.9300 C   0  0  0  0  0  0  0  0  0  0  0  0
   37.0180   25.4700   40.9330 C   0  0  0  0  0  0  0  0  0  0  0  0
   36.7020   26.2400   39.8550 C   0  0  0  0  0  0  0  0  0  0  0  0
   36.0600   25.6210   38.8150 N   0  0  0  0  0  0  0  0  0  0  0  0
   35.7360   24.3260   38.8100 C   0  0  0  0  0  0  0  0  0  0  0  0
   36.0440   23.5900   39.8560 N   0  0  0  0  0  0  0  0  0  0  0  0
   36.9260   23.4960   41.7840 H   0  0  0  0  0  0  0  0  0  0  0  0
   35.2320   23.7860   38.0220 H   0  0  0  0  0  0  0  0  0  0  0  0
   37.6870   25.9580   42.0530 N   0  0  0  0  0  0  0  0  0  0  0  0
   38.9830   25.4820   42.4200 C   0  0  0  0  0  0  0  0  0  0  0  0
   39.6320   26.2330   43.5490 C   0  0  0  0  0  0  0  0  0  0  0  0
   39.4550   27.6140   43.5240 N   0  0  0  0  0  0  0  0  0  0  0  0
   38.1910   28.0650   43.2110 C   0  0  0  0  0  0  0  0  0  0  0  0
   37.2170   26.9370   42.9490 C   0  0  0  0  0  0  0  0  0  0  0  0
   38.8620   24.4260   42.7640 H   0  0  0  0  0  0  0  0  0  0  0  0
   39.6890   25.3960   41.5550 H   0  0  0  0  0  0  0  0  0  0  0  0
   39.3050   25.8060   44.5220 H   0  0  0  0  0  0  0  0  0  0  0  0
   40.7320   25.9880   43.5010 H   0  0  0  0  0  0  0  0  0  0  0  0
   39.8710   28.0400   44.3560 H   0  0  0  0  0  0  0  0  0  0  0  0
   38.2100   28.8230   42.4060 H   0  0  0  0  0  0  0  0  0  0  0  0
   37.7640   28.6200   44.0970 H   0  0  0  0  0  0  0  0  0  0  0  0
   36.2450   27.4140   42.6690 H   0  0  0  0  0  0  0  0  0  0  0  0
   37.0390   26.4590   43.9510 H   0  0  0  0  0  0  0  0  0  0  0  0
   38.8940   32.6350   39.2620 O   0  0  0  0  0  0  0  0  0  0  0  0
   40.2090   32.9190   39.5070 C   0  0  0  0  0  0  0  0  0  0  0  0
   41.0550   33.6740   38.7510 N   0  0  0  0  0  0  0  0  0  0  0  0
   42.3370   33.8660   39.1230 C   0  0  0  0  0  3  0  0  0  0  0  0
   42.8760   33.3440   40.2410 N   0  0  0  0  0  0  0  0  0  0  0  0
   42.0720   32.5870   41.0220 C   0  0  0  0  0  0  0  0  0  0  0  0
   42.6000   32.0380   42.1780 C   0  0  0  0  0  3  0  0  0  0  0  0
   41.8210   31.2530   43.0140 C   0  0  0  0  0  0  0  0  0  0  0  0
   42.1550   30.7840   43.9380 H   0  0  0  0  0  0  0  0  0  0  0  0
   40.4840   31.0200   42.6780 C   0  0  0  0  0  0  0  0  0  0  0  0
   39.7900   30.4140   43.2770 H   0  0  0  0  0  0  0  0  0  0  0  0
   39.9950   31.5840   41.5220 C   0  0  0  0  0  3  0  0  0  0  0  0
   40.7470   32.3750   40.6570 C   0  0  0  0  0  0  0  0  0  0  0  0
  1 10  1  0  0  0  0
  2  1  1  0  0  0  0
  2 16  1  0  0  0  0
  3  2  2  0  0  0  0
  4  5  2  0  0  0  0
  4  3  1  0  0  0  0
  5  6  1  0  0  0  0
  6 12  1  0  0  0  0
  6  1  2  0  0  0  0
  7  5  1  0  0  0  0
  8 13  1  6  0  0  0
  8  9  1  0  0  0  0
  8  7  1  0  0  0  0
  8 37  1  0  0  0  0
  9  4  1  0  0  0  0
 11  3  1  0  0  0  0
 14 15  1  0  0  0  0
 14 20  1  0  0  0  0
 15 22  1  0  0  0  0
 16 15  2  0  0  0  0
 17 16  1  0  0  0  0
 18 17  2  0  0  0  0
 18 19  1  0  0  0  0
 19 14  2  0  0  0  0
 21 18  1  0  0  0  0
 22 23  1  0  0  0  0
 22 27  1  0  0  0  0
 23 28  1  0  0  0  0
 23 24  1  0  0  0  0
 24 30  1  0  0  0  0
 25 24  1  0  0  0  0
 25 32  1  0  0  0  0
 26 25  1  0  0  0  0
 26 34  1  0  0  0  0
 27 26  1  0  0  0  0
 27 36  1  0  0  0  0
 29 23  1  0  0  0  0
 31 24  1  0  0  0  0
 33 26  1  0  0  0  0
 35 27  1  0  0  0  0
 37 38  1  0  0  0  0
 38 49  1  0  0  0  0
 39 40  1  0  0  0  0
 39 38  2  0  0  0  0
 40 41  2  0  0  0  0
 41 42  1  0  0  0  0
 42 43  1  0  0  0  0
 43 44  2  0  0  0  0
 44 45  1  0  0  0  0
 46 44  1  0  0  0  0
 46 47  1  0  0  0  0
 48 46  2  0  0  0  0
 49 42  2  0  0  0  0
 49 48  1  0  0  0  0
M  END
>  <minimizedAffinity>
-6.60947371

$$$$

 OpenBabel03242523133D

 49 54  0  0  1  0  0  0  0  0999 V2000
   39.3900   31.6010   37.7160 C   0  0  0  0  0  0  0  0  0  0  0  0
   40.2970   31.3890   38.7790 C   0  0  0  0  0  0  0  0  0  0  0  0
   39.6310   31.1090   39.9460 C   0  0  0  0  0  0  0  0  0  0  0  0
   38.2850   31.0370   40.1090 C   0  0  0  0  0  0  0  0  0  0  0  0
   37.4610   31.2640   39.0120 C   0  0  0  0  0  0  0  0  0  0  0  0
   38.0270   31.5480   37.7980 C   0  0  0  0  0  0  0  0  0  0  0  0
   36.1720   31.1250   39.5030 O   0  0  0  0  0  0  0  0  0  0  0  0
   36.2010   30.7690   40.8670 C   0  0  2  0  0  0  0  0  0  0  0  0
   37.5700   30.7560   41.2610 O   0  0  0  0  0  0  0  0  0  0  0  0
   39.5920   31.8340   36.6490 H   0  0  0  0  0  0  0  0  0  0  0  0
   40.2850   30.9490   40.7450 H   0  0  0  0  0  0  0  0  0  0  0  0
   37.3000   31.7010   37.0320 H   0  0  0  0  0  0  0  0  0  0  0  0
   35.6840   31.4580   41.5340 H   0  0  0  0  0  0  0  0  0  0  0  0
   43.9550   32.0880   38.3880 C   0  0  0  0  0  0  0  0  0  0  0  0
   42.7320   32.0530   39.0560 C   0  0  0  0  0  0  0  0  0  0  0  0
   41.6350   31.5620   38.4150 C   0  0  0  0  0  0  0  0  0  0  0  0
   41.8090   31.1270   37.1280 N   0  0  0  0  0  0  0  0  0  0  0  0
   42.9790   31.1610   36.4870 C   0  0  0  0  0  0  0  0  0  0  0  0
   44.0340   31.6360   37.1130 N   0  0  0  0  0  0  0  0  0  0  0  0
   44.8340   32.4780   38.8910 H   0  0  0  0  0  0  0  0  0  0  0  0
   43.1750   30.8340   35.4770 H   0  0  0  0  0  0  0  0  0  0  0  0
   42.7000   32.5480   40.3580 N   0  0  0  0  0  0  0  0  0  0  0  0
   43.2990   31.8410   41.4450 C   0  0  0  0  0  0  0  0  0  0  0  0
   43.3240   32.5930   42.7460 C   0  0  0  0  0  0  0  0  0  0  0  0
   43.6190   33.9500   42.6430 N   0  0  0  0  0  0  0  0  0  0  0  0
   43.0030   34.6350   41.6170 C   0  0  0  0  0  0  0  0  0  0  0  0
   42.1040   33.7510   40.7820 C   0  0  0  0  0  0  0  0  0  0  0  0
   42.6880   30.9220   41.6170 H   0  0  0  0  0  0  0  0  0  0  0  0
   44.3170   31.4380   41.2100 H   0  0  0  0  0  0  0  0  0  0  0  0
   42.3700   32.4320   43.2930 H   0  0  0  0  0  0  0  0  0  0  0  0
   44.0970   32.0840   43.3920 H   0  0  0  0  0  0  0  0  0  0  0  0
   43.5540   34.3990   43.5600 H   0  0  0  0  0  0  0  0  0  0  0  0
   43.7270   35.2160   41.0150 H   0  0  0  0  0  0  0  0  0  0  0  0
   42.3190   35.4210   42.0520 H   0  0  0  0  0  0  0  0  0  0  0  0
   41.6930   34.3940   39.9660 H   0  0  0  0  0  0  0  0  0  0  0  0
   41.2270   33.5100   41.4440 H   0  0  0  0  0  0  0  0  0  0  0  0
   35.7050   29.4470   40.9500 O   0  0  0  0  0  0  0  0  0  0  0  0
   36.3630   28.3660   41.4670 C   0  0  0  0  0  0  0  0  0  0  0  0
   36.7680   28.1710   42.7530 N   0  0  0  0  0  0  0  0  0  0  0  0
   37.4130   27.0430   43.1170 C   0  0  0  0  0  3  0  0  0  0  0  0
   37.7040   26.0420   42.2650 N   0  0  0  0  0  0  0  0  0  0  0  0
   37.3200   26.1930   40.9770 C   0  0  0  0  0  0  0  0  0  0  0  0
   37.6070   25.1790   40.0790 C   0  0  0  0  0  3  0  0  0  0  0  0
   37.2370   25.2820   38.7470 C   0  0  0  0  0  0  0  0  0  0  0  0
   37.4230   24.5350   37.9770 H   0  0  0  0  0  0  0  0  0  0  0  0
   36.5660   26.4300   38.3130 C   0  0  0  0  0  0  0  0  0  0  0  0
   36.2340   26.6000   37.2800 H   0  0  0  0  0  0  0  0  0  0  0  0
   36.2990   27.4150   39.2350 C   0  0  0  0  0  3  0  0  0  0  0  0
   36.6550   27.3480   40.5800 C   0  0  0  0  0  0  0  0  0  0  0  0
  1  6  2  0  0  0  0
  1  2  1  0  0  0  0
  2  3  2  0  0  0  0
  3  4  1  0  0  0  0
  3 11  1  0  0  0  0
  4  9  1  0  0  0  0
  5  7  1  0  0  0  0
  5  4  2  0  0  0  0
  6  5  1  0  0  0  0
  7  8  1  0  0  0  0
  8 37  1  0  0  0  0
  8  9  1  0  0  0  0
  8 13  1  1  0  0  0
 10  1  1  0  0  0  0
 12  6  1  0  0  0  0
 14 20  1  0  0  0  0
 14 15  1  0  0  0  0
 15 22  1  0  0  0  0
 16  2  1  0  0  0  0
 16 15  2  0  0  0  0
 17 16  1  0  0  0  0
 18 19  1  0  0  0  0
 18 17  2  0  0  0  0
 19 14  2  0  0  0  0
 21 18  1  0  0  0  0
 22 27  1  0  0  0  0
 22 23  1  0  0  0  0
 23 28  1  0  0  0  0
 23 24  1  0  0  0  0
 24 30  1  0  0  0  0
 24 31  1  0  0  0  0
 25 24  1  0  0  0  0
 25 32  1  0  0  0  0
 26 34  1  0  0  0  0
 26 25  1  0  0  0  0
 27 36  1  0  0  0  0
 27 26  1  0  0  0  0
 29 23  1  0  0  0  0
 33 26  1  0  0  0  0
 35 27  1  0  0  0  0
 37 38  1  0  0  0  0
 38 39  1  0  0  0  0
 39 40  2  0  0  0  0
 41 40  1  0  0  0  0
 42 41  2  0  0  0  0
 43 42  1  0  0  0  0
 44 43  2  0  0  0  0
 45 44  1  0  0  0  0
 46 44  1  0  0  0  0
 46 48  2  0  0  0  0
 47 46  1  0  0  0  0
 48 49  1  0  0  0  0
 49 42  1  0  0  0  0
 49 38  2  0  0  0  0
M  END
>  <minimizedAffinity>
-6.52759171

$$$$

 OpenBabel03242523133D

 49 54  0  0  1  0  0  0  0  0999 V2000
   40.1190   30.4960   39.8030 C   0  0  0  0  0  0  0  0  0  0  0  0
   39.9110   31.4070   40.8630 C   0  0  0  0  0  0  0  0  0  0  0  0
   38.8050   31.0610   41.6000 C   0  0  0  0  0  0  0  0  0  0  0  0
   37.9890   29.9980   41.3770 C   0  0  0  0  0  0  0  0  0  0  0  0
   38.2630   29.1520   40.3080 C   0  0  0  0  0  0  0  0  0  0  0  0
   39.3460   29.4080   39.5120 C   0  0  0  0  0  0  0  0  0  0  0  0
   37.2630   28.1930   40.3520 O   0  0  0  0  0  0  0  0  0  0  0  0
   36.4160   28.4140   41.4580 C   0  0  2  0  0  0  0  0  0  0  0  0
   36.8690   29.6080   42.0910 O   0  0  0  0  0  0  0  0  0  0  0  0
   40.9210   30.4770   39.0340 H   0  0  0  0  0  0  0  0  0  0  0  0
   38.6330   31.7220   42.3890 H   0  0  0  0  0  0  0  0  0  0  0  0
   39.4580   28.6930   38.7270 H   0  0  0  0  0  0  0  0  0  0  0  0
   35.3660   28.5620   41.2130 H   0  0  0  0  0  0  0  0  0  0  0  0
   42.7590   33.8150   41.2090 C   0  0  0  0  0  0  0  0  0  0  0  0
   42.1060   32.5900   41.3420 C   0  0  0  0  0  0  0  0  0  0  0  0
   40.8290   32.4600   40.8860 C   0  0  0  0  0  0  0  0  0  0  0  0
   40.2560   33.5660   40.3170 N   0  0  0  0  0  0  0  0  0  0  0  0
   40.8790   34.7400   40.1890 C   0  0  0  0  0  0  0  0  0  0  0  0
   42.1120   34.8570   40.6310 N   0  0  0  0  0  0  0  0  0  0  0  0
   43.7750   33.9280   41.5690 H   0  0  0  0  0  0  0  0  0  0  0  0
   40.4790   35.6420   39.7510 H   0  0  0  0  0  0  0  0  0  0  0  0
   42.8070   31.5570   41.9600 N   0  0  0  0  0  0  0  0  0  0  0  0
   42.7990   31.3880   43.3790 C   0  0  0  0  0  0  0  0  0  0  0  0
   43.4620   30.1300   43.8660 C   0  0  0  0  0  0  0  0  0  0  0  0
   43.2200   28.9940   43.0980 N   0  0  0  0  0  0  0  0  0  0  0  0
   43.2730   29.1560   41.7290 C   0  0  0  0  0  0  0  0  0  0  0  0
   43.5920   30.5770   41.3220 C   0  0  0  0  0  0  0  0  0  0  0  0
   43.3700   32.2420   43.8160 H   0  0  0  0  0  0  0  0  0  0  0  0
   41.7810   31.4910   43.8350 H   0  0  0  0  0  0  0  0  0  0  0  0
   44.5530   30.3030   43.9890 H   0  0  0  0  0  0  0  0  0  0  0  0
   43.0920   29.9640   44.9190 H   0  0  0  0  0  0  0  0  0  0  0  0
   43.7560   28.2000   43.4580 H   0  0  0  0  0  0  0  0  0  0  0  0
   42.3730   28.7490   41.2310 H   0  0  0  0  0  0  0  0  0  0  0  0
   44.1190   28.5350   41.3130 H   0  0  0  0  0  0  0  0  0  0  0  0
   43.5700   30.6010   40.2050 H   0  0  0  0  0  0  0  0  0  0  0  0
   44.6690   30.7330   41.6040 H   0  0  0  0  0  0  0  0  0  0  0  0
   36.6260   27.3360   42.3500 O   0  0  0  0  0  0  0  0  0  0  0  0
   37.2900   26.1730   42.0730 C   0  0  0  0  0  0  0  0  0  0  0  0
   36.8490   25.1160   41.3340 N   0  0  0  0  0  0  0  0  0  0  0  0
   37.6230   24.0270   41.1460 C   0  0  0  0  0  3  0  0  0  0  0  0
   38.8620   23.8940   41.6570 N   0  0  0  0  0  0  0  0  0  0  0  0
   39.3390   24.9200   42.3980 C   0  0  0  0  0  0  0  0  0  0  0  0
   40.6100   24.8100   42.9360 C   0  0  0  0  0  3  0  0  0  0  0  0
   41.1490   25.8310   43.7040 C   0  0  0  0  0  0  0  0  0  0  0  0
   42.1360   25.8270   44.1640 H   0  0  0  0  0  0  0  0  0  0  0  0
   40.3910   26.9840   43.9320 C   0  0  0  0  0  0  0  0  0  0  0  0
   40.7330   27.8440   44.5250 H   0  0  0  0  0  0  0  0  0  0  0  0
   39.1330   27.0560   43.3800 C   0  0  0  0  0  3  0  0  0  0  0  0
   38.5580   26.0520   42.6050 C   0  0  0  0  0  0  0  0  0  0  0  0
  1  2  1  0  0  0  0
  2 16  1  0  0  0  0
  2  3  2  0  0  0  0
  3 11  1  0  0  0  0
  4  3  1  0  0  0  0
  4  9  1  0  0  0  0
  5  7  1  0  0  0  0
  5  4  2  0  0  0  0
  6  1  2  0  0  0  0
  6  5  1  0  0  0  0
  7  8  1  0  0  0  0
  8 13  1  6  0  0  0
  8  9  1  0  0  0  0
  8 37  1  0  0  0  0
 10  1  1  0  0  0  0
 12  6  1  0  0  0  0
 14 15  1  0  0  0  0
 14 20  1  0  0  0  0
 15 22  1  0  0  0  0
 16 15  2  0  0  0  0
 17 16  1  0  0  0  0
 18 17  2  0  0  0  0
 18 19  1  0  0  0  0
 19 14  2  0  0  0  0
 21 18  1  0  0  0  0
 22 23  1  0  0  0  0
 23 28  1  0  0  0  0
 23 29  1  0  0  0  0
 23 24  1  0  0  0  0
 24 30  1  0  0  0  0
 24 31  1  0  0  0  0
 25 32  1  0  0  0  0
 25 24  1  0  0  0  0
 26 25  1  0  0  0  0
 27 36  1  0  0  0  0
 27 26  1  0  0  0  0
 27 22  1  0  0  0  0
 33 26  1  0  0  0  0
 34 26  1  0  0  0  0
 35 27  1  0  0  0  0
 38 37  1  0  0  0  0
 38 49  1  0  0  0  0
 39 38  2  0  0  0  0
 40 39  1  0  0  0  0
 40 41  2  0  0  0  0
 41 42  1  0  0  0  0
 42 49  2  0  0  0  0
 42 43  1  0  0  0  0
 43 44  2  0  0  0  0
 44 46  1  0  0  0  0
 44 45  1  0  0  0  0
 46 47  1  0  0  0  0
 48 46  2  0  0  0  0
 49 48  1  0  0  0  0
M  END
>  <minimizedAffinity>
-6.47522545

$$$$

 OpenBabel03242523133D

 49 54  0  0  1  0  0  0  0  0999 V2000
   35.8380   28.3500   39.9790 C   0  0  0  0  0  0  0  0  0  0  0  0
   37.0300   27.6080   39.8200 C   0  0  0  0  0  0  0  0  0  0  0  0
   38.0260   28.3860   39.2820 C   0  0  0  0  0  0  0  0  0  0  0  0
   37.9260   29.6940   38.9320 C   0  0  0  0  0  0  0  0  0  0  0  0
   36.7140   30.3500   39.1180 C   0  0  0  0  0  0  0  0  0  0  0  0
   35.6570   29.6640   39.6520 C   0  0  0  0  0  0  0  0  0  0  0  0
   36.9390   31.6410   38.6660 O   0  0  0  0  0  0  0  0  0  0  0  0
   38.2790   31.7940   38.2550 C   0  0  2  0  0  0  0  0  0  0  0  0
   38.8990   30.5170   38.3910 O   0  0  0  0  0  0  0  0  0  0  0  0
   34.8570   28.0320   40.3930 H   0  0  0  0  0  0  0  0  0  0  0  0
   38.9160   27.8550   39.1550 H   0  0  0  0  0  0  0  0  0  0  0  0
   34.7820   30.2680   39.7500 H   0  0  0  0  0  0  0  0  0  0  0  0
   38.4120   32.1030   37.2190 H   0  0  0  0  0  0  0  0  0  0  0  0
   37.0430   24.1760   41.3200 C   0  0  0  0  0  0  0  0  0  0  0  0
   37.3420   25.5370   41.2550 C   0  0  0  0  0  0  0  0  0  0  0  0
   36.9090   26.2660   40.1900 C   0  0  0  0  0  0  0  0  0  0  0  0
   36.1930   25.6000   39.2300 N   0  0  0  0  0  0  0  0  0  0  0  0
   35.9060   24.2990   39.2900 C   0  0  0  0  0  0  0  0  0  0  0  0
   36.3280   23.6020   40.3230 N   0  0  0  0  0  0  0  0  0  0  0  0
   37.3840   23.5880   42.1640 H   0  0  0  0  0  0  0  0  0  0  0  0
   35.3480   23.7230   38.5660 H   0  0  0  0  0  0  0  0  0  0  0  0
   38.0970   26.0750   42.2950 N   0  0  0  0  0  0  0  0  0  0  0  0
   39.3120   25.4660   42.7340 C   0  0  0  0  0  0  0  0  0  0  0  0
   40.0860   26.2660   43.7440 C   0  0  0  0  0  0  0  0  0  0  0  0
   40.1190   27.6390   43.5170 N   0  0  0  0  0  0  0  0  0  0  0  0
   38.9320   28.2270   43.1360 C   0  0  0  0  0  0  0  0  0  0  0  0
   37.7950   27.2340   43.0360 C   0  0  0  0  0  0  0  0  0  0  0  0
   39.0390   24.5030   43.2280 H   0  0  0  0  0  0  0  0  0  0  0  0
   39.9830   25.1500   41.8940 H   0  0  0  0  0  0  0  0  0  0  0  0
   39.7150   26.0390   44.7670 H   0  0  0  0  0  0  0  0  0  0  0  0
   41.1360   25.8530   43.7380 H   0  0  0  0  0  0  0  0  0  0  0  0
   40.6090   28.1140   44.2810 H   0  0  0  0  0  0  0  0  0  0  0  0
   39.0520   28.8480   42.2290 H   0  0  0  0  0  0  0  0  0  0  0  0
   38.6090   28.9630   43.9290 H   0  0  0  0  0  0  0  0  0  0  0  0
   36.9020   27.8060   42.6850 H   0  0  0  0  0  0  0  0  0  0  0  0
   37.5640   26.9380   44.0960 H   0  0  0  0  0  0  0  0  0  0  0  0
   38.8860   32.6790   39.1760 O   0  0  0  0  0  0  0  0  0  0  0  0
   39.9660   32.4090   39.9680 C   0  0  0  0  0  0  0  0  0  0  0  0
   39.9920   31.6970   41.1310 N   0  0  0  0  0  0  0  0  0  0  0  0
   41.1440   31.5120   41.8080 C   0  0  0  0  0  3  0  0  0  0  0  0
   42.3330   32.0000   41.4060 N   0  0  0  0  0  0  0  0  0  0  0  0
   42.3540   32.7140   40.2570 C   0  0  0  0  0  0  0  0  0  0  0  0
   43.5630   33.2280   39.8210 C   0  0  0  0  0  3  0  0  0  0  0  0
   43.6420   33.9660   38.6500 C   0  0  0  0  0  0  0  0  0  0  0  0
   44.5480   34.4060   38.2360 H   0  0  0  0  0  0  0  0  0  0  0  0
   42.4790   34.1900   37.9060 C   0  0  0  0  0  0  0  0  0  0  0  0
   42.4420   34.7620   36.9690 H   0  0  0  0  0  0  0  0  0  0  0  0
   41.2960   33.6630   38.3730 C   0  0  0  0  0  3  0  0  0  0  0  0
   41.1770   32.9170   39.5430 C   0  0  0  0  0  0  0  0  0  0  0  0
  1 10  1  0  0  0  0
  2  1  1  0  0  0  0
  2 16  1  0  0  0  0
  3  2  2  0  0  0  0
  4  5  2  0  0  0  0
  4  3  1  0  0  0  0
  5  6  1  0  0  0  0
  6 12  1  0  0  0  0
  6  1  2  0  0  0  0
  7  5  1  0  0  0  0
  8 13  1  6  0  0  0
  8  9  1  0  0  0  0
  8  7  1  0  0  0  0
  8 37  1  0  0  0  0
  9  4  1  0  0  0  0
 11  3  1  0  0  0  0
 14 20  1  0  0  0  0
 15 14  1  0  0  0  0
 15 22  1  0  0  0  0
 16 15  2  0  0  0  0
 17 18  2  0  0  0  0
 17 16  1  0  0  0  0
 18 19  1  0  0  0  0
 19 14  2  0  0  0  0
 21 18  1  0  0  0  0
 22 23  1  0  0  0  0
 22 27  1  0  0  0  0
 23 28  1  0  0  0  0
 23 24  1  0  0  0  0
 24 30  1  0  0  0  0
 25 24  1  0  0  0  0
 25 32  1  0  0  0  0
 26 25  1  0  0  0  0
 26 34  1  0  0  0  0
 27 26  1  0  0  0  0
 27 36  1  0  0  0  0
 29 23  1  0  0  0  0
 31 24  1  0  0  0  0
 33 26  1  0  0  0  0
 35 27  1  0  0  0  0
 37 38  1  0  0  0  0
 38 39  1  0  0  0  0
 39 40  2  0  0  0  0
 41 40  1  0  0  0  0
 42 41  2  0  0  0  0
 43 42  1  0  0  0  0
 44 43  2  0  0  0  0
 45 44  1  0  0  0  0
 46 48  2  0  0  0  0
 46 44  1  0  0  0  0
 47 46  1  0  0  0  0
 48 49  1  0  0  0  0
 49 38  2  0  0  0  0
 49 42  1  0  0  0  0
M  END
>  <minimizedAffinity>
-6.45818043

$$$$
