
 OpenBabel03252506123D

 39 42  0  0  0  0  0  0  0  0999 V2000
   45.3050   33.3210   41.1310 F   0  0  0  0  0  0  0  0  0  0  0  0
   46.4580   33.9850   40.9950 C   0  0  0  0  0  0  0  0  0  0  0  0
   46.8960   34.7800   42.0340 C   0  0  0  0  0  0  0  0  0  0  0  0
   48.0900   35.5050   41.9760 C   0  0  0  0  0  0  0  0  0  0  0  0
   48.8800   35.4310   40.8270 C   0  0  0  0  0  0  0  0  0  0  0  0
   48.3960   34.6180   39.8130 C   0  0  0  0  0  0  0  0  0  0  0  0
   47.2390   33.9070   39.8530 C   0  0  0  0  0  0  0  0  0  0  0  0
   48.3730   36.1170   42.8400 H   0  0  0  0  0  0  0  0  0  0  0  0
   49.7710   36.0060   40.8480 H   0  0  0  0  0  0  0  0  0  0  0  0
   49.1090   34.6500   38.9940 H   0  0  0  0  0  0  0  0  0  0  0  0
   45.4950   33.9970   45.3310 C   0  0  0  0  0  0  0  0  0  0  0  0
   44.6420   35.1010   45.5520 C   0  0  0  0  0  0  0  0  0  0  0  0
   44.5530   36.1160   44.5610 C   0  0  0  0  0  0  0  0  0  0  0  0
   45.3150   35.9460   43.4400 N   0  0  0  0  0  0  0  0  0  0  0  0
   46.1100   34.8900   43.2630 C   0  0  0  0  0  0  0  0  0  0  0  0
   46.1960   33.9290   44.2000 N   0  0  0  0  0  0  0  0  0  0  0  0
   44.0630   35.1830   46.4580 H   0  0  0  0  0  0  0  0  0  0  0  0
   43.9080   36.9720   44.7050 H   0  0  0  0  0  0  0  0  0  0  0  0
   45.5660   33.0050   46.3300 N   0  0  0  0  0  0  0  0  0  0  0  0
   45.0310   32.1770   45.9790 H   0  0  0  0  0  0  0  0  0  0  0  0
   46.0200   32.9700   47.2650 H   0  0  0  0  0  0  0  0  0  0  0  0
   46.8680   33.1420   38.7880 O   0  0  0  0  0  0  0  0  0  0  0  0
   48.0250   34.6800   36.9730 O   0  0  0  0  0  0  0  0  0  0  0  0
   47.2230   33.4250   37.1640 P   0  0  2  0  0  0  0  0  0  0  0  0
   45.7430   33.5280   36.3080 O   0  0  0  0  0  0  0  0  0  0  0  0
   45.9090   33.8150   35.3590 H   0  0  0  0  0  0  0  0  0  0  0  0
   48.0460   32.1370   36.4450 O   0  0  0  0  0  0  0  0  0  0  0  0
   48.4150   32.0230   35.1340 C   0  0  0  0  0  0  0  0  0  0  0  0
   47.7710   32.4190   34.0220 N   0  0  0  0  0  0  0  0  0  0  0  0
   48.2700   32.2350   32.7940 C   0  0  0  0  0  3  0  0  0  0  0  0
   49.4760   31.6300   32.6140 N   0  0  0  0  0  0  0  0  0  0  0  0
   50.1730   31.2110   33.6840 C   0  0  0  0  0  0  0  0  0  0  0  0
   51.3890   30.6040   33.4330 C   0  0  0  0  0  3  0  0  0  0  0  0
   52.1350   30.1600   34.5060 C   0  0  0  0  0  0  0  0  0  0  0  0
   53.0970   29.6720   34.4420 H   0  0  0  0  0  0  0  0  0  0  0  0
   51.6480   30.3330   35.7890 C   0  0  0  0  0  0  0  0  0  0  0  0
   52.1990   30.0010   36.6730 H   0  0  0  0  0  0  0  0  0  0  0  0
   50.4310   30.9450   35.9840 C   0  0  0  0  0  3  0  0  0  0  0  0
   49.6440   31.4090   34.9270 C   0  0  0  0  0  0  0  0  0  0  0  0
  2  1  1  0  0  0  0
  2  3  1  0  0  0  0
  3 15  1  0  0  0  0
  4  3  2  0  0  0  0
  4  8  1  0  0  0  0
  5  9  1  0  0  0  0
  5  4  1  0  0  0  0
  6  7  1  0  0  0  0
  6  5  2  0  0  0  0
  7  2  2  0  0  0  0
 10  6  1  0  0  0  0
 11 12  1  0  0  0  0
 11 19  1  0  0  0  0
 12 17  1  0  0  0  0
 13 18  1  0  0  0  0
 13 12  2  0  0  0  0
 14 13  1  0  0  0  0
 15 14  2  0  0  0  0
 15 16  1  0  0  0  0
 16 11  2  0  0  0  0
 19 21  1  0  0  0  0
 20 19  1  0  0  0  0
 22  7  1  0  0  0  0
 24 23  2  6  0  0  0
 24 22  1  0  0  0  0
 25 24  1  0  0  0  0
 26 25  1  0  0  0  0
 27 24  1  0  0  0  0
 28 27  1  0  0  0  0
 29 28  2  0  0  0  0
 30 29  1  0  0  0  0
 31 30  2  0  0  0  0
 31 32  1  0  0  0  0
 32 39  1  0  0  0  0
 33 32  2  0  0  0  0
 33 34  1  0  0  0  0
 34 36  2  0  0  0  0
 35 34  1  0  0  0  0
 36 38  1  0  0  0  0
 36 37  1  0  0  0  0
 39 28  1  0  0  0  0
 39 38  2  0  0  0  0
M  END
>  <minimizedAffinity>
-7.10641336

>  <minimizedRMSD>
1.31474471

$$$$
