
 OpenBabel03242516223D

 32 35  0  0  0  0  0  0  0  0999 V2000
   46.1380   32.6660   46.9480 C   0  0  0  0  0  0  0  0  0  0  0  0
   47.2620   31.8820   47.0550 C   0  0  0  0  0  0  0  0  0  0  0  0
   47.4680   31.0490   48.1340 C   0  0  0  0  0  0  0  0  0  0  0  0
   46.5160   30.9870   49.1560 C   0  0  0  0  0  0  0  0  0  0  0  0
   45.3990   31.7510   49.0750 C   0  0  0  0  0  0  0  0  0  0  0  0
   45.2260   32.5730   47.9820 C   0  0  0  0  0  0  0  0  0  0  0  0
   48.0160   31.9110   46.2730 H   0  0  0  0  0  0  0  0  0  0  0  0
   46.6860   30.3300   50.0010 H   0  0  0  0  0  0  0  0  0  0  0  0
   44.6600   31.7060   49.8650 H   0  0  0  0  0  0  0  0  0  0  0  0
   44.3090   33.1730   47.9540 H   0  0  0  0  0  0  0  0  0  0  0  0
   44.7230   35.3340   44.8900 C   0  0  0  0  0  0  0  0  0  0  0  0
   45.4590   35.2520   43.6960 C   0  0  0  0  0  0  0  0  0  0  0  0
   46.4440   34.2780   43.5980 C   0  0  0  0  0  0  0  0  0  0  0  0
   46.6760   33.4290   44.6500 N   0  0  0  0  0  0  0  0  0  0  0  0
   45.9320   33.5470   45.7960 C   0  0  0  0  0  0  0  0  0  0  0  0
   44.9680   34.4910   45.9060 N   0  0  0  0  0  0  0  0  0  0  0  0
   43.9740   36.1120   44.9030 H   0  0  0  0  0  0  0  0  0  0  0  0
   45.3290   35.8880   42.8300 H   0  0  0  0  0  0  0  0  0  0  0  0
   47.0920   34.0880   42.7530 H   0  0  0  0  0  0  0  0  0  0  0  0
   48.9490   30.0650   48.1980 S   0  0  0  0  0  0  0  0  0  0  0  0
   49.9070   30.5420   49.6290 C   0  0  0  0  0  0  0  0  0  0  0  0
   50.1170   31.8140   50.0460 N   0  0  0  0  0  0  0  0  0  0  0  0
   50.8390   32.1150   51.1200 C   0  0  0  0  0  0  0  0  0  0  0  0
   51.3850   31.1030   51.8220 N   0  0  0  0  0  0  0  0  0  0  0  0
   51.2310   29.8140   51.4840 C   0  0  0  0  0  0  0  0  0  0  0  0
   51.7880   28.7600   52.1990 C   0  0  0  0  0  0  0  0  0  0  0  0
   51.5940   27.4490   51.8010 C   0  0  0  0  0  0  0  0  0  0  0  0
   52.0210   26.6050   52.3450 H   0  0  0  0  0  0  0  0  0  0  0  0
   50.8390   27.1310   50.6790 C   0  0  0  0  0  0  0  0  0  0  0  0
   50.6590   26.1240   50.3290 H   0  0  0  0  0  0  0  0  0  0  0  0
   50.3060   28.2000   50.0000 C   0  0  0  0  0  0  0  0  0  0  0  0
   50.4780   29.5210   50.3670 C   0  0  0  0  0  0  0  0  0  0  0  0
  1  2  2  0  0  0  0
  1  6  1  0  0  0  0
  2  3  1  0  0  0  0
  3 20  1  0  0  0  0
  3  4  2  0  0  0  0
  4  8  1  0  0  0  0
  5  4  1  0  0  0  0
  5  9  1  0  0  0  0
  6  5  2  0  0  0  0
  7  2  1  0  0  0  0
 10  6  1  0  0  0  0
 11 17  1  0  0  0  0
 11 16  1  0  0  0  0
 12 11  2  0  0  0  0
 13 12  1  0  0  0  0
 13 14  2  0  0  0  0
 14 15  1  0  0  0  0
 15 16  2  0  0  0  0
 15  1  1  0  0  0  0
 18 12  1  0  0  0  0
 19 13  1  0  0  0  0
 20 21  1  0  0  0  0
 21 22  2  0  0  0  0
 21 32  1  0  0  0  0
 22 23  1  0  0  0  0
 23 24  2  0  0  0  0
 25 24  1  0  0  0  0
 25 26  1  0  0  0  0
 27 26  2  0  0  0  0
 27 28  1  0  0  0  0
 29 27  1  0  0  0  0
 30 29  1  0  0  0  0
 31 32  1  0  0  0  0
 31 29  2  0  0  0  0
 32 25  2  0  0  0  0
M  END
>  <minimizedAffinity>
-6.56118059

>  <minimizedRMSD>
1.65717113

$$$$
