
 OpenBabel03242523303D

 25 27  0  0  0  0  0  0  0  0999 V2000
   45.4130   34.2140   44.5580 S   0  0  0  0  0  0  0  0  0  0  0  0
   45.7060   32.4560   44.6430 C   0  0  0  0  0  0  0  0  0  0  0  0
   45.3630   31.5520   43.6930 N   0  0  0  0  0  0  0  0  0  0  0  0
   45.6390   30.2460   43.8770 C   0  0  0  0  0  3  0  0  0  0  0  0
   46.2590   29.7990   45.0010 N   0  0  0  0  0  0  0  0  0  0  0  0
   46.6270   30.6620   45.9890 C   0  0  0  0  0  0  0  0  0  0  0  0
   47.2530   30.1610   47.1110 C   0  0  0  0  0  3  0  0  0  0  0  0
   47.6170   31.0740   48.1060 C   0  0  0  0  0  0  0  0  0  0  0  0
   48.1090   30.8020   49.0260 H   0  0  0  0  0  0  0  0  0  0  0  0
   47.3470   32.4140   47.9440 C   0  0  0  0  0  0  0  0  0  0  0  0
   47.6140   33.1650   48.6960 H   0  0  0  0  0  0  0  0  0  0  0  0
   46.7180   32.8540   46.7970 C   0  0  0  0  0  3  0  0  0  0  0  0
   46.3350   31.9930   45.7780 C   0  0  0  0  0  0  0  0  0  0  0  0
   44.8230   34.6340   42.8850 C   0  0  0  0  0  0  0  0  0  0  0  0
   44.3130   35.6250   42.8850 H   0  0  0  0  0  0  0  0  0  0  0  0
   44.0800   33.9010   42.5260 H   0  0  0  0  0  0  0  0  0  0  0  0
   47.1140   34.0310   40.0110 C   0  0  0  0  0  0  0  0  0  0  0  0
   48.2660   34.6970   40.4520 C   0  0  0  0  0  0  0  0  0  0  0  0
   48.2390   35.3330   41.7070 C   0  0  0  0  0  0  0  0  0  0  0  0
   47.0940   35.2780   42.4490 N   0  0  0  0  0  0  0  0  0  0  0  0
   45.9910   34.6140   41.9780 C   0  0  0  0  0  0  0  0  0  0  0  0
   46.0210   34.0140   40.7880 N   0  0  0  0  0  0  0  0  0  0  0  0
   47.1700   33.5560   39.0460 H   0  0  0  0  0  0  0  0  0  0  0  0
   49.1970   34.7740   39.9140 H   0  0  0  0  0  0  0  0  0  0  0  0
   49.0700   35.8620   42.1200 H   0  0  0  0  0  0  0  0  0  0  0  0
  1  2  1  0  0  0  0
  2 13  1  0  0  0  0
  3  4  1  0  0  0  0
  3  2  2  0  0  0  0
  4  5  2  0  0  0  0
  5  6  1  0  0  0  0
  6  7  1  0  0  0  0
  7  8  2  0  0  0  0
  8  9  1  0  0  0  0
 10  8  1  0  0  0  0
 10 11  1  0  0  0  0
 12 10  2  0  0  0  0
 13  6  2  0  0  0  0
 13 12  1  0  0  0  0
 14 15  1  0  0  0  0
 14  1  1  0  0  0  0
 16 14  1  0  0  0  0
 17 18  2  0  0  0  0
 17 22  1  0  0  0  0
 18 19  1  0  0  0  0
 19 25  1  0  0  0  0
 19 20  2  0  0  0  0
 21 20  1  0  0  0  0
 21 14  1  0  0  0  0
 22 21  2  0  0  0  0
 23 17  1  0  0  0  0
 24 18  1  0  0  0  0
M  END
>  <minimizedAffinity>
-4.42589474

>  <minimizedRMSD>
4.18807268

$$$$
