REMARK  Name = 
REMARK  4 active torsions:
REMARK  status: ('A' for Active; 'I' for Inactive)
REMARK    1  A    between atoms: C_1  and  C_10
REMARK    2  A    between atoms: C_8  and  C_21
REMARK    3  A    between atoms: C_11  and  C_15
REMARK    4  A    between atoms: C_21  and  C_39
REMARK                            x       y       z     vdW  Elec       q    Type
REMARK                         _______ _______ _______ _____ _____    ______ ____
ROOT
ATOM      1  C   UNL     1      47.329  33.629  42.840  0.00  0.00    +0.000 C 
ATOM      2  O   UNL     1      48.417  33.408  43.438  0.00  0.00    +0.000 OA
ATOM      3  N   UNL     1      47.032  33.132  41.547  0.00  0.00    +0.000 N 
ATOM      4  C   UNL     1      45.808  32.499  41.025  0.00  0.00    +0.000 C 
ATOM      5  C   UNL     1      45.385  33.193  39.742  0.00  0.00    +0.000 C 
ATOM      6  C   UNL     1      46.421  32.984  38.683  0.00  0.00    +0.000 C 
ATOM      7  C   UNL     1      47.701  32.466  39.310  0.00  0.00    +0.000 C 
ATOM      8  C   UNL     1      48.067  33.237  40.555  0.00  0.00    +0.000 C 
ATOM      9  H   UNL     1      45.004  32.758  41.767  0.00  0.00    +0.000 HD
ATOM     10  H   UNL     1      45.919  31.416  40.900  0.00  0.00    +0.000 HD
ATOM     11  H   UNL     1      44.392  32.787  39.482  0.00  0.00    +0.000 HD
ATOM     12  H   UNL     1      45.314  34.274  39.955  0.00  0.00    +0.000 HD
ATOM     13  H   UNL     1      46.047  32.150  38.023  0.00  0.00    +0.000 HD
ATOM     14  H   UNL     1      46.584  33.839  38.014  0.00  0.00    +0.000 HD
ATOM     15  H   UNL     1      48.505  32.485  38.573  0.00  0.00    +0.000 HD
ATOM     16  H   UNL     1      47.513  31.410  39.596  0.00  0.00    +0.000 HD
ATOM     17  H   UNL     1      48.097  34.312  40.245  0.00  0.00    +0.000 HD
ENDROOT
BRANCH   1  19
ATOM     18  C   UNL     1      45.963  35.662  42.924  0.00  0.00    +0.000 A 
ATOM     19  C   UNL     1      46.335  34.433  43.512  0.00  0.00    +0.000 A 
ATOM     20  C   UNL     1      45.747  34.038  44.698  0.00  0.00    +0.000 A 
ATOM     21  N   UNL     1      44.828  34.848  45.258  0.00  0.00    +0.000 NA
ATOM     22  C   UNL     1      44.459  36.036  44.703  0.00  0.00    +0.000 A 
ATOM     23  N   UNL     1      45.039  36.419  43.540  0.00  0.00    +0.000 NA
ATOM     24  H   UNL     1      46.424  35.972  41.994  0.00  0.00    +0.000 HD
ATOM     25  H   UNL     1      43.712  36.638  45.210  0.00  0.00    +0.000 HD
BRANCH  20  26
ATOM     26  C   UNL     1      46.149  32.767  45.283  0.00  0.00    +0.000 A 
ATOM     27  C   UNL     1      45.767  31.597  44.708  0.00  0.00    +0.000 A 
ATOM     28  C   UNL     1      46.169  30.409  45.293  0.00  0.00    +0.000 A 
ATOM     29  C   UNL     1      46.947  30.364  46.443  0.00  0.00    +0.000 A 
ATOM     30  C   UNL     1      47.307  31.583  46.986  0.00  0.00    +0.000 A 
ATOM     31  N   UNL     1      46.906  32.721  46.403  0.00  0.00    +0.000 NA
ATOM     32  H   UNL     1      45.164  31.523  43.818  0.00  0.00    +0.000 HD
ATOM     33  H   UNL     1      45.877  29.463  44.851  0.00  0.00    +0.000 HD
ATOM     34  H   UNL     1      47.276  29.454  46.921  0.00  0.00    +0.000 HD
ATOM     35  H   UNL     1      47.911  31.698  47.880  0.00  0.00    +0.000 HD
ENDBRANCH  20  26
ENDBRANCH   1  19
BRANCH   8  36
ATOM     36  C   UNL     1      49.407  32.773  41.014  0.00  0.00    +0.000 C 
ATOM     37  H   UNL     1      49.352  31.688  41.205  0.00  0.00    +0.000 HD
ATOM     38  H   UNL     1      49.831  33.252  41.898  0.00  0.00    +0.000 HD
BRANCH  36  39
ATOM     39  C   UNL     1      50.420  32.901  39.875  0.00  0.00    +0.000 A 
ATOM     40  N   UNL     1      50.067  33.508  38.704  0.00  0.00    +0.000 NA
ATOM     41  C   UNL     1      50.941  33.667  37.695  0.00  0.00    +0.000 A 
ATOM     42  N   UNL     1      52.228  33.224  37.800  0.00  0.00    +0.000 NA
ATOM     43  C   UNL     1      52.608  32.618  38.951  0.00  0.00    +0.000 A 
ATOM     44  C   UNL     1      53.913  32.174  39.023  0.00  0.00    +0.000 A 
ATOM     45  C   UNL     1      54.317  31.545  40.184  0.00  0.00    +0.000 A 
ATOM     46  H   UNL     1      55.341  31.188  40.266  0.00  0.00    +0.000 HD
ATOM     47  C   UNL     1      53.432  31.375  41.226  0.00  0.00    +0.000 A 
ATOM     48  H   UNL     1      53.790  30.872  42.126  0.00  0.00    +0.000 HD
ATOM     49  C   UNL     1      52.107  31.821  41.163  0.00  0.00    +0.000 A 
ATOM     50  C   UNL     1      51.731  32.445  39.993  0.00  0.00    +0.000 A 
ENDBRANCH  36  39
ENDBRANCH   8  36
TORSDOF 4
