
 OpenBabel03252503163D

 39 43  0  0  1  0  0  0  0  0999 V2000
   44.9270   34.7240   41.4260 C   0  0  0  0  0  0  0  0  0  0  0  0
   43.7030   35.3000   41.2050 C   0  0  0  0  0  0  0  0  0  0  0  0
   43.1840   34.7330   40.1320 N   0  0  0  0  0  0  0  0  0  0  0  0
   44.0710   33.8220   39.6970 C   0  0  0  0  0  0  0  0  0  0  0  0
   45.1480   33.8100   40.4920 N   0  0  0  0  0  0  0  0  0  0  0  0
   44.0290   32.9020   38.5780 N   0  0  0  0  0  0  0  0  0  0  0  0
   43.3790   36.0530   41.8170 H   0  0  0  0  0  0  0  0  0  0  0  0
   43.5760   31.9920   38.4910 H   0  0  0  0  0  0  0  0  0  0  0  0
   44.5580   33.2800   37.7640 H   0  0  0  0  0  0  0  0  0  0  0  0
   42.0880   34.9370   39.3270 C   0  0  1  0  0  0  0  0  0  0  0  0
   41.6920   35.5410   38.2630 N   0  0  0  0  0  0  0  0  0  0  0  0
   41.3370   36.0980   37.2870 C   0  0  0  0  0  0  0  0  0  0  0  0
   40.1320   35.5130   37.4260 N   0  0  0  0  0  0  0  0  0  0  0  0
   39.8300   34.6780   38.4230 C   0  0  0  0  0  0  0  0  0  0  0  0
   38.5660   34.0080   38.6010 C   0  0  0  0  0  0  0  0  0  0  0  0
   38.3140   33.1350   39.6250 C   0  0  0  0  0  0  0  0  0  0  0  0
   37.3300   32.6910   39.6610 H   0  0  0  0  0  0  0  0  0  0  0  0
   39.2790   32.8370   40.5690 C   0  0  0  0  0  0  0  0  0  0  0  0
   39.0990   32.1520   41.3740 H   0  0  0  0  0  0  0  0  0  0  0  0
   40.4990   33.4580   40.4400 C   0  0  0  0  0  0  0  0  0  0  0  0
   40.8020   34.3690   39.3970 C   0  0  0  0  0  0  0  0  0  0  0  0
   45.8780   35.0720   42.5280 C   0  0  0  0  0  0  0  0  0  0  0  0
   46.9930   35.6700   42.3480 O   0  0  0  0  0  0  0  0  0  0  0  0
   44.7900   35.6090   44.6650 C   0  0  0  0  0  0  0  0  0  0  0  0
   45.5720   34.7420   43.8870 C   0  0  0  0  0  0  0  0  0  0  0  0
   46.0100   33.5780   44.5270 C   0  0  0  0  0  0  0  0  0  0  0  0
   45.6950   33.3240   45.8010 N   0  0  0  0  0  0  0  0  0  0  0  0
   44.9340   34.1910   46.5240 C   0  0  0  0  0  0  0  0  0  0  0  0
   44.4890   35.3340   45.9410 N   0  0  0  0  0  0  0  0  0  0  0  0
   44.3960   36.5440   44.2730 H   0  0  0  0  0  0  0  0  0  0  0  0
   44.6880   33.9660   47.5850 H   0  0  0  0  0  0  0  0  0  0  0  0
   46.8040   32.6690   43.8110 C   0  0  0  0  0  0  0  0  0  0  0  0
   48.1240   32.5680   43.5090 C   0  0  0  0  0  0  0  0  0  0  0  0
   48.6400   31.5940   42.7970 C   0  0  0  0  0  0  0  0  0  0  0  0
   47.7700   30.6480   42.3520 C   0  0  0  0  0  0  0  0  0  0  0  0
   46.1630   31.2260   43.0090 S   0  0  0  0  0  0  0  0  0  0  0  0
   48.8580   33.3230   43.8610 H   0  0  0  0  0  0  0  0  0  0  0  0
   49.5970   31.2900   42.4300 H   0  0  0  0  0  0  0  0  0  0  0  0
   47.6270   29.6990   41.7720 H   0  0  0  0  0  0  0  0  0  0  0  0
  1 22  1  0  0  0  0
  2  1  2  0  0  0  0
  2  7  1  0  0  0  0
  3  2  1  0  0  0  0
  4  3  1  0  0  0  0
  4  5  2  0  0  0  0
  5  1  1  0  0  0  0
  6  4  1  0  0  0  0
  8  6  1  0  0  0  0
  9  6  1  0  0  0  0
 10 21  1  0  0  0  0
 10  3  1  6  0  0  0
 11 10  1  0  0  0  0
 12 13  1  0  0  0  0
 12 11  1  0  0  0  0
 13 14  1  0  0  0  0
 14 15  2  0  0  0  0
 14 21  1  0  0  0  0
 15 16  1  0  0  0  0
 16 17  1  0  0  0  0
 16 18  2  0  0  0  0
 18 19  1  0  0  0  0
 20 18  1  0  0  0  0
 21 20  2  0  0  0  0
 22 25  1  0  0  0  0
 23 22  2  0  0  0  0
 24 29  1  0  0  0  0
 25 26  1  0  0  0  0
 25 24  2  0  0  0  0
 26 27  2  0  0  0  0
 27 28  1  0  0  0  0
 28 31  1  0  0  0  0
 29 28  2  0  0  0  0
 30 24  1  0  0  0  0
 32 26  1  0  0  0  0
 33 32  2  0  0  0  0
 33 37  1  0  0  0  0
 34 33  1  0  0  0  0
 35 34  2  0  0  0  0
 35 36  1  0  0  0  0
 36 32  1  0  0  0  0
 38 34  1  0  0  0  0
 39 35  1  0  0  0  0
M  END
>  <minimizedAffinity>
-7.09169054

>  <minimizedRMSD>
1.91387451

$$$$
