
     RDKit          3D

 40 43  0  0  0  0  0  0  0  0999 V2000
   46.8833   34.6030   42.2292 N   0  0  0  0  0  0  0  0  0  0  0  0
   48.3305   34.7690   42.2616 C   0  0  0  0  0  0  0  0  0  0  0  0
   48.6569   35.5129   40.9696 C   0  0  0  0  0  0  0  0  0  0  0  0
   48.3315   34.6599   39.7809 C   0  0  0  0  0  0  0  0  0  0  0  0
   47.0825   33.8632   39.9066 C   0  0  0  0  0  0  0  0  0  0  0  0
   46.1813   34.2516   41.0259 C   0  0  1  0  0  0  0  0  0  0  0  0
   44.5096   35.9926   44.7647 C   0  0  0  0  0  0  0  0  0  0  0  0
   45.2311   35.8876   43.5713 C   0  0  0  0  0  0  0  0  0  0  0  0
   46.1101   34.7879   43.4116 C   0  0  0  0  0  0  0  0  0  0  0  0
   46.1969   33.8981   44.4362 N   0  0  0  0  0  0  0  0  0  0  0  0
   45.4730   34.0449   45.5782 C   0  0  0  0  0  0  0  0  0  0  0  0
   44.6361   35.0905   45.7323 N   0  0  0  0  0  0  0  0  0  0  0  0
   45.3484   33.1547   41.3099 O   0  0  0  0  0  0  0  0  0  0  0  0
   48.7627   33.7636   42.1526 H   0  0  0  0  0  0  0  0  0  0  0  0
   48.6710   35.3279   43.1280 H   0  0  0  0  0  0  0  0  0  0  0  0
   49.7820   35.6091   40.9908 H   0  0  0  0  0  0  0  0  0  0  0  0
   48.1752   36.4910   40.9781 H   0  0  0  0  0  0  0  0  0  0  0  0
   49.1940   33.9971   39.5008 H   0  0  0  0  0  0  0  0  0  0  0  0
   48.2118   35.3439   38.9056 H   0  0  0  0  0  0  0  0  0  0  0  0
   46.4933   33.8133   38.9662 H   0  0  0  0  0  0  0  0  0  0  0  0
   47.3805   32.7954   40.0974 H   0  0  0  0  0  0  0  0  0  0  0  0
   45.5359   35.1044   40.6912 H   0  0  0  0  0  0  0  0  0  0  0  0
   43.8841   36.8749   44.7454 H   0  0  0  0  0  0  0  0  0  0  0  0
   45.1837   36.5760   42.7422 H   0  0  0  0  0  0  0  0  0  0  0  0
   45.5568   33.3257   46.3811 H   0  0  0  0  0  0  0  0  0  0  0  0
   43.9824   33.1426   41.1935 C   0  0  0  0  0  0  0  0  0  0  0  0
   43.1782   34.0093   40.5555 N   0  0  0  0  0  0  0  0  0  0  0  0
   41.8539   33.8674   40.5276 C   0  0  0  0  0  0  0  0  0  0  0  0
   41.2523   32.8222   41.1539 N   0  0  0  0  0  0  0  0  0  0  0  0
   41.9958   31.9213   41.8086 C   0  0  0  0  0  0  0  0  0  0  0  0
   41.3870   30.8621   42.4435 C   0  0  0  0  0  0  0  0  0  0  0  0
   42.1126   29.9162   43.1258 C   0  0  0  0  0  0  0  0  0  0  0  0
   41.7229   29.0487   43.6558 H   0  0  0  0  0  0  0  0  0  0  0  0
   43.4681   30.0438   43.1661 C   0  0  0  0  0  0  0  0  0  0  0  0
   44.1141   29.3464   43.6792 H   0  0  0  0  0  0  0  0  0  0  0  0
   44.0674   31.1089   42.5265 C   0  0  0  0  0  0  0  0  0  0  0  0
   43.3689   32.0796   41.8304 C   0  0  0  0  0  0  0  0  0  0  0  0
   41.2196   34.5649   40.0154 H   0  0  0  0  0  0  0  0  0  0  0  0
   40.3101   30.7309   42.4310 H   0  0  0  0  0  0  0  0  0  0  0  0
   45.1499   31.2027   42.5638 H   0  0  0  0  0  0  0  0  0  0  0  0
  1  2  1  0
  1  9  1  0
  3  2  1  0
  4  5  1  0
  4  3  1  0
  5  6  1  0
  6 13  1  0
  6  1  1  0
  7 12  2  0
  8  7  1  0
  9  8  2  0
  9 10  1  0
 10 11  2  0
 11 12  1  0
  2 14  1  0
  2 15  1  0
  3 16  1  0
  3 17  1  0
  4 18  1  0
  4 19  1  0
  5 20  1  0
  5 21  1  0
  6 22  1  6
  7 23  1  0
  8 24  1  0
 11 25  1  0
 26 27  2  0
 27 28  1  0
 28 29  2  0
 29 30  1  0
 30 31  2  0
 31 32  1  0
 32 33  1  0
 32 34  2  0
 34 35  1  0
 34 36  1  0
 36 37  2  0
 37 26  1  0
 37 30  1  0
 28 38  1  0
 31 39  1  0
 36 40  1  0
 13 26  1  0
M  ISO  8  14  13  15  13  16  13  17  13  18  13  19  13  20  13  21  13
M  ISO  6  22  13  23  14  24  14  25  14  33  16  35  16
M  END
>  <DihAtoms>  (1) 
5,12,25,26

>  <DihDeg>  (1) 
0.0007521853716905024

$$$$
