REMARK  Name = 
REMARK  3 active torsions:
REMARK  status: ('A' for Active; 'I' for Inactive)
REMARK    1  A    between atoms: N_1  and  C_9
REMARK    2  A    between atoms: C_6  and  N_16
REMARK    3  A    between atoms: C_7  and  C_11
REMARK                            x       y       z     vdW  Elec       q    Type
REMARK                         _______ _______ _______ _____ _____    ______ ____
ROOT
ATOM      1  N   UNL     1      49.333  33.226  41.495  0.00  0.00    +0.000 NA
ATOM      2  C   UNL     1      50.663  33.119  42.038  0.00  0.00    +0.000 C 
ATOM      3  C   UNL     1      51.339  31.805  41.789  0.00  0.00    +0.000 C 
ATOM      4  C   UNL     1      50.584  30.724  42.533  0.00  0.00    +0.000 C 
ATOM      5  C   UNL     1      49.110  30.999  42.538  0.00  0.00    +0.000 C 
ATOM      6  C   UNL     1      48.767  31.901  41.379  0.00  0.00    +0.000 C 
ATOM      7  H   UNL     1      50.643  33.267  43.139  0.00  0.00    +0.000 HD
ATOM      8  H   UNL     1      51.243  33.962  41.621  0.00  0.00    +0.000 HD
ATOM      9  H   UNL     1      52.371  31.921  42.241  0.00  0.00    +0.000 HD
ATOM     10  H   UNL     1      51.534  31.557  40.744  0.00  0.00    +0.000 HD
ATOM     11  H   UNL     1      50.850  29.712  42.205  0.00  0.00    +0.000 HD
ATOM     12  H   UNL     1      50.914  30.810  43.606  0.00  0.00    +0.000 HD
ATOM     13  H   UNL     1      48.486  30.101  42.469  0.00  0.00    +0.000 HD
ATOM     14  H   UNL     1      48.780  31.534  43.458  0.00  0.00    +0.000 HD
ATOM     15  H   UNL     1      47.664  32.030  41.419  0.00  0.00    +0.000 HD
ENDROOT
BRANCH   6  16
ATOM     16  N   UNL     1      49.052  31.249  40.131  0.00  0.00    +0.000 N 
ATOM     17  H   UNL     1      49.594  31.867  39.497  0.00  0.00    +0.000 HD
ATOM     18  C   UNL     1      48.675  29.953  39.712  0.00  0.00    +0.000 A 
ATOM     19  N   UNL     1      49.499  28.899  39.658  0.00  0.00    +0.000 NA
ATOM     20  C   UNL     1      49.203  27.668  39.282  0.00  0.00    +0.000 A 
ATOM     21  N   UNL     1      47.939  27.411  38.904  0.00  0.00    +0.000 NA
ATOM     22  C   UNL     1      47.018  28.386  38.914  0.00  0.00    +0.000 A 
ATOM     23  C   UNL     1      45.741  28.099  38.526  0.00  0.00    +0.000 A 
ATOM     24  C   UNL     1      44.744  29.052  38.512  0.00  0.00    +0.000 A 
ATOM     25  H   UNL     1      43.767  28.756  38.196  0.00  0.00    +0.000 HD
ATOM     26  C   UNL     1      45.108  30.325  38.915  0.00  0.00    +0.000 A 
ATOM     27  H   UNL     1      44.318  31.063  38.899  0.00  0.00    +0.000 HD
ATOM     28  C   UNL     1      46.395  30.586  39.299  0.00  0.00    +0.000 A 
ATOM     29  C   UNL     1      47.393  29.645  39.317  0.00  0.00    +0.000 A 
ENDBRANCH   6  16
BRANCH   1  32
ATOM     30  C   UNL     1      47.190  34.550  42.011  0.00  0.00    +0.000 C 
ATOM     31  C   UNL     1      48.321  35.467  41.733  0.00  0.00    +0.000 C 
ATOM     32  C   UNL     1      48.586  34.124  42.284  0.00  0.00    +0.000 C 
ATOM     33  H   UNL     1      46.628  34.214  41.111  0.00  0.00    +0.000 HD
ATOM     34  H   UNL     1      48.497  36.327  42.407  0.00  0.00    +0.000 HD
ATOM     35  H   UNL     1      48.618  35.695  40.679  0.00  0.00    +0.000 HD
ATOM     36  H   UNL     1      48.824  34.059  43.389  0.00  0.00    +0.000 HD
BRANCH  30  38
ATOM     37  C   UNL     1      45.506  36.021  43.151  0.00  0.00    +0.000 A 
ATOM     38  C   UNL     1      46.289  34.857  43.140  0.00  0.00    +0.000 A 
ATOM     39  C   UNL     1      46.175  33.977  44.241  0.00  0.00    +0.000 A 
ATOM     40  N   UNL     1      45.322  34.305  45.238  0.00  0.00    +0.000 NA
ATOM     41  C   UNL     1      44.579  35.429  45.226  0.00  0.00    +0.000 A 
ATOM     42  N   UNL     1      44.664  36.304  44.176  0.00  0.00    +0.000 NA
ATOM     43  H   UNL     1      45.595  36.692  42.308  0.00  0.00    +0.000 HD
ATOM     44  H   UNL     1      46.765  33.070  44.266  0.00  0.00    +0.000 HD
ATOM     45  H   UNL     1      43.939  35.563  46.090  0.00  0.00    +0.000 HD
ENDBRANCH  30  38
ENDBRANCH   1  32
TORSDOF 3
