
 OpenBabel03252507593D

 32 35  0  0  1  0  0  0  0  0999 V2000
   46.1040   34.4040   43.1530 C   0  0  0  0  0  0  0  0  0  0  0  0
   45.2580   35.5100   43.5200 C   0  0  0  0  0  0  0  0  0  0  0  0
   44.7620   35.5030   44.8210 C   0  0  0  0  0  0  0  0  0  0  0  0
   45.0950   34.4810   45.6450 N   0  0  0  0  0  0  0  0  0  0  0  0
   45.9070   33.4540   45.2330 C   0  0  0  0  0  0  0  0  0  0  0  0
   46.4190   33.3900   44.0110 N   0  0  0  0  0  0  0  0  0  0  0  0
   45.0550   36.2630   42.8020 H   0  0  0  0  0  0  0  0  0  0  0  0
   44.1280   36.3150   45.1260 H   0  0  0  0  0  0  0  0  0  0  0  0
   46.2320   32.3670   46.2010 C   0  0  1  0  0  0  0  0  0  0  0  0
   46.9600   32.7270   47.4750 C   0  0  0  0  0  0  0  0  0  0  0  0
   45.4850   32.4350   47.4740 C   0  0  1  0  0  0  0  0  0  0  0  0
   46.4500   31.3730   45.7650 H   0  0  0  0  0  0  0  0  0  0  0  0
   47.6640   31.9550   47.8490 H   0  0  0  0  0  0  0  0  0  0  0  0
   47.3300   33.7810   47.4760 H   0  0  0  0  0  0  0  0  0  0  0  0
   45.2190   31.4970   48.0200 H   0  0  0  0  0  0  0  0  0  0  0  0
   44.6820   33.6260   47.7750 N   0  0  0  0  0  0  0  0  0  0  0  0
   45.2530   34.3700   48.2450 H   0  0  0  0  0  0  0  0  0  0  0  0
   43.9590   33.3460   48.4880 H   0  0  0  0  0  0  0  0  0  0  0  0
   46.5840   34.4060   41.7960 C   0  0  2  0  0  3  0  0  0  0  0  0
   47.6140   35.1230   41.4560 O   0  0  0  0  0  1  0  0  0  0  0  0
   46.2030   33.7610   40.5420 C   0  0  0  0  0  0  0  0  0  0  0  0
   45.0650   33.0520   40.5140 N   0  0  0  0  0  0  0  0  0  0  0  0
   44.6230   32.4090   39.3880 C   0  0  0  0  0  3  0  0  0  0  0  0
   45.3100   32.4570   38.2510 N   0  0  0  0  0  0  0  0  0  0  0  0
   46.4810   33.1490   38.1650 C   0  0  0  0  0  0  0  0  0  0  0  0
   47.2200   33.2280   37.0080 C   0  0  0  0  0  3  0  0  0  0  0  0
   48.3990   33.9400   36.9480 C   0  0  0  0  0  0  0  0  0  0  0  0
   48.8840   33.9280   35.9950 H   0  0  0  0  0  0  0  0  0  0  0  0
   48.8030   34.5760   38.1240 C   0  0  0  0  0  0  0  0  0  0  0  0
   49.7270   35.1240   38.0470 H   0  0  0  0  0  0  0  0  0  0  0  0
   48.0270   34.4620   39.2450 C   0  0  0  0  0  3  0  0  0  0  0  0
   46.8550   33.7630   39.3340 C   0  0  0  0  0  0  0  0  0  0  0  0
  1  2  2  0  0  0  0
  1  6  1  0  0  0  0
  2  3  1  0  0  0  0
  3  8  1  0  0  0  0
  3  4  2  0  0  0  0
  5  4  1  0  0  0  0
  5  9  1  0  0  0  0
  6  5  2  0  0  0  0
  7  2  1  0  0  0  0
  9 12  1  6  0  0  0
  9 11  1  0  0  0  0
  9 10  1  0  0  0  0
 10 14  1  0  0  0  0
 10 13  1  0  0  0  0
 11 10  1  0  0  0  0
 11 16  1  0  0  0  0
 11 15  1  1  0  0  0
 16 17  1  0  0  0  0
 16 18  1  0  0  0  0
 19 20  1  6  0  0  0
 19  1  1  0  0  0  0
 21 19  1  0  0  0  0
 22 21  1  0  0  0  0
 23 22  2  0  0  0  0
 24 23  1  0  0  0  0
 25 24  2  0  0  0  0
 25 32  1  0  0  0  0
 26 25  1  0  0  0  0
 27 26  2  0  0  0  0
 27 29  1  0  0  0  0
 28 27  1  0  0  0  0
 29 31  2  0  0  0  0
 30 29  1  0  0  0  0
 31 32  1  0  0  0  0
 32 21  2  0  0  0  0
M  END
>  <minimizedAffinity>
-6.10803413

>  <minimizedRMSD>
0.890098751

$$$$
