
 OpenBabel03242523303D

 25 27  0  0  0  0  0  0  0  0999 V2000
   46.4820   32.1400   45.5430 S   0  0  0  0  0  0  0  0  0  0  0  0
   46.1320   33.5970   44.5740 C   0  0  0  0  0  0  0  0  0  0  0  0
   45.0690   34.4210   44.7430 N   0  0  0  0  0  0  0  0  0  0  0  0
   44.9140   35.4920   43.9400 C   0  0  0  0  0  0  0  0  0  0  0  0
   45.8030   35.7780   42.9500 N   0  0  0  0  0  0  0  0  0  0  0  0
   46.8900   34.9830   42.7340 C   0  0  0  0  0  0  0  0  0  0  0  0
   47.7620   35.3140   41.7180 C   0  0  0  0  0  0  0  0  0  0  0  0
   48.8660   34.4770   41.5240 C   0  0  0  0  0  0  0  0  0  0  0  0
   49.6150   34.6320   40.7620 H   0  0  0  0  0  0  0  0  0  0  0  0
   49.0490   33.3770   42.3290 C   0  0  0  0  0  0  0  0  0  0  0  0
   49.8980   32.6950   42.2130 H   0  0  0  0  0  0  0  0  0  0  0  0
   48.1390   33.1010   43.3300 C   0  0  0  0  0  0  0  0  0  0  0  0
   47.0270   33.8950   43.5680 C   0  0  0  0  0  0  0  0  0  0  0  0
   46.8150   32.6410   47.2630 C   0  0  0  0  0  0  0  0  0  0  0  0
   45.8630   32.7550   47.8320 H   0  0  0  0  0  0  0  0  0  0  0  0
   47.3220   33.6220   47.3040 H   0  0  0  0  0  0  0  0  0  0  0  0
   48.5610   29.4600   48.0990 C   0  0  0  0  0  0  0  0  0  0  0  0
   49.4200   29.8940   49.1190 C   0  0  0  0  0  0  0  0  0  0  0  0
   49.3870   31.2490   49.4980 C   0  0  0  0  0  0  0  0  0  0  0  0
   48.5210   32.0900   48.8580 N   0  0  0  0  0  0  0  0  0  0  0  0
   47.6990   31.6220   47.8670 C   0  0  0  0  0  0  0  0  0  0  0  0
   47.7350   30.3370   47.5110 N   0  0  0  0  0  0  0  0  0  0  0  0
   48.6130   28.4170   47.8350 H   0  0  0  0  0  0  0  0  0  0  0  0
   50.1210   29.2800   49.6590 H   0  0  0  0  0  0  0  0  0  0  0  0
   50.0040   31.6640   50.2640 H   0  0  0  0  0  0  0  0  0  0  0  0
  1 14  1  0  0  0  0
  2  3  1  0  0  0  0
  2  1  1  0  0  0  0
  4  3  2  0  0  0  0
  5  4  1  0  0  0  0
  6  5  2  0  0  0  0
  6 13  1  0  0  0  0
  7  6  1  0  0  0  0
  8  7  2  0  0  0  0
  8 10  1  0  0  0  0
  9  8  1  0  0  0  0
 10 12  2  0  0  0  0
 11 10  1  0  0  0  0
 12 13  1  0  0  0  0
 13  2  2  0  0  0  0
 14 16  1  0  0  0  0
 14 15  1  0  0  0  0
 14 21  1  0  0  0  0
 17 18  1  0  0  0  0
 18 19  2  0  0  0  0
 18 24  1  0  0  0  0
 19 25  1  0  0  0  0
 20 19  1  0  0  0  0
 21 20  2  0  0  0  0
 22 21  1  0  0  0  0
 22 17  2  0  0  0  0
 23 17  1  0  0  0  0
M  END
>  <minimizedAffinity>
-4.92109203

>  <minimizedRMSD>
5.3541131

$$$$
