
 OpenBabel03252506383D

 47 51  0  0  1  0  0  0  0  0999 V2000
   46.5760   30.0760   46.4830 S   0  0  0  0  0  0  0  0  0  0  0  0
   45.8010   30.7300   43.3020 O   0  0  0  0  0  0  0  0  0  0  0  0
   45.1130   30.1230   44.1380 C   0  0  0  0  0  0  0  0  0  0  0  0
   45.1030   29.8130   45.5890 C   0  0  1  0  0  0  0  0  0  0  0  0
   44.5900   28.3940   45.6030 C   0  0  0  0  0  0  0  0  0  0  0  0
   43.3340   28.6250   44.7590 C   0  0  0  0  0  0  0  0  0  0  0  0
   43.9130   29.4580   43.7120 N   0  0  0  0  0  0  0  0  0  0  0  0
   44.1810   30.3860   45.8870 H   0  0  0  0  0  0  0  0  0  0  0  0
   44.2600   28.0550   46.5990 H   0  0  0  0  0  0  0  0  0  0  0  0
   45.2840   27.7060   45.1140 H   0  0  0  0  0  0  0  0  0  0  0  0
   42.6330   29.2450   45.3540 H   0  0  0  0  0  0  0  0  0  0  0  0
   42.9080   27.6870   44.3890 H   0  0  0  0  0  0  0  0  0  0  0  0
   43.2300   29.5000   42.4430 C   0  0  0  0  0  0  0  0  0  0  0  0
   43.7550   30.2670   41.4610 N   0  0  0  0  0  0  0  0  0  0  0  0
   43.1720   30.3630   40.2320 C   0  0  0  0  0  3  0  0  0  0  0  0
   42.0510   29.6950   39.9500 N   0  0  0  0  0  0  0  0  0  0  0  0
   41.5030   28.9210   40.9080 C   0  0  0  0  0  0  0  0  0  0  0  0
   40.3450   28.2160   40.6550 C   0  0  0  0  0  3  0  0  0  0  0  0
   39.7570   27.4100   41.6210 C   0  0  0  0  0  0  0  0  0  0  0  0
   38.8480   26.8640   41.4040 H   0  0  0  0  0  0  0  0  0  0  0  0
   40.3790   27.3360   42.8630 C   0  0  0  0  0  0  0  0  0  0  0  0
   39.8920   26.6990   43.5890 H   0  0  0  0  0  0  0  0  0  0  0  0
   41.5470   28.0270   43.1720 C   0  0  0  0  0  3  0  0  0  0  0  0
   42.0690   28.8040   42.1610 C   0  0  0  0  0  0  0  0  0  0  0  0
   44.4960   35.5960   45.1420 C   0  0  0  0  0  0  0  0  0  0  0  0
   45.1460   35.5910   43.8830 C   0  0  0  0  0  0  0  0  0  0  0  0
   46.0530   34.6210   43.6100 C   0  0  0  0  0  0  0  0  0  0  0  0
   46.2840   33.7000   44.5790 N   0  0  0  0  0  0  0  0  0  0  0  0
   45.6720   33.7100   45.7540 C   0  0  0  0  0  0  0  0  0  0  0  0
   44.7760   34.6500   46.0520 N   0  0  0  0  0  0  0  0  0  0  0  0
   46.0000   32.6850   46.7080 N   0  0  0  0  0  0  0  0  0  0  0  0
   45.2730   32.4300   47.8950 C   0  0  0  0  0  0  0  0  0  0  0  0
   46.3530   32.0660   48.8960 C   0  0  0  0  0  0  0  0  0  0  0  0
   47.6250   31.9490   48.1110 C   0  0  0  0  0  0  0  0  0  0  0  0
   47.1090   31.7610   46.6870 C   0  0  1  0  0  0  0  0  0  0  0  0
   43.7720   36.3710   45.3570 H   0  0  0  0  0  0  0  0  0  0  0  0
   46.5470   34.6080   42.6700 H   0  0  0  0  0  0  0  0  0  0  0  0
   44.8960   33.4360   48.2620 H   0  0  0  0  0  0  0  0  0  0  0  0
   44.4780   31.7660   47.9990 H   0  0  0  0  0  0  0  0  0  0  0  0
   46.1370   31.0610   49.3550 H   0  0  0  0  0  0  0  0  0  0  0  0
   46.4510   32.7630   49.7260 H   0  0  0  0  0  0  0  0  0  0  0  0
   48.1980   31.0690   48.4400 H   0  0  0  0  0  0  0  0  0  0  0  0
   48.2440   32.8650   48.1740 H   0  0  0  0  0  0  0  0  0  0  0  0
   47.9000   32.0430   45.9900 H   0  0  0  0  0  0  0  0  0  0  0  0
   44.7920   36.6380   42.9640 N   0  0  0  0  0  0  0  0  0  0  0  0
   45.5220   36.9960   42.2870 H   0  0  0  0  0  0  0  0  0  0  0  0
   43.8250   37.0030   43.0010 H   0  0  0  0  0  0  0  0  0  0  0  0
  1 35  1  0  0  0  0
  2  3  2  0  0  0  0
  3  4  1  0  0  0  0
  4  5  1  0  0  0  0
  4  8  1  1  0  0  0
  4  1  1  0  0  0  0
  5  9  1  0  0  0  0
  6 11  1  0  0  0  0
  6  5  1  0  0  0  0
  7  3  1  0  0  0  0
  7  6  1  0  0  0  0
 10  5  1  0  0  0  0
 12  6  1  0  0  0  0
 13  7  1  0  0  0  0
 14 13  2  0  0  0  0
 15 14  1  0  0  0  0
 16 15  2  0  0  0  0
 16 17  1  0  0  0  0
 17 24  1  0  0  0  0
 18 17  2  0  0  0  0
 18 19  1  0  0  0  0
 19 21  2  0  0  0  0
 20 19  1  0  0  0  0
 21 23  1  0  0  0  0
 21 22  1  0  0  0  0
 24 13  1  0  0  0  0
 24 23  2  0  0  0  0
 25 36  1  0  0  0  0
 25 30  1  0  0  0  0
 26 25  2  0  0  0  0
 27 26  1  0  0  0  0
 27 28  2  0  0  0  0
 28 29  1  0  0  0  0
 29 30  2  0  0  0  0
 29 31  1  0  0  0  0
 31 32  1  0  0  0  0
 32 39  1  0  0  0  0
 32 38  1  0  0  0  0
 32 33  1  0  0  0  0
 33 40  1  0  0  0  0
 33 41  1  0  0  0  0
 34 43  1  0  0  0  0
 34 42  1  0  0  0  0
 34 33  1  0  0  0  0
 35 44  1  6  0  0  0
 35 31  1  0  0  0  0
 35 34  1  0  0  0  0
 37 27  1  0  0  0  0
 45 47  1  0  0  0  0
 45 26  1  0  0  0  0
 46 45  1  0  0  0  0
M  END
>  <minimizedAffinity>
-5.85943794

>  <minimizedRMSD>
0.509909034

$$$$
