
     RDKit          3D

 37 40  0  0  0  0  0  0  0  0999 V2000
   44.6243   35.4644   45.0111 C   0  0  0  0  0  0  0  0  0  0  0  0
   45.2843   35.5475   43.7785 C   0  0  0  0  0  0  0  0  0  0  0  0
   46.2743   34.5911   43.5372 C   0  0  0  0  0  0  0  0  0  0  0  0
   46.5431   33.6535   44.4797 N   0  0  0  0  0  0  0  0  0  0  0  0
   45.8703   33.6241   45.6542 C   0  0  0  0  0  0  0  0  0  0  0  0
   44.9049   34.5229   45.9396 N   0  0  0  0  0  0  0  0  0  0  0  0
   46.9869   34.6544   42.2694 C   0  0  0  0  0  0  0  0  0  0  0  0
   48.1311   35.3726   41.9641 C   0  0  0  0  0  0  0  0  0  0  0  0
   48.6564   35.2997   40.6824 C   0  0  0  0  0  0  0  0  0  0  0  0
   48.0480   34.5254   39.7293 C   0  0  0  0  0  0  0  0  0  0  0  0
   46.9055   33.8049   40.0242 C   0  0  0  0  0  0  0  0  0  0  0  0
   46.3903   33.8827   41.3020 C   0  0  0  0  0  0  0  0  0  0  0  0
   44.9068   36.6008   42.8472 C   0  0  0  0  0  0  0  0  0  0  0  0
   43.8400   36.1451   45.3161 H   0  0  0  0  0  0  0  0  0  0  0  0
   46.2195   32.8072   46.2835 H   0  0  0  0  0  0  0  0  0  0  0  0
   48.5184   35.9453   42.7950 H   0  0  0  0  0  0  0  0  0  0  0  0
   49.5511   35.8813   40.4983 H   0  0  0  0  0  0  0  0  0  0  0  0
   48.5395   34.5444   38.7737 H   0  0  0  0  0  0  0  0  0  0  0  0
   46.4893   33.2220   39.2201 H   0  0  0  0  0  0  0  0  0  0  0  0
   45.4890   33.2677   41.4150 H   0  0  0  0  0  0  0  0  0  0  0  0
   45.8766   36.9404   42.3700 H   0  0  0  0  0  0  0  0  0  0  0  0
   44.4751   37.4440   43.4173 H   0  0  0  0  0  0  0  0  0  0  0  0
   44.0186   36.2351   41.7458 C   0  0  0  0  0  0  0  0  0  0  0  0
   43.6242   36.9608   40.6818 N   0  0  0  0  0  0  0  0  0  0  0  0
   42.7966   36.4447   39.7421 C   0  0  0  0  0  0  0  0  0  0  0  0
   42.3145   35.1817   39.8056 N   0  0  0  0  0  0  0  0  0  0  0  0
   42.6982   34.4203   40.8755 C   0  0  0  0  0  0  0  0  0  0  0  0
   42.1480   33.1375   40.8460 C   0  0  0  0  0  0  0  0  0  0  0  0
   42.5449   32.3665   41.9408 C   0  0  0  0  0  0  0  0  0  0  0  0
   42.1471   31.3481   41.9751 H   0  0  0  0  0  0  0  0  0  0  0  0
   43.3788   32.7815   42.9541 C   0  0  0  0  0  0  0  0  0  0  0  0
   43.6362   32.1205   43.7670 H   0  0  0  0  0  0  0  0  0  0  0  0
   43.8325   34.0556   42.8425 C   0  0  0  0  0  0  0  0  0  0  0  0
   43.5400   34.9449   41.8314 C   0  0  0  0  0  0  0  0  0  0  0  0
   42.4990   37.0538   38.9010 H   0  0  0  0  0  0  0  0  0  0  0  0
   41.5036   32.7914   40.0781 H   0  0  0  0  0  0  0  0  0  0  0  0
   44.4993   34.4011   43.6456 H   0  0  0  0  0  0  0  0  0  0  0  0
  1  6  2  0
  2  1  1  0
  3  2  2  0
  3  4  1  0
  4  5  2  0
  5  6  1  0
  7  3  1  0
  8  7  2  0
  9  8  1  0
 10 11  1  0
 10  9  2  0
 11 12  2  0
 12  7  1  0
 13  2  1  0
  1 14  1  0
  5 15  1  0
  8 16  1  0
  9 17  1  0
 10 18  1  0
 11 19  1  0
 12 20  1  0
 13 21  1  0
 13 22  1  0
 23 24  2  0
 24 25  1  0
 25 26  2  0
 26 27  1  0
 27 28  2  0
 28 29  1  0
 29 30  1  0
 29 31  2  0
 31 32  1  0
 31 33  1  0
 33 34  2  0
 34 23  1  0
 34 27  1  0
 25 35  1  0
 28 36  1  0
 33 37  1  0
 13 23  1  0
M  ISO  8  14  14  15  14  16  14  17  14  18  14  19  14  20  14  21   8
M  ISO  3  22   8  30  16  32  16
M  END
>  <DihAtoms>  (1) 
1,12,22,23

>  <DihDeg>  (1) 
7.383917745363471

$$$$
