
 OpenBabel03252506373D

 47 51  0  0  1  0  0  0  0  0999 V2000
   46.6680   30.1110   46.6220 S   0  0  0  0  0  0  0  0  0  0  0  0
   45.8900   30.6940   43.4280 O   0  0  0  0  0  0  0  0  0  0  0  0
   45.2150   30.0810   44.2700 C   0  0  0  0  0  0  0  0  0  0  0  0
   45.2070   29.7920   45.7260 C   0  0  1  0  0  0  0  0  0  0  0  0
   44.7350   28.3600   45.7590 C   0  0  0  0  0  0  0  0  0  0  0  0
   43.4760   28.5430   44.9070 C   0  0  0  0  0  0  0  0  0  0  0  0
   44.0360   29.3760   43.8490 N   0  0  0  0  0  0  0  0  0  0  0  0
   44.2680   30.3440   46.0110 H   0  0  0  0  0  0  0  0  0  0  0  0
   44.4090   28.0260   46.7580 H   0  0  0  0  0  0  0  0  0  0  0  0
   45.4500   27.6840   45.2830 H   0  0  0  0  0  0  0  0  0  0  0  0
   42.7560   29.1510   45.4890 H   0  0  0  0  0  0  0  0  0  0  0  0
   43.0790   27.5880   44.5480 H   0  0  0  0  0  0  0  0  0  0  0  0
   43.3590   29.3790   42.5770 C   0  0  0  0  0  0  0  0  0  0  0  0
   44.1070   29.2760   41.4570 N   0  0  0  0  0  0  0  0  0  0  0  0
   43.5460   29.2710   40.2120 C   0  0  0  0  0  3  0  0  0  0  0  0
   42.2240   29.3690   40.0560 N   0  0  0  0  0  0  0  0  0  0  0  0
   41.4510   29.4730   41.1550 C   0  0  0  0  0  0  0  0  0  0  0  0
   40.0800   29.5760   41.0330 C   0  0  0  0  0  3  0  0  0  0  0  0
   39.2570   29.6850   42.1470 C   0  0  0  0  0  0  0  0  0  0  0  0
   38.1840   29.7650   42.0320 H   0  0  0  0  0  0  0  0  0  0  0  0
   39.8640   29.6860   43.3990 C   0  0  0  0  0  0  0  0  0  0  0  0
   39.1910   29.7720   44.2410 H   0  0  0  0  0  0  0  0  0  0  0  0
   41.2400   29.5860   43.5780 C   0  0  0  0  0  3  0  0  0  0  0  0
   41.9880   29.4820   42.4260 C   0  0  0  0  0  0  0  0  0  0  0  0
   44.4780   35.5450   45.1160 C   0  0  0  0  0  0  0  0  0  0  0  0
   45.1600   35.5320   43.8730 C   0  0  0  0  0  0  0  0  0  0  0  0
   46.0990   34.5800   43.6430 C   0  0  0  0  0  0  0  0  0  0  0  0
   46.3290   33.6860   44.6360 N   0  0  0  0  0  0  0  0  0  0  0  0
   45.6880   33.7030   45.7960 C   0  0  0  0  0  0  0  0  0  0  0  0
   44.7600   34.6260   46.0510 N   0  0  0  0  0  0  0  0  0  0  0  0
   46.0190   32.7070   46.7780 N   0  0  0  0  0  0  0  0  0  0  0  0
   45.2680   32.4570   47.9520 C   0  0  0  0  0  0  0  0  0  0  0  0
   46.3330   32.1420   48.9860 C   0  0  0  0  0  0  0  0  0  0  0  0
   47.6260   32.0430   48.2350 C   0  0  0  0  0  0  0  0  0  0  0  0
   47.1520   31.8130   46.8040 C   0  0  1  0  0  0  0  0  0  0  0  0
   43.7300   36.3050   45.2960 H   0  0  0  0  0  0  0  0  0  0  0  0
   46.6160   34.5620   42.7160 H   0  0  0  0  0  0  0  0  0  0  0  0
   44.8570   33.4600   48.2890 H   0  0  0  0  0  0  0  0  0  0  0  0
   44.4890   31.7740   48.0510 H   0  0  0  0  0  0  0  0  0  0  0  0
   46.1310   31.1410   49.4620 H   0  0  0  0  0  0  0  0  0  0  0  0
   46.3920   32.8590   49.8040 H   0  0  0  0  0  0  0  0  0  0  0  0
   48.2140   31.1860   48.5980 H   0  0  0  0  0  0  0  0  0  0  0  0
   48.2190   32.9770   48.2940 H   0  0  0  0  0  0  0  0  0  0  0  0
   47.9520   32.1020   46.1200 H   0  0  0  0  0  0  0  0  0  0  0  0
   44.8020   36.5500   42.9240 N   0  0  0  0  0  0  0  0  0  0  0  0
   45.5390   36.9130   42.2580 H   0  0  0  0  0  0  0  0  0  0  0  0
   43.8250   36.8900   42.9290 H   0  0  0  0  0  0  0  0  0  0  0  0
  1 35  1  0  0  0  0
  2  3  2  0  0  0  0
  3  4  1  0  0  0  0
  4  5  1  0  0  0  0
  4  8  1  1  0  0  0
  4  1  1  0  0  0  0
  5  9  1  0  0  0  0
  6 11  1  0  0  0  0
  6  5  1  0  0  0  0
  7  3  1  0  0  0  0
  7  6  1  0  0  0  0
 10  5  1  0  0  0  0
 12  6  1  0  0  0  0
 13  7  1  0  0  0  0
 14 13  2  0  0  0  0
 15 14  1  0  0  0  0
 16 15  2  0  0  0  0
 16 17  1  0  0  0  0
 17 24  1  0  0  0  0
 18 17  2  0  0  0  0
 18 19  1  0  0  0  0
 19 21  2  0  0  0  0
 20 19  1  0  0  0  0
 21 23  1  0  0  0  0
 21 22  1  0  0  0  0
 24 13  1  0  0  0  0
 24 23  2  0  0  0  0
 25 36  1  0  0  0  0
 25 30  1  0  0  0  0
 26 25  2  0  0  0  0
 27 26  1  0  0  0  0
 27 28  2  0  0  0  0
 28 29  1  0  0  0  0
 29 30  2  0  0  0  0
 29 31  1  0  0  0  0
 31 35  1  0  0  0  0
 31 32  1  0  0  0  0
 32 39  1  0  0  0  0
 32 38  1  0  0  0  0
 32 33  1  0  0  0  0
 33 40  1  0  0  0  0
 33 41  1  0  0  0  0
 34 43  1  0  0  0  0
 34 42  1  0  0  0  0
 34 33  1  0  0  0  0
 35 44  1  6  0  0  0
 35 34  1  0  0  0  0
 37 27  1  0  0  0  0
 45 47  1  0  0  0  0
 45 26  1  0  0  0  0
 46 45  1  0  0  0  0
M  END
>  <minimizedAffinity>
-6.09837055

>  <minimizedRMSD>
0.435290247

$$$$
