
     RDKit          3D

 30 32  0  0  0  0  0  0  0  0999 V2000
   45.2959   34.5693   45.0247 C   0  0  0  0  0  0  0  0  0  0  0  0
   45.2639   33.9364   46.2754 C   0  0  0  0  0  0  0  0  0  0  0  0
   46.1645   32.9083   46.4768 C   0  0  0  0  0  0  0  0  0  0  0  0
   46.9972   32.5882   45.4778 N   0  0  0  0  0  0  0  0  0  0  0  0
   47.0198   33.2029   44.2784 C   0  0  0  0  0  0  0  0  0  0  0  0
   46.1608   34.2078   44.0411 N   0  0  0  0  0  0  0  0  0  0  0  0
   43.9729   35.3896   43.3197 C   0  0  0  0  0  0  0  0  0  0  0  0
   44.4124   34.2708   42.8300 O   0  0  0  0  0  0  0  0  0  0  0  0
   44.4597   35.6536   44.6124 N   0  0  0  0  0  0  0  0  0  0  0  0
   44.3069   34.4240   47.1927 N   0  0  0  0  0  0  0  0  0  0  0  0
   46.1270   32.4311   47.4457 H   0  0  0  0  0  0  0  0  0  0  0  0
   47.7010   32.9228   43.4951 H   0  0  0  0  0  0  0  0  0  0  0  0
   44.0241   36.5412   44.7744 H   0  0  0  0  0  0  0  0  0  0  0  0
   44.1947   35.3730   47.6248 H   0  0  0  0  0  0  0  0  0  0  0  0
   43.6768   33.6273   47.3899 H   0  0  0  0  0  0  0  0  0  0  0  0
   43.2230   35.6370   42.1267 C   0  0  0  0  0  0  0  0  0  0  0  0
   44.1498   36.0134   41.2286 N   0  0  0  0  0  0  0  0  0  0  0  0
   43.7945   36.3357   39.9493 C   0  0  0  0  0  0  0  0  0  0  0  0
   42.4989   36.2542   39.6572 N   0  0  0  0  0  0  0  0  0  0  0  0
   41.5446   35.8855   40.5160 C   0  0  0  0  0  0  0  0  0  0  0  0
   40.1890   35.7968   40.2220 C   0  0  0  0  0  0  0  0  0  0  0  0
   39.2757   35.3981   41.2036 C   0  0  0  0  0  0  0  0  0  0  0  0
   38.2254   35.3455   40.9193 H   0  0  0  0  0  0  0  0  0  0  0  0
   39.7497   35.0904   42.4846 C   0  0  0  0  0  0  0  0  0  0  0  0
   38.9455   34.7978   43.1452 H   0  0  0  0  0  0  0  0  0  0  0  0
   41.0878   35.1709   42.7995 C   0  0  0  0  0  0  0  0  0  0  0  0
   41.9163   35.5675   41.7877 C   0  0  0  0  0  0  0  0  0  0  0  0
   44.5396   36.6391   39.2246 H   0  0  0  0  0  0  0  0  0  0  0  0
   39.8866   36.0479   39.2137 H   0  0  0  0  0  0  0  0  0  0  0  0
   41.2222   34.8944   43.8205 H   0  0  0  0  0  0  0  0  0  0  0  0
  1  2  2  0
  2  3  1  0
  2 10  1  0
  4  3  2  0
  5  4  1  0
  6  5  2  0
  6  1  1  0
  7  9  1  0
  8  7  2  0
  9  1  1  0
  3 11  1  0
  5 12  1  0
  9 13  1  0
 10 14  1  0
 10 15  1  0
 16 17  2  0
 17 18  1  0
 18 19  2  0
 19 20  1  0
 20 21  2  0
 21 22  1  0
 22 23  1  0
 22 24  2  0
 24 25  1  0
 24 26  1  0
 26 27  2  0
 27 16  1  0
 27 20  1  0
 18 28  1  0
 21 29  1  0
 26 30  1  0
  7 16  1  0
M  ISO  4  11  14  12  14  23  16  25  16
M  END
>  <DihAtoms>  (1) 
8,6,15,16

>  <DihDeg>  (1) 
179.75570661599892

$$$$
