
 OpenBabel03252502243D

 37 40  0  0  1  0  0  0  0  0999 V2000
   46.7020   34.4820   42.2700 N   0  0  0  0  0  0  0  0  0  0  0  0
   48.1470   34.2940   42.3050 C   0  0  0  0  0  0  0  0  0  0  0  0
   48.6590   35.0620   41.0900 C   0  0  0  0  0  0  0  0  0  0  0  0
   48.1560   34.4310   39.8260 C   0  0  0  0  0  0  0  0  0  0  0  0
   46.7530   33.9460   39.8850 C   0  0  0  0  0  0  0  0  0  0  0  0
   45.9530   34.4270   41.0450 C   0  0  1  0  0  0  0  0  0  0  0  0
   48.3290   33.2310   42.0940 H   0  0  0  0  0  0  0  0  0  0  0  0
   48.5980   34.6690   43.2190 H   0  0  0  0  0  0  0  0  0  0  0  0
   49.7740   34.8850   41.1090 H   0  0  0  0  0  0  0  0  0  0  0  0
   48.4230   36.1210   41.1990 H   0  0  0  0  0  0  0  0  0  0  0  0
   48.8410   33.6130   39.4740 H   0  0  0  0  0  0  0  0  0  0  0  0
   48.2160   35.2060   39.0240 H   0  0  0  0  0  0  0  0  0  0  0  0
   46.1810   34.1300   38.9490 H   0  0  0  0  0  0  0  0  0  0  0  0
   46.7850   32.8250   39.9660 H   0  0  0  0  0  0  0  0  0  0  0  0
   45.5340   35.4370   40.8020 H   0  0  0  0  0  0  0  0  0  0  0  0
   44.4700   36.0290   44.8430 C   0  0  0  0  0  0  0  0  0  0  0  0
   45.1440   35.8640   43.6290 C   0  0  0  0  0  0  0  0  0  0  0  0
   45.9780   34.7290   43.4730 C   0  0  0  0  0  0  0  0  0  0  0  0
   46.0710   33.8660   44.5200 N   0  0  0  0  0  0  0  0  0  0  0  0
   45.3930   34.0730   45.6810 C   0  0  0  0  0  0  0  0  0  0  0  0
   44.5990   35.1510   45.8320 N   0  0  0  0  0  0  0  0  0  0  0  0
   43.8750   36.9320   44.8180 H   0  0  0  0  0  0  0  0  0  0  0  0
   45.0920   36.5280   42.7810 H   0  0  0  0  0  0  0  0  0  0  0  0
   45.4810   33.3750   46.5030 H   0  0  0  0  0  0  0  0  0  0  0  0
   44.8800   33.5380   41.2280 O   0  0  0  0  0  0  0  0  0  0  0  0
   43.5620   33.8190   40.9730 C   0  0  0  0  0  0  0  0  0  0  0  0
   43.0280   34.8800   40.3470 N   0  0  0  0  0  0  0  0  0  0  0  0
   41.7140   35.0190   40.1710 C   0  0  0  0  0  3  0  0  0  0  0  0
   40.8480   34.0750   40.6240 N   0  0  0  0  0  0  0  0  0  0  0  0
   41.3150   32.9920   41.2570 C   0  0  0  0  0  0  0  0  0  0  0  0
   40.4370   32.0370   41.7180 C   0  0  0  0  0  3  0  0  0  0  0  0
   40.8740   30.9100   42.3710 C   0  0  0  0  0  0  0  0  0  0  0  0
   40.2600   30.1040   42.7680 H   0  0  0  0  0  0  0  0  0  0  0  0
   42.2130   30.7500   42.5610 C   0  0  0  0  0  0  0  0  0  0  0  0
   42.6420   29.8960   43.0640 H   0  0  0  0  0  0  0  0  0  0  0  0
   43.0830   31.7130   42.0960 C   0  0  0  0  0  3  0  0  0  0  0  0
   42.6790   32.8600   41.4340 C   0  0  0  0  0  0  0  0  0  0  0  0
  1  2  1  0  0  0  0
  1 18  1  0  0  0  0
  2  8  1  0  0  0  0
  3  9  1  0  0  0  0
  3 10  1  0  0  0  0
  3  2  1  0  0  0  0
  4  5  1  0  0  0  0
  4  3  1  0  0  0  0
  5 14  1  0  0  0  0
  5  6  1  0  0  0  0
  6 15  1  6  0  0  0
  6 25  1  0  0  0  0
  6  1  1  0  0  0  0
  7  2  1  0  0  0  0
 11  4  1  0  0  0  0
 12  4  1  0  0  0  0
 13  5  1  0  0  0  0
 16 21  1  0  0  0  0
 17 16  2  0  0  0  0
 18 17  1  0  0  0  0
 18 19  2  0  0  0  0
 19 20  1  0  0  0  0
 20 21  2  0  0  0  0
 20 24  1  0  0  0  0
 22 16  1  0  0  0  0
 23 17  1  0  0  0  0
 26 25  1  0  0  0  0
 26 37  1  0  0  0  0
 27 26  2  0  0  0  0
 28 27  1  0  0  0  0
 28 29  2  0  0  0  0
 29 30  1  0  0  0  0
 30 37  2  0  0  0  0
 30 31  1  0  0  0  0
 31 32  2  0  0  0  0
 32 34  1  0  0  0  0
 32 33  1  0  0  0  0
 34 35  1  0  0  0  0
 36 34  2  0  0  0  0
 37 36  1  0  0  0  0
M  END
>  <minimizedAffinity>
-6.24789667

>  <minimizedRMSD>
0.969900131

$$$$
