
 OpenBabel03252507593D

 32 35  0  0  1  0  0  0  0  0999 V2000
   48.0650   29.8520   45.1130 C   0  0  0  0  0  0  0  0  0  0  0  0
   47.1880   29.8970   43.9730 C   0  0  0  0  0  0  0  0  0  0  0  0
   45.8740   30.2920   44.2180 C   0  0  0  0  0  0  0  0  0  0  0  0
   45.5080   30.6030   45.4840 N   0  0  0  0  0  0  0  0  0  0  0  0
   46.3950   30.5380   46.5300 C   0  0  0  0  0  0  0  0  0  0  0  0
   47.6610   30.1720   46.3780 N   0  0  0  0  0  0  0  0  0  0  0  0
   47.5700   29.6350   43.0190 H   0  0  0  0  0  0  0  0  0  0  0  0
   45.1950   30.3370   43.3870 H   0  0  0  0  0  0  0  0  0  0  0  0
   45.9150   30.9000   47.8960 C   0  0  1  0  0  0  0  0  0  0  0  0
   46.6420   31.9880   48.6530 C   0  0  0  0  0  0  0  0  0  0  0  0
   45.3130   32.2450   47.9980 C   0  0  1  0  0  0  0  0  0  0  0  0
   45.4840   30.0770   48.4970 H   0  0  0  0  0  0  0  0  0  0  0  0
   46.6860   31.8470   49.7520 H   0  0  0  0  0  0  0  0  0  0  0  0
   47.5900   32.3000   48.1520 H   0  0  0  0  0  0  0  0  0  0  0  0
   44.4890   32.4370   48.7300 H   0  0  0  0  0  0  0  0  0  0  0  0
   45.4190   33.1710   46.8650 N   0  0  0  0  0  0  0  0  0  0  0  0
   46.3060   33.7310   46.9040 H   0  0  0  0  0  0  0  0  0  0  0  0
   44.6450   33.8780   46.9630 H   0  0  0  0  0  0  0  0  0  0  0  0
   49.4100   29.4110   44.8520 C   0  0  2  0  0  3  0  0  0  0  0  0
   50.2530   29.2370   45.8260 O   0  0  0  0  0  1  0  0  0  0  0  0
   50.1940   29.0640   43.6710 C   0  0  0  0  0  0  0  0  0  0  0  0
   50.4770   27.7720   43.4530 N   0  0  0  0  0  0  0  0  0  0  0  0
   51.2080   27.3460   42.3740 C   0  0  0  0  0  3  0  0  0  0  0  0
   51.6770   28.2070   41.4760 N   0  0  0  0  0  0  0  0  0  0  0  0
   51.4500   29.5450   41.5970 C   0  0  0  0  0  0  0  0  0  0  0  0
   51.9140   30.4680   40.6890 C   0  0  0  0  0  3  0  0  0  0  0  0
   51.6640   31.8160   40.8350 C   0  0  0  0  0  0  0  0  0  0  0  0
   52.0770   32.4350   40.0660 H   0  0  0  0  0  0  0  0  0  0  0  0
   50.9160   32.1950   41.9500 C   0  0  0  0  0  0  0  0  0  0  0  0
   50.7360   33.2530   42.0380 H   0  0  0  0  0  0  0  0  0  0  0  0
   50.4800   31.2330   42.8210 C   0  0  0  0  0  3  0  0  0  0  0  0
   50.7130   29.8890   42.7030 C   0  0  0  0  0  0  0  0  0  0  0  0
  1  6  1  0  0  0  0
  2  3  1  0  0  0  0
  2  1  2  0  0  0  0
  3  4  2  0  0  0  0
  4  5  1  0  0  0  0
  5  9  1  0  0  0  0
  6  5  2  0  0  0  0
  7  2  1  0  0  0  0
  8  3  1  0  0  0  0
  9 11  1  0  0  0  0
  9 12  1  1  0  0  0
  9 10  1  0  0  0  0
 10 13  1  0  0  0  0
 11 10  1  0  0  0  0
 11 15  1  1  0  0  0
 14 10  1  0  0  0  0
 16 17  1  0  0  0  0
 16 18  1  0  0  0  0
 16 11  1  0  0  0  0
 19  1  1  0  0  0  0
 19 20  1  6  0  0  0
 21 19  1  0  0  0  0
 22 21  1  0  0  0  0
 23 22  2  0  0  0  0
 24 25  2  0  0  0  0
 24 23  1  0  0  0  0
 25 32  1  0  0  0  0
 26 27  2  0  0  0  0
 26 25  1  0  0  0  0
 27 29  1  0  0  0  0
 28 27  1  0  0  0  0
 29 30  1  0  0  0  0
 29 31  2  0  0  0  0
 32 31  1  0  0  0  0
 32 21  2  0  0  0  0
M  END
>  <minimizedAffinity>
-3.49302602

>  <minimizedRMSD>
6.09173059

$$$$
