
     RDKit          3D

 30 32  0  0  0  0  0  0  0  0999 V2000
   45.2959   34.5693   45.0247 C   0  0  0  0  0  0  0  0  0  0  0  0
   45.2639   33.9364   46.2754 C   0  0  0  0  0  0  0  0  0  0  0  0
   46.1645   32.9083   46.4768 C   0  0  0  0  0  0  0  0  0  0  0  0
   46.9972   32.5882   45.4778 N   0  0  0  0  0  0  0  0  0  0  0  0
   47.0198   33.2029   44.2784 C   0  0  0  0  0  0  0  0  0  0  0  0
   46.1608   34.2078   44.0411 N   0  0  0  0  0  0  0  0  0  0  0  0
   43.9729   35.3896   43.3197 C   0  0  0  0  0  0  0  0  0  0  0  0
   44.4124   34.2708   42.8300 O   0  0  0  0  0  0  0  0  0  0  0  0
   44.4597   35.6536   44.6124 N   0  0  0  0  0  0  0  0  0  0  0  0
   44.3069   34.4240   47.1927 N   0  0  0  0  0  0  0  0  0  0  0  0
   46.1270   32.4311   47.4457 H   0  0  0  0  0  0  0  0  0  0  0  0
   47.7010   32.9228   43.4951 H   0  0  0  0  0  0  0  0  0  0  0  0
   44.0241   36.5412   44.7744 H   0  0  0  0  0  0  0  0  0  0  0  0
   44.1947   35.3730   47.6248 H   0  0  0  0  0  0  0  0  0  0  0  0
   43.6768   33.6273   47.3899 H   0  0  0  0  0  0  0  0  0  0  0  0
   43.2230   35.6370   42.1267 C   0  0  0  0  0  0  0  0  0  0  0  0
   42.1618   36.3471   42.5474 N   0  0  0  0  0  0  0  0  0  0  0  0
   41.2084   36.7701   41.6649 C   0  0  0  0  0  0  0  0  0  0  0  0
   41.3953   36.4404   40.3895 N   0  0  0  0  0  0  0  0  0  0  0  0
   42.4327   35.7375   39.9270 C   0  0  0  0  0  0  0  0  0  0  0  0
   42.6381   35.3875   38.5976 C   0  0  0  0  0  0  0  0  0  0  0  0
   43.7648   34.6464   38.2260 C   0  0  0  0  0  0  0  0  0  0  0  0
   43.8766   34.3994   37.1709 H   0  0  0  0  0  0  0  0  0  0  0  0
   44.6802   34.2643   39.2141 C   0  0  0  0  0  0  0  0  0  0  0  0
   45.5015   33.6991   38.7964 H   0  0  0  0  0  0  0  0  0  0  0  0
   44.4981   34.5992   40.5373 C   0  0  0  0  0  0  0  0  0  0  0  0
   43.3743   35.3234   40.8206 C   0  0  0  0  0  0  0  0  0  0  0  0
   40.3530   37.3422   42.0020 H   0  0  0  0  0  0  0  0  0  0  0  0
   41.8941   35.7132   37.8823 H   0  0  0  0  0  0  0  0  0  0  0  0
   45.3089   34.2093   41.1096 H   0  0  0  0  0  0  0  0  0  0  0  0
  1  2  2  0
  2  3  1  0
  2 10  1  0
  4  3  2  0
  5  4  1  0
  6  5  2  0
  6  1  1  0
  7  9  1  0
  8  7  2  0
  9  1  1  0
  3 11  1  0
  5 12  1  0
  9 13  1  0
 10 14  1  0
 10 15  1  0
 16 17  2  0
 17 18  1  0
 18 19  2  0
 19 20  1  0
 20 21  2  0
 21 22  1  0
 22 23  1  0
 22 24  2  0
 24 25  1  0
 24 26  1  0
 26 27  2  0
 27 16  1  0
 27 20  1  0
 18 28  1  0
 21 29  1  0
 26 30  1  0
  7 16  1  0
M  ISO  4  11  14  12  14  23  16  25  16
M  END
>  <DihAtoms>  (1) 
8,6,15,16

>  <DihDeg>  (1) 
179.75570661599892

$$$$
