
 OpenBabel03242512033D

 50 54  0  0  1  0  0  0  0  0999 V2000
   37.9850   30.1400   38.5150 C   0  0  2  0  0  0  0  0  0  0  0  0
   38.1270   30.3730   37.0420 C   0  0  0  0  0  0  0  0  0  0  0  0
   36.8320   30.3340   36.3320 C   0  0  0  0  0  0  0  0  0  0  0  0
   36.0580   29.0590   36.5750 C   0  0  0  0  0  0  0  0  0  0  0  0
   36.1500   28.5580   37.9890 C   0  0  0  0  0  0  0  0  0  0  0  0
   36.6740   29.6000   38.9480 C   0  0  1  0  0  0  0  0  0  0  0  0
   38.7790   29.3720   38.7690 H   0  0  0  0  0  0  0  0  0  0  0  0
   38.8140   29.6580   36.5560 H   0  0  0  0  0  0  0  0  0  0  0  0
   38.5640   31.3900   36.9120 H   0  0  0  0  0  0  0  0  0  0  0  0
   36.2400   31.2330   36.5950 H   0  0  0  0  0  0  0  0  0  0  0  0
   37.0410   30.4030   35.2280 H   0  0  0  0  0  0  0  0  0  0  0  0
   35.0000   29.2650   36.3080 H   0  0  0  0  0  0  0  0  0  0  0  0
   36.3760   28.2530   35.8550 H   0  0  0  0  0  0  0  0  0  0  0  0
   36.7650   27.6210   38.0360 H   0  0  0  0  0  0  0  0  0  0  0  0
   35.1420   28.2540   38.3180 H   0  0  0  0  0  0  0  0  0  0  0  0
   35.8530   30.3200   39.0770 H   0  0  0  0  0  0  0  0  0  0  0  0
   38.3470   31.3240   39.3210 C   0  0  0  0  0  0  0  0  0  0  0  0
   37.4370   32.3600   39.2040 C   0  0  0  0  0  0  0  0  0  0  0  0
   37.6440   33.5540   39.9160 C   0  0  0  0  0  0  0  0  0  0  0  0
   38.7970   33.5890   40.7100 N   0  0  0  0  0  0  0  0  0  0  0  0
   39.6530   32.5500   40.7890 C   0  0  0  0  0  0  0  0  0  0  0  0
   39.4120   31.4280   40.0890 N   0  0  0  0  0  0  0  0  0  0  0  0
   36.5230   32.5350   38.6580 H   0  0  0  0  0  0  0  0  0  0  0  0
   37.0780   34.4470   39.9620 H   0  0  0  0  0  0  0  0  0  0  0  0
   40.5110   32.6650   41.4220 H   0  0  0  0  0  0  0  0  0  0  0  0
   36.8650   28.9380   40.2870 C   0  0  2  0  0  0  0  0  0  0  0  0
   35.6330   28.7200   41.1490 C   0  0  0  0  0  0  0  0  0  0  0  0
   36.6470   29.7090   41.5420 C   0  0  1  0  0  0  0  0  0  0  0  0
   37.5360   28.0550   40.2970 H   0  0  0  0  0  0  0  0  0  0  0  0
   34.6510   29.0860   40.8410 H   0  0  0  0  0  0  0  0  0  0  0  0
   35.5700   27.8310   41.8110 H   0  0  0  0  0  0  0  0  0  0  0  0
   36.3940   30.7810   41.4030 H   0  0  0  0  0  0  0  0  0  0  0  0
   37.7110   29.4640   42.5760 C   0  0  0  0  0  0  0  0  0  0  0  0
   37.7150   30.3210   43.3120 H   0  0  0  0  0  0  0  0  0  0  0  0
   38.6920   29.5370   42.0750 H   0  0  0  0  0  0  0  0  0  0  0  0
   37.5040   28.2310   43.3900 C   0  0  0  0  0  0  0  0  0  0  0  0
   36.5150   27.7940   43.1020 H   0  0  0  0  0  0  0  0  0  0  0  0
   37.5050   28.5120   44.4710 H   0  0  0  0  0  0  0  0  0  0  0  0
   38.5320   27.1920   43.2180 C   0  0  0  0  0  0  0  0  0  0  0  0
   39.7940   27.3760   43.6790 N   0  0  0  0  0  0  0  0  0  0  0  0
   40.7550   26.4500   43.5240 C   0  0  0  0  0  3  0  0  0  0  0  0
   40.5740   25.2670   42.9080 N   0  0  0  0  0  0  0  0  0  0  0  0
   39.3420   25.0250   42.4290 C   0  0  0  0  0  0  0  0  0  0  0  0
   39.0080   23.8580   41.7780 C   0  0  0  0  0  3  0  0  0  0  0  0
   37.7610   23.5570   41.2710 C   0  0  0  0  0  0  0  0  0  0  0  0
   37.5800   22.6230   40.7760 H   0  0  0  0  0  0  0  0  0  0  0  0
   36.7730   24.5120   41.4330 C   0  0  0  0  0  0  0  0  0  0  0  0
   35.7860   24.3140   41.0490 H   0  0  0  0  0  0  0  0  0  0  0  0
   37.0890   25.7060   42.0900 C   0  0  0  0  0  3  0  0  0  0  0  0
   38.3480   25.9680   42.5830 C   0  0  0  0  0  0  0  0  0  0  0  0
  1  7  1  1  0  0  0
  1  6  1  0  0  0  0
  1 17  1  0  0  0  0
  2  1  1  0  0  0  0
  3  4  1  0  0  0  0
  3 10  1  0  0  0  0
  3  2  1  0  0  0  0
  4  5  1  0  0  0  0
  5 14  1  0  0  0  0
  5 15  1  0  0  0  0
  5  6  1  0  0  0  0
  6 16  1  1  0  0  0
  6 26  1  0  0  0  0
  8  2  1  0  0  0  0
  9  2  1  0  0  0  0
 11  3  1  0  0  0  0
 12  4  1  0  0  0  0
 13  4  1  0  0  0  0
 17 22  1  0  0  0  0
 18 17  2  0  0  0  0
 18 19  1  0  0  0  0
 19 24  1  0  0  0  0
 19 20  2  0  0  0  0
 20 21  1  0  0  0  0
 21 25  1  0  0  0  0
 22 21  2  0  0  0  0
 23 18  1  0  0  0  0
 26 29  1  1  0  0  0
 26 27  1  0  0  0  0
 26 28  1  0  0  0  0
 27 28  1  0  0  0  0
 27 31  1  0  0  0  0
 28 32  1  6  0  0  0
 28 33  1  0  0  0  0
 30 27  1  0  0  0  0
 33 34  1  0  0  0  0
 33 36  1  0  0  0  0
 35 33  1  0  0  0  0
 36 38  1  0  0  0  0
 37 36  1  0  0  0  0
 39 36  1  0  0  0  0
 39 40  1  0  0  0  0
 41 40  2  0  0  0  0
 42 41  1  0  0  0  0
 43 50  1  0  0  0  0
 43 42  2  0  0  0  0
 44 43  1  0  0  0  0
 45 47  1  0  0  0  0
 45 44  2  0  0  0  0
 46 45  1  0  0  0  0
 47 49  2  0  0  0  0
 48 47  1  0  0  0  0
 49 50  1  0  0  0  0
 50 39  2  0  0  0  0
M  END
>  <minimizedAffinity>
-6.36376238

$$$$

 OpenBabel03242512033D

 50 54  0  0  1  0  0  0  0  0999 V2000
   37.8430   30.0730   38.3920 C   0  0  2  0  0  0  0  0  0  0  0  0
   37.9800   30.3470   36.9260 C   0  0  0  0  0  0  0  0  0  0  0  0
   36.6760   30.4010   36.2320 C   0  0  0  0  0  0  0  0  0  0  0  0
   35.8370   29.1620   36.4450 C   0  0  0  0  0  0  0  0  0  0  0  0
   35.9190   28.6100   37.8390 C   0  0  0  0  0  0  0  0  0  0  0  0
   36.5090   29.5900   38.8250 C   0  0  1  0  0  0  0  0  0  0  0  0
   38.5970   29.2560   38.6090 H   0  0  0  0  0  0  0  0  0  0  0  0
   38.6210   29.6130   36.4070 H   0  0  0  0  0  0  0  0  0  0  0  0
   38.4690   31.3430   36.8230 H   0  0  0  0  0  0  0  0  0  0  0  0
   36.1370   31.3220   36.5330 H   0  0  0  0  0  0  0  0  0  0  0  0
   36.8750   30.4960   35.1280 H   0  0  0  0  0  0  0  0  0  0  0  0
   34.7890   29.4330   36.1980 H   0  0  0  0  0  0  0  0  0  0  0  0
   36.1030   28.3650   35.6940 H   0  0  0  0  0  0  0  0  0  0  0  0
   36.4830   27.6410   37.8470 H   0  0  0  0  0  0  0  0  0  0  0  0
   34.9000   28.3500   38.1720 H   0  0  0  0  0  0  0  0  0  0  0  0
   35.7300   30.3480   38.9880 H   0  0  0  0  0  0  0  0  0  0  0  0
   38.2780   31.2080   39.2310 C   0  0  0  0  0  0  0  0  0  0  0  0
   37.4020   32.2800   39.1930 C   0  0  0  0  0  0  0  0  0  0  0  0
   37.6790   33.4340   39.9450 C   0  0  0  0  0  0  0  0  0  0  0  0
   38.8620   33.3950   40.6940 N   0  0  0  0  0  0  0  0  0  0  0  0
   39.6820   32.3240   40.6960 C   0  0  0  0  0  0  0  0  0  0  0  0
   39.3740   31.2430   39.9600 N   0  0  0  0  0  0  0  0  0  0  0  0
   36.4740   32.5080   38.6920 H   0  0  0  0  0  0  0  0  0  0  0  0
   37.1470   34.3430   40.0500 H   0  0  0  0  0  0  0  0  0  0  0  0
   40.5670   32.3830   41.2980 H   0  0  0  0  0  0  0  0  0  0  0  0
   36.6800   28.8750   40.1390 C   0  0  2  0  0  0  0  0  0  0  0  0
   35.4530   28.7130   41.0200 C   0  0  0  0  0  0  0  0  0  0  0  0
   36.5390   29.6180   41.4210 C   0  0  1  0  0  0  0  0  0  0  0  0
   37.2900   27.9480   40.1080 H   0  0  0  0  0  0  0  0  0  0  0  0
   34.4920   29.1540   40.7440 H   0  0  0  0  0  0  0  0  0  0  0  0
   35.3430   27.8100   41.6560 H   0  0  0  0  0  0  0  0  0  0  0  0
   36.3580   30.7080   41.3200 H   0  0  0  0  0  0  0  0  0  0  0  0
   37.6030   29.2690   42.4240 C   0  0  0  0  0  0  0  0  0  0  0  0
   37.7920   30.1620   43.0890 H   0  0  0  0  0  0  0  0  0  0  0  0
   38.5540   29.1380   41.8770 H   0  0  0  0  0  0  0  0  0  0  0  0
   37.2400   28.1490   43.3420 C   0  0  0  0  0  0  0  0  0  0  0  0
   36.1240   28.0870   43.3780 H   0  0  0  0  0  0  0  0  0  0  0  0
   37.6500   28.3720   44.3570 H   0  0  0  0  0  0  0  0  0  0  0  0
   37.7610   26.8310   42.9510 C   0  0  0  0  0  0  0  0  0  0  0  0
   36.9370   25.8720   42.4580 N   0  0  0  0  0  0  0  0  0  0  0  0
   37.3840   24.6550   42.1070 C   0  0  0  0  0  3  0  0  0  0  0  0
   38.6670   24.2630   42.2020 N   0  0  0  0  0  0  0  0  0  0  0  0
   39.5350   25.1700   42.6830 C   0  0  0  0  0  0  0  0  0  0  0  0
   40.8800   24.9120   42.8340 C   0  0  0  0  0  3  0  0  0  0  0  0
   41.8120   25.8060   43.3180 C   0  0  0  0  0  0  0  0  0  0  0  0
   42.8450   25.5280   43.4060 H   0  0  0  0  0  0  0  0  0  0  0  0
   41.3500   27.0580   43.6790 C   0  0  0  0  0  0  0  0  0  0  0  0
   42.0490   27.7830   44.0630 H   0  0  0  0  0  0  0  0  0  0  0  0
   39.9880   27.3430   43.5350 C   0  0  0  0  0  3  0  0  0  0  0  0
   39.0880   26.4220   43.0470 C   0  0  0  0  0  0  0  0  0  0  0  0
  1  7  1  1  0  0  0
  1  6  1  0  0  0  0
  1 17  1  0  0  0  0
  2  1  1  0  0  0  0
  3  4  1  0  0  0  0
  3 10  1  0  0  0  0
  3  2  1  0  0  0  0
  4  5  1  0  0  0  0
  5 14  1  0  0  0  0
  5 15  1  0  0  0  0
  5  6  1  0  0  0  0
  6 16  1  1  0  0  0
  6 26  1  0  0  0  0
  8  2  1  0  0  0  0
  9  2  1  0  0  0  0
 11  3  1  0  0  0  0
 12  4  1  0  0  0  0
 13  4  1  0  0  0  0
 17 22  1  0  0  0  0
 18 17  2  0  0  0  0
 18 19  1  0  0  0  0
 19 24  1  0  0  0  0
 19 20  2  0  0  0  0
 20 21  1  0  0  0  0
 21 25  1  0  0  0  0
 22 21  2  0  0  0  0
 23 18  1  0  0  0  0
 26 29  1  1  0  0  0
 26 27  1  0  0  0  0
 26 28  1  0  0  0  0
 27 28  1  0  0  0  0
 27 31  1  0  0  0  0
 28 32  1  6  0  0  0
 28 33  1  0  0  0  0
 30 27  1  0  0  0  0
 33 34  1  0  0  0  0
 33 36  1  0  0  0  0
 35 33  1  0  0  0  0
 36 37  1  0  0  0  0
 36 38  1  0  0  0  0
 39 50  1  0  0  0  0
 39 36  1  0  0  0  0
 40 39  2  0  0  0  0
 41 42  2  0  0  0  0
 41 40  1  0  0  0  0
 42 43  1  0  0  0  0
 43 44  2  0  0  0  0
 43 50  1  0  0  0  0
 44 45  1  0  0  0  0
 45 46  1  0  0  0  0
 45 47  2  0  0  0  0
 47 48  1  0  0  0  0
 49 47  1  0  0  0  0
 50 49  2  0  0  0  0
M  END
>  <minimizedAffinity>
-6.20218992

$$$$

 OpenBabel03242512033D

 50 54  0  0  1  0  0  0  0  0999 V2000
   37.6170   26.3730   40.2320 C   0  0  2  0  0  0  0  0  0  0  0  0
   37.0580   25.2140   39.4650 C   0  0  0  0  0  0  0  0  0  0  0  0
   36.4180   24.2090   40.3400 C   0  0  0  0  0  0  0  0  0  0  0  0
   37.3290   23.7060   41.4350 C   0  0  0  0  0  0  0  0  0  0  0  0
   38.1960   24.7760   42.0370 C   0  0  0  0  0  0  0  0  0  0  0  0
   37.7290   26.1710   41.6960 C   0  0  1  0  0  0  0  0  0  0  0  0
   38.6620   26.5210   39.8200 H   0  0  0  0  0  0  0  0  0  0  0  0
   37.8130   24.7030   38.8420 H   0  0  0  0  0  0  0  0  0  0  0  0
   36.2820   25.6200   38.7770 H   0  0  0  0  0  0  0  0  0  0  0  0
   35.4730   24.6230   40.7450 H   0  0  0  0  0  0  0  0  0  0  0  0
   36.1300   23.3280   39.7010 H   0  0  0  0  0  0  0  0  0  0  0  0
   36.6800   23.2520   42.2140 H   0  0  0  0  0  0  0  0  0  0  0  0
   37.9630   22.8510   41.0670 H   0  0  0  0  0  0  0  0  0  0  0  0
   39.2680   24.6260   41.7420 H   0  0  0  0  0  0  0  0  0  0  0  0
   38.1830   24.6600   43.1340 H   0  0  0  0  0  0  0  0  0  0  0  0
   36.8220   26.3310   42.2960 H   0  0  0  0  0  0  0  0  0  0  0  0
   36.9220   27.6440   39.9380 C   0  0  0  0  0  0  0  0  0  0  0  0
   37.4010   28.2750   38.8030 C   0  0  0  0  0  0  0  0  0  0  0  0
   36.8350   29.4940   38.3930 C   0  0  0  0  0  0  0  0  0  0  0  0
   35.7980   29.9780   39.2000 N   0  0  0  0  0  0  0  0  0  0  0  0
   35.3690   29.3230   40.2980 C   0  0  0  0  0  0  0  0  0  0  0  0
   35.9420   28.1600   40.6500 N   0  0  0  0  0  0  0  0  0  0  0  0
   38.1710   28.0830   38.0720 H   0  0  0  0  0  0  0  0  0  0  0  0
   37.0530   30.1230   37.5700 H   0  0  0  0  0  0  0  0  0  0  0  0
   34.5700   29.7690   40.8570 H   0  0  0  0  0  0  0  0  0  0  0  0
   38.7550   27.1400   42.2210 C   0  0  2  0  0  0  0  0  0  0  0  0
   39.1690   27.0110   43.6760 C   0  0  0  0  0  0  0  0  0  0  0  0
   38.3720   28.1630   43.2320 C   0  0  1  0  0  0  0  0  0  0  0  0
   39.6270   27.3240   41.5590 H   0  0  0  0  0  0  0  0  0  0  0  0
   38.6960   26.2840   44.3410 H   0  0  0  0  0  0  0  0  0  0  0  0
   40.2090   27.2550   43.9810 H   0  0  0  0  0  0  0  0  0  0  0  0
   37.2980   28.1760   43.5100 H   0  0  0  0  0  0  0  0  0  0  0  0
   38.9420   29.5230   42.9390 C   0  0  0  0  0  0  0  0  0  0  0  0
   39.7820   29.7360   43.6620 H   0  0  0  0  0  0  0  0  0  0  0  0
   38.1730   30.2740   43.1940 H   0  0  0  0  0  0  0  0  0  0  0  0
   39.5340   29.6600   41.5760 C   0  0  0  0  0  0  0  0  0  0  0  0
   38.7030   29.5720   40.8330 H   0  0  0  0  0  0  0  0  0  0  0  0
   40.2780   28.8410   41.4260 H   0  0  0  0  0  0  0  0  0  0  0  0
   40.2380   30.9280   41.3280 C   0  0  0  0  0  0  0  0  0  0  0  0
   41.5660   31.0490   41.5760 N   0  0  0  0  0  0  0  0  0  0  0  0
   42.2300   32.1990   41.3710 C   0  0  0  0  0  3  0  0  0  0  0  0
   41.6640   33.3290   40.9100 N   0  0  0  0  0  0  0  0  0  0  0  0
   40.3480   33.2720   40.6440 C   0  0  0  0  0  0  0  0  0  0  0  0
   39.6350   34.3480   40.1640 C   0  0  0  0  0  3  0  0  0  0  0  0
   38.2870   34.3440   39.8720 C   0  0  0  0  0  0  0  0  0  0  0  0
   37.8020   35.2260   39.5000 H   0  0  0  0  0  0  0  0  0  0  0  0
   37.6050   33.1600   40.0820 C   0  0  0  0  0  0  0  0  0  0  0  0
   36.5500   33.1170   39.8670 H   0  0  0  0  0  0  0  0  0  0  0  0
   38.3080   32.0530   40.5710 C   0  0  0  0  0  3  0  0  0  0  0  0
   39.6560   32.0980   40.8500 C   0  0  0  0  0  0  0  0  0  0  0  0
  1  7  1  6  0  0  0
  1  6  1  0  0  0  0
  2  1  1  0  0  0  0
  2  3  1  0  0  0  0
  3 10  1  0  0  0  0
  3  4  1  0  0  0  0
  4  5  1  0  0  0  0
  4 12  1  0  0  0  0
  5 15  1  0  0  0  0
  6  5  1  0  0  0  0
  6 26  1  0  0  0  0
  6 16  1  1  0  0  0
  8  2  1  0  0  0  0
  9  2  1  0  0  0  0
 11  3  1  0  0  0  0
 13  4  1  0  0  0  0
 14  5  1  0  0  0  0
 17  1  1  0  0  0  0
 17 22  1  0  0  0  0
 18 17  2  0  0  0  0
 19 18  1  0  0  0  0
 19 20  2  0  0  0  0
 20 21  1  0  0  0  0
 21 22  2  0  0  0  0
 21 25  1  0  0  0  0
 23 18  1  0  0  0  0
 24 19  1  0  0  0  0
 26 29  1  6  0  0  0
 26 28  1  0  0  0  0
 26 27  1  0  0  0  0
 27 31  1  0  0  0  0
 27 30  1  0  0  0  0
 28 32  1  1  0  0  0
 28 27  1  0  0  0  0
 33 35  1  0  0  0  0
 33 28  1  0  0  0  0
 33 34  1  0  0  0  0
 36 33  1  0  0  0  0
 37 36  1  0  0  0  0
 38 36  1  0  0  0  0
 39 36  1  0  0  0  0
 39 40  1  0  0  0  0
 41 40  2  0  0  0  0
 42 41  1  0  0  0  0
 43 50  1  0  0  0  0
 43 42  2  0  0  0  0
 44 43  1  0  0  0  0
 45 47  1  0  0  0  0
 45 44  2  0  0  0  0
 46 45  1  0  0  0  0
 47 49  2  0  0  0  0
 48 47  1  0  0  0  0
 49 50  1  0  0  0  0
 50 39  2  0  0  0  0
M  END
>  <minimizedAffinity>
-6.10314608

$$$$

 OpenBabel03242512033D

 50 54  0  0  1  0  0  0  0  0999 V2000
   37.8490   31.3730   39.5830 C   0  0  2  0  0  0  0  0  0  0  0  0
   37.9710   32.0940   38.2750 C   0  0  0  0  0  0  0  0  0  0  0  0
   39.3570   32.1120   37.7630 C   0  0  0  0  0  0  0  0  0  0  0  0
   40.3500   32.6770   38.7530 C   0  0  0  0  0  0  0  0  0  0  0  0
   40.0830   32.2680   40.1740 C   0  0  0  0  0  0  0  0  0  0  0  0
   39.1290   31.1030   40.2810 C   0  0  1  0  0  0  0  0  0  0  0  0
   37.2320   32.0600   40.2400 H   0  0  0  0  0  0  0  0  0  0  0  0
   37.6010   33.1330   38.3180 H   0  0  0  0  0  0  0  0  0  0  0  0
   37.3370   31.5470   37.5390 H   0  0  0  0  0  0  0  0  0  0  0  0
   39.6410   31.0940   37.4300 H   0  0  0  0  0  0  0  0  0  0  0  0
   39.3790   32.7640   36.8460 H   0  0  0  0  0  0  0  0  0  0  0  0
   41.3570   32.3340   38.4350 H   0  0  0  0  0  0  0  0  0  0  0  0
   40.4000   33.8000   38.6740 H   0  0  0  0  0  0  0  0  0  0  0  0
   39.7210   33.1430   40.7750 H   0  0  0  0  0  0  0  0  0  0  0  0
   41.0410   31.9800   40.6390 H   0  0  0  0  0  0  0  0  0  0  0  0
   39.7010   30.2230   39.9560 H   0  0  0  0  0  0  0  0  0  0  0  0
   37.0440   30.1380   39.4850 C   0  0  0  0  0  0  0  0  0  0  0  0
   35.8320   30.2250   40.1470 C   0  0  0  0  0  0  0  0  0  0  0  0
   34.9530   29.1280   40.1390 C   0  0  0  0  0  0  0  0  0  0  0  0
   35.4010   28.0030   39.4350 N   0  0  0  0  0  0  0  0  0  0  0  0
   36.5930   27.9700   38.8060 C   0  0  0  0  0  0  0  0  0  0  0  0
   37.3990   29.0450   38.8420 N   0  0  0  0  0  0  0  0  0  0  0  0
   35.3180   30.9690   40.7360 H   0  0  0  0  0  0  0  0  0  0  0  0
   33.9980   28.9960   40.5760 H   0  0  0  0  0  0  0  0  0  0  0  0
   36.8540   27.0660   38.2930 H   0  0  0  0  0  0  0  0  0  0  0  0
   38.8240   30.8900   41.7400 C   0  0  2  0  0  0  0  0  0  0  0  0
   39.9990   30.7520   42.6940 C   0  0  0  0  0  0  0  0  0  0  0  0
   39.1500   29.5920   42.3920 C   0  0  1  0  0  0  0  0  0  0  0  0
   38.0230   31.5300   42.1640 H   0  0  0  0  0  0  0  0  0  0  0  0
   41.0290   30.7440   42.3300 H   0  0  0  0  0  0  0  0  0  0  0  0
   39.9160   31.1310   43.7340 H   0  0  0  0  0  0  0  0  0  0  0  0
   39.5690   28.8150   41.7190 H   0  0  0  0  0  0  0  0  0  0  0  0
   38.0520   29.0920   43.2880 C   0  0  0  0  0  0  0  0  0  0  0  0
   37.2320   29.8670   43.3380 H   0  0  0  0  0  0  0  0  0  0  0  0
   38.4460   29.0540   44.3190 H   0  0  0  0  0  0  0  0  0  0  0  0
   37.3950   27.8370   42.8150 C   0  0  0  0  0  0  0  0  0  0  0  0
   37.0700   28.0010   41.7570 H   0  0  0  0  0  0  0  0  0  0  0  0
   36.5100   27.6300   43.4650 H   0  0  0  0  0  0  0  0  0  0  0  0
   38.2450   26.6370   42.8530 C   0  0  0  0  0  0  0  0  0  0  0  0
   39.3550   26.5920   43.6320 N   0  0  0  0  0  0  0  0  0  0  0  0
   40.1550   25.5140   43.6750 C   0  0  0  0  0  3  0  0  0  0  0  0
   39.9490   24.3890   42.9670 N   0  0  0  0  0  0  0  0  0  0  0  0
   38.8620   24.3710   42.1750 C   0  0  0  0  0  0  0  0  0  0  0  0
   38.5220   23.2880   41.3960 C   0  0  0  0  0  3  0  0  0  0  0  0
   37.4200   23.2160   40.5700 C   0  0  0  0  0  0  0  0  0  0  0  0
   37.2220   22.3330   39.9930 H   0  0  0  0  0  0  0  0  0  0  0  0
   36.5960   24.3260   40.5280 C   0  0  0  0  0  0  0  0  0  0  0  0
   35.7260   24.3080   39.8940 H   0  0  0  0  0  0  0  0  0  0  0  0
   36.9220   25.4390   41.3110 C   0  0  0  0  0  3  0  0  0  0  0  0
   38.0340   25.4710   42.1230 C   0  0  0  0  0  0  0  0  0  0  0  0
  1  7  1  1  0  0  0
  1  6  1  0  0  0  0
  2  8  1  0  0  0  0
  2  1  1  0  0  0  0
  3  2  1  0  0  0  0
  3  4  1  0  0  0  0
  4  5  1  0  0  0  0
  5  6  1  0  0  0  0
  5 15  1  0  0  0  0
  5 14  1  0  0  0  0
  6 16  1  6  0  0  0
  6 26  1  0  0  0  0
  9  2  1  0  0  0  0
 10  3  1  0  0  0  0
 11  3  1  0  0  0  0
 12  4  1  0  0  0  0
 13  4  1  0  0  0  0
 17  1  1  0  0  0  0
 17 18  1  0  0  0  0
 18 23  1  0  0  0  0
 19 18  2  0  0  0  0
 19 24  1  0  0  0  0
 20 19  1  0  0  0  0
 21 22  1  0  0  0  0
 21 20  2  0  0  0  0
 22 17  2  0  0  0  0
 25 21  1  0  0  0  0
 26 29  1  1  0  0  0
 26 28  1  0  0  0  0
 26 27  1  0  0  0  0
 27 31  1  0  0  0  0
 28 32  1  6  0  0  0
 28 27  1  0  0  0  0
 28 33  1  0  0  0  0
 30 27  1  0  0  0  0
 33 34  1  0  0  0  0
 33 35  1  0  0  0  0
 36 39  1  0  0  0  0
 36 33  1  0  0  0  0
 36 38  1  0  0  0  0
 37 36  1  0  0  0  0
 39 40  1  0  0  0  0
 40 41  2  0  0  0  0
 42 41  1  0  0  0  0
 43 42  2  0  0  0  0
 44 43  1  0  0  0  0
 45 44  2  0  0  0  0
 46 45  1  0  0  0  0
 47 45  1  0  0  0  0
 47 49  2  0  0  0  0
 48 47  1  0  0  0  0
 49 50  1  0  0  0  0
 50 43  1  0  0  0  0
 50 39  2  0  0  0  0
M  END
>  <minimizedAffinity>
-6.08911657

$$$$

 OpenBabel03242512033D

 50 54  0  0  1  0  0  0  0  0999 V2000
   37.6100   26.4270   40.2100 C   0  0  2  0  0  0  0  0  0  0  0  0
   37.1510   25.2010   39.4810 C   0  0  0  0  0  0  0  0  0  0  0  0
   36.4750   24.2310   40.3680 C   0  0  0  0  0  0  0  0  0  0  0  0
   37.3130   23.8320   41.5610 C   0  0  0  0  0  0  0  0  0  0  0  0
   38.0950   24.9690   42.1550 C   0  0  0  0  0  0  0  0  0  0  0  0
   37.6120   26.3210   41.6890 C   0  0  1  0  0  0  0  0  0  0  0  0
   38.6790   26.5860   39.8710 H   0  0  0  0  0  0  0  0  0  0  0  0
   37.9690   24.6800   38.9530 H   0  0  0  0  0  0  0  0  0  0  0  0
   36.4190   25.5340   38.7090 H   0  0  0  0  0  0  0  0  0  0  0  0
   35.4890   24.6340   40.6710 H   0  0  0  0  0  0  0  0  0  0  0  0
   36.2670   23.3010   39.7690 H   0  0  0  0  0  0  0  0  0  0  0  0
   36.6190   23.4050   42.3160 H   0  0  0  0  0  0  0  0  0  0  0  0
   38.0010   22.9800   41.3000 H   0  0  0  0  0  0  0  0  0  0  0  0
   39.1910   24.8400   41.9550 H   0  0  0  0  0  0  0  0  0  0  0  0
   37.9980   24.9220   43.2540 H   0  0  0  0  0  0  0  0  0  0  0  0
   36.6560   26.4860   42.2050 H   0  0  0  0  0  0  0  0  0  0  0  0
   36.9010   27.6490   39.7810 C   0  0  0  0  0  0  0  0  0  0  0  0
   37.4610   28.2380   38.6600 C   0  0  0  0  0  0  0  0  0  0  0  0
   36.8920   29.4080   38.1290 C   0  0  0  0  0  0  0  0  0  0  0  0
   35.7670   29.8920   38.8080 N   0  0  0  0  0  0  0  0  0  0  0  0
   35.2610   29.2800   39.8980 C   0  0  0  0  0  0  0  0  0  0  0  0
   35.8390   28.1620   40.3680 N   0  0  0  0  0  0  0  0  0  0  0  0
   38.3020   28.0380   38.0150 H   0  0  0  0  0  0  0  0  0  0  0  0
   37.1640   30.0000   37.2950 H   0  0  0  0  0  0  0  0  0  0  0  0
   34.3970   29.7220   40.3540 H   0  0  0  0  0  0  0  0  0  0  0  0
   38.5620   27.3590   42.2260 C   0  0  2  0  0  0  0  0  0  0  0  0
   38.9870   27.2430   43.6790 C   0  0  0  0  0  0  0  0  0  0  0  0
   38.1040   28.3360   43.2510 C   0  0  1  0  0  0  0  0  0  0  0  0
   39.4170   27.6180   41.5660 H   0  0  0  0  0  0  0  0  0  0  0  0
   38.5720   26.4730   44.3340 H   0  0  0  0  0  0  0  0  0  0  0  0
   40.0050   27.5620   43.9870 H   0  0  0  0  0  0  0  0  0  0  0  0
   37.0320   28.2640   43.5300 H   0  0  0  0  0  0  0  0  0  0  0  0
   38.5670   29.7390   42.9760 C   0  0  0  0  0  0  0  0  0  0  0  0
   39.4120   29.9950   43.6810 H   0  0  0  0  0  0  0  0  0  0  0  0
   37.7560   30.4280   43.2700 H   0  0  0  0  0  0  0  0  0  0  0  0
   39.1090   29.9490   41.6010 C   0  0  0  0  0  0  0  0  0  0  0  0
   38.5610   29.2600   40.9100 H   0  0  0  0  0  0  0  0  0  0  0  0
   40.2000   29.7080   41.6060 H   0  0  0  0  0  0  0  0  0  0  0  0
   38.9750   31.3190   41.0820 C   0  0  0  0  0  0  0  0  0  0  0  0
   37.7700   31.8040   40.6920 N   0  0  0  0  0  0  0  0  0  0  0  0
   37.6230   33.0460   40.2020 C   0  0  0  0  0  3  0  0  0  0  0  0
   38.6310   33.9240   40.0480 N   0  0  0  0  0  0  0  0  0  0  0  0
   39.8520   33.5020   40.4170 C   0  0  0  0  0  0  0  0  0  0  0  0
   40.9770   34.2910   40.3190 C   0  0  0  0  0  3  0  0  0  0  0  0
   42.2510   33.9100   40.6860 C   0  0  0  0  0  0  0  0  0  0  0  0
   43.0780   34.5850   40.5790 H   0  0  0  0  0  0  0  0  0  0  0  0
   42.4010   32.6310   41.1910 C   0  0  0  0  0  0  0  0  0  0  0  0
   43.3800   32.2970   41.4880 H   0  0  0  0  0  0  0  0  0  0  0  0
   41.2720   31.8110   41.2990 C   0  0  0  0  0  3  0  0  0  0  0  0
   40.0150   32.2300   40.9210 C   0  0  0  0  0  0  0  0  0  0  0  0
  1  7  1  6  0  0  0
  1  6  1  0  0  0  0
  2  1  1  0  0  0  0
  2  3  1  0  0  0  0
  3 10  1  0  0  0  0
  3  4  1  0  0  0  0
  4  5  1  0  0  0  0
  4 12  1  0  0  0  0
  5 15  1  0  0  0  0
  6  5  1  0  0  0  0
  6 16  1  1  0  0  0
  6 26  1  0  0  0  0
  8  2  1  0  0  0  0
  9  2  1  0  0  0  0
 11  3  1  0  0  0  0
 13  4  1  0  0  0  0
 14  5  1  0  0  0  0
 17  1  1  0  0  0  0
 17 22  1  0  0  0  0
 18 17  2  0  0  0  0
 19 18  1  0  0  0  0
 19 20  2  0  0  0  0
 20 21  1  0  0  0  0
 21 25  1  0  0  0  0
 21 22  2  0  0  0  0
 23 18  1  0  0  0  0
 24 19  1  0  0  0  0
 26 29  1  6  0  0  0
 26 28  1  0  0  0  0
 26 27  1  0  0  0  0
 27 31  1  0  0  0  0
 27 30  1  0  0  0  0
 28 32  1  1  0  0  0
 28 27  1  0  0  0  0
 33 28  1  0  0  0  0
 33 35  1  0  0  0  0
 33 34  1  0  0  0  0
 36 38  1  0  0  0  0
 36 33  1  0  0  0  0
 37 36  1  0  0  0  0
 39 36  1  0  0  0  0
 40 39  2  0  0  0  0
 41 40  1  0  0  0  0
 42 41  2  0  0  0  0
 42 43  1  0  0  0  0
 43 50  1  0  0  0  0
 44 43  2  0  0  0  0
 44 45  1  0  0  0  0
 45 47  2  0  0  0  0
 46 45  1  0  0  0  0
 47 49  1  0  0  0  0
 47 48  1  0  0  0  0
 50 39  1  0  0  0  0
 50 49  2  0  0  0  0
M  END
>  <minimizedAffinity>
-6.05513191

$$$$

 OpenBabel03242512033D

 50 54  0  0  1  0  0  0  0  0999 V2000
   40.2570   25.9760   40.1130 C   0  0  2  0  0  0  0  0  0  0  0  0
   41.0220   25.3710   38.9750 C   0  0  0  0  0  0  0  0  0  0  0  0
   42.2210   24.6330   39.4240 C   0  0  0  0  0  0  0  0  0  0  0  0
   43.1480   25.4660   40.2780 C   0  0  0  0  0  0  0  0  0  0  0  0
   42.4320   26.3780   41.2330 C   0  0  0  0  0  0  0  0  0  0  0  0
   40.9760   26.0180   41.4090 C   0  0  1  0  0  0  0  0  0  0  0  0
   40.0520   27.0430   39.7930 H   0  0  0  0  0  0  0  0  0  0  0  0
   41.3330   26.1140   38.2200 H   0  0  0  0  0  0  0  0  0  0  0  0
   40.3400   24.6500   38.4680 H   0  0  0  0  0  0  0  0  0  0  0  0
   41.9090   23.7030   39.9400 H   0  0  0  0  0  0  0  0  0  0  0  0
   42.7930   24.3120   38.5090 H   0  0  0  0  0  0  0  0  0  0  0  0
   43.7990   24.7600   40.8350 H   0  0  0  0  0  0  0  0  0  0  0  0
   43.8610   26.0560   39.6370 H   0  0  0  0  0  0  0  0  0  0  0  0
   42.5480   27.4490   40.9170 H   0  0  0  0  0  0  0  0  0  0  0  0
   42.9290   26.3160   42.2160 H   0  0  0  0  0  0  0  0  0  0  0  0
   40.9710   25.1020   42.0150 H   0  0  0  0  0  0  0  0  0  0  0  0
   38.9170   25.3790   40.2850 C   0  0  0  0  0  0  0  0  0  0  0  0
   38.9550   24.1090   40.8350 C   0  0  0  0  0  0  0  0  0  0  0  0
   37.7560   23.4130   41.0640 C   0  0  0  0  0  0  0  0  0  0  0  0
   36.5860   24.0920   40.7000 N   0  0  0  0  0  0  0  0  0  0  0  0
   36.6050   25.3300   40.1670 C   0  0  0  0  0  0  0  0  0  0  0  0
   37.7770   25.9560   39.9680 N   0  0  0  0  0  0  0  0  0  0  0  0
   39.7230   23.4260   41.1650 H   0  0  0  0  0  0  0  0  0  0  0  0
   37.5730   22.4520   41.4670 H   0  0  0  0  0  0  0  0  0  0  0  0
   35.6610   25.7730   39.9180 H   0  0  0  0  0  0  0  0  0  0  0  0
   40.3370   27.0860   42.2580 C   0  0  2  0  0  0  0  0  0  0  0  0
   40.8470   27.2570   43.6780 C   0  0  0  0  0  0  0  0  0  0  0  0
   39.5060   26.7100   43.4340 C   0  0  1  0  0  0  0  0  0  0  0  0
   40.1710   28.0630   41.7590 H   0  0  0  0  0  0  0  0  0  0  0  0
   41.6060   26.5910   44.0950 H   0  0  0  0  0  0  0  0  0  0  0  0
   40.8600   28.2650   44.1450 H   0  0  0  0  0  0  0  0  0  0  0  0
   39.3640   25.6200   43.5860 H   0  0  0  0  0  0  0  0  0  0  0  0
   38.2350   27.5080   43.5360 C   0  0  0  0  0  0  0  0  0  0  0  0
   37.9030   27.5380   44.6150 H   0  0  0  0  0  0  0  0  0  0  0  0
   37.4370   26.9400   43.0260 H   0  0  0  0  0  0  0  0  0  0  0  0
   38.3690   28.9330   43.1120 C   0  0  0  0  0  0  0  0  0  0  0  0
   39.4140   29.0810   42.7400 H   0  0  0  0  0  0  0  0  0  0  0  0
   38.1750   29.5880   43.9960 H   0  0  0  0  0  0  0  0  0  0  0  0
   37.4410   29.3570   42.0530 C   0  0  0  0  0  0  0  0  0  0  0  0
   36.3500   28.6140   41.7420 N   0  0  0  0  0  0  0  0  0  0  0  0
   35.4940   28.9720   40.7710 C   0  0  0  0  0  3  0  0  0  0  0  0
   35.6220   30.0800   40.0180 N   0  0  0  0  0  0  0  0  0  0  0  0
   36.6840   30.8600   40.2800 C   0  0  0  0  0  0  0  0  0  0  0  0
   36.9430   32.0260   39.5940 C   0  0  0  0  0  3  0  0  0  0  0  0
   38.0140   32.8640   39.8230 C   0  0  0  0  0  0  0  0  0  0  0  0
   38.1470   33.7570   39.2440 H   0  0  0  0  0  0  0  0  0  0  0  0
   38.8940   32.4950   40.8240 C   0  0  0  0  0  0  0  0  0  0  0  0
   39.7440   33.1230   41.0320 H   0  0  0  0  0  0  0  0  0  0  0  0
   38.6520   31.3140   41.5340 C   0  0  0  0  0  3  0  0  0  0  0  0
   37.5690   30.5030   41.2740 C   0  0  0  0  0  0  0  0  0  0  0  0
  1  7  1  6  0  0  0
  1 17  1  0  0  0  0
  1  6  1  0  0  0  0
  2  3  1  0  0  0  0
  2  1  1  0  0  0  0
  3 10  1  0  0  0  0
  3  4  1  0  0  0  0
  4 12  1  0  0  0  0
  4  5  1  0  0  0  0
  5  6  1  0  0  0  0
  5 15  1  0  0  0  0
  6 16  1  1  0  0  0
  6 26  1  0  0  0  0
  8  2  1  0  0  0  0
  9  2  1  0  0  0  0
 11  3  1  0  0  0  0
 13  4  1  0  0  0  0
 14  5  1  0  0  0  0
 17 18  1  0  0  0  0
 18 19  2  0  0  0  0
 18 23  1  0  0  0  0
 19 24  1  0  0  0  0
 20 19  1  0  0  0  0
 21 20  2  0  0  0  0
 22 21  1  0  0  0  0
 22 17  2  0  0  0  0
 25 21  1  0  0  0  0
 26 29  1  6  0  0  0
 26 28  1  0  0  0  0
 26 27  1  0  0  0  0
 27 30  1  0  0  0  0
 27 31  1  0  0  0  0
 28 33  1  0  0  0  0
 28 32  1  1  0  0  0
 28 27  1  0  0  0  0
 33 34  1  0  0  0  0
 35 33  1  0  0  0  0
 36 33  1  0  0  0  0
 36 38  1  0  0  0  0
 37 36  1  0  0  0  0
 39 36  1  0  0  0  0
 40 39  1  0  0  0  0
 41 40  2  0  0  0  0
 42 43  2  0  0  0  0
 42 41  1  0  0  0  0
 43 50  1  0  0  0  0
 44 45  2  0  0  0  0
 44 43  1  0  0  0  0
 45 47  1  0  0  0  0
 46 45  1  0  0  0  0
 47 48  1  0  0  0  0
 47 49  2  0  0  0  0
 50 49  1  0  0  0  0
 50 39  2  0  0  0  0
M  END
>  <minimizedAffinity>
-5.69658089

$$$$

 OpenBabel03242512033D

 50 54  0  0  1  0  0  0  0  0999 V2000
   36.1420   29.1940   37.5860 C   0  0  2  0  0  0  0  0  0  0  0  0
   34.7180   29.2800   37.1270 C   0  0  0  0  0  0  0  0  0  0  0  0
   33.8890   28.1650   37.6310 C   0  0  0  0  0  0  0  0  0  0  0  0
   34.4540   26.8040   37.2940 C   0  0  0  0  0  0  0  0  0  0  0  0
   35.9510   26.7290   37.3990 C   0  0  0  0  0  0  0  0  0  0  0  0
   36.5440   27.8890   38.1630 C   0  0  1  0  0  0  0  0  0  0  0  0
   36.7610   29.3690   36.6540 H   0  0  0  0  0  0  0  0  0  0  0  0
   34.6200   29.3190   36.0280 H   0  0  0  0  0  0  0  0  0  0  0  0
   34.3010   30.2320   37.5300 H   0  0  0  0  0  0  0  0  0  0  0  0
   33.7300   28.2870   38.7210 H   0  0  0  0  0  0  0  0  0  0  0  0
   32.8740   28.2430   37.1510 H   0  0  0  0  0  0  0  0  0  0  0  0
   33.9820   26.0760   37.9870 H   0  0  0  0  0  0  0  0  0  0  0  0
   34.1190   26.4740   36.2710 H   0  0  0  0  0  0  0  0  0  0  0  0
   36.4140   26.6370   36.3820 H   0  0  0  0  0  0  0  0  0  0  0  0
   36.2180   25.7940   37.9200 H   0  0  0  0  0  0  0  0  0  0  0  0
   36.2910   27.7070   39.2170 H   0  0  0  0  0  0  0  0  0  0  0  0
   36.5200   30.2980   38.4920 C   0  0  0  0  0  0  0  0  0  0  0  0
   36.0830   30.1080   39.7920 C   0  0  0  0  0  0  0  0  0  0  0  0
   36.3710   31.0730   40.7720 C   0  0  0  0  0  0  0  0  0  0  0  0
   37.1020   32.1820   40.3280 N   0  0  0  0  0  0  0  0  0  0  0  0
   37.5040   32.3180   39.0490 C   0  0  0  0  0  0  0  0  0  0  0  0
   37.2050   31.3680   38.1470 N   0  0  0  0  0  0  0  0  0  0  0  0
   35.5170   29.3560   40.3210 H   0  0  0  0  0  0  0  0  0  0  0  0
   36.1310   31.1150   41.8020 H   0  0  0  0  0  0  0  0  0  0  0  0
   38.0590   33.2010   38.7990 H   0  0  0  0  0  0  0  0  0  0  0  0
   38.0440   27.7830   38.0680 C   0  0  2  0  0  0  0  0  0  0  0  0
   38.6660   27.7960   36.6820 C   0  0  0  0  0  0  0  0  0  0  0  0
   38.6740   26.5660   37.4860 C   0  0  1  0  0  0  0  0  0  0  0  0
   38.6180   28.4090   38.7820 H   0  0  0  0  0  0  0  0  0  0  0  0
   38.0480   27.8160   35.7810 H   0  0  0  0  0  0  0  0  0  0  0  0
   39.6640   28.2560   36.5260 H   0  0  0  0  0  0  0  0  0  0  0  0
   37.9690   25.7610   37.1930 H   0  0  0  0  0  0  0  0  0  0  0  0
   39.8570   26.0810   38.2770 C   0  0  0  0  0  0  0  0  0  0  0  0
   40.8050   26.4540   37.7910 H   0  0  0  0  0  0  0  0  0  0  0  0
   39.9120   24.9840   38.1640 H   0  0  0  0  0  0  0  0  0  0  0  0
   39.9000   26.5770   39.6840 C   0  0  0  0  0  0  0  0  0  0  0  0
   39.7750   27.6880   39.6580 H   0  0  0  0  0  0  0  0  0  0  0  0
   40.8900   26.3080   40.1270 H   0  0  0  0  0  0  0  0  0  0  0  0
   38.8690   26.0200   40.5730 C   0  0  0  0  0  0  0  0  0  0  0  0
   38.4210   24.7490   40.4140 N   0  0  0  0  0  0  0  0  0  0  0  0
   37.4710   24.2210   41.2020 C   0  0  0  0  0  3  0  0  0  0  0  0
   36.8720   24.8790   42.2120 N   0  0  0  0  0  0  0  0  0  0  0  0
   37.2740   26.1450   42.4210 C   0  0  0  0  0  0  0  0  0  0  0  0
   36.7530   26.9390   43.4190 C   0  0  0  0  0  3  0  0  0  0  0  0
   37.1310   28.2400   43.6790 C   0  0  0  0  0  0  0  0  0  0  0  0
   36.6770   28.7940   44.4780 H   0  0  0  0  0  0  0  0  0  0  0  0
   38.1100   28.7820   42.8670 C   0  0  0  0  0  0  0  0  0  0  0  0
   38.4310   29.7960   43.0390 H   0  0  0  0  0  0  0  0  0  0  0  0
   38.6530   27.9940   41.8460 C   0  0  0  0  0  3  0  0  0  0  0  0
   38.2480   26.6970   41.6180 C   0  0  0  0  0  0  0  0  0  0  0  0
  1  7  1  6  0  0  0
  1  6  1  0  0  0  0
  1 17  1  0  0  0  0
  2  9  1  0  0  0  0
  2  1  1  0  0  0  0
  2  3  1  0  0  0  0
  3 10  1  0  0  0  0
  4  5  1  0  0  0  0
  4  3  1  0  0  0  0
  4 12  1  0  0  0  0
  5 15  1  0  0  0  0
  5  6  1  0  0  0  0
  6 16  1  1  0  0  0
  8  2  1  0  0  0  0
 11  3  1  0  0  0  0
 13  4  1  0  0  0  0
 14  5  1  0  0  0  0
 17 18  1  0  0  0  0
 18 23  1  0  0  0  0
 18 19  2  0  0  0  0
 19 24  1  0  0  0  0
 20 19  1  0  0  0  0
 21 20  2  0  0  0  0
 22 17  2  0  0  0  0
 22 21  1  0  0  0  0
 25 21  1  0  0  0  0
 26  6  1  0  0  0  0
 26 29  1  1  0  0  0
 27 28  1  0  0  0  0
 27 26  1  0  0  0  0
 28 32  1  6  0  0  0
 28 26  1  0  0  0  0
 28 33  1  0  0  0  0
 30 27  1  0  0  0  0
 31 27  1  0  0  0  0
 33 36  1  0  0  0  0
 34 33  1  0  0  0  0
 35 33  1  0  0  0  0
 36 38  1  0  0  0  0
 36 39  1  0  0  0  0
 37 36  1  0  0  0  0
 39 50  1  0  0  0  0
 40 39  2  0  0  0  0
 40 41  1  0  0  0  0
 41 42  2  0  0  0  0
 42 43  1  0  0  0  0
 43 44  1  0  0  0  0
 44 45  2  0  0  0  0
 45 46  1  0  0  0  0
 47 48  1  0  0  0  0
 47 45  1  0  0  0  0
 49 47  2  0  0  0  0
 50 49  1  0  0  0  0
 50 43  2  0  0  0  0
M  END
>  <minimizedAffinity>
-5.67873526

$$$$

 OpenBabel03242512033D

 50 54  0  0  1  0  0  0  0  0999 V2000
   37.6200   25.0080   38.9260 C   0  0  2  0  0  0  0  0  0  0  0  0
   37.9040   23.7040   38.2450 C   0  0  0  0  0  0  0  0  0  0  0  0
   37.2760   22.5550   38.9310 C   0  0  0  0  0  0  0  0  0  0  0  0
   37.6470   22.4600   40.3930 C   0  0  0  0  0  0  0  0  0  0  0  0
   37.7230   23.7920   41.0830 C   0  0  0  0  0  0  0  0  0  0  0  0
   37.0650   24.9000   40.2960 C   0  0  1  0  0  0  0  0  0  0  0  0
   38.6250   25.5260   38.9960 H   0  0  0  0  0  0  0  0  0  0  0  0
   38.9830   23.4980   38.1370 H   0  0  0  0  0  0  0  0  0  0  0  0
   37.4770   23.7700   37.2180 H   0  0  0  0  0  0  0  0  0  0  0  0
   36.1780   22.5940   38.7840 H   0  0  0  0  0  0  0  0  0  0  0  0
   37.6310   21.6140   38.4250 H   0  0  0  0  0  0  0  0  0  0  0  0
   36.8840   21.8160   40.8800 H   0  0  0  0  0  0  0  0  0  0  0  0
   38.6130   21.8970   40.5250 H   0  0  0  0  0  0  0  0  0  0  0  0
   38.7860   24.0480   41.3300 H   0  0  0  0  0  0  0  0  0  0  0  0
   37.2160   23.7080   42.0600 H   0  0  0  0  0  0  0  0  0  0  0  0
   35.9840   24.7240   40.3870 H   0  0  0  0  0  0  0  0  0  0  0  0
   36.7930   25.9160   38.1040 C   0  0  0  0  0  0  0  0  0  0  0  0
   35.4830   25.4880   37.9720 C   0  0  0  0  0  0  0  0  0  0  0  0
   34.5740   26.2520   37.2210 C   0  0  0  0  0  0  0  0  0  0  0  0
   35.0940   27.4210   36.6520 N   0  0  0  0  0  0  0  0  0  0  0  0
   36.3800   27.7930   36.8120 C   0  0  0  0  0  0  0  0  0  0  0  0
   37.2130   27.0290   37.5400 N   0  0  0  0  0  0  0  0  0  0  0  0
   34.9030   24.6430   38.3090 H   0  0  0  0  0  0  0  0  0  0  0  0
   33.5490   26.1010   37.0030 H   0  0  0  0  0  0  0  0  0  0  0  0
   36.6920   28.7030   36.3390 H   0  0  0  0  0  0  0  0  0  0  0  0
   37.3400   26.1970   41.0100 C   0  0  2  0  0  0  0  0  0  0  0  0
   38.6460   26.3190   41.7750 C   0  0  0  0  0  0  0  0  0  0  0  0
   37.3700   26.2420   42.4980 C   0  0  1  0  0  0  0  0  0  0  0  0
   37.1090   27.1200   40.4390 H   0  0  0  0  0  0  0  0  0  0  0  0
   39.3370   25.4770   41.8600 H   0  0  0  0  0  0  0  0  0  0  0  0
   39.1600   27.3020   41.8420 H   0  0  0  0  0  0  0  0  0  0  0  0
   37.1290   25.2850   43.0060 H   0  0  0  0  0  0  0  0  0  0  0  0
   36.6460   27.4310   43.0660 C   0  0  0  0  0  0  0  0  0  0  0  0
   36.1620   27.1370   44.0430 H   0  0  0  0  0  0  0  0  0  0  0  0
   35.7930   27.6570   42.4020 H   0  0  0  0  0  0  0  0  0  0  0  0
   37.5280   28.5930   43.3830 C   0  0  0  0  0  0  0  0  0  0  0  0
   38.5700   28.2060   43.5060 H   0  0  0  0  0  0  0  0  0  0  0  0
   37.1730   29.0620   44.3340 H   0  0  0  0  0  0  0  0  0  0  0  0
   37.5490   29.6540   42.3650 C   0  0  0  0  0  0  0  0  0  0  0  0
   36.4320   29.9730   41.6640 N   0  0  0  0  0  0  0  0  0  0  0  0
   36.4270   30.9280   40.7200 C   0  0  0  0  0  3  0  0  0  0  0  0
   37.5050   31.6560   40.3740 N   0  0  0  0  0  0  0  0  0  0  0  0
   38.6440   31.3880   41.0350 C   0  0  0  0  0  0  0  0  0  0  0  0
   39.8240   32.0550   40.7900 C   0  0  0  0  0  3  0  0  0  0  0  0
   41.0190   31.8230   41.4400 C   0  0  0  0  0  0  0  0  0  0  0  0
   41.8970   32.3860   41.1920 H   0  0  0  0  0  0  0  0  0  0  0  0
   41.0220   30.8400   42.4120 C   0  0  0  0  0  0  0  0  0  0  0  0
   41.9360   30.6290   42.9410 H   0  0  0  0  0  0  0  0  0  0  0  0
   39.8340   30.1480   42.6770 C   0  0  0  0  0  3  0  0  0  0  0  0
   38.6600   30.4100   42.0050 C   0  0  0  0  0  0  0  0  0  0  0  0
  1  7  1  1  0  0  0
  1  6  1  0  0  0  0
  2  1  1  0  0  0  0
  2  3  1  0  0  0  0
  3  4  1  0  0  0  0
  4 13  1  0  0  0  0
  4 12  1  0  0  0  0
  4  5  1  0  0  0  0
  5 14  1  0  0  0  0
  5 15  1  0  0  0  0
  6 16  1  6  0  0  0
  6 26  1  0  0  0  0
  6  5  1  0  0  0  0
  8  2  1  0  0  0  0
  9  2  1  0  0  0  0
 10  3  1  0  0  0  0
 11  3  1  0  0  0  0
 17  1  1  0  0  0  0
 18 17  1  0  0  0  0
 18 23  1  0  0  0  0
 19 18  2  0  0  0  0
 20 21  2  0  0  0  0
 20 19  1  0  0  0  0
 21 22  1  0  0  0  0
 22 17  2  0  0  0  0
 24 19  1  0  0  0  0
 25 21  1  0  0  0  0
 26 29  1  6  0  0  0
 26 27  1  0  0  0  0
 26 28  1  0  0  0  0
 27 31  1  0  0  0  0
 27 30  1  0  0  0  0
 27 28  1  0  0  0  0
 28 32  1  1  0  0  0
 28 33  1  0  0  0  0
 33 36  1  0  0  0  0
 33 34  1  0  0  0  0
 35 33  1  0  0  0  0
 36 37  1  0  0  0  0
 36 38  1  0  0  0  0
 39 36  1  0  0  0  0
 40 39  2  0  0  0  0
 41 40  1  0  0  0  0
 42 41  2  0  0  0  0
 42 43  1  0  0  0  0
 43 50  1  0  0  0  0
 44 43  2  0  0  0  0
 44 45  1  0  0  0  0
 45 47  2  0  0  0  0
 46 45  1  0  0  0  0
 47 49  1  0  0  0  0
 47 48  1  0  0  0  0
 50 39  1  0  0  0  0
 50 49  2  0  0  0  0
M  END
>  <minimizedAffinity>
-5.66398191

$$$$

 OpenBabel03242512033D

 50 54  0  0  1  0  0  0  0  0999 V2000
   39.6000   26.5150   42.9380 C   0  0  2  0  0  0  0  0  0  0  0  0
   39.5970   25.0610   43.2970 C   0  0  0  0  0  0  0  0  0  0  0  0
   38.8190   24.2410   42.3450 C   0  0  0  0  0  0  0  0  0  0  0  0
   37.3990   24.7260   42.1640 C   0  0  0  0  0  0  0  0  0  0  0  0
   37.2720   26.2230   42.1380 C   0  0  0  0  0  0  0  0  0  0  0  0
   38.5950   26.9210   41.9270 C   0  0  1  0  0  0  0  0  0  0  0  0
   39.3620   27.0570   43.9040 H   0  0  0  0  0  0  0  0  0  0  0  0
   39.2160   24.8680   44.3160 H   0  0  0  0  0  0  0  0  0  0  0  0
   40.6560   24.7140   43.2700 H   0  0  0  0  0  0  0  0  0  0  0  0
   39.3610   24.1820   41.3810 H   0  0  0  0  0  0  0  0  0  0  0  0
   38.7740   23.1910   42.7490 H   0  0  0  0  0  0  0  0  0  0  0  0
   37.0260   24.2920   41.2130 H   0  0  0  0  0  0  0  0  0  0  0  0
   36.7230   24.2920   42.9530 H   0  0  0  0  0  0  0  0  0  0  0  0
   36.7650   26.5920   43.0690 H   0  0  0  0  0  0  0  0  0  0  0  0
   36.5940   26.5020   41.3140 H   0  0  0  0  0  0  0  0  0  0  0  0
   38.8490   26.7550   40.8710 H   0  0  0  0  0  0  0  0  0  0  0  0
   40.9400   27.0100   42.5590 C   0  0  0  0  0  0  0  0  0  0  0  0
   41.5940   27.6540   43.5950 C   0  0  0  0  0  0  0  0  0  0  0  0
   42.8820   28.1760   43.3890 C   0  0  0  0  0  0  0  0  0  0  0  0
   43.4090   27.9900   42.1040 N   0  0  0  0  0  0  0  0  0  0  0  0
   42.7290   27.3540   41.1290 C   0  0  0  0  0  0  0  0  0  0  0  0
   41.4990   26.8710   41.3750 N   0  0  0  0  0  0  0  0  0  0  0  0
   41.3700   27.9040   44.6210 H   0  0  0  0  0  0  0  0  0  0  0  0
   43.5390   28.6930   44.0390 H   0  0  0  0  0  0  0  0  0  0  0  0
   43.2090   27.2580   40.1760 H   0  0  0  0  0  0  0  0  0  0  0  0
   38.3620   28.4020   42.0740 C   0  0  2  0  0  0  0  0  0  0  0  0
   37.8070   28.9010   43.3970 C   0  0  0  0  0  0  0  0  0  0  0  0
   36.9770   28.9350   42.1860 C   0  0  1  0  0  0  0  0  0  0  0  0
   39.1720   29.0570   41.6930 H   0  0  0  0  0  0  0  0  0  0  0  0
   37.5260   28.2090   44.1940 H   0  0  0  0  0  0  0  0  0  0  0  0
   38.1080   29.8980   43.7830 H   0  0  0  0  0  0  0  0  0  0  0  0
   36.1690   28.1790   42.1010 H   0  0  0  0  0  0  0  0  0  0  0  0
   36.7500   30.1640   41.3500 C   0  0  0  0  0  0  0  0  0  0  0  0
   36.7630   31.0740   42.0190 H   0  0  0  0  0  0  0  0  0  0  0  0
   35.7140   30.1280   40.9690 H   0  0  0  0  0  0  0  0  0  0  0  0
   37.7980   30.4050   40.3150 C   0  0  0  0  0  0  0  0  0  0  0  0
   37.3250   30.2610   39.3110 H   0  0  0  0  0  0  0  0  0  0  0  0
   38.6240   29.6680   40.4640 H   0  0  0  0  0  0  0  0  0  0  0  0
   38.4080   31.7430   40.3470 C   0  0  0  0  0  0  0  0  0  0  0  0
   37.6610   32.8560   40.1350 N   0  0  0  0  0  0  0  0  0  0  0  0
   38.1950   34.0890   40.1450 C   0  0  0  0  0  3  0  0  0  0  0  0
   39.4980   34.3480   40.3610 N   0  0  0  0  0  0  0  0  0  0  0  0
   40.2910   33.2850   40.5790 C   0  0  0  0  0  0  0  0  0  0  0  0
   41.6430   33.3970   40.8180 C   0  0  0  0  0  3  0  0  0  0  0  0
   42.5000   32.3410   41.0500 C   0  0  0  0  0  0  0  0  0  0  0  0
   43.5440   32.5110   41.2280 H   0  0  0  0  0  0  0  0  0  0  0  0
   41.9480   31.0730   41.0390 C   0  0  0  0  0  0  0  0  0  0  0  0
   42.5860   30.2230   41.2160 H   0  0  0  0  0  0  0  0  0  0  0  0
   40.5770   30.9350   40.7990 C   0  0  0  0  0  3  0  0  0  0  0  0
   39.7540   32.0160   40.5710 C   0  0  0  0  0  0  0  0  0  0  0  0
  1  2  1  0  0  0  0
  1  7  1  1  0  0  0
  2  8  1  0  0  0  0
  3 11  1  0  0  0  0
  3  2  1  0  0  0  0
  4  3  1  0  0  0  0
  4 13  1  0  0  0  0
  5  4  1  0  0  0  0
  5 14  1  0  0  0  0
  6 16  1  6  0  0  0
  6 26  1  0  0  0  0
  6  5  1  0  0  0  0
  6  1  1  0  0  0  0
  9  2  1  0  0  0  0
 10  3  1  0  0  0  0
 12  4  1  0  0  0  0
 15  5  1  0  0  0  0
 17  1  1  0  0  0  0
 17 18  1  0  0  0  0
 18 23  1  0  0  0  0
 19 18  2  0  0  0  0
 19 24  1  0  0  0  0
 20 19  1  0  0  0  0
 21 22  1  0  0  0  0
 21 20  2  0  0  0  0
 22 17  2  0  0  0  0
 25 21  1  0  0  0  0
 26 29  1  6  0  0  0
 26 28  1  0  0  0  0
 26 27  1  0  0  0  0
 27 31  1  0  0  0  0
 27 30  1  0  0  0  0
 28 32  1  6  0  0  0
 28 27  1  0  0  0  0
 33 34  1  0  0  0  0
 33 28  1  0  0  0  0
 35 33  1  0  0  0  0
 36 39  1  0  0  0  0
 36 38  1  0  0  0  0
 36 33  1  0  0  0  0
 37 36  1  0  0  0  0
 39 50  1  0  0  0  0
 40 41  1  0  0  0  0
 40 39  2  0  0  0  0
 41 42  2  0  0  0  0
 42 43  1  0  0  0  0
 43 44  1  0  0  0  0
 44 45  2  0  0  0  0
 45 46  1  0  0  0  0
 47 45  1  0  0  0  0
 47 48  1  0  0  0  0
 49 47  2  0  0  0  0
 50 43  2  0  0  0  0
 50 49  1  0  0  0  0
M  END
>  <minimizedAffinity>
-5.66275644

$$$$
