REMARK  Name = 
REMARK  4 active torsions:
REMARK  status: ('A' for Active; 'I' for Inactive)
REMARK    1  A    between atoms: C_1  and  C_4
REMARK    2  A    between atoms: C_2  and  C_11
REMARK    3  A    between atoms: C_8  and  O_10
REMARK    4  A    between atoms: O_10  and  C_21
REMARK                            x       y       z     vdW  Elec       q    Type
REMARK                         _______ _______ _______ _____ _____    ______ ____
ROOT
ATOM      1  C   UNL     1      45.895  32.868  44.818  0.00  0.00    +0.000 A 
ATOM      2  C   UNL     1      46.718  31.758  44.509  0.00  0.00    +0.000 A 
ATOM      3  C   UNL     1      47.392  31.053  45.509  0.00  0.00    +0.000 A 
ATOM      4  N   UNL     1      47.209  31.499  46.784  0.00  0.00    +0.000 NA
ATOM      5  C   UNL     1      46.408  32.574  47.043  0.00  0.00    +0.000 A 
ATOM      6  N   UNL     1      45.769  33.239  46.093  0.00  0.00    +0.000 NA
ATOM      7  H   UNL     1      46.823  31.455  43.485  0.00  0.00    +0.000 HD
ATOM      8  H   UNL     1      48.016  30.210  45.265  0.00  0.00    +0.000 HD
ENDROOT
BRANCH   1   9
ATOM      9  C   UNL     1      45.231  33.564  43.711  0.00  0.00    +0.000 C 
ATOM     10  C   UNL     1      45.858  34.987  43.480  0.00  0.00    +0.000 C 
ATOM     11  C   UNL     1      45.811  33.870  42.459  0.00  0.00    +0.000 C 
ATOM     12  H   UNL     1      44.115  33.612  43.861  0.00  0.00    +0.000 HD
ATOM     13  H   UNL     1      46.811  35.208  43.948  0.00  0.00    +0.000 HD
ATOM     14  H   UNL     1      46.816  33.456  42.179  0.00  0.00    +0.000 HD
ATOM     15  H   UNL     1      45.184  34.003  41.550  0.00  0.00    +0.000 HD
BRANCH  10  16
ATOM     16  C   UNL     1      44.835  36.071  43.237  0.00  0.00    +0.000 C 
ATOM     17  F   UNL     1      45.363  37.330  43.237  0.00  0.00    +0.000 F 
ATOM     18  F   UNL     1      44.247  35.859  41.980  0.00  0.00    +0.000 F 
ATOM     19  F   UNL     1      43.788  35.967  44.142  0.00  0.00    +0.000 F 
ENDBRANCH  10  16
ENDBRANCH   1   9
BRANCH   5  20
ATOM     20  O   UNL     1      46.327  32.905  48.382  0.00  0.00    +0.000 OA
BRANCH  20  21
ATOM     21  C   UNL     1      46.964  32.258  49.402  0.00  0.00    +0.000 A 
ATOM     22  N   UNL     1      46.515  31.211  50.136  0.00  0.00    +0.000 NA
ATOM     23  C   UNL     1      47.284  30.680  51.126  0.00  0.00    +0.000 A 
ATOM     24  N   UNL     1      48.506  31.167  51.411  0.00  0.00    +0.000 NA
ATOM     25  C   UNL     1      48.981  32.199  50.707  0.00  0.00    +0.000 A 
ATOM     26  C   UNL     1      50.239  32.663  51.038  0.00  0.00    +0.000 A 
ATOM     27  C   UNL     1      50.760  33.720  50.338  0.00  0.00    +0.000 A 
ATOM     28  H   UNL     1      51.742  34.123  50.556  0.00  0.00    +0.000 HD
ATOM     29  C   UNL     1      50.041  34.327  49.306  0.00  0.00    +0.000 A 
ATOM     30  H   UNL     1      50.385  35.163  48.711  0.00  0.00    +0.000 HD
ATOM     31  C   UNL     1      48.787  33.844  48.996  0.00  0.00    +0.000 A 
ATOM     32  C   UNL     1      48.233  32.783  49.679  0.00  0.00    +0.000 A 
ENDBRANCH  20  21
ENDBRANCH   5  20
TORSDOF 4
