
 OpenBabel03252506383D

 47 51  0  0  1  0  0  0  0  0999 V2000
   46.5960   30.1180   46.5310 S   0  0  0  0  0  0  0  0  0  0  0  0
   45.8800   30.7330   43.3280 O   0  0  0  0  0  0  0  0  0  0  0  0
   45.1780   30.1320   44.1570 C   0  0  0  0  0  0  0  0  0  0  0  0
   45.1410   29.8370   45.6110 C   0  0  1  0  0  0  0  0  0  0  0  0
   44.6360   28.4160   45.6300 C   0  0  0  0  0  0  0  0  0  0  0  0
   43.3950   28.6320   44.7610 C   0  0  0  0  0  0  0  0  0  0  0  0
   43.9900   29.4560   43.7150 N   0  0  0  0  0  0  0  0  0  0  0  0
   44.2110   30.4090   45.8850 H   0  0  0  0  0  0  0  0  0  0  0  0
   44.2880   28.0860   46.6240 H   0  0  0  0  0  0  0  0  0  0  0  0
   45.3420   27.7260   45.1630 H   0  0  0  0  0  0  0  0  0  0  0  0
   42.6800   29.2540   45.3350 H   0  0  0  0  0  0  0  0  0  0  0  0
   42.9810   27.6880   44.3920 H   0  0  0  0  0  0  0  0  0  0  0  0
   43.3320   29.4810   42.4330 C   0  0  0  0  0  0  0  0  0  0  0  0
   44.0130   29.9750   41.3760 N   0  0  0  0  0  0  0  0  0  0  0  0
   43.4660   30.0340   40.1290 C   0  0  0  0  0  3  0  0  0  0  0  0
   42.2220   29.6020   39.9040 N   0  0  0  0  0  0  0  0  0  0  0  0
   41.5160   29.1030   40.9380 C   0  0  0  0  0  0  0  0  0  0  0  0
   40.2290   28.6470   40.7450 C   0  0  0  0  0  3  0  0  0  0  0  0
   39.4770   28.1280   41.7920 C   0  0  0  0  0  0  0  0  0  0  0  0
   38.4680   27.7750   41.6230 H   0  0  0  0  0  0  0  0  0  0  0  0
   40.0670   28.0830   43.0500 C   0  0  0  0  0  0  0  0  0  0  0  0
   39.4510   27.6740   43.8390 H   0  0  0  0  0  0  0  0  0  0  0  0
   41.3620   28.5300   43.3000 C   0  0  0  0  0  3  0  0  0  0  0  0
   42.0440   29.0300   42.2120 C   0  0  0  0  0  0  0  0  0  0  0  0
   44.4910   35.6140   45.1330 C   0  0  0  0  0  0  0  0  0  0  0  0
   45.1520   35.6040   43.8790 C   0  0  0  0  0  0  0  0  0  0  0  0
   46.0670   34.6380   43.6200 C   0  0  0  0  0  0  0  0  0  0  0  0
   46.2960   33.7260   44.5980 N   0  0  0  0  0  0  0  0  0  0  0  0
   45.6740   33.7400   45.7680 C   0  0  0  0  0  0  0  0  0  0  0  0
   44.7700   34.6770   46.0510 N   0  0  0  0  0  0  0  0  0  0  0  0
   46.0010   32.7240   46.7320 N   0  0  0  0  0  0  0  0  0  0  0  0
   45.2650   32.4730   47.9140 C   0  0  0  0  0  0  0  0  0  0  0  0
   46.3400   32.1240   48.9270 C   0  0  0  0  0  0  0  0  0  0  0  0
   47.6190   32.0090   48.1530 C   0  0  0  0  0  0  0  0  0  0  0  0
   47.1160   31.8080   46.7260 C   0  0  1  0  0  0  0  0  0  0  0  0
   43.7610   36.3860   45.3350 H   0  0  0  0  0  0  0  0  0  0  0  0
   46.5690   34.6220   42.6850 H   0  0  0  0  0  0  0  0  0  0  0  0
   44.8790   33.4790   48.2710 H   0  0  0  0  0  0  0  0  0  0  0  0
   44.4750   31.8050   48.0170 H   0  0  0  0  0  0  0  0  0  0  0  0
   46.1260   31.1200   49.3920 H   0  0  0  0  0  0  0  0  0  0  0  0
   46.4260   32.8280   49.7530 H   0  0  0  0  0  0  0  0  0  0  0  0
   48.1950   31.1360   48.4940 H   0  0  0  0  0  0  0  0  0  0  0  0
   48.2310   32.9300   48.2150 H   0  0  0  0  0  0  0  0  0  0  0  0
   47.9110   32.0900   46.0340 H   0  0  0  0  0  0  0  0  0  0  0  0
   44.7980   36.6420   42.9490 N   0  0  0  0  0  0  0  0  0  0  0  0
   45.5320   37.0000   42.2760 H   0  0  0  0  0  0  0  0  0  0  0  0
   43.8290   37.0020   42.9750 H   0  0  0  0  0  0  0  0  0  0  0  0
  1 35  1  0  0  0  0
  2  3  2  0  0  0  0
  3  4  1  0  0  0  0
  4  5  1  0  0  0  0
  4  8  1  1  0  0  0
  4  1  1  0  0  0  0
  5  9  1  0  0  0  0
  6 11  1  0  0  0  0
  6  5  1  0  0  0  0
  7  3  1  0  0  0  0
  7  6  1  0  0  0  0
 10  5  1  0  0  0  0
 12  6  1  0  0  0  0
 13  7  1  0  0  0  0
 14 13  2  0  0  0  0
 15 14  1  0  0  0  0
 16 15  2  0  0  0  0
 16 17  1  0  0  0  0
 17 24  1  0  0  0  0
 18 17  2  0  0  0  0
 18 19  1  0  0  0  0
 19 21  2  0  0  0  0
 20 19  1  0  0  0  0
 21 23  1  0  0  0  0
 21 22  1  0  0  0  0
 24 13  1  0  0  0  0
 24 23  2  0  0  0  0
 25 36  1  0  0  0  0
 25 30  1  0  0  0  0
 26 25  2  0  0  0  0
 27 26  1  0  0  0  0
 27 28  2  0  0  0  0
 28 29  1  0  0  0  0
 29 30  2  0  0  0  0
 29 31  1  0  0  0  0
 31 32  1  0  0  0  0
 32 39  1  0  0  0  0
 32 38  1  0  0  0  0
 32 33  1  0  0  0  0
 33 40  1  0  0  0  0
 33 41  1  0  0  0  0
 34 43  1  0  0  0  0
 34 42  1  0  0  0  0
 34 33  1  0  0  0  0
 35 44  1  6  0  0  0
 35 31  1  0  0  0  0
 35 34  1  0  0  0  0
 37 27  1  0  0  0  0
 45 47  1  0  0  0  0
 45 26  1  0  0  0  0
 46 45  1  0  0  0  0
M  END
>  <minimizedAffinity>
-5.87691116

>  <minimizedRMSD>
0.548081875

$$$$
