
 OpenBabel03252502233D

 37 40  0  0  1  0  0  0  0  0999 V2000
   46.8730   34.3010   42.0850 N   0  0  0  0  0  0  0  0  0  0  0  0
   48.2710   34.7000   41.9840 C   0  0  0  0  0  0  0  0  0  0  0  0
   48.3880   35.3250   40.5970 C   0  0  0  0  0  0  0  0  0  0  0  0
   48.1400   34.2930   39.5380 C   0  0  0  0  0  0  0  0  0  0  0  0
   47.0550   33.3270   39.8490 C   0  0  0  0  0  0  0  0  0  0  0  0
   46.1690   33.6980   40.9870 C   0  0  1  0  0  0  0  0  0  0  0  0
   48.8590   33.7720   41.9520 H   0  0  0  0  0  0  0  0  0  0  0  0
   48.5630   35.4070   42.7540 H   0  0  0  0  0  0  0  0  0  0  0  0
   49.4800   35.6020   40.5180 H   0  0  0  0  0  0  0  0  0  0  0  0
   47.7490   36.2060   40.5360 H   0  0  0  0  0  0  0  0  0  0  0  0
   49.0840   33.7480   39.2650 H   0  0  0  0  0  0  0  0  0  0  0  0
   47.8550   34.8380   38.6060 H   0  0  0  0  0  0  0  0  0  0  0  0
   46.4260   33.0690   38.9690 H   0  0  0  0  0  0  0  0  0  0  0  0
   47.5390   32.3510   40.1310 H   0  0  0  0  0  0  0  0  0  0  0  0
   45.3700   34.3890   40.6130 H   0  0  0  0  0  0  0  0  0  0  0  0
   44.5410   35.6680   44.6710 C   0  0  0  0  0  0  0  0  0  0  0  0
   45.2030   35.5430   43.4460 C   0  0  0  0  0  0  0  0  0  0  0  0
   46.1520   34.5010   43.2980 C   0  0  0  0  0  0  0  0  0  0  0  0
   46.3590   33.6820   44.3640 N   0  0  0  0  0  0  0  0  0  0  0  0
   45.6880   33.8460   45.5350 C   0  0  0  0  0  0  0  0  0  0  0  0
   44.7850   34.8360   45.6780 N   0  0  0  0  0  0  0  0  0  0  0  0
   43.8510   36.5000   44.6380 H   0  0  0  0  0  0  0  0  0  0  0  0
   45.0610   36.1750   42.5840 H   0  0  0  0  0  0  0  0  0  0  0  0
   45.8680   33.1840   46.3710 H   0  0  0  0  0  0  0  0  0  0  0  0
   45.5520   32.5240   41.4550 O   0  0  0  0  0  0  0  0  0  0  0  0
   44.1990   32.3190   41.5450 C   0  0  0  0  0  0  0  0  0  0  0  0
   43.5090   31.6070   42.4510 N   0  0  0  0  0  0  0  0  0  0  0  0
   42.1820   31.4960   42.4110 C   0  0  0  0  0  3  0  0  0  0  0  0
   41.4600   32.1080   41.4350 N   0  0  0  0  0  0  0  0  0  0  0  0
   42.0870   32.8330   40.5000 C   0  0  0  0  0  0  0  0  0  0  0  0
   41.3570   33.4520   39.5100 C   0  0  0  0  0  3  0  0  0  0  0  0
   41.9620   34.2050   38.5320 C   0  0  0  0  0  0  0  0  0  0  0  0
   41.4720   34.7300   37.7140 H   0  0  0  0  0  0  0  0  0  0  0  0
   43.3180   34.3320   38.5570 C   0  0  0  0  0  0  0  0  0  0  0  0
   43.8720   34.9040   37.8270 H   0  0  0  0  0  0  0  0  0  0  0  0
   44.0380   33.7050   39.5520 C   0  0  0  0  0  3  0  0  0  0  0  0
   43.4640   32.9410   40.5520 C   0  0  0  0  0  0  0  0  0  0  0  0
  1 18  1  0  0  0  0
  2  1  1  0  0  0  0
  2  8  1  0  0  0  0
  3  2  1  0  0  0  0
  4  5  1  0  0  0  0
  4  3  1  0  0  0  0
  5 14  1  0  0  0  0
  5  6  1  0  0  0  0
  6 15  1  6  0  0  0
  6 25  1  0  0  0  0
  6  1  1  0  0  0  0
  7  2  1  0  0  0  0
  9  3  1  0  0  0  0
 10  3  1  0  0  0  0
 11  4  1  0  0  0  0
 12  4  1  0  0  0  0
 13  5  1  0  0  0  0
 16 21  1  0  0  0  0
 17 16  2  0  0  0  0
 18 17  1  0  0  0  0
 18 19  2  0  0  0  0
 19 20  1  0  0  0  0
 20 21  2  0  0  0  0
 20 24  1  0  0  0  0
 22 16  1  0  0  0  0
 23 17  1  0  0  0  0
 25 26  1  0  0  0  0
 26 27  1  0  0  0  0
 28 27  2  0  0  0  0
 29 28  1  0  0  0  0
 30 37  1  0  0  0  0
 30 29  2  0  0  0  0
 31 30  1  0  0  0  0
 32 34  1  0  0  0  0
 32 31  2  0  0  0  0
 33 32  1  0  0  0  0
 34 36  2  0  0  0  0
 35 34  1  0  0  0  0
 36 37  1  0  0  0  0
 37 26  2  0  0  0  0
M  END
>  <minimizedAffinity>
-5.36191559

>  <minimizedRMSD>
0.833808601

$$$$
