
 OpenBabel03252507463D

 40 43  0  0  0  0  0  0  0  0999 V2000
   48.2580   34.1180   41.4470 C   0  0  0  0  0  0  0  0  0  0  0  0
   48.8550   32.8850   41.2080 C   0  0  0  0  0  0  0  0  0  0  0  0
   50.1330   32.6070   41.6640 C   0  0  0  0  0  0  0  0  0  0  0  0
   50.7690   33.6170   42.3590 N   0  0  0  0  0  0  0  0  0  0  0  0
   50.1570   34.8020   42.5710 C   0  0  0  0  0  0  0  0  0  0  0  0
   48.9330   35.0350   42.1210 N   0  0  0  0  0  0  0  0  0  0  0  0
   50.6240   31.6570   41.4940 H   0  0  0  0  0  0  0  0  0  0  0  0
   50.7320   35.5330   43.1260 H   0  0  0  0  0  0  0  0  0  0  0  0
   46.8980   34.2940   40.9140 C   0  0  0  0  0  0  0  0  0  0  0  0
   46.9490   34.9420   40.0040 H   0  0  0  0  0  0  0  0  0  0  0  0
   46.4580   33.3400   40.5670 H   0  0  0  0  0  0  0  0  0  0  0  0
   45.9370   34.8520   41.9220 C   0  0  0  0  0  0  0  0  0  0  0  0
   46.0940   34.2970   42.8850 H   0  0  0  0  0  0  0  0  0  0  0  0
   46.1680   35.9160   42.1490 H   0  0  0  0  0  0  0  0  0  0  0  0
   44.5040   34.6740   41.5420 C   0  0  0  0  0  0  0  0  0  0  0  0
   43.5600   35.6780   41.8970 C   0  0  0  0  0  0  0  0  0  0  0  0
   41.9790   35.0130   41.2250 S   0  0  0  0  0  0  0  0  0  0  0  0
   42.8820   33.4770   40.5740 C   0  0  0  0  0  0  0  0  0  0  0  0
   43.9620   33.6790   40.8970 N   0  0  0  0  0  0  0  0  0  0  0  0
   43.7490   36.6010   42.4340 H   0  0  0  0  0  0  0  0  0  0  0  0
   42.2320   32.4520   39.8910 O   0  0  0  0  0  0  0  0  0  0  0  0
   41.5620   31.6820   37.4460 O   0  0  0  0  0  0  0  0  0  0  0  0
   41.4670   32.8470   38.4270 P   0  0  0  0  0  0  0  0  0  0  0  0
   39.8420   33.1830   38.7450 O   0  0  0  0  0  0  0  0  0  0  0  0
   39.3150   32.3510   38.7440 H   0  0  0  0  0  0  0  0  0  0  0  0
   42.1800   34.2540   37.7780 O   0  0  0  0  0  0  0  0  0  0  0  0
   41.5500   34.6130   37.1230 H   0  0  0  0  0  0  0  0  0  0  0  0
   47.9800   31.6050   40.2960 S   0  0  0  0  0  0  0  0  0  0  0  0
   48.4070   31.6730   38.5630 C   0  0  0  0  0  0  0  0  0  0  0  0
   49.6890   31.5000   38.1460 N   0  0  0  0  0  0  0  0  0  0  0  0
   49.9760   31.5570   36.8330 C   0  0  0  0  0  3  0  0  0  0  0  0
   49.0030   31.7860   35.9310 N   0  0  0  0  0  0  0  0  0  0  0  0
   47.7170   31.9630   36.3180 C   0  0  0  0  0  0  0  0  0  0  0  0
   46.7970   32.1910   35.3150 C   0  0  0  0  0  3  0  0  0  0  0  0
   45.4770   32.3770   35.6570 C   0  0  0  0  0  0  0  0  0  0  0  0
   44.7880   32.5530   34.8390 H   0  0  0  0  0  0  0  0  0  0  0  0
   45.1260   32.3270   37.0010 C   0  0  0  0  0  0  0  0  0  0  0  0
   44.0820   32.4770   37.2250 H   0  0  0  0  0  0  0  0  0  0  0  0
   46.0750   32.0960   37.9820 C   0  0  0  0  0  3  0  0  0  0  0  0
   47.4050   31.9070   37.6620 C   0  0  0  0  0  0  0  0  0  0  0  0
  1  6  1  0  0  0  0
  2  1  2  0  0  0  0
  2  3  1  0  0  0  0
  3  4  2  0  0  0  0
  4  5  1  0  0  0  0
  5  8  1  0  0  0  0
  6  5  2  0  0  0  0
  7  3  1  0  0  0  0
  9  1  1  0  0  0  0
  9 12  1  0  0  0  0
 10  9  1  0  0  0  0
 11  9  1  0  0  0  0
 12 14  1  0  0  0  0
 12 13  1  0  0  0  0
 15 16  2  0  0  0  0
 15 12  1  0  0  0  0
 16 20  1  0  0  0  0
 17 16  1  0  0  0  0
 18 19  2  0  0  0  0
 18 17  1  0  0  0  0
 19 15  1  0  0  0  0
 21 18  1  0  0  0  0
 22 23  2  0  0  0  0
 23 24  1  0  0  0  0
 23 21  1  0  0  0  0
 25 24  1  0  0  0  0
 26 23  1  0  0  0  0
 27 26  1  0  0  0  0
 28  2  1  0  0  0  0
 29 28  1  0  0  0  0
 30 29  1  0  0  0  0
 31 30  2  0  0  0  0
 32 33  2  0  0  0  0
 32 31  1  0  0  0  0
 33 40  1  0  0  0  0
 34 35  2  0  0  0  0
 34 33  1  0  0  0  0
 35 37  1  0  0  0  0
 36 35  1  0  0  0  0
 37 38  1  0  0  0  0
 37 39  2  0  0  0  0
 40 39  1  0  0  0  0
 40 29  2  0  0  0  0
M  END
>  <minimizedAffinity>
-4.98544979

>  <minimizedRMSD>
1.2929039

$$$$
