
     RDKit          3D

 43 46  0  0  0  0  0  0  0  0999 V2000
   46.3275   35.0053   41.9202 C   0  0  0  0  0  0  0  0  0  0  0  0
   44.8528   34.9439   41.6947 C   0  0  0  0  0  0  0  0  0  0  0  0
   43.9740   35.4299   42.7033 C   0  0  0  0  0  0  0  0  0  0  0  0
   42.3088   35.1419   41.9706 S   0  0  0  0  0  0  0  0  0  0  0  0
   43.1023   34.4073   40.4134 C   0  0  0  0  0  0  0  0  0  0  0  0
   44.2192   34.4854   40.6532 N   0  0  0  0  0  0  0  0  0  0  0  0
   42.3550   33.9356   39.3358 O   0  0  0  0  0  0  0  0  0  0  0  0
   40.4021   34.3864   37.6028 O   0  0  0  0  0  0  0  0  0  0  0  0
   41.4860   35.0759   38.4245 P   0  0  0  0  0  0  0  0  0  0  0  0
   40.7708   36.1786   39.4871 O   0  0  0  0  0  0  0  0  0  0  0  0
   42.5639   35.9348   37.4186 O   0  0  0  0  0  0  0  0  0  0  0  0
   47.1274   34.3312   40.8439 C   0  0  0  0  0  0  0  0  0  0  0  0
   48.4658   33.9161   41.2921 C   0  0  0  0  0  0  0  0  0  0  0  0
   48.9328   32.7068   40.7866 C   0  0  0  0  0  0  0  0  0  0  0  0
   50.1801   32.2172   41.1404 C   0  0  0  0  0  0  0  0  0  0  0  0
   50.9192   32.9926   42.0124 N   0  0  0  0  0  0  0  0  0  0  0  0
   50.4305   34.1614   42.4812 C   0  0  0  0  0  0  0  0  0  0  0  0
   49.2342   34.6010   42.1233 N   0  0  0  0  0  0  0  0  0  0  0  0
   47.9277   31.7377   39.6538 S   0  0  0  0  0  0  0  0  0  0  0  0
   46.5370   34.4700   42.8850 H   0  0  0  0  0  0  0  0  0  0  0  0
   46.6723   36.0515   42.0778 H   0  0  0  0  0  0  0  0  0  0  0  0
   44.2431   35.8603   43.6609 H   0  0  0  0  0  0  0  0  0  0  0  0
   39.9030   35.8358   39.8015 H   0  0  0  0  0  0  0  0  0  0  0  0
   42.1023   36.7506   37.1430 H   0  0  0  0  0  0  0  0  0  0  0  0
   47.2361   34.9920   39.9490 H   0  0  0  0  0  0  0  0  0  0  0  0
   46.5174   33.4739   40.5014 H   0  0  0  0  0  0  0  0  0  0  0  0
   50.5706   31.2803   40.7638 H   0  0  0  0  0  0  0  0  0  0  0  0
   51.0808   34.7009   43.1598 H   0  0  0  0  0  0  0  0  0  0  0  0
   48.2644   32.2090   37.9638 C   0  0  0  0  0  0  0  0  0  0  0  0
   48.4423   31.2749   36.9936 N   0  0  0  0  0  0  0  0  0  0  0  0
   48.6941   31.6639   35.7317 C   0  0  0  0  0  0  0  0  0  0  0  0
   48.7713   32.9723   35.4227 N   0  0  0  0  0  0  0  0  0  0  0  0
   48.5981   33.9251   36.3701 C   0  0  0  0  0  0  0  0  0  0  0  0
   48.6970   35.2367   35.9501 C   0  0  0  0  0  0  0  0  0  0  0  0
   48.5291   36.2422   36.8738 C   0  0  0  0  0  0  0  0  0  0  0  0
   48.6146   37.2571   36.5026 H   0  0  0  0  0  0  0  0  0  0  0  0
   48.2663   35.8943   38.1947 C   0  0  0  0  0  0  0  0  0  0  0  0
   48.1416   36.7124   38.8851 H   0  0  0  0  0  0  0  0  0  0  0  0
   48.1738   34.5681   38.5808 C   0  0  0  0  0  0  0  0  0  0  0  0
   48.3388   33.5435   37.6709 C   0  0  0  0  0  0  0  0  0  0  0  0
   48.8311   30.8816   34.9808 H   0  0  0  0  0  0  0  0  0  0  0  0
   48.9060   35.4583   34.8965 H   0  0  0  0  0  0  0  0  0  0  0  0
   47.9688   34.3048   39.6113 H   0  0  0  0  0  0  0  0  0  0  0  0
  2  1  1  0
  2  3  2  0
  4  3  1  0
  5  6  2  0
  5  4  1  0
  6  2  1  0
  7  5  1  0
  8  9  2  0
  9  7  1  0
  9 10  1  0
 11  9  1  0
 12 13  1  0
 12  1  1  0
 13 18  2  0
 14 15  2  0
 14 13  1  0
 15 16  1  0
 16 17  2  0
 18 17  1  0
 19 14  1  0
  1 20  1  0
  1 21  1  0
  3 22  1  0
 10 23  1  0
 11 24  1  0
 12 25  1  0
 12 26  1  0
 15 27  1  0
 17 28  1  0
 29 30  2  0
 30 31  1  0
 31 32  2  0
 32 33  1  0
 33 34  2  0
 34 35  1  0
 35 36  1  0
 35 37  2  0
 37 38  1  0
 37 39  1  0
 39 40  2  0
 40 29  1  0
 40 33  1  0
 31 41  1  0
 34 42  1  0
 39 43  1  0
 19 29  1  0
M  ISO  8  20   8  21   8  22  14  23   3  24   3  25   8  26   8  27  14
M  ISO  3  28  14  36  16  38  16
M  END
>  <DihAtoms>  (1) 
13,18,28,29

>  <DihDeg>  (1) 
0.0005369032297746069

$$$$
