
     RDKit          3D

 28 30  0  0  0  0  0  0  0  0999 V2000
   44.5072   36.0007   44.5249 C   0  0  0  0  0  0  0  0  0  0  0  0
   45.2101   35.8759   43.3177 C   0  0  0  0  0  0  0  0  0  0  0  0
   46.1257   34.8169   43.1774 C   0  0  0  0  0  0  0  0  0  0  0  0
   46.2958   33.9510   44.2194 N   0  0  0  0  0  0  0  0  0  0  0  0
   45.5874   34.1106   45.3809 C   0  0  0  0  0  0  0  0  0  0  0  0
   44.7208   35.1157   45.5102 N   0  0  0  0  0  0  0  0  0  0  0  0
   45.8714   33.1010   46.4234 C   0  0  0  0  0  0  0  0  0  0  0  0
   46.5046   31.6082   45.5911 S   0  0  0  0  0  0  0  0  0  0  0  0
   43.8150   36.8228   44.5980 H   0  0  0  0  0  0  0  0  0  0  0  0
   45.1184   36.5248   42.4633 H   0  0  0  0  0  0  0  0  0  0  0  0
   46.7023   34.6471   42.2939 H   0  0  0  0  0  0  0  0  0  0  0  0
   46.6038   33.4738   47.1749 H   0  0  0  0  0  0  0  0  0  0  0  0
   44.9391   32.8868   46.9753 H   0  0  0  0  0  0  0  0  0  0  0  0
   45.2011   30.9034   44.5967 C   0  0  0  0  0  0  0  0  0  0  0  0
   44.0052   30.4644   45.0598 N   0  0  0  0  0  0  0  0  0  0  0  0
   43.1028   29.9470   44.2039 C   0  0  0  0  0  0  0  0  0  0  0  0
   43.3551   29.8489   42.8705 N   0  0  0  0  0  0  0  0  0  0  0  0
   44.5406   30.2743   42.3506 C   0  0  0  0  0  0  0  0  0  0  0  0
   44.7514   30.1531   40.9929 C   0  0  0  0  0  0  0  0  0  0  0  0
   45.9785   30.5981   40.4914 C   0  0  0  0  0  0  0  0  0  0  0  0
   46.2582   30.5552   39.4505 H   0  0  0  0  0  0  0  0  0  0  0  0
   46.9190   31.1310   41.3424 C   0  0  0  0  0  0  0  0  0  0  0  0
   47.8937   31.4925   40.9944 H   0  0  0  0  0  0  0  0  0  0  0  0
   46.6476   31.2252   42.6931 C   0  0  0  0  0  0  0  0  0  0  0  0
   45.4478   30.7996   43.2445 C   0  0  0  0  0  0  0  0  0  0  0  0
   42.1400   29.5982   44.6040 H   0  0  0  0  0  0  0  0  0  0  0  0
   44.0308   29.7381   40.3051 H   0  0  0  0  0  0  0  0  0  0  0  0
   47.3972   31.6450   43.3458 H   0  0  0  0  0  0  0  0  0  0  0  0
  1  6  2  0
  2  1  1  0
  3  2  2  0
  3  4  1  0
  4  5  2  0
  5  6  1  0
  5  7  1  0
  8  7  1  0
  1  9  1  0
  2 10  1  0
  3 11  1  0
  7 12  1  0
  7 13  1  0
 14 15  2  0
 15 16  1  0
 16 17  2  0
 17 18  1  0
 18 19  2  0
 19 20  1  0
 20 21  1  0
 20 22  2  0
 22 23  1  0
 22 24  1  0
 24 25  2  0
 25 14  1  0
 25 18  1  0
 16 26  1  0
 19 27  1  0
 24 28  1  0
  8 14  1  0
M  ISO  7   9  14  10  14  11  14  12   8  13   8  21  16  23  16
M  END
>  <DihAtoms>  (1) 
6,7,13,14

>  <DihDeg>  (1) 
0.10962892898769254

$$$$
