
 OpenBabel03252504303D

 36 38  0  0  0  0  0  0  0  0999 V2000
   45.4400   35.4880   43.3780 C   0  0  0  0  0  0  0  0  0  0  0  0
   46.0200   34.7060   42.8240 H   0  0  0  0  0  0  0  0  0  0  0  0
   45.9780   36.4510   43.3700 H   0  0  0  0  0  0  0  0  0  0  0  0
   43.9130   35.1580   41.3770 C   0  0  0  0  0  3  0  0  0  0  0  0
   44.1230   35.5820   42.6280 C   0  0  0  0  0  3  0  0  0  0  0  0
   42.6360   35.3310   40.8620 O   0  0  0  0  0  0  0  0  0  0  0  0
   41.4700   35.4820   41.5780 C   0  0  0  0  0  0  0  0  0  0  0  0
   41.6660   35.0290   42.6010 H   0  0  0  0  0  0  0  0  0  0  0  0
   41.2100   36.5280   41.7410 H   0  0  0  0  0  0  0  0  0  0  0  0
   40.2100   33.4240   41.7030 C   0  0  0  0  0  0  0  0  0  0  0  0
   40.3420   34.6690   41.0530 C   0  0  0  0  0  0  0  0  0  0  0  0
   39.4500   34.9530   40.0690 C   0  0  0  0  0  0  0  0  0  0  0  0
   38.5230   34.0340   39.7960 N   0  0  0  0  0  0  0  0  0  0  0  0
   38.3960   32.8680   40.4020 C   0  0  0  0  0  0  0  0  0  0  0  0
   39.2690   32.5000   41.4210 N   0  0  0  0  0  0  0  0  0  0  0  0
   40.8800   33.0990   42.5120 H   0  0  0  0  0  0  0  0  0  0  0  0
   39.6030   35.9180   39.6110 H   0  0  0  0  0  0  0  0  0  0  0  0
   37.6170   32.1610   40.1320 H   0  0  0  0  0  0  0  0  0  0  0  0
   45.1550   35.0490   44.6470 O   0  0  0  0  0  0  0  0  0  0  0  0
   45.2640   32.4970   43.9160 O   0  0  0  0  0  0  0  0  0  0  0  0
   45.7750   33.4940   44.9110 P   0  0  1  0  0  0  0  0  0  0  0  0
   47.4640   33.5180   44.8230 O   0  0  0  0  0  0  0  0  0  0  0  0
   47.8290   34.1370   45.5120 H   0  0  0  0  0  0  0  0  0  0  0  0
   45.3700   33.0110   46.4880 O   0  0  0  0  0  0  0  0  0  0  0  0
   46.2620   32.1510   47.1260 C   0  0  0  0  0  0  0  0  0  0  0  0
   47.3800   32.5750   47.7480 N   0  0  0  0  0  0  0  0  0  0  0  0
   48.2250   31.6990   48.3600 C   0  0  0  0  0  3  0  0  0  0  0  0
   47.9190   30.3970   48.3300 N   0  0  0  0  0  0  0  0  0  0  0  0
   46.8150   29.9000   47.7250 C   0  0  0  0  0  0  0  0  0  0  0  0
   46.6530   28.5280   47.7910 C   0  0  0  0  0  3  0  0  0  0  0  0
   45.5130   28.0410   47.1640 C   0  0  0  0  0  0  0  0  0  0  0  0
   45.3700   26.9680   47.2040 H   0  0  0  0  0  0  0  0  0  0  0  0
   44.6330   28.8930   46.5340 C   0  0  0  0  0  0  0  0  0  0  0  0
   43.7520   28.4920   46.0510 H   0  0  0  0  0  0  0  0  0  0  0  0
   44.8370   30.2570   46.4930 C   0  0  0  0  0  3  0  0  0  0  0  0
   45.9660   30.8040   47.1080 C   0  0  0  0  0  0  0  0  0  0  0  0
  1 19  1  0  0  0  0
  2  1  1  0  0  0  0
  3  1  1  0  0  0  0
  4  5  2  0  0  0  0
  5  1  1  0  0  0  0
  6  4  1  0  0  0  0
  6  7  1  0  0  0  0
  7  9  1  0  0  0  0
  7  8  1  0  0  0  0
 10 16  1  0  0  0  0
 11  7  1  0  0  0  0
 11 10  2  0  0  0  0
 12 11  1  0  0  0  0
 13 12  2  0  0  0  0
 13 14  1  0  0  0  0
 14 15  2  0  0  0  0
 15 10  1  0  0  0  0
 17 12  1  0  0  0  0
 18 14  1  0  0  0  0
 19 21  1  0  0  0  0
 21 20  2  6  0  0  0
 21 24  1  0  0  0  0
 22 21  1  0  0  0  0
 22 23  1  0  0  0  0
 24 25  1  0  0  0  0
 25 26  1  0  0  0  0
 26 27  2  0  0  0  0
 28 27  1  0  0  0  0
 29 30  1  0  0  0  0
 29 28  2  0  0  0  0
 31 32  1  0  0  0  0
 31 30  2  0  0  0  0
 33 31  1  0  0  0  0
 34 33  1  0  0  0  0
 35 33  2  0  0  0  0
 35 36  1  0  0  0  0
 36 25  2  0  0  0  0
 36 29  1  0  0  0  0
M  END
>  <minimizedAffinity>
-5.37582493

>  <minimizedRMSD>
0.783184111

$$$$
