
     RDKit          3D

 25 27  0  0  0  0  0  0  0  0999 V2000
   44.5443   36.0271   44.5247 C   0  0  0  0  0  0  0  0  0  0  0  0
   45.2606   35.8930   43.3191 C   0  0  0  0  0  0  0  0  0  0  0  0
   46.1288   34.7956   43.2096 C   0  0  0  0  0  0  0  0  0  0  0  0
   46.2282   33.9412   44.2505 N   0  0  0  0  0  0  0  0  0  0  0  0
   45.5283   34.0946   45.3960 C   0  0  0  0  0  0  0  0  0  0  0  0
   44.6941   35.1381   45.5172 N   0  0  0  0  0  0  0  0  0  0  0  0
   47.0667   34.5635   41.7118 S   0  0  0  0  0  0  0  0  0  0  0  0
   43.8934   36.8760   44.5689 H   0  0  0  0  0  0  0  0  0  0  0  0
   45.1356   36.6071   42.5310 H   0  0  0  0  0  0  0  0  0  0  0  0
   45.5943   33.4211   46.2405 H   0  0  0  0  0  0  0  0  0  0  0  0
   46.0789   33.5554   40.6157 C   0  0  0  0  0  0  0  0  0  0  0  0
   46.7650   32.5434   40.0114 N   0  0  0  0  0  0  0  0  0  0  0  0
   46.1549   31.6941   39.1541 C   0  0  0  0  0  0  0  0  0  0  0  0
   44.8523   31.8948   38.9294 N   0  0  0  0  0  0  0  0  0  0  0  0
   44.1135   32.8594   39.4802 C   0  0  0  0  0  0  0  0  0  0  0  0
   42.7692   33.0413   39.2279 C   0  0  0  0  0  0  0  0  0  0  0  0
   42.0949   34.0767   39.8542 C   0  0  0  0  0  0  0  0  0  0  0  0
   41.0391   34.1947   39.6360 H   0  0  0  0  0  0  0  0  0  0  0  0
   42.7600   34.9187   40.7220 C   0  0  0  0  0  0  0  0  0  0  0  0
   42.1979   35.7222   41.1966 H   0  0  0  0  0  0  0  0  0  0  0  0
   44.1171   34.7778   41.0107 C   0  0  0  0  0  0  0  0  0  0  0  0
   44.7291   33.7271   40.3539 C   0  0  0  0  0  0  0  0  0  0  0  0
   46.7381   30.8980   38.6917 H   0  0  0  0  0  0  0  0  0  0  0  0
   42.3287   32.3426   38.5407 H   0  0  0  0  0  0  0  0  0  0  0  0
   44.6513   35.4299   41.6885 H   0  0  0  0  0  0  0  0  0  0  0  0
  1  6  2  0
  2  1  1  0
  3  2  2  0
  3  4  1  0
  4  5  2  0
  5  6  1  0
  7  3  1  0
  1  8  1  0
  2  9  1  0
  5 10  1  0
 11 12  2  0
 12 13  1  0
 13 14  2  0
 14 15  1  0
 15 16  2  0
 16 17  1  0
 17 18  1  0
 17 19  2  0
 19 20  1  0
 19 21  1  0
 21 22  2  0
 22 11  1  0
 22 15  1  0
 13 23  1  0
 16 24  1  0
 21 25  1  0
  7 11  1  0
M  ISO  5   8  14   9  14  10  14  18  16  20  16
M  END
>  <DihAtoms>  (1) 
2,6,10,11

>  <DihDeg>  (1) 
-89.61400676986321

$$$$
