
     RDKit          3D

 41 43  0  0  0  0  0  0  0  0999 V2000
   42.5369   35.2801   40.8798 O   0  0  0  0  0  0  0  0  0  0  0  0
   41.2722   35.7332   41.1792 C   0  0  0  0  0  0  0  0  0  0  0  0
   40.2662   33.5773   41.6022 C   0  0  0  0  0  0  0  0  0  0  0  0
   40.1992   34.7621   40.8399 C   0  0  0  0  0  0  0  0  0  0  0  0
   39.1955   34.8567   39.9290 C   0  0  0  0  0  0  0  0  0  0  0  0
   38.3567   33.8260   39.8284 N   0  0  0  0  0  0  0  0  0  0  0  0
   38.4162   32.7149   40.5406 C   0  0  0  0  0  0  0  0  0  0  0  0
   39.4131   32.5375   41.4949 N   0  0  0  0  0  0  0  0  0  0  0  0
   43.7270   35.6838   41.4688 C   0  0  0  0  0  0  0  0  0  0  0  0
   43.9600   35.2580   42.7161 C   0  0  0  0  0  0  0  0  0  0  0  0
   45.1945   35.5815   43.5378 C   0  0  0  0  0  0  0  0  0  0  0  0
   45.0581   34.9422   44.7449 O   0  0  0  0  0  0  0  0  0  0  0  0
   45.5446   32.3476   44.4383 O   0  0  0  0  0  0  0  0  0  0  0  0
   46.1446   33.6480   44.8788 P   0  0  1  0  0  0  0  0  0  0  0  0
   47.5219   33.9457   43.9417 O   0  0  0  0  0  0  0  0  0  0  0  0
   46.6615   33.5404   46.4936 O   0  0  0  0  0  0  0  0  0  0  0  0
   41.2190   35.7979   42.3108 H   0  0  0  0  0  0  0  0  0  0  0  0
   41.0828   36.7355   40.7960 H   0  0  0  0  0  0  0  0  0  0  0  0
   41.0389   33.4015   42.3646 H   0  0  0  0  0  0  0  0  0  0  0  0
   39.1983   35.7855   39.3783 H   0  0  0  0  0  0  0  0  0  0  0  0
   37.7004   31.9094   40.4107 H   0  0  0  0  0  0  0  0  0  0  0  0
   44.4905   36.3030   41.0390 H   0  0  0  0  0  0  0  0  0  0  0  0
   43.1559   34.6269   43.1219 H   0  0  0  0  0  0  0  0  0  0  0  0
   46.0396   35.1299   42.9593 H   0  0  0  0  0  0  0  0  0  0  0  0
   45.3327   36.6701   43.6450 H   0  0  0  0  0  0  0  0  0  0  0  0
   47.9674   34.7799   44.2520 H   0  0  0  0  0  0  0  0  0  0  0  0
   47.2814   32.3514   46.8727 C   0  0  0  0  0  0  0  0  0  0  0  0
   47.4791   31.9980   48.1578 N   0  0  0  0  0  0  0  0  0  0  0  0
   48.0898   30.8257   48.4831 C   0  0  0  0  0  0  0  0  0  0  0  0
   48.4937   30.0235   47.4922 N   0  0  0  0  0  0  0  0  0  0  0  0
   48.3288   30.3131   46.1798 C   0  0  0  0  0  0  0  0  0  0  0  0
   48.8065   29.3706   45.2876 C   0  0  0  0  0  0  0  0  0  0  0  0
   48.6266   29.6885   43.9471 C   0  0  0  0  0  0  0  0  0  0  0  0
   48.9940   28.9632   43.2320 H   0  0  0  0  0  0  0  0  0  0  0  0
   48.0131   30.8654   43.5745 C   0  0  0  0  0  0  0  0  0  0  0  0
   47.8835   31.0926   42.5246 H   0  0  0  0  0  0  0  0  0  0  0  0
   47.5522   31.7762   44.5032 C   0  0  0  0  0  0  0  0  0  0  0  0
   47.7061   31.5090   45.8660 C   0  0  0  0  0  0  0  0  0  0  0  0
   48.2361   30.5660   49.5272 H   0  0  0  0  0  0  0  0  0  0  0  0
   49.2767   28.4700   45.6370 H   0  0  0  0  0  0  0  0  0  0  0  0
   47.0760   32.6902   44.2483 H   0  0  0  0  0  0  0  0  0  0  0  0
  1  2  1  0
  1  9  1  0
  4  2  1  0
  4  3  2  0
  5  4  1  0
  6  5  2  0
  6  7  1  0
  7  8  2  0
  8  3  1  0
  9 10  2  0
 10 11  1  0
 11 12  1  0
 14 12  1  1
 13 14  2  0
 14 16  1  0
 15 14  1  0
  2 17  1  0
  2 18  1  0
  3 19  1  0
  5 20  1  0
  7 21  1  0
  9 22  1  0
 10 23  1  0
 11 24  1  0
 11 25  1  0
 15 26  1  0
 27 28  2  0
 28 29  1  0
 29 30  2  0
 30 31  1  0
 31 32  2  0
 32 33  1  0
 33 34  1  0
 33 35  2  0
 35 36  1  0
 35 37  1  0
 37 38  2  0
 38 27  1  0
 38 31  1  0
 29 39  1  0
 32 40  1  0
 37 41  1  0
 16 27  1  0
M  ISO  8  17   8  18   8  19  14  20  14  21  14  24   8  25   8  26   3
M  ISO  2  34  16  36  16
M  END
>  <DihAtoms>  (1) 
13,15,26,27

>  <DihDeg>  (1) 
-0.0004538922585220017

$$$$
