REMARK  Name = 
REMARK  10 active torsions:
REMARK  status: ('A' for Active; 'I' for Inactive)
REMARK    1  A    between atoms: O_1  and  C_3
REMARK    2  A    between atoms: O_1  and  P_11
REMARK    3  A    between atoms: C_2  and  O_7
REMARK    4  A    between atoms: O_7  and  C_8
REMARK    5  A    between atoms: C_8  and  C_9
REMARK    6  A    between atoms: P_11  and  O_12
REMARK    7  A    between atoms: P_11  and  O_13
REMARK    8  A    between atoms: O_13  and  C_18
REMARK    9  A    between atoms: C_14  and  O_20
REMARK   10  A    between atoms: O_20  and  C_35
REMARK                            x       y       z     vdW  Elec       q    Type
REMARK                         _______ _______ _______ _____ _____    ______ ____
ROOT
ATOM      1  O   UNL     1      47.167  32.996  46.941  0.00  0.00    +0.000 OA
ATOM      2  P   UNL     1      45.728  32.668  46.741  0.00  0.00    +0.000 P 
ENDROOT
BRANCH   2   3
ATOM      3  O   UNL     1      45.593  31.468  45.558  0.00  0.00    +0.000 OA
ATOM      4  H   UNL     1      44.839  31.600  44.939  0.00  0.00    +0.000 HD
ENDBRANCH   2   3
BRANCH   2   5
ATOM      5  O   UNL     1      45.154  32.104  48.188  0.00  0.00    +0.000 OA
BRANCH   5   7
ATOM      6  C   UNL     1      46.984  30.571  48.207  0.00  0.00    +0.000 C 
ATOM      7  C   UNL     1      45.531  30.797  48.365  0.00  0.00    +0.000 C 
ATOM      8  C   UNL     1      44.874  29.882  47.457  0.00  0.00    +0.000 C 
ATOM      9  O   UNL     1      45.746  28.821  47.179  0.00  0.00    +0.000 OA
ATOM     10  C   UNL     1      46.836  29.017  47.956  0.00  0.00    +0.000 C 
ATOM     11  H   UNL     1      47.444  30.769  47.225  0.00  0.00    +0.000 HD
ATOM     12  H   UNL     1      45.375  30.639  49.474  0.00  0.00    +0.000 HD
ATOM     13  H   UNL     1      44.169  29.297  48.151  0.00  0.00    +0.000 HD
ATOM     14  H   UNL     1      44.141  30.138  46.725  0.00  0.00    +0.000 HD
ATOM     15  H   UNL     1      46.629  28.581  48.966  0.00  0.00    +0.000 HD
ATOM     16  H   UNL     1      47.785  28.592  47.635  0.00  0.00    +0.000 HD
BRANCH   6  17
ATOM     17  O   UNL     1      47.760  30.731  49.289  0.00  0.00    +0.000 OA
BRANCH  17  18
ATOM     18  C   UNL     1      49.012  31.093  49.289  0.00  0.00    +0.000 C 
ATOM     19  H   UNL     1      49.289  32.092  49.103  0.00  0.00    +0.000 HD
ATOM     20  H   UNL     1      49.462  30.595  48.283  0.00  0.00    +0.000 HD
BRANCH  18  21
ATOM     21  C   UNL     1      49.729  30.337  50.402  0.00  0.00    +0.000 C 
ATOM     22  H   UNL     1      49.808  30.969  51.319  0.00  0.00    +0.000 HD
ATOM     23  H   UNL     1      49.184  29.439  50.704  0.00  0.00    +0.000 HD
ATOM     24  H   UNL     1      50.752  30.101  50.055  0.00  0.00    +0.000 HD
ENDBRANCH  18  21
ENDBRANCH  17  18
ENDBRANCH   6  17
ENDBRANCH   5   7
ENDBRANCH   2   5
BRANCH   2  25
ATOM     25  O   UNL     1      44.973  34.120  46.262  0.00  0.00    +0.000 OA
BRANCH  25  30
ATOM     26  C   UNL     1      44.981  36.390  43.478  0.00  0.00    +0.000 A 
ATOM     27  C   UNL     1      45.032  35.545  42.345  0.00  0.00    +0.000 A 
ATOM     28  C   UNL     1      45.062  34.158  42.609  0.00  0.00    +0.000 A 
ATOM     29  N   UNL     1      45.042  33.727  43.888  0.00  0.00    +0.000 NA
ATOM     30  C   UNL     1      44.994  34.568  44.932  0.00  0.00    +0.000 A 
ATOM     31  N   UNL     1      44.963  35.891  44.718  0.00  0.00    +0.000 NA
ATOM     32  H   UNL     1      45.047  35.919  41.327  0.00  0.00    +0.000 HD
ATOM     33  H   UNL     1      45.101  33.451  41.788  0.00  0.00    +0.000 HD
BRANCH  26  34
ATOM     34  O   UNL     1      44.953  37.735  43.278  0.00  0.00    +0.000 OA
BRANCH  34  35
ATOM     35  C   UNL     1      44.907  38.690  44.250  0.00  0.00    +0.000 A 
ATOM     36  N   UNL     1      45.462  39.924  44.071  0.00  0.00    +0.000 NA
ATOM     37  C   UNL     1      45.375  40.813  45.077  0.00  0.00    +0.000 A 
ATOM     38  N   UNL     1      44.765  40.523  46.236  0.00  0.00    +0.000 NA
ATOM     39  C   UNL     1      44.207  39.316  46.445  0.00  0.00    +0.000 A 
ATOM     40  C   UNL     1      43.573  38.998  47.635  0.00  0.00    +0.000 A 
ATOM     41  C   UNL     1      43.004  37.761  47.844  0.00  0.00    +0.000 A 
ATOM     42  H   UNL     1      42.504  37.478  48.754  0.00  0.00    +0.000 HD
ATOM     43  C   UNL     1      43.084  36.824  46.812  0.00  0.00    +0.000 A 
ATOM     44  H   UNL     1      42.633  35.857  46.987  0.00  0.00    +0.000 HD
ATOM     45  C   UNL     1      43.714  37.106  45.597  0.00  0.00    +0.000 A 
ATOM     46  C   UNL     1      44.262  38.349  45.443  0.00  0.00    +0.000 A 
ENDBRANCH  34  35
ENDBRANCH  26  34
ENDBRANCH  25  30
ENDBRANCH   2  25
TORSDOF 10
