REMARK  Name = 
REMARK  6 active torsions:
REMARK  status: ('A' for Active; 'I' for Inactive)
REMARK    1  A    between atoms: C_1  and  C_13
REMARK    2  A    between atoms: C_9  and  N_23
REMARK    3  A    between atoms: C_12  and  C_21
REMARK    4  A    between atoms: C_15  and  C_17
REMARK    5  A    between atoms: C_21  and  C_22
REMARK    6  A    between atoms: C_22  and  C_37
REMARK                            x       y       z     vdW  Elec       q    Type
REMARK                         _______ _______ _______ _____ _____    ______ ____
ROOT
ATOM      1  C   UNL     1      44.662  35.250  45.252  0.00  0.00    +0.000 A 
ATOM      2  C   UNL     1      45.203  35.352  43.992  0.00  0.00    +0.000 A 
ATOM      3  C   UNL     1      46.217  34.468  43.585  0.00  0.00    +0.000 A 
ATOM      4  N   UNL     1      46.565  33.567  44.529  0.00  0.00    +0.000 NA
ATOM      5  C   UNL     1      46.050  33.466  45.735  0.00  0.00    +0.000 A 
ATOM      6  N   UNL     1      45.099  34.318  46.077  0.00  0.00    +0.000 NA
ATOM      7  H   UNL     1      43.886  35.956  45.511  0.00  0.00    +0.000 HD
ENDROOT
BRANCH   3   8
ATOM      8  C   UNL     1      46.861  34.451  42.321  0.00  0.00    +0.000 A 
ATOM      9  C   UNL     1      47.930  35.322  42.136  0.00  0.00    +0.000 A 
ATOM     10  C   UNL     1      48.665  35.440  40.980  0.00  0.00    +0.000 A 
ATOM     11  C   UNL     1      48.368  34.667  39.901  0.00  0.00    +0.000 A 
ATOM     12  C   UNL     1      47.322  33.778  40.005  0.00  0.00    +0.000 A 
ATOM     13  C   UNL     1      46.969  32.973  38.959  0.00  0.00    +0.000 A 
ATOM     14  C   UNL     1      45.936  32.078  39.023  0.00  0.00    +0.000 A 
ATOM     15  C   UNL     1      45.222  32.005  40.235  0.00  0.00    +0.000 A 
ATOM     16  C   UNL     1      45.608  32.832  41.264  0.00  0.00    +0.000 A 
ATOM     17  C   UNL     1      46.618  33.706  41.197  0.00  0.00    +0.000 A 
ATOM     18  H   UNL     1      48.258  35.992  42.937  0.00  0.00    +0.000 HD
ATOM     19  H   UNL     1      49.484  36.127  40.879  0.00  0.00    +0.000 HD
ATOM     20  H   UNL     1      48.916  34.734  38.994  0.00  0.00    +0.000 HD
ATOM     21  H   UNL     1      47.530  33.056  38.059  0.00  0.00    +0.000 HD
ATOM     22  H   UNL     1      45.692  31.459  38.168  0.00  0.00    +0.000 HD
ATOM     23  H   UNL     1      44.426  31.294  40.241  0.00  0.00    +0.000 HD
BRANCH  16  24
ATOM     24  N   UNL     1      44.797  32.645  42.405  0.00  0.00    +0.000 N 
ATOM     25  H   UNL     1      43.979  33.035  42.886  0.00  0.00    +0.000 HD
ATOM     26  H   UNL     1      45.220  31.796  42.887  0.00  0.00    +0.000 HD
ENDBRANCH  16  24
ENDBRANCH   3   8
BRANCH   5  27
ATOM     27  C   UNL     1      46.629  32.369  46.573  0.00  0.00    +0.000 C 
ATOM     28  F   UNL     1      45.655  31.616  47.151  0.00  0.00    +0.000 F 
ATOM     29  F   UNL     1      47.487  32.891  47.526  0.00  0.00    +0.000 F 
ATOM     30  F   UNL     1      47.479  31.581  45.761  0.00  0.00    +0.000 F 
ENDBRANCH   5  27
BRANCH   2  31
ATOM     31  C   UNL     1      44.821  36.356  42.960  0.00  0.00    +0.000 C 
ATOM     32  H   UNL     1      45.688  36.576  42.285  0.00  0.00    +0.000 HD
ATOM     33  H   UNL     1      44.641  37.267  43.515  0.00  0.00    +0.000 HD
BRANCH  31  34
ATOM     34  C   UNL     1      43.699  35.946  42.090  0.00  0.00    +0.000 C 
ATOM     35  H   UNL     1      43.888  35.097  41.437  0.00  0.00    +0.000 HD
ATOM     36  H   UNL     1      43.602  36.770  41.316  0.00  0.00    +0.000 HD
BRANCH  34  37
ATOM     37  C   UNL     1      42.401  35.727  42.782  0.00  0.00    +0.000 A 
ATOM     38  N   UNL     1      41.606  36.571  43.453  0.00  0.00    +0.000 NA
ATOM     39  C   UNL     1      40.458  36.328  44.039  0.00  0.00    +0.000 A 
ATOM     40  N   UNL     1      39.938  35.093  44.009  0.00  0.00    +0.000 NA
ATOM     41  C   UNL     1      40.638  34.134  43.362  0.00  0.00    +0.000 A 
ATOM     42  C   UNL     1      40.056  32.885  43.372  0.00  0.00    +0.000 A 
ATOM     43  C   UNL     1      40.719  31.857  42.737  0.00  0.00    +0.000 A 
ATOM     44  H   UNL     1      40.274  30.880  42.738  0.00  0.00    +0.000 HD
ATOM     45  C   UNL     1      41.927  32.097  42.119  0.00  0.00    +0.000 A 
ATOM     46  H   UNL     1      42.419  31.279  41.635  0.00  0.00    +0.000 HD
ATOM     47  C   UNL     1      42.435  33.379  42.159  0.00  0.00    +0.000 A 
ATOM     48  C   UNL     1      41.840  34.465  42.769  0.00  0.00    +0.000 A 
ENDBRANCH  34  37
ENDBRANCH  31  34
ENDBRANCH   2  31
TORSDOF 6
