
     RDKit          3D

 31 33  0  0  0  0  0  0  0  0999 V2000
   45.4354   35.1921   43.0969 C   0  0  0  0  0  0  0  0  0  0  0  0
   46.4599   35.5686   42.2004 C   0  0  0  0  0  0  0  0  0  0  0  0
   47.6813   34.8874   42.3817 C   0  0  0  0  0  0  0  0  0  0  0  0
   47.7680   33.9608   43.3665 N   0  0  0  0  0  0  0  0  0  0  0  0
   46.7388   33.6497   44.1936 C   0  0  0  0  0  0  0  0  0  0  0  0
   45.5635   34.2730   44.0547 N   0  0  0  0  0  0  0  0  0  0  0  0
   43.3936   35.3500   41.8825 C   0  0  0  0  0  0  0  0  0  0  0  0
   43.9509   34.4775   41.1724 O   0  0  0  0  0  0  0  0  0  0  0  0
   44.1507   35.8115   42.9837 N   0  0  0  0  0  0  0  0  0  0  0  0
   48.7415   35.2766   41.4524 C   0  0  0  0  0  0  0  0  0  0  0  0
   49.8478   34.4359   41.6601 F   0  0  0  0  0  0  0  0  0  0  0  0
   49.1503   36.5403   41.8148 F   0  0  0  0  0  0  0  0  0  0  0  0
   48.3901   35.1486   40.1362 F   0  0  0  0  0  0  0  0  0  0  0  0
   46.3097   36.3107   41.4499 H   0  0  0  0  0  0  0  0  0  0  0  0
   46.9575   32.8901   44.9319 H   0  0  0  0  0  0  0  0  0  0  0  0
   43.8596   36.5154   43.6633 H   0  0  0  0  0  0  0  0  0  0  0  0
   42.0739   36.0236   41.8172 C   0  0  0  0  0  0  0  0  0  0  0  0
   41.7582   37.1429   42.4989 N   0  0  0  0  0  0  0  0  0  0  0  0
   40.5797   37.7428   42.4396 C   0  0  0  0  0  0  0  0  0  0  0  0
   39.5901   37.2804   41.6868 N   0  0  0  0  0  0  0  0  0  0  0  0
   39.8032   36.1573   40.9592 C   0  0  0  0  0  0  0  0  0  0  0  0
   38.7769   35.6821   40.1815 C   0  0  0  0  0  0  0  0  0  0  0  0
   38.9336   34.5568   39.4286 C   0  0  0  0  0  0  0  0  0  0  0  0
   38.0750   34.2566   38.8489 H   0  0  0  0  0  0  0  0  0  0  0  0
   40.1641   33.9234   39.4853 C   0  0  0  0  0  0  0  0  0  0  0  0
   40.2612   33.0279   38.8745 H   0  0  0  0  0  0  0  0  0  0  0  0
   41.1665   34.4350   40.2793 C   0  0  0  0  0  0  0  0  0  0  0  0
   41.0402   35.5577   41.0432 C   0  0  0  0  0  0  0  0  0  0  0  0
   40.5858   38.6266   43.0854 H   0  0  0  0  0  0  0  0  0  0  0  0
   37.8251   36.2359   40.1841 H   0  0  0  0  0  0  0  0  0  0  0  0
   42.0621   33.8766   40.2498 H   0  0  0  0  0  0  0  0  0  0  0  0
  1  6  2  0
  2  3  2  0
  2  1  1  0
  3  4  1  0
  4  5  2  0
  6  5  1  0
  7  9  1  0
  8  7  2  0
  9  1  1  0
 10 11  1  0
 10 12  1  0
 10  3  1  0
 13 10  1  0
  2 14  1  0
  5 15  1  0
  9 16  1  0
 17 18  2  0
 18 19  1  0
 19 20  2  0
 20 21  1  0
 21 22  2  0
 22 23  1  0
 23 24  1  0
 23 25  2  0
 25 26  1  0
 25 27  1  0
 27 28  2  0
 28 17  1  0
 28 21  1  0
 19 29  1  0
 22 30  1  0
 27 31  1  0
  7 17  1  0
M  ISO  4  14  14  15  14  24  16  26  16
M  END
>  <DihAtoms>  (1) 
8,6,16,17

>  <DihDeg>  (1) 
0.03775734292161675

$$$$
