
 OpenBabel03252507593D

 32 35  0  0  1  0  0  0  0  0999 V2000
   46.3380   34.6650   43.2960 C   0  0  0  0  0  0  0  0  0  0  0  0
   45.3740   35.7020   43.5540 C   0  0  0  0  0  0  0  0  0  0  0  0
   44.6610   35.6020   44.7470 C   0  0  0  0  0  0  0  0  0  0  0  0
   44.9110   34.5590   45.5740 N   0  0  0  0  0  0  0  0  0  0  0  0
   45.8450   33.6010   45.2690 C   0  0  0  0  0  0  0  0  0  0  0  0
   46.5640   33.6270   44.1540 N   0  0  0  0  0  0  0  0  0  0  0  0
   45.2510   36.4790   42.8430 H   0  0  0  0  0  0  0  0  0  0  0  0
   43.9350   36.3610   44.9690 H   0  0  0  0  0  0  0  0  0  0  0  0
   46.0660   32.4850   46.2350 C   0  0  1  0  0  0  0  0  0  0  0  0
   46.8540   32.7630   47.4930 C   0  0  0  0  0  0  0  0  0  0  0  0
   45.3560   32.6380   47.5210 C   0  0  1  0  0  0  0  0  0  0  0  0
   46.1630   31.4720   45.7980 H   0  0  0  0  0  0  0  0  0  0  0  0
   47.4750   31.9180   47.8550 H   0  0  0  0  0  0  0  0  0  0  0  0
   47.3390   33.7690   47.4830 H   0  0  0  0  0  0  0  0  0  0  0  0
   44.9980   31.7350   48.0750 H   0  0  0  0  0  0  0  0  0  0  0  0
   44.6960   33.9100   47.8340 N   0  0  0  0  0  0  0  0  0  0  0  0
   45.3560   34.5870   48.2910 H   0  0  0  0  0  0  0  0  0  0  0  0
   43.9610   33.7130   48.5610 H   0  0  0  0  0  0  0  0  0  0  0  0
   47.0450   34.7630   42.0460 C   0  0  2  0  0  3  0  0  0  0  0  0
   47.9680   35.6610   41.8730 O   0  0  0  0  0  1  0  0  0  0  0  0
   47.0200   34.0640   40.7640 C   0  0  0  0  0  0  0  0  0  0  0  0
   48.1880   33.6730   40.2310 N   0  0  0  0  0  0  0  0  0  0  0  0
   48.2690   33.0120   39.0340 C   0  0  0  0  0  3  0  0  0  0  0  0
   47.1790   32.7200   38.3310 N   0  0  0  0  0  0  0  0  0  0  0  0
   45.9390   33.0690   38.7770 C   0  0  0  0  0  0  0  0  0  0  0  0
   44.7860   32.7830   38.0830 C   0  0  0  0  0  3  0  0  0  0  0  0
   43.5450   33.1430   38.5610 C   0  0  0  0  0  0  0  0  0  0  0  0
   42.7240   32.8670   37.9340 H   0  0  0  0  0  0  0  0  0  0  0  0
   43.5190   33.8140   39.7860 C   0  0  0  0  0  0  0  0  0  0  0  0
   42.5370   34.0830   40.1350 H   0  0  0  0  0  0  0  0  0  0  0  0
   44.6970   34.0720   40.4320 C   0  0  0  0  0  3  0  0  0  0  0  0
   45.9430   33.7280   39.9820 C   0  0  0  0  0  0  0  0  0  0  0  0
  1  2  2  0  0  0  0
  1  6  1  0  0  0  0
  2  3  1  0  0  0  0
  3  8  1  0  0  0  0
  3  4  2  0  0  0  0
  5  4  1  0  0  0  0
  5  9  1  0  0  0  0
  6  5  2  0  0  0  0
  7  2  1  0  0  0  0
  9 12  1  6  0  0  0
  9 10  1  0  0  0  0
  9 11  1  0  0  0  0
 10 11  1  0  0  0  0
 10 13  1  0  0  0  0
 11 16  1  0  0  0  0
 11 15  1  1  0  0  0
 14 10  1  0  0  0  0
 16 17  1  0  0  0  0
 16 18  1  0  0  0  0
 19 20  1  6  0  0  0
 19  1  1  0  0  0  0
 21 19  1  0  0  0  0
 22 21  1  0  0  0  0
 23 22  2  0  0  0  0
 24 25  2  0  0  0  0
 24 23  1  0  0  0  0
 25 32  1  0  0  0  0
 26 27  2  0  0  0  0
 26 25  1  0  0  0  0
 27 29  1  0  0  0  0
 28 27  1  0  0  0  0
 29 30  1  0  0  0  0
 29 31  2  0  0  0  0
 32 31  1  0  0  0  0
 32 21  2  0  0  0  0
M  END
>  <minimizedAffinity>
-6.14017344

>  <minimizedRMSD>
1.1192956

$$$$
