
 OpenBabel03242520183D

 34 37  0  0  0  0  0  0  0  0999 V2000
   37.9450   29.2160   43.2690 C   0  0  0  0  0  0  0  0  0  0  0  0
   39.0370   29.3630   43.2650 H   0  0  0  0  0  0  0  0  0  0  0  0
   37.5200   29.8870   44.0420 H   0  0  0  0  0  0  0  0  0  0  0  0
   37.2430   30.9380   39.9870 C   0  0  0  0  0  0  0  0  0  0  0  0
   37.8560   30.6200   41.2100 C   0  0  0  0  0  0  0  0  0  0  0  0
   37.3210   29.5900   41.9760 C   0  0  0  0  0  0  0  0  0  0  0  0
   36.2200   28.9410   41.4890 N   0  0  0  0  0  0  0  0  0  0  0  0
   35.6640   29.2890   40.2980 C   0  0  0  0  0  0  0  0  0  0  0  0
   36.1650   30.2720   39.5530 N   0  0  0  0  0  0  0  0  0  0  0  0
   38.7040   31.1870   41.4970 H   0  0  0  0  0  0  0  0  0  0  0  0
   34.8000   28.7580   39.9470 H   0  0  0  0  0  0  0  0  0  0  0  0
   37.8070   32.0350   39.1600 C   0  0  0  0  0  0  0  0  0  0  0  0
   37.2430   33.4400   39.5600 C   0  0  0  0  0  0  0  0  0  0  0  0
   38.6780   33.0470   39.6650 C   0  0  0  0  0  0  0  0  0  0  0  0
   37.5880   31.8550   38.0700 H   0  0  0  0  0  0  0  0  0  0  0  0
   36.7110   33.5040   40.5280 H   0  0  0  0  0  0  0  0  0  0  0  0
   36.9000   34.1040   38.7740 H   0  0  0  0  0  0  0  0  0  0  0  0
   39.1990   32.9260   40.6210 H   0  0  0  0  0  0  0  0  0  0  0  0
   39.3270   33.5840   38.9140 H   0  0  0  0  0  0  0  0  0  0  0  0
   37.6020   27.7920   43.6730 C   0  0  0  0  0  0  0  0  0  0  0  0
   36.7020   27.5300   43.0740 H   0  0  0  0  0  0  0  0  0  0  0  0
   37.2850   27.7200   44.7290 H   0  0  0  0  0  0  0  0  0  0  0  0
   38.6830   26.8460   43.3250 C   0  0  0  0  0  0  0  0  0  0  0  0
   39.9870   26.9610   43.6800 N   0  0  0  0  0  0  0  0  0  0  0  0
   40.8910   26.0270   43.3000 C   0  0  0  0  0  3  0  0  0  0  0  0
   40.5610   24.9380   42.5580 N   0  0  0  0  0  0  0  0  0  0  0  0
   39.2890   24.7860   42.1870 C   0  0  0  0  0  0  0  0  0  0  0  0
   38.9530   23.6820   41.4330 C   0  0  0  0  0  3  0  0  0  0  0  0
   37.6260   23.5080   41.0370 C   0  0  0  0  0  0  0  0  0  0  0  0
   37.3420   22.6520   40.4480 H   0  0  0  0  0  0  0  0  0  0  0  0
   36.6440   24.4260   41.3890 C   0  0  0  0  0  0  0  0  0  0  0  0
   35.6240   24.2970   41.0880 H   0  0  0  0  0  0  0  0  0  0  0  0
   37.0660   25.5090   42.1490 C   0  0  0  0  0  3  0  0  0  0  0  0
   38.3600   25.7320   42.5690 C   0  0  0  0  0  0  0  0  0  0  0  0
  1 20  1  0  0  0  0
  1  3  1  0  0  0  0
  2  1  1  0  0  0  0
  4  5  1  0  0  0  0
  5 10  1  0  0  0  0
  5  6  2  0  0  0  0
  6  1  1  0  0  0  0
  7  6  1  0  0  0  0
  8  7  2  0  0  0  0
  9  4  2  0  0  0  0
  9  8  1  0  0  0  0
 11  8  1  0  0  0  0
 12 13  1  0  0  0  0
 12 14  1  0  0  0  0
 12  4  1  0  0  0  0
 13 14  1  0  0  0  0
 13 16  1  0  0  0  0
 14 18  1  0  0  0  0
 15 12  1  0  0  0  0
 17 13  1  0  0  0  0
 19 14  1  0  0  0  0
 20 22  1  0  0  0  0
 21 20  1  0  0  0  0
 23 20  1  0  0  0  0
 23 24  1  0  0  0  0
 25 24  2  0  0  0  0
 26 25  1  0  0  0  0
 27 26  2  0  0  0  0
 27 34  1  0  0  0  0
 28 27  1  0  0  0  0
 29 31  1  0  0  0  0
 29 28  2  0  0  0  0
 30 29  1  0  0  0  0
 31 33  2  0  0  0  0
 32 31  1  0  0  0  0
 33 34  1  0  0  0  0
 34 23  2  0  0  0  0
M  END
>  <minimizedAffinity>
-5.71068668

$$$$

 OpenBabel03242520183D

 34 37  0  0  0  0  0  0  0  0999 V2000
   36.1780   26.6560   38.5160 C   0  0  0  0  0  0  0  0  0  0  0  0
   37.0520   26.7780   37.8570 H   0  0  0  0  0  0  0  0  0  0  0  0
   35.4930   25.9330   38.0310 H   0  0  0  0  0  0  0  0  0  0  0  0
   37.1580   26.3680   42.1480 C   0  0  0  0  0  0  0  0  0  0  0  0
   36.8270   26.9390   40.9080 C   0  0  0  0  0  0  0  0  0  0  0  0
   36.5420   26.0940   39.8400 C   0  0  0  0  0  0  0  0  0  0  0  0
   36.6010   24.7460   40.0630 N   0  0  0  0  0  0  0  0  0  0  0  0
   36.9270   24.2450   41.2830 C   0  0  0  0  0  0  0  0  0  0  0  0
   37.2020   25.0400   42.3150 N   0  0  0  0  0  0  0  0  0  0  0  0
   36.8120   27.9960   40.8400 H   0  0  0  0  0  0  0  0  0  0  0  0
   36.9650   23.1820   41.4220 H   0  0  0  0  0  0  0  0  0  0  0  0
   37.4630   27.2620   43.2950 C   0  0  0  0  0  0  0  0  0  0  0  0
   38.9780   27.6460   43.3700 C   0  0  0  0  0  0  0  0  0  0  0  0
   37.8710   28.6220   43.1590 C   0  0  0  0  0  0  0  0  0  0  0  0
   37.1660   26.7680   44.2630 H   0  0  0  0  0  0  0  0  0  0  0  0
   39.5890   27.4400   42.4710 H   0  0  0  0  0  0  0  0  0  0  0  0
   39.4850   27.5720   44.3270 H   0  0  0  0  0  0  0  0  0  0  0  0
   37.7250   29.1710   42.2220 H   0  0  0  0  0  0  0  0  0  0  0  0
   37.7130   29.2950   44.0520 H   0  0  0  0  0  0  0  0  0  0  0  0
   35.4240   27.9700   38.6470 C   0  0  0  0  0  0  0  0  0  0  0  0
   35.4350   28.2030   39.7330 H   0  0  0  0  0  0  0  0  0  0  0  0
   34.3570   27.8690   38.3770 H   0  0  0  0  0  0  0  0  0  0  0  0
   36.1040   29.0680   37.9280 C   0  0  0  0  0  0  0  0  0  0  0  0
   36.3810   29.1000   36.6000 N   0  0  0  0  0  0  0  0  0  0  0  0
   37.0120   30.1650   36.0520 C   0  0  0  0  0  3  0  0  0  0  0  0
   37.3990   31.2470   36.7770 N   0  0  0  0  0  0  0  0  0  0  0  0
   37.1480   31.2560   38.0870 C   0  0  0  0  0  0  0  0  0  0  0  0
   37.5410   32.3530   38.8230 C   0  0  0  0  0  3  0  0  0  0  0  0
   37.2840   32.3790   40.1940 C   0  0  0  0  0  0  0  0  0  0  0  0
   37.5830   33.2260   40.7880 H   0  0  0  0  0  0  0  0  0  0  0  0
   36.6410   31.3210   40.8250 C   0  0  0  0  0  0  0  0  0  0  0  0
   36.4410   31.3360   41.8780 H   0  0  0  0  0  0  0  0  0  0  0  0
   36.2780   30.2550   40.0120 C   0  0  0  0  0  3  0  0  0  0  0  0
   36.5040   30.1760   38.6550 C   0  0  0  0  0  0  0  0  0  0  0  0
  1 20  1  0  0  0  0
  1  6  1  0  0  0  0
  2  1  1  0  0  0  0
  3  1  1  0  0  0  0
  4  9  1  0  0  0  0
  4 12  1  0  0  0  0
  5  4  2  0  0  0  0
  6  7  2  0  0  0  0
  6  5  1  0  0  0  0
  7  8  1  0  0  0  0
  8 11  1  0  0  0  0
  8  9  2  0  0  0  0
 10  5  1  0  0  0  0
 12 13  1  0  0  0  0
 12 15  1  0  0  0  0
 13 17  1  0  0  0  0
 14 12  1  0  0  0  0
 14 13  1  0  0  0  0
 14 19  1  0  0  0  0
 16 13  1  0  0  0  0
 18 14  1  0  0  0  0
 20 21  1  0  0  0  0
 22 20  1  0  0  0  0
 23 20  1  0  0  0  0
 23 34  1  0  0  0  0
 24 23  2  0  0  0  0
 25 24  1  0  0  0  0
 25 26  2  0  0  0  0
 26 27  1  0  0  0  0
 27 34  2  0  0  0  0
 27 28  1  0  0  0  0
 28 29  2  0  0  0  0
 29 30  1  0  0  0  0
 29 31  1  0  0  0  0
 31 32  1  0  0  0  0
 33 31  2  0  0  0  0
 34 33  1  0  0  0  0
M  END
>  <minimizedAffinity>
-5.42416811

$$$$

 OpenBabel03242520183D

 34 37  0  0  0  0  0  0  0  0999 V2000
   38.4190   27.9800   43.6610 C   0  0  0  0  0  0  0  0  0  0  0  0
   38.3500   28.0060   44.7610 H   0  0  0  0  0  0  0  0  0  0  0  0
   39.3530   28.5020   43.3740 H   0  0  0  0  0  0  0  0  0  0  0  0
   37.5970   24.7460   41.9030 C   0  0  0  0  0  0  0  0  0  0  0  0
   37.4670   26.0560   42.3930 C   0  0  0  0  0  0  0  0  0  0  0  0
   38.5130   26.5970   43.1340 C   0  0  0  0  0  0  0  0  0  0  0  0
   39.6150   25.8150   43.3440 N   0  0  0  0  0  0  0  0  0  0  0  0
   39.6900   24.5520   42.8470 C   0  0  0  0  0  0  0  0  0  0  0  0
   38.6980   24.0200   42.1350 N   0  0  0  0  0  0  0  0  0  0  0  0
   36.5700   26.5750   42.1770 H   0  0  0  0  0  0  0  0  0  0  0  0
   40.5700   23.9660   43.0310 H   0  0  0  0  0  0  0  0  0  0  0  0
   36.4870   24.1590   41.1090 C   0  0  0  0  0  0  0  0  0  0  0  0
   36.4270   24.7260   39.6510 C   0  0  0  0  0  0  0  0  0  0  0  0
   36.6780   23.2950   39.9890 C   0  0  0  0  0  0  0  0  0  0  0  0
   35.4990   24.3560   41.6150 H   0  0  0  0  0  0  0  0  0  0  0  0
   37.3170   25.2780   39.2960 H   0  0  0  0  0  0  0  0  0  0  0  0
   35.4690   25.0490   39.2590 H   0  0  0  0  0  0  0  0  0  0  0  0
   37.6360   22.7950   39.8120 H   0  0  0  0  0  0  0  0  0  0  0  0
   35.8130   22.6280   39.7050 H   0  0  0  0  0  0  0  0  0  0  0  0
   37.2660   28.7480   43.0380 C   0  0  0  0  0  0  0  0  0  0  0  0
   36.8550   29.3730   43.8600 H   0  0  0  0  0  0  0  0  0  0  0  0
   36.4380   28.0830   42.7300 H   0  0  0  0  0  0  0  0  0  0  0  0
   37.7240   29.6450   41.9560 C   0  0  0  0  0  0  0  0  0  0  0  0
   38.7810   30.4920   42.0170 N   0  0  0  0  0  0  0  0  0  0  0  0
   39.1060   31.2690   40.9570 C   0  0  0  0  0  3  0  0  0  0  0  0
   38.4130   31.2520   39.7890 N   0  0  0  0  0  0  0  0  0  0  0  0
   37.3650   30.4340   39.6860 C   0  0  0  0  0  0  0  0  0  0  0  0
   36.6600   30.4160   38.5010 C   0  0  0  0  0  3  0  0  0  0  0  0
   35.5610   29.5650   38.3770 C   0  0  0  0  0  0  0  0  0  0  0  0
   34.9970   29.5350   37.4600 H   0  0  0  0  0  0  0  0  0  0  0  0
   35.1690   28.7390   39.4230 C   0  0  0  0  0  0  0  0  0  0  0  0
   34.3260   28.0830   39.3320 H   0  0  0  0  0  0  0  0  0  0  0  0
   35.9320   28.8180   40.5810 C   0  0  0  0  0  3  0  0  0  0  0  0
   37.0260   29.6370   40.7600 C   0  0  0  0  0  0  0  0  0  0  0  0
  1  2  1  0  0  0  0
  3  1  1  0  0  0  0
  4  9  2  0  0  0  0
  4  5  1  0  0  0  0
  5  6  2  0  0  0  0
  6  7  1  0  0  0  0
  6  1  1  0  0  0  0
  8 11  1  0  0  0  0
  8  7  2  0  0  0  0
  9  8  1  0  0  0  0
 10  5  1  0  0  0  0
 12 15  1  0  0  0  0
 12  4  1  0  0  0  0
 13 14  1  0  0  0  0
 13 12  1  0  0  0  0
 14 12  1  0  0  0  0
 16 13  1  0  0  0  0
 17 13  1  0  0  0  0
 18 14  1  0  0  0  0
 19 14  1  0  0  0  0
 20  1  1  0  0  0  0
 20 21  1  0  0  0  0
 22 20  1  0  0  0  0
 23 24  1  0  0  0  0
 23 20  1  0  0  0  0
 25 24  2  0  0  0  0
 26 25  1  0  0  0  0
 27 26  2  0  0  0  0
 27 34  1  0  0  0  0
 28 27  1  0  0  0  0
 29 28  2  0  0  0  0
 29 31  1  0  0  0  0
 30 29  1  0  0  0  0
 31 33  2  0  0  0  0
 32 31  1  0  0  0  0
 33 34  1  0  0  0  0
 34 23  2  0  0  0  0
M  END
>  <minimizedAffinity>
-5.41401291

$$$$

 OpenBabel03242520183D

 34 37  0  0  0  0  0  0  0  0999 V2000
   35.5650   30.0320   40.5690 C   0  0  0  0  0  0  0  0  0  0  0  0
   35.5460   30.3680   41.6180 H   0  0  0  0  0  0  0  0  0  0  0  0
   34.5640   30.2320   40.1370 H   0  0  0  0  0  0  0  0  0  0  0  0
   38.2590   32.4580   39.5290 C   0  0  0  0  0  0  0  0  0  0  0  0
   37.3310   31.7770   40.3330 C   0  0  0  0  0  0  0  0  0  0  0  0
   36.5500   30.7820   39.7530 C   0  0  0  0  0  0  0  0  0  0  0  0
   36.7350   30.5240   38.4220 N   0  0  0  0  0  0  0  0  0  0  0  0
   37.6480   31.2130   37.6890 C   0  0  0  0  0  0  0  0  0  0  0  0
   38.4030   32.1680   38.2300 N   0  0  0  0  0  0  0  0  0  0  0  0
   37.2630   32.0560   41.3520 H   0  0  0  0  0  0  0  0  0  0  0  0
   37.7660   30.9840   36.6470 H   0  0  0  0  0  0  0  0  0  0  0  0
   39.0990   33.5210   40.1390 C   0  0  0  0  0  0  0  0  0  0  0  0
   40.4750   32.9790   40.6520 C   0  0  0  0  0  0  0  0  0  0  0  0
   40.3190   33.9970   39.5720 C   0  0  0  0  0  0  0  0  0  0  0  0
   38.5550   34.0010   41.0010 H   0  0  0  0  0  0  0  0  0  0  0  0
   40.7760   31.9750   40.2980 H   0  0  0  0  0  0  0  0  0  0  0  0
   40.8070   33.2620   41.6450 H   0  0  0  0  0  0  0  0  0  0  0  0
   40.5740   33.8050   38.5250 H   0  0  0  0  0  0  0  0  0  0  0  0
   40.6670   35.0210   39.8940 H   0  0  0  0  0  0  0  0  0  0  0  0
   35.7940   28.5310   40.4960 C   0  0  0  0  0  0  0  0  0  0  0  0
   36.2790   28.3600   39.5110 H   0  0  0  0  0  0  0  0  0  0  0  0
   34.8460   27.9630   40.4610 H   0  0  0  0  0  0  0  0  0  0  0  0
   36.7130   28.0630   41.5550 C   0  0  0  0  0  0  0  0  0  0  0  0
   37.1720   28.8030   42.5950 N   0  0  0  0  0  0  0  0  0  0  0  0
   38.0140   28.2630   43.5080 C   0  0  0  0  0  3  0  0  0  0  0  0
   38.4440   26.9760   43.4450 N   0  0  0  0  0  0  0  0  0  0  0  0
   38.0180   26.2130   42.4370 C   0  0  0  0  0  0  0  0  0  0  0  0
   38.4540   24.9070   42.3710 C   0  0  0  0  0  3  0  0  0  0  0  0
   38.0160   24.0960   41.3240 C   0  0  0  0  0  0  0  0  0  0  0  0
   38.3450   23.0730   41.2540 H   0  0  0  0  0  0  0  0  0  0  0  0
   37.1510   24.5820   40.3510 C   0  0  0  0  0  0  0  0  0  0  0  0
   36.8120   23.9630   39.5440 H   0  0  0  0  0  0  0  0  0  0  0  0
   36.7600   25.9070   40.4900 C   0  0  0  0  0  3  0  0  0  0  0  0
   37.1580   26.7540   41.5020 C   0  0  0  0  0  0  0  0  0  0  0  0
  1  2  1  0  0  0  0
  3  1  1  0  0  0  0
  4 12  1  0  0  0  0
  4  5  1  0  0  0  0
  5 10  1  0  0  0  0
  6  5  2  0  0  0  0
  6  1  1  0  0  0  0
  7  6  1  0  0  0  0
  8  9  1  0  0  0  0
  8  7  2  0  0  0  0
  9  4  2  0  0  0  0
 11  8  1  0  0  0  0
 12 13  1  0  0  0  0
 12 15  1  0  0  0  0
 13 17  1  0  0  0  0
 14 19  1  0  0  0  0
 14 12  1  0  0  0  0
 14 13  1  0  0  0  0
 16 13  1  0  0  0  0
 18 14  1  0  0  0  0
 20  1  1  0  0  0  0
 20 23  1  0  0  0  0
 21 20  1  0  0  0  0
 22 20  1  0  0  0  0
 23 24  1  0  0  0  0
 24 25  2  0  0  0  0
 26 25  1  0  0  0  0
 27 26  2  0  0  0  0
 28 27  1  0  0  0  0
 29 28  2  0  0  0  0
 30 29  1  0  0  0  0
 31 33  2  0  0  0  0
 31 29  1  0  0  0  0
 32 31  1  0  0  0  0
 33 34  1  0  0  0  0
 34 23  2  0  0  0  0
 34 27  1  0  0  0  0
M  END
>  <minimizedAffinity>
-5.37975264

$$$$

 OpenBabel03242520183D

 34 37  0  0  0  0  0  0  0  0999 V2000
   35.5890   28.8080   39.6690 C   0  0  0  0  0  0  0  0  0  0  0  0
   34.5230   29.0340   39.8310 H   0  0  0  0  0  0  0  0  0  0  0  0
   35.6460   27.9730   38.9420 H   0  0  0  0  0  0  0  0  0  0  0  0
   37.3590   32.1150   39.2660 C   0  0  0  0  0  0  0  0  0  0  0  0
   36.6530   31.0560   39.8590 C   0  0  0  0  0  0  0  0  0  0  0  0
   36.3260   29.9520   39.0780 C   0  0  0  0  0  0  0  0  0  0  0  0
   36.7150   29.9640   37.7670 N   0  0  0  0  0  0  0  0  0  0  0  0
   37.3970   31.0150   37.2420 C   0  0  0  0  0  0  0  0  0  0  0  0
   37.7180   32.0780   37.9760 N   0  0  0  0  0  0  0  0  0  0  0  0
   36.3960   31.1470   40.8830 H   0  0  0  0  0  0  0  0  0  0  0  0
   37.6860   30.9910   36.2080 H   0  0  0  0  0  0  0  0  0  0  0  0
   37.7150   33.2970   40.0920 C   0  0  0  0  0  0  0  0  0  0  0  0
   38.9590   33.0380   41.0060 C   0  0  0  0  0  0  0  0  0  0  0  0
   38.9090   34.0590   39.9200 C   0  0  0  0  0  0  0  0  0  0  0  0
   36.8440   33.5960   40.7410 H   0  0  0  0  0  0  0  0  0  0  0  0
   39.5700   32.1460   40.7730 H   0  0  0  0  0  0  0  0  0  0  0  0
   38.9040   33.3280   42.0500 H   0  0  0  0  0  0  0  0  0  0  0  0
   39.5040   33.9890   39.0030 H   0  0  0  0  0  0  0  0  0  0  0  0
   38.9040   35.1140   40.3210 H   0  0  0  0  0  0  0  0  0  0  0  0
   36.2320   28.3250   40.9580 C   0  0  0  0  0  0  0  0  0  0  0  0
   35.3960   28.2430   41.6860 H   0  0  0  0  0  0  0  0  0  0  0  0
   36.9250   29.0730   41.3870 H   0  0  0  0  0  0  0  0  0  0  0  0
   36.8440   26.9890   40.8010 C   0  0  0  0  0  0  0  0  0  0  0  0
   36.5390   26.0810   39.8400 N   0  0  0  0  0  0  0  0  0  0  0  0
   37.1690   24.8830   39.7960 C   0  0  0  0  0  3  0  0  0  0  0  0
   38.1270   24.5200   40.6880 N   0  0  0  0  0  0  0  0  0  0  0  0
   38.4580   25.3830   41.6510 C   0  0  0  0  0  0  0  0  0  0  0  0
   39.4290   25.0160   42.5560 C   0  0  0  0  0  3  0  0  0  0  0  0
   39.7870   25.9080   43.5690 C   0  0  0  0  0  0  0  0  0  0  0  0
   40.5440   25.6410   44.2870 H   0  0  0  0  0  0  0  0  0  0  0  0
   39.1830   27.1540   43.6750 C   0  0  0  0  0  0  0  0  0  0  0  0
   39.4540   27.8430   44.4510 H   0  0  0  0  0  0  0  0  0  0  0  0
   38.2150   27.4460   42.7230 C   0  0  0  0  0  3  0  0  0  0  0  0
   37.8220   26.6070   41.7030 C   0  0  0  0  0  0  0  0  0  0  0  0
  1  2  1  0  0  0  0
  1 20  1  0  0  0  0
  3  1  1  0  0  0  0
  4  5  1  0  0  0  0
  4 12  1  0  0  0  0
  5 10  1  0  0  0  0
  6  1  1  0  0  0  0
  6  5  2  0  0  0  0
  7  6  1  0  0  0  0
  8  7  2  0  0  0  0
  8  9  1  0  0  0  0
  9  4  2  0  0  0  0
 11  8  1  0  0  0  0
 12 15  1  0  0  0  0
 12 13  1  0  0  0  0
 13 17  1  0  0  0  0
 14 12  1  0  0  0  0
 14 19  1  0  0  0  0
 14 13  1  0  0  0  0
 16 13  1  0  0  0  0
 18 14  1  0  0  0  0
 20 22  1  0  0  0  0
 20 21  1  0  0  0  0
 23 20  1  0  0  0  0
 23 34  1  0  0  0  0
 24 23  2  0  0  0  0
 25 24  1  0  0  0  0
 25 26  2  0  0  0  0
 26 27  1  0  0  0  0
 27 34  2  0  0  0  0
 27 28  1  0  0  0  0
 28 29  2  0  0  0  0
 29 31  1  0  0  0  0
 29 30  1  0  0  0  0
 31 32  1  0  0  0  0
 33 31  2  0  0  0  0
 34 33  1  0  0  0  0
M  END
>  <minimizedAffinity>
-5.36141157

$$$$

 OpenBabel03242520183D

 34 37  0  0  0  0  0  0  0  0999 V2000
   39.2480   30.1580   42.5410 C   0  0  0  0  0  0  0  0  0  0  0  0
   40.2530   29.8880   42.1780 H   0  0  0  0  0  0  0  0  0  0  0  0
   39.3720   30.9440   43.3110 H   0  0  0  0  0  0  0  0  0  0  0  0
   36.6170   30.5280   39.8630 C   0  0  0  0  0  0  0  0  0  0  0  0
   37.4110   29.9490   40.8670 C   0  0  0  0  0  0  0  0  0  0  0  0
   38.3950   30.7270   41.4690 C   0  0  0  0  0  0  0  0  0  0  0  0
   38.5320   32.0200   41.0450 N   0  0  0  0  0  0  0  0  0  0  0  0
   37.7370   32.5310   40.0680 C   0  0  0  0  0  0  0  0  0  0  0  0
   36.7910   31.8000   39.4820 N   0  0  0  0  0  0  0  0  0  0  0  0
   37.2250   28.9380   41.1200 H   0  0  0  0  0  0  0  0  0  0  0  0
   37.8730   33.5490   39.7590 H   0  0  0  0  0  0  0  0  0  0  0  0
   35.5630   29.7060   39.2140 C   0  0  0  0  0  0  0  0  0  0  0  0
   36.0290   29.1000   37.8480 C   0  0  0  0  0  0  0  0  0  0  0  0
   35.6470   28.2920   39.0420 C   0  0  0  0  0  0  0  0  0  0  0  0
   34.6390   30.3260   39.0380 H   0  0  0  0  0  0  0  0  0  0  0  0
   37.1150   29.1270   37.6370 H   0  0  0  0  0  0  0  0  0  0  0  0
   35.3680   29.1820   36.9920 H   0  0  0  0  0  0  0  0  0  0  0  0
   36.3620   27.6900   39.6130 H   0  0  0  0  0  0  0  0  0  0  0  0
   34.6760   27.7370   38.8930 H   0  0  0  0  0  0  0  0  0  0  0  0
   38.5890   28.9670   43.2170 C   0  0  0  0  0  0  0  0  0  0  0  0
   37.6850   28.7510   42.6070 H   0  0  0  0  0  0  0  0  0  0  0  0
   38.2120   29.2130   44.2270 H   0  0  0  0  0  0  0  0  0  0  0  0
   39.4590   27.7720   43.1960 C   0  0  0  0  0  0  0  0  0  0  0  0
   40.7760   27.7390   43.5230 N   0  0  0  0  0  0  0  0  0  0  0  0
   41.4730   26.5800   43.4660 C   0  0  0  0  0  3  0  0  0  0  0  0
   40.9140   25.4010   43.0880 N   0  0  0  0  0  0  0  0  0  0  0  0
   39.6220   25.3880   42.7570 C   0  0  0  0  0  0  0  0  0  0  0  0
   39.0550   24.1920   42.3730 C   0  0  0  0  0  3  0  0  0  0  0  0
   37.7040   24.1620   42.0240 C   0  0  0  0  0  0  0  0  0  0  0  0
   37.2410   23.2380   41.7210 H   0  0  0  0  0  0  0  0  0  0  0  0
   36.9260   25.3120   42.0600 C   0  0  0  0  0  0  0  0  0  0  0  0
   35.8880   25.2940   41.7930 H   0  0  0  0  0  0  0  0  0  0  0  0
   37.5740   26.4740   42.4580 C   0  0  0  0  0  3  0  0  0  0  0  0
   38.9030   26.5640   42.8130 C   0  0  0  0  0  0  0  0  0  0  0  0
  1 20  1  0  0  0  0
  1  3  1  0  0  0  0
  2  1  1  0  0  0  0
  4  5  1  0  0  0  0
  5 10  1  0  0  0  0
  5  6  2  0  0  0  0
  6  1  1  0  0  0  0
  7  6  1  0  0  0  0
  8  7  2  0  0  0  0
  9  4  2  0  0  0  0
  9  8  1  0  0  0  0
 11  8  1  0  0  0  0
 12  4  1  0  0  0  0
 13 14  1  0  0  0  0
 13 12  1  0  0  0  0
 14 12  1  0  0  0  0
 14 18  1  0  0  0  0
 15 12  1  0  0  0  0
 16 13  1  0  0  0  0
 17 13  1  0  0  0  0
 19 14  1  0  0  0  0
 20 22  1  0  0  0  0
 21 20  1  0  0  0  0
 23 20  1  0  0  0  0
 23 24  1  0  0  0  0
 25 24  2  0  0  0  0
 26 25  1  0  0  0  0
 27 34  1  0  0  0  0
 27 26  2  0  0  0  0
 28 27  1  0  0  0  0
 29 31  1  0  0  0  0
 29 28  2  0  0  0  0
 30 29  1  0  0  0  0
 31 33  2  0  0  0  0
 32 31  1  0  0  0  0
 33 34  1  0  0  0  0
 34 23  2  0  0  0  0
M  END
>  <minimizedAffinity>
-5.29203272

$$$$

 OpenBabel03242520183D

 34 37  0  0  0  0  0  0  0  0999 V2000
   37.9770   28.4370   43.3980 C   0  0  0  0  0  0  0  0  0  0  0  0
   38.8290   27.7810   43.6370 H   0  0  0  0  0  0  0  0  0  0  0  0
   37.5690   28.8160   44.3560 H   0  0  0  0  0  0  0  0  0  0  0  0
   37.9290   31.2810   40.9200 C   0  0  0  0  0  0  0  0  0  0  0  0
   37.5130   30.1560   41.6510 C   0  0  0  0  0  0  0  0  0  0  0  0
   38.3810   29.6180   42.5970 C   0  0  0  0  0  0  0  0  0  0  0  0
   39.5970   30.2230   42.7610 N   0  0  0  0  0  0  0  0  0  0  0  0
   39.9500   31.3100   42.0260 C   0  0  0  0  0  0  0  0  0  0  0  0
   39.1310   31.8370   41.1170 N   0  0  0  0  0  0  0  0  0  0  0  0
   36.5520   29.7620   41.4460 H   0  0  0  0  0  0  0  0  0  0  0  0
   40.9130   31.7580   42.1800 H   0  0  0  0  0  0  0  0  0  0  0  0
   37.0100   31.8630   39.9090 C   0  0  0  0  0  0  0  0  0  0  0  0
   37.3400   33.3600   39.5890 C   0  0  0  0  0  0  0  0  0  0  0  0
   37.4110   32.2500   38.5950 C   0  0  0  0  0  0  0  0  0  0  0  0
   35.9430   31.7970   40.2670 H   0  0  0  0  0  0  0  0  0  0  0  0
   38.3230   33.7360   39.9310 H   0  0  0  0  0  0  0  0  0  0  0  0
   36.5270   34.0780   39.5690 H   0  0  0  0  0  0  0  0  0  0  0  0
   38.3510   31.8940   38.1580 H   0  0  0  0  0  0  0  0  0  0  0  0
   36.6010   32.3200   37.8130 H   0  0  0  0  0  0  0  0  0  0  0  0
   36.8710   27.6450   42.7210 C   0  0  0  0  0  0  0  0  0  0  0  0
   36.4330   28.3410   41.9730 H   0  0  0  0  0  0  0  0  0  0  0  0
   36.0460   27.3990   43.4140 H   0  0  0  0  0  0  0  0  0  0  0  0
   37.3990   26.4650   42.0040 C   0  0  0  0  0  0  0  0  0  0  0  0
   38.1670   25.4840   42.5410 N   0  0  0  0  0  0  0  0  0  0  0  0
   38.5940   24.4470   41.7820 C   0  0  0  0  0  3  0  0  0  0  0  0
   38.2890   24.3220   40.4650 N   0  0  0  0  0  0  0  0  0  0  0  0
   37.5360   25.2650   39.8950 C   0  0  0  0  0  0  0  0  0  0  0  0
   37.2260   25.1390   38.5590 C   0  0  0  0  0  3  0  0  0  0  0  0
   36.4390   26.1170   37.9480 C   0  0  0  0  0  0  0  0  0  0  0  0
   36.1840   26.0380   36.9050 H   0  0  0  0  0  0  0  0  0  0  0  0
   35.9650   27.2080   38.6650 C   0  0  0  0  0  0  0  0  0  0  0  0
   35.3600   27.9620   38.2010 H   0  0  0  0  0  0  0  0  0  0  0  0
   36.3220   27.2600   40.0060 C   0  0  0  0  0  3  0  0  0  0  0  0
   37.0950   26.3250   40.6610 C   0  0  0  0  0  0  0  0  0  0  0  0
  1  2  1  0  0  0  0
  1  3  1  0  0  0  0
  4  9  2  0  0  0  0
  4  5  1  0  0  0  0
  5  6  2  0  0  0  0
  6  7  1  0  0  0  0
  6  1  1  0  0  0  0
  8 11  1  0  0  0  0
  8  7  2  0  0  0  0
  9  8  1  0  0  0  0
 10  5  1  0  0  0  0
 12 15  1  0  0  0  0
 12  4  1  0  0  0  0
 13 12  1  0  0  0  0
 13 16  1  0  0  0  0
 14 13  1  0  0  0  0
 14 12  1  0  0  0  0
 17 13  1  0  0  0  0
 18 14  1  0  0  0  0
 19 14  1  0  0  0  0
 20  1  1  0  0  0  0
 20 22  1  0  0  0  0
 21 20  1  0  0  0  0
 23 24  1  0  0  0  0
 23 20  1  0  0  0  0
 25 24  2  0  0  0  0
 26 25  1  0  0  0  0
 27 26  2  0  0  0  0
 27 34  1  0  0  0  0
 28 27  1  0  0  0  0
 29 28  2  0  0  0  0
 29 31  1  0  0  0  0
 30 29  1  0  0  0  0
 31 33  2  0  0  0  0
 32 31  1  0  0  0  0
 33 34  1  0  0  0  0
 34 23  2  0  0  0  0
M  END
>  <minimizedAffinity>
-5.28187418

$$$$

 OpenBabel03242520183D

 34 37  0  0  0  0  0  0  0  0999 V2000
   36.7050   27.4620   43.1800 C   0  0  0  0  0  0  0  0  0  0  0  0
   35.8760   27.6090   42.4690 H   0  0  0  0  0  0  0  0  0  0  0  0
   36.2610   27.2010   44.1600 H   0  0  0  0  0  0  0  0  0  0  0  0
   37.9810   24.2670   41.6320 C   0  0  0  0  0  0  0  0  0  0  0  0
   37.1070   25.3080   41.9890 C   0  0  0  0  0  0  0  0  0  0  0  0
   37.5910   26.3390   42.7880 C   0  0  0  0  0  0  0  0  0  0  0  0
   38.9000   26.2780   43.1820 N   0  0  0  0  0  0  0  0  0  0  0  0
   39.7020   25.2470   42.8080 C   0  0  0  0  0  0  0  0  0  0  0  0
   39.2550   24.2530   42.0440 N   0  0  0  0  0  0  0  0  0  0  0  0
   36.1110   25.2580   41.6340 H   0  0  0  0  0  0  0  0  0  0  0  0
   40.7240   25.2310   43.1370 H   0  0  0  0  0  0  0  0  0  0  0  0
   37.4750   23.1620   40.7780 C   0  0  0  0  0  0  0  0  0  0  0  0
   37.8120   23.3720   39.2630 C   0  0  0  0  0  0  0  0  0  0  0  0
   38.3160   22.2370   40.0900 C   0  0  0  0  0  0  0  0  0  0  0  0
   36.3580   23.0630   40.8890 H   0  0  0  0  0  0  0  0  0  0  0  0
   38.5710   24.1410   39.0250 H   0  0  0  0  0  0  0  0  0  0  0  0
   37.0250   23.2250   38.5320 H   0  0  0  0  0  0  0  0  0  0  0  0
   39.3700   22.1140   40.3620 H   0  0  0  0  0  0  0  0  0  0  0  0
   37.8550   21.2500   39.7930 H   0  0  0  0  0  0  0  0  0  0  0  0
   37.4790   28.7560   43.3680 C   0  0  0  0  0  0  0  0  0  0  0  0
   38.5370   28.4430   43.5050 H   0  0  0  0  0  0  0  0  0  0  0  0
   37.2020   29.2790   44.3020 H   0  0  0  0  0  0  0  0  0  0  0  0
   37.4010   29.6220   42.1720 C   0  0  0  0  0  0  0  0  0  0  0  0
   36.3340   29.7430   41.3440 N   0  0  0  0  0  0  0  0  0  0  0  0
   36.3800   30.5720   40.2740 C   0  0  0  0  0  3  0  0  0  0  0  0
   37.4710   31.3210   39.9670 N   0  0  0  0  0  0  0  0  0  0  0  0
   38.5440   31.2320   40.7550 C   0  0  0  0  0  0  0  0  0  0  0  0
   39.6510   31.9910   40.4440 C   0  0  0  0  0  3  0  0  0  0  0  0
   40.7810   31.9100   41.2590 C   0  0  0  0  0  0  0  0  0  0  0  0
   41.6570   32.4940   41.0340 H   0  0  0  0  0  0  0  0  0  0  0  0
   40.8060   31.0800   42.3730 C   0  0  0  0  0  0  0  0  0  0  0  0
   41.6710   31.0140   43.0020 H   0  0  0  0  0  0  0  0  0  0  0  0
   39.6500   30.3500   42.6160 C   0  0  0  0  0  3  0  0  0  0  0  0
   38.5060   30.3900   41.8480 C   0  0  0  0  0  0  0  0  0  0  0  0
  1 20  1  0  0  0  0
  1  3  1  0  0  0  0
  2  1  1  0  0  0  0
  4  5  2  0  0  0  0
  4  9  1  0  0  0  0
  5  6  1  0  0  0  0
  6  1  1  0  0  0  0
  6  7  2  0  0  0  0
  8 11  1  0  0  0  0
  8  7  1  0  0  0  0
  9  8  2  0  0  0  0
 10  5  1  0  0  0  0
 12 15  1  0  0  0  0
 12  4  1  0  0  0  0
 13 14  1  0  0  0  0
 13 12  1  0  0  0  0
 14 18  1  0  0  0  0
 14 12  1  0  0  0  0
 16 13  1  0  0  0  0
 17 13  1  0  0  0  0
 19 14  1  0  0  0  0
 20 21  1  0  0  0  0
 20 22  1  0  0  0  0
 23 20  1  0  0  0  0
 24 23  2  0  0  0  0
 25 24  1  0  0  0  0
 26 25  2  0  0  0  0
 26 27  1  0  0  0  0
 27 34  1  0  0  0  0
 28 27  2  0  0  0  0
 28 29  1  0  0  0  0
 29 31  2  0  0  0  0
 30 29  1  0  0  0  0
 31 33  1  0  0  0  0
 31 32  1  0  0  0  0
 34 23  1  0  0  0  0
 34 33  2  0  0  0  0
M  END
>  <minimizedAffinity>
-5.27973032

$$$$

 OpenBabel03242520183D

 34 37  0  0  0  0  0  0  0  0999 V2000
   36.4970   30.6390   38.9680 C   0  0  0  0  0  0  0  0  0  0  0  0
   35.7980   31.1160   38.2630 H   0  0  0  0  0  0  0  0  0  0  0  0
   37.0830   29.8900   38.4010 H   0  0  0  0  0  0  0  0  0  0  0  0
   39.5400   32.0980   40.6530 C   0  0  0  0  0  0  0  0  0  0  0  0
   38.6460   31.1530   40.1250 C   0  0  0  0  0  0  0  0  0  0  0  0
   37.4640   31.6040   39.5460 C   0  0  0  0  0  0  0  0  0  0  0  0
   37.2410   32.9530   39.5240 N   0  0  0  0  0  0  0  0  0  0  0  0
   38.1400   33.8260   40.0500 C   0  0  0  0  0  0  0  0  0  0  0  0
   39.2760   33.4100   40.6070 N   0  0  0  0  0  0  0  0  0  0  0  0
   38.9120   30.1300   40.1960 H   0  0  0  0  0  0  0  0  0  0  0  0
   37.9320   34.8790   40.0160 H   0  0  0  0  0  0  0  0  0  0  0  0
   40.8050   31.6270   41.2720 C   0  0  0  0  0  0  0  0  0  0  0  0
   40.6000   31.0990   42.7320 C   0  0  0  0  0  0  0  0  0  0  0  0
   41.0770   30.2630   41.5920 C   0  0  0  0  0  0  0  0  0  0  0  0
   41.5640   32.4610   41.2930 H   0  0  0  0  0  0  0  0  0  0  0  0
   39.5580   30.8990   43.0450 H   0  0  0  0  0  0  0  0  0  0  0  0
   41.2820   31.4340   43.5050 H   0  0  0  0  0  0  0  0  0  0  0  0
   40.4890   29.4480   41.1580 H   0  0  0  0  0  0  0  0  0  0  0  0
   42.1620   29.9700   41.6990 H   0  0  0  0  0  0  0  0  0  0  0  0
   35.7330   29.8880   40.0460 C   0  0  0  0  0  0  0  0  0  0  0  0
   34.6750   29.8880   39.7050 H   0  0  0  0  0  0  0  0  0  0  0  0
   35.7320   30.4260   41.0120 H   0  0  0  0  0  0  0  0  0  0  0  0
   36.1830   28.4850   40.1630 C   0  0  0  0  0  0  0  0  0  0  0  0
   35.9950   27.5080   39.2410 N   0  0  0  0  0  0  0  0  0  0  0  0
   36.4550   26.2540   39.4600 C   0  0  0  0  0  3  0  0  0  0  0  0
   37.1200   25.8980   40.5900 N   0  0  0  0  0  0  0  0  0  0  0  0
   37.3260   26.8280   41.5240 C   0  0  0  0  0  0  0  0  0  0  0  0
   38.0000   26.4680   42.6710 C   0  0  0  0  0  3  0  0  0  0  0  0
   38.2240   27.4290   43.6580 C   0  0  0  0  0  0  0  0  0  0  0  0
   38.7490   27.1690   44.5620 H   0  0  0  0  0  0  0  0  0  0  0  0
   37.7810   28.7360   43.5020 C   0  0  0  0  0  0  0  0  0  0  0  0
   37.9500   29.4780   44.2560 H   0  0  0  0  0  0  0  0  0  0  0  0
   37.1110   29.0160   42.3180 C   0  0  0  0  0  3  0  0  0  0  0  0
   36.8620   28.1100   41.3100 C   0  0  0  0  0  0  0  0  0  0  0  0
  1  6  1  0  0  0  0
  1 20  1  0  0  0  0
  2  1  1  0  0  0  0
  3  1  1  0  0  0  0
  4 12  1  0  0  0  0
  5 10  1  0  0  0  0
  5  4  2  0  0  0  0
  6  5  1  0  0  0  0
  7  6  2  0  0  0  0
  7  8  1  0  0  0  0
  8  9  2  0  0  0  0
  9  4  1  0  0  0  0
 11  8  1  0  0  0  0
 12 15  1  0  0  0  0
 12 14  1  0  0  0  0
 12 13  1  0  0  0  0
 13 16  1  0  0  0  0
 13 17  1  0  0  0  0
 14 19  1  0  0  0  0
 14 13  1  0  0  0  0
 18 14  1  0  0  0  0
 20 23  1  0  0  0  0
 20 22  1  0  0  0  0
 21 20  1  0  0  0  0
 23 34  1  0  0  0  0
 24 25  1  0  0  0  0
 24 23  2  0  0  0  0
 25 26  2  0  0  0  0
 26 27  1  0  0  0  0
 27 28  1  0  0  0  0
 28 29  2  0  0  0  0
 29 30  1  0  0  0  0
 31 29  1  0  0  0  0
 31 32  1  0  0  0  0
 33 31  2  0  0  0  0
 34 27  2  0  0  0  0
 34 33  1  0  0  0  0
M  END
>  <minimizedAffinity>
-5.22557163

$$$$
