
 OpenBabel03252503293D

 28 30  0  0  0  0  0  0  0  0999 V2000
   39.9910   27.0130   42.0170 C   0  0  0  0  0  0  0  0  0  0  0  0
   38.7400   26.4770   41.6360 C   0  0  0  0  0  0  0  0  0  0  0  0
   38.4680   25.1930   42.1530 C   0  0  0  0  0  0  0  0  0  0  0  0
   39.3950   24.6000   42.9420 N   0  0  0  0  0  0  0  0  0  0  0  0
   40.5800   25.1760   43.2670 C   0  0  0  0  0  0  0  0  0  0  0  0
   40.8770   26.3940   42.7980 N   0  0  0  0  0  0  0  0  0  0  0  0
   39.6750   29.3620   42.2280 C   0  0  0  0  0  0  0  0  0  0  0  0
   38.8590   28.9980   43.1110 O   0  0  0  0  0  0  0  0  0  0  0  0
   40.3550   28.3180   41.5600 N   0  0  0  0  0  0  0  0  0  0  0  0
   38.0640   27.0100   41.0070 H   0  0  0  0  0  0  0  0  0  0  0  0
   41.2180   24.5820   43.9070 H   0  0  0  0  0  0  0  0  0  0  0  0
   41.0470   28.4270   40.8190 H   0  0  0  0  0  0  0  0  0  0  0  0
   40.0930   30.6900   41.7160 C   0  0  0  0  0  0  0  0  0  0  0  0
   41.3340   31.1990   41.8470 N   0  0  0  0  0  0  0  0  0  0  0  0
   41.7050   32.3840   41.3910 C   0  0  0  0  0  3  0  0  0  0  0  0
   40.8650   33.1880   40.7530 N   0  0  0  0  0  0  0  0  0  0  0  0
   39.5890   32.7730   40.5670 C   0  0  0  0  0  0  0  0  0  0  0  0
   38.7230   33.6080   39.9060 C   0  0  0  0  0  3  0  0  0  0  0  0
   37.4280   33.2430   39.6900 C   0  0  0  0  0  0  0  0  0  0  0  0
   36.8190   33.9600   39.1630 H   0  0  0  0  0  0  0  0  0  0  0  0
   37.0320   32.0030   40.1650 C   0  0  0  0  0  0  0  0  0  0  0  0
   35.9920   31.7380   39.9790 H   0  0  0  0  0  0  0  0  0  0  0  0
   37.9340   31.1960   40.8230 C   0  0  0  0  0  3  0  0  0  0  0  0
   39.2350   31.5340   41.0540 C   0  0  0  0  0  0  0  0  0  0  0  0
   37.1720   24.6390   41.7590 C   0  0  0  0  0  0  0  0  0  0  0  0
   36.6770   25.3880   40.6780 F   0  0  0  0  0  0  0  0  0  0  0  0
   36.3050   24.8610   42.8040 F   0  0  0  0  0  0  0  0  0  0  0  0
   37.2370   23.3380   41.3410 F   0  0  0  0  0  0  0  0  0  0  0  0
  1  6  1  0  0  0  0
  2  1  2  0  0  0  0
  2  3  1  0  0  0  0
  3  4  2  0  0  0  0
  4  5  1  0  0  0  0
  5 11  1  0  0  0  0
  6  5  2  0  0  0  0
  7  8  2  0  0  0  0
  9  1  1  0  0  0  0
  9  7  1  0  0  0  0
 10  2  1  0  0  0  0
 12  9  1  0  0  0  0
 13 14  1  0  0  0  0
 13  7  1  0  0  0  0
 15 14  2  0  0  0  0
 16 15  1  0  0  0  0
 17 16  2  0  0  0  0
 17 24  1  0  0  0  0
 18 17  1  0  0  0  0
 19 18  2  0  0  0  0
 19 21  1  0  0  0  0
 20 19  1  0  0  0  0
 21 23  2  0  0  0  0
 22 21  1  0  0  0  0
 23 24  1  0  0  0  0
 24 13  2  0  0  0  0
 25  3  1  0  0  0  0
 25 27  1  0  0  0  0
 26 25  1  0  0  0  0
 28 25  1  0  0  0  0
M  END
>  <minimizedAffinity>
-5.85425806

$$$$

 OpenBabel03252503293D

 28 30  0  0  0  0  0  0  0  0999 V2000
   37.0500   29.0400   36.8360 C   0  0  0  0  0  0  0  0  0  0  0  0
   36.9920   30.1290   35.9380 C   0  0  0  0  0  0  0  0  0  0  0  0
   36.2720   29.8760   34.7520 C   0  0  0  0  0  0  0  0  0  0  0  0
   35.7160   28.6530   34.5780 N   0  0  0  0  0  0  0  0  0  0  0  0
   35.8130   27.6510   35.4870 C   0  0  0  0  0  0  0  0  0  0  0  0
   36.4870   27.8490   36.6250 N   0  0  0  0  0  0  0  0  0  0  0  0
   37.0360   29.9770   39.0240 C   0  0  0  0  0  0  0  0  0  0  0  0
   35.9200   30.4110   38.6420 O   0  0  0  0  0  0  0  0  0  0  0  0
   37.7420   29.2000   38.0780 N   0  0  0  0  0  0  0  0  0  0  0  0
   37.4600   31.0630   36.1510 H   0  0  0  0  0  0  0  0  0  0  0  0
   35.3170   26.7310   35.2090 H   0  0  0  0  0  0  0  0  0  0  0  0
   38.6570   28.7710   38.2130 H   0  0  0  0  0  0  0  0  0  0  0  0
   37.7980   30.1080   40.2900 C   0  0  0  0  0  0  0  0  0  0  0  0
   38.7990   30.9880   40.4860 N   0  0  0  0  0  0  0  0  0  0  0  0
   39.4780   31.1030   41.6160 C   0  0  0  0  0  3  0  0  0  0  0  0
   39.2240   30.3420   42.6720 N   0  0  0  0  0  0  0  0  0  0  0  0
   38.2340   29.4210   42.5810 C   0  0  0  0  0  0  0  0  0  0  0  0
   37.9740   28.6350   43.6760 C   0  0  0  0  0  3  0  0  0  0  0  0
   36.9900   27.6930   43.6420 C   0  0  0  0  0  0  0  0  0  0  0  0
   36.8550   27.1220   44.5470 H   0  0  0  0  0  0  0  0  0  0  0  0
   36.2740   27.5670   42.4630 C   0  0  0  0  0  0  0  0  0  0  0  0
   35.4950   26.8070   42.4640 H   0  0  0  0  0  0  0  0  0  0  0  0
   36.5690   28.3770   41.3880 C   0  0  0  0  0  3  0  0  0  0  0  0
   37.5470   29.3280   41.3910 C   0  0  0  0  0  0  0  0  0  0  0  0
   36.2110   31.0050   33.8220 C   0  0  0  0  0  0  0  0  0  0  0  0
   36.8180   30.6210   32.6150 F   0  0  0  0  0  0  0  0  0  0  0  0
   37.0030   32.0000   34.3470 F   0  0  0  0  0  0  0  0  0  0  0  0
   34.9360   31.3940   33.5170 F   0  0  0  0  0  0  0  0  0  0  0  0
  1  9  1  0  0  0  0
  2 10  1  0  0  0  0
  2  1  2  0  0  0  0
  3  2  1  0  0  0  0
  4  3  2  0  0  0  0
  4  5  1  0  0  0  0
  5  6  2  0  0  0  0
  6  1  1  0  0  0  0
  7 13  1  0  0  0  0
  8  7  2  0  0  0  0
  9 12  1  0  0  0  0
  9  7  1  0  0  0  0
 11  5  1  0  0  0  0
 13 14  2  0  0  0  0
 13 24  1  0  0  0  0
 14 15  1  0  0  0  0
 15 16  2  0  0  0  0
 17 16  1  0  0  0  0
 17 18  1  0  0  0  0
 19 18  2  0  0  0  0
 19 20  1  0  0  0  0
 21 22  1  0  0  0  0
 21 19  1  0  0  0  0
 23 24  1  0  0  0  0
 23 21  2  0  0  0  0
 24 17  2  0  0  0  0
 25 27  1  0  0  0  0
 25  3  1  0  0  0  0
 26 25  1  0  0  0  0
 28 25  1  0  0  0  0
M  END
>  <minimizedAffinity>
-5.82261086

$$$$

 OpenBabel03252503293D

 28 30  0  0  0  0  0  0  0  0999 V2000
   37.7830   29.4700   38.6710 C   0  0  0  0  0  0  0  0  0  0  0  0
   37.9430   30.6050   39.4980 C   0  0  0  0  0  0  0  0  0  0  0  0
   37.6820   31.8370   38.8620 C   0  0  0  0  0  0  0  0  0  0  0  0
   37.3130   31.8310   37.5590 N   0  0  0  0  0  0  0  0  0  0  0  0
   37.1790   30.6980   36.8250 C   0  0  0  0  0  0  0  0  0  0  0  0
   37.4170   29.5080   37.3890 N   0  0  0  0  0  0  0  0  0  0  0  0
   36.9650   27.7310   40.0760 C   0  0  0  0  0  0  0  0  0  0  0  0
   36.0110   28.5350   40.2230 O   0  0  0  0  0  0  0  0  0  0  0  0
   38.0060   28.1700   39.2260 N   0  0  0  0  0  0  0  0  0  0  0  0
   38.2390   30.5240   40.5180 H   0  0  0  0  0  0  0  0  0  0  0  0
   36.8780   30.8510   35.7970 H   0  0  0  0  0  0  0  0  0  0  0  0
   38.8530   27.6530   38.9940 H   0  0  0  0  0  0  0  0  0  0  0  0
   37.2480   26.3800   40.6190 C   0  0  0  0  0  0  0  0  0  0  0  0
   36.6430   25.2510   40.2010 N   0  0  0  0  0  0  0  0  0  0  0  0
   36.8960   24.0470   40.6860 C   0  0  0  0  0  3  0  0  0  0  0  0
   37.7870   23.8480   41.6480 N   0  0  0  0  0  0  0  0  0  0  0  0
   38.4550   24.9180   42.1420 C   0  0  0  0  0  0  0  0  0  0  0  0
   39.3760   24.7080   43.1370 C   0  0  0  0  0  3  0  0  0  0  0  0
   40.0780   25.7470   43.6710 C   0  0  0  0  0  0  0  0  0  0  0  0
   40.7810   25.4900   44.4480 H   0  0  0  0  0  0  0  0  0  0  0  0
   39.8180   27.0110   43.1680 C   0  0  0  0  0  0  0  0  0  0  0  0
   40.3930   27.8220   43.6130 H   0  0  0  0  0  0  0  0  0  0  0  0
   38.8850   27.1770   42.1680 C   0  0  0  0  0  3  0  0  0  0  0  0
   38.1680   26.1570   41.6150 C   0  0  0  0  0  0  0  0  0  0  0  0
   37.8480   33.0120   39.7190 C   0  0  0  0  0  0  0  0  0  0  0  0
   39.1170   33.5650   39.4770 F   0  0  0  0  0  0  0  0  0  0  0  0
   37.8710   32.5620   41.0190 F   0  0  0  0  0  0  0  0  0  0  0  0
   36.9330   34.0000   39.4750 F   0  0  0  0  0  0  0  0  0  0  0  0
  1  9  1  0  0  0  0
  1  2  1  0  0  0  0
  2 10  1  0  0  0  0
  3  2  2  0  0  0  0
  3 25  1  0  0  0  0
  4  3  1  0  0  0  0
  5  6  1  0  0  0  0
  5  4  2  0  0  0  0
  6  1  2  0  0  0  0
  7  8  2  0  0  0  0
  7 13  1  0  0  0  0
  9  7  1  0  0  0  0
 11  5  1  0  0  0  0
 12  9  1  0  0  0  0
 13 24  1  0  0  0  0
 14 13  2  0  0  0  0
 14 15  1  0  0  0  0
 15 16  2  0  0  0  0
 16 17  1  0  0  0  0
 17 18  1  0  0  0  0
 18 19  2  0  0  0  0
 19 20  1  0  0  0  0
 21 22  1  0  0  0  0
 21 19  1  0  0  0  0
 23 21  2  0  0  0  0
 24 17  2  0  0  0  0
 24 23  1  0  0  0  0
 25 27  1  0  0  0  0
 26 25  1  0  0  0  0
 28 25  1  0  0  0  0
M  END
>  <minimizedAffinity>
-5.75208092

$$$$

 OpenBabel03252503293D

 28 30  0  0  0  0  0  0  0  0999 V2000
   37.9170   30.3740   41.4470 C   0  0  0  0  0  0  0  0  0  0  0  0
   38.1370   29.1550   42.1270 C   0  0  0  0  0  0  0  0  0  0  0  0
   37.0800   28.2270   42.0280 C   0  0  0  0  0  0  0  0  0  0  0  0
   35.9790   28.5690   41.3170 N   0  0  0  0  0  0  0  0  0  0  0  0
   35.8360   29.7620   40.6880 C   0  0  0  0  0  0  0  0  0  0  0  0
   36.8150   30.6710   40.7560 N   0  0  0  0  0  0  0  0  0  0  0  0
   40.0400   31.0800   40.6380 C   0  0  0  0  0  0  0  0  0  0  0  0
   39.9680   29.9950   40.0090 O   0  0  0  0  0  0  0  0  0  0  0  0
   38.9370   31.3760   41.4710 N   0  0  0  0  0  0  0  0  0  0  0  0
   39.0350   28.9640   42.6680 H   0  0  0  0  0  0  0  0  0  0  0  0
   34.9020   29.8920   40.1580 H   0  0  0  0  0  0  0  0  0  0  0  0
   38.8260   32.2070   42.0520 H   0  0  0  0  0  0  0  0  0  0  0  0
   41.0640   32.1520   40.6990 C   0  0  0  0  0  0  0  0  0  0  0  0
   41.1130   33.2050   39.8600 N   0  0  0  0  0  0  0  0  0  0  0  0
   42.0260   34.1610   39.9160 C   0  0  0  0  0  3  0  0  0  0  0  0
   42.9930   34.1590   40.8240 N   0  0  0  0  0  0  0  0  0  0  0  0
   43.0360   33.1430   41.7190 C   0  0  0  0  0  0  0  0  0  0  0  0
   44.0370   33.1450   42.6580 C   0  0  0  0  0  3  0  0  0  0  0  0
   44.1310   32.1490   43.5830 C   0  0  0  0  0  0  0  0  0  0  0  0
   44.9480   32.2310   44.2820 H   0  0  0  0  0  0  0  0  0  0  0  0
   43.1770   31.1450   43.5310 C   0  0  0  0  0  0  0  0  0  0  0  0
   43.2760   30.3630   44.2810 H   0  0  0  0  0  0  0  0  0  0  0  0
   42.1890   31.1820   42.5720 C   0  0  0  0  0  3  0  0  0  0  0  0
   42.0700   32.1650   41.6330 C   0  0  0  0  0  0  0  0  0  0  0  0
   37.3090   26.9640   42.7320 C   0  0  0  0  0  0  0  0  0  0  0  0
   36.1430   26.6310   43.4420 F   0  0  0  0  0  0  0  0  0  0  0  0
   38.2770   27.2020   43.6800 F   0  0  0  0  0  0  0  0  0  0  0  0
   37.5760   25.9130   41.8970 F   0  0  0  0  0  0  0  0  0  0  0  0
  1  9  1  0  0  0  0
  1  2  1  0  0  0  0
  2 10  1  0  0  0  0
  3  2  2  0  0  0  0
  3 25  1  0  0  0  0
  4  3  1  0  0  0  0
  5  6  1  0  0  0  0
  5  4  2  0  0  0  0
  6  1  2  0  0  0  0
  7 13  1  0  0  0  0
  7  9  1  0  0  0  0
  8  7  2  0  0  0  0
  9 12  1  0  0  0  0
 11  5  1  0  0  0  0
 13 24  1  0  0  0  0
 14 15  1  0  0  0  0
 14 13  2  0  0  0  0
 15 16  2  0  0  0  0
 16 17  1  0  0  0  0
 17 18  1  0  0  0  0
 18 19  2  0  0  0  0
 19 20  1  0  0  0  0
 21 19  1  0  0  0  0
 21 22  1  0  0  0  0
 23 21  2  0  0  0  0
 24 17  2  0  0  0  0
 24 23  1  0  0  0  0
 25 26  1  0  0  0  0
 25 27  1  0  0  0  0
 28 25  1  0  0  0  0
M  END
>  <minimizedAffinity>
-5.70655441

$$$$

 OpenBabel03252503293D

 28 30  0  0  0  0  0  0  0  0999 V2000
   40.4840   31.5970   37.9700 C   0  0  0  0  0  0  0  0  0  0  0  0
   41.4130   30.7390   37.3400 C   0  0  0  0  0  0  0  0  0  0  0  0
   42.5950   31.3720   36.9020 C   0  0  0  0  0  0  0  0  0  0  0  0
   42.7350   32.7030   37.1110 N   0  0  0  0  0  0  0  0  0  0  0  0
   41.7970   33.4670   37.7230 C   0  0  0  0  0  0  0  0  0  0  0  0
   40.6620   32.9060   38.1560 N   0  0  0  0  0  0  0  0  0  0  0  0
   39.4170   30.3030   39.6580 C   0  0  0  0  0  0  0  0  0  0  0  0
   40.5910   30.2280   40.0980 O   0  0  0  0  0  0  0  0  0  0  0  0
   39.2600   31.0490   38.4680 N   0  0  0  0  0  0  0  0  0  0  0  0
   41.2250   29.6980   37.2140 H   0  0  0  0  0  0  0  0  0  0  0  0
   42.0500   34.5140   37.8190 H   0  0  0  0  0  0  0  0  0  0  0  0
   38.3850   31.2140   37.9710 H   0  0  0  0  0  0  0  0  0  0  0  0
   38.1180   29.7620   40.1290 C   0  0  0  0  0  0  0  0  0  0  0  0
   36.9470   29.9310   39.4850 N   0  0  0  0  0  0  0  0  0  0  0  0
   35.7890   29.4480   39.9060 C   0  0  0  0  0  3  0  0  0  0  0  0
   35.6840   28.7430   41.0250 N   0  0  0  0  0  0  0  0  0  0  0  0
   36.8050   28.5150   41.7510 C   0  0  0  0  0  0  0  0  0  0  0  0
   36.6930   27.7850   42.9080 C   0  0  0  0  0  3  0  0  0  0  0  0
   37.7860   27.5240   43.6790 C   0  0  0  0  0  0  0  0  0  0  0  0
   37.6060   26.9440   44.5700 H   0  0  0  0  0  0  0  0  0  0  0  0
   39.0020   28.0260   43.2440 C   0  0  0  0  0  0  0  0  0  0  0  0
   39.8570   27.8030   43.8790 H   0  0  0  0  0  0  0  0  0  0  0  0
   39.0690   28.7540   42.0760 C   0  0  0  0  0  3  0  0  0  0  0  0
   37.9930   29.0310   41.2850 C   0  0  0  0  0  0  0  0  0  0  0  0
   43.5580   30.4820   36.2510 C   0  0  0  0  0  0  0  0  0  0  0  0
   42.9880   30.0030   35.0600 F   0  0  0  0  0  0  0  0  0  0  0  0
   43.7090   29.3860   37.0690 F   0  0  0  0  0  0  0  0  0  0  0  0
   44.7290   31.1010   35.9080 F   0  0  0  0  0  0  0  0  0  0  0  0
  1  6  1  0  0  0  0
  1  9  1  0  0  0  0
  2  1  2  0  0  0  0
  3  4  2  0  0  0  0
  3  2  1  0  0  0  0
  4  5  1  0  0  0  0
  5 11  1  0  0  0  0
  5  6  2  0  0  0  0
  7  8  2  0  0  0  0
  7 13  1  0  0  0  0
  9  7  1  0  0  0  0
 10  2  1  0  0  0  0
 12  9  1  0  0  0  0
 13 24  1  0  0  0  0
 14 15  1  0  0  0  0
 14 13  2  0  0  0  0
 15 16  2  0  0  0  0
 16 17  1  0  0  0  0
 17 18  1  0  0  0  0
 18 19  2  0  0  0  0
 19 20  1  0  0  0  0
 21 19  1  0  0  0  0
 21 22  1  0  0  0  0
 23 21  2  0  0  0  0
 24 17  2  0  0  0  0
 24 23  1  0  0  0  0
 25  3  1  0  0  0  0
 25 27  1  0  0  0  0
 26 25  1  0  0  0  0
 28 25  1  0  0  0  0
M  END
>  <minimizedAffinity>
-5.66796541

$$$$

 OpenBabel03252503293D

 28 30  0  0  0  0  0  0  0  0999 V2000
   34.5310   28.2240   37.5020 C   0  0  0  0  0  0  0  0  0  0  0  0
   33.6590   29.1380   36.8670 C   0  0  0  0  0  0  0  0  0  0  0  0
   32.6200   28.5400   36.1240 C   0  0  0  0  0  0  0  0  0  0  0  0
   32.5470   27.1880   36.0800 N   0  0  0  0  0  0  0  0  0  0  0  0
   33.4230   26.3700   36.7160 C   0  0  0  0  0  0  0  0  0  0  0  0
   34.4230   26.8970   37.4330 N   0  0  0  0  0  0  0  0  0  0  0  0
   35.1960   29.2460   39.5460 C   0  0  0  0  0  0  0  0  0  0  0  0
   33.9620   29.1890   39.7740 O   0  0  0  0  0  0  0  0  0  0  0  0
   35.6080   28.7290   38.2960 N   0  0  0  0  0  0  0  0  0  0  0  0
   33.7870   30.1920   36.9510 H   0  0  0  0  0  0  0  0  0  0  0  0
   33.2360   25.3120   36.5890 H   0  0  0  0  0  0  0  0  0  0  0  0
   36.5640   28.6950   37.9440 H   0  0  0  0  0  0  0  0  0  0  0  0
   36.3510   29.7520   40.3260 C   0  0  0  0  0  0  0  0  0  0  0  0
   37.0170   30.8900   40.0460 N   0  0  0  0  0  0  0  0  0  0  0  0
   38.0480   31.3400   40.7430 C   0  0  0  0  0  3  0  0  0  0  0  0
   38.5220   30.6920   41.7980 N   0  0  0  0  0  0  0  0  0  0  0  0
   37.9240   29.5340   42.1670 C   0  0  0  0  0  0  0  0  0  0  0  0
   38.4180   28.8670   43.2600 C   0  0  0  0  0  3  0  0  0  0  0  0
   37.8560   27.6970   43.6780 C   0  0  0  0  0  0  0  0  0  0  0  0
   38.3080   27.2420   44.5450 H   0  0  0  0  0  0  0  0  0  0  0  0
   36.7760   27.2190   42.9540 C   0  0  0  0  0  0  0  0  0  0  0  0
   36.3480   26.2840   43.3090 H   0  0  0  0  0  0  0  0  0  0  0  0
   36.3130   27.9220   41.8630 C   0  0  0  0  0  3  0  0  0  0  0  0
   36.8540   29.0930   41.4210 C   0  0  0  0  0  0  0  0  0  0  0  0
   31.7170   29.4860   35.4680 C   0  0  0  0  0  0  0  0  0  0  0  0
   31.3180   30.4480   36.4110 F   0  0  0  0  0  0  0  0  0  0  0  0
   30.5800   28.7890   35.1300 F   0  0  0  0  0  0  0  0  0  0  0  0
   32.2960   30.1660   34.4310 F   0  0  0  0  0  0  0  0  0  0  0  0
  1  9  1  0  0  0  0
  2 10  1  0  0  0  0
  2  1  2  0  0  0  0
  3  2  1  0  0  0  0
  4  3  2  0  0  0  0
  4  5  1  0  0  0  0
  5  6  2  0  0  0  0
  6  1  1  0  0  0  0
  7  8  2  0  0  0  0
  7 13  1  0  0  0  0
  9  7  1  0  0  0  0
 11  5  1  0  0  0  0
 12  9  1  0  0  0  0
 13 24  1  0  0  0  0
 14 13  2  0  0  0  0
 14 15  1  0  0  0  0
 15 16  2  0  0  0  0
 16 17  1  0  0  0  0
 17 18  1  0  0  0  0
 18 19  2  0  0  0  0
 19 20  1  0  0  0  0
 21 22  1  0  0  0  0
 21 19  1  0  0  0  0
 23 21  2  0  0  0  0
 24 23  1  0  0  0  0
 24 17  2  0  0  0  0
 25  3  1  0  0  0  0
 25 26  1  0  0  0  0
 27 25  1  0  0  0  0
 28 25  1  0  0  0  0
M  END
>  <minimizedAffinity>
-5.59654951

$$$$

 OpenBabel03252503293D

 28 30  0  0  0  0  0  0  0  0999 V2000
   37.3740   30.4490   37.3140 C   0  0  0  0  0  0  0  0  0  0  0  0
   36.7780   30.2420   38.5790 C   0  0  0  0  0  0  0  0  0  0  0  0
   35.6080   29.4570   38.5570 C   0  0  0  0  0  0  0  0  0  0  0  0
   35.1650   28.9830   37.3670 N   0  0  0  0  0  0  0  0  0  0  0  0
   35.7900   29.2230   36.1870 C   0  0  0  0  0  0  0  0  0  0  0  0
   36.9050   29.9630   36.1640 N   0  0  0  0  0  0  0  0  0  0  0  0
   39.7230   30.5270   37.6870 C   0  0  0  0  0  0  0  0  0  0  0  0
   39.5220   29.3570   38.0970 O   0  0  0  0  0  0  0  0  0  0  0  0
   38.5770   31.2180   37.2310 N   0  0  0  0  0  0  0  0  0  0  0  0
   37.1910   30.6530   39.4720 H   0  0  0  0  0  0  0  0  0  0  0  0
   35.3200   28.7780   35.3210 H   0  0  0  0  0  0  0  0  0  0  0  0
   38.5530   32.1700   36.8670 H   0  0  0  0  0  0  0  0  0  0  0  0
   40.9390   31.3700   37.5760 C   0  0  0  0  0  0  0  0  0  0  0  0
   41.0330   32.6330   38.0360 N   0  0  0  0  0  0  0  0  0  0  0  0
   42.1180   33.3830   37.9360 C   0  0  0  0  0  3  0  0  0  0  0  0
   43.2280   32.9430   37.3580 N   0  0  0  0  0  0  0  0  0  0  0  0
   43.2410   31.6840   36.8590 C   0  0  0  0  0  0  0  0  0  0  0  0
   44.3910   31.2330   36.2610 C   0  0  0  0  0  3  0  0  0  0  0  0
   44.4630   29.9750   35.7420 C   0  0  0  0  0  0  0  0  0  0  0  0
   45.4040   29.7050   35.2920 H   0  0  0  0  0  0  0  0  0  0  0  0
   43.3300   29.1830   35.8440 C   0  0  0  0  0  0  0  0  0  0  0  0
   43.4150   28.1840   35.4210 H   0  0  0  0  0  0  0  0  0  0  0  0
   42.1970   29.6760   36.4520 C   0  0  0  0  0  3  0  0  0  0  0  0
   42.0950   30.9300   36.9800 C   0  0  0  0  0  0  0  0  0  0  0  0
   34.9920   29.2420   39.8670 C   0  0  0  0  0  0  0  0  0  0  0  0
   35.3400   30.3150   40.7040 F   0  0  0  0  0  0  0  0  0  0  0  0
   35.5840   28.1260   40.4110 F   0  0  0  0  0  0  0  0  0  0  0  0
   33.6250   29.1980   39.8280 F   0  0  0  0  0  0  0  0  0  0  0  0
  1  2  1  0  0  0  0
  2 10  1  0  0  0  0
  3  2  2  0  0  0  0
  3 25  1  0  0  0  0
  4  3  1  0  0  0  0
  5  4  2  0  0  0  0
  6  5  1  0  0  0  0
  6  1  2  0  0  0  0
  7  8  2  0  0  0  0
  9  1  1  0  0  0  0
  9  7  1  0  0  0  0
 11  5  1  0  0  0  0
 12  9  1  0  0  0  0
 13  7  1  0  0  0  0
 13 14  1  0  0  0  0
 15 14  2  0  0  0  0
 16 15  1  0  0  0  0
 17 24  1  0  0  0  0
 17 16  2  0  0  0  0
 18 17  1  0  0  0  0
 19 21  1  0  0  0  0
 19 18  2  0  0  0  0
 20 19  1  0  0  0  0
 21 23  2  0  0  0  0
 22 21  1  0  0  0  0
 23 24  1  0  0  0  0
 24 13  2  0  0  0  0
 25 27  1  0  0  0  0
 25 26  1  0  0  0  0
 28 25  1  0  0  0  0
M  END
>  <minimizedAffinity>
-5.47859669

$$$$

 OpenBabel03252503293D

 28 30  0  0  0  0  0  0  0  0999 V2000
   38.3680   29.7020   39.1780 C   0  0  0  0  0  0  0  0  0  0  0  0
   38.5640   30.9110   39.8840 C   0  0  0  0  0  0  0  0  0  0  0  0
   38.1670   32.0700   39.1850 C   0  0  0  0  0  0  0  0  0  0  0  0
   37.6500   31.9340   37.9400 N   0  0  0  0  0  0  0  0  0  0  0  0
   37.4920   30.7370   37.3230 C   0  0  0  0  0  0  0  0  0  0  0  0
   37.8550   29.6120   37.9510 N   0  0  0  0  0  0  0  0  0  0  0  0
   37.8110   28.0600   40.8090 C   0  0  0  0  0  0  0  0  0  0  0  0
   36.8400   28.8320   41.0020 O   0  0  0  0  0  0  0  0  0  0  0  0
   38.7220   28.4660   39.8070 N   0  0  0  0  0  0  0  0  0  0  0  0
   38.9790   30.9320   40.8650 H   0  0  0  0  0  0  0  0  0  0  0  0
   37.0660   30.7860   36.3300 H   0  0  0  0  0  0  0  0  0  0  0  0
   39.5630   27.9670   39.5180 H   0  0  0  0  0  0  0  0  0  0  0  0
   38.2260   26.7750   41.4230 C   0  0  0  0  0  0  0  0  0  0  0  0
   39.0650   26.6700   42.4720 N   0  0  0  0  0  0  0  0  0  0  0  0
   39.4340   25.5230   43.0190 C   0  0  0  0  0  3  0  0  0  0  0  0
   38.9990   24.3540   42.5660 N   0  0  0  0  0  0  0  0  0  0  0  0
   38.1490   24.3460   41.5120 C   0  0  0  0  0  0  0  0  0  0  0  0
   37.7000   23.1350   41.0470 C   0  0  0  0  0  3  0  0  0  0  0  0
   36.8430   23.0660   39.9900 C   0  0  0  0  0  0  0  0  0  0  0  0
   36.5420   22.0740   39.6920 H   0  0  0  0  0  0  0  0  0  0  0  0
   36.4520   24.2630   39.4130 C   0  0  0  0  0  0  0  0  0  0  0  0
   35.7680   24.1780   38.5700 H   0  0  0  0  0  0  0  0  0  0  0  0
   36.9260   25.4570   39.9110 C   0  0  0  0  0  3  0  0  0  0  0  0
   37.7840   25.5570   40.9670 C   0  0  0  0  0  0  0  0  0  0  0  0
   38.3680   33.3220   39.9170 C   0  0  0  0  0  0  0  0  0  0  0  0
   37.2680   34.1610   39.6750 F   0  0  0  0  0  0  0  0  0  0  0  0
   39.4560   33.9470   39.3510 F   0  0  0  0  0  0  0  0  0  0  0  0
   38.4490   33.1560   41.2730 F   0  0  0  0  0  0  0  0  0  0  0  0
  1  9  1  0  0  0  0
  1  2  1  0  0  0  0
  2 10  1  0  0  0  0
  3  2  2  0  0  0  0
  3 25  1  0  0  0  0
  4  3  1  0  0  0  0
  5  4  2  0  0  0  0
  5  6  1  0  0  0  0
  6  1  2  0  0  0  0
  7  8  2  0  0  0  0
  7 13  1  0  0  0  0
  9  7  1  0  0  0  0
 11  5  1  0  0  0  0
 12  9  1  0  0  0  0
 13 14  1  0  0  0  0
 14 15  2  0  0  0  0
 16 15  1  0  0  0  0
 17 16  2  0  0  0  0
 18 17  1  0  0  0  0
 19 18  2  0  0  0  0
 20 19  1  0  0  0  0
 21 23  2  0  0  0  0
 21 19  1  0  0  0  0
 22 21  1  0  0  0  0
 23 24  1  0  0  0  0
 24 13  2  0  0  0  0
 24 17  1  0  0  0  0
 25 28  1  0  0  0  0
 26 25  1  0  0  0  0
 27 25  1  0  0  0  0
M  END
>  <minimizedAffinity>
-5.44849634

$$$$

 OpenBabel03252503293D

 28 30  0  0  0  0  0  0  0  0999 V2000
   37.8890   31.0890   39.2450 C   0  0  0  0  0  0  0  0  0  0  0  0
   39.2060   31.2610   39.7290 C   0  0  0  0  0  0  0  0  0  0  0  0
   39.5350   32.5860   40.0820 C   0  0  0  0  0  0  0  0  0  0  0  0
   38.5960   33.5510   39.9340 N   0  0  0  0  0  0  0  0  0  0  0  0
   37.3470   33.3120   39.4620 C   0  0  0  0  0  0  0  0  0  0  0  0
   36.9940   32.0690   39.1150 N   0  0  0  0  0  0  0  0  0  0  0  0
   37.1820   28.9390   39.9820 C   0  0  0  0  0  0  0  0  0  0  0  0
   37.3690   29.4560   41.1110 O   0  0  0  0  0  0  0  0  0  0  0  0
   37.4500   29.7790   38.8760 N   0  0  0  0  0  0  0  0  0  0  0  0
   39.8870   30.4460   39.8140 H   0  0  0  0  0  0  0  0  0  0  0  0
   36.7070   34.1820   39.4000 H   0  0  0  0  0  0  0  0  0  0  0  0
   37.3560   29.5290   37.8920 H   0  0  0  0  0  0  0  0  0  0  0  0
   36.7290   27.5970   39.5410 C   0  0  0  0  0  0  0  0  0  0  0  0
   36.0980   27.3540   38.3760 N   0  0  0  0  0  0  0  0  0  0  0  0
   35.6940   26.1570   37.9830 C   0  0  0  0  0  3  0  0  0  0  0  0
   35.8810   25.0720   38.7240 N   0  0  0  0  0  0  0  0  0  0  0  0
   36.5080   25.2060   39.9170 C   0  0  0  0  0  0  0  0  0  0  0  0
   36.7010   24.0820   40.6810 C   0  0  0  0  0  3  0  0  0  0  0  0
   37.3250   24.1550   41.8890 C   0  0  0  0  0  0  0  0  0  0  0  0
   37.4330   23.2230   42.4210 H   0  0  0  0  0  0  0  0  0  0  0  0
   37.7510   25.4060   42.3070 C   0  0  0  0  0  0  0  0  0  0  0  0
   38.2460   25.4350   43.2750 H   0  0  0  0  0  0  0  0  0  0  0  0
   37.5380   26.5080   41.5090 C   0  0  0  0  0  3  0  0  0  0  0  0
   36.9160   26.4660   40.2950 C   0  0  0  0  0  0  0  0  0  0  0  0
   40.8990   32.7620   40.5840 C   0  0  0  0  0  0  0  0  0  0  0  0
   41.0170   32.0770   41.8050 F   0  0  0  0  0  0  0  0  0  0  0  0
   41.0480   34.0980   40.8800 F   0  0  0  0  0  0  0  0  0  0  0  0
   41.8580   32.2540   39.7510 F   0  0  0  0  0  0  0  0  0  0  0  0
  1  2  1  0  0  0  0
  2 10  1  0  0  0  0
  2  3  2  0  0  0  0
  3 25  1  0  0  0  0
  4  3  1  0  0  0  0
  5  4  2  0  0  0  0
  6  1  2  0  0  0  0
  6  5  1  0  0  0  0
  7  8  2  0  0  0  0
  9  1  1  0  0  0  0
  9  7  1  0  0  0  0
 11  5  1  0  0  0  0
 12  9  1  0  0  0  0
 13  7  1  0  0  0  0
 13 24  1  0  0  0  0
 14 13  2  0  0  0  0
 15 14  1  0  0  0  0
 15 16  2  0  0  0  0
 16 17  1  0  0  0  0
 17 24  2  0  0  0  0
 17 18  1  0  0  0  0
 18 19  2  0  0  0  0
 19 21  1  0  0  0  0
 19 20  1  0  0  0  0
 21 22  1  0  0  0  0
 23 21  2  0  0  0  0
 24 23  1  0  0  0  0
 25 27  1  0  0  0  0
 25 26  1  0  0  0  0
 28 25  1  0  0  0  0
M  END
>  <minimizedAffinity>
-5.34303045

$$$$
