
 OpenBabel03252502243D

 37 40  0  0  1  0  0  0  0  0999 V2000
   47.3870   33.3120   41.7680 N   0  0  0  0  0  0  0  0  0  0  0  0
   48.6260   33.0050   42.4720 C   0  0  0  0  0  0  0  0  0  0  0  0
   49.0820   34.3460   43.0390 C   0  0  0  0  0  0  0  0  0  0  0  0
   49.4220   35.2940   41.9280 C   0  0  0  0  0  0  0  0  0  0  0  0
   48.5110   35.2330   40.7550 C   0  0  0  0  0  0  0  0  0  0  0  0
   47.2350   34.4960   40.9680 C   0  0  1  0  0  0  0  0  0  0  0  0
   49.3630   32.7330   41.7030 H   0  0  0  0  0  0  0  0  0  0  0  0
   48.4910   32.2750   43.2630 H   0  0  0  0  0  0  0  0  0  0  0  0
   50.0570   34.1030   43.5550 H   0  0  0  0  0  0  0  0  0  0  0  0
   48.3400   34.7170   43.7470 H   0  0  0  0  0  0  0  0  0  0  0  0
   50.4910   35.1800   41.6020 H   0  0  0  0  0  0  0  0  0  0  0  0
   49.3690   36.3280   42.3480 H   0  0  0  0  0  0  0  0  0  0  0  0
   48.2850   36.2300   40.3180 H   0  0  0  0  0  0  0  0  0  0  0  0
   49.0550   34.6940   39.9310 H   0  0  0  0  0  0  0  0  0  0  0  0
   46.4910   35.1880   41.4380 H   0  0  0  0  0  0  0  0  0  0  0  0
   44.0000   31.8960   42.4870 C   0  0  0  0  0  0  0  0  0  0  0  0
   45.0440   32.8260   42.4420 C   0  0  0  0  0  0  0  0  0  0  0  0
   46.2720   32.4290   41.8550 C   0  0  0  0  0  0  0  0  0  0  0  0
   46.3580   31.1630   41.3700 N   0  0  0  0  0  0  0  0  0  0  0  0
   45.3120   30.2950   41.4370 C   0  0  0  0  0  0  0  0  0  0  0  0
   44.1430   30.6700   41.9940 N   0  0  0  0  0  0  0  0  0  0  0  0
   43.1310   32.3350   42.9580 H   0  0  0  0  0  0  0  0  0  0  0  0
   45.0070   33.8360   42.8180 H   0  0  0  0  0  0  0  0  0  0  0  0
   45.4010   29.2920   41.0450 H   0  0  0  0  0  0  0  0  0  0  0  0
   46.7440   34.1120   39.7080 O   0  0  0  0  0  0  0  0  0  0  0  0
   47.4160   33.3450   38.7910 C   0  0  0  0  0  0  0  0  0  0  0  0
   48.7410   33.1970   38.6190 N   0  0  0  0  0  0  0  0  0  0  0  0
   49.2540   32.4090   37.6770 C   0  0  0  0  0  3  0  0  0  0  0  0
   48.4470   31.7090   36.8380 N   0  0  0  0  0  0  0  0  0  0  0  0
   47.1170   31.8100   36.9560 C   0  0  0  0  0  0  0  0  0  0  0  0
   46.2980   31.1020   36.1060 C   0  0  0  0  0  3  0  0  0  0  0  0
   44.9290   31.1770   36.1930 C   0  0  0  0  0  0  0  0  0  0  0  0
   44.2040   30.6570   35.5690 H   0  0  0  0  0  0  0  0  0  0  0  0
   44.3840   31.9780   37.1500 C   0  0  0  0  0  0  0  0  0  0  0  0
   43.3190   32.0960   37.2890 H   0  0  0  0  0  0  0  0  0  0  0  0
   45.2150   32.6840   37.9970 C   0  0  0  0  0  3  0  0  0  0  0  0
   46.5950   32.6330   37.9370 C   0  0  0  0  0  0  0  0  0  0  0  0
  1 18  1  0  0  0  0
  1  2  1  0  0  0  0
  2  3  1  0  0  0  0
  2  8  1  0  0  0  0
  3  9  1  0  0  0  0
  3 10  1  0  0  0  0
  4 12  1  0  0  0  0
  4  3  1  0  0  0  0
  5  6  1  0  0  0  0
  5  4  1  0  0  0  0
  6 15  1  1  0  0  0
  6  1  1  0  0  0  0
  7  2  1  0  0  0  0
 11  4  1  0  0  0  0
 13  5  1  0  0  0  0
 14  5  1  0  0  0  0
 16 22  1  0  0  0  0
 17 16  1  0  0  0  0
 17 23  1  0  0  0  0
 18 17  2  0  0  0  0
 19 20  2  0  0  0  0
 19 18  1  0  0  0  0
 20 21  1  0  0  0  0
 21 16  2  0  0  0  0
 24 20  1  0  0  0  0
 25  6  1  0  0  0  0
 26 25  1  0  0  0  0
 27 26  1  0  0  0  0
 28 27  2  0  0  0  0
 29 30  2  0  0  0  0
 29 28  1  0  0  0  0
 30 37  1  0  0  0  0
 31 32  2  0  0  0  0
 31 30  1  0  0  0  0
 32 34  1  0  0  0  0
 33 32  1  0  0  0  0
 34 35  1  0  0  0  0
 34 36  2  0  0  0  0
 37 36  1  0  0  0  0
 37 26  2  0  0  0  0
M  END
>  <minimizedAffinity>
-4.07292318

>  <minimizedRMSD>
5.36948204

$$$$
