
 OpenBabel03242517483D

 46 50  0  0  0  0  0  0  0  0999 V2000
   38.5470   31.8210   41.1990 C   0  0  0  0  0  0  0  0  0  0  0  0
   39.9230   31.7180   40.9790 C   0  0  0  0  0  0  0  0  0  0  0  0
   40.4180   30.4890   40.6140 C   0  0  0  0  0  0  0  0  0  0  0  0
   39.5590   29.4460   40.4850 N   0  0  0  0  0  0  0  0  0  0  0  0
   38.2260   29.5830   40.7070 C   0  0  0  0  0  0  0  0  0  0  0  0
   37.6980   30.7480   41.0610 N   0  0  0  0  0  0  0  0  0  0  0  0
   38.0940   32.7750   41.4920 H   0  0  0  0  0  0  0  0  0  0  0  0
   41.4840   30.3790   40.4360 H   0  0  0  0  0  0  0  0  0  0  0  0
   37.3760   28.3860   40.5410 C   0  0  0  0  0  0  0  0  0  0  0  0
   37.0860   28.0550   41.5690 H   0  0  0  0  0  0  0  0  0  0  0  0
   37.8810   27.5570   40.0480 H   0  0  0  0  0  0  0  0  0  0  0  0
   36.0720   28.7420   39.8160 C   0  0  0  0  0  0  0  0  0  0  0  0
   35.2120   28.5580   40.4910 H   0  0  0  0  0  0  0  0  0  0  0  0
   36.0710   29.7850   39.4860 H   0  0  0  0  0  0  0  0  0  0  0  0
   35.9620   27.7860   38.6810 C   0  0  0  0  0  0  0  0  0  0  0  0
   36.7490   27.7830   37.5900 N   0  0  0  0  0  0  0  0  0  0  0  0
   36.6090   26.8970   36.5920 C   0  0  0  0  0  3  0  0  0  0  0  0
   35.6610   25.9460   36.6250 N   0  0  0  0  0  0  0  0  0  0  0  0
   34.8290   25.8820   37.6900 C   0  0  0  0  0  0  0  0  0  0  0  0
   33.8720   24.8900   37.6800 C   0  0  0  0  0  3  0  0  0  0  0  0
   33.0070   24.7920   38.7430 C   0  0  0  0  0  0  0  0  0  0  0  0
   32.2290   24.0380   38.8070 H   0  0  0  0  0  0  0  0  0  0  0  0
   33.1350   25.6870   39.7700 C   0  0  0  0  0  0  0  0  0  0  0  0
   32.4560   25.6110   40.6070 H   0  0  0  0  0  0  0  0  0  0  0  0
   34.0920   26.6880   39.7920 C   0  0  0  0  0  3  0  0  0  0  0  0
   34.9740   26.7970   38.7190 C   0  0  0  0  0  0  0  0  0  0  0  0
   40.9870   33.1140   41.1640 S   0  0  0  0  0  0  0  0  0  0  0  0
   40.9470   34.1210   39.7090 C   0  0  0  0  0  0  0  0  0  0  0  0
   39.8610   34.1700   38.8450 C   0  0  0  0  0  0  0  0  0  0  0  0
   39.9090   34.9870   37.7250 C   0  0  0  0  0  0  0  0  0  0  0  0
   41.0060   35.7500   37.4470 C   0  0  0  0  0  0  0  0  0  0  0  0
   42.0810   35.6950   38.3120 C   0  0  0  0  0  0  0  0  0  0  0  0
   42.0650   34.8920   39.4360 C   0  0  0  0  0  0  0  0  0  0  0  0
   39.0050   33.5640   39.0760 H   0  0  0  0  0  0  0  0  0  0  0  0
   39.0040   34.9500   37.1150 H   0  0  0  0  0  0  0  0  0  0  0  0
   40.9370   36.3390   36.5640 H   0  0  0  0  0  0  0  0  0  0  0  0
   42.9310   36.3170   38.0540 H   0  0  0  0  0  0  0  0  0  0  0  0
   43.2060   34.8470   40.3350 C   0  0  0  0  0  0  0  0  0  0  0  0
   44.2820   34.0290   40.1800 C   0  0  0  0  0  0  0  0  0  0  0  0
   45.3680   34.0020   41.0570 C   0  0  0  0  0  0  0  0  0  0  0  0
   45.3510   34.8310   42.1120 N   0  0  0  0  0  0  0  0  0  0  0  0
   44.2860   35.6470   42.2740 C   0  0  0  0  0  0  0  0  0  0  0  0
   43.2420   35.6600   41.4160 N   0  0  0  0  0  0  0  0  0  0  0  0
   44.3070   33.3510   39.3260 H   0  0  0  0  0  0  0  0  0  0  0  0
   46.1960   33.3330   40.8850 H   0  0  0  0  0  0  0  0  0  0  0  0
   44.1390   36.3730   43.0890 H   0  0  0  0  0  0  0  0  0  0  0  0
  1  7  1  0  0  0  0
  2 27  1  0  0  0  0
  2  1  2  0  0  0  0
  3  2  1  0  0  0  0
  4  3  2  0  0  0  0
  4  5  1  0  0  0  0
  5  6  2  0  0  0  0
  6  1  1  0  0  0  0
  8  3  1  0  0  0  0
  9  5  1  0  0  0  0
  9 10  1  0  0  0  0
 11  9  1  0  0  0  0
 12 13  1  0  0  0  0
 12  9  1  0  0  0  0
 14 12  1  0  0  0  0
 15 26  1  0  0  0  0
 15 12  1  0  0  0  0
 16 15  2  0  0  0  0
 17 18  2  0  0  0  0
 17 16  1  0  0  0  0
 18 19  1  0  0  0  0
 19 26  1  0  0  0  0
 20 19  2  0  0  0  0
 20 21  1  0  0  0  0
 21 22  1  0  0  0  0
 21 23  2  0  0  0  0
 23 25  1  0  0  0  0
 23 24  1  0  0  0  0
 26 25  2  0  0  0  0
 28 27  1  0  0  0  0
 29 34  1  0  0  0  0
 29 28  2  0  0  0  0
 30 29  1  0  0  0  0
 31 30  2  0  0  0  0
 31 32  1  0  0  0  0
 32 33  2  0  0  0  0
 33 28  1  0  0  0  0
 33 38  1  0  0  0  0
 35 30  1  0  0  0  0
 36 31  1  0  0  0  0
 37 32  1  0  0  0  0
 38 43  1  0  0  0  0
 39 38  2  0  0  0  0
 39 40  1  0  0  0  0
 40 41  2  0  0  0  0
 41 42  1  0  0  0  0
 42 46  1  0  0  0  0
 43 42  2  0  0  0  0
 44 39  1  0  0  0  0
 45 40  1  0  0  0  0
M  END
>  <minimizedAffinity>
-5.51803684

>  <minimizedRMSD>
2.21109843

$$$$
