
 OpenBabel03252506373D

 47 51  0  0  1  0  0  0  0  0999 V2000
   46.4760   30.0640   46.4530 S   0  0  0  0  0  0  0  0  0  0  0  0
   45.8510   30.4630   43.1980 O   0  0  0  0  0  0  0  0  0  0  0  0
   45.0930   29.9910   44.0600 C   0  0  0  0  0  0  0  0  0  0  0  0
   45.0150   29.8240   45.5330 C   0  0  1  0  0  0  0  0  0  0  0  0
   44.3960   28.4530   45.6590 C   0  0  0  0  0  0  0  0  0  0  0  0
   43.1870   28.6940   44.7510 C   0  0  0  0  0  0  0  0  0  0  0  0
   43.8600   29.3780   43.6530 N   0  0  0  0  0  0  0  0  0  0  0  0
   44.1310   30.4890   45.7410 H   0  0  0  0  0  0  0  0  0  0  0  0
   44.0100   28.2370   46.6700 H   0  0  0  0  0  0  0  0  0  0  0  0
   45.0500   27.6730   45.2640 H   0  0  0  0  0  0  0  0  0  0  0  0
   42.5180   29.4170   45.2590 H   0  0  0  0  0  0  0  0  0  0  0  0
   42.7030   27.7580   44.4540 H   0  0  0  0  0  0  0  0  0  0  0  0
   43.2220   29.3470   42.3610 C   0  0  0  0  0  0  0  0  0  0  0  0
   43.0000   28.1430   41.7880 N   0  0  0  0  0  0  0  0  0  0  0  0
   42.4020   28.0240   40.5680 C   0  0  0  0  0  3  0  0  0  0  0  0
   42.0090   29.1040   39.8880 N   0  0  0  0  0  0  0  0  0  0  0  0
   42.2170   30.3190   40.4340 C   0  0  0  0  0  0  0  0  0  0  0  0
   41.8240   31.4590   39.7610 C   0  0  0  0  0  3  0  0  0  0  0  0
   42.0240   32.7240   40.2960 C   0  0  0  0  0  0  0  0  0  0  0  0
   41.7100   33.6070   39.7550 H   0  0  0  0  0  0  0  0  0  0  0  0
   42.6370   32.8080   41.5420 C   0  0  0  0  0  0  0  0  0  0  0  0
   42.7750   33.8100   41.9270 H   0  0  0  0  0  0  0  0  0  0  0  0
   43.0520   31.6910   42.2630 C   0  0  0  0  0  3  0  0  0  0  0  0
   42.8190   30.4730   41.6660 C   0  0  0  0  0  0  0  0  0  0  0  0
   44.5050   35.6250   45.1190 C   0  0  0  0  0  0  0  0  0  0  0  0
   45.1160   35.5900   43.8410 C   0  0  0  0  0  0  0  0  0  0  0  0
   45.9890   34.5930   43.5510 C   0  0  0  0  0  0  0  0  0  0  0  0
   46.2230   33.6760   44.5210 N   0  0  0  0  0  0  0  0  0  0  0  0
   45.6490   33.7130   45.7150 C   0  0  0  0  0  0  0  0  0  0  0  0
   44.7870   34.6810   46.0290 N   0  0  0  0  0  0  0  0  0  0  0  0
   45.9780   32.6890   46.6680 N   0  0  0  0  0  0  0  0  0  0  0  0
   45.2800   32.4650   47.8790 C   0  0  0  0  0  0  0  0  0  0  0  0
   46.3810   32.0810   48.8510 C   0  0  0  0  0  0  0  0  0  0  0  0
   47.6240   31.9220   48.0290 C   0  0  0  0  0  0  0  0  0  0  0  0
   47.0600   31.7350   46.6230 C   0  0  1  0  0  0  0  0  0  0  0  0
   43.8100   36.4220   45.3470 H   0  0  0  0  0  0  0  0  0  0  0  0
   46.4530   34.5580   42.5960 H   0  0  0  0  0  0  0  0  0  0  0  0
   44.9430   33.4840   48.2480 H   0  0  0  0  0  0  0  0  0  0  0  0
   44.4720   31.8240   48.0150 H   0  0  0  0  0  0  0  0  0  0  0  0
   46.1510   31.0870   49.3270 H   0  0  0  0  0  0  0  0  0  0  0  0
   46.5220   32.7840   49.6700 H   0  0  0  0  0  0  0  0  0  0  0  0
   48.1830   31.0310   48.3500 H   0  0  0  0  0  0  0  0  0  0  0  0
   48.2690   32.8220   48.0640 H   0  0  0  0  0  0  0  0  0  0  0  0
   47.8370   31.9890   45.9000 H   0  0  0  0  0  0  0  0  0  0  0  0
   44.7630   36.6370   42.9220 N   0  0  0  0  0  0  0  0  0  0  0  0
   45.4810   36.9690   42.2200 H   0  0  0  0  0  0  0  0  0  0  0  0
   43.8070   37.0300   42.9840 H   0  0  0  0  0  0  0  0  0  0  0  0
  1 35  1  0  0  0  0
  2  3  2  0  0  0  0
  3  4  1  0  0  0  0
  4  5  1  0  0  0  0
  4  8  1  1  0  0  0
  4  1  1  0  0  0  0
  5  9  1  0  0  0  0
  6 11  1  0  0  0  0
  6  5  1  0  0  0  0
  7  3  1  0  0  0  0
  7  6  1  0  0  0  0
 10  5  1  0  0  0  0
 12  6  1  0  0  0  0
 13  7  1  0  0  0  0
 14 13  1  0  0  0  0
 15 14  2  0  0  0  0
 16 17  2  0  0  0  0
 16 15  1  0  0  0  0
 17 24  1  0  0  0  0
 18 19  2  0  0  0  0
 18 17  1  0  0  0  0
 19 21  1  0  0  0  0
 20 19  1  0  0  0  0
 21 22  1  0  0  0  0
 21 23  2  0  0  0  0
 24 23  1  0  0  0  0
 24 13  2  0  0  0  0
 25 36  1  0  0  0  0
 25 30  1  0  0  0  0
 26 25  2  0  0  0  0
 27 26  1  0  0  0  0
 27 28  2  0  0  0  0
 28 29  1  0  0  0  0
 29 30  2  0  0  0  0
 29 31  1  0  0  0  0
 31 32  1  0  0  0  0
 32 39  1  0  0  0  0
 32 38  1  0  0  0  0
 32 33  1  0  0  0  0
 33 40  1  0  0  0  0
 33 41  1  0  0  0  0
 34 43  1  0  0  0  0
 34 42  1  0  0  0  0
 34 33  1  0  0  0  0
 35 44  1  6  0  0  0
 35 31  1  0  0  0  0
 35 34  1  0  0  0  0
 37 27  1  0  0  0  0
 45 47  1  0  0  0  0
 45 26  1  0  0  0  0
 46 45  1  0  0  0  0
M  END
>  <minimizedAffinity>
-5.98052549

>  <minimizedRMSD>
0.538571596

$$$$
