
     RDKit          3D

 28 30  0  0  0  0  0  0  0  0999 V2000
   44.5072   36.0007   44.5249 C   0  0  0  0  0  0  0  0  0  0  0  0
   45.2101   35.8759   43.3177 C   0  0  0  0  0  0  0  0  0  0  0  0
   46.1257   34.8169   43.1774 C   0  0  0  0  0  0  0  0  0  0  0  0
   46.2958   33.9510   44.2194 N   0  0  0  0  0  0  0  0  0  0  0  0
   45.5874   34.1106   45.3809 C   0  0  0  0  0  0  0  0  0  0  0  0
   44.7208   35.1157   45.5102 N   0  0  0  0  0  0  0  0  0  0  0  0
   45.8714   33.1010   46.4234 C   0  0  0  0  0  0  0  0  0  0  0  0
   46.5046   31.6082   45.5911 S   0  0  0  0  0  0  0  0  0  0  0  0
   43.8150   36.8228   44.5980 H   0  0  0  0  0  0  0  0  0  0  0  0
   45.1184   36.5248   42.4633 H   0  0  0  0  0  0  0  0  0  0  0  0
   46.7023   34.6471   42.2939 H   0  0  0  0  0  0  0  0  0  0  0  0
   46.6038   33.4738   47.1749 H   0  0  0  0  0  0  0  0  0  0  0  0
   44.9391   32.8868   46.9753 H   0  0  0  0  0  0  0  0  0  0  0  0
   45.2011   30.9034   44.5967 C   0  0  0  0  0  0  0  0  0  0  0  0
   44.4890   29.7914   44.9026 N   0  0  0  0  0  0  0  0  0  0  0  0
   43.5289   29.3570   44.0635 C   0  0  0  0  0  0  0  0  0  0  0  0
   43.2459   30.0065   42.9020 N   0  0  0  0  0  0  0  0  0  0  0  0
   43.9305   31.1291   42.5445 C   0  0  0  0  0  0  0  0  0  0  0  0
   43.6090   31.7524   41.3567 C   0  0  0  0  0  0  0  0  0  0  0  0
   44.3309   32.9013   41.0187 C   0  0  0  0  0  0  0  0  0  0  0  0
   44.1709   33.4733   40.1183 H   0  0  0  0  0  0  0  0  0  0  0  0
   45.3171   33.3678   41.8569 C   0  0  0  0  0  0  0  0  0  0  0  0
   45.9081   34.2637   41.6332 H   0  0  0  0  0  0  0  0  0  0  0  0
   45.5918   32.6983   43.0329 C   0  0  0  0  0  0  0  0  0  0  0  0
   44.9074   31.5546   43.4178 C   0  0  0  0  0  0  0  0  0  0  0  0
   42.9651   28.4528   44.3342 H   0  0  0  0  0  0  0  0  0  0  0  0
   42.8413   31.4061   40.6821 H   0  0  0  0  0  0  0  0  0  0  0  0
   46.3692   33.0780   43.6778 H   0  0  0  0  0  0  0  0  0  0  0  0
  1  6  2  0
  2  1  1  0
  3  2  2  0
  3  4  1  0
  4  5  2  0
  5  6  1  0
  5  7  1  0
  8  7  1  0
  1  9  1  0
  2 10  1  0
  3 11  1  0
  7 12  1  0
  7 13  1  0
 14 15  2  0
 15 16  1  0
 16 17  2  0
 17 18  1  0
 18 19  2  0
 19 20  1  0
 20 21  1  0
 20 22  2  0
 22 23  1  0
 22 24  1  0
 24 25  2  0
 25 14  1  0
 25 18  1  0
 16 26  1  0
 19 27  1  0
 24 28  1  0
  8 14  1  0
M  ISO  7   9  14  10  14  11  14  12   8  13   8  21  16  23  16
M  END
>  <DihAtoms>  (1) 
6,7,13,14

>  <DihDeg>  (1) 
0.10962892898769254

$$$$
