REMARK  Name = 
REMARK  6 active torsions:
REMARK  status: ('A' for Active; 'I' for Inactive)
REMARK    1  A    between atoms: C_1  and  C_2
REMARK    2  A    between atoms: C_1  and  C_14
REMARK    3  A    between atoms: C_6  and  C_8
REMARK    4  A    between atoms: C_14  and  N_15
REMARK    5  A    between atoms: C_20  and  S_21
REMARK    6  A    between atoms: S_21  and  C_39
REMARK                            x       y       z     vdW  Elec       q    Type
REMARK                         _______ _______ _______ _____ _____    ______ ____
ROOT
ATOM      1  N   UNL     1      41.001  33.502  40.337  0.00  0.00    +0.000 N 
ATOM      2  C   UNL     1      40.324  32.249  40.341  0.00  0.00    +0.000 C 
ATOM      3  C   UNL     1      38.948  32.726  40.804  0.00  0.00    +0.000 C 
ATOM      4  C   UNL     1      38.330  33.696  39.917  0.00  0.00    +0.000 C 
ATOM      5  C   UNL     1      39.168  34.500  39.054  0.00  0.00    +0.000 C 
ATOM      6  C   UNL     1      40.665  34.451  39.249  0.00  0.00    +0.000 C 
ATOM      7  H   UNL     1      40.313  31.652  39.444  0.00  0.00    +0.000 HD
ATOM      8  H   UNL     1      40.725  31.681  41.232  0.00  0.00    +0.000 HD
ATOM      9  H   UNL     1      38.296  31.849  40.996  0.00  0.00    +0.000 HD
ATOM     10  H   UNL     1      39.143  33.184  41.812  0.00  0.00    +0.000 HD
ATOM     11  H   UNL     1      37.577  33.184  39.264  0.00  0.00    +0.000 HD
ATOM     12  H   UNL     1      37.700  34.401  40.533  0.00  0.00    +0.000 HD
ATOM     13  H   UNL     1      38.843  35.151  38.295  0.00  0.00    +0.000 HD
ENDROOT
BRANCH   1  14
ATOM     14  C   UNL     1      41.904  33.953  41.208  0.00  0.00    +0.000 C 
ATOM     15  H   UNL     1      42.194  35.048  41.046  0.00  0.00    +0.000 HD
ATOM     16  H   UNL     1      41.548  33.937  42.261  0.00  0.00    +0.000 HD
BRANCH  14  17
ATOM     17  C   UNL     1      43.201  33.227  41.157  0.00  0.00    +0.000 C 
ATOM     18  H   UNL     1      43.151  32.224  41.665  0.00  0.00    +0.000 HD
ATOM     19  H   UNL     1      43.547  33.012  40.123  0.00  0.00    +0.000 HD
BRANCH  17  20
ATOM     20  C   UNL     1      44.230  34.076  41.784  0.00  0.00    +0.000 A 
ATOM     21  C   UNL     1      43.879  35.257  42.401  0.00  0.00    +0.000 A 
ATOM     22  C   UNL     1      44.887  36.026  42.964  0.00  0.00    +0.000 A 
ATOM     23  N   UNL     1      46.173  35.574  42.881  0.00  0.00    +0.000 NA
ATOM     24  C   UNL     1      46.474  34.427  42.279  0.00  0.00    +0.000 A 
ATOM     25  N   UNL     1      45.488  33.701  41.741  0.00  0.00    +0.000 NA
ATOM     26  H   UNL     1      42.947  35.763  42.580  0.00  0.00    +0.000 HD
ATOM     27  H   UNL     1      44.802  36.979  43.485  0.00  0.00    +0.000 HD
BRANCH  24  28
ATOM     28  C   UNL     1      47.875  34.006  42.262  0.00  0.00    +0.000 A 
ATOM     29  C   UNL     1      48.212  32.679  42.012  0.00  0.00    +0.000 A 
ATOM     30  C   UNL     1      49.528  32.295  42.003  0.00  0.00    +0.000 A 
ATOM     31  C   UNL     1      50.419  33.304  42.253  0.00  0.00    +0.000 A 
ATOM     32  C   UNL     1      50.144  34.651  42.511  0.00  0.00    +0.000 A 
ATOM     33  N   UNL     1      48.818  34.940  42.500  0.00  0.00    +0.000 NA
ATOM     34  H   UNL     1      47.446  31.927  41.821  0.00  0.00    +0.000 HD
ATOM     35  H   UNL     1      49.889  31.297  41.821  0.00  0.00    +0.000 HD
ATOM     36  H   UNL     1      51.492  33.057  42.259  0.00  0.00    +0.000 HD
ATOM     37  H   UNL     1      50.913  35.358  42.694  0.00  0.00    +0.000 HD
ENDBRANCH  24  28
ENDBRANCH  17  20
ENDBRANCH  14  17
ENDBRANCH   1  14
BRANCH   6  38
ATOM     38  S   UNL     1      41.775  35.417  38.337  0.00  0.00    +0.000 S 
BRANCH  38  39
ATOM     39  C   UNL     1      40.997  36.426  37.141  0.00  0.00    +0.000 A 
ATOM     40  N   UNL     1      40.882  36.373  35.819  0.00  0.00    +0.000 NA
ATOM     41  C   UNL     1      40.242  37.240  35.055  0.00  0.00    +0.000 A 
ATOM     42  N   UNL     1      39.634  38.291  35.606  0.00  0.00    +0.000 NA
ATOM     43  C   UNL     1      39.681  38.454  36.944  0.00  0.00    +0.000 A 
ATOM     44  C   UNL     1      39.026  39.563  37.418  0.00  0.00    +0.000 A 
ATOM     45  C   UNL     1      39.035  39.788  38.770  0.00  0.00    +0.000 A 
ATOM     46  H   UNL     1      38.558  40.622  39.257  0.00  0.00    +0.000 HD
ATOM     47  C   UNL     1      39.682  38.918  39.592  0.00  0.00    +0.000 A 
ATOM     48  H   UNL     1      39.722  39.047  40.667  0.00  0.00    +0.000 HD
ATOM     49  C   UNL     1      40.325  37.820  39.070  0.00  0.00    +0.000 A 
ATOM     50  C   UNL     1      40.361  37.524  37.715  0.00  0.00    +0.000 A 
ENDBRANCH  38  39
ENDBRANCH   6  38
TORSDOF 6
