
 OpenBabel03252506463D

 45 49  0  0  1  0  0  0  0  0999 V2000
   49.3760   33.2720   41.5860 N   0  0  1  0  0  0  0  0  0  0  0  0
   50.6990   33.2200   42.1550 C   0  0  0  0  0  0  0  0  0  0  0  0
   51.4130   31.9160   41.9660 C   0  0  0  0  0  0  0  0  0  0  0  0
   50.6740   30.8430   42.7360 C   0  0  0  0  0  0  0  0  0  0  0  0
   49.1930   31.0790   42.7060 C   0  0  0  0  0  0  0  0  0  0  0  0
   48.8470   31.9290   41.5090 C   0  0  2  0  0  0  0  0  0  0  0  0
   50.6550   33.4070   43.2490 H   0  0  0  0  0  0  0  0  0  0  0  0
   51.2640   34.0620   41.7170 H   0  0  0  0  0  0  0  0  0  0  0  0
   52.4340   32.0760   42.4310 H   0  0  0  0  0  0  0  0  0  0  0  0
   51.6330   31.6360   40.9340 H   0  0  0  0  0  0  0  0  0  0  0  0
   50.9720   29.8270   42.4500 H   0  0  0  0  0  0  0  0  0  0  0  0
   50.9820   30.9770   43.8110 H   0  0  0  0  0  0  0  0  0  0  0  0
   48.5940   30.1630   42.6600 H   0  0  0  0  0  0  0  0  0  0  0  0
   48.8330   31.6380   43.6000 H   0  0  0  0  0  0  0  0  0  0  0  0
   47.7410   32.0290   41.5260 H   0  0  0  0  0  0  0  0  0  0  0  0
   49.1710   31.2400   40.2910 N   0  0  0  0  0  0  0  0  0  0  0  0
   50.1940   31.0800   40.2080 H   0  0  0  0  0  0  0  0  0  0  0  0
   48.2970   30.8100   39.2670 C   0  0  0  0  0  0  0  0  0  0  0  0
   47.4750   29.7580   39.3570 N   0  0  0  0  0  0  0  0  0  0  0  0
   46.6350   29.3150   38.4380 C   0  0  0  0  0  3  0  0  0  0  0  0
   46.5760   29.9730   37.2690 N   0  0  0  0  0  0  0  0  0  0  0  0
   47.3520   31.0460   37.0550 C   0  0  0  0  0  0  0  0  0  0  0  0
   47.2740   31.6970   35.8580 C   0  0  0  0  0  3  0  0  0  0  0  0
   48.0430   32.8050   35.5710 C   0  0  0  0  0  0  0  0  0  0  0  0
   47.9280   33.2650   34.6130 H   0  0  0  0  0  0  0  0  0  0  0  0
   48.9060   33.2280   36.5670 C   0  0  0  0  0  0  0  0  0  0  0  0
   49.5030   34.0970   36.3300 H   0  0  0  0  0  0  0  0  0  0  0  0
   48.9650   32.5570   37.7590 C   0  0  0  0  0  3  0  0  0  0  0  0
   48.2040   31.4530   38.0540 C   0  0  0  0  0  0  0  0  0  0  0  0
   47.1730   34.5120   42.0510 C   0  0  1  0  0  0  0  0  0  0  0  0
   48.2500   35.4670   41.6990 C   0  0  0  0  0  0  0  0  0  0  0  0
   48.5920   34.1770   42.3290 C   0  0  2  0  0  0  0  0  0  0  0  0
   46.6190   34.0920   41.1820 H   0  0  0  0  0  0  0  0  0  0  0  0
   48.3890   36.3760   42.3160 H   0  0  0  0  0  0  0  0  0  0  0  0
   48.5230   35.6440   40.6290 H   0  0  0  0  0  0  0  0  0  0  0  0
   48.8460   34.1940   43.4320 H   0  0  0  0  0  0  0  0  0  0  0  0
   45.5070   36.0200   43.1700 C   0  0  0  0  0  0  0  0  0  0  0  0
   46.2700   34.8420   43.1720 C   0  0  0  0  0  0  0  0  0  0  0  0
   46.1340   33.9720   44.2780 C   0  0  0  0  0  0  0  0  0  0  0  0
   45.2800   34.3210   45.2670 N   0  0  0  0  0  0  0  0  0  0  0  0
   44.5570   35.4580   45.2430 C   0  0  0  0  0  0  0  0  0  0  0  0
   44.6640   36.3240   44.1880 N   0  0  0  0  0  0  0  0  0  0  0  0
   45.6130   36.6830   42.3230 H   0  0  0  0  0  0  0  0  0  0  0  0
   46.7080   33.0550   44.3130 H   0  0  0  0  0  0  0  0  0  0  0  0
   43.9140   35.6090   46.1020 H   0  0  0  0  0  0  0  0  0  0  0  0
  1  2  1  1  0  0  0
  1 32  1  0  0  0  0
  2  7  1  0  0  0  0
  3  2  1  0  0  0  0
  3  9  1  0  0  0  0
  3  4  1  0  0  0  0
  4 12  1  0  0  0  0
  5  4  1  0  0  0  0
  5 14  1  0  0  0  0
  6 15  1  1  0  0  0
  6  1  1  0  0  0  0
  6  5  1  0  0  0  0
  8  2  1  0  0  0  0
 10  3  1  0  0  0  0
 11  4  1  0  0  0  0
 13  5  1  0  0  0  0
 16  6  1  0  0  0  0
 17 16  1  0  0  0  0
 18 19  1  0  0  0  0
 18 16  1  0  0  0  0
 20 19  2  0  0  0  0
 21 20  1  0  0  0  0
 22 21  2  0  0  0  0
 22 29  1  0  0  0  0
 23 22  1  0  0  0  0
 24 23  2  0  0  0  0
 24 26  1  0  0  0  0
 25 24  1  0  0  0  0
 26 28  2  0  0  0  0
 27 26  1  0  0  0  0
 28 29  1  0  0  0  0
 29 18  2  0  0  0  0
 30 33  1  6  0  0  0
 30 32  1  0  0  0  0
 30 38  1  0  0  0  0
 31 30  1  0  0  0  0
 31 34  1  0  0  0  0
 31 32  1  0  0  0  0
 32 36  1  1  0  0  0
 35 31  1  0  0  0  0
 37 38  2  0  0  0  0
 37 42  1  0  0  0  0
 38 39  1  0  0  0  0
 39 44  1  0  0  0  0
 39 40  2  0  0  0  0
 41 40  1  0  0  0  0
 41 45  1  0  0  0  0
 42 41  2  0  0  0  0
 43 37  1  0  0  0  0
M  END
>  <minimizedAffinity>
-5.43716383

>  <minimizedRMSD>
1.93945861

$$$$
