
 OpenBabel03242520343D

 31 34  0  0  1  0  0  0  0  0999 V2000
   38.9440   30.6070   40.9260 C   0  0  0  0  0  0  0  0  0  0  0  0
   37.6380   31.1700   40.8490 C   0  0  0  0  0  0  0  0  0  0  0  0
   36.5890   30.3820   41.2820 C   0  0  0  0  0  0  0  0  0  0  0  0
   36.8570   29.1460   41.7430 N   0  0  0  0  0  0  0  0  0  0  0  0
   38.0680   28.6340   41.8080 C   0  0  0  0  0  0  0  0  0  0  0  0
   39.1050   29.3670   41.4010 N   0  0  0  0  0  0  0  0  0  0  0  0
   39.7220   31.2590   40.5780 H   0  0  0  0  0  0  0  0  0  0  0  0
   35.5670   30.7150   41.2660 H   0  0  0  0  0  0  0  0  0  0  0  0
   38.5350   27.3180   42.2760 C   0  0  0  0  0  0  0  0  0  0  0  0
   39.4620   27.1300   43.2480 N   0  0  0  0  0  0  0  0  0  0  0  0
   39.8920   25.9440   43.6790 C   0  0  0  0  0  3  0  0  0  0  0  0
   39.4220   24.7960   43.1650 N   0  0  0  0  0  0  0  0  0  0  0  0
   38.5030   24.8700   42.1990 C   0  0  0  0  0  0  0  0  0  0  0  0
   38.0360   23.6860   41.6880 C   0  0  0  0  0  3  0  0  0  0  0  0
   37.0950   23.6840   40.6990 C   0  0  0  0  0  0  0  0  0  0  0  0
   36.7470   22.7420   40.3150 H   0  0  0  0  0  0  0  0  0  0  0  0
   36.6520   24.9130   40.2530 C   0  0  0  0  0  0  0  0  0  0  0  0
   35.8970   24.8720   39.4590 H   0  0  0  0  0  0  0  0  0  0  0  0
   37.1430   26.0780   40.7910 C   0  0  0  0  0  3  0  0  0  0  0  0
   38.0840   26.1140   41.7810 C   0  0  0  0  0  0  0  0  0  0  0  0
   37.4120   32.5360   40.3000 C   0  0  1  0  0  0  0  0  0  0  0  0
   38.4710   33.2380   39.6060 C   0  0  0  0  0  0  0  0  0  0  0  0
   37.3570   32.6990   38.7860 C   0  0  1  0  0  0  0  0  0  0  0  0
   36.6600   33.1060   40.8840 H   0  0  0  0  0  0  0  0  0  0  0  0
   39.4970   32.8030   39.4640 H   0  0  0  0  0  0  0  0  0  0  0  0
   38.5500   34.3570   39.6800 H   0  0  0  0  0  0  0  0  0  0  0  0
   36.5830   33.4380   38.4580 H   0  0  0  0  0  0  0  0  0  0  0  0
   37.5490   31.5250   37.8920 C   0  0  0  0  0  0  0  0  0  0  0  0
   36.6220   30.5280   38.1270 F   0  0  0  0  0  0  0  0  0  0  0  0
   38.8340   30.9790   38.0200 F   0  0  0  0  0  0  0  0  0  0  0  0
   37.3750   31.9450   36.5940 F   0  0  0  0  0  0  0  0  0  0  0  0
  1  6  1  0  0  0  0
  2  1  2  0  0  0  0
  2  3  1  0  0  0  0
  3  4  2  0  0  0  0
  4  5  1  0  0  0  0
  5  9  1  0  0  0  0
  6  5  2  0  0  0  0
  7  1  1  0  0  0  0
  8  3  1  0  0  0  0
  9 10  1  0  0  0  0
 10 11  2  0  0  0  0
 12 11  1  0  0  0  0
 13 12  2  0  0  0  0
 14 13  1  0  0  0  0
 15 14  2  0  0  0  0
 16 15  1  0  0  0  0
 17 15  1  0  0  0  0
 17 19  2  0  0  0  0
 18 17  1  0  0  0  0
 19 20  1  0  0  0  0
 20 13  1  0  0  0  0
 20  9  2  0  0  0  0
 21  2  1  0  0  0  0
 21 24  1  1  0  0  0
 22 26  1  0  0  0  0
 22 21  1  0  0  0  0
 23 27  1  6  0  0  0
 23 22  1  0  0  0  0
 23 21  1  0  0  0  0
 25 22  1  0  0  0  0
 28 30  1  0  0  0  0
 28 29  1  0  0  0  0
 28 23  1  0  0  0  0
 31 28  1  0  0  0  0
M  END
>  <minimizedAffinity>
-5.99294472

$$$$

 OpenBabel03242520343D

 31 34  0  0  1  0  0  0  0  0999 V2000
   37.4530   27.1690   40.6040 C   0  0  0  0  0  0  0  0  0  0  0  0
   37.0760   26.6840   41.8890 C   0  0  0  0  0  0  0  0  0  0  0  0
   36.9820   27.6120   42.9080 C   0  0  0  0  0  0  0  0  0  0  0  0
   37.2510   28.9020   42.6320 N   0  0  0  0  0  0  0  0  0  0  0  0
   37.6020   29.3400   41.4410 C   0  0  0  0  0  0  0  0  0  0  0  0
   37.7000   28.4720   40.4330 N   0  0  0  0  0  0  0  0  0  0  0  0
   37.5110   26.4090   39.8490 H   0  0  0  0  0  0  0  0  0  0  0  0
   36.7030   27.3480   43.9110 H   0  0  0  0  0  0  0  0  0  0  0  0
   37.9300   30.6980   40.9710 C   0  0  0  0  0  0  0  0  0  0  0  0
   37.0450   31.5460   40.3910 N   0  0  0  0  0  0  0  0  0  0  0  0
   37.3310   32.7760   39.9620 C   0  0  0  0  0  3  0  0  0  0  0  0
   38.5660   33.2910   40.0740 N   0  0  0  0  0  0  0  0  0  0  0  0
   39.5140   32.5330   40.6320 C   0  0  0  0  0  0  0  0  0  0  0  0
   40.7680   33.0790   40.7360 C   0  0  0  0  0  3  0  0  0  0  0  0
   41.7880   32.3640   41.2960 C   0  0  0  0  0  0  0  0  0  0  0  0
   42.7620   32.8140   41.3660 H   0  0  0  0  0  0  0  0  0  0  0  0
   41.4900   31.0910   41.7400 C   0  0  0  0  0  0  0  0  0  0  0  0
   42.3320   30.5470   42.1830 H   0  0  0  0  0  0  0  0  0  0  0  0
   40.2210   30.5800   41.6180 C   0  0  0  0  0  3  0  0  0  0  0  0
   39.1800   31.2690   41.0630 C   0  0  0  0  0  0  0  0  0  0  0  0
   36.8200   25.2360   42.1270 C   0  0  1  0  0  0  0  0  0  0  0  0
   37.3420   24.2340   41.2220 C   0  0  0  0  0  0  0  0  0  0  0  0
   37.9950   24.3620   42.5480 C   0  0  1  0  0  0  0  0  0  0  0  0
   35.8600   25.0580   42.6560 H   0  0  0  0  0  0  0  0  0  0  0  0
   37.9380   24.4940   40.3060 H   0  0  0  0  0  0  0  0  0  0  0  0
   36.7630   23.2890   41.0300 H   0  0  0  0  0  0  0  0  0  0  0  0
   37.7120   23.5960   43.3140 H   0  0  0  0  0  0  0  0  0  0  0  0
   39.3570   24.9430   42.6900 C   0  0  0  0  0  0  0  0  0  0  0  0
   39.4030   25.9510   43.6330 F   0  0  0  0  0  0  0  0  0  0  0  0
   39.8360   25.4480   41.4730 F   0  0  0  0  0  0  0  0  0  0  0  0
   40.2040   23.9470   43.1170 F   0  0  0  0  0  0  0  0  0  0  0  0
  1  2  1  0  0  0  0
  2 21  1  0  0  0  0
  2  3  2  0  0  0  0
  3  8  1  0  0  0  0
  4  3  1  0  0  0  0
  5  4  2  0  0  0  0
  6  1  2  0  0  0  0
  6  5  1  0  0  0  0
  7  1  1  0  0  0  0
  9 20  1  0  0  0  0
  9  5  1  0  0  0  0
 10  9  2  0  0  0  0
 11 12  2  0  0  0  0
 11 10  1  0  0  0  0
 12 13  1  0  0  0  0
 13 14  2  0  0  0  0
 13 20  1  0  0  0  0
 14 15  1  0  0  0  0
 15 16  1  0  0  0  0
 15 17  2  0  0  0  0
 17 18  1  0  0  0  0
 19 17  1  0  0  0  0
 20 19  2  0  0  0  0
 21 23  1  0  0  0  0
 21 24  1  1  0  0  0
 22 21  1  0  0  0  0
 22 23  1  0  0  0  0
 23 28  1  0  0  0  0
 23 27  1  1  0  0  0
 25 22  1  0  0  0  0
 26 22  1  0  0  0  0
 28 31  1  0  0  0  0
 28 29  1  0  0  0  0
 30 28  1  0  0  0  0
M  END
>  <minimizedAffinity>
-5.68493652

$$$$

 OpenBabel03242520343D

 31 34  0  0  1  0  0  0  0  0999 V2000
   39.5620   29.2200   42.6380 C   0  0  0  0  0  0  0  0  0  0  0  0
   38.1670   28.9560   42.7550 C   0  0  0  0  0  0  0  0  0  0  0  0
   37.3150   29.7400   42.0010 C   0  0  0  0  0  0  0  0  0  0  0  0
   37.8430   30.6950   41.2140 N   0  0  0  0  0  0  0  0  0  0  0  0
   39.1340   30.9330   41.1150 C   0  0  0  0  0  0  0  0  0  0  0  0
   39.9860   30.1940   41.8260 N   0  0  0  0  0  0  0  0  0  0  0  0
   40.1790   28.5840   43.2420 H   0  0  0  0  0  0  0  0  0  0  0  0
   36.2470   29.6190   42.0180 H   0  0  0  0  0  0  0  0  0  0  0  0
   39.8740   31.9260   40.3160 C   0  0  0  0  0  0  0  0  0  0  0  0
   39.9530   33.2460   40.6110 N   0  0  0  0  0  0  0  0  0  0  0  0
   40.6200   34.1530   39.8950 C   0  0  0  0  0  3  0  0  0  0  0  0
   41.2900   33.8170   38.7820 N   0  0  0  0  0  0  0  0  0  0  0  0
   41.2740   32.5360   38.4020 C   0  0  0  0  0  0  0  0  0  0  0  0
   41.9650   32.2140   37.2620 C   0  0  0  0  0  3  0  0  0  0  0  0
   41.9940   30.9250   36.8130 C   0  0  0  0  0  0  0  0  0  0  0  0
   42.5430   30.6990   35.9170 H   0  0  0  0  0  0  0  0  0  0  0  0
   41.3040   29.9880   37.5550 C   0  0  0  0  0  0  0  0  0  0  0  0
   41.3500   28.9640   37.1650 H   0  0  0  0  0  0  0  0  0  0  0  0
   40.6240   30.3500   38.6920 C   0  0  0  0  0  3  0  0  0  0  0  0
   40.5750   31.6300   39.1680 C   0  0  0  0  0  0  0  0  0  0  0  0
   37.6500   27.8990   43.6690 C   0  0  1  0  0  0  0  0  0  0  0  0
   36.2680   27.4740   43.6020 C   0  0  0  0  0  0  0  0  0  0  0  0
   37.2950   26.5450   43.0680 C   0  0  1  0  0  0  0  0  0  0  0  0
   38.1890   27.8810   44.6400 H   0  0  0  0  0  0  0  0  0  0  0  0
   35.5290   27.9220   42.8830 H   0  0  0  0  0  0  0  0  0  0  0  0
   35.7290   27.1540   44.5350 H   0  0  0  0  0  0  0  0  0  0  0  0
   37.5790   25.6890   43.7320 H   0  0  0  0  0  0  0  0  0  0  0  0
   37.4400   26.3040   41.6080 C   0  0  0  0  0  0  0  0  0  0  0  0
   38.7070   26.6070   41.1480 F   0  0  0  0  0  0  0  0  0  0  0  0
   36.5070   27.0400   40.8640 F   0  0  0  0  0  0  0  0  0  0  0  0
   37.2320   24.9640   41.3730 F   0  0  0  0  0  0  0  0  0  0  0  0
  1  2  1  0  0  0  0
  1  7  1  0  0  0  0
  2 21  1  0  0  0  0
  3  8  1  0  0  0  0
  3  2  2  0  0  0  0
  4  3  1  0  0  0  0
  5  4  2  0  0  0  0
  5  6  1  0  0  0  0
  6  1  2  0  0  0  0
  9 10  1  0  0  0  0
  9  5  1  0  0  0  0
 11 10  2  0  0  0  0
 12 11  1  0  0  0  0
 13 12  2  0  0  0  0
 13 20  1  0  0  0  0
 14 13  1  0  0  0  0
 15 14  2  0  0  0  0
 15 17  1  0  0  0  0
 16 15  1  0  0  0  0
 17 19  2  0  0  0  0
 18 17  1  0  0  0  0
 19 20  1  0  0  0  0
 20  9  2  0  0  0  0
 21 24  1  1  0  0  0
 22 21  1  0  0  0  0
 22 26  1  0  0  0  0
 23 22  1  0  0  0  0
 23 21  1  0  0  0  0
 23 27  1  1  0  0  0
 25 22  1  0  0  0  0
 28 23  1  0  0  0  0
 29 28  1  0  0  0  0
 30 28  1  0  0  0  0
 31 28  1  0  0  0  0
M  END
>  <minimizedAffinity>
-5.5763731

$$$$

 OpenBabel03242520343D

 31 34  0  0  1  0  0  0  0  0999 V2000
   40.2960   27.1520   40.6490 C   0  0  0  0  0  0  0  0  0  0  0  0
   40.0650   26.5310   41.9110 C   0  0  0  0  0  0  0  0  0  0  0  0
   39.9150   27.3650   43.0020 C   0  0  0  0  0  0  0  0  0  0  0  0
   39.9950   28.6950   42.8140 N   0  0  0  0  0  0  0  0  0  0  0  0
   40.2110   29.2590   41.6440 C   0  0  0  0  0  0  0  0  0  0  0  0
   40.3590   28.4850   40.5680 N   0  0  0  0  0  0  0  0  0  0  0  0
   40.4060   26.4620   39.8360 H   0  0  0  0  0  0  0  0  0  0  0  0
   39.7350   26.9950   43.9950 H   0  0  0  0  0  0  0  0  0  0  0  0
   40.3280   30.6780   41.2640 C   0  0  0  0  0  0  0  0  0  0  0  0
   41.4670   31.4080   41.3600 N   0  0  0  0  0  0  0  0  0  0  0  0
   41.5850   32.6920   41.0190 C   0  0  0  0  0  3  0  0  0  0  0  0
   40.5450   33.3900   40.5360 N   0  0  0  0  0  0  0  0  0  0  0  0
   39.3740   32.7620   40.4030 C   0  0  0  0  0  0  0  0  0  0  0  0
   38.3250   33.4940   39.9070 C   0  0  0  0  0  3  0  0  0  0  0  0
   37.0980   32.9180   39.7430 C   0  0  0  0  0  0  0  0  0  0  0  0
   36.2920   33.5130   39.3530 H   0  0  0  0  0  0  0  0  0  0  0  0
   36.9780   31.5890   40.0960 C   0  0  0  0  0  0  0  0  0  0  0  0
   35.9790   31.1610   39.9510 H   0  0  0  0  0  0  0  0  0  0  0  0
   38.0530   30.8890   40.5890 C   0  0  0  0  0  3  0  0  0  0  0  0
   39.2920   31.4360   40.7650 C   0  0  0  0  0  0  0  0  0  0  0  0
   40.0170   25.0490   42.0490 C   0  0  1  0  0  0  0  0  0  0  0  0
   39.4600   24.4350   43.2360 C   0  0  0  0  0  0  0  0  0  0  0  0
   38.6540   24.3700   41.9910 C   0  0  1  0  0  0  0  0  0  0  0  0
   40.8400   24.5470   41.5000 H   0  0  0  0  0  0  0  0  0  0  0  0
   39.0610   25.0340   44.0990 H   0  0  0  0  0  0  0  0  0  0  0  0
   39.8800   23.4650   43.6200 H   0  0  0  0  0  0  0  0  0  0  0  0
   38.6780   23.3970   41.4380 H   0  0  0  0  0  0  0  0  0  0  0  0
   37.4140   25.1750   41.8270 C   0  0  0  0  0  0  0  0  0  0  0  0
   37.4050   25.8910   40.6450 F   0  0  0  0  0  0  0  0  0  0  0  0
   37.2290   26.0690   42.8910 F   0  0  0  0  0  0  0  0  0  0  0  0
   36.3450   24.3100   41.7870 F   0  0  0  0  0  0  0  0  0  0  0  0
  1  2  1  0  0  0  0
  2 21  1  0  0  0  0
  2  3  2  0  0  0  0
  3  8  1  0  0  0  0
  4  3  1  0  0  0  0
  5  4  2  0  0  0  0
  6  1  2  0  0  0  0
  6  5  1  0  0  0  0
  7  1  1  0  0  0  0
  9 10  1  0  0  0  0
  9  5  1  0  0  0  0
 11 10  2  0  0  0  0
 12 11  1  0  0  0  0
 13 12  2  0  0  0  0
 13 20  1  0  0  0  0
 14 13  1  0  0  0  0
 15 14  2  0  0  0  0
 15 17  1  0  0  0  0
 16 15  1  0  0  0  0
 17 19  2  0  0  0  0
 18 17  1  0  0  0  0
 19 20  1  0  0  0  0
 20  9  2  0  0  0  0
 21 24  1  6  0  0  0
 21 22  1  0  0  0  0
 22 26  1  0  0  0  0
 22 25  1  0  0  0  0
 23 27  1  6  0  0  0
 23 21  1  0  0  0  0
 23 22  1  0  0  0  0
 28 23  1  0  0  0  0
 28 30  1  0  0  0  0
 29 28  1  0  0  0  0
 31 28  1  0  0  0  0
M  END
>  <minimizedAffinity>
-5.46569777

$$$$

 OpenBabel03242520343D

 31 34  0  0  1  0  0  0  0  0999 V2000
   38.2250   29.7780   38.8670 C   0  0  0  0  0  0  0  0  0  0  0  0
   37.5210   30.8600   39.4700 C   0  0  0  0  0  0  0  0  0  0  0  0
   36.7720   30.5720   40.5940 C   0  0  0  0  0  0  0  0  0  0  0  0
   36.7490   29.3050   41.0470 N   0  0  0  0  0  0  0  0  0  0  0  0
   37.4020   28.3110   40.4820 C   0  0  0  0  0  0  0  0  0  0  0  0
   38.1370   28.5530   39.3960 N   0  0  0  0  0  0  0  0  0  0  0  0
   38.7910   30.0550   37.9990 H   0  0  0  0  0  0  0  0  0  0  0  0
   36.2060   31.3180   41.1230 H   0  0  0  0  0  0  0  0  0  0  0  0
   37.4850   26.8840   40.8390 C   0  0  0  0  0  0  0  0  0  0  0  0
   36.7070   25.9110   40.3060 N   0  0  0  0  0  0  0  0  0  0  0  0
   36.7740   24.6170   40.6210 C   0  0  0  0  0  3  0  0  0  0  0  0
   37.6510   24.1580   41.5280 N   0  0  0  0  0  0  0  0  0  0  0  0
   38.4660   25.0390   42.1150 C   0  0  0  0  0  0  0  0  0  0  0  0
   39.3550   24.5490   43.0380 C   0  0  0  0  0  3  0  0  0  0  0  0
   40.2190   25.3900   43.6780 C   0  0  0  0  0  0  0  0  0  0  0  0
   40.9060   24.9800   44.3970 H   0  0  0  0  0  0  0  0  0  0  0  0
   40.1490   26.7290   43.3500 C   0  0  0  0  0  0  0  0  0  0  0  0
   40.8570   27.3730   43.8830 H   0  0  0  0  0  0  0  0  0  0  0  0
   39.2450   27.1810   42.4190 C   0  0  0  0  0  3  0  0  0  0  0  0
   38.3670   26.3660   41.7620 C   0  0  0  0  0  0  0  0  0  0  0  0
   37.5700   32.2340   38.8960 C   0  0  1  0  0  0  0  0  0  0  0  0
   37.2470   33.3870   39.7100 C   0  0  0  0  0  0  0  0  0  0  0  0
   38.6760   33.1680   39.3700 C   0  0  1  0  0  0  0  0  0  0  0  0
   37.3490   32.2450   37.8080 H   0  0  0  0  0  0  0  0  0  0  0  0
   36.9370   33.3030   40.7860 H   0  0  0  0  0  0  0  0  0  0  0  0
   36.7470   34.2820   39.2490 H   0  0  0  0  0  0  0  0  0  0  0  0
   39.0900   33.8020   38.5450 H   0  0  0  0  0  0  0  0  0  0  0  0
   39.6580   32.7200   40.3940 C   0  0  0  0  0  0  0  0  0  0  0  0
   40.4030   31.6370   39.9690 F   0  0  0  0  0  0  0  0  0  0  0  0
   39.0310   32.3840   41.6030 F   0  0  0  0  0  0  0  0  0  0  0  0
   40.5360   33.7530   40.6250 F   0  0  0  0  0  0  0  0  0  0  0  0
  1  6  2  0  0  0  0
  1  2  1  0  0  0  0
  2  3  2  0  0  0  0
  3  4  1  0  0  0  0
  3  8  1  0  0  0  0
  5  9  1  0  0  0  0
  5  4  2  0  0  0  0
  6  5  1  0  0  0  0
  7  1  1  0  0  0  0
  9 20  1  0  0  0  0
 10 11  1  0  0  0  0
 10  9  2  0  0  0  0
 11 12  2  0  0  0  0
 12 13  1  0  0  0  0
 13 14  1  0  0  0  0
 14 15  2  0  0  0  0
 15 16  1  0  0  0  0
 17 15  1  0  0  0  0
 17 18  1  0  0  0  0
 19 17  2  0  0  0  0
 20 13  2  0  0  0  0
 20 19  1  0  0  0  0
 21 24  1  6  0  0  0
 21 23  1  0  0  0  0
 21  2  1  0  0  0  0
 21 22  1  0  0  0  0
 22 25  1  0  0  0  0
 23 27  1  6  0  0  0
 23 22  1  0  0  0  0
 23 28  1  0  0  0  0
 26 22  1  0  0  0  0
 28 31  1  0  0  0  0
 28 30  1  0  0  0  0
 29 28  1  0  0  0  0
M  END
>  <minimizedAffinity>
-5.44804621

$$$$

 OpenBabel03242520343D

 31 34  0  0  1  0  0  0  0  0999 V2000
   40.1240   31.8030   41.4740 C   0  0  0  0  0  0  0  0  0  0  0  0
   39.4500   32.8420   40.7710 C   0  0  0  0  0  0  0  0  0  0  0  0
   38.1210   32.6290   40.4580 C   0  0  0  0  0  0  0  0  0  0  0  0
   37.5500   31.4680   40.8280 N   0  0  0  0  0  0  0  0  0  0  0  0
   38.1820   30.5120   41.4760 C   0  0  0  0  0  0  0  0  0  0  0  0
   39.4650   30.6840   41.7960 N   0  0  0  0  0  0  0  0  0  0  0  0
   41.1520   32.0180   41.6930 H   0  0  0  0  0  0  0  0  0  0  0  0
   37.5250   33.3510   39.9320 H   0  0  0  0  0  0  0  0  0  0  0  0
   37.7170   29.1960   41.9490 C   0  0  0  0  0  0  0  0  0  0  0  0
   37.4180   28.9030   43.2380 N   0  0  0  0  0  0  0  0  0  0  0  0
   36.9970   27.7170   43.6780 C   0  0  0  0  0  3  0  0  0  0  0  0
   36.8300   26.6780   42.8450 N   0  0  0  0  0  0  0  0  0  0  0  0
   37.0990   26.8610   41.5490 C   0  0  0  0  0  0  0  0  0  0  0  0
   36.9220   25.7850   40.7160 C   0  0  0  0  0  3  0  0  0  0  0  0
   37.1770   25.8980   39.3800 C   0  0  0  0  0  0  0  0  0  0  0  0
   37.0310   25.0410   38.7480 H   0  0  0  0  0  0  0  0  0  0  0  0
   37.6130   27.1270   38.9270 C   0  0  0  0  0  0  0  0  0  0  0  0
   37.8080   27.1810   37.8500 H   0  0  0  0  0  0  0  0  0  0  0  0
   37.7780   28.1810   39.7930 C   0  0  0  0  0  3  0  0  0  0  0  0
   37.5320   28.1010   41.1350 C   0  0  0  0  0  0  0  0  0  0  0  0
   40.1550   34.0910   40.3690 C   0  0  1  0  0  0  0  0  0  0  0  0
   41.6010   34.1610   40.3820 C   0  0  0  0  0  0  0  0  0  0  0  0
   40.9330   34.0830   39.0590 C   0  0  1  0  0  0  0  0  0  0  0  0
   39.5540   35.0010   40.5800 H   0  0  0  0  0  0  0  0  0  0  0  0
   42.2470   33.3010   40.7050 H   0  0  0  0  0  0  0  0  0  0  0  0
   42.1180   35.1280   40.6340 H   0  0  0  0  0  0  0  0  0  0  0  0
   40.8400   35.0460   38.4950 H   0  0  0  0  0  0  0  0  0  0  0  0
   41.0000   32.8520   38.2270 C   0  0  0  0  0  0  0  0  0  0  0  0
   41.6710   33.0580   37.0370 F   0  0  0  0  0  0  0  0  0  0  0  0
   39.7230   32.3500   37.9380 F   0  0  0  0  0  0  0  0  0  0  0  0
   41.6990   31.8990   38.9300 F   0  0  0  0  0  0  0  0  0  0  0  0
  1  7  1  0  0  0  0
  1  6  1  0  0  0  0
  2  1  2  0  0  0  0
  3  2  1  0  0  0  0
  3  4  2  0  0  0  0
  4  5  1  0  0  0  0
  5  6  2  0  0  0  0
  5  9  1  0  0  0  0
  8  3  1  0  0  0  0
  9 10  1  0  0  0  0
 10 11  2  0  0  0  0
 12 11  1  0  0  0  0
 13 12  2  0  0  0  0
 14 13  1  0  0  0  0
 15 14  2  0  0  0  0
 16 15  1  0  0  0  0
 17 15  1  0  0  0  0
 17 19  2  0  0  0  0
 18 17  1  0  0  0  0
 19 20  1  0  0  0  0
 20 13  1  0  0  0  0
 20  9  2  0  0  0  0
 21 22  1  0  0  0  0
 21 24  1  1  0  0  0
 21  2  1  0  0  0  0
 22 26  1  0  0  0  0
 22 25  1  0  0  0  0
 23 27  1  6  0  0  0
 23 21  1  0  0  0  0
 23 22  1  0  0  0  0
 28 31  1  0  0  0  0
 28 23  1  0  0  0  0
 29 28  1  0  0  0  0
 30 28  1  0  0  0  0
M  END
>  <minimizedAffinity>
-5.35119438

$$$$

 OpenBabel03242520343D

 31 34  0  0  1  0  0  0  0  0999 V2000
   39.4330   27.5050   40.3160 C   0  0  0  0  0  0  0  0  0  0  0  0
   39.4410   26.8950   41.6040 C   0  0  0  0  0  0  0  0  0  0  0  0
   39.2450   27.7240   42.6920 C   0  0  0  0  0  0  0  0  0  0  0  0
   39.0620   29.0400   42.4760 N   0  0  0  0  0  0  0  0  0  0  0  0
   39.0570   29.5940   41.2810 C   0  0  0  0  0  0  0  0  0  0  0  0
   39.2420   28.8240   40.2080 N   0  0  0  0  0  0  0  0  0  0  0  0
   39.5890   26.8190   39.5070 H   0  0  0  0  0  0  0  0  0  0  0  0
   39.2320   27.3620   43.7030 H   0  0  0  0  0  0  0  0  0  0  0  0
   38.8770   30.9970   40.8690 C   0  0  0  0  0  0  0  0  0  0  0  0
   37.6990   31.5360   40.4700 N   0  0  0  0  0  0  0  0  0  0  0  0
   37.5230   32.8040   40.0960 C   0  0  0  0  0  3  0  0  0  0  0  0
   38.5400   33.6810   40.0830 N   0  0  0  0  0  0  0  0  0  0  0  0
   39.7460   33.2490   40.4600 C   0  0  0  0  0  0  0  0  0  0  0  0
   40.7710   34.1610   40.4400 C   0  0  0  0  0  3  0  0  0  0  0  0
   42.0310   33.7920   40.8120 C   0  0  0  0  0  0  0  0  0  0  0  0
   42.8170   34.5260   40.7870 H   0  0  0  0  0  0  0  0  0  0  0  0
   42.2110   32.4790   41.1990 C   0  0  0  0  0  0  0  0  0  0  0  0
   43.2350   32.2190   41.4910 H   0  0  0  0  0  0  0  0  0  0  0  0
   41.1590   31.5960   41.2060 C   0  0  0  0  0  3  0  0  0  0  0  0
   39.8870   31.9330   40.8400 C   0  0  0  0  0  0  0  0  0  0  0  0
   39.6780   25.4340   41.7700 C   0  0  1  0  0  0  0  0  0  0  0  0
   39.3140   24.7610   42.9980 C   0  0  0  0  0  0  0  0  0  0  0  0
   38.4650   24.5120   41.8060 C   0  0  1  0  0  0  0  0  0  0  0  0
   40.5490   25.0790   41.1800 H   0  0  0  0  0  0  0  0  0  0  0  0
   38.8590   25.2980   43.8740 H   0  0  0  0  0  0  0  0  0  0  0  0
   39.9290   23.8970   43.3730 H   0  0  0  0  0  0  0  0  0  0  0  0
   38.6400   23.5460   41.2680 H   0  0  0  0  0  0  0  0  0  0  0  0
   37.0890   25.0680   41.7030 C   0  0  0  0  0  0  0  0  0  0  0  0
   36.9050   25.8040   40.5490 F   0  0  0  0  0  0  0  0  0  0  0  0
   36.7720   25.8770   42.8040 F   0  0  0  0  0  0  0  0  0  0  0  0
   36.2060   24.0160   41.6610 F   0  0  0  0  0  0  0  0  0  0  0  0
  1  2  1  0  0  0  0
  2 21  1  0  0  0  0
  2  3  2  0  0  0  0
  3  8  1  0  0  0  0
  4  3  1  0  0  0  0
  5  4  2  0  0  0  0
  6  1  2  0  0  0  0
  6  5  1  0  0  0  0
  7  1  1  0  0  0  0
  9  5  1  0  0  0  0
 10  9  2  0  0  0  0
 11 10  1  0  0  0  0
 12 11  2  0  0  0  0
 12 13  1  0  0  0  0
 13 20  1  0  0  0  0
 14 13  2  0  0  0  0
 14 15  1  0  0  0  0
 15 17  2  0  0  0  0
 16 15  1  0  0  0  0
 17 19  1  0  0  0  0
 17 18  1  0  0  0  0
 20  9  1  0  0  0  0
 20 19  2  0  0  0  0
 21 24  1  6  0  0  0
 21 23  1  0  0  0  0
 21 22  1  0  0  0  0
 22 26  1  0  0  0  0
 22 25  1  0  0  0  0
 23 27  1  6  0  0  0
 23 22  1  0  0  0  0
 28 23  1  0  0  0  0
 28 30  1  0  0  0  0
 29 28  1  0  0  0  0
 31 28  1  0  0  0  0
M  END
>  <minimizedAffinity>
-5.34363222

$$$$

 OpenBabel03242520343D

 31 34  0  0  1  0  0  0  0  0999 V2000
   40.3230   30.8610   39.6140 C   0  0  0  0  0  0  0  0  0  0  0  0
   39.9010   31.6040   40.7540 C   0  0  0  0  0  0  0  0  0  0  0  0
   39.3670   30.8860   41.8070 C   0  0  0  0  0  0  0  0  0  0  0  0
   39.2740   29.5480   41.6950 N   0  0  0  0  0  0  0  0  0  0  0  0
   39.6650   28.8710   40.6360 C   0  0  0  0  0  0  0  0  0  0  0  0
   40.1880   29.5310   39.6010 N   0  0  0  0  0  0  0  0  0  0  0  0
   40.7300   31.4650   38.8260 H   0  0  0  0  0  0  0  0  0  0  0  0
   39.0210   31.3520   42.7120 H   0  0  0  0  0  0  0  0  0  0  0  0
   39.6360   27.4260   40.3490 C   0  0  0  0  0  0  0  0  0  0  0  0
   40.4630   26.7980   39.4780 N   0  0  0  0  0  0  0  0  0  0  0  0
   40.4460   25.4910   39.2110 C   0  0  0  0  0  3  0  0  0  0  0  0
   39.5730   24.6630   39.8060 N   0  0  0  0  0  0  0  0  0  0  0  0
   38.7100   25.1840   40.6830 C   0  0  0  0  0  0  0  0  0  0  0  0
   37.8270   24.3210   41.2790 C   0  0  0  0  0  3  0  0  0  0  0  0
   36.9160   24.7820   42.1860 C   0  0  0  0  0  0  0  0  0  0  0  0
   36.2350   24.0840   42.6390 H   0  0  0  0  0  0  0  0  0  0  0  0
   36.9360   26.1340   42.4610 C   0  0  0  0  0  0  0  0  0  0  0  0
   36.1920   26.4680   43.1940 H   0  0  0  0  0  0  0  0  0  0  0  0
   37.8370   26.9670   41.8440 C   0  0  0  0  0  3  0  0  0  0  0  0
   38.7600   26.5380   40.9320 C   0  0  0  0  0  0  0  0  0  0  0  0
   40.0070   33.0880   40.7970 C   0  0  1  0  0  0  0  0  0  0  0  0
   40.1560   33.8540   39.5770 C   0  0  0  0  0  0  0  0  0  0  0  0
   38.8380   33.9050   40.2590 C   0  0  1  0  0  0  0  0  0  0  0  0
   40.4700   33.4520   41.7390 H   0  0  0  0  0  0  0  0  0  0  0  0
   40.2130   33.3760   38.5630 H   0  0  0  0  0  0  0  0  0  0  0  0
   40.7630   34.8010   39.5750 H   0  0  0  0  0  0  0  0  0  0  0  0
   38.6330   34.8210   40.8700 H   0  0  0  0  0  0  0  0  0  0  0  0
   37.6430   33.2290   39.6890 C   0  0  0  0  0  0  0  0  0  0  0  0
   36.6980   34.1280   39.2330 F   0  0  0  0  0  0  0  0  0  0  0  0
   37.0340   32.3760   40.6200 F   0  0  0  0  0  0  0  0  0  0  0  0
   38.0490   32.4830   38.6080 F   0  0  0  0  0  0  0  0  0  0  0  0
  1  2  1  0  0  0  0
  2 21  1  0  0  0  0
  2  3  2  0  0  0  0
  3  8  1  0  0  0  0
  4  3  1  0  0  0  0
  5  4  2  0  0  0  0
  6  1  2  0  0  0  0
  6  5  1  0  0  0  0
  7  1  1  0  0  0  0
  9  5  1  0  0  0  0
  9 20  1  0  0  0  0
 10  9  2  0  0  0  0
 11 10  1  0  0  0  0
 11 12  2  0  0  0  0
 12 13  1  0  0  0  0
 13 20  2  0  0  0  0
 13 14  1  0  0  0  0
 14 15  2  0  0  0  0
 15 17  1  0  0  0  0
 15 16  1  0  0  0  0
 17 18  1  0  0  0  0
 19 17  2  0  0  0  0
 20 19  1  0  0  0  0
 21 24  1  1  0  0  0
 22 23  1  0  0  0  0
 22 21  1  0  0  0  0
 23 21  1  0  0  0  0
 23 27  1  1  0  0  0
 25 22  1  0  0  0  0
 26 22  1  0  0  0  0
 28 23  1  0  0  0  0
 28 30  1  0  0  0  0
 29 28  1  0  0  0  0
 31 28  1  0  0  0  0
M  END
>  <minimizedAffinity>
-5.31125784

$$$$

 OpenBabel03242520343D

 31 34  0  0  1  0  0  0  0  0999 V2000
   38.8300   29.8110   39.3440 C   0  0  0  0  0  0  0  0  0  0  0  0
   37.8880   30.8050   39.7370 C   0  0  0  0  0  0  0  0  0  0  0  0
   37.0600   30.4990   40.8000 C   0  0  0  0  0  0  0  0  0  0  0  0
   37.1880   29.2980   41.3930 N   0  0  0  0  0  0  0  0  0  0  0  0
   38.0610   28.3850   41.0210 C   0  0  0  0  0  0  0  0  0  0  0  0
   38.8780   28.6470   40.0000 N   0  0  0  0  0  0  0  0  0  0  0  0
   39.4480   30.0980   38.5160 H   0  0  0  0  0  0  0  0  0  0  0  0
   36.3180   31.1810   41.1730 H   0  0  0  0  0  0  0  0  0  0  0  0
   38.3310   27.0360   41.5490 C   0  0  0  0  0  0  0  0  0  0  0  0
   39.1900   26.7640   42.5620 N   0  0  0  0  0  0  0  0  0  0  0  0
   39.4410   25.5480   43.0480 C   0  0  0  0  0  3  0  0  0  0  0  0
   38.8410   24.4550   42.5530 N   0  0  0  0  0  0  0  0  0  0  0  0
   37.9740   24.6140   41.5490 C   0  0  0  0  0  0  0  0  0  0  0  0
   37.3710   23.4840   41.0580 C   0  0  0  0  0  3  0  0  0  0  0  0
   36.4740   23.5690   40.0330 C   0  0  0  0  0  0  0  0  0  0  0  0
   36.0160   22.6680   39.6670 H   0  0  0  0  0  0  0  0  0  0  0  0
   36.2150   24.8290   39.5310 C   0  0  0  0  0  0  0  0  0  0  0  0
   35.4900   24.8590   38.7090 H   0  0  0  0  0  0  0  0  0  0  0  0
   36.8380   25.9370   40.0510 C   0  0  0  0  0  3  0  0  0  0  0  0
   37.7410   25.8860   41.0750 C   0  0  0  0  0  0  0  0  0  0  0  0
   37.7830   32.1040   39.0150 C   0  0  1  0  0  0  0  0  0  0  0  0
   37.3030   33.2890   39.6930 C   0  0  0  0  0  0  0  0  0  0  0  0
   38.7560   33.2140   39.3960 C   0  0  1  0  0  0  0  0  0  0  0  0
   37.5900   31.9690   37.9300 H   0  0  0  0  0  0  0  0  0  0  0  0
   36.9770   33.2850   40.7680 H   0  0  0  0  0  0  0  0  0  0  0  0
   36.7090   34.0610   39.1290 H   0  0  0  0  0  0  0  0  0  0  0  0
   39.1100   33.8010   38.5110 H   0  0  0  0  0  0  0  0  0  0  0  0
   39.7580   33.0040   40.4740 C   0  0  0  0  0  0  0  0  0  0  0  0
   40.4510   34.1600   40.7800 F   0  0  0  0  0  0  0  0  0  0  0  0
   40.6830   32.0060   40.1370 F   0  0  0  0  0  0  0  0  0  0  0  0
   39.0880   32.6190   41.6110 F   0  0  0  0  0  0  0  0  0  0  0  0
  1  2  2  0  0  0  0
  1  6  1  0  0  0  0
  2  3  1  0  0  0  0
  3  8  1  0  0  0  0
  3  4  2  0  0  0  0
  5  4  1  0  0  0  0
  5  9  1  0  0  0  0
  6  5  2  0  0  0  0
  7  1  1  0  0  0  0
  9 10  1  0  0  0  0
 10 11  2  0  0  0  0
 12 11  1  0  0  0  0
 13 12  2  0  0  0  0
 14 13  1  0  0  0  0
 15 14  2  0  0  0  0
 16 15  1  0  0  0  0
 17 15  1  0  0  0  0
 17 19  2  0  0  0  0
 18 17  1  0  0  0  0
 19 20  1  0  0  0  0
 20 13  1  0  0  0  0
 20  9  2  0  0  0  0
 21 24  1  6  0  0  0
 21 23  1  0  0  0  0
 21 22  1  0  0  0  0
 21  2  1  0  0  0  0
 22 25  1  0  0  0  0
 23 27  1  6  0  0  0
 23 22  1  0  0  0  0
 23 28  1  0  0  0  0
 26 22  1  0  0  0  0
 28 29  1  0  0  0  0
 28 31  1  0  0  0  0
 30 28  1  0  0  0  0
M  END
>  <minimizedAffinity>
-5.30651903

$$$$
