
     RDKit          3D

 25 27  0  0  0  0  0  0  0  0999 V2000
   44.5443   36.0271   44.5247 C   0  0  0  0  0  0  0  0  0  0  0  0
   45.2606   35.8930   43.3191 C   0  0  0  0  0  0  0  0  0  0  0  0
   46.1288   34.7956   43.2096 C   0  0  0  0  0  0  0  0  0  0  0  0
   46.2282   33.9412   44.2505 N   0  0  0  0  0  0  0  0  0  0  0  0
   45.5283   34.0946   45.3960 C   0  0  0  0  0  0  0  0  0  0  0  0
   44.6941   35.1381   45.5172 N   0  0  0  0  0  0  0  0  0  0  0  0
   47.0667   34.5635   41.7118 S   0  0  0  0  0  0  0  0  0  0  0  0
   43.8934   36.8760   44.5689 H   0  0  0  0  0  0  0  0  0  0  0  0
   45.1356   36.6071   42.5310 H   0  0  0  0  0  0  0  0  0  0  0  0
   45.5943   33.4211   46.2405 H   0  0  0  0  0  0  0  0  0  0  0  0
   46.0789   33.5554   40.6157 C   0  0  0  0  0  0  0  0  0  0  0  0
   45.0272   32.9319   41.2202 N   0  0  0  0  0  0  0  0  0  0  0  0
   44.1871   32.1344   40.5224 C   0  0  0  0  0  0  0  0  0  0  0  0
   44.4375   31.9884   39.2172 N   0  0  0  0  0  0  0  0  0  0  0  0
   45.4428   32.5630   38.5549 C   0  0  0  0  0  0  0  0  0  0  0  0
   45.6755   32.3925   37.2056 C   0  0  0  0  0  0  0  0  0  0  0  0
   46.7504   33.0366   36.6153 C   0  0  0  0  0  0  0  0  0  0  0  0
   46.9080   32.8832   35.5532 H   0  0  0  0  0  0  0  0  0  0  0  0
   47.5812   33.8412   37.3682 C   0  0  0  0  0  0  0  0  0  0  0  0
   48.4167   34.3321   36.8706 H   0  0  0  0  0  0  0  0  0  0  0  0
   47.3896   34.0463   38.7342 C   0  0  0  0  0  0  0  0  0  0  0  0
   46.3015   33.3759   39.2599 C   0  0  0  0  0  0  0  0  0  0  0  0
   43.3583   31.6542   41.0421 H   0  0  0  0  0  0  0  0  0  0  0  0
   44.9822   31.7505   36.6939 H   0  0  0  0  0  0  0  0  0  0  0  0
   48.0324   34.6739   39.3368 H   0  0  0  0  0  0  0  0  0  0  0  0
  1  6  2  0
  2  1  1  0
  3  2  2  0
  3  4  1  0
  4  5  2  0
  5  6  1  0
  7  3  1  0
  1  8  1  0
  2  9  1  0
  5 10  1  0
 11 12  2  0
 12 13  1  0
 13 14  2  0
 14 15  1  0
 15 16  2  0
 16 17  1  0
 17 18  1  0
 17 19  2  0
 19 20  1  0
 19 21  1  0
 21 22  2  0
 22 11  1  0
 22 15  1  0
 13 23  1  0
 16 24  1  0
 21 25  1  0
  7 11  1  0
M  ISO  5   8  14   9  14  10  14  18  16  20  16
M  END
>  <DihAtoms>  (1) 
2,6,10,11

>  <DihDeg>  (1) 
-89.61400676986321

$$$$
