REMARK  Name = 
REMARK  6 active torsions:
REMARK  status: ('A' for Active; 'I' for Inactive)
REMARK    1  A    between atoms: C_1  and  C_11
REMARK    2  A    between atoms: C_5  and  C_7
REMARK    3  A    between atoms: C_9  and  N_10
REMARK    4  A    between atoms: C_11  and  C_14
REMARK    5  A    between atoms: C_13  and  S_19
REMARK    6  A    between atoms: S_19  and  C_34
REMARK                            x       y       z     vdW  Elec       q    Type
REMARK                         _______ _______ _______ _____ _____    ______ ____
ROOT
ATOM      1  C   UNL     1      41.989  33.310  41.315  0.00  0.00    +0.000 A 
ATOM      2  C   UNL     1      42.807  34.401  41.322  0.00  0.00    +0.000 A 
ATOM      3  C   UNL     1      42.235  35.666  41.070  0.00  0.00    +0.000 A 
ATOM      4  C   UNL     1      40.890  35.840  40.820  0.00  0.00    +0.000 A 
ATOM      5  C   UNL     1      40.078  34.741  40.815  0.00  0.00    +0.000 A 
ATOM      6  C   UNL     1      40.628  33.519  41.057  0.00  0.00    +0.000 A 
ATOM      7  H   UNL     1      42.798  36.583  41.047  0.00  0.00    +0.000 HD
ATOM      8  H   UNL     1      40.457  36.802  40.630  0.00  0.00    +0.000 HD
ATOM      9  H   UNL     1      39.035  34.799  40.630  0.00  0.00    +0.000 HD
ATOM     10  H   UNL     1      39.972  32.633  41.052  0.00  0.00    +0.000 HD
ENDROOT
BRANCH   1  11
ATOM     11  S   UNL     1      42.553  31.753  41.644  0.00  0.00    +0.000 S 
ATOM     12  O   UNL     1      42.416  31.050  40.297  0.00  0.00    +0.000 OA
ATOM     13  O   UNL     1      41.595  31.099  42.614  0.00  0.00    +0.000 OA
BRANCH  11  14
ATOM     14  C   UNL     1      44.078  31.138  41.818  0.00  0.00    +0.000 A 
ATOM     15  N   UNL     1      45.252  31.675  41.414  0.00  0.00    +0.000 NA
ATOM     16  C   UNL     1      46.463  31.191  41.376  0.00  0.00    +0.000 A 
ATOM     17  N   UNL     1      46.572  29.945  41.809  0.00  0.00    +0.000 NA
ATOM     18  C   UNL     1      45.519  29.252  42.248  0.00  0.00    +0.000 A 
ATOM     19  C   UNL     1      45.846  27.955  42.649  0.00  0.00    +0.000 A 
ATOM     20  C   UNL     1      44.811  27.171  43.112  0.00  0.00    +0.000 A 
ATOM     21  H   UNL     1      45.002  26.159  43.435  0.00  0.00    +0.000 HD
ATOM     22  C   UNL     1      43.533  27.688  43.159  0.00  0.00    +0.000 A 
ATOM     23  H   UNL     1      42.743  27.051  43.528  0.00  0.00    +0.000 HD
ATOM     24  C   UNL     1      43.320  28.978  42.739  0.00  0.00    +0.000 A 
ATOM     25  C   UNL     1      44.279  29.837  42.259  0.00  0.00    +0.000 A 
ENDBRANCH  11  14
ENDBRANCH   1  11
BRANCH   2  26
ATOM     26  C   UNL     1      44.235  34.319  41.558  0.00  0.00    +0.000 C 
ATOM     27  O   UNL     1      45.106  34.170  40.632  0.00  0.00    +0.000 OA
BRANCH  26  28
ATOM     28  C   UNL     1      44.587  34.424  42.944  0.00  0.00    +0.000 A 
ATOM     29  C   UNL     1      44.305  35.686  43.547  0.00  0.00    +0.000 A 
ATOM     30  C   UNL     1      44.632  35.813  44.896  0.00  0.00    +0.000 A 
ATOM     31  N   UNL     1      45.185  34.748  45.536  0.00  0.00    +0.000 NA
ATOM     32  C   UNL     1      45.427  33.578  44.902  0.00  0.00    +0.000 A 
ATOM     33  N   UNL     1      45.134  33.437  43.653  0.00  0.00    +0.000 NA
ATOM     34  H   UNL     1      43.881  36.567  43.136  0.00  0.00    +0.000 HD
ATOM     35  H   UNL     1      44.474  36.711  45.482  0.00  0.00    +0.000 HD
BRANCH  32  36
ATOM     36  C   UNL     1      46.025  32.463  45.681  0.00  0.00    +0.000 C 
ATOM     37  C   UNL     1      46.968  32.793  46.820  0.00  0.00    +0.000 C 
ATOM     38  C   UNL     1      45.567  32.344  47.072  0.00  0.00    +0.000 C 
ATOM     39  H   UNL     1      46.228  31.549  45.120  0.00  0.00    +0.000 HD
ATOM     40  H   UNL     1      47.753  32.031  47.024  0.00  0.00    +0.000 HD
ATOM     41  H   UNL     1      47.262  33.853  46.894  0.00  0.00    +0.000 HD
ATOM     42  H   UNL     1      45.398  31.339  47.500  0.00  0.00    +0.000 HD
BRANCH  38  43
ATOM     43  N   UNL     1      44.759  33.409  47.658  0.00  0.00    +0.000 NA
ATOM     44  H   UNL     1      44.184  33.020  48.464  0.00  0.00    +0.000 HD
ATOM     45  H   UNL     1      45.299  34.203  48.018  0.00  0.00    +0.000 HD
ENDBRANCH  38  43
ENDBRANCH  32  36
ENDBRANCH  26  28
ENDBRANCH   2  26
TORSDOF 6
