
     RDKit          3D

 38 41  0  0  0  0  0  0  0  0999 V2000
   47.1650   34.2508   42.3858 N   0  0  0  0  0  0  0  0  0  0  0  0
   48.0049   35.0528   41.5306 C   0  0  0  0  0  0  0  0  0  0  0  0
   47.6922   34.3864   40.2251 C   0  0  2  0  0  0  0  0  0  0  0  0
   47.8970   32.9355   40.5629 C   0  0  0  0  0  0  0  0  0  0  0  0
   47.3869   32.8692   41.9906 C   0  0  0  0  0  0  0  0  0  0  0  0
   44.5915   35.9414   44.4717 C   0  0  0  0  0  0  0  0  0  0  0  0
   45.4136   35.6977   43.3775 C   0  0  0  0  0  0  0  0  0  0  0  0
   46.2800   34.6158   43.4154 C   0  0  0  0  0  0  0  0  0  0  0  0
   46.2721   33.8353   44.5562 N   0  0  0  0  0  0  0  0  0  0  0  0
   45.4691   34.0854   45.6075 C   0  0  0  0  0  0  0  0  0  0  0  0
   44.6208   35.1501   45.5627 N   0  0  0  0  0  0  0  0  0  0  0  0
   48.6578   34.7206   39.1939 N   0  0  0  0  0  0  0  0  0  0  0  0
   47.7696   36.1283   41.5711 H   0  0  0  0  0  0  0  0  0  0  0  0
   49.0508   34.8140   41.7902 H   0  0  0  0  0  0  0  0  0  0  0  0
   46.6517   34.5623   39.8840 H   0  0  0  0  0  0  0  0  0  0  0  0
   48.9235   32.5727   40.4363 H   0  0  0  0  0  0  0  0  0  0  0  0
   47.1550   32.3558   39.9578 H   0  0  0  0  0  0  0  0  0  0  0  0
   48.2466   32.5169   42.6129 H   0  0  0  0  0  0  0  0  0  0  0  0
   46.4970   32.2349   42.1116 H   0  0  0  0  0  0  0  0  0  0  0  0
   43.9338   36.7946   44.3970 H   0  0  0  0  0  0  0  0  0  0  0  0
   45.4241   36.3027   42.4857 H   0  0  0  0  0  0  0  0  0  0  0  0
   45.5512   33.4019   46.4500 H   0  0  0  0  0  0  0  0  0  0  0  0
   49.4145   35.3533   39.4745 H   0  0  0  0  0  0  0  0  0  0  0  0
   48.4329   34.1298   37.9273 C   0  0  0  0  0  0  0  0  0  0  0  0
   49.3532   33.3269   37.3859 N   0  0  0  0  0  0  0  0  0  0  0  0
   49.1494   32.7590   36.1802 C   0  0  0  0  0  0  0  0  0  0  0  0
   48.0368   32.9433   35.4367 N   0  0  0  0  0  0  0  0  0  0  0  0
   47.0879   33.7506   35.9581 C   0  0  0  0  0  0  0  0  0  0  0  0
   45.9496   33.9439   35.2061 C   0  0  0  0  0  0  0  0  0  0  0  0
   44.9822   34.7690   35.7416 C   0  0  0  0  0  0  0  0  0  0  0  0
   44.0677   34.9551   35.1921 H   0  0  0  0  0  0  0  0  0  0  0  0
   45.1183   35.3905   36.9773 C   0  0  0  0  0  0  0  0  0  0  0  0
   44.3569   36.0248   37.3721 H   0  0  0  0  0  0  0  0  0  0  0  0
   46.2945   35.1370   37.6591 C   0  0  0  0  0  0  0  0  0  0  0  0
   47.2869   34.3358   37.1902 C   0  0  0  0  0  0  0  0  0  0  0  0
   49.9354   32.1135   35.7892 H   0  0  0  0  0  0  0  0  0  0  0  0
   45.8206   33.4672   34.2345 H   0  0  0  0  0  0  0  0  0  0  0  0
   46.3826   35.6266   38.6144 H   0  0  0  0  0  0  0  0  0  0  0  0
  1  8  1  0
  2  1  1  0
  3  4  1  0
  3  2  1  0
  4  5  1  0
  5  1  1  0
  6 11  2  0
  7  8  2  0
  7  6  1  0
  8  9  1  0
  9 10  2  0
 11 10  1  0
 12  3  1  0
  2 13  1  0
  2 14  1  0
  3 15  1  6
  4 16  1  0
  4 17  1  0
  5 18  1  0
  5 19  1  0
  6 20  1  0
  7 21  1  0
 10 22  1  0
 12 23  1  0
 24 25  2  0
 25 26  1  0
 26 27  2  0
 27 28  1  0
 28 29  2  0
 29 30  1  0
 30 31  1  0
 30 32  2  0
 32 33  1  0
 32 34  1  0
 34 35  2  0
 35 24  1  0
 35 28  1  0
 26 36  1  0
 29 37  1  0
 34 38  1  0
 12 24  1  0
M  ISO  8  13  13  14  13  15  13  16  13  17  13  18  13  19  13  20  14
M  ISO  5  21  14  22  14  23   5  31  16  33  16
M  END
>  <DihAtoms>  (1) 
2,11,23,24

>  <DihDeg>  (1) 
0.0007446893597043805

$$$$
