
 OpenBabel03252506393D

 47 51  0  0  1  0  0  0  0  0999 V2000
   33.7910   29.1110   35.8180 S   0  0  0  0  0  0  0  0  0  0  0  0
   36.6320   30.2870   37.1190 O   0  0  0  0  0  0  0  0  0  0  0  0
   35.7340   29.6620   37.7060 C   0  0  0  0  0  0  0  0  0  0  0  0
   34.4880   28.9140   37.4030 C   0  0  1  0  0  0  0  0  0  0  0  0
   33.5950   29.3160   38.5500 C   0  0  0  0  0  0  0  0  0  0  0  0
   34.5580   28.9670   39.6880 C   0  0  0  0  0  0  0  0  0  0  0  0
   35.7790   29.5420   39.1370 N   0  0  0  0  0  0  0  0  0  0  0  0
   34.8160   27.8860   37.7250 H   0  0  0  0  0  0  0  0  0  0  0  0
   32.7070   28.6710   38.6630 H   0  0  0  0  0  0  0  0  0  0  0  0
   33.3620   30.3830   38.5310 H   0  0  0  0  0  0  0  0  0  0  0  0
   34.6690   27.8650   39.7150 H   0  0  0  0  0  0  0  0  0  0  0  0
   34.2520   29.4150   40.6390 H   0  0  0  0  0  0  0  0  0  0  0  0
   36.8240   29.8980   40.0650 C   0  0  0  0  0  0  0  0  0  0  0  0
   37.6380   30.9270   39.7440 N   0  0  0  0  0  0  0  0  0  0  0  0
   38.6510   31.3290   40.5650 C   0  0  0  0  0  3  0  0  0  0  0  0
   38.8760   30.7130   41.7270 N   0  0  0  0  0  0  0  0  0  0  0  0
   38.0820   29.6820   42.0760 C   0  0  0  0  0  0  0  0  0  0  0  0
   38.2840   29.0190   43.2690 C   0  0  0  0  0  3  0  0  0  0  0  0
   37.4820   27.9540   43.6550 C   0  0  0  0  0  0  0  0  0  0  0  0
   37.6550   27.4460   44.5950 H   0  0  0  0  0  0  0  0  0  0  0  0
   36.4590   27.5720   42.7940 C   0  0  0  0  0  0  0  0  0  0  0  0
   35.8560   26.7390   43.1280 H   0  0  0  0  0  0  0  0  0  0  0  0
   36.2100   28.2040   41.5790 C   0  0  0  0  0  3  0  0  0  0  0  0
   37.0490   29.2520   41.2670 C   0  0  0  0  0  0  0  0  0  0  0  0
   29.6090   30.3890   31.6390 C   0  0  0  0  0  0  0  0  0  0  0  0
   29.5790   31.7560   32.0120 C   0  0  0  0  0  0  0  0  0  0  0  0
   30.2050   32.1450   33.1510 C   0  0  0  0  0  0  0  0  0  0  0  0
   30.8290   31.1810   33.8730 N   0  0  0  0  0  0  0  0  0  0  0  0
   30.8530   29.9050   33.5180 C   0  0  0  0  0  0  0  0  0  0  0  0
   30.2480   29.4920   32.4040 N   0  0  0  0  0  0  0  0  0  0  0  0
   31.5430   28.9690   34.3650 N   0  0  0  0  0  0  0  0  0  0  0  0
   31.8500   27.6360   34.0050 C   0  0  0  0  0  0  0  0  0  0  0  0
   31.6590   26.8710   35.3010 C   0  0  0  0  0  0  0  0  0  0  0  0
   31.4460   27.9040   36.3660 C   0  0  0  0  0  0  0  0  0  0  0  0
   32.0160   29.1610   35.7150 C   0  0  1  0  0  0  0  0  0  0  0  0
   29.1090   30.0820   30.7290 H   0  0  0  0  0  0  0  0  0  0  0  0
   30.1880   33.1660   33.4400 H   0  0  0  0  0  0  0  0  0  0  0  0
   30.9930   27.2740   33.3540 H   0  0  0  0  0  0  0  0  0  0  0  0
   32.7240   27.3080   33.5450 H   0  0  0  0  0  0  0  0  0  0  0  0
   32.5950   26.2980   35.5580 H   0  0  0  0  0  0  0  0  0  0  0  0
   30.8530   26.1390   35.2780 H   0  0  0  0  0  0  0  0  0  0  0  0
   32.0110   27.6410   37.2730 H   0  0  0  0  0  0  0  0  0  0  0  0
   30.3740   28.0500   36.6020 H   0  0  0  0  0  0  0  0  0  0  0  0
   31.5870   30.0350   36.2090 H   0  0  0  0  0  0  0  0  0  0  0  0
   28.8740   32.6540   31.1390 N   0  0  0  0  0  0  0  0  0  0  0  0
   28.3920   33.5000   31.5530 H   0  0  0  0  0  0  0  0  0  0  0  0
   28.8650   32.4340   30.1280 H   0  0  0  0  0  0  0  0  0  0  0  0
  1  4  1  0  0  0  0
  2  3  2  0  0  0  0
  3  7  1  0  0  0  0
  4  3  1  0  0  0  0
  4  8  1  1  0  0  0
  4  5  1  0  0  0  0
  5  9  1  0  0  0  0
  5  6  1  0  0  0  0
  6 11  1  0  0  0  0
  6 12  1  0  0  0  0
  7  6  1  0  0  0  0
  7 13  1  0  0  0  0
 10  5  1  0  0  0  0
 13 24  1  0  0  0  0
 14 13  2  0  0  0  0
 14 15  1  0  0  0  0
 15 16  2  0  0  0  0
 16 17  1  0  0  0  0
 17 18  1  0  0  0  0
 18 19  2  0  0  0  0
 19 20  1  0  0  0  0
 21 22  1  0  0  0  0
 21 19  1  0  0  0  0
 23 21  2  0  0  0  0
 24 23  1  0  0  0  0
 24 17  2  0  0  0  0
 25 26  2  0  0  0  0
 25 30  1  0  0  0  0
 26 27  1  0  0  0  0
 27 37  1  0  0  0  0
 27 28  2  0  0  0  0
 29 28  1  0  0  0  0
 29 31  1  0  0  0  0
 30 29  2  0  0  0  0
 31 35  1  0  0  0  0
 32 31  1  0  0  0  0
 32 33  1  0  0  0  0
 33 40  1  0  0  0  0
 33 34  1  0  0  0  0
 34 43  1  0  0  0  0
 34 42  1  0  0  0  0
 35  1  1  0  0  0  0
 35 44  1  1  0  0  0
 35 34  1  0  0  0  0
 36 25  1  0  0  0  0
 38 32  1  0  0  0  0
 39 32  1  0  0  0  0
 41 33  1  0  0  0  0
 45 46  1  0  0  0  0
 45 26  1  0  0  0  0
 47 45  1  0  0  0  0
M  END
>  <minimizedAffinity>
-6.64427662

$$$$

 OpenBabel03252506393D

 47 51  0  0  1  0  0  0  0  0999 V2000
   36.9790   26.7800   42.1230 S   0  0  0  0  0  0  0  0  0  0  0  0
   36.7250   29.5740   40.3120 O   0  0  0  0  0  0  0  0  0  0  0  0
   37.5940   29.2950   41.1540 C   0  0  0  0  0  0  0  0  0  0  0  0
   38.0510   28.1470   41.9750 C   0  0  1  0  0  0  0  0  0  0  0  0
   38.4150   28.8180   43.2770 C   0  0  0  0  0  0  0  0  0  0  0  0
   39.3430   29.8900   42.6970 C   0  0  0  0  0  0  0  0  0  0  0  0
   38.5270   30.3080   41.5630 N   0  0  0  0  0  0  0  0  0  0  0  0
   39.0650   27.9900   41.5130 H   0  0  0  0  0  0  0  0  0  0  0  0
   39.0230   28.1840   43.9440 H   0  0  0  0  0  0  0  0  0  0  0  0
   37.5440   29.2590   43.7660 H   0  0  0  0  0  0  0  0  0  0  0  0
   40.2500   29.3840   42.3110 H   0  0  0  0  0  0  0  0  0  0  0  0
   39.5420   30.6930   43.4140 H   0  0  0  0  0  0  0  0  0  0  0  0
   38.7590   31.6260   41.0280 C   0  0  0  0  0  0  0  0  0  0  0  0
   37.7190   32.2760   40.4610 N   0  0  0  0  0  0  0  0  0  0  0  0
   37.8500   33.5260   39.9310 C   0  0  0  0  0  3  0  0  0  0  0  0
   39.0250   34.1600   39.9550 N   0  0  0  0  0  0  0  0  0  0  0  0
   40.0830   33.5390   40.5140 C   0  0  0  0  0  0  0  0  0  0  0  0
   41.3130   34.1610   40.5560 C   0  0  0  0  0  3  0  0  0  0  0  0
   42.4200   33.5460   41.1260 C   0  0  0  0  0  0  0  0  0  0  0  0
   43.3780   34.0500   41.1500 H   0  0  0  0  0  0  0  0  0  0  0  0
   42.2490   32.2720   41.6560 C   0  0  0  0  0  0  0  0  0  0  0  0
   43.1330   31.8260   42.0900 H   0  0  0  0  0  0  0  0  0  0  0  0
   41.0310   31.5980   41.6400 C   0  0  0  0  0  3  0  0  0  0  0  0
   39.9800   32.2740   41.0580 C   0  0  0  0  0  0  0  0  0  0  0  0
   38.4830   27.0370   36.2690 C   0  0  0  0  0  0  0  0  0  0  0  0
   37.3960   27.8980   35.9750 C   0  0  0  0  0  0  0  0  0  0  0  0
   36.4350   28.0960   36.9120 C   0  0  0  0  0  0  0  0  0  0  0  0
   36.5800   27.4440   38.0920 N   0  0  0  0  0  0  0  0  0  0  0  0
   37.5990   26.6410   38.3620 C   0  0  0  0  0  0  0  0  0  0  0  0
   38.5590   26.4270   37.4610 N   0  0  0  0  0  0  0  0  0  0  0  0
   37.6470   25.9980   39.6470 N   0  0  0  0  0  0  0  0  0  0  0  0
   38.7720   25.3090   40.1590 C   0  0  0  0  0  0  0  0  0  0  0  0
   38.1560   24.1410   40.9060 C   0  0  0  0  0  0  0  0  0  0  0  0
   36.6770   24.3890   40.9200 C   0  0  0  0  0  0  0  0  0  0  0  0
   36.5980   25.8850   40.6330 C   0  0  1  0  0  0  0  0  0  0  0  0
   39.2480   26.8820   35.5200 H   0  0  0  0  0  0  0  0  0  0  0  0
   35.6170   28.7380   36.7020 H   0  0  0  0  0  0  0  0  0  0  0  0
   39.2800   24.8200   39.2700 H   0  0  0  0  0  0  0  0  0  0  0  0
   39.5320   25.7180   40.7410 H   0  0  0  0  0  0  0  0  0  0  0  0
   38.5140   24.1280   41.9740 H   0  0  0  0  0  0  0  0  0  0  0  0
   38.4000   23.1640   40.4930 H   0  0  0  0  0  0  0  0  0  0  0  0
   36.2600   24.1560   41.9110 H   0  0  0  0  0  0  0  0  0  0  0  0
   36.1480   23.8210   40.1290 H   0  0  0  0  0  0  0  0  0  0  0  0
   35.6050   26.1140   40.2430 H   0  0  0  0  0  0  0  0  0  0  0  0
   37.3870   28.5140   34.6760 N   0  0  0  0  0  0  0  0  0  0  0  0
   36.4590   28.7230   34.2140 H   0  0  0  0  0  0  0  0  0  0  0  0
   38.3000   28.7310   34.2400 H   0  0  0  0  0  0  0  0  0  0  0  0
  2  3  2  0  0  0  0
  3  7  1  0  0  0  0
  3  4  1  0  0  0  0
  4  8  1  6  0  0  0
  4  1  1  0  0  0  0
  4  5  1  0  0  0  0
  5 10  1  0  0  0  0
  5  9  1  0  0  0  0
  6  5  1  0  0  0  0
  6 12  1  0  0  0  0
  7  6  1  0  0  0  0
 11  6  1  0  0  0  0
 13 24  1  0  0  0  0
 13  7  1  0  0  0  0
 14 13  2  0  0  0  0
 15 16  2  0  0  0  0
 15 14  1  0  0  0  0
 16 17  1  0  0  0  0
 17 18  2  0  0  0  0
 17 24  1  0  0  0  0
 18 19  1  0  0  0  0
 19 20  1  0  0  0  0
 19 21  2  0  0  0  0
 21 22  1  0  0  0  0
 23 21  1  0  0  0  0
 24 23  2  0  0  0  0
 25 30  1  0  0  0  0
 26 25  2  0  0  0  0
 26 27  1  0  0  0  0
 27 28  2  0  0  0  0
 28 29  1  0  0  0  0
 29 31  1  0  0  0  0
 30 29  2  0  0  0  0
 31 32  1  0  0  0  0
 31 35  1  0  0  0  0
 32 39  1  0  0  0  0
 32 33  1  0  0  0  0
 33 34  1  0  0  0  0
 33 40  1  0  0  0  0
 34 42  1  0  0  0  0
 35 44  1  6  0  0  0
 35 34  1  0  0  0  0
 35  1  1  0  0  0  0
 36 25  1  0  0  0  0
 37 27  1  0  0  0  0
 38 32  1  0  0  0  0
 41 33  1  0  0  0  0
 43 34  1  0  0  0  0
 45 26  1  0  0  0  0
 46 45  1  0  0  0  0
 47 45  1  0  0  0  0
M  END
>  <minimizedAffinity>
-6.53171492

$$$$

 OpenBabel03252506393D

 47 51  0  0  1  0  0  0  0  0999 V2000
   43.5220   29.8660   39.6260 S   0  0  0  0  0  0  0  0  0  0  0  0
   41.0820   29.7360   41.9020 O   0  0  0  0  0  0  0  0  0  0  0  0
   41.2860   28.9450   40.9680 C   0  0  0  0  0  0  0  0  0  0  0  0
   42.3090   28.6520   39.9320 C   0  0  1  0  0  0  0  0  0  0  0  0
   41.4540   28.2870   38.7430 C   0  0  0  0  0  0  0  0  0  0  0  0
   40.5930   27.2250   39.4330 C   0  0  0  0  0  0  0  0  0  0  0  0
   40.3090   27.9340   40.6750 N   0  0  0  0  0  0  0  0  0  0  0  0
   42.6380   27.6370   40.2910 H   0  0  0  0  0  0  0  0  0  0  0  0
   42.0140   27.7830   37.9380 H   0  0  0  0  0  0  0  0  0  0  0  0
   40.8540   29.1320   38.3980 H   0  0  0  0  0  0  0  0  0  0  0  0
   41.2420   26.3570   39.6640 H   0  0  0  0  0  0  0  0  0  0  0  0
   39.6980   26.9800   38.8530 H   0  0  0  0  0  0  0  0  0  0  0  0
   39.1330   27.5400   41.4110 C   0  0  0  0  0  0  0  0  0  0  0  0
   38.5010   28.4770   42.1510 N   0  0  0  0  0  0  0  0  0  0  0  0
   37.3820   28.1900   42.8770 C   0  0  0  0  0  3  0  0  0  0  0  0
   36.8670   26.9580   42.8820 N   0  0  0  0  0  0  0  0  0  0  0  0
   37.4740   26.0010   42.1540 C   0  0  0  0  0  0  0  0  0  0  0  0
   36.9720   24.7160   42.1350 C   0  0  0  0  0  3  0  0  0  0  0  0
   37.5760   23.7090   41.3950 C   0  0  0  0  0  0  0  0  0  0  0  0
   37.1670   22.7070   41.3910 H   0  0  0  0  0  0  0  0  0  0  0  0
   38.7140   24.0390   40.6660 C   0  0  0  0  0  0  0  0  0  0  0  0
   39.1560   23.2290   40.1030 H   0  0  0  0  0  0  0  0  0  0  0  0
   39.2640   25.3170   40.6500 C   0  0  0  0  0  3  0  0  0  0  0  0
   38.6080   26.2610   41.4090 C   0  0  0  0  0  0  0  0  0  0  0  0
   39.1630   33.9480   40.5880 C   0  0  0  0  0  0  0  0  0  0  0  0
   38.2650   33.2670   39.7290 C   0  0  0  0  0  0  0  0  0  0  0  0
   38.7320   32.2670   38.9410 C   0  0  0  0  0  0  0  0  0  0  0  0
   40.0530   31.9780   39.0290 N   0  0  0  0  0  0  0  0  0  0  0  0
   40.8890   32.6180   39.8350 C   0  0  0  0  0  0  0  0  0  0  0  0
   40.4590   33.6050   40.6210 N   0  0  0  0  0  0  0  0  0  0  0  0
   42.2730   32.2280   39.8400 N   0  0  0  0  0  0  0  0  0  0  0  0
   43.2220   32.6520   40.8000 C   0  0  0  0  0  0  0  0  0  0  0  0
   44.4900   32.8260   39.9850 C   0  0  0  0  0  0  0  0  0  0  0  0
   44.1870   32.2760   38.6230 C   0  0  0  0  0  0  0  0  0  0  0  0
   42.9730   31.3920   38.8950 C   0  0  1  0  0  0  0  0  0  0  0  0
   38.7870   34.7450   41.2160 H   0  0  0  0  0  0  0  0  0  0  0  0
   38.0680   31.7510   38.2930 H   0  0  0  0  0  0  0  0  0  0  0  0
   42.9390   33.7140   41.0840 H   0  0  0  0  0  0  0  0  0  0  0  0
   43.4570   32.1660   41.6900 H   0  0  0  0  0  0  0  0  0  0  0  0
   45.3250   32.2140   40.4270 H   0  0  0  0  0  0  0  0  0  0  0  0
   44.8570   33.8500   39.9370 H   0  0  0  0  0  0  0  0  0  0  0  0
   45.0350   31.6780   38.2560 H   0  0  0  0  0  0  0  0  0  0  0  0
   43.9250   33.0700   37.8970 H   0  0  0  0  0  0  0  0  0  0  0  0
   42.4330   31.2440   37.9580 H   0  0  0  0  0  0  0  0  0  0  0  0
   36.8920   33.6940   39.7520 N   0  0  0  0  0  0  0  0  0  0  0  0
   36.3180   33.6240   38.8660 H   0  0  0  0  0  0  0  0  0  0  0  0
   36.5160   34.0580   40.6450 H   0  0  0  0  0  0  0  0  0  0  0  0
  1  4  1  0  0  0  0
  3  2  2  0  0  0  0
  4  8  1  1  0  0  0
  4  3  1  0  0  0  0
  5  6  1  0  0  0  0
  5  4  1  0  0  0  0
  6 11  1  0  0  0  0
  6  7  1  0  0  0  0
  7  3  1  0  0  0  0
  7 13  1  0  0  0  0
  9  5  1  0  0  0  0
 10  5  1  0  0  0  0
 12  6  1  0  0  0  0
 13 14  1  0  0  0  0
 14 15  2  0  0  0  0
 15 16  1  0  0  0  0
 17 16  2  0  0  0  0
 18 17  1  0  0  0  0
 19 18  2  0  0  0  0
 20 19  1  0  0  0  0
 21 19  1  0  0  0  0
 22 21  1  0  0  0  0
 23 21  2  0  0  0  0
 23 24  1  0  0  0  0
 24 13  2  0  0  0  0
 24 17  1  0  0  0  0
 25 30  1  0  0  0  0
 25 36  1  0  0  0  0
 26 45  1  0  0  0  0
 26 25  2  0  0  0  0
 27 28  2  0  0  0  0
 27 26  1  0  0  0  0
 28 29  1  0  0  0  0
 29 31  1  0  0  0  0
 29 30  2  0  0  0  0
 31 32  1  0  0  0  0
 32 38  1  0  0  0  0
 32 39  1  0  0  0  0
 33 40  1  0  0  0  0
 33 32  1  0  0  0  0
 34 35  1  0  0  0  0
 34 33  1  0  0  0  0
 35 44  1  6  0  0  0
 35  1  1  0  0  0  0
 35 31  1  0  0  0  0
 37 27  1  0  0  0  0
 41 33  1  0  0  0  0
 42 34  1  0  0  0  0
 43 34  1  0  0  0  0
 45 47  1  0  0  0  0
 46 45  1  0  0  0  0
M  END
>  <minimizedAffinity>
-6.31337214

$$$$

 OpenBabel03252506393D

 47 51  0  0  1  0  0  0  0  0999 V2000
   36.9340   29.9410   37.9380 S   0  0  0  0  0  0  0  0  0  0  0  0
   39.2330   32.2520   38.6580 O   0  0  0  0  0  0  0  0  0  0  0  0
   39.4020   31.1820   38.0530 C   0  0  0  0  0  0  0  0  0  0  0  0
   38.6090   30.0690   37.4720 C   0  0  1  0  0  0  0  0  0  0  0  0
   39.4610   28.8700   37.8070 C   0  0  0  0  0  0  0  0  0  0  0  0
   40.7770   29.3890   37.2240 C   0  0  0  0  0  0  0  0  0  0  0  0
   40.7370   30.7500   37.7450 N   0  0  0  0  0  0  0  0  0  0  0  0
   38.8570   30.2230   36.3850 H   0  0  0  0  0  0  0  0  0  0  0  0
   39.1850   27.9630   37.2420 H   0  0  0  0  0  0  0  0  0  0  0  0
   39.5320   28.7090   38.8850 H   0  0  0  0  0  0  0  0  0  0  0  0
   40.6690   29.4310   36.1220 H   0  0  0  0  0  0  0  0  0  0  0  0
   41.6390   28.8100   37.5730 H   0  0  0  0  0  0  0  0  0  0  0  0
   41.9910   31.4490   37.8760 C   0  0  0  0  0  0  0  0  0  0  0  0
   42.1070   32.3730   38.8550 N   0  0  0  0  0  0  0  0  0  0  0  0
   43.2580   33.0790   39.0490 C   0  0  0  0  0  3  0  0  0  0  0  0
   44.3230   32.8800   38.2690 N   0  0  0  0  0  0  0  0  0  0  0  0
   44.2390   31.9650   37.2830 C   0  0  0  0  0  0  0  0  0  0  0  0
   45.3190   31.7330   36.4560 C   0  0  0  0  0  3  0  0  0  0  0  0
   45.2620   30.7970   35.4320 C   0  0  0  0  0  0  0  0  0  0  0  0
   46.1190   30.6270   34.7930 H   0  0  0  0  0  0  0  0  0  0  0  0
   44.0730   30.0950   35.2640 C   0  0  0  0  0  0  0  0  0  0  0  0
   44.0680   29.3760   34.4570 H   0  0  0  0  0  0  0  0  0  0  0  0
   42.9550   30.2900   36.0690 C   0  0  0  0  0  3  0  0  0  0  0  0
   43.0890   31.2350   37.0620 C   0  0  0  0  0  0  0  0  0  0  0  0
   37.8380   27.1390   43.2230 C   0  0  0  0  0  0  0  0  0  0  0  0
   38.9680   26.4460   42.7210 C   0  0  0  0  0  0  0  0  0  0  0  0
   39.2210   26.4700   41.3880 C   0  0  0  0  0  0  0  0  0  0  0  0
   38.3600   27.1680   40.6080 N   0  0  0  0  0  0  0  0  0  0  0  0
   37.3050   27.8150   41.0840 C   0  0  0  0  0  0  0  0  0  0  0  0
   37.0300   27.8100   42.3880 N   0  0  0  0  0  0  0  0  0  0  0  0
   36.4570   28.5190   40.1610 N   0  0  0  0  0  0  0  0  0  0  0  0
   35.4450   29.4340   40.5380 C   0  0  0  0  0  0  0  0  0  0  0  0
   34.3430   29.1720   39.5280 C   0  0  0  0  0  0  0  0  0  0  0  0
   34.9260   28.2390   38.5100 C   0  0  0  0  0  0  0  0  0  0  0  0
   36.4250   28.4260   38.7210 C   0  0  1  0  0  0  0  0  0  0  0  0
   37.6390   27.1180   44.2860 H   0  0  0  0  0  0  0  0  0  0  0  0
   40.0640   25.9540   41.0010 H   0  0  0  0  0  0  0  0  0  0  0  0
   35.0110   29.0470   41.5130 H   0  0  0  0  0  0  0  0  0  0  0  0
   35.5570   30.4620   40.6560 H   0  0  0  0  0  0  0  0  0  0  0  0
   34.0620   30.1270   39.0010 H   0  0  0  0  0  0  0  0  0  0  0  0
   33.4230   28.7810   39.9570 H   0  0  0  0  0  0  0  0  0  0  0  0
   34.6300   28.5460   37.4950 H   0  0  0  0  0  0  0  0  0  0  0  0
   34.6440   27.1840   38.6960 H   0  0  0  0  0  0  0  0  0  0  0  0
   36.9450   27.5500   38.3280 H   0  0  0  0  0  0  0  0  0  0  0  0
   39.7840   25.7510   43.6780 N   0  0  0  0  0  0  0  0  0  0  0  0
   40.2820   24.8660   43.3820 H   0  0  0  0  0  0  0  0  0  0  0  0
   39.8520   26.1490   44.6310 H   0  0  0  0  0  0  0  0  0  0  0  0
  1 35  1  0  0  0  0
  3  2  2  0  0  0  0
  4  8  1  6  0  0  0
  4  5  1  0  0  0  0
  4  1  1  0  0  0  0
  4  3  1  0  0  0  0
  5 10  1  0  0  0  0
  6 12  1  0  0  0  0
  6  7  1  0  0  0  0
  6  5  1  0  0  0  0
  7 13  1  0  0  0  0
  7  3  1  0  0  0  0
  9  5  1  0  0  0  0
 11  6  1  0  0  0  0
 13 14  1  0  0  0  0
 14 15  2  0  0  0  0
 16 15  1  0  0  0  0
 17 16  2  0  0  0  0
 18 17  1  0  0  0  0
 19 18  2  0  0  0  0
 20 19  1  0  0  0  0
 21 19  1  0  0  0  0
 21 23  2  0  0  0  0
 22 21  1  0  0  0  0
 23 24  1  0  0  0  0
 24 17  1  0  0  0  0
 24 13  2  0  0  0  0
 25 36  1  0  0  0  0
 26 25  1  0  0  0  0
 26 45  1  0  0  0  0
 27 26  2  0  0  0  0
 28 29  2  0  0  0  0
 28 27  1  0  0  0  0
 29 30  1  0  0  0  0
 30 25  2  0  0  0  0
 31 32  1  0  0  0  0
 31 29  1  0  0  0  0
 32 39  1  0  0  0  0
 32 38  1  0  0  0  0
 33 41  1  0  0  0  0
 33 32  1  0  0  0  0
 34 43  1  0  0  0  0
 34 35  1  0  0  0  0
 34 33  1  0  0  0  0
 35 44  1  6  0  0  0
 35 31  1  0  0  0  0
 37 27  1  0  0  0  0
 40 33  1  0  0  0  0
 42 34  1  0  0  0  0
 45 47  1  0  0  0  0
 46 45  1  0  0  0  0
M  END
>  <minimizedAffinity>
-6.24025536

$$$$

 OpenBabel03252506393D

 47 51  0  0  1  0  0  0  0  0999 V2000
   34.0580   29.2240   35.7920 S   0  0  0  0  0  0  0  0  0  0  0  0
   34.6960   26.5590   37.7000 O   0  0  0  0  0  0  0  0  0  0  0  0
   35.0730   27.7270   37.8840 C   0  0  0  0  0  0  0  0  0  0  0  0
   34.8510   29.0900   37.3390 C   0  0  1  0  0  0  0  0  0  0  0  0
   36.2380   29.6810   37.4010 C   0  0  0  0  0  0  0  0  0  0  0  0
   36.5220   29.3750   38.8730 C   0  0  0  0  0  0  0  0  0  0  0  0
   36.0280   28.0040   38.9200 N   0  0  0  0  0  0  0  0  0  0  0  0
   34.3660   29.5640   38.2370 H   0  0  0  0  0  0  0  0  0  0  0  0
   36.2550   30.7780   37.2840 H   0  0  0  0  0  0  0  0  0  0  0  0
   36.9330   29.1600   36.7380 H   0  0  0  0  0  0  0  0  0  0  0  0
   35.8550   30.0100   39.4890 H   0  0  0  0  0  0  0  0  0  0  0  0
   37.5860   29.4660   39.1160 H   0  0  0  0  0  0  0  0  0  0  0  0
   36.5440   27.1460   39.9580 C   0  0  0  0  0  0  0  0  0  0  0  0
   36.6290   25.8210   39.7080 N   0  0  0  0  0  0  0  0  0  0  0  0
   37.1060   24.9400   40.6340 C   0  0  0  0  0  3  0  0  0  0  0  0
   37.5110   25.3610   41.8340 N   0  0  0  0  0  0  0  0  0  0  0  0
   37.4390   26.6770   42.1150 C   0  0  0  0  0  0  0  0  0  0  0  0
   37.8480   27.1490   43.3460 C   0  0  0  0  0  3  0  0  0  0  0  0
   37.7850   28.4990   43.6640 C   0  0  0  0  0  0  0  0  0  0  0  0
   38.1110   28.8520   44.6340 H   0  0  0  0  0  0  0  0  0  0  0  0
   37.2940   29.3680   42.6950 C   0  0  0  0  0  0  0  0  0  0  0  0
   37.2610   30.4110   42.9800 H   0  0  0  0  0  0  0  0  0  0  0  0
   36.8690   28.9460   41.4390 C   0  0  0  0  0  3  0  0  0  0  0  0
   36.9610   27.5930   41.1990 C   0  0  0  0  0  0  0  0  0  0  0  0
   29.6340   30.2720   31.8020 C   0  0  0  0  0  0  0  0  0  0  0  0
   29.6450   31.6620   32.0780 C   0  0  0  0  0  0  0  0  0  0  0  0
   30.3460   32.1200   33.1450 C   0  0  0  0  0  0  0  0  0  0  0  0
   31.0030   31.2000   33.8930 N   0  0  0  0  0  0  0  0  0  0  0  0
   30.9900   29.9010   33.6300 C   0  0  0  0  0  0  0  0  0  0  0  0
   30.3100   29.4210   32.5890 N   0  0  0  0  0  0  0  0  0  0  0  0
   31.7200   29.0170   34.4970 N   0  0  0  0  0  0  0  0  0  0  0  0
   31.9880   27.6560   34.2150 C   0  0  0  0  0  0  0  0  0  0  0  0
   31.8710   26.9880   35.5720 C   0  0  0  0  0  0  0  0  0  0  0  0
   31.7390   28.0980   36.5720 C   0  0  0  0  0  0  0  0  0  0  0  0
   32.2810   29.2960   35.7970 C   0  0  1  0  0  0  0  0  0  0  0  0
   29.0740   29.9100   30.9500 H   0  0  0  0  0  0  0  0  0  0  0  0
   30.3610   33.1590   33.3600 H   0  0  0  0  0  0  0  0  0  0  0  0
   31.0880   27.2640   33.6460 H   0  0  0  0  0  0  0  0  0  0  0  0
   32.8270   27.2830   33.7260 H   0  0  0  0  0  0  0  0  0  0  0  0
   32.8140   26.4200   35.8100 H   0  0  0  0  0  0  0  0  0  0  0  0
   31.0570   26.2710   35.6520 H   0  0  0  0  0  0  0  0  0  0  0  0
   32.3570   27.8900   37.4580 H   0  0  0  0  0  0  0  0  0  0  0  0
   30.6860   28.2780   36.8630 H   0  0  0  0  0  0  0  0  0  0  0  0
   31.8950   30.2090   36.2540 H   0  0  0  0  0  0  0  0  0  0  0  0
   28.8960   32.5080   31.1890 N   0  0  0  0  0  0  0  0  0  0  0  0
   28.4520   33.3880   31.5710 H   0  0  0  0  0  0  0  0  0  0  0  0
   28.8200   32.2170   30.1980 H   0  0  0  0  0  0  0  0  0  0  0  0
  1 35  1  0  0  0  0
  1  4  1  0  0  0  0
  2  3  2  0  0  0  0
  3  7  1  0  0  0  0
  4  5  1  0  0  0  0
  4  3  1  0  0  0  0
  4  8  1  1  0  0  0
  5  6  1  0  0  0  0
  6  7  1  0  0  0  0
  6 12  1  0  0  0  0
  6 11  1  0  0  0  0
  7 13  1  0  0  0  0
  9  5  1  0  0  0  0
 10  5  1  0  0  0  0
 13 24  1  0  0  0  0
 14 13  2  0  0  0  0
 14 15  1  0  0  0  0
 15 16  2  0  0  0  0
 16 17  1  0  0  0  0
 17 18  1  0  0  0  0
 18 19  2  0  0  0  0
 19 20  1  0  0  0  0
 21 22  1  0  0  0  0
 21 19  1  0  0  0  0
 23 21  2  0  0  0  0
 24 23  1  0  0  0  0
 24 17  2  0  0  0  0
 25 26  2  0  0  0  0
 25 30  1  0  0  0  0
 26 27  1  0  0  0  0
 27 37  1  0  0  0  0
 27 28  2  0  0  0  0
 29 28  1  0  0  0  0
 29 31  1  0  0  0  0
 30 29  2  0  0  0  0
 31 35  1  0  0  0  0
 32 31  1  0  0  0  0
 32 33  1  0  0  0  0
 33 41  1  0  0  0  0
 33 40  1  0  0  0  0
 33 34  1  0  0  0  0
 34 43  1  0  0  0  0
 34 42  1  0  0  0  0
 35 44  1  1  0  0  0
 35 34  1  0  0  0  0
 36 25  1  0  0  0  0
 38 32  1  0  0  0  0
 39 32  1  0  0  0  0
 45 46  1  0  0  0  0
 45 26  1  0  0  0  0
 47 45  1  0  0  0  0
M  END
>  <minimizedAffinity>
-6.21901846

$$$$

 OpenBabel03252506393D

 47 51  0  0  1  0  0  0  0  0999 V2000
   37.2030   30.3550   38.6010 S   0  0  0  0  0  0  0  0  0  0  0  0
   40.0590   31.9790   38.0080 O   0  0  0  0  0  0  0  0  0  0  0  0
   39.6480   31.5470   39.0960 C   0  0  0  0  0  0  0  0  0  0  0  0
   38.5580   30.7000   39.6420 C   0  0  1  0  0  0  0  0  0  0  0  0
   38.2140   31.4190   40.9230 C   0  0  0  0  0  0  0  0  0  0  0  0
   39.6300   31.4850   41.5020 C   0  0  0  0  0  0  0  0  0  0  0  0
   40.3490   31.8930   40.3010 N   0  0  0  0  0  0  0  0  0  0  0  0
   39.1760   29.8410   40.0260 H   0  0  0  0  0  0  0  0  0  0  0  0
   37.6040   30.8150   41.6160 H   0  0  0  0  0  0  0  0  0  0  0  0
   37.8080   32.4150   40.7350 H   0  0  0  0  0  0  0  0  0  0  0  0
   39.9400   30.4540   41.7650 H   0  0  0  0  0  0  0  0  0  0  0  0
   39.7050   32.2040   42.3250 H   0  0  0  0  0  0  0  0  0  0  0  0
   41.6140   32.5620   40.4790 C   0  0  0  0  0  0  0  0  0  0  0  0
   41.9960   33.4610   39.5450 N   0  0  0  0  0  0  0  0  0  0  0  0
   43.1770   34.1380   39.6360 C   0  0  0  0  0  3  0  0  0  0  0  0
   44.0060   33.9350   40.6630 N   0  0  0  0  0  0  0  0  0  0  0  0
   43.6530   33.0440   41.6110 C   0  0  0  0  0  0  0  0  0  0  0  0
   44.4840   32.8070   42.6860 C   0  0  0  0  0  3  0  0  0  0  0  0
   44.1470   31.8950   43.6780 C   0  0  0  0  0  0  0  0  0  0  0  0
   44.8110   31.7220   44.5150 H   0  0  0  0  0  0  0  0  0  0  0  0
   42.9360   31.2240   43.5530 C   0  0  0  0  0  0  0  0  0  0  0  0
   42.7090   30.5230   44.3440 H   0  0  0  0  0  0  0  0  0  0  0  0
   42.0610   31.4250   42.4900 C   0  0  0  0  0  3  0  0  0  0  0  0
   42.4650   32.3440   41.5470 C   0  0  0  0  0  0  0  0  0  0  0  0
   37.4180   25.6030   42.3370 C   0  0  0  0  0  0  0  0  0  0  0  0
   38.5480   25.0650   41.6710 C   0  0  0  0  0  0  0  0  0  0  0  0
   38.9300   25.5960   40.4830 C   0  0  0  0  0  0  0  0  0  0  0  0
   38.1930   26.6250   40.0000 N   0  0  0  0  0  0  0  0  0  0  0  0
   37.1370   27.1240   40.6280 C   0  0  0  0  0  0  0  0  0  0  0  0
   36.7370   26.6240   41.7970 N   0  0  0  0  0  0  0  0  0  0  0  0
   36.4270   28.2160   40.0180 N   0  0  0  0  0  0  0  0  0  0  0  0
   35.4400   28.9940   40.6680 C   0  0  0  0  0  0  0  0  0  0  0  0
   34.4280   29.2630   39.5700 C   0  0  0  0  0  0  0  0  0  0  0  0
   35.0500   28.7640   38.3000 C   0  0  0  0  0  0  0  0  0  0  0  0
   36.5310   28.7090   38.6660 C   0  0  1  0  0  0  0  0  0  0  0  0
   37.1160   25.1770   43.2850 H   0  0  0  0  0  0  0  0  0  0  0  0
   39.7750   25.2000   39.9760 H   0  0  0  0  0  0  0  0  0  0  0  0
   34.8910   28.2930   41.3710 H   0  0  0  0  0  0  0  0  0  0  0  0
   35.6020   29.8740   41.2000 H   0  0  0  0  0  0  0  0  0  0  0  0
   34.2580   30.3710   39.4590 H   0  0  0  0  0  0  0  0  0  0  0  0
   33.4480   28.8220   39.7430 H   0  0  0  0  0  0  0  0  0  0  0  0
   34.8730   29.4780   37.4810 H   0  0  0  0  0  0  0  0  0  0  0  0
   34.6890   27.7540   38.0230 H   0  0  0  0  0  0  0  0  0  0  0  0
   37.0320   28.0190   37.9850 H   0  0  0  0  0  0  0  0  0  0  0  0
   39.2230   23.9720   42.3150 N   0  0  0  0  0  0  0  0  0  0  0  0
   39.6940   23.2360   41.7180 H   0  0  0  0  0  0  0  0  0  0  0  0
   39.2220   23.9470   43.3490 H   0  0  0  0  0  0  0  0  0  0  0  0
  1 35  1  0  0  0  0
  1  4  1  0  0  0  0
  2  3  2  0  0  0  0
  3  4  1  0  0  0  0
  3  7  1  0  0  0  0
  4  8  1  1  0  0  0
  4  5  1  0  0  0  0
  5  6  1  0  0  0  0
  5  9  1  0  0  0  0
  6 11  1  0  0  0  0
  6 12  1  0  0  0  0
  7 13  1  0  0  0  0
  7  6  1  0  0  0  0
 10  5  1  0  0  0  0
 13 24  1  0  0  0  0
 14 15  1  0  0  0  0
 14 13  2  0  0  0  0
 15 16  2  0  0  0  0
 16 17  1  0  0  0  0
 17 18  1  0  0  0  0
 18 19  2  0  0  0  0
 19 20  1  0  0  0  0
 21 19  1  0  0  0  0
 21 22  1  0  0  0  0
 23 21  2  0  0  0  0
 24 17  2  0  0  0  0
 24 23  1  0  0  0  0
 25 36  1  0  0  0  0
 26 45  1  0  0  0  0
 26 25  2  0  0  0  0
 27 26  1  0  0  0  0
 28 27  2  0  0  0  0
 28 29  1  0  0  0  0
 29 30  2  0  0  0  0
 30 25  1  0  0  0  0
 31 29  1  0  0  0  0
 31 32  1  0  0  0  0
 32 39  1  0  0  0  0
 32 38  1  0  0  0  0
 33 41  1  0  0  0  0
 33 32  1  0  0  0  0
 34 35  1  0  0  0  0
 34 33  1  0  0  0  0
 35 44  1  6  0  0  0
 35 31  1  0  0  0  0
 37 27  1  0  0  0  0
 40 33  1  0  0  0  0
 42 34  1  0  0  0  0
 43 34  1  0  0  0  0
 45 47  1  0  0  0  0
 46 45  1  0  0  0  0
M  END
>  <minimizedAffinity>
-6.21447372

$$$$

 OpenBabel03252506393D

 47 51  0  0  1  0  0  0  0  0999 V2000
   35.6580   26.8570   36.8980 S   0  0  0  0  0  0  0  0  0  0  0  0
   33.6480   26.6120   34.2430 O   0  0  0  0  0  0  0  0  0  0  0  0
   33.6860   27.5280   35.0790 C   0  0  0  0  0  0  0  0  0  0  0  0
   34.5140   27.9870   36.2230 C   0  0  1  0  0  0  0  0  0  0  0  0
   33.4660   28.4890   37.1860 C   0  0  0  0  0  0  0  0  0  0  0  0
   32.7350   29.4240   36.2180 C   0  0  0  0  0  0  0  0  0  0  0  0
   32.6710   28.5450   35.0570 N   0  0  0  0  0  0  0  0  0  0  0  0
   34.8990   28.9510   35.7890 H   0  0  0  0  0  0  0  0  0  0  0  0
   33.8770   29.1120   37.9970 H   0  0  0  0  0  0  0  0  0  0  0  0
   32.8170   27.6840   37.5380 H   0  0  0  0  0  0  0  0  0  0  0  0
   33.4130   30.2680   35.9830 H   0  0  0  0  0  0  0  0  0  0  0  0
   31.7530   29.7220   36.5980 H   0  0  0  0  0  0  0  0  0  0  0  0
   31.6400   28.8040   34.0830 C   0  0  0  0  0  0  0  0  0  0  0  0
   31.1460   27.7590   33.3840 N   0  0  0  0  0  0  0  0  0  0  0  0
   30.1690   27.9150   32.4440 C   0  0  0  0  0  3  0  0  0  0  0  0
   29.6600   29.1210   32.1800 N   0  0  0  0  0  0  0  0  0  0  0  0
   30.1320   30.1840   32.8610 C   0  0  0  0  0  0  0  0  0  0  0  0
   29.6310   31.4460   32.6150 C   0  0  0  0  0  3  0  0  0  0  0  0
   30.0970   32.5600   33.3010 C   0  0  0  0  0  0  0  0  0  0  0  0
   29.6920   33.5420   33.0950 H   0  0  0  0  0  0  0  0  0  0  0  0
   31.0920   32.3620   34.2510 C   0  0  0  0  0  0  0  0  0  0  0  0
   31.4290   33.2530   34.7640 H   0  0  0  0  0  0  0  0  0  0  0  0
   31.6330   31.1120   34.5390 C   0  0  0  0  0  3  0  0  0  0  0  0
   31.1190   30.0570   33.8180 C   0  0  0  0  0  0  0  0  0  0  0  0
   36.9180   31.3760   40.7160 C   0  0  0  0  0  0  0  0  0  0  0  0
   37.1300   32.2860   39.6500 C   0  0  0  0  0  0  0  0  0  0  0  0
   37.2130   31.8130   38.3820 C   0  0  0  0  0  0  0  0  0  0  0  0
   37.0850   30.4740   38.2130 N   0  0  0  0  0  0  0  0  0  0  0  0
   36.8870   29.6280   39.2140 C   0  0  0  0  0  0  0  0  0  0  0  0
   36.8010   30.0630   40.4710 N   0  0  0  0  0  0  0  0  0  0  0  0
   36.7710   28.2260   38.9160 N   0  0  0  0  0  0  0  0  0  0  0  0
   36.3320   27.2430   39.8350 C   0  0  0  0  0  0  0  0  0  0  0  0
   37.1980   26.0430   39.5040 C   0  0  0  0  0  0  0  0  0  0  0  0
   37.9410   26.3990   38.2510 C   0  0  0  0  0  0  0  0  0  0  0  0
   37.0980   27.5400   37.6890 C   0  0  1  0  0  0  0  0  0  0  0  0
   36.8520   31.7580   41.7270 H   0  0  0  0  0  0  0  0  0  0  0  0
   37.3720   32.4860   37.5760 H   0  0  0  0  0  0  0  0  0  0  0  0
   36.7060   27.5690   40.8560 H   0  0  0  0  0  0  0  0  0  0  0  0
   35.3510   26.9240   39.9720 H   0  0  0  0  0  0  0  0  0  0  0  0
   36.5540   25.1460   39.2810 H   0  0  0  0  0  0  0  0  0  0  0  0
   37.8720   25.7400   40.3030 H   0  0  0  0  0  0  0  0  0  0  0  0
   37.9570   25.5430   37.5590 H   0  0  0  0  0  0  0  0  0  0  0  0
   38.9700   26.7520   38.4580 H   0  0  0  0  0  0  0  0  0  0  0  0
   37.7170   28.1280   37.0090 H   0  0  0  0  0  0  0  0  0  0  0  0
   37.2450   33.6770   39.9950 N   0  0  0  0  0  0  0  0  0  0  0  0
   37.8650   34.3020   39.4090 H   0  0  0  0  0  0  0  0  0  0  0  0
   36.7100   34.0160   40.8130 H   0  0  0  0  0  0  0  0  0  0  0  0
  1 35  1  0  0  0  0
  2  3  2  0  0  0  0
  3  4  1  0  0  0  0
  4  8  1  6  0  0  0
  4  1  1  0  0  0  0
  4  5  1  0  0  0  0
  5 10  1  0  0  0  0
  5  9  1  0  0  0  0
  6 12  1  0  0  0  0
  6  5  1  0  0  0  0
  7  3  1  0  0  0  0
  7  6  1  0  0  0  0
 11  6  1  0  0  0  0
 13  7  1  0  0  0  0
 14 13  2  0  0  0  0
 15 14  1  0  0  0  0
 16 15  2  0  0  0  0
 16 17  1  0  0  0  0
 17 24  1  0  0  0  0
 18 17  2  0  0  0  0
 18 19  1  0  0  0  0
 19 21  2  0  0  0  0
 20 19  1  0  0  0  0
 21 23  1  0  0  0  0
 21 22  1  0  0  0  0
 24 13  1  0  0  0  0
 24 23  2  0  0  0  0
 25 36  1  0  0  0  0
 26 45  1  0  0  0  0
 26 25  2  0  0  0  0
 27 26  1  0  0  0  0
 28 27  2  0  0  0  0
 28 29  1  0  0  0  0
 29 30  2  0  0  0  0
 30 25  1  0  0  0  0
 31 29  1  0  0  0  0
 31 32  1  0  0  0  0
 32 39  1  0  0  0  0
 32 38  1  0  0  0  0
 33 32  1  0  0  0  0
 33 41  1  0  0  0  0
 34 43  1  0  0  0  0
 34 33  1  0  0  0  0
 35 44  1  6  0  0  0
 35 34  1  0  0  0  0
 35 31  1  0  0  0  0
 37 27  1  0  0  0  0
 40 33  1  0  0  0  0
 42 34  1  0  0  0  0
 45 47  1  0  0  0  0
 46 45  1  0  0  0  0
M  END
>  <minimizedAffinity>
-6.19457912

$$$$

 OpenBabel03252506393D

 47 51  0  0  1  0  0  0  0  0999 V2000
   39.8450   31.7940   41.0470 S   0  0  0  0  0  0  0  0  0  0  0  0
   41.0320   28.8160   41.9790 O   0  0  0  0  0  0  0  0  0  0  0  0
   39.9030   29.0730   41.5340 C   0  0  0  0  0  0  0  0  0  0  0  0
   39.1530   30.1990   40.9220 C   0  0  1  0  0  0  0  0  0  0  0  0
   37.7880   30.0420   41.5450 C   0  0  0  0  0  0  0  0  0  0  0  0
   37.5740   28.5680   41.1920 C   0  0  0  0  0  0  0  0  0  0  0  0
   38.8900   28.0540   41.5520 N   0  0  0  0  0  0  0  0  0  0  0  0
   38.9830   29.7630   39.8980 H   0  0  0  0  0  0  0  0  0  0  0  0
   37.0010   30.6200   41.0320 H   0  0  0  0  0  0  0  0  0  0  0  0
   37.8130   30.2000   42.6260 H   0  0  0  0  0  0  0  0  0  0  0  0
   37.4550   28.4940   40.0930 H   0  0  0  0  0  0  0  0  0  0  0  0
   36.7560   28.1210   41.7680 H   0  0  0  0  0  0  0  0  0  0  0  0
   38.9930   26.6500   41.8630 C   0  0  0  0  0  0  0  0  0  0  0  0
   39.9400   26.2600   42.7450 N   0  0  0  0  0  0  0  0  0  0  0  0
   40.1050   24.9530   43.0960 C   0  0  0  0  0  3  0  0  0  0  0  0
   39.3290   24.0000   42.5750 N   0  0  0  0  0  0  0  0  0  0  0  0
   38.3750   24.3560   41.6920 C   0  0  0  0  0  0  0  0  0  0  0  0
   37.5540   23.4000   41.1310 C   0  0  0  0  0  3  0  0  0  0  0  0
   36.5630   23.7370   40.2180 C   0  0  0  0  0  0  0  0  0  0  0  0
   35.9270   22.9730   39.7890 H   0  0  0  0  0  0  0  0  0  0  0  0
   36.4230   25.0800   39.8850 C   0  0  0  0  0  0  0  0  0  0  0  0
   35.6410   25.3020   39.1720 H   0  0  0  0  0  0  0  0  0  0  0  0
   37.2230   26.0850   40.4200 C   0  0  0  0  0  3  0  0  0  0  0  0
   38.1830   25.6710   41.3170 C   0  0  0  0  0  0  0  0  0  0  0  0
   42.8980   30.2370   36.0630 C   0  0  0  0  0  0  0  0  0  0  0  0
   43.3510   29.0310   36.6550 C   0  0  0  0  0  0  0  0  0  0  0  0
   43.1730   28.8390   37.9860 C   0  0  0  0  0  0  0  0  0  0  0  0
   42.5620   29.8330   38.6760 N   0  0  0  0  0  0  0  0  0  0  0  0
   42.1400   30.9580   38.1170 C   0  0  0  0  0  0  0  0  0  0  0  0
   42.3010   31.1750   36.8120 N   0  0  0  0  0  0  0  0  0  0  0  0
   41.5080   31.9450   38.9500 N   0  0  0  0  0  0  0  0  0  0  0  0
   40.8080   33.0750   38.4660 C   0  0  0  0  0  0  0  0  0  0  0  0
   41.1600   34.1600   39.4660 C   0  0  0  0  0  0  0  0  0  0  0  0
   41.8960   33.4770   40.5790 C   0  0  0  0  0  0  0  0  0  0  0  0
   41.4830   32.0200   40.3910 C   0  0  1  0  0  0  0  0  0  0  0  0
   43.0420   30.3860   35.0010 H   0  0  0  0  0  0  0  0  0  0  0  0
   43.5090   27.9410   38.4400 H   0  0  0  0  0  0  0  0  0  0  0  0
   41.3420   33.4020   37.5190 H   0  0  0  0  0  0  0  0  0  0  0  0
   39.7890   33.1260   38.2580 H   0  0  0  0  0  0  0  0  0  0  0  0
   40.2240   34.6130   39.8970 H   0  0  0  0  0  0  0  0  0  0  0  0
   41.7320   34.9880   39.0490 H   0  0  0  0  0  0  0  0  0  0  0  0
   41.5560   33.8600   41.5530 H   0  0  0  0  0  0  0  0  0  0  0  0
   42.9940   33.5770   40.4810 H   0  0  0  0  0  0  0  0  0  0  0  0
   42.2250   31.3820   40.8750 H   0  0  0  0  0  0  0  0  0  0  0  0
   43.9820   28.0760   35.7860 N   0  0  0  0  0  0  0  0  0  0  0  0
   44.7440   27.4540   36.1730 H   0  0  0  0  0  0  0  0  0  0  0  0
   43.6610   28.0340   34.8030 H   0  0  0  0  0  0  0  0  0  0  0  0
  3  7  1  0  0  0  0
  3  2  2  0  0  0  0
  4  8  1  6  0  0  0
  4  1  1  0  0  0  0
  4  3  1  0  0  0  0
  4  5  1  0  0  0  0
  5 10  1  0  0  0  0
  6  5  1  0  0  0  0
  6  7  1  0  0  0  0
  6 12  1  0  0  0  0
  7 13  1  0  0  0  0
  9  5  1  0  0  0  0
 11  6  1  0  0  0  0
 13 14  1  0  0  0  0
 14 15  2  0  0  0  0
 16 15  1  0  0  0  0
 17 16  2  0  0  0  0
 18 17  1  0  0  0  0
 19 18  2  0  0  0  0
 20 19  1  0  0  0  0
 21 19  1  0  0  0  0
 21 23  2  0  0  0  0
 22 21  1  0  0  0  0
 23 24  1  0  0  0  0
 24 17  1  0  0  0  0
 24 13  2  0  0  0  0
 25 26  2  0  0  0  0
 25 30  1  0  0  0  0
 26 27  1  0  0  0  0
 27 37  1  0  0  0  0
 27 28  2  0  0  0  0
 29 28  1  0  0  0  0
 29 31  1  0  0  0  0
 30 29  2  0  0  0  0
 31 35  1  0  0  0  0
 32 31  1  0  0  0  0
 32 33  1  0  0  0  0
 33 40  1  0  0  0  0
 33 34  1  0  0  0  0
 34 42  1  0  0  0  0
 35 34  1  0  0  0  0
 35 44  1  1  0  0  0
 35  1  1  0  0  0  0
 36 25  1  0  0  0  0
 38 32  1  0  0  0  0
 39 32  1  0  0  0  0
 41 33  1  0  0  0  0
 43 34  1  0  0  0  0
 45 46  1  0  0  0  0
 45 26  1  0  0  0  0
 47 45  1  0  0  0  0
M  END
>  <minimizedAffinity>
-6.09846687

$$$$

 OpenBabel03252506393D

 47 51  0  0  1  0  0  0  0  0999 V2000
   35.8290   26.9120   34.9150 S   0  0  0  0  0  0  0  0  0  0  0  0
   33.1680   27.4900   36.8450 O   0  0  0  0  0  0  0  0  0  0  0  0
   33.5520   28.1540   35.8700 C   0  0  0  0  0  0  0  0  0  0  0  0
   34.5490   28.0860   34.7720 C   0  0  1  0  0  0  0  0  0  0  0  0
   35.0050   29.5210   34.6730 C   0  0  0  0  0  0  0  0  0  0  0  0
   33.6210   30.1630   34.5450 C   0  0  0  0  0  0  0  0  0  0  0  0
   32.9250   29.4160   35.5860 N   0  0  0  0  0  0  0  0  0  0  0  0
   33.8450   28.0140   33.8970 H   0  0  0  0  0  0  0  0  0  0  0  0
   35.5570   29.7440   33.7450 H   0  0  0  0  0  0  0  0  0  0  0  0
   35.5190   29.8490   35.5790 H   0  0  0  0  0  0  0  0  0  0  0  0
   33.2000   29.8720   33.5620 H   0  0  0  0  0  0  0  0  0  0  0  0
   33.6490   31.2430   34.7250 H   0  0  0  0  0  0  0  0  0  0  0  0
   31.7510   30.0190   36.1660 C   0  0  0  0  0  0  0  0  0  0  0  0
   31.4530   29.7280   37.4510 N   0  0  0  0  0  0  0  0  0  0  0  0
   30.3610   30.2550   38.0760 C   0  0  0  0  0  3  0  0  0  0  0  0
   29.5390   31.0880   37.4330 N   0  0  0  0  0  0  0  0  0  0  0  0
   29.8090   31.3980   36.1500 C   0  0  0  0  0  0  0  0  0  0  0  0
   28.9820   32.2550   35.4530 C   0  0  0  0  0  3  0  0  0  0  0  0
   29.2350   32.5930   34.1300 C   0  0  0  0  0  0  0  0  0  0  0  0
   28.5760   33.2670   33.5980 H   0  0  0  0  0  0  0  0  0  0  0  0
   30.3570   32.0370   33.5250 C   0  0  0  0  0  0  0  0  0  0  0  0
   30.5200   32.3240   32.4950 H   0  0  0  0  0  0  0  0  0  0  0  0
   31.2240   31.1680   34.1810 C   0  0  0  0  0  3  0  0  0  0  0  0
   30.9060   30.8810   35.4900 C   0  0  0  0  0  0  0  0  0  0  0  0
   35.8760   28.6240   40.7160 C   0  0  0  0  0  0  0  0  0  0  0  0
   36.0050   29.9910   40.3650 C   0  0  0  0  0  0  0  0  0  0  0  0
   36.2870   30.3210   39.0800 C   0  0  0  0  0  0  0  0  0  0  0  0
   36.4290   29.3010   38.1980 N   0  0  0  0  0  0  0  0  0  0  0  0
   36.3060   28.0240   38.5320 C   0  0  0  0  0  0  0  0  0  0  0  0
   36.0300   27.6690   39.7870 N   0  0  0  0  0  0  0  0  0  0  0  0
   36.4840   27.0270   37.5120 N   0  0  0  0  0  0  0  0  0  0  0  0
   36.1580   25.6580   37.6630 C   0  0  0  0  0  0  0  0  0  0  0  0
   37.2610   24.9500   36.8980 C   0  0  0  0  0  0  0  0  0  0  0  0
   38.0310   26.0240   36.1890 C   0  0  0  0  0  0  0  0  0  0  0  0
   37.0400   27.1850   36.1900 C   0  0  1  0  0  0  0  0  0  0  0  0
   35.6510   28.3650   41.7430 H   0  0  0  0  0  0  0  0  0  0  0  0
   36.3860   31.3410   38.8060 H   0  0  0  0  0  0  0  0  0  0  0  0
   36.3740   25.3950   38.7460 H   0  0  0  0  0  0  0  0  0  0  0  0
   35.2470   25.2130   37.4300 H   0  0  0  0  0  0  0  0  0  0  0  0
   36.8190   24.2690   36.1170 H   0  0  0  0  0  0  0  0  0  0  0  0
   37.9070   24.3270   37.5130 H   0  0  0  0  0  0  0  0  0  0  0  0
   38.2670   25.7090   35.1610 H   0  0  0  0  0  0  0  0  0  0  0  0
   38.9520   26.3100   36.7330 H   0  0  0  0  0  0  0  0  0  0  0  0
   37.5940   28.1160   36.0560 H   0  0  0  0  0  0  0  0  0  0  0  0
   35.8260   30.9530   41.4180 N   0  0  0  0  0  0  0  0  0  0  0  0
   36.3660   31.8610   41.3810 H   0  0  0  0  0  0  0  0  0  0  0  0
   35.1670   30.7160   42.1800 H   0  0  0  0  0  0  0  0  0  0  0  0
  1 35  1  0  0  0  0
  3  2  2  0  0  0  0
  4  8  1  6  0  0  0
  4  1  1  0  0  0  0
  4  3  1  0  0  0  0
  5  4  1  0  0  0  0
  5 10  1  0  0  0  0
  6  5  1  0  0  0  0
  6 12  1  0  0  0  0
  6  7  1  0  0  0  0
  7  3  1  0  0  0  0
  7 13  1  0  0  0  0
  9  5  1  0  0  0  0
 11  6  1  0  0  0  0
 13 14  1  0  0  0  0
 14 15  2  0  0  0  0
 16 15  1  0  0  0  0
 17 16  2  0  0  0  0
 18 17  1  0  0  0  0
 19 18  2  0  0  0  0
 20 19  1  0  0  0  0
 21 19  1  0  0  0  0
 21 23  2  0  0  0  0
 22 21  1  0  0  0  0
 23 24  1  0  0  0  0
 24 17  1  0  0  0  0
 24 13  2  0  0  0  0
 25 36  1  0  0  0  0
 26 25  1  0  0  0  0
 26 45  1  0  0  0  0
 27 26  2  0  0  0  0
 28 29  2  0  0  0  0
 28 27  1  0  0  0  0
 29 30  1  0  0  0  0
 30 25  2  0  0  0  0
 31 32  1  0  0  0  0
 31 29  1  0  0  0  0
 32 38  1  0  0  0  0
 33 41  1  0  0  0  0
 33 32  1  0  0  0  0
 34 35  1  0  0  0  0
 34 43  1  0  0  0  0
 34 33  1  0  0  0  0
 35 44  1  6  0  0  0
 35 31  1  0  0  0  0
 37 27  1  0  0  0  0
 39 32  1  0  0  0  0
 40 33  1  0  0  0  0
 42 34  1  0  0  0  0
 45 47  1  0  0  0  0
 46 45  1  0  0  0  0
M  END
>  <minimizedAffinity>
-6.05518627

$$$$
