
 OpenBabel03242519033D

 35 38  0  0  1  0  0  0  0  0999 V2000
   47.3630   34.3040   42.3920 N   0  0  0  0  0  0  0  0  0  0  0  0
   47.8110   35.0310   41.2300 C   0  0  0  0  0  0  0  0  0  0  0  0
   47.7750   33.9060   40.2380 C   0  0  2  0  0  0  0  0  0  0  0  0
   48.5390   32.8320   40.9630 C   0  0  0  0  0  0  0  0  0  0  0  0
   48.1090   33.0550   42.4010 C   0  0  0  0  0  0  0  0  0  0  0  0
   47.1710   35.8910   40.9790 H   0  0  0  0  0  0  0  0  0  0  0  0
   48.8690   35.2950   41.4020 H   0  0  0  0  0  0  0  0  0  0  0  0
   46.7470   33.5620   40.0070 H   0  0  0  0  0  0  0  0  0  0  0  0
   49.6240   32.8560   40.8100 H   0  0  0  0  0  0  0  0  0  0  0  0
   48.0810   31.8560   40.6660 H   0  0  0  0  0  0  0  0  0  0  0  0
   49.0440   33.2720   42.9760 H   0  0  0  0  0  0  0  0  0  0  0  0
   47.5430   32.2140   42.8270 H   0  0  0  0  0  0  0  0  0  0  0  0
   48.5210   34.2160   39.0320 N   0  0  0  0  0  0  0  0  0  0  0  0
   49.1070   35.0560   39.0690 H   0  0  0  0  0  0  0  0  0  0  0  0
   48.3450   33.3160   37.9530 C   0  0  0  0  0  0  0  0  0  0  0  0
   49.4010   32.8820   37.2590 N   0  0  0  0  0  0  0  0  0  0  0  0
   49.2450   32.0260   36.2300 C   0  0  0  0  0  3  0  0  0  0  0  0
   48.0500   31.5450   35.8220 N   0  0  0  0  0  0  0  0  0  0  0  0
   46.9630   31.9660   36.5050 C   0  0  0  0  0  0  0  0  0  0  0  0
   45.7400   31.4800   36.0960 C   0  0  0  0  0  3  0  0  0  0  0  0
   44.6330   31.9110   36.7960 C   0  0  0  0  0  0  0  0  0  0  0  0
   43.6480   31.5610   36.5160 H   0  0  0  0  0  0  0  0  0  0  0  0
   44.7120   32.7940   37.8670 C   0  0  0  0  0  0  0  0  0  0  0  0
   43.8420   33.1140   38.3940 H   0  0  0  0  0  0  0  0  0  0  0  0
   45.9810   33.2260   38.2050 C   0  0  0  0  0  3  0  0  0  0  0  0
   47.1120   32.8420   37.5590 C   0  0  0  0  0  0  0  0  0  0  0  0
   44.6290   35.8880   44.3510 C   0  0  0  0  0  0  0  0  0  0  0  0
   45.5120   35.6800   43.2980 C   0  0  0  0  0  0  0  0  0  0  0  0
   46.4150   34.6310   43.3770 C   0  0  0  0  0  0  0  0  0  0  0  0
   46.3800   33.8460   44.5140 N   0  0  0  0  0  0  0  0  0  0  0  0
   45.5170   34.0610   45.5250 C   0  0  0  0  0  0  0  0  0  0  0  0
   44.6330   35.0940   45.4410 N   0  0  0  0  0  0  0  0  0  0  0  0
   43.9440   36.7170   44.2450 H   0  0  0  0  0  0  0  0  0  0  0  0
   45.5440   36.2890   42.4100 H   0  0  0  0  0  0  0  0  0  0  0  0
   45.5820   33.3790   46.3690 H   0  0  0  0  0  0  0  0  0  0  0  0
  1  5  1  0  0  0  0
  1 29  1  0  0  0  0
  2  7  1  0  0  0  0
  2  1  1  0  0  0  0
  3  8  1  6  0  0  0
  3  4  1  0  0  0  0
  3  2  1  0  0  0  0
  4  5  1  0  0  0  0
  5 12  1  0  0  0  0
  5 11  1  0  0  0  0
  6  2  1  0  0  0  0
  9  4  1  0  0  0  0
 10  4  1  0  0  0  0
 13 14  1  0  0  0  0
 13  3  1  0  0  0  0
 15 13  1  0  0  0  0
 16 15  2  0  0  0  0
 17 16  1  0  0  0  0
 18 17  2  0  0  0  0
 18 19  1  0  0  0  0
 19 26  1  0  0  0  0
 20 19  2  0  0  0  0
 20 21  1  0  0  0  0
 21 23  2  0  0  0  0
 22 21  1  0  0  0  0
 23 25  1  0  0  0  0
 23 24  1  0  0  0  0
 26 15  1  0  0  0  0
 26 25  2  0  0  0  0
 27 32  1  0  0  0  0
 28 29  1  0  0  0  0
 28 27  2  0  0  0  0
 29 30  2  0  0  0  0
 30 31  1  0  0  0  0
 31 35  1  0  0  0  0
 32 31  2  0  0  0  0
 33 27  1  0  0  0  0
 34 28  1  0  0  0  0
M  END
>  <minimizedAffinity>
-5.3800478

>  <minimizedRMSD>
1.06979227

$$$$
