
     RDKit          3D

 51 55  0  0  0  0  0  0  0  0999 V2000
   46.8613   34.4510   42.3209 C   0  0  0  0  0  0  0  0  0  0  0  0
   47.9296   35.3220   42.1358 C   0  0  0  0  0  0  0  0  0  0  0  0
   48.6654   35.4399   40.9801 C   0  0  0  0  0  0  0  0  0  0  0  0
   48.3676   34.6671   39.9010 C   0  0  0  0  0  0  0  0  0  0  0  0
   47.3216   33.7781   40.0050 C   0  0  0  0  0  0  0  0  0  0  0  0
   46.9687   32.9728   38.9585 C   0  0  0  0  0  0  0  0  0  0  0  0
   45.9356   32.0776   39.0228 C   0  0  0  0  0  0  0  0  0  0  0  0
   45.2224   32.0054   40.2351 C   0  0  0  0  0  0  0  0  0  0  0  0
   45.6080   32.8321   41.2641 C   0  0  0  0  0  0  0  0  0  0  0  0
   46.6182   33.7060   41.1969 C   0  0  0  0  0  0  0  0  0  0  0  0
   44.6620   35.2504   45.2518 C   0  0  0  0  0  0  0  0  0  0  0  0
   45.2033   35.3525   43.9923 C   0  0  0  0  0  0  0  0  0  0  0  0
   46.2169   34.4678   43.5850 C   0  0  0  0  0  0  0  0  0  0  0  0
   46.5649   33.5673   44.5290 N   0  0  0  0  0  0  0  0  0  0  0  0
   46.0502   33.4659   45.7348 C   0  0  0  0  0  0  0  0  0  0  0  0
   45.0990   34.3178   46.0768 N   0  0  0  0  0  0  0  0  0  0  0  0
   46.6294   32.3686   46.5727 C   0  0  0  0  0  0  0  0  0  0  0  0
   45.6551   31.6165   47.1507 F   0  0  0  0  0  0  0  0  0  0  0  0
   47.4870   32.8909   47.5257 F   0  0  0  0  0  0  0  0  0  0  0  0
   47.4792   31.5814   45.7609 F   0  0  0  0  0  0  0  0  0  0  0  0
   44.8212   36.3565   42.9601 C   0  0  0  0  0  0  0  0  0  0  0  0
   43.6992   35.9464   42.0899 C   0  0  0  0  0  0  0  0  0  0  0  0
   44.7974   32.6449   42.4051 N   0  0  0  0  0  0  0  0  0  0  0  0
   48.2576   35.9917   42.9369 H   0  0  0  0  0  0  0  0  0  0  0  0
   49.4838   36.1274   40.8792 H   0  0  0  0  0  0  0  0  0  0  0  0
   48.9164   34.7336   38.9936 H   0  0  0  0  0  0  0  0  0  0  0  0
   47.5299   33.0564   38.0595 H   0  0  0  0  0  0  0  0  0  0  0  0
   45.6920   31.4594   38.1681 H   0  0  0  0  0  0  0  0  0  0  0  0
   44.4259   31.2941   40.2406 H   0  0  0  0  0  0  0  0  0  0  0  0
   43.8859   35.9561   45.5114 H   0  0  0  0  0  0  0  0  0  0  0  0
   45.6878   36.5758   42.2853 H   0  0  0  0  0  0  0  0  0  0  0  0
   44.6412   37.2672   43.5154 H   0  0  0  0  0  0  0  0  0  0  0  0
   43.8875   35.0970   41.4374 H   0  0  0  0  0  0  0  0  0  0  0  0
   43.6022   36.7696   41.3163 H   0  0  0  0  0  0  0  0  0  0  0  0
   43.9789   33.0355   42.8860 H   0  0  0  0  0  0  0  0  0  0  0  0
   45.2202   31.7956   42.8866 H   0  0  0  0  0  0  0  0  0  0  0  0
   42.4012   35.7274   42.7818 C   0  0  0  0  0  0  0  0  0  0  0  0
   41.7338   36.4819   43.6652 N   0  0  0  0  0  0  0  0  0  0  0  0
   40.5790   36.2466   44.2407 C   0  0  0  0  0  0  0  0  0  0  0  0
   39.9084   35.1195   43.9625 N   0  0  0  0  0  0  0  0  0  0  0  0
   40.4676   34.2592   43.0820 C   0  0  0  0  0  0  0  0  0  0  0  0
   39.7343   33.1176   42.8429 C   0  0  0  0  0  0  0  0  0  0  0  0
   40.2487   32.1914   41.9605 C   0  0  0  0  0  0  0  0  0  0  0  0
   39.6855   31.2985   41.7660 H   0  0  0  0  0  0  0  0  0  0  0  0
   41.4613   32.4248   41.3501 C   0  0  0  0  0  0  0  0  0  0  0  0
   41.8354   31.6866   40.6704 H   0  0  0  0  0  0  0  0  0  0  0  0
   42.1264   33.5955   41.6489 C   0  0  0  0  0  0  0  0  0  0  0  0
   41.6872   34.5753   42.5161 C   0  0  0  0  0  0  0  0  0  0  0  0
   40.2636   37.0445   44.9314 H   0  0  0  0  0  0  0  0  0  0  0  0
   38.7819   32.9341   43.3218 H   0  0  0  0  0  0  0  0  0  0  0  0
   43.0706   33.6933   41.1350 H   0  0  0  0  0  0  0  0  0  0  0  0
  1 13  1  0
  2  1  2  0
  3  2  1  0
  4  5  1  0
  4  3  2  0
  5 10  2  0
  6  7  2  0
  6  5  1  0
  7  8  1  0
  8  9  2  0
  9 23  1  0
 10  9  1  0
 10  1  1  0
 11 16  2  0
 12 11  1  0
 13 12  2  0
 13 14  1  0
 14 15  2  0
 15 16  1  0
 15 17  1  0
 17 18  1  0
 17 19  1  0
 20 17  1  0
 21 12  1  0
 22 21  1  0
  2 24  1  0
  3 25  1  0
  4 26  1  0
  6 27  1  0
  7 28  1  0
  8 29  1  0
 11 30  1  0
 21 31  1  0
 21 32  1  0
 22 33  1  0
 22 34  1  0
 23 35  1  0
 23 36  1  0
 37 38  2  0
 38 39  1  0
 39 40  2  0
 40 41  1  0
 41 42  2  0
 42 43  1  0
 43 44  1  0
 43 45  2  0
 45 46  1  0
 45 47  1  0
 47 48  2  0
 48 37  1  0
 48 41  1  0
 39 49  1  0
 42 50  1  0
 47 51  1  0
 22 37  1  0
M  ISO  8  24  14  25  14  26  14  27  14  28  14  29  14  30  14  31   8
M  ISO  5  32   8  33   8  34   8  44  16  46  16
M  END
>  <DihAtoms>  (1) 
20,21,36,37

>  <DihDeg>  (1) 
-101.38282231163788

$$$$
