
 OpenBabel03252506383D

 47 51  0  0  1  0  0  0  0  0999 V2000
   46.4270   30.1540   46.4110 S   0  0  0  0  0  0  0  0  0  0  0  0
   46.1120   30.6730   43.1280 O   0  0  0  0  0  0  0  0  0  0  0  0
   45.2960   30.1300   43.8890 C   0  0  0  0  0  0  0  0  0  0  0  0
   45.0780   29.8930   45.3380 C   0  0  1  0  0  0  0  0  0  0  0  0
   44.5170   28.4920   45.3450 C   0  0  0  0  0  0  0  0  0  0  0  0
   43.3940   28.7210   44.3290 C   0  0  0  0  0  0  0  0  0  0  0  0
   44.1400   29.4830   43.3340 N   0  0  0  0  0  0  0  0  0  0  0  0
   44.1470   30.5080   45.4810 H   0  0  0  0  0  0  0  0  0  0  0  0
   44.0420   28.2130   46.3000 H   0  0  0  0  0  0  0  0  0  0  0  0
   45.2430   27.7600   44.9860 H   0  0  0  0  0  0  0  0  0  0  0  0
   42.6440   29.3900   44.7940 H   0  0  0  0  0  0  0  0  0  0  0  0
   42.9870   27.7790   43.9460 H   0  0  0  0  0  0  0  0  0  0  0  0
   43.6360   29.4830   41.9830 C   0  0  0  0  0  0  0  0  0  0  0  0
   44.2820   28.7330   41.0620 N   0  0  0  0  0  0  0  0  0  0  0  0
   43.8720   28.6760   39.7620 C   0  0  0  0  0  3  0  0  0  0  0  0
   42.8070   29.3670   39.3490 N   0  0  0  0  0  0  0  0  0  0  0  0
   42.1400   30.1230   40.2430 C   0  0  0  0  0  0  0  0  0  0  0  0
   41.0350   30.8510   39.8530 C   0  0  0  0  0  3  0  0  0  0  0  0
   40.3300   31.6400   40.7520 C   0  0  0  0  0  0  0  0  0  0  0  0
   39.4650   32.2040   40.4290 H   0  0  0  0  0  0  0  0  0  0  0  0
   40.7760   31.6740   42.0690 C   0  0  0  0  0  0  0  0  0  0  0  0
   40.2010   32.2980   42.7390 H   0  0  0  0  0  0  0  0  0  0  0  0
   41.8840   30.9590   42.5160 C   0  0  0  0  0  3  0  0  0  0  0  0
   42.5310   30.2010   41.5650 C   0  0  0  0  0  0  0  0  0  0  0  0
   44.4800   35.7140   45.0390 C   0  0  0  0  0  0  0  0  0  0  0  0
   45.1080   35.6770   43.7690 C   0  0  0  0  0  0  0  0  0  0  0  0
   45.9830   34.6780   43.4930 C   0  0  0  0  0  0  0  0  0  0  0  0
   46.2040   33.7630   44.4680 N   0  0  0  0  0  0  0  0  0  0  0  0
   45.6140   33.8030   45.6540 C   0  0  0  0  0  0  0  0  0  0  0  0
   44.7490   34.7720   45.9550 N   0  0  0  0  0  0  0  0  0  0  0  0
   45.9290   32.7800   46.6140 N   0  0  0  0  0  0  0  0  0  0  0  0
   45.2150   32.5600   47.8160 C   0  0  0  0  0  0  0  0  0  0  0  0
   46.3020   32.1770   48.8030 C   0  0  0  0  0  0  0  0  0  0  0  0
   47.5560   32.0150   47.9980 C   0  0  0  0  0  0  0  0  0  0  0  0
   47.0110   31.8250   46.5850 C   0  0  1  0  0  0  0  0  0  0  0  0
   43.7830   36.5130   45.2570 H   0  0  0  0  0  0  0  0  0  0  0  0
   46.4590   34.6400   42.5450 H   0  0  0  0  0  0  0  0  0  0  0  0
   44.8740   33.5800   48.1780 H   0  0  0  0  0  0  0  0  0  0  0  0
   44.4040   31.9200   47.9420 H   0  0  0  0  0  0  0  0  0  0  0  0
   46.0660   31.1840   49.2780 H   0  0  0  0  0  0  0  0  0  0  0  0
   46.4340   32.8810   49.6230 H   0  0  0  0  0  0  0  0  0  0  0  0
   48.1100   31.1230   48.3290 H   0  0  0  0  0  0  0  0  0  0  0  0
   48.2020   32.9140   48.0390 H   0  0  0  0  0  0  0  0  0  0  0  0
   47.7970   32.0770   45.8720 H   0  0  0  0  0  0  0  0  0  0  0  0
   44.7680   36.7220   42.8430 N   0  0  0  0  0  0  0  0  0  0  0  0
   45.4960   37.0510   42.1510 H   0  0  0  0  0  0  0  0  0  0  0  0
   43.8120   37.1160   42.8920 H   0  0  0  0  0  0  0  0  0  0  0  0
  1 35  1  0  0  0  0
  2  3  2  0  0  0  0
  3  4  1  0  0  0  0
  4  5  1  0  0  0  0
  4  8  1  1  0  0  0
  4  1  1  0  0  0  0
  5  9  1  0  0  0  0
  6 11  1  0  0  0  0
  6  5  1  0  0  0  0
  7  3  1  0  0  0  0
  7  6  1  0  0  0  0
 10  5  1  0  0  0  0
 12  6  1  0  0  0  0
 13  7  1  0  0  0  0
 14 13  2  0  0  0  0
 15 14  1  0  0  0  0
 16 15  2  0  0  0  0
 16 17  1  0  0  0  0
 17 24  1  0  0  0  0
 18 17  2  0  0  0  0
 18 19  1  0  0  0  0
 19 21  2  0  0  0  0
 20 19  1  0  0  0  0
 21 23  1  0  0  0  0
 21 22  1  0  0  0  0
 24 13  1  0  0  0  0
 24 23  2  0  0  0  0
 25 36  1  0  0  0  0
 25 30  1  0  0  0  0
 26 25  2  0  0  0  0
 27 26  1  0  0  0  0
 27 28  2  0  0  0  0
 28 29  1  0  0  0  0
 29 30  2  0  0  0  0
 29 31  1  0  0  0  0
 31 32  1  0  0  0  0
 32 39  1  0  0  0  0
 32 38  1  0  0  0  0
 32 33  1  0  0  0  0
 33 40  1  0  0  0  0
 33 41  1  0  0  0  0
 34 43  1  0  0  0  0
 34 42  1  0  0  0  0
 34 33  1  0  0  0  0
 35 44  1  6  0  0  0
 35 31  1  0  0  0  0
 35 34  1  0  0  0  0
 37 27  1  0  0  0  0
 45 47  1  0  0  0  0
 45 26  1  0  0  0  0
 46 45  1  0  0  0  0
M  END
>  <minimizedAffinity>
-5.97530842

>  <minimizedRMSD>
0.992475152

$$$$
