
 OpenBabel03242511483D

 47 50  0  0  0  0  0  0  0  0999 V2000
   35.8970   29.8750   40.2580 C   0  0  0  0  0  0  0  0  0  0  0  0
   36.3400   29.2600   41.4550 C   0  0  0  0  0  0  0  0  0  0  0  0
   37.5170   29.7330   42.0070 C   0  0  0  0  0  0  0  0  0  0  0  0
   38.1850   30.7350   41.4040 N   0  0  0  0  0  0  0  0  0  0  0  0
   37.7180   31.2850   40.2650 C   0  0  0  0  0  0  0  0  0  0  0  0
   36.6050   30.8780   39.6940 N   0  0  0  0  0  0  0  0  0  0  0  0
   34.9780   29.5140   39.8130 H   0  0  0  0  0  0  0  0  0  0  0  0
   35.7510   28.4490   41.8960 H   0  0  0  0  0  0  0  0  0  0  0  0
   38.5080   32.3810   39.6660 C   0  0  0  0  0  0  0  0  0  0  0  0
   38.3830   32.4550   38.5640 H   0  0  0  0  0  0  0  0  0  0  0  0
   38.1570   33.3290   40.0910 H   0  0  0  0  0  0  0  0  0  0  0  0
   39.9530   32.2180   40.0770 C   0  0  0  0  0  0  0  0  0  0  0  0
   40.2260   31.1370   40.1250 H   0  0  0  0  0  0  0  0  0  0  0  0
   40.1320   32.5850   41.1240 H   0  0  0  0  0  0  0  0  0  0  0  0
   40.8580   32.8920   39.1620 C   0  0  0  0  0  0  0  0  0  0  0  0
   41.3590   32.4710   37.9570 C   0  0  0  0  0  0  0  0  0  0  0  0
   42.1990   33.1900   37.1860 C   0  0  0  0  0  0  0  0  0  0  0  0
   42.5880   34.4390   37.6360 C   0  0  0  0  0  0  0  0  0  0  0  0
   42.0980   34.8790   38.8410 C   0  0  0  0  0  0  0  0  0  0  0  0
   41.2390   34.1260   39.6130 C   0  0  0  0  0  0  0  0  0  0  0  0
   41.0130   31.4710   37.6570 H   0  0  0  0  0  0  0  0  0  0  0  0
   42.5450   32.7760   36.2480 H   0  0  0  0  0  0  0  0  0  0  0  0
   43.2700   34.9760   36.9710 H   0  0  0  0  0  0  0  0  0  0  0  0
   42.5030   35.8830   39.0490 H   0  0  0  0  0  0  0  0  0  0  0  0
   39.7110   35.6220   40.7340 C   0  0  0  0  0  0  0  0  0  0  0  0
   38.7350   35.8370   39.9000 O   0  0  0  0  0  0  0  0  0  0  0  0
   40.9390   34.8860   40.7940 N   0  0  0  0  0  0  0  0  0  0  0  0
   39.1800   36.2730   41.4220 H   0  0  0  0  0  0  0  0  0  0  0  0
   41.3950   35.0410   41.6950 H   0  0  0  0  0  0  0  0  0  0  0  0
   37.9590   29.0760   43.2530 C   0  0  0  0  0  0  0  0  0  0  0  0
   37.7300   29.7080   44.1250 H   0  0  0  0  0  0  0  0  0  0  0  0
   39.0700   28.9660   43.2180 H   0  0  0  0  0  0  0  0  0  0  0  0
   37.2910   27.7240   43.4480 C   0  0  0  0  0  0  0  0  0  0  0  0
   36.4350   27.5920   42.7790 H   0  0  0  0  0  0  0  0  0  0  0  0
   36.9260   27.6050   44.4770 H   0  0  0  0  0  0  0  0  0  0  0  0
   38.3100   26.6850   43.1520 C   0  0  0  0  0  0  0  0  0  0  0  0
   39.5230   26.8190   43.7210 N   0  0  0  0  0  0  0  0  0  0  0  0
   40.4920   25.9170   43.5380 C   0  0  0  0  0  3  0  0  0  0  0  0
   40.3140   24.8060   42.7640 N   0  0  0  0  0  0  0  0  0  0  0  0
   39.0990   24.6240   42.1630 C   0  0  0  0  0  0  0  0  0  0  0  0
   38.8400   23.5310   41.3620 C   0  0  0  0  0  3  0  0  0  0  0  0
   37.6140   23.3610   40.7540 C   0  0  0  0  0  0  0  0  0  0  0  0
   37.4650   22.4860   40.1360 H   0  0  0  0  0  0  0  0  0  0  0  0
   36.6390   24.3190   40.9680 C   0  0  0  0  0  0  0  0  0  0  0  0
   35.6740   24.1480   40.4640 H   0  0  0  0  0  0  0  0  0  0  0  0
   36.8540   25.4430   41.7730 C   0  0  0  0  0  3  0  0  0  0  0  0
   38.1100   25.5600   42.3610 C   0  0  0  0  0  0  0  0  0  0  0  0
  1  2  1  0  0  0  0
  2  8  1  0  0  0  0
  2  3  2  0  0  0  0
  3 30  1  0  0  0  0
  4  3  1  0  0  0  0
  5  4  2  0  0  0  0
  6  1  2  0  0  0  0
  6  5  1  0  0  0  0
  7  1  1  0  0  0  0
  9 12  1  0  0  0  0
  9 11  1  0  0  0  0
  9  5  1  0  0  0  0
 10  9  1  0  0  0  0
 12 13  1  0  0  0  0
 12 14  1  0  0  0  0
 15 20  1  0  0  0  0
 15 12  1  0  0  0  0
 16 15  2  0  0  0  0
 17 18  2  0  0  0  0
 17 16  1  0  0  0  0
 18 19  1  0  0  0  0
 19 24  1  0  0  0  0
 19 20  2  0  0  0  0
 20 27  1  0  0  0  0
 21 16  1  0  0  0  0
 22 17  1  0  0  0  0
 23 18  1  0  0  0  0
 25 27  1  0  0  0  0
 25 28  1  0  0  0  0
 26 25  2  0  0  0  0
 27 29  1  0  0  0  0
 30 33  1  0  0  0  0
 30 31  1  0  0  0  0
 32 30  1  0  0  0  0
 33 35  1  0  0  0  0
 34 33  1  0  0  0  0
 36 33  1  0  0  0  0
 36 37  1  0  0  0  0
 38 37  2  0  0  0  0
 39 38  1  0  0  0  0
 40 47  1  0  0  0  0
 40 39  2  0  0  0  0
 41 40  1  0  0  0  0
 42 44  1  0  0  0  0
 42 41  2  0  0  0  0
 43 42  1  0  0  0  0
 44 46  2  0  0  0  0
 45 44  1  0  0  0  0
 46 47  1  0  0  0  0
 47 36  2  0  0  0  0
M  END
>  <minimizedAffinity>
-6.68904543

$$$$

 OpenBabel03242511483D

 47 50  0  0  0  0  0  0  0  0999 V2000
   35.9160   29.3130   37.0960 C   0  0  0  0  0  0  0  0  0  0  0  0
   35.4840   29.1490   38.4350 C   0  0  0  0  0  0  0  0  0  0  0  0
   36.1410   29.8890   39.4030 C   0  0  0  0  0  0  0  0  0  0  0  0
   37.1430   30.7160   39.0480 N   0  0  0  0  0  0  0  0  0  0  0  0
   37.5140   30.8340   37.7570 C   0  0  0  0  0  0  0  0  0  0  0  0
   36.9260   30.1580   36.7940 N   0  0  0  0  0  0  0  0  0  0  0  0
   35.4120   28.7400   36.3270 H   0  0  0  0  0  0  0  0  0  0  0  0
   34.6630   28.4600   38.6580 H   0  0  0  0  0  0  0  0  0  0  0  0
   38.6200   31.7640   37.4510 C   0  0  0  0  0  0  0  0  0  0  0  0
   39.1810   31.4840   36.5320 H   0  0  0  0  0  0  0  0  0  0  0  0
   38.1940   32.7580   37.2730 H   0  0  0  0  0  0  0  0  0  0  0  0
   39.5130   31.8740   38.6650 C   0  0  0  0  0  0  0  0  0  0  0  0
   39.9280   30.8750   38.9360 H   0  0  0  0  0  0  0  0  0  0  0  0
   38.9350   32.1790   39.5800 H   0  0  0  0  0  0  0  0  0  0  0  0
   40.6130   32.7990   38.4500 C   0  0  0  0  0  0  0  0  0  0  0  0
   41.4760   32.9010   37.3910 C   0  0  0  0  0  0  0  0  0  0  0  0
   42.4690   33.8090   37.2990 C   0  0  0  0  0  0  0  0  0  0  0  0
   42.6330   34.7020   38.3430 C   0  0  0  0  0  0  0  0  0  0  0  0
   41.7770   34.6160   39.4140 C   0  0  0  0  0  0  0  0  0  0  0  0
   40.7690   33.6790   39.4860 C   0  0  0  0  0  0  0  0  0  0  0  0
   41.2950   32.1630   36.5960 H   0  0  0  0  0  0  0  0  0  0  0  0
   43.1040   33.8140   36.4230 H   0  0  0  0  0  0  0  0  0  0  0  0
   43.4520   35.4150   38.2140 H   0  0  0  0  0  0  0  0  0  0  0  0
   42.0430   35.3930   40.1490 H   0  0  0  0  0  0  0  0  0  0  0  0
   39.1120   34.9270   40.7200 C   0  0  0  0  0  0  0  0  0  0  0  0
   38.6360   35.8130   39.8950 O   0  0  0  0  0  0  0  0  0  0  0  0
   40.0840   33.8750   40.7320 N   0  0  0  0  0  0  0  0  0  0  0  0
   38.4230   35.3350   41.4540 H   0  0  0  0  0  0  0  0  0  0  0  0
   40.1160   33.4400   41.6560 H   0  0  0  0  0  0  0  0  0  0  0  0
   35.6750   29.7000   40.7910 C   0  0  0  0  0  0  0  0  0  0  0  0
   34.6260   30.0180   40.8910 H   0  0  0  0  0  0  0  0  0  0  0  0
   36.2770   30.3640   41.4580 H   0  0  0  0  0  0  0  0  0  0  0  0
   35.7860   28.2500   41.2340 C   0  0  0  0  0  0  0  0  0  0  0  0
   35.7460   27.5600   40.3840 H   0  0  0  0  0  0  0  0  0  0  0  0
   34.9700   27.9790   41.9160 H   0  0  0  0  0  0  0  0  0  0  0  0
   37.0910   28.1020   41.9270 C   0  0  0  0  0  0  0  0  0  0  0  0
   37.6920   29.2210   42.3730 N   0  0  0  0  0  0  0  0  0  0  0  0
   38.8530   29.1830   43.0360 C   0  0  0  0  0  3  0  0  0  0  0  0
   39.5000   28.0100   43.3010 N   0  0  0  0  0  0  0  0  0  0  0  0
   38.9290   26.8440   42.8680 C   0  0  0  0  0  0  0  0  0  0  0  0
   39.5210   25.6180   43.0900 C   0  0  0  0  0  3  0  0  0  0  0  0
   38.9430   24.4490   42.6430 C   0  0  0  0  0  0  0  0  0  0  0  0
   39.4500   23.5160   42.8450 H   0  0  0  0  0  0  0  0  0  0  0  0
   37.7430   24.5340   41.9590 C   0  0  0  0  0  0  0  0  0  0  0  0
   37.3130   23.5790   41.6170 H   0  0  0  0  0  0  0  0  0  0  0  0
   37.1040   25.7530   41.7100 C   0  0  0  0  0  3  0  0  0  0  0  0
   37.7350   26.8980   42.1870 C   0  0  0  0  0  0  0  0  0  0  0  0
  1  2  1  0  0  0  0
  2  8  1  0  0  0  0
  2  3  2  0  0  0  0
  3 30  1  0  0  0  0
  4  3  1  0  0  0  0
  5  4  2  0  0  0  0
  6  1  2  0  0  0  0
  6  5  1  0  0  0  0
  7  1  1  0  0  0  0
  9  5  1  0  0  0  0
  9 12  1  0  0  0  0
 10  9  1  0  0  0  0
 11  9  1  0  0  0  0
 12 13  1  0  0  0  0
 12 14  1  0  0  0  0
 15 12  1  0  0  0  0
 15 20  1  0  0  0  0
 16 15  2  0  0  0  0
 17 16  1  0  0  0  0
 17 18  2  0  0  0  0
 18 19  1  0  0  0  0
 19 20  2  0  0  0  0
 19 24  1  0  0  0  0
 20 27  1  0  0  0  0
 21 16  1  0  0  0  0
 22 17  1  0  0  0  0
 23 18  1  0  0  0  0
 25 27  1  0  0  0  0
 25 28  1  0  0  0  0
 26 25  2  0  0  0  0
 27 29  1  0  0  0  0
 30 31  1  0  0  0  0
 30 33  1  0  0  0  0
 30 32  1  0  0  0  0
 33 35  1  0  0  0  0
 33 36  1  0  0  0  0
 34 33  1  0  0  0  0
 36 47  2  0  0  0  0
 36 37  1  0  0  0  0
 37 38  2  0  0  0  0
 38 39  1  0  0  0  0
 40 41  1  0  0  0  0
 40 39  2  0  0  0  0
 42 43  1  0  0  0  0
 42 41  2  0  0  0  0
 44 42  1  0  0  0  0
 45 44  1  0  0  0  0
 46 44  2  0  0  0  0
 46 47  1  0  0  0  0
 47 40  1  0  0  0  0
M  END
>  <minimizedAffinity>
-6.52872992

$$$$

 OpenBabel03242511483D

 47 50  0  0  0  0  0  0  0  0999 V2000
   37.7330   31.8650   39.3090 C   0  0  0  0  0  0  0  0  0  0  0  0
   37.9700   33.2380   39.5670 C   0  0  0  0  0  0  0  0  0  0  0  0
   38.8150   33.5440   40.6190 C   0  0  0  0  0  0  0  0  0  0  0  0
   39.3680   32.5530   41.3440 N   0  0  0  0  0  0  0  0  0  0  0  0
   39.1090   31.2610   41.0540 C   0  0  0  0  0  0  0  0  0  0  0  0
   38.3150   30.9100   40.0670 N   0  0  0  0  0  0  0  0  0  0  0  0
   37.0730   31.6100   38.4890 H   0  0  0  0  0  0  0  0  0  0  0  0
   37.4890   33.9970   38.9400 H   0  0  0  0  0  0  0  0  0  0  0  0
   39.7560   30.2340   41.8960 C   0  0  0  0  0  0  0  0  0  0  0  0
   40.2500   29.4340   41.3020 H   0  0  0  0  0  0  0  0  0  0  0  0
   40.5390   30.7200   42.4890 H   0  0  0  0  0  0  0  0  0  0  0  0
   38.7360   29.6880   42.8680 C   0  0  0  0  0  0  0  0  0  0  0  0
   37.7400   30.1600   42.6950 H   0  0  0  0  0  0  0  0  0  0  0  0
   38.9820   29.9670   43.9290 H   0  0  0  0  0  0  0  0  0  0  0  0
   38.5990   28.2460   42.7600 C   0  0  0  0  0  0  0  0  0  0  0  0
   39.5270   27.2610   42.9740 C   0  0  0  0  0  0  0  0  0  0  0  0
   39.2840   25.9410   42.8430 C   0  0  0  0  0  0  0  0  0  0  0  0
   38.0130   25.5470   42.4670 C   0  0  0  0  0  0  0  0  0  0  0  0
   37.0670   26.5200   42.2490 C   0  0  0  0  0  0  0  0  0  0  0  0
   37.3390   27.8640   42.3880 C   0  0  0  0  0  0  0  0  0  0  0  0
   40.5170   27.6380   43.2680 H   0  0  0  0  0  0  0  0  0  0  0  0
   40.0800   25.2330   43.0320 H   0  0  0  0  0  0  0  0  0  0  0  0
   37.8730   24.4660   42.3780 H   0  0  0  0  0  0  0  0  0  0  0  0
   36.1180   26.0390   41.9590 H   0  0  0  0  0  0  0  0  0  0  0  0
   35.7910   28.5990   40.6880 C   0  0  0  0  0  0  0  0  0  0  0  0
   36.2530   28.1510   39.5580 O   0  0  0  0  0  0  0  0  0  0  0  0
   36.1360   28.5830   42.0790 N   0  0  0  0  0  0  0  0  0  0  0  0
   34.9730   29.0210   40.1130 H   0  0  0  0  0  0  0  0  0  0  0  0
   35.4410   29.1040   42.6170 H   0  0  0  0  0  0  0  0  0  0  0  0
   39.0450   34.9800   40.8690 C   0  0  0  0  0  0  0  0  0  0  0  0
   39.4780   35.1330   41.8690 H   0  0  0  0  0  0  0  0  0  0  0  0
   38.0560   35.5020   40.8640 H   0  0  0  0  0  0  0  0  0  0  0  0
   39.9800   35.5930   39.8380 C   0  0  0  0  0  0  0  0  0  0  0  0
   39.9270   36.6860   39.8400 H   0  0  0  0  0  0  0  0  0  0  0  0
   39.7320   35.2530   38.8240 H   0  0  0  0  0  0  0  0  0  0  0  0
   41.3590   35.1670   40.1890 C   0  0  0  0  0  0  0  0  0  0  0  0
   41.8530   35.5660   41.3760 N   0  0  0  0  0  0  0  0  0  0  0  0
   43.0720   35.2050   41.7900 C   0  0  0  0  0  3  0  0  0  0  0  0
   43.8900   34.4120   41.0370 N   0  0  0  0  0  0  0  0  0  0  0  0
   43.4340   33.9800   39.8220 C   0  0  0  0  0  0  0  0  0  0  0  0
   44.2000   33.1810   38.9980 C   0  0  0  0  0  3  0  0  0  0  0  0
   43.7340   32.7580   37.7720 C   0  0  0  0  0  0  0  0  0  0  0  0
   44.3760   32.1330   37.1670 H   0  0  0  0  0  0  0  0  0  0  0  0
   42.4680   33.1560   37.3810 C   0  0  0  0  0  0  0  0  0  0  0  0
   42.1320   32.7990   36.3940 H   0  0  0  0  0  0  0  0  0  0  0  0
   41.6530   33.9650   38.1800 C   0  0  0  0  0  3  0  0  0  0  0  0
   42.1770   34.3590   39.4080 C   0  0  0  0  0  0  0  0  0  0  0  0
  1  2  2  0  0  0  0
  1  6  1  0  0  0  0
  2  3  1  0  0  0  0
  3 30  1  0  0  0  0
  3  4  2  0  0  0  0
  5  4  1  0  0  0  0
  5  9  1  0  0  0  0
  6  5  2  0  0  0  0
  7  1  1  0  0  0  0
  8  2  1  0  0  0  0
  9 11  1  0  0  0  0
  9 12  1  0  0  0  0
 10  9  1  0  0  0  0
 12 14  1  0  0  0  0
 13 12  1  0  0  0  0
 15 12  1  0  0  0  0
 15 16  1  0  0  0  0
 16 21  1  0  0  0  0
 17 16  2  0  0  0  0
 17 22  1  0  0  0  0
 18 17  1  0  0  0  0
 19 20  1  0  0  0  0
 19 18  2  0  0  0  0
 20 15  2  0  0  0  0
 23 18  1  0  0  0  0
 24 19  1  0  0  0  0
 25 27  1  0  0  0  0
 26 25  2  0  0  0  0
 27 20  1  0  0  0  0
 27 29  1  0  0  0  0
 28 25  1  0  0  0  0
 30 31  1  0  0  0  0
 32 30  1  0  0  0  0
 33 34  1  0  0  0  0
 33 36  1  0  0  0  0
 33 30  1  0  0  0  0
 35 33  1  0  0  0  0
 36 37  1  0  0  0  0
 37 38  2  0  0  0  0
 39 38  1  0  0  0  0
 40 39  2  0  0  0  0
 41 40  1  0  0  0  0
 42 41  2  0  0  0  0
 43 42  1  0  0  0  0
 44 42  1  0  0  0  0
 44 46  2  0  0  0  0
 45 44  1  0  0  0  0
 46 47  1  0  0  0  0
 47 40  1  0  0  0  0
 47 36  2  0  0  0  0
M  END
>  <minimizedAffinity>
-6.52414179

$$$$

 OpenBabel03242511483D

 47 50  0  0  0  0  0  0  0  0999 V2000
   41.2060   28.1290   42.8830 C   0  0  0  0  0  0  0  0  0  0  0  0
   39.8190   28.0480   43.1610 C   0  0  0  0  0  0  0  0  0  0  0  0
   39.0560   29.1710   42.8910 C   0  0  0  0  0  0  0  0  0  0  0  0
   39.6420   30.2730   42.3880 N   0  0  0  0  0  0  0  0  0  0  0  0
   40.9680   30.2970   42.1420 C   0  0  0  0  0  0  0  0  0  0  0  0
   41.7430   29.2600   42.3780 N   0  0  0  0  0  0  0  0  0  0  0  0
   41.8160   27.2580   43.0900 H   0  0  0  0  0  0  0  0  0  0  0  0
   39.4030   27.1210   43.5700 H   0  0  0  0  0  0  0  0  0  0  0  0
   41.5340   31.5440   41.5880 C   0  0  0  0  0  0  0  0  0  0  0  0
   41.4900   32.3960   42.3030 H   0  0  0  0  0  0  0  0  0  0  0  0
   42.5930   31.3710   41.3650 H   0  0  0  0  0  0  0  0  0  0  0  0
   40.8470   31.8510   40.2780 C   0  0  0  0  0  0  0  0  0  0  0  0
   39.9240   31.2350   40.1680 H   0  0  0  0  0  0  0  0  0  0  0  0
   41.4760   31.5460   39.3980 H   0  0  0  0  0  0  0  0  0  0  0  0
   40.4940   33.2550   40.1640 C   0  0  0  0  0  0  0  0  0  0  0  0
   41.2640   34.3230   39.7820 C   0  0  0  0  0  0  0  0  0  0  0  0
   40.8230   35.5960   39.7120 C   0  0  0  0  0  0  0  0  0  0  0  0
   39.5060   35.8480   40.0490 C   0  0  0  0  0  0  0  0  0  0  0  0
   38.7180   34.7910   40.4350 C   0  0  0  0  0  0  0  0  0  0  0  0
   39.1900   33.4980   40.4990 C   0  0  0  0  0  0  0  0  0  0  0  0
   42.3000   34.0570   39.5290 H   0  0  0  0  0  0  0  0  0  0  0  0
   41.5040   36.3760   39.4000 H   0  0  0  0  0  0  0  0  0  0  0  0
   39.2050   36.8970   39.9740 H   0  0  0  0  0  0  0  0  0  0  0  0
   37.7070   35.1640   40.6670 H   0  0  0  0  0  0  0  0  0  0  0  0
   37.2510   32.1940   39.8940 C   0  0  0  0  0  0  0  0  0  0  0  0
   37.1330   32.2970   38.6020 O   0  0  0  0  0  0  0  0  0  0  0  0
   38.1080   32.6640   40.9410 N   0  0  0  0  0  0  0  0  0  0  0  0
   36.3720   31.5570   39.8590 H   0  0  0  0  0  0  0  0  0  0  0  0
   37.7840   32.3100   41.8430 H   0  0  0  0  0  0  0  0  0  0  0  0
   37.6150   29.0620   43.1900 C   0  0  0  0  0  0  0  0  0  0  0  0
   37.0250   29.6300   42.4550 H   0  0  0  0  0  0  0  0  0  0  0  0
   37.4250   29.5320   44.1860 H   0  0  0  0  0  0  0  0  0  0  0  0
   37.1400   27.6180   43.1790 C   0  0  0  0  0  0  0  0  0  0  0  0
   36.2600   27.4740   43.8130 H   0  0  0  0  0  0  0  0  0  0  0  0
   37.9220   26.9390   43.5440 H   0  0  0  0  0  0  0  0  0  0  0  0
   36.7950   27.2800   41.7750 C   0  0  0  0  0  0  0  0  0  0  0  0
   36.3200   28.2680   40.9930 N   0  0  0  0  0  0  0  0  0  0  0  0
   36.0130   28.0650   39.7080 C   0  0  0  0  0  3  0  0  0  0  0  0
   36.1600   26.8470   39.1090 N   0  0  0  0  0  0  0  0  0  0  0  0
   36.6390   25.8100   39.8610 C   0  0  0  0  0  0  0  0  0  0  0  0
   36.8120   24.5470   39.3330 C   0  0  0  0  0  3  0  0  0  0  0  0
   37.2880   23.5060   40.1020 C   0  0  0  0  0  0  0  0  0  0  0  0
   37.4040   22.5370   39.6370 H   0  0  0  0  0  0  0  0  0  0  0  0
   37.5920   23.7580   41.4280 C   0  0  0  0  0  0  0  0  0  0  0  0
   37.9670   22.9010   42.0090 H   0  0  0  0  0  0  0  0  0  0  0  0
   37.4340   25.0210   42.0080 C   0  0  0  0  0  3  0  0  0  0  0  0
   36.9520   26.0320   41.1830 C   0  0  0  0  0  0  0  0  0  0  0  0
  1  7  1  0  0  0  0
  1  2  1  0  0  0  0
  2  8  1  0  0  0  0
  3  2  2  0  0  0  0
  3 30  1  0  0  0  0
  4  3  1  0  0  0  0
  5  6  1  0  0  0  0
  5  4  2  0  0  0  0
  6  1  2  0  0  0  0
  9  5  1  0  0  0  0
  9 10  1  0  0  0  0
 11  9  1  0  0  0  0
 12  9  1  0  0  0  0
 13 12  1  0  0  0  0
 14 12  1  0  0  0  0
 15 12  1  0  0  0  0
 15 20  1  0  0  0  0
 16 15  2  0  0  0  0
 17 16  1  0  0  0  0
 17 18  2  0  0  0  0
 18 19  1  0  0  0  0
 19 20  2  0  0  0  0
 19 24  1  0  0  0  0
 20 27  1  0  0  0  0
 21 16  1  0  0  0  0
 22 17  1  0  0  0  0
 23 18  1  0  0  0  0
 25 27  1  0  0  0  0
 26 25  2  0  0  0  0
 27 29  1  0  0  0  0
 28 25  1  0  0  0  0
 30 32  1  0  0  0  0
 31 30  1  0  0  0  0
 33 30  1  0  0  0  0
 33 35  1  0  0  0  0
 33 34  1  0  0  0  0
 36 33  1  0  0  0  0
 37 36  2  0  0  0  0
 38 37  1  0  0  0  0
 39 38  2  0  0  0  0
 39 40  1  0  0  0  0
 40 47  1  0  0  0  0
 41 40  2  0  0  0  0
 41 42  1  0  0  0  0
 42 44  2  0  0  0  0
 43 42  1  0  0  0  0
 44 46  1  0  0  0  0
 44 45  1  0  0  0  0
 47 36  1  0  0  0  0
 47 46  2  0  0  0  0
M  END
>  <minimizedAffinity>
-6.48491716

$$$$

 OpenBabel03242511483D

 47 50  0  0  0  0  0  0  0  0999 V2000
   35.8160   29.1460   39.0510 C   0  0  0  0  0  0  0  0  0  0  0  0
   36.3590   30.4540   39.0800 C   0  0  0  0  0  0  0  0  0  0  0  0
   36.8510   30.9040   40.2930 C   0  0  0  0  0  0  0  0  0  0  0  0
   36.7970   30.1050   41.3750 N   0  0  0  0  0  0  0  0  0  0  0  0
   36.2690   28.8670   41.2920 C   0  0  0  0  0  0  0  0  0  0  0  0
   35.7870   28.3850   40.1670 N   0  0  0  0  0  0  0  0  0  0  0  0
   35.4260   28.7800   38.1090 H   0  0  0  0  0  0  0  0  0  0  0  0
   36.3740   31.0540   38.1640 H   0  0  0  0  0  0  0  0  0  0  0  0
   36.2480   28.0530   42.5250 C   0  0  0  0  0  0  0  0  0  0  0  0
   35.6270   28.5020   43.3310 H   0  0  0  0  0  0  0  0  0  0  0  0
   35.8040   27.0800   42.2860 H   0  0  0  0  0  0  0  0  0  0  0  0
   37.6710   27.7970   42.9620 C   0  0  0  0  0  0  0  0  0  0  0  0
   37.7910   28.0140   44.0500 H   0  0  0  0  0  0  0  0  0  0  0  0
   38.3920   28.5050   42.4690 H   0  0  0  0  0  0  0  0  0  0  0  0
   38.0810   26.4270   42.7060 C   0  0  0  0  0  0  0  0  0  0  0  0
   37.4590   25.4500   41.9720 C   0  0  0  0  0  0  0  0  0  0  0  0
   37.9390   24.2010   41.8020 C   0  0  0  0  0  0  0  0  0  0  0  0
   39.1390   23.8760   42.4070 C   0  0  0  0  0  0  0  0  0  0  0  0
   39.7780   24.8420   43.1470 C   0  0  0  0  0  0  0  0  0  0  0  0
   39.2680   26.1120   43.3080 C   0  0  0  0  0  0  0  0  0  0  0  0
   36.5100   25.7700   41.5190 H   0  0  0  0  0  0  0  0  0  0  0  0
   37.3780   23.4950   41.2050 H   0  0  0  0  0  0  0  0  0  0  0  0
   39.4780   22.8510   42.2350 H   0  0  0  0  0  0  0  0  0  0  0  0
   40.7110   24.4210   43.5570 H   0  0  0  0  0  0  0  0  0  0  0  0
   41.1570   27.6120   43.4180 C   0  0  0  0  0  0  0  0  0  0  0  0
   41.4940   27.8620   42.1860 O   0  0  0  0  0  0  0  0  0  0  0  0
   40.1840   26.8440   44.1370 N   0  0  0  0  0  0  0  0  0  0  0  0
   41.9690   28.2720   43.7070 H   0  0  0  0  0  0  0  0  0  0  0  0
   40.3230   26.9580   45.1420 H   0  0  0  0  0  0  0  0  0  0  0  0
   37.4110   32.2700   40.2980 C   0  0  0  0  0  0  0  0  0  0  0  0
   36.7460   32.9560   40.8450 H   0  0  0  0  0  0  0  0  0  0  0  0
   37.4550   32.6370   39.2440 H   0  0  0  0  0  0  0  0  0  0  0  0
   38.7880   32.3160   40.9410 C   0  0  0  0  0  0  0  0  0  0  0  0
   39.3740   31.4190   40.7130 H   0  0  0  0  0  0  0  0  0  0  0  0
   38.7150   32.3910   42.0340 H   0  0  0  0  0  0  0  0  0  0  0  0
   39.4850   33.5100   40.4000 C   0  0  0  0  0  0  0  0  0  0  0  0
   39.0750   34.7190   40.8280 N   0  0  0  0  0  0  0  0  0  0  0  0
   39.6640   35.8490   40.4200 C   0  0  0  0  0  3  0  0  0  0  0  0
   40.7140   35.8460   39.5470 N   0  0  0  0  0  0  0  0  0  0  0  0
   41.1680   34.6420   39.0830 C   0  0  0  0  0  0  0  0  0  0  0  0
   42.2200   34.5540   38.1950 C   0  0  0  0  0  3  0  0  0  0  0  0
   42.6640   33.3350   37.7270 C   0  0  0  0  0  0  0  0  0  0  0  0
   43.4930   33.3240   37.0320 H   0  0  0  0  0  0  0  0  0  0  0  0
   42.0260   32.1920   38.1720 C   0  0  0  0  0  0  0  0  0  0  0  0
   42.4090   31.2380   37.7740 H   0  0  0  0  0  0  0  0  0  0  0  0
   40.9560   32.2300   39.0730 C   0  0  0  0  0  3  0  0  0  0  0  0
   40.5530   33.4880   39.5110 C   0  0  0  0  0  0  0  0  0  0  0  0
  1  2  2  0  0  0  0
  1  6  1  0  0  0  0
  2  3  1  0  0  0  0
  3 30  1  0  0  0  0
  3  4  2  0  0  0  0
  5  4  1  0  0  0  0
  5  9  1  0  0  0  0
  6  5  2  0  0  0  0
  7  1  1  0  0  0  0
  8  2  1  0  0  0  0
  9 12  1  0  0  0  0
  9 10  1  0  0  0  0
 11  9  1  0  0  0  0
 12 13  1  0  0  0  0
 14 12  1  0  0  0  0
 15 12  1  0  0  0  0
 15 20  1  0  0  0  0
 16 15  2  0  0  0  0
 17 16  1  0  0  0  0
 17 18  2  0  0  0  0
 18 19  1  0  0  0  0
 19 20  2  0  0  0  0
 19 24  1  0  0  0  0
 20 27  1  0  0  0  0
 21 16  1  0  0  0  0
 22 17  1  0  0  0  0
 23 18  1  0  0  0  0
 25 28  1  0  0  0  0
 25 27  1  0  0  0  0
 26 25  2  0  0  0  0
 27 29  1  0  0  0  0
 30 31  1  0  0  0  0
 30 33  1  0  0  0  0
 32 30  1  0  0  0  0
 33 35  1  0  0  0  0
 34 33  1  0  0  0  0
 36 37  1  0  0  0  0
 36 33  1  0  0  0  0
 38 37  2  0  0  0  0
 39 38  1  0  0  0  0
 40 47  1  0  0  0  0
 40 39  2  0  0  0  0
 41 40  1  0  0  0  0
 42 44  1  0  0  0  0
 42 41  2  0  0  0  0
 43 42  1  0  0  0  0
 44 46  2  0  0  0  0
 45 44  1  0  0  0  0
 46 47  1  0  0  0  0
 47 36  2  0  0  0  0
M  END
>  <minimizedAffinity>
-6.45687962

$$$$

 OpenBabel03242511483D

 47 50  0  0  0  0  0  0  0  0999 V2000
   35.6050   28.8120   40.6620 C   0  0  0  0  0  0  0  0  0  0  0  0
   35.7970   30.0640   40.0270 C   0  0  0  0  0  0  0  0  0  0  0  0
   36.7780   30.8900   40.5480 C   0  0  0  0  0  0  0  0  0  0  0  0
   37.4990   30.4860   41.6110 N   0  0  0  0  0  0  0  0  0  0  0  0
   37.2750   29.2820   42.1770 C   0  0  0  0  0  0  0  0  0  0  0  0
   36.3560   28.4560   41.7260 N   0  0  0  0  0  0  0  0  0  0  0  0
   34.8390   28.1560   40.2660 H   0  0  0  0  0  0  0  0  0  0  0  0
   35.1770   30.3340   39.1650 H   0  0  0  0  0  0  0  0  0  0  0  0
   38.1080   28.9120   43.3400 C   0  0  0  0  0  0  0  0  0  0  0  0
   39.1640   29.2500   43.2420 H   0  0  0  0  0  0  0  0  0  0  0  0
   37.6970   29.4060   44.2270 H   0  0  0  0  0  0  0  0  0  0  0  0
   37.9940   27.4230   43.5660 C   0  0  0  0  0  0  0  0  0  0  0  0
   37.1890   26.9910   42.9260 H   0  0  0  0  0  0  0  0  0  0  0  0
   37.6570   27.1860   44.6120 H   0  0  0  0  0  0  0  0  0  0  0  0
   39.2410   26.7320   43.2850 C   0  0  0  0  0  0  0  0  0  0  0  0
   40.3640   26.6060   44.0590 C   0  0  0  0  0  0  0  0  0  0  0  0
   41.4740   25.9340   43.6910 C   0  0  0  0  0  0  0  0  0  0  0  0
   41.4860   25.3290   42.4470 C   0  0  0  0  0  0  0  0  0  0  0  0
   40.3690   25.4440   41.6560 C   0  0  0  0  0  0  0  0  0  0  0  0
   39.2450   26.1370   42.0540 C   0  0  0  0  0  0  0  0  0  0  0  0
   40.2930   27.1100   45.0340 H   0  0  0  0  0  0  0  0  0  0  0  0
   42.3160   25.8870   44.3690 H   0  0  0  0  0  0  0  0  0  0  0  0
   42.4100   24.7980   42.2030 H   0  0  0  0  0  0  0  0  0  0  0  0
   40.5440   24.9090   40.7080 H   0  0  0  0  0  0  0  0  0  0  0  0
   37.4170   24.9190   41.0520 C   0  0  0  0  0  0  0  0  0  0  0  0
   37.2170   23.8780   41.8070 O   0  0  0  0  0  0  0  0  0  0  0  0
   38.2870   26.0560   40.9870 N   0  0  0  0  0  0  0  0  0  0  0  0
   36.5950   24.5550   40.4430 H   0  0  0  0  0  0  0  0  0  0  0  0
   38.0620   26.6210   40.1670 H   0  0  0  0  0  0  0  0  0  0  0  0
   36.9580   32.1890   39.8710 C   0  0  0  0  0  0  0  0  0  0  0  0
   36.9950   33.0060   40.6080 H   0  0  0  0  0  0  0  0  0  0  0  0
   36.0650   32.3780   39.2270 H   0  0  0  0  0  0  0  0  0  0  0  0
   38.2330   32.2260   39.0440 C   0  0  0  0  0  0  0  0  0  0  0  0
   38.0310   32.4650   37.9950 H   0  0  0  0  0  0  0  0  0  0  0  0
   38.7510   31.2580   39.0670 H   0  0  0  0  0  0  0  0  0  0  0  0
   39.1050   33.2770   39.6280 C   0  0  0  0  0  0  0  0  0  0  0  0
   38.5430   34.4660   39.9160 N   0  0  0  0  0  0  0  0  0  0  0  0
   39.2420   35.4610   40.4730 C   0  0  0  0  0  3  0  0  0  0  0  0
   40.5660   35.3330   40.7840 N   0  0  0  0  0  0  0  0  0  0  0  0
   41.1830   34.1440   40.5110 C   0  0  0  0  0  0  0  0  0  0  0  0
   42.5180   33.9360   40.7890 C   0  0  0  0  0  3  0  0  0  0  0  0
   43.1340   32.7360   40.5020 C   0  0  0  0  0  0  0  0  0  0  0  0
   44.1830   32.6270   40.7410 H   0  0  0  0  0  0  0  0  0  0  0  0
   42.3750   31.7340   39.9240 C   0  0  0  0  0  0  0  0  0  0  0  0
   42.9030   30.7910   39.7080 H   0  0  0  0  0  0  0  0  0  0  0  0
   41.0180   31.8960   39.6240 C   0  0  0  0  0  3  0  0  0  0  0  0
   40.4520   33.1280   39.9370 C   0  0  0  0  0  0  0  0  0  0  0  0
  1  6  1  0  0  0  0
  2  3  1  0  0  0  0
  2  1  2  0  0  0  0
  3  4  2  0  0  0  0
  4  5  1  0  0  0  0
  5  9  1  0  0  0  0
  6  5  2  0  0  0  0
  7  1  1  0  0  0  0
  8  2  1  0  0  0  0
  9 12  1  0  0  0  0
  9 11  1  0  0  0  0
 10  9  1  0  0  0  0
 12 14  1  0  0  0  0
 13 12  1  0  0  0  0
 15 12  1  0  0  0  0
 15 16  1  0  0  0  0
 16 21  1  0  0  0  0
 17 16  2  0  0  0  0
 17 22  1  0  0  0  0
 18 17  1  0  0  0  0
 19 20  1  0  0  0  0
 19 18  2  0  0  0  0
 20 15  2  0  0  0  0
 23 18  1  0  0  0  0
 24 19  1  0  0  0  0
 25 26  2  0  0  0  0
 27 25  1  0  0  0  0
 27 20  1  0  0  0  0
 28 25  1  0  0  0  0
 29 27  1  0  0  0  0
 30  3  1  0  0  0  0
 30 31  1  0  0  0  0
 32 30  1  0  0  0  0
 33 35  1  0  0  0  0
 33 36  1  0  0  0  0
 33 30  1  0  0  0  0
 34 33  1  0  0  0  0
 36 37  2  0  0  0  0
 36 47  1  0  0  0  0
 37 38  1  0  0  0  0
 38 39  2  0  0  0  0
 40 39  1  0  0  0  0
 40 41  1  0  0  0  0
 42 43  1  0  0  0  0
 42 41  2  0  0  0  0
 44 42  1  0  0  0  0
 45 44  1  0  0  0  0
 46 44  2  0  0  0  0
 46 47  1  0  0  0  0
 47 40  2  0  0  0  0
M  END
>  <minimizedAffinity>
-6.42683744

$$$$

 OpenBabel03242511483D

 47 50  0  0  0  0  0  0  0  0999 V2000
   35.5540   29.5150   40.1830 C   0  0  0  0  0  0  0  0  0  0  0  0
   36.1180   28.9150   41.3360 C   0  0  0  0  0  0  0  0  0  0  0  0
   37.1830   29.5710   41.9290 C   0  0  0  0  0  0  0  0  0  0  0  0
   37.6350   30.7260   41.4030 N   0  0  0  0  0  0  0  0  0  0  0  0
   37.0600   31.2530   40.3030 C   0  0  0  0  0  0  0  0  0  0  0  0
   36.0450   30.6750   39.6980 N   0  0  0  0  0  0  0  0  0  0  0  0
   34.7200   29.0120   39.7080 H   0  0  0  0  0  0  0  0  0  0  0  0
   35.7040   27.9740   41.7140 H   0  0  0  0  0  0  0  0  0  0  0  0
   37.6140   32.5230   39.7900 C   0  0  0  0  0  0  0  0  0  0  0  0
   38.1280   32.4080   38.8100 H   0  0  0  0  0  0  0  0  0  0  0  0
   36.7830   33.2210   39.6330 H   0  0  0  0  0  0  0  0  0  0  0  0
   38.5080   33.1260   40.8480 C   0  0  0  0  0  0  0  0  0  0  0  0
   38.7630   32.3660   41.6240 H   0  0  0  0  0  0  0  0  0  0  0  0
   37.9810   33.9320   41.4280 H   0  0  0  0  0  0  0  0  0  0  0  0
   39.7380   33.6550   40.2840 C   0  0  0  0  0  0  0  0  0  0  0  0
   40.0280   34.9230   39.8530 C   0  0  0  0  0  0  0  0  0  0  0  0
   41.2170   35.3030   39.3420 C   0  0  0  0  0  0  0  0  0  0  0  0
   42.2170   34.3520   39.2440 C   0  0  0  0  0  0  0  0  0  0  0  0
   41.9460   33.0750   39.6710 C   0  0  0  0  0  0  0  0  0  0  0  0
   40.7220   32.7100   40.1890 C   0  0  0  0  0  0  0  0  0  0  0  0
   39.1930   35.6310   39.9560 H   0  0  0  0  0  0  0  0  0  0  0  0
   41.3560   36.3280   39.0260 H   0  0  0  0  0  0  0  0  0  0  0  0
   43.1580   34.7160   38.8230 H   0  0  0  0  0  0  0  0  0  0  0  0
   42.8410   32.4490   39.5230 H   0  0  0  0  0  0  0  0  0  0  0  0
   40.6100   30.4270   39.4120 C   0  0  0  0  0  0  0  0  0  0  0  0
   40.3820   30.4890   38.1330 O   0  0  0  0  0  0  0  0  0  0  0  0
   40.7920   31.3150   40.5220 N   0  0  0  0  0  0  0  0  0  0  0  0
   40.6110   29.3470   39.2950 H   0  0  0  0  0  0  0  0  0  0  0  0
   40.9420   30.7780   41.3780 H   0  0  0  0  0  0  0  0  0  0  0  0
   37.7560   28.9270   43.1270 C   0  0  0  0  0  0  0  0  0  0  0  0
   37.6070   29.5610   44.0140 H   0  0  0  0  0  0  0  0  0  0  0  0
   38.8590   28.8300   42.9820 H   0  0  0  0  0  0  0  0  0  0  0  0
   37.1280   27.5680   43.3950 C   0  0  0  0  0  0  0  0  0  0  0  0
   36.2640   27.3840   42.7480 H   0  0  0  0  0  0  0  0  0  0  0  0
   36.7840   27.4860   44.4340 H   0  0  0  0  0  0  0  0  0  0  0  0
   38.1700   26.5440   43.1280 C   0  0  0  0  0  0  0  0  0  0  0  0
   39.3480   26.6700   43.7670 N   0  0  0  0  0  0  0  0  0  0  0  0
   40.3330   25.7780   43.6130 C   0  0  0  0  0  3  0  0  0  0  0  0
   40.2070   24.6890   42.8000 N   0  0  0  0  0  0  0  0  0  0  0  0
   39.0280   24.5160   42.1280 C   0  0  0  0  0  0  0  0  0  0  0  0
   38.8210   23.4440   41.2840 C   0  0  0  0  0  3  0  0  0  0  0  0
   37.6320   23.2830   40.6050 C   0  0  0  0  0  0  0  0  0  0  0  0
   37.5250   22.4250   39.9550 H   0  0  0  0  0  0  0  0  0  0  0  0
   36.6400   24.2290   40.7900 C   0  0  0  0  0  0  0  0  0  0  0  0
   35.7060   24.0670   40.2290 H   0  0  0  0  0  0  0  0  0  0  0  0
   36.8020   25.3320   41.6360 C   0  0  0  0  0  3  0  0  0  0  0  0
   38.0220   25.4410   42.2960 C   0  0  0  0  0  0  0  0  0  0  0  0
  1  2  1  0  0  0  0
  2  8  1  0  0  0  0
  2  3  2  0  0  0  0
  3 30  1  0  0  0  0
  4  3  1  0  0  0  0
  5  4  2  0  0  0  0
  6  1  2  0  0  0  0
  6  5  1  0  0  0  0
  7  1  1  0  0  0  0
  9  5  1  0  0  0  0
  9 12  1  0  0  0  0
 10  9  1  0  0  0  0
 11  9  1  0  0  0  0
 12 14  1  0  0  0  0
 12 13  1  0  0  0  0
 15 12  1  0  0  0  0
 16 21  1  0  0  0  0
 16 15  2  0  0  0  0
 17 16  1  0  0  0  0
 18 17  2  0  0  0  0
 18 19  1  0  0  0  0
 19 20  2  0  0  0  0
 20 15  1  0  0  0  0
 20 27  1  0  0  0  0
 22 17  1  0  0  0  0
 23 18  1  0  0  0  0
 24 19  1  0  0  0  0
 25 27  1  0  0  0  0
 26 25  2  0  0  0  0
 27 29  1  0  0  0  0
 28 25  1  0  0  0  0
 30 33  1  0  0  0  0
 30 31  1  0  0  0  0
 32 30  1  0  0  0  0
 33 35  1  0  0  0  0
 34 33  1  0  0  0  0
 36 33  1  0  0  0  0
 36 37  1  0  0  0  0
 38 37  2  0  0  0  0
 39 38  1  0  0  0  0
 40 47  1  0  0  0  0
 40 39  2  0  0  0  0
 41 40  1  0  0  0  0
 42 44  1  0  0  0  0
 42 41  2  0  0  0  0
 43 42  1  0  0  0  0
 44 46  2  0  0  0  0
 45 44  1  0  0  0  0
 46 47  1  0  0  0  0
 47 36  2  0  0  0  0
M  END
>  <minimizedAffinity>
-6.37481785

$$$$

 OpenBabel03242511483D

 47 50  0  0  0  0  0  0  0  0999 V2000
   36.6080   31.1460   40.4170 C   0  0  0  0  0  0  0  0  0  0  0  0
   36.9590   30.2950   41.4940 C   0  0  0  0  0  0  0  0  0  0  0  0
   38.2860   30.2940   41.8880 C   0  0  0  0  0  0  0  0  0  0  0  0
   39.1740   31.0800   41.2520 N   0  0  0  0  0  0  0  0  0  0  0  0
   38.7850   31.8720   40.2310 C   0  0  0  0  0  0  0  0  0  0  0  0
   37.5390   31.9150   39.8140 N   0  0  0  0  0  0  0  0  0  0  0  0
   35.5730   31.1570   40.0970 H   0  0  0  0  0  0  0  0  0  0  0  0
   36.1880   29.6790   41.9710 H   0  0  0  0  0  0  0  0  0  0  0  0
   39.8210   32.7050   39.5860 C   0  0  0  0  0  0  0  0  0  0  0  0
   39.7090   33.7890   39.8110 H   0  0  0  0  0  0  0  0  0  0  0  0
   40.7990   32.3990   39.9740 H   0  0  0  0  0  0  0  0  0  0  0  0
   39.8210   32.4180   38.1020 C   0  0  0  0  0  0  0  0  0  0  0  0
   39.8620   33.3680   37.5200 H   0  0  0  0  0  0  0  0  0  0  0  0
   38.8570   31.9440   37.7710 H   0  0  0  0  0  0  0  0  0  0  0  0
   40.9390   31.5770   37.7120 C   0  0  0  0  0  0  0  0  0  0  0  0
   41.1010   30.2220   37.8370 C   0  0  0  0  0  0  0  0  0  0  0  0
   42.1930   29.5420   37.4340 C   0  0  0  0  0  0  0  0  0  0  0  0
   43.2260   30.2550   36.8530 C   0  0  0  0  0  0  0  0  0  0  0  0
   43.0830   31.6150   36.7170 C   0  0  0  0  0  0  0  0  0  0  0  0
   41.9570   32.2890   37.1380 C   0  0  0  0  0  0  0  0  0  0  0  0
   40.2470   29.7130   38.3080 H   0  0  0  0  0  0  0  0  0  0  0  0
   42.2330   28.4700   37.5740 H   0  0  0  0  0  0  0  0  0  0  0  0
   44.0850   29.6530   36.5450 H   0  0  0  0  0  0  0  0  0  0  0  0
   43.9890   32.0250   36.2400 H   0  0  0  0  0  0  0  0  0  0  0  0
   42.8030   34.4210   37.8890 C   0  0  0  0  0  0  0  0  0  0  0  0
   43.2900   34.2200   39.0790 O   0  0  0  0  0  0  0  0  0  0  0  0
   42.1520   33.6810   36.8490 N   0  0  0  0  0  0  0  0  0  0  0  0
   43.1120   35.4550   38.0070 H   0  0  0  0  0  0  0  0  0  0  0  0
   41.9370   34.2980   36.0640 H   0  0  0  0  0  0  0  0  0  0  0  0
   38.6280   29.3980   43.0110 C   0  0  0  0  0  0  0  0  0  0  0  0
   38.6150   29.9510   43.9630 H   0  0  0  0  0  0  0  0  0  0  0  0
   39.6740   29.0340   42.8650 H   0  0  0  0  0  0  0  0  0  0  0  0
   37.6620   28.2290   43.1180 C   0  0  0  0  0  0  0  0  0  0  0  0
   36.9240   28.2350   42.3090 H   0  0  0  0  0  0  0  0  0  0  0  0
   37.1100   28.2530   44.0660 H   0  0  0  0  0  0  0  0  0  0  0  0
   38.4690   26.9850   43.0370 C   0  0  0  0  0  0  0  0  0  0  0  0
   39.5660   26.9010   43.8130 N   0  0  0  0  0  0  0  0  0  0  0  0
   40.3360   25.8070   43.8320 C   0  0  0  0  0  3  0  0  0  0  0  0
   40.0590   24.7110   43.0660 N   0  0  0  0  0  0  0  0  0  0  0  0
   38.9540   24.7470   42.2600 C   0  0  0  0  0  0  0  0  0  0  0  0
   38.6080   23.6830   41.4520 C   0  0  0  0  0  3  0  0  0  0  0  0
   37.4970   23.7330   40.6360 C   0  0  0  0  0  0  0  0  0  0  0  0
   37.2720   22.8710   40.0230 H   0  0  0  0  0  0  0  0  0  0  0  0
   36.7290   24.8830   40.6460 C   0  0  0  0  0  0  0  0  0  0  0  0
   35.8520   24.8850   39.9800 H   0  0  0  0  0  0  0  0  0  0  0  0
   37.0390   25.9870   41.4480 C   0  0  0  0  0  3  0  0  0  0  0  0
   38.1710   25.8790   42.2510 C   0  0  0  0  0  0  0  0  0  0  0  0
  1  2  1  0  0  0  0
  2  3  2  0  0  0  0
  2  8  1  0  0  0  0
  3 30  1  0  0  0  0
  4  3  1  0  0  0  0
  5  4  2  0  0  0  0
  6  5  1  0  0  0  0
  6  1  2  0  0  0  0
  7  1  1  0  0  0  0
  9 10  1  0  0  0  0
  9 11  1  0  0  0  0
  9  5  1  0  0  0  0
 12  9  1  0  0  0  0
 13 12  1  0  0  0  0
 14 12  1  0  0  0  0
 15 16  1  0  0  0  0
 15 12  1  0  0  0  0
 16 21  1  0  0  0  0
 17 22  1  0  0  0  0
 17 16  2  0  0  0  0
 18 17  1  0  0  0  0
 19 18  2  0  0  0  0
 19 20  1  0  0  0  0
 20 15  2  0  0  0  0
 23 18  1  0  0  0  0
 24 19  1  0  0  0  0
 25 28  1  0  0  0  0
 25 26  2  0  0  0  0
 27 20  1  0  0  0  0
 27 25  1  0  0  0  0
 29 27  1  0  0  0  0
 30 33  1  0  0  0  0
 30 31  1  0  0  0  0
 32 30  1  0  0  0  0
 33 35  1  0  0  0  0
 34 33  1  0  0  0  0
 36 33  1  0  0  0  0
 36 37  1  0  0  0  0
 37 38  2  0  0  0  0
 39 38  1  0  0  0  0
 40 39  2  0  0  0  0
 41 40  1  0  0  0  0
 42 44  1  0  0  0  0
 42 41  2  0  0  0  0
 43 42  1  0  0  0  0
 44 46  2  0  0  0  0
 45 44  1  0  0  0  0
 46 47  1  0  0  0  0
 47 40  1  0  0  0  0
 47 36  2  0  0  0  0
M  END
>  <minimizedAffinity>
-6.35763121

$$$$

 OpenBabel03242511483D

 47 50  0  0  0  0  0  0  0  0999 V2000
   37.1800   30.5560   37.5320 C   0  0  0  0  0  0  0  0  0  0  0  0
   36.5990   29.6410   38.4440 C   0  0  0  0  0  0  0  0  0  0  0  0
   36.3210   30.1110   39.7160 C   0  0  0  0  0  0  0  0  0  0  0  0
   36.6040   31.3880   40.0350 N   0  0  0  0  0  0  0  0  0  0  0  0
   37.1580   32.2180   39.1270 C   0  0  0  0  0  0  0  0  0  0  0  0
   37.4440   31.8270   37.9040 N   0  0  0  0  0  0  0  0  0  0  0  0
   37.4040   30.2020   36.5330 H   0  0  0  0  0  0  0  0  0  0  0  0
   36.3920   28.6140   38.1230 H   0  0  0  0  0  0  0  0  0  0  0  0
   37.4370   33.6040   39.5550 C   0  0  0  0  0  0  0  0  0  0  0  0
   37.8360   34.2400   38.7340 H   0  0  0  0  0  0  0  0  0  0  0  0
   36.4950   34.0590   39.8810 H   0  0  0  0  0  0  0  0  0  0  0  0
   38.3530   33.5660   40.7560 C   0  0  0  0  0  0  0  0  0  0  0  0
   38.2390   32.6010   41.3040 H   0  0  0  0  0  0  0  0  0  0  0  0
   38.0680   34.3400   41.5200 H   0  0  0  0  0  0  0  0  0  0  0  0
   39.7470   33.7360   40.3840 C   0  0  0  0  0  0  0  0  0  0  0  0
   40.3240   34.6620   39.5550 C   0  0  0  0  0  0  0  0  0  0  0  0
   41.6430   34.7240   39.2810 C   0  0  0  0  0  0  0  0  0  0  0  0
   42.4760   33.7920   39.8730 C   0  0  0  0  0  0  0  0  0  0  0  0
   41.9160   32.8560   40.7080 C   0  0  0  0  0  0  0  0  0  0  0  0
   40.5640   32.8110   40.9730 C   0  0  0  0  0  0  0  0  0  0  0  0
   39.6100   35.3720   39.1150 H   0  0  0  0  0  0  0  0  0  0  0  0
   42.0100   35.4910   38.6120 H   0  0  0  0  0  0  0  0  0  0  0  0
   43.5340   33.8910   39.6150 H   0  0  0  0  0  0  0  0  0  0  0  0
   42.7120   32.1960   41.0920 H   0  0  0  0  0  0  0  0  0  0  0  0
   40.0020   30.4770   41.2280 C   0  0  0  0  0  0  0  0  0  0  0  0
   39.8230   30.0130   40.0250 O   0  0  0  0  0  0  0  0  0  0  0  0
   40.3360   31.7140   41.8700 N   0  0  0  0  0  0  0  0  0  0  0  0
   39.7820   29.4740   41.5780 H   0  0  0  0  0  0  0  0  0  0  0  0
   40.3500   31.5880   42.8840 H   0  0  0  0  0  0  0  0  0  0  0  0
   35.7170   29.1390   40.6490 C   0  0  0  0  0  0  0  0  0  0  0  0
   35.4400   28.2160   40.1180 H   0  0  0  0  0  0  0  0  0  0  0  0
   34.7700   29.5760   41.0490 H   0  0  0  0  0  0  0  0  0  0  0  0
   36.6640   28.7790   41.7830 C   0  0  0  0  0  0  0  0  0  0  0  0
   36.1650   28.8160   42.7570 H   0  0  0  0  0  0  0  0  0  0  0  0
   37.5160   29.4700   41.8240 H   0  0  0  0  0  0  0  0  0  0  0  0
   37.1470   27.3980   41.5300 C   0  0  0  0  0  0  0  0  0  0  0  0
   36.5750   26.7110   40.5230 N   0  0  0  0  0  0  0  0  0  0  0  0
   36.9670   25.4730   40.2020 C   0  0  0  0  0  3  0  0  0  0  0  0
   37.9670   24.8310   40.8720 N   0  0  0  0  0  0  0  0  0  0  0  0
   38.5800   25.4870   41.9040 C   0  0  0  0  0  0  0  0  0  0  0  0
   39.5960   24.9060   42.6360 C   0  0  0  0  0  3  0  0  0  0  0  0
   40.2020   25.5720   43.6800 C   0  0  0  0  0  0  0  0  0  0  0  0
   40.9920   25.0690   44.2190 H   0  0  0  0  0  0  0  0  0  0  0  0
   39.7650   26.8500   43.9810 C   0  0  0  0  0  0  0  0  0  0  0  0
   40.2720   27.3480   44.8220 H   0  0  0  0  0  0  0  0  0  0  0  0
   38.7400   27.4820   43.2680 C   0  0  0  0  0  3  0  0  0  0  0  0
   38.1670   26.7600   42.2250 C   0  0  0  0  0  0  0  0  0  0  0  0
  1  6  2  0  0  0  0
  1  2  1  0  0  0  0
  2  3  2  0  0  0  0
  3  4  1  0  0  0  0
  3 30  1  0  0  0  0
  5  9  1  0  0  0  0
  5  4  2  0  0  0  0
  6  5  1  0  0  0  0
  7  1  1  0  0  0  0
  8  2  1  0  0  0  0
  9 11  1  0  0  0  0
  9 12  1  0  0  0  0
 10  9  1  0  0  0  0
 12 13  1  0  0  0  0
 12 14  1  0  0  0  0
 15 12  1  0  0  0  0
 15 20  1  0  0  0  0
 16 15  2  0  0  0  0
 17 16  1  0  0  0  0
 17 18  2  0  0  0  0
 18 19  1  0  0  0  0
 19 20  2  0  0  0  0
 19 24  1  0  0  0  0
 20 27  1  0  0  0  0
 21 16  1  0  0  0  0
 22 17  1  0  0  0  0
 23 18  1  0  0  0  0
 25 28  1  0  0  0  0
 25 27  1  0  0  0  0
 26 25  2  0  0  0  0
 27 29  1  0  0  0  0
 30 32  1  0  0  0  0
 30 33  1  0  0  0  0
 31 30  1  0  0  0  0
 33 35  1  0  0  0  0
 33 34  1  0  0  0  0
 36 33  1  0  0  0  0
 36 47  1  0  0  0  0
 37 36  2  0  0  0  0
 38 37  1  0  0  0  0
 38 39  2  0  0  0  0
 39 40  1  0  0  0  0
 40 47  2  0  0  0  0
 40 41  1  0  0  0  0
 41 42  2  0  0  0  0
 42 44  1  0  0  0  0
 42 43  1  0  0  0  0
 44 45  1  0  0  0  0
 46 44  2  0  0  0  0
 47 46  1  0  0  0  0
M  END
>  <minimizedAffinity>
-6.33125877

$$$$
