
     RDKit          3D

 43 46  0  0  0  0  0  0  0  0999 V2000
   45.1384   36.0049   43.0585 C   0  0  0  0  0  0  0  0  0  0  0  0
   44.1411   35.8006   42.0879 C   0  0  0  0  0  0  0  0  0  0  0  0
   44.3740   34.8100   41.1246 C   0  0  0  0  0  0  0  0  0  0  0  0
   45.5344   34.1041   41.1724 N   0  0  0  0  0  0  0  0  0  0  0  0
   46.4641   34.3401   42.1295 C   0  0  0  0  0  0  0  0  0  0  0  0
   46.2588   35.2818   43.0572 N   0  0  0  0  0  0  0  0  0  0  0  0
   48.9597   35.8032   41.2422 Cl  0  0  0  0  0  0  0  0  0  0  0  0
   48.8689   34.1387   41.7097 C   0  0  0  0  0  0  0  0  0  0  0  0
   47.6993   33.5237   42.1052 C   0  0  0  0  0  0  0  0  0  0  0  0
   47.5924   32.2081   42.4800 C   0  0  0  0  0  0  0  0  0  0  0  0
   48.7535   31.4832   42.4467 C   0  0  0  0  0  0  0  0  0  0  0  0
   49.9763   31.9724   42.0747 C   0  0  0  0  0  0  0  0  0  0  0  0
   49.9883   33.3213   41.7095 C   0  0  0  0  0  0  0  0  0  0  0  0
   44.9107   37.0402   44.0769 C   0  0  0  0  0  0  0  0  0  0  0  0
   45.4666   38.2074   43.9222 C   0  0  0  0  0  0  0  0  0  0  0  0
   45.2612   39.2811   44.9229 C   0  0  0  0  0  0  0  0  0  0  0  0
   44.7702   40.4631   44.2468 N   0  0  0  0  0  0  0  0  0  0  0  0
   43.2327   36.3473   42.0438 H   0  0  0  0  0  0  0  0  0  0  0  0
   43.6522   34.5955   40.3461 H   0  0  0  0  0  0  0  0  0  0  0  0
   46.6558   31.7663   42.7827 H   0  0  0  0  0  0  0  0  0  0  0  0
   48.7537   30.4207   42.7322 H   0  0  0  0  0  0  0  0  0  0  0  0
   50.8630   31.3723   42.0618 H   0  0  0  0  0  0  0  0  0  0  0  0
   50.9312   33.7509   41.4086 H   0  0  0  0  0  0  0  0  0  0  0  0
   44.2994   36.8852   44.9589 H   0  0  0  0  0  0  0  0  0  0  0  0
   46.0798   38.4292   43.0795 H   0  0  0  0  0  0  0  0  0  0  0  0
   44.6316   38.9596   45.7751 H   0  0  0  0  0  0  0  0  0  0  0  0
   46.2880   39.5440   45.3127 H   0  0  0  0  0  0  0  0  0  0  0  0
   44.6315   40.4211   43.2232 H   0  0  0  0  0  0  0  0  0  0  0  0
   44.5140   41.6036   45.0572 C   0  0  0  0  0  0  0  0  0  0  0  0
   43.7899   42.6417   44.6137 N   0  0  0  0  0  0  0  0  0  0  0  0
   43.5016   43.7421   45.3038 C   0  0  0  0  0  0  0  0  0  0  0  0
   43.9639   43.8408   46.5481 N   0  0  0  0  0  0  0  0  0  0  0  0
   44.7110   42.8506   47.1076 C   0  0  0  0  0  0  0  0  0  0  0  0
   45.1573   43.0222   48.4020 C   0  0  0  0  0  0  0  0  0  0  0  0
   45.9072   41.9790   48.8994 C   0  0  0  0  0  0  0  0  0  0  0  0
   46.2763   42.0808   49.9194 H   0  0  0  0  0  0  0  0  0  0  0  0
   46.2218   40.8315   48.2133 C   0  0  0  0  0  0  0  0  0  0  0  0
   46.8185   40.0359   48.6528 H   0  0  0  0  0  0  0  0  0  0  0  0
   45.7334   40.7406   46.9185 C   0  0  0  0  0  0  0  0  0  0  0  0
   44.9791   41.7335   46.3470 C   0  0  0  0  0  0  0  0  0  0  0  0
   42.9127   44.5403   44.8852 H   0  0  0  0  0  0  0  0  0  0  0  0
   44.9200   43.9178   48.9579 H   0  0  0  0  0  0  0  0  0  0  0  0
   45.9823   39.8442   46.3895 H   0  0  0  0  0  0  0  0  0  0  0  0
  1  6  1  0
  1 14  1  0
  2  1  2  0
  3  4  2  0
  3  2  1  0
  4  5  1  0
  5  6  2  0
  7  8  1  0
  8 13  2  0
  8  9  1  0
  9  5  1  0
  9 10  2  0
 11 10  1  0
 12 11  2  0
 13 12  1  0
 15 14  2  0
 15 16  1  0
 17 16  1  0
  2 18  1  0
  3 19  1  0
 10 20  1  0
 11 21  1  0
 12 22  1  0
 13 23  1  0
 14 24  1  0
 15 25  1  0
 16 26  1  0
 16 27  1  0
 17 28  1  0
 29 30  2  0
 30 31  1  0
 31 32  2  0
 32 33  1  0
 33 34  2  0
 34 35  1  0
 35 36  1  0
 35 37  2  0
 37 38  1  0
 37 39  1  0
 39 40  2  0
 40 29  1  0
 40 33  1  0
 31 41  1  0
 34 42  1  0
 39 43  1  0
 17 29  1  0
M  ISO  8  18  14  19  14  20  14  21  14  22  14  23  14  26   8  27   8
M  ISO  3  28   5  36  16  38  16
M  END
>  <DihAtoms>  (1) 
15,16,28,29

>  <DihDeg>  (1) 
0.09901066489097797

$$$$
