REMARK  Name = 
REMARK  3 active torsions:
REMARK  status: ('A' for Active; 'I' for Inactive)
REMARK    1  A    between atoms: C_2  and  C_13
REMARK    2  A    between atoms: C_5  and  C_7
REMARK    3  A    between atoms: C_13  and  C_20
REMARK                            x       y       z     vdW  Elec       q    Type
REMARK                         _______ _______ _______ _____ _____    ______ ____
ROOT
ATOM      1  C   UNL     1      44.565  35.423  45.142  0.00  0.00    +0.000 A 
ATOM      2  C   UNL     1      45.250  35.267  43.916  0.00  0.00    +0.000 A 
ATOM      3  C   UNL     1      46.197  34.243  43.775  0.00  0.00    +0.000 A 
ATOM      4  N   UNL     1      46.410  33.434  44.861  0.00  0.00    +0.000 NA
ATOM      5  C   UNL     1      45.742  33.609  46.018  0.00  0.00    +0.000 A 
ATOM      6  N   UNL     1      44.835  34.587  46.154  0.00  0.00    +0.000 NA
ATOM      7  H   UNL     1      43.830  36.187  45.307  0.00  0.00    +0.000 HD
ATOM      8  H   UNL     1      46.718  34.124  42.838  0.00  0.00    +0.000 HD
ENDROOT
BRANCH   5   9
ATOM      9  C   UNL     1      46.015  32.723  47.144  0.00  0.00    +0.000 A 
ATOM     10  C   UNL     1      47.260  32.272  47.450  0.00  0.00    +0.000 A 
ATOM     11  C   UNL     1      47.565  31.442  48.493  0.00  0.00    +0.000 A 
ATOM     12  N   UNL     1      46.521  31.067  49.253  0.00  0.00    +0.000 NA
ATOM     13  C   UNL     1      45.289  31.508  48.958  0.00  0.00    +0.000 A 
ATOM     14  N   UNL     1      44.972  32.331  47.928  0.00  0.00    +0.000 NA
ATOM     15  H   UNL     1      48.083  32.611  46.792  0.00  0.00    +0.000 HD
ATOM     16  H   UNL     1      48.575  31.124  48.676  0.00  0.00    +0.000 HD
ATOM     17  H   UNL     1      44.436  31.195  49.589  0.00  0.00    +0.000 HD
ENDBRANCH   5   9
BRANCH   2  18
ATOM     18  C   UNL     1      44.949  36.213  42.867  0.00  0.00    +0.000 C 
ATOM     19  O   UNL     1      44.138  35.781  41.973  0.00  0.00    +0.000 OA
BRANCH  18  20
ATOM     20  C   UNL     1      45.311  37.575  42.512  0.00  0.00    +0.000 A 
ATOM     21  N   UNL     1      44.871  38.025  41.325  0.00  0.00    +0.000 NA
ATOM     22  C   UNL     1      45.155  39.298  40.895  0.00  0.00    +0.000 A 
ATOM     23  N   UNL     1      45.880  40.156  41.624  0.00  0.00    +0.000 NA
ATOM     24  C   UNL     1      46.351  39.769  42.819  0.00  0.00    +0.000 A 
ATOM     25  C   UNL     1      47.108  40.607  43.610  0.00  0.00    +0.000 A 
ATOM     26  C   UNL     1      47.604  40.202  44.851  0.00  0.00    +0.000 A 
ATOM     27  H   UNL     1      48.187  40.921  45.404  0.00  0.00    +0.000 HD
ATOM     28  C   UNL     1      47.293  38.910  45.244  0.00  0.00    +0.000 A 
ATOM     29  H   UNL     1      47.701  38.639  46.215  0.00  0.00    +0.000 HD
ATOM     30  C   UNL     1      46.538  38.112  44.425  0.00  0.00    +0.000 A 
ATOM     31  C   UNL     1      46.047  38.492  43.216  0.00  0.00    +0.000 A 
ENDBRANCH  18  20
ENDBRANCH   2  18
TORSDOF 3
