
     RDKit          3D

 53 57  0  0  0  0  0  0  0  0999 V2000
   43.2014   33.2271   41.1570 C   0  0  0  0  0  0  0  0  0  0  0  0
   44.2301   34.0762   41.7843 C   0  0  0  0  0  0  0  0  0  0  0  0
   43.8792   35.2571   42.4006 C   0  0  0  0  0  0  0  0  0  0  0  0
   44.8870   36.0263   42.9636 C   0  0  0  0  0  0  0  0  0  0  0  0
   46.1727   35.5738   42.8806 N   0  0  0  0  0  0  0  0  0  0  0  0
   46.4736   34.4266   42.2793 C   0  0  0  0  0  0  0  0  0  0  0  0
   45.4877   33.7008   41.7410 N   0  0  0  0  0  0  0  0  0  0  0  0
   47.8747   34.0056   42.2620 C   0  0  0  0  0  0  0  0  0  0  0  0
   48.2124   32.6792   42.0122 C   0  0  0  0  0  0  0  0  0  0  0  0
   49.5280   32.2955   42.0033 C   0  0  0  0  0  0  0  0  0  0  0  0
   50.4186   33.3044   42.2532 C   0  0  0  0  0  0  0  0  0  0  0  0
   50.1444   34.6513   42.5107 C   0  0  0  0  0  0  0  0  0  0  0  0
   48.8178   34.9402   42.4996 N   0  0  0  0  0  0  0  0  0  0  0  0
   41.9035   33.9533   41.2083 C   0  0  0  0  0  0  0  0  0  0  0  0
   41.0011   33.5015   40.3367 N   0  0  0  0  0  0  0  0  0  0  0  0
   40.3237   32.2493   40.3407 C   0  0  0  0  0  0  0  0  0  0  0  0
   38.9479   32.7264   40.8045 C   0  0  0  0  0  0  0  0  0  0  0  0
   38.3296   33.6955   39.9166 C   0  0  0  0  0  0  0  0  0  0  0  0
   39.1684   34.5001   39.0543 C   0  0  0  0  0  0  0  0  0  0  0  0
   40.6650   34.4514   39.2493 C   0  0  0  0  0  0  0  0  0  0  0  0
   41.7751   35.4175   38.3371 S   0  0  0  0  0  0  0  0  0  0  0  0
   43.1514   32.2244   41.6654 H   0  0  0  0  0  0  0  0  0  0  0  0
   43.5467   33.0117   40.1231 H   0  0  0  0  0  0  0  0  0  0  0  0
   42.9468   35.7634   42.5803 H   0  0  0  0  0  0  0  0  0  0  0  0
   44.8023   36.9792   43.4849 H   0  0  0  0  0  0  0  0  0  0  0  0
   47.4461   31.9266   41.8206 H   0  0  0  0  0  0  0  0  0  0  0  0
   49.8888   31.2974   41.8208 H   0  0  0  0  0  0  0  0  0  0  0  0
   51.4918   33.0566   42.2592 H   0  0  0  0  0  0  0  0  0  0  0  0
   50.9129   35.3583   42.6935 H   0  0  0  0  0  0  0  0  0  0  0  0
   42.1937   35.0478   41.0464 H   0  0  0  0  0  0  0  0  0  0  0  0
   41.5483   33.9366   42.2613 H   0  0  0  0  0  0  0  0  0  0  0  0
   40.3131   31.6517   39.4439 H   0  0  0  0  0  0  0  0  0  0  0  0
   40.7246   31.6813   41.2317 H   0  0  0  0  0  0  0  0  0  0  0  0
   38.2963   31.8492   40.9962 H   0  0  0  0  0  0  0  0  0  0  0  0
   39.1426   33.1837   41.8116 H   0  0  0  0  0  0  0  0  0  0  0  0
   37.5772   33.1844   39.2641 H   0  0  0  0  0  0  0  0  0  0  0  0
   37.7005   34.4008   40.5329 H   0  0  0  0  0  0  0  0  0  0  0  0
   38.8435   35.1514   38.2953 H   0  0  0  0  0  0  0  0  0  0  0  0
   40.9969   36.4258   37.1413 C   0  0  0  0  0  0  0  0  0  0  0  0
   40.4421   36.1970   35.9562 N   0  0  0  0  0  0  0  0  0  0  0  0
   39.8865   37.0978   35.1660 C   0  0  0  0  0  0  0  0  0  0  0  0
   39.8484   38.3765   35.5386 N   0  0  0  0  0  0  0  0  0  0  0  0
   40.3814   38.7348   36.7255 C   0  0  0  0  0  0  0  0  0  0  0  0
   40.2945   40.0717   37.0215 C   0  0  0  0  0  0  0  0  0  0  0  0
   40.8169   40.5035   38.2130 C   0  0  0  0  0  0  0  0  0  0  0  0
   40.8079   41.5252   38.5535 H   0  0  0  0  0  0  0  0  0  0  0  0
   41.3980   39.6068   39.0556 C   0  0  0  0  0  0  0  0  0  0  0  0
   41.8269   39.8912   40.0093 H   0  0  0  0  0  0  0  0  0  0  0  0
   41.4616   38.2757   38.7152 C   0  0  0  0  0  0  0  0  0  0  0  0
   40.9563   37.7626   37.5292 C   0  0  0  0  0  0  0  0  0  0  0  0
   39.4986   36.6972   34.2531 H   0  0  0  0  0  0  0  0  0  0  0  0
   39.8338   40.7820   36.3532 H   0  0  0  0  0  0  0  0  0  0  0  0
   41.9277   37.5697   39.3957 H   0  0  0  0  0  0  0  0  0  0  0  0
  1 14  1  0
  1  2  1  0
  2  3  2  0
  3  4  1  0
  5  4  2  0
  6  5  1  0
  7  2  1  0
  7  6  2  0
  8  6  1  0
  8 13  1  0
  9  8  2  0
 10  9  1  0
 10 11  2  0
 11 12  1  0
 13 12  2  0
 15 14  1  0
 16 15  1  0
 16 17  1  0
 18 17  1  0
 19 20  2  0
 19 18  1  0
 20 15  1  0
 21 20  1  0
  1 22  1  0
  1 23  1  0
  3 24  1  0
  4 25  1  0
  9 26  1  0
 10 27  1  0
 11 28  1  0
 12 29  1  0
 14 30  1  0
 14 31  1  0
 16 32  1  0
 16 33  1  0
 17 34  1  0
 17 35  1  0
 18 36  1  0
 18 37  1  0
 19 38  1  0
 39 40  2  0
 40 41  1  0
 41 42  2  0
 42 43  1  0
 43 44  2  0
 44 45  1  0
 45 46  1  0
 45 47  2  0
 47 48  1  0
 47 49  1  0
 49 50  2  0
 50 39  1  0
 50 43  1  0
 41 51  1  0
 44 52  1  0
 49 53  1  0
 21 39  1  0
M  ISO  8  22   8  23   8  24  14  25  14  26  14  27  14  28  14  29  14
M  ISO  8  30   8  31   8  32  13  33  13  34  13  35  13  36  13  37  13
M  ISO  3  38  13  46  16  48  16
M  END
>  <DihAtoms>  (1) 
19,20,38,39

>  <DihDeg>  (1) 
0.040205454011047095

$$$$
