
 OpenBabel03252506353D

 36 39  0  0  1  0  0  0  0  0999 V2000
   44.4580   35.7290   44.9770 C   0  0  0  0  0  0  0  0  0  0  0  0
   45.1340   35.7170   43.7460 C   0  0  0  0  0  0  0  0  0  0  0  0
   46.0720   34.7550   43.5160 C   0  0  0  0  0  0  0  0  0  0  0  0
   46.2810   33.8660   44.5180 N   0  0  0  0  0  0  0  0  0  0  0  0
   45.6410   33.8830   45.6760 C   0  0  0  0  0  0  0  0  0  0  0  0
   44.7110   34.8110   45.9460 N   0  0  0  0  0  0  0  0  0  0  0  0
   45.9660   32.8870   46.6280 N   0  0  0  0  0  0  0  0  0  0  0  0
   45.1460   32.5740   47.8080 C   0  0  0  0  0  0  0  0  0  0  0  0
   46.1970   32.2930   48.8570 C   0  0  0  0  0  0  0  0  0  0  0  0
   47.5120   32.1910   48.1350 C   0  0  0  0  0  0  0  0  0  0  0  0
   47.0770   31.9860   46.7090 C   0  0  1  0  0  0  0  0  0  0  0  0
   43.6850   36.4570   45.2700 H   0  0  0  0  0  0  0  0  0  0  0  0
   46.5560   34.7820   42.5750 H   0  0  0  0  0  0  0  0  0  0  0  0
   44.4440   31.7530   47.6340 H   0  0  0  0  0  0  0  0  0  0  0  0
   44.6400   33.5220   48.1200 H   0  0  0  0  0  0  0  0  0  0  0  0
   45.9770   31.2650   49.2460 H   0  0  0  0  0  0  0  0  0  0  0  0
   46.1990   33.0200   49.6740 H   0  0  0  0  0  0  0  0  0  0  0  0
   48.1820   31.3970   48.5050 H   0  0  0  0  0  0  0  0  0  0  0  0
   47.9850   33.2090   48.1760 H   0  0  0  0  0  0  0  0  0  0  0  0
   47.8310   32.3480   45.9770 H   0  0  0  0  0  0  0  0  0  0  0  0
   44.7360   36.7660   42.8410 N   0  0  0  0  0  0  0  0  0  0  0  0
   43.7950   36.8020   42.3650 H   0  0  0  0  0  0  0  0  0  0  0  0
   45.4610   37.4890   42.6990 H   0  0  0  0  0  0  0  0  0  0  0  0
   46.6230   30.2710   46.4640 S   0  0  0  0  0  0  0  0  0  0  0  0
   47.6050   29.4010   45.2880 C   0  0  0  0  0  0  0  0  0  0  0  0
   48.6690   28.5670   45.4970 N   0  0  0  0  0  0  0  0  0  0  0  0
   49.2840   28.0160   44.4400 C   0  0  0  0  0  3  0  0  0  0  0  0
   48.9360   28.2180   43.1560 N   0  0  0  0  0  0  0  0  0  0  0  0
   47.8870   29.0370   42.9040 C   0  0  0  0  0  0  0  0  0  0  0  0
   47.5970   29.1950   41.5680 C   0  0  0  0  0  3  0  0  0  0  0  0
   46.5210   30.0380   41.2630 C   0  0  0  0  0  0  0  0  0  0  0  0
   46.2290   30.2160   40.2410 H   0  0  0  0  0  0  0  0  0  0  0  0
   45.8290   30.6470   42.2770 C   0  0  0  0  0  0  0  0  0  0  0  0
   44.9940   31.3030   42.0630 H   0  0  0  0  0  0  0  0  0  0  0  0
   46.1840   30.4370   43.5920 C   0  0  0  0  0  3  0  0  0  0  0  0
   47.2380   29.6140   43.9740 C   0  0  0  0  0  0  0  0  0  0  0  0
  1 12  1  0  0  0  0
  1  6  1  0  0  0  0
  2  1  2  0  0  0  0
  3  2  1  0  0  0  0
  3  4  2  0  0  0  0
  4  5  1  0  0  0  0
  5  6  2  0  0  0  0
  5  7  1  0  0  0  0
  7 11  1  0  0  0  0
  7  8  1  0  0  0  0
  8 15  1  0  0  0  0
  8  9  1  0  0  0  0
  9 16  1  0  0  0  0
  9 17  1  0  0  0  0
 10 19  1  0  0  0  0
 10 18  1  0  0  0  0
 10  9  1  0  0  0  0
 11 20  1  6  0  0  0
 11 10  1  0  0  0  0
 13  3  1  0  0  0  0
 14  8  1  0  0  0  0
 21  2  1  0  0  0  0
 22 21  1  0  0  0  0
 23 21  1  0  0  0  0
 24 11  1  0  0  0  0
 25 26  1  0  0  0  0
 25 24  1  0  0  0  0
 27 26  2  0  0  0  0
 28 27  1  0  0  0  0
 29 28  2  0  0  0  0
 29 36  1  0  0  0  0
 30 29  1  0  0  0  0
 31 30  2  0  0  0  0
 31 33  1  0  0  0  0
 32 31  1  0  0  0  0
 33 35  2  0  0  0  0
 34 33  1  0  0  0  0
 35 36  1  0  0  0  0
 36 25  2  0  0  0  0
M  END
>  <minimizedAffinity>
-4.97767067

>  <minimizedRMSD>
2.28909874

$$$$
