
 OpenBabel03252501323D

 27 29  0  0  0  0  0  0  0  0999 V2000
   44.0430   34.7200   42.0260 C   0  0  0  0  0  0  0  0  0  0  0  0
   43.7440   33.6030   42.6160 O   0  0  0  0  0  0  0  0  0  0  0  0
   45.2120   35.3140   42.5320 N   0  0  0  0  0  0  0  0  0  0  0  0
   45.2570   36.1200   41.9390 H   0  0  0  0  0  0  0  0  0  0  0  0
   42.8930   34.6010   41.1820 C   0  0  0  0  0  0  0  0  0  0  0  0
   41.9950   35.4370   41.7310 N   0  0  0  0  0  0  0  0  0  0  0  0
   40.7530   35.5880   41.1830 C   0  0  0  0  0  3  0  0  0  0  0  0
   40.4960   34.8690   40.0930 N   0  0  0  0  0  0  0  0  0  0  0  0
   41.3570   34.0270   39.5140 C   0  0  0  0  0  0  0  0  0  0  0  0
   41.0990   33.2730   38.3760 C   0  0  0  0  0  3  0  0  0  0  0  0
   42.0790   32.4190   37.8550 C   0  0  0  0  0  0  0  0  0  0  0  0
   41.8250   31.8500   36.9620 H   0  0  0  0  0  0  0  0  0  0  0  0
   43.3200   32.3410   38.4980 C   0  0  0  0  0  0  0  0  0  0  0  0
   43.9840   31.6500   37.9970 H   0  0  0  0  0  0  0  0  0  0  0  0
   43.5980   33.0800   39.6260 C   0  0  0  0  0  3  0  0  0  0  0  0
   42.5910   33.8880   40.0740 C   0  0  0  0  0  0  0  0  0  0  0  0
   45.7240   34.5030   43.5930 C   0  0  0  0  0  0  0  0  0  0  0  0
   45.2840   34.5150   44.9240 C   0  0  0  0  0  0  0  0  0  0  0  0
   45.9180   33.6560   45.7990 C   0  0  0  0  0  0  0  0  0  0  0  0
   46.8990   32.8770   45.3240 N   0  0  0  0  0  0  0  0  0  0  0  0
   47.3160   32.8720   44.0420 C   0  0  0  0  0  0  0  0  0  0  0  0
   46.7260   33.6940   43.1590 N   0  0  0  0  0  0  0  0  0  0  0  0
   45.5670   33.6780   46.8210 H   0  0  0  0  0  0  0  0  0  0  0  0
   48.1070   32.2350   43.6910 H   0  0  0  0  0  0  0  0  0  0  0  0
   44.2320   35.4120   45.2210 N   0  0  0  0  0  0  0  0  0  0  0  0
   44.1840   36.4570   45.1520 H   0  0  0  0  0  0  0  0  0  0  0  0
   43.4460   34.8220   45.5450 H   0  0  0  0  0  0  0  0  0  0  0  0
  1  3  1  0  0  0  0
  1  2  2  0  0  0  0
  3 17  1  0  0  0  0
  4  3  1  0  0  0  0
  5  6  1  0  0  0  0
  5  1  1  0  0  0  0
  7  6  2  0  0  0  0
  8  7  1  0  0  0  0
  9 16  1  0  0  0  0
  9  8  2  0  0  0  0
 10  9  1  0  0  0  0
 11 10  2  0  0  0  0
 11 13  1  0  0  0  0
 12 11  1  0  0  0  0
 13 15  2  0  0  0  0
 14 13  1  0  0  0  0
 15 16  1  0  0  0  0
 16  5  2  0  0  0  0
 17 18  1  0  0  0  0
 18 25  1  0  0  0  0
 18 19  2  0  0  0  0
 19 23  1  0  0  0  0
 20 19  1  0  0  0  0
 21 20  2  0  0  0  0
 22 17  2  0  0  0  0
 22 21  1  0  0  0  0
 24 21  1  0  0  0  0
 25 27  1  0  0  0  0
 26 25  1  0  0  0  0
M  END
>  <minimizedAffinity>
-5.27555847

>  <minimizedRMSD>
1.7502265

$$$$
