
 OpenBabel03252506383D

 47 51  0  0  1  0  0  0  0  0999 V2000
   46.6830   30.0120   46.5450 S   0  0  0  0  0  0  0  0  0  0  0  0
   45.4900   30.5400   43.4720 O   0  0  0  0  0  0  0  0  0  0  0  0
   44.9170   29.9760   44.4180 C   0  0  0  0  0  0  0  0  0  0  0  0
   45.1020   29.7270   45.8700 C   0  0  1  0  0  0  0  0  0  0  0  0
   44.5890   28.3150   46.0130 C   0  0  0  0  0  0  0  0  0  0  0  0
   43.2320   28.5250   45.3370 C   0  0  0  0  0  0  0  0  0  0  0  0
   43.6680   29.3070   44.1870 N   0  0  0  0  0  0  0  0  0  0  0  0
   44.2310   30.3220   46.2640 H   0  0  0  0  0  0  0  0  0  0  0  0
   44.3940   28.0220   47.0580 H   0  0  0  0  0  0  0  0  0  0  0  0
   45.2070   27.6000   45.4650 H   0  0  0  0  0  0  0  0  0  0  0  0
   42.6210   29.1750   45.9940 H   0  0  0  0  0  0  0  0  0  0  0  0
   42.7550   27.5760   45.0680 H   0  0  0  0  0  0  0  0  0  0  0  0
   42.8200   29.3020   43.0200 C   0  0  0  0  0  0  0  0  0  0  0  0
   41.8600   30.2480   42.9270 N   0  0  0  0  0  0  0  0  0  0  0  0
   41.0150   30.3170   41.8580 C   0  0  0  0  0  3  0  0  0  0  0  0
   41.1080   29.4400   40.8540 N   0  0  0  0  0  0  0  0  0  0  0  0
   42.0560   28.4840   40.9190 C   0  0  0  0  0  0  0  0  0  0  0  0
   42.1830   27.5620   39.9000 C   0  0  0  0  0  3  0  0  0  0  0  0
   43.1490   26.5650   39.9380 C   0  0  0  0  0  0  0  0  0  0  0  0
   43.2340   25.8500   39.1310 H   0  0  0  0  0  0  0  0  0  0  0  0
   43.9930   26.5270   41.0430 C   0  0  0  0  0  0  0  0  0  0  0  0
   44.7320   25.7380   41.0370 H   0  0  0  0  0  0  0  0  0  0  0  0
   43.9090   27.4320   42.0970 C   0  0  0  0  0  3  0  0  0  0  0  0
   42.9250   28.3900   41.9860 C   0  0  0  0  0  0  0  0  0  0  0  0
   44.5210   35.4870   45.1510 C   0  0  0  0  0  0  0  0  0  0  0  0
   45.1840   35.4860   43.8980 C   0  0  0  0  0  0  0  0  0  0  0  0
   46.1100   34.5300   43.6390 C   0  0  0  0  0  0  0  0  0  0  0  0
   46.3470   33.6190   44.6160 N   0  0  0  0  0  0  0  0  0  0  0  0
   45.7240   33.6250   45.7850 C   0  0  0  0  0  0  0  0  0  0  0  0
   44.8090   34.5520   46.0680 N   0  0  0  0  0  0  0  0  0  0  0  0
   46.0600   32.6110   46.7480 N   0  0  0  0  0  0  0  0  0  0  0  0
   45.3260   32.3510   47.9300 C   0  0  0  0  0  0  0  0  0  0  0  0
   46.4030   32.0120   48.9430 C   0  0  0  0  0  0  0  0  0  0  0  0
   47.6840   31.9120   48.1710 C   0  0  0  0  0  0  0  0  0  0  0  0
   47.1850   31.7080   46.7430 C   0  0  1  0  0  0  0  0  0  0  0  0
   43.7820   36.2510   45.3530 H   0  0  0  0  0  0  0  0  0  0  0  0
   46.6130   34.5200   42.7040 H   0  0  0  0  0  0  0  0  0  0  0  0
   44.9290   33.3530   48.2870 H   0  0  0  0  0  0  0  0  0  0  0  0
   44.5420   31.6740   48.0300 H   0  0  0  0  0  0  0  0  0  0  0  0
   46.2000   31.0060   49.4070 H   0  0  0  0  0  0  0  0  0  0  0  0
   46.4800   32.7160   49.7700 H   0  0  0  0  0  0  0  0  0  0  0  0
   48.2690   31.0450   48.5120 H   0  0  0  0  0  0  0  0  0  0  0  0
   48.2860   32.8400   48.2340 H   0  0  0  0  0  0  0  0  0  0  0  0
   47.9780   31.9990   46.0520 H   0  0  0  0  0  0  0  0  0  0  0  0
   44.8210   36.5210   42.9680 N   0  0  0  0  0  0  0  0  0  0  0  0
   45.5510   36.8870   42.2970 H   0  0  0  0  0  0  0  0  0  0  0  0
   43.8470   36.8700   42.9940 H   0  0  0  0  0  0  0  0  0  0  0  0
  1 35  1  0  0  0  0
  2  3  2  0  0  0  0
  3  4  1  0  0  0  0
  4  5  1  0  0  0  0
  4  8  1  1  0  0  0
  4  1  1  0  0  0  0
  5  9  1  0  0  0  0
  6 11  1  0  0  0  0
  6  5  1  0  0  0  0
  7  3  1  0  0  0  0
  7  6  1  0  0  0  0
 10  5  1  0  0  0  0
 12  6  1  0  0  0  0
 13  7  1  0  0  0  0
 14 13  1  0  0  0  0
 15 14  2  0  0  0  0
 16 17  2  0  0  0  0
 16 15  1  0  0  0  0
 17 24  1  0  0  0  0
 18 19  2  0  0  0  0
 18 17  1  0  0  0  0
 19 21  1  0  0  0  0
 20 19  1  0  0  0  0
 21 23  2  0  0  0  0
 22 21  1  0  0  0  0
 24 23  1  0  0  0  0
 24 13  2  0  0  0  0
 25 36  1  0  0  0  0
 25 30  1  0  0  0  0
 26 25  2  0  0  0  0
 27 26  1  0  0  0  0
 27 28  2  0  0  0  0
 28 29  1  0  0  0  0
 29 30  2  0  0  0  0
 29 31  1  0  0  0  0
 31 32  1  0  0  0  0
 32 39  1  0  0  0  0
 32 38  1  0  0  0  0
 32 33  1  0  0  0  0
 33 40  1  0  0  0  0
 33 41  1  0  0  0  0
 34 43  1  0  0  0  0
 34 42  1  0  0  0  0
 34 33  1  0  0  0  0
 35 44  1  6  0  0  0
 35 31  1  0  0  0  0
 35 34  1  0  0  0  0
 37 27  1  0  0  0  0
 45 47  1  0  0  0  0
 45 26  1  0  0  0  0
 46 45  1  0  0  0  0
M  END
>  <minimizedAffinity>
-5.65863037

>  <minimizedRMSD>
0.170789063

$$$$
