
 OpenBabel03252506463D

 45 49  0  0  1  0  0  0  0  0999 V2000
   49.4810   33.5180   41.3200 N   0  0  1  0  0  0  0  0  0  0  0  0
   50.6530   33.0420   42.0090 C   0  0  0  0  0  0  0  0  0  0  0  0
   51.1860   31.7340   41.5110 C   0  0  0  0  0  0  0  0  0  0  0  0
   50.1650   30.6540   41.8000 C   0  0  0  0  0  0  0  0  0  0  0  0
   48.7680   31.1780   41.6550 C   0  0  0  0  0  0  0  0  0  0  0  0
   48.7790   32.3880   40.7550 C   0  0  2  0  0  0  0  0  0  0  0  0
   50.4380   32.9110   43.0910 H   0  0  0  0  0  0  0  0  0  0  0  0
   51.4090   33.8450   41.9370 H   0  0  0  0  0  0  0  0  0  0  0  0
   52.1160   31.5460   42.1300 H   0  0  0  0  0  0  0  0  0  0  0  0
   51.5480   31.7240   40.4810 H   0  0  0  0  0  0  0  0  0  0  0  0
   50.3550   29.7260   41.2480 H   0  0  0  0  0  0  0  0  0  0  0  0
   50.2870   30.4080   42.8920 H   0  0  0  0  0  0  0  0  0  0  0  0
   48.0570   30.4520   41.2450 H   0  0  0  0  0  0  0  0  0  0  0  0
   48.3370   31.5160   42.6260 H   0  0  0  0  0  0  0  0  0  0  0  0
   47.7170   32.6980   40.6600 H   0  0  0  0  0  0  0  0  0  0  0  0
   49.2150   32.0290   39.4340 N   0  0  0  0  0  0  0  0  0  0  0  0
   50.2490   31.9500   39.3850 H   0  0  0  0  0  0  0  0  0  0  0  0
   48.4280   31.8100   38.2800 C   0  0  0  0  0  0  0  0  0  0  0  0
   48.8570   31.1980   37.1690 N   0  0  0  0  0  0  0  0  0  0  0  0
   48.1690   30.9600   36.0670 C   0  0  0  0  0  3  0  0  0  0  0  0
   46.8900   31.3670   36.0240 N   0  0  0  0  0  0  0  0  0  0  0  0
   46.3420   31.9930   37.0750 C   0  0  0  0  0  0  0  0  0  0  0  0
   45.0390   32.3960   37.0060 C   0  0  0  0  0  3  0  0  0  0  0  0
   44.4130   33.0450   38.0490 C   0  0  0  0  0  0  0  0  0  0  0  0
   43.3910   33.3320   37.9250 H   0  0  0  0  0  0  0  0  0  0  0  0
   45.1790   33.2690   39.1790 C   0  0  0  0  0  0  0  0  0  0  0  0
   44.6770   33.7780   39.9910 H   0  0  0  0  0  0  0  0  0  0  0  0
   46.4830   32.8550   39.2230 C   0  0  0  0  0  3  0  0  0  0  0  0
   47.1150   32.2090   38.1910 C   0  0  0  0  0  0  0  0  0  0  0  0
   47.3380   34.7920   41.9490 C   0  0  1  0  0  0  0  0  0  0  0  0
   48.4890   35.7200   41.8400 C   0  0  0  0  0  0  0  0  0  0  0  0
   48.7190   34.3090   42.2040 C   0  0  2  0  0  0  0  0  0  0  0  0
   46.8030   34.5960   40.9940 H   0  0  0  0  0  0  0  0  0  0  0  0
   48.6520   36.4740   42.6340 H   0  0  0  0  0  0  0  0  0  0  0  0
   48.8240   36.0890   40.8380 H   0  0  0  0  0  0  0  0  0  0  0  0
   48.9180   34.0850   43.2960 H   0  0  0  0  0  0  0  0  0  0  0  0
   45.5400   36.0560   43.1620 C   0  0  0  0  0  0  0  0  0  0  0  0
   46.4030   34.9530   43.0810 C   0  0  0  0  0  0  0  0  0  0  0  0
   46.3370   33.9890   44.1140 C   0  0  0  0  0  0  0  0  0  0  0  0
   45.4500   34.1830   45.1160 N   0  0  0  0  0  0  0  0  0  0  0  0
   44.6300   35.2500   45.1720 C   0  0  0  0  0  0  0  0  0  0  0  0
   44.6670   36.2040   44.1900 N   0  0  0  0  0  0  0  0  0  0  0  0
   45.5920   36.7910   42.3710 H   0  0  0  0  0  0  0  0  0  0  0  0
   46.9890   33.1250   44.0840 H   0  0  0  0  0  0  0  0  0  0  0  0
   43.9710   35.2760   46.0320 H   0  0  0  0  0  0  0  0  0  0  0  0
  1  2  1  1  0  0  0
  1 32  1  0  0  0  0
  2  7  1  0  0  0  0
  3  4  1  0  0  0  0
  3  2  1  0  0  0  0
  3  9  1  0  0  0  0
  4 12  1  0  0  0  0
  5  4  1  0  0  0  0
  5 14  1  0  0  0  0
  6 15  1  6  0  0  0
  6  1  1  0  0  0  0
  6  5  1  0  0  0  0
  8  2  1  0  0  0  0
 10  3  1  0  0  0  0
 11  4  1  0  0  0  0
 13  5  1  0  0  0  0
 16  6  1  0  0  0  0
 17 16  1  0  0  0  0
 18 16  1  0  0  0  0
 19 18  2  0  0  0  0
 20 19  1  0  0  0  0
 21 20  2  0  0  0  0
 21 22  1  0  0  0  0
 22 29  1  0  0  0  0
 23 22  2  0  0  0  0
 23 24  1  0  0  0  0
 24 26  2  0  0  0  0
 25 24  1  0  0  0  0
 26 28  1  0  0  0  0
 26 27  1  0  0  0  0
 29 18  1  0  0  0  0
 29 28  2  0  0  0  0
 30 33  1  6  0  0  0
 30 32  1  0  0  0  0
 30 38  1  0  0  0  0
 31 30  1  0  0  0  0
 31 32  1  0  0  0  0
 31 34  1  0  0  0  0
 32 36  1  1  0  0  0
 35 31  1  0  0  0  0
 37 42  1  0  0  0  0
 38 37  2  0  0  0  0
 38 39  1  0  0  0  0
 39 40  2  0  0  0  0
 40 41  1  0  0  0  0
 41 45  1  0  0  0  0
 42 41  2  0  0  0  0
 43 37  1  0  0  0  0
 44 39  1  0  0  0  0
M  END
>  <minimizedAffinity>
-5.65833902

>  <minimizedRMSD>
2.91079664

$$$$
