
 OpenBabel03252506343D

 36 39  0  0  1  0  0  0  0  0999 V2000
   44.4950   35.5930   45.0610 C   0  0  0  0  0  0  0  0  0  0  0  0
   45.1570   35.5850   43.8220 C   0  0  0  0  0  0  0  0  0  0  0  0
   46.0940   34.6260   43.5780 C   0  0  0  0  0  0  0  0  0  0  0  0
   46.3180   33.7360   44.5750 N   0  0  0  0  0  0  0  0  0  0  0  0
   45.6920   33.7480   45.7410 C   0  0  0  0  0  0  0  0  0  0  0  0
   44.7630   34.6730   46.0250 N   0  0  0  0  0  0  0  0  0  0  0  0
   46.0320   32.7500   46.6860 N   0  0  0  0  0  0  0  0  0  0  0  0
   45.2270   32.4330   47.8760 C   0  0  0  0  0  0  0  0  0  0  0  0
   46.2920   32.1520   48.9110 C   0  0  0  0  0  0  0  0  0  0  0  0
   47.5980   32.0550   48.1720 C   0  0  0  0  0  0  0  0  0  0  0  0
   47.1450   31.8520   46.7510 C   0  0  1  0  0  0  0  0  0  0  0  0
   43.7250   36.3180   45.3650 H   0  0  0  0  0  0  0  0  0  0  0  0
   46.5660   34.6570   42.6310 H   0  0  0  0  0  0  0  0  0  0  0  0
   44.5240   31.6100   47.7080 H   0  0  0  0  0  0  0  0  0  0  0  0
   44.7220   33.3780   48.1970 H   0  0  0  0  0  0  0  0  0  0  0  0
   46.0790   31.1220   49.3000 H   0  0  0  0  0  0  0  0  0  0  0  0
   46.3020   32.8760   49.7290 H   0  0  0  0  0  0  0  0  0  0  0  0
   48.2740   31.2620   48.5320 H   0  0  0  0  0  0  0  0  0  0  0  0
   48.0690   33.0740   48.2100 H   0  0  0  0  0  0  0  0  0  0  0  0
   47.8900   32.2180   46.0110 H   0  0  0  0  0  0  0  0  0  0  0  0
   44.7440   36.6350   42.9250 N   0  0  0  0  0  0  0  0  0  0  0  0
   43.7970   36.6700   42.4600 H   0  0  0  0  0  0  0  0  0  0  0  0
   45.4660   37.3610   42.7750 H   0  0  0  0  0  0  0  0  0  0  0  0
   46.6930   30.1360   46.5070 S   0  0  0  0  0  0  0  0  0  0  0  0
   45.4680   29.8560   45.2740 C   0  0  0  0  0  0  0  0  0  0  0  0
   45.2560   30.5190   44.0980 N   0  0  0  0  0  0  0  0  0  0  0  0
   44.2420   30.1390   43.3070 C   0  0  0  0  0  0  0  0  0  0  0  0
   43.3900   29.1320   43.5780 N   0  0  0  0  0  0  0  0  0  0  0  0
   43.5640   28.4470   44.7330 C   0  0  0  0  0  0  0  0  0  0  0  0
   42.6510   27.4360   44.9390 C   0  0  0  0  0  0  0  0  0  0  0  0
   42.7940   26.7070   46.1240 C   0  0  0  0  0  0  0  0  0  0  0  0
   42.1190   25.8990   46.3620 H   0  0  0  0  0  0  0  0  0  0  0  0
   43.8020   27.0220   46.9980 C   0  0  0  0  0  0  0  0  0  0  0  0
   43.9290   26.4700   47.9220 H   0  0  0  0  0  0  0  0  0  0  0  0
   44.6760   28.0490   46.7180 C   0  0  0  0  0  0  0  0  0  0  0  0
   44.6000   28.8200   45.5620 C   0  0  0  0  0  0  0  0  0  0  0  0
  1 12  1  0  0  0  0
  1  6  1  0  0  0  0
  2  1  2  0  0  0  0
  3  2  1  0  0  0  0
  3  4  2  0  0  0  0
  4  5  1  0  0  0  0
  5  6  2  0  0  0  0
  5  7  1  0  0  0  0
  7 11  1  0  0  0  0
  7  8  1  0  0  0  0
  8 15  1  0  0  0  0
  8  9  1  0  0  0  0
  9 16  1  0  0  0  0
  9 17  1  0  0  0  0
 10 19  1  0  0  0  0
 10 18  1  0  0  0  0
 10  9  1  0  0  0  0
 11 20  1  6  0  0  0
 11 10  1  0  0  0  0
 13  3  1  0  0  0  0
 14  8  1  0  0  0  0
 21  2  1  0  0  0  0
 22 21  1  0  0  0  0
 23 21  1  0  0  0  0
 24 11  1  0  0  0  0
 25 36  1  0  0  0  0
 25 24  1  0  0  0  0
 26 25  2  0  0  0  0
 27 28  2  0  0  0  0
 27 26  1  0  0  0  0
 28 29  1  0  0  0  0
 29 30  2  0  0  0  0
 29 36  1  0  0  0  0
 30 31  1  0  0  0  0
 31 32  1  0  0  0  0
 31 33  2  0  0  0  0
 33 34  1  0  0  0  0
 35 33  1  0  0  0  0
 36 35  2  0  0  0  0
M  END
>  <minimizedAffinity>
-6.00298882

>  <minimizedRMSD>
1.44856238

$$$$
