
 OpenBabel03252508033D

 45 49  0  0  1  0  0  0  0  0999 V2000
   42.0120   33.3000   41.1080 C   0  0  0  0  0  0  0  0  0  0  0  0
   42.7760   34.4100   41.3180 C   0  0  0  0  0  0  0  0  0  0  0  0
   42.1410   35.6700   41.3020 C   0  0  0  0  0  0  0  0  0  0  0  0
   40.7880   35.8210   41.0850 C   0  0  0  0  0  0  0  0  0  0  0  0
   40.0300   34.7030   40.8750 C   0  0  0  0  0  0  0  0  0  0  0  0
   40.6400   33.4860   40.8890 C   0  0  0  0  0  0  0  0  0  0  0  0
   42.6590   36.6020   41.4500 H   0  0  0  0  0  0  0  0  0  0  0  0
   40.3070   36.7790   41.0740 H   0  0  0  0  0  0  0  0  0  0  0  0
   38.9840   34.7430   40.7010 H   0  0  0  0  0  0  0  0  0  0  0  0
   40.0280   32.5850   40.7190 H   0  0  0  0  0  0  0  0  0  0  0  0
   42.6530   31.7380   41.1460 S   0  0  0  0  0  0  0  0  0  0  0  0
   41.5510   30.9030   40.5010 O   0  0  0  0  0  0  0  0  0  0  0  0
   42.7780   31.3140   42.5920 O   0  0  0  0  0  0  0  0  0  0  0  0
   43.7860   30.9800   40.2100 C   0  0  0  0  0  0  0  0  0  0  0  0
   44.2350   31.3310   38.9830 N   0  0  0  0  0  0  0  0  0  0  0  0
   44.9990   30.7130   38.1270 C   0  0  0  0  0  3  0  0  0  0  0  0
   45.4180   29.5210   38.5220 N   0  0  0  0  0  0  0  0  0  0  0  0
   45.0780   29.0060   39.7060 C   0  0  0  0  0  0  0  0  0  0  0  0
   45.6150   27.7360   39.9250 C   0  0  0  0  0  3  0  0  0  0  0  0
   45.3060   27.1330   41.1250 C   0  0  0  0  0  0  0  0  0  0  0  0
   45.6900   26.1500   41.3500 H   0  0  0  0  0  0  0  0  0  0  0  0
   44.5030   27.7920   42.0320 C   0  0  0  0  0  0  0  0  0  0  0  0
   44.2780   27.2940   42.9640 H   0  0  0  0  0  0  0  0  0  0  0  0
   44.0250   29.0400   41.7160 C   0  0  0  0  0  3  0  0  0  0  0  0
   44.2710   29.7240   40.5510 C   0  0  0  0  0  0  0  0  0  0  0  0
   44.2070   34.3560   41.5390 C   0  0  0  0  0  0  0  0  0  0  0  0
   45.0720   34.2440   40.6020 O   0  0  0  0  0  0  0  0  0  0  0  0
   44.5710   34.4430   42.9230 C   0  0  0  0  0  0  0  0  0  0  0  0
   44.3030   35.7000   43.5420 C   0  0  0  0  0  0  0  0  0  0  0  0
   44.6410   35.8100   44.8900 C   0  0  0  0  0  0  0  0  0  0  0  0
   45.1910   34.7340   45.5140 N   0  0  0  0  0  0  0  0  0  0  0  0
   45.4190   33.5690   44.8650 C   0  0  0  0  0  0  0  0  0  0  0  0
   45.1160   33.4440   43.6170 N   0  0  0  0  0  0  0  0  0  0  0  0
   43.8820   36.5880   43.1440 H   0  0  0  0  0  0  0  0  0  0  0  0
   44.4940   36.7020   45.4870 H   0  0  0  0  0  0  0  0  0  0  0  0
   46.0150   32.4410   45.6270 C   0  0  1  0  0  0  0  0  0  0  0  0
   46.9700   32.7520   46.7620 C   0  0  0  0  0  0  0  0  0  0  0  0
   45.5680   32.3110   47.0210 C   0  0  1  0  0  0  0  0  0  0  0  0
   46.2060   31.5320   45.0550 H   0  0  0  0  0  0  0  0  0  0  0  0
   47.7510   31.9810   46.9510 H   0  0  0  0  0  0  0  0  0  0  0  0
   47.2730   33.8080   46.8440 H   0  0  0  0  0  0  0  0  0  0  0  0
   45.3950   31.3030   47.4400 H   0  0  0  0  0  0  0  0  0  0  0  0
   44.7730   33.3760   47.6250 N   0  0  0  0  0  0  0  0  0  0  0  0
   44.2020   32.9830   48.4320 H   0  0  0  0  0  0  0  0  0  0  0  0
   45.3230   34.1620   47.9890 H   0  0  0  0  0  0  0  0  0  0  0  0
  1 11  1  0  0  0  0
  1  2  1  0  0  0  0
  2 26  1  0  0  0  0
  3  2  2  0  0  0  0
  3  7  1  0  0  0  0
  4  3  1  0  0  0  0
  5  6  1  0  0  0  0
  5  4  2  0  0  0  0
  6  1  2  0  0  0  0
  8  4  1  0  0  0  0
  9  5  1  0  0  0  0
 10  6  1  0  0  0  0
 11 13  2  0  0  0  0
 12 11  2  0  0  0  0
 14 25  1  0  0  0  0
 14 11  1  0  0  0  0
 15 14  2  0  0  0  0
 16 17  2  0  0  0  0
 16 15  1  0  0  0  0
 17 18  1  0  0  0  0
 18 19  2  0  0  0  0
 18 25  1  0  0  0  0
 19 20  1  0  0  0  0
 20 21  1  0  0  0  0
 20 22  2  0  0  0  0
 22 23  1  0  0  0  0
 24 22  1  0  0  0  0
 25 24  2  0  0  0  0
 26 28  1  0  0  0  0
 27 26  2  0  0  0  0
 28 29  2  0  0  0  0
 28 33  1  0  0  0  0
 29 30  1  0  0  0  0
 30 35  1  0  0  0  0
 30 31  2  0  0  0  0
 32 31  1  0  0  0  0
 32 36  1  0  0  0  0
 33 32  2  0  0  0  0
 34 29  1  0  0  0  0
 36 39  1  6  0  0  0
 36 37  1  0  0  0  0
 36 38  1  0  0  0  0
 37 41  1  0  0  0  0
 37 40  1  0  0  0  0
 37 38  1  0  0  0  0
 38 42  1  1  0  0  0
 38 43  1  0  0  0  0
 43 45  1  0  0  0  0
 43 44  1  0  0  0  0
M  END
>  <minimizedAffinity>
-5.74562931

>  <minimizedRMSD>
1.32874429

$$$$
