
     RDKit          3D

 50 54  0  0  0  0  0  0  0  0999 V2000
   44.4976   35.5349   45.1242 C   0  0  0  0  0  0  0  0  0  0  0  0
   45.1691   35.5068   43.8763 C   0  0  0  0  0  0  0  0  0  0  0  0
   46.0922   34.5415   43.6419 C   0  0  0  0  0  0  0  0  0  0  0  0
   46.3169   33.6483   44.6366 N   0  0  0  0  0  0  0  0  0  0  0  0
   45.6861   33.6792   45.8017 C   0  0  0  0  0  0  0  0  0  0  0  0
   44.7739   34.6159   46.0608 N   0  0  0  0  0  0  0  0  0  0  0  0
   46.0102   32.6818   46.7857 N   0  0  0  0  0  0  0  0  0  0  0  0
   45.2658   32.4480   47.9669 C   0  0  0  0  0  0  0  0  0  0  0  0
   46.3343   32.1222   48.9937 C   0  0  0  0  0  0  0  0  0  0  0  0
   47.6196   32.0008   48.2334 C   0  0  0  0  0  0  0  0  0  0  0  0
   47.1305   31.7719   46.8061 C   0  0  1  0  0  0  0  0  0  0  0  0
   44.8175   36.5265   42.9250 N   0  0  0  0  0  0  0  0  0  0  0  0
   46.6199   30.0764   46.6355 S   0  0  0  0  0  0  0  0  0  0  0  0
   45.6076   30.5157   43.4847 O   0  0  0  0  0  0  0  0  0  0  0  0
   44.9774   29.9876   44.4141 C   0  0  0  0  0  0  0  0  0  0  0  0
   45.0758   29.7837   45.8806 C   0  0  1  0  0  0  0  0  0  0  0  0
   44.5405   28.3824   46.0387 C   0  0  0  0  0  0  0  0  0  0  0  0
   43.2258   28.5825   45.2809 C   0  0  0  0  0  0  0  0  0  0  0  0
   43.7353   29.3229   44.1332 N   0  0  0  0  0  0  0  0  0  0  0  0
   43.7617   36.3070   45.3072 H   0  0  0  0  0  0  0  0  0  0  0  0
   46.6011   34.5111   42.7106 H   0  0  0  0  0  0  0  0  0  0  0  0
   44.8721   33.4581   48.3035 H   0  0  0  0  0  0  0  0  0  0  0  0
   44.4777   31.7775   48.0751 H   0  0  0  0  0  0  0  0  0  0  0  0
   46.1222   31.1259   49.4752 H   0  0  0  0  0  0  0  0  0  0  0  0
   46.4095   32.8411   49.8082 H   0  0  0  0  0  0  0  0  0  0  0  0
   48.1979   31.1371   48.5943 H   0  0  0  0  0  0  0  0  0  0  0  0
   48.2273   32.9259   48.2830 H   0  0  0  0  0  0  0  0  0  0  0  0
   47.9293   32.0463   46.1150 H   0  0  0  0  0  0  0  0  0  0  0  0
   45.5548   36.8763   42.2520 H   0  0  0  0  0  0  0  0  0  0  0  0
   43.8458   36.8811   42.9373 H   0  0  0  0  0  0  0  0  0  0  0  0
   44.1909   30.3994   46.2055 H   0  0  0  0  0  0  0  0  0  0  0  0
   44.2837   28.1239   47.0795 H   0  0  0  0  0  0  0  0  0  0  0  0
   45.1811   27.6442   45.5500 H   0  0  0  0  0  0  0  0  0  0  0  0
   42.5863   29.2593   45.8811 H   0  0  0  0  0  0  0  0  0  0  0  0
   42.7553   27.6298   45.0152 H   0  0  0  0  0  0  0  0  0  0  0  0
   42.9546   29.2888   42.9208 C   0  0  0  0  0  0  0  0  0  0  0  0
   43.6015   29.0829   41.7526 N   0  0  0  0  0  0  0  0  0  0  0  0
   42.9402   29.0362   40.5605 C   0  0  0  0  0  0  0  0  0  0  0  0
   41.6153   29.1941   40.5050 N   0  0  0  0  0  0  0  0  0  0  0  0
   40.9417   29.4012   41.6538 C   0  0  0  0  0  0  0  0  0  0  0  0
   39.5720   29.5687   41.6365 C   0  0  0  0  0  0  0  0  0  0  0  0
   38.8506   29.7838   42.8037 C   0  0  0  0  0  0  0  0  0  0  0  0
   37.7773   29.9130   42.7713 H   0  0  0  0  0  0  0  0  0  0  0  0
   39.5587   29.8252   44.0005 C   0  0  0  0  0  0  0  0  0  0  0  0
   38.9628   29.9945   44.8871 H   0  0  0  0  0  0  0  0  0  0  0  0
   40.9391   29.6625   44.0749 C   0  0  0  0  0  0  0  0  0  0  0  0
   41.5828   29.4536   42.8754 C   0  0  0  0  0  0  0  0  0  0  0  0
   43.6089   28.8637   39.7272 H   0  0  0  0  0  0  0  0  0  0  0  0
   38.9967   29.5413   40.7216 H   0  0  0  0  0  0  0  0  0  0  0  0
   41.4441   29.7031   45.0313 H   0  0  0  0  0  0  0  0  0  0  0  0
  1  6  2  0
  2  1  1  0
  3  2  2  0
  3  4  1  0
  4  5  2  0
  5  6  1  0
  5  7  1  0
  7 11  1  0
  7  8  1  0
  8  9  1  0
 10  9  1  0
 11 10  1  0
 12  2  1  0
 13 11  1  0
 14 15  2  0
 15 16  1  0
 16 17  1  0
 16 13  1  0
 18 17  1  0
 19 15  1  0
 19 18  1  0
  1 20  1  0
  3 21  1  0
  8 22  1  0
  8 23  1  0
  9 24  1  0
  9 25  1  0
 10 26  1  0
 10 27  1  0
 11 28  1  6
 12 29  1  0
 12 30  1  0
 16 31  1  1
 17 32  1  0
 17 33  1  0
 18 34  1  0
 18 35  1  0
 36 37  2  0
 37 38  1  0
 38 39  2  0
 39 40  1  0
 40 41  2  0
 41 42  1  0
 42 43  1  0
 42 44  2  0
 44 45  1  0
 44 46  1  0
 46 47  2  0
 47 36  1  0
 47 40  1  0
 38 48  1  0
 41 49  1  0
 46 50  1  0
 19 36  1  0
M  ISO  8  20  14  21  14  22  13  23  13  24  13  25  13  26  13  27  13
M  ISO  8  28  13  31  13  32  13  33  13  34  13  35  13  43  16  45  16
M  END
>  <DihAtoms>  (1) 
14,18,35,36

>  <DihDeg>  (1) 
-90.00126034053824

$$$$
