
 OpenBabel03252500193D

 23 25  0  0  0  0  0  0  0  0999 V2000
   46.7780   33.0240   42.8110 C   0  0  0  0  0  0  0  0  0  0  0  0
   46.2250   31.8860   42.3770 N   0  0  0  0  0  0  0  0  0  0  0  0
   46.9090   30.9260   41.7570 C   0  0  0  0  0  0  0  0  0  0  0  0
   48.2270   31.0240   41.5140 N   0  0  0  0  0  0  0  0  0  0  0  0
   48.8760   32.1340   41.9130 C   0  0  0  0  0  0  0  0  0  0  0  0
   50.2260   32.2540   41.6740 C   0  0  0  0  0  0  0  0  0  0  0  0
   50.9120   33.3760   42.0700 C   0  0  0  0  0  0  0  0  0  0  0  0
   51.9600   33.3840   41.8440 H   0  0  0  0  0  0  0  0  0  0  0  0
   50.1970   34.3740   42.7160 C   0  0  0  0  0  0  0  0  0  0  0  0
   50.7470   35.2490   43.0220 H   0  0  0  0  0  0  0  0  0  0  0  0
   48.8460   34.2030   42.9300 C   0  0  0  0  0  0  0  0  0  0  0  0
   48.1250   33.0970   42.5490 C   0  0  0  0  0  0  0  0  0  0  0  0
   45.0820   36.2760   43.1990 C   0  0  0  0  0  0  0  0  0  0  0  0
   45.8010   35.1970   42.6960 C   0  0  0  0  0  0  0  0  0  0  0  0
   46.0120   34.0550   43.4820 C   0  0  0  0  0  0  0  0  0  0  0  0
   45.4560   34.1640   44.6890 N   0  0  0  0  0  0  0  0  0  0  0  0
   44.7710   35.1690   45.1950 C   0  0  0  0  0  0  0  0  0  0  0  0
   44.5800   36.2570   44.4240 N   0  0  0  0  0  0  0  0  0  0  0  0
   44.2430   35.1310   46.5000 N   0  0  0  0  0  0  0  0  0  0  0  0
   44.9210   37.1570   42.5920 H   0  0  0  0  0  0  0  0  0  0  0  0
   46.1710   35.2960   41.7000 H   0  0  0  0  0  0  0  0  0  0  0  0
   44.7790   34.5550   47.2050 H   0  0  0  0  0  0  0  0  0  0  0  0
   43.3670   35.6670   46.6850 H   0  0  0  0  0  0  0  0  0  0  0  0
  1 15  1  0  0  0  0
  2  1  2  0  0  0  0
  3  2  1  0  0  0  0
  4  3  2  0  0  0  0
  4  5  1  0  0  0  0
  5 12  1  0  0  0  0
  6  5  2  0  0  0  0
  6  7  1  0  0  0  0
  7  9  2  0  0  0  0
  8  7  1  0  0  0  0
  9 11  1  0  0  0  0
  9 10  1  0  0  0  0
 12  1  1  0  0  0  0
 12 11  2  0  0  0  0
 13 18  1  0  0  0  0
 14 13  2  0  0  0  0
 14 15  1  0  0  0  0
 15 16  2  0  0  0  0
 16 17  1  0  0  0  0
 17 19  1  0  0  0  0
 18 17  2  0  0  0  0
 19 23  1  0  0  0  0
 19 22  1  0  0  0  0
 20 13  1  0  0  0  0
 21 14  1  0  0  0  0
M  END
>  <minimizedAffinity>
-5.64304256

>  <minimizedRMSD>
1.58106828

$$$$
