
 OpenBabel03252505073D

 46 50  0  0  1  0  0  0  0  0999 V2000
   44.6690   35.4580   44.5600 C   0  0  0  0  0  0  0  0  0  0  0  0
   45.3930   35.4400   43.3460 C   0  0  0  0  0  0  0  0  0  0  0  0
   46.4740   34.5260   43.2320 C   0  0  0  0  0  0  0  0  0  0  0  0
   46.7510   33.7240   44.2940 N   0  0  0  0  0  0  0  0  0  0  0  0
   46.0410   33.7690   45.4320 C   0  0  0  0  0  0  0  0  0  0  0  0
   44.9920   34.6400   45.5700 N   0  0  0  0  0  0  0  0  0  0  0  0
   43.8620   36.1680   44.5890 H   0  0  0  0  0  0  0  0  0  0  0  0
   45.1830   36.0680   42.5020 H   0  0  0  0  0  0  0  0  0  0  0  0
   46.3990   32.8760   46.5540 C   0  0  2  0  0  0  0  0  0  0  0  0
   46.9180   31.6120   45.9240 C   0  0  0  0  0  0  0  0  0  0  0  0
   45.9850   30.4640   45.9670 C   0  0  0  0  0  0  0  0  0  0  0  0
   45.6560   30.2600   47.4390 C   0  0  0  0  0  0  0  0  0  0  0  0
   44.9010   31.3800   47.9850 C   0  0  0  0  0  0  0  0  0  0  0  0
   45.3180   32.7210   47.5000 C   0  0  0  0  0  0  0  0  0  0  0  0
   47.2590   33.3940   47.0680 H   0  0  0  0  0  0  0  0  0  0  0  0
   47.2440   31.7620   44.8660 H   0  0  0  0  0  0  0  0  0  0  0  0
   47.8410   31.3130   46.4610 H   0  0  0  0  0  0  0  0  0  0  0  0
   45.0240   30.6740   45.4730 H   0  0  0  0  0  0  0  0  0  0  0  0
   46.5230   29.5770   45.5880 H   0  0  0  0  0  0  0  0  0  0  0  0
   44.9440   29.3990   47.4390 H   0  0  0  0  0  0  0  0  0  0  0  0
   46.5300   29.9340   48.0280 H   0  0  0  0  0  0  0  0  0  0  0  0
   44.0980   31.5240   48.6630 H   0  0  0  0  0  0  0  0  0  0  0  0
   44.6630   33.8910   47.9540 N   0  0  0  0  0  0  0  0  0  0  0  0
   45.1010   34.5640   48.6240 H   0  0  0  0  0  0  0  0  0  0  0  0
   43.6950   34.0500   47.5770 H   0  0  0  0  0  0  0  0  0  0  0  0
   47.2460   34.4830   42.0040 C   0  0  0  0  0  0  0  0  0  0  0  0
   48.0600   35.5260   41.7110 C   0  0  0  0  0  0  0  0  0  0  0  0
   48.7860   35.4170   40.5050 C   0  0  0  0  0  0  0  0  0  0  0  0
   48.5850   34.2710   39.7690 C   0  0  0  0  0  0  0  0  0  0  0  0
   47.7680   33.2230   40.0560 C   0  0  0  0  0  0  0  0  0  0  0  0
   47.1270   33.4350   41.2290 N   0  0  0  0  0  0  0  0  0  0  0  0
   48.1590   36.3830   42.3400 H   0  0  0  0  0  0  0  0  0  0  0  0
   49.4350   36.2140   40.2400 H   0  0  0  0  0  0  0  0  0  0  0  0
   49.1880   34.2790   38.8560 H   0  0  0  0  0  0  0  0  0  0  0  0
   47.7240   32.1240   39.1210 C   0  0  0  0  0  0  0  0  0  0  0  0
   48.4860   31.0420   39.3400 N   0  0  0  0  0  0  0  0  0  0  0  0
   48.5100   29.9770   38.5290 C   0  0  0  0  0  3  0  0  0  0  0  0
   47.7500   29.9150   37.4050 N   0  0  0  0  0  0  0  0  0  0  0  0
   46.9430   30.9740   37.1040 C   0  0  0  0  0  0  0  0  0  0  0  0
   46.1490   30.9690   35.9770 C   0  0  0  0  0  3  0  0  0  0  0  0
   45.3300   32.0320   35.6620 C   0  0  0  0  0  0  0  0  0  0  0  0
   44.7550   31.9110   34.7540 H   0  0  0  0  0  0  0  0  0  0  0  0
   45.3420   33.1200   36.5430 C   0  0  0  0  0  0  0  0  0  0  0  0
   44.6880   33.9310   36.2610 H   0  0  0  0  0  0  0  0  0  0  0  0
   46.1510   33.0780   37.6550 C   0  0  0  0  0  3  0  0  0  0  0  0
   46.9690   32.0310   37.9800 C   0  0  0  0  0  0  0  0  0  0  0  0
  1  7  1  0  0  0  0
  1  6  1  0  0  0  0
  2  1  2  0  0  0  0
  3  2  1  0  0  0  0
  3  4  2  0  0  0  0
  4  5  1  0  0  0  0
  5  6  2  0  0  0  0
  5  9  1  0  0  0  0
  8  2  1  0  0  0  0
  9 15  1  1  0  0  0
  9 14  1  0  0  0  0
 10 11  1  0  0  0  0
 10 17  1  0  0  0  0
 10  9  1  0  0  0  0
 11 12  1  0  0  0  0
 12 13  1  0  0  0  0
 12 21  1  0  0  0  0
 13 22  1  0  0  0  0
 14 23  1  0  0  0  0
 14 13  2  0  0  0  0
 16 10  1  0  0  0  0
 18 11  1  0  0  0  0
 19 11  1  0  0  0  0
 20 12  1  0  0  0  0
 23 24  1  0  0  0  0
 25 23  1  0  0  0  0
 26  3  1  0  0  0  0
 27 26  1  0  0  0  0
 27 32  1  0  0  0  0
 28 27  2  0  0  0  0
 29 30  2  0  0  0  0
 29 28  1  0  0  0  0
 30 31  1  0  0  0  0
 31 26  2  0  0  0  0
 33 28  1  0  0  0  0
 34 29  1  0  0  0  0
 35 36  1  0  0  0  0
 35 30  1  0  0  0  0
 37 36  2  0  0  0  0
 38 37  1  0  0  0  0
 39 38  2  0  0  0  0
 39 46  1  0  0  0  0
 40 39  1  0  0  0  0
 41 40  2  0  0  0  0
 41 43  1  0  0  0  0
 42 41  1  0  0  0  0
 43 45  2  0  0  0  0
 44 43  1  0  0  0  0
 45 46  1  0  0  0  0
 46 35  2  0  0  0  0
M  END
>  <minimizedAffinity>
-7.17140913

>  <minimizedRMSD>
1.41211164

$$$$
