
 OpenBabel03252505073D

 46 50  0  0  1  0  0  0  0  0999 V2000
   44.5690   35.5720   44.6170 C   0  0  0  0  0  0  0  0  0  0  0  0
   45.2400   35.6050   43.3730 C   0  0  0  0  0  0  0  0  0  0  0  0
   46.3300   34.7150   43.1830 C   0  0  0  0  0  0  0  0  0  0  0  0
   46.6660   33.8840   44.2040 N   0  0  0  0  0  0  0  0  0  0  0  0
   46.0050   33.8790   45.3730 C   0  0  0  0  0  0  0  0  0  0  0  0
   44.9490   34.7280   45.5850 N   0  0  0  0  0  0  0  0  0  0  0  0
   43.7540   36.2660   44.7040 H   0  0  0  0  0  0  0  0  0  0  0  0
   44.9840   36.2560   42.5610 H   0  0  0  0  0  0  0  0  0  0  0  0
   46.4250   32.9570   46.4490 C   0  0  2  0  0  0  0  0  0  0  0  0
   46.9670   31.7370   45.7550 C   0  0  0  0  0  0  0  0  0  0  0  0
   46.0750   30.5570   45.7790 C   0  0  0  0  0  0  0  0  0  0  0  0
   45.7970   30.2850   47.2510 C   0  0  0  0  0  0  0  0  0  0  0  0
   45.0220   31.3560   47.8610 C   0  0  0  0  0  0  0  0  0  0  0  0
   45.3790   32.7280   47.4180 C   0  0  0  0  0  0  0  0  0  0  0  0
   47.2830   33.4850   46.9580 H   0  0  0  0  0  0  0  0  0  0  0  0
   47.2570   31.9380   44.6950 H   0  0  0  0  0  0  0  0  0  0  0  0
   47.9160   31.4500   46.2530 H   0  0  0  0  0  0  0  0  0  0  0  0
   45.0940   30.7520   45.3210 H   0  0  0  0  0  0  0  0  0  0  0  0
   46.6310   29.7040   45.3500 H   0  0  0  0  0  0  0  0  0  0  0  0
   45.1140   29.4010   47.2370 H   0  0  0  0  0  0  0  0  0  0  0  0
   46.6980   29.9670   47.8020 H   0  0  0  0  0  0  0  0  0  0  0  0
   44.2350   31.4460   48.5680 H   0  0  0  0  0  0  0  0  0  0  0  0
   44.6990   33.8570   47.9360 N   0  0  0  0  0  0  0  0  0  0  0  0
   45.1340   34.5190   48.6190 H   0  0  0  0  0  0  0  0  0  0  0  0
   43.7160   33.9970   47.5930 H   0  0  0  0  0  0  0  0  0  0  0  0
   47.0480   34.7250   41.9220 C   0  0  0  0  0  0  0  0  0  0  0  0
   48.1730   35.4730   41.8210 C   0  0  0  0  0  0  0  0  0  0  0  0
   48.8260   35.4330   40.5690 C   0  0  0  0  0  0  0  0  0  0  0  0
   48.2470   34.6450   39.6000 C   0  0  0  0  0  0  0  0  0  0  0  0
   47.1170   33.8940   39.6940 C   0  0  0  0  0  0  0  0  0  0  0  0
   46.5810   34.0070   40.9320 N   0  0  0  0  0  0  0  0  0  0  0  0
   48.5570   36.0600   42.6260 H   0  0  0  0  0  0  0  0  0  0  0  0
   49.7110   36.0060   40.4500 H   0  0  0  0  0  0  0  0  0  0  0  0
   48.8220   34.6790   38.6710 H   0  0  0  0  0  0  0  0  0  0  0  0
   46.7030   33.1460   38.5310 C   0  0  0  0  0  0  0  0  0  0  0  0
   45.4090   33.1440   38.1760 N   0  0  0  0  0  0  0  0  0  0  0  0
   44.9340   32.4810   37.1160 C   0  0  0  0  0  3  0  0  0  0  0  0
   45.7420   31.7480   36.3080 N   0  0  0  0  0  0  0  0  0  0  0  0
   47.0760   31.6940   36.5940 C   0  0  0  0  0  0  0  0  0  0  0  0
   47.9460   30.9660   35.8110 C   0  0  0  0  0  3  0  0  0  0  0  0
   49.2950   30.9030   36.0900 C   0  0  0  0  0  0  0  0  0  0  0  0
   49.8740   30.3010   35.4040 H   0  0  0  0  0  0  0  0  0  0  0  0
   49.7390   31.6140   37.2110 C   0  0  0  0  0  0  0  0  0  0  0  0
   50.8010   31.5390   37.3960 H   0  0  0  0  0  0  0  0  0  0  0  0
   48.8320   32.3260   37.9630 C   0  0  0  0  0  3  0  0  0  0  0  0
   47.4930   32.3970   37.6970 C   0  0  0  0  0  0  0  0  0  0  0  0
  1  7  1  0  0  0  0
  1  6  1  0  0  0  0
  2  1  2  0  0  0  0
  3  2  1  0  0  0  0
  3  4  2  0  0  0  0
  4  5  1  0  0  0  0
  5  6  2  0  0  0  0
  5  9  1  0  0  0  0
  8  2  1  0  0  0  0
  9 15  1  1  0  0  0
  9 14  1  0  0  0  0
 10 11  1  0  0  0  0
 10 17  1  0  0  0  0
 10  9  1  0  0  0  0
 11 12  1  0  0  0  0
 12 21  1  0  0  0  0
 12 13  1  0  0  0  0
 13 22  1  0  0  0  0
 14 13  2  0  0  0  0
 14 23  1  0  0  0  0
 16 10  1  0  0  0  0
 18 11  1  0  0  0  0
 19 11  1  0  0  0  0
 20 12  1  0  0  0  0
 23 24  1  0  0  0  0
 25 23  1  0  0  0  0
 26  3  1  0  0  0  0
 27 26  1  0  0  0  0
 27 32  1  0  0  0  0
 28 27  2  0  0  0  0
 29 30  2  0  0  0  0
 29 28  1  0  0  0  0
 30 31  1  0  0  0  0
 31 26  2  0  0  0  0
 33 28  1  0  0  0  0
 34 29  1  0  0  0  0
 35 30  1  0  0  0  0
 36 35  1  0  0  0  0
 37 36  2  0  0  0  0
 38 39  2  0  0  0  0
 38 37  1  0  0  0  0
 39 46  1  0  0  0  0
 40 41  2  0  0  0  0
 40 39  1  0  0  0  0
 41 43  1  0  0  0  0
 42 41  1  0  0  0  0
 43 44  1  0  0  0  0
 43 45  2  0  0  0  0
 46 45  1  0  0  0  0
 46 35  2  0  0  0  0
M  END
>  <minimizedAffinity>
-7.83114481

>  <minimizedRMSD>
0.139325231

$$$$
