
 OpenBabel03242516073D

 39 43  0  0  0  0  0  0  0  0999 V2000
   38.1530   29.1640   38.0960 C   0  0  0  0  0  0  0  0  0  0  0  0
   38.4750   27.9680   38.7840 C   0  0  0  0  0  0  0  0  0  0  0  0
   38.0160   26.6680   37.6020 S   0  0  0  0  0  0  0  0  0  0  0  0
   37.4520   27.9740   36.3410 C   0  0  0  0  0  0  0  0  0  0  0  0
   37.6650   28.9100   36.9130 N   0  0  0  0  0  0  0  0  0  0  0  0
   36.9210   27.7040   35.0290 N   0  0  0  0  0  0  0  0  0  0  0  0
   35.9650   27.3790   34.7960 H   0  0  0  0  0  0  0  0  0  0  0  0
   37.6300   27.8730   34.2660 H   0  0  0  0  0  0  0  0  0  0  0  0
   39.0470   27.8660   40.1450 C   0  0  0  0  0  0  0  0  0  0  0  0
   40.3860   27.8380   40.1630 N   0  0  0  0  0  0  0  0  0  0  0  0
   41.0650   27.7460   41.3370 C   0  0  0  0  0  3  0  0  0  0  0  0
   40.4070   27.6800   42.5230 N   0  0  0  0  0  0  0  0  0  0  0  0
   39.0610   27.7080   42.5150 C   0  0  0  0  0  0  0  0  0  0  0  0
   38.2960   27.6460   43.6700 C   0  0  0  0  0  3  0  0  0  0  0  0
   36.9290   27.6770   43.6160 C   0  0  0  0  0  0  0  0  0  0  0  0
   36.3830   27.6240   44.5670 H   0  0  0  0  0  0  0  0  0  0  0  0
   36.2510   27.7710   42.3960 C   0  0  0  0  0  0  0  0  0  0  0  0
   35.1680   27.7930   42.3850 H   0  0  0  0  0  0  0  0  0  0  0  0
   36.9850   27.8340   41.2220 C   0  0  0  0  0  3  0  0  0  0  0  0
   38.3520   27.8000   41.3350 C   0  0  0  0  0  0  0  0  0  0  0  0
   40.8200   30.2880   37.7310 Cl  0  0  0  0  0  0  0  0  0  0  0  0
   39.5680   31.1550   38.5890 C   0  0  0  0  0  0  0  0  0  0  0  0
   39.7710   32.3950   39.1280 C   0  0  0  0  0  0  0  0  0  0  0  0
   38.7120   32.9600   39.7720 C   0  0  0  0  0  0  0  0  0  0  0  0
   37.5160   32.3550   39.8890 C   0  0  0  0  0  0  0  0  0  0  0  0
   37.2950   31.1070   39.3520 C   0  0  0  0  0  0  0  0  0  0  0  0
   38.3660   30.5110   38.6880 C   0  0  0  0  0  0  0  0  0  0  0  0
   38.8400   33.9450   40.2130 H   0  0  0  0  0  0  0  0  0  0  0  0
   36.6380   32.7710   40.3970 H   0  0  0  0  0  0  0  0  0  0  0  0
   36.3540   30.5740   39.4150 H   0  0  0  0  0  0  0  0  0  0  0  0
   43.3000   33.5920   39.7880 C   0  0  0  0  0  0  0  0  0  0  0  0
   42.0400   33.0060   39.9660 C   0  0  0  0  0  0  0  0  0  0  0  0
   41.0750   32.9920   38.9710 C   0  0  0  0  0  0  0  0  0  0  0  0
   41.4570   33.5960   37.8090 N   0  0  0  0  0  0  0  0  0  0  0  0
   42.6610   34.1570   37.6380 C   0  0  0  0  0  0  0  0  0  0  0  0
   43.5770   34.1560   38.6170 N   0  0  0  0  0  0  0  0  0  0  0  0
   43.9610   33.5290   40.6560 H   0  0  0  0  0  0  0  0  0  0  0  0
   41.7600   32.5330   40.8980 H   0  0  0  0  0  0  0  0  0  0  0  0
   42.8600   34.6140   36.6630 H   0  0  0  0  0  0  0  0  0  0  0  0
  1 27  1  0  0  0  0
  1  2  2  0  0  0  0
  2  9  1  0  0  0  0
  3  2  1  0  0  0  0
  4  5  2  0  0  0  0
  4  3  1  0  0  0  0
  5  1  1  0  0  0  0
  6  4  1  0  0  0  0
  7  6  1  0  0  0  0
  8  6  1  0  0  0  0
  9 10  2  0  0  0  0
  9 20  1  0  0  0  0
 10 11  1  0  0  0  0
 11 12  2  0  0  0  0
 13 12  1  0  0  0  0
 13 14  1  0  0  0  0
 15 14  2  0  0  0  0
 15 16  1  0  0  0  0
 17 15  1  0  0  0  0
 18 17  1  0  0  0  0
 19 20  1  0  0  0  0
 19 17  2  0  0  0  0
 20 13  2  0  0  0  0
 21 22  1  0  0  0  0
 22 27  2  0  0  0  0
 22 23  1  0  0  0  0
 23 24  2  0  0  0  0
 24 25  1  0  0  0  0
 24 28  1  0  0  0  0
 25 29  1  0  0  0  0
 26 30  1  0  0  0  0
 26 25  2  0  0  0  0
 27 26  1  0  0  0  0
 31 32  1  0  0  0  0
 31 37  1  0  0  0  0
 32 38  1  0  0  0  0
 33 23  1  0  0  0  0
 33 32  2  0  0  0  0
 34 33  1  0  0  0  0
 35 34  2  0  0  0  0
 35 36  1  0  0  0  0
 36 31  2  0  0  0  0
 39 35  1  0  0  0  0
M  END
>  <minimizedAffinity>
-6.32162142

$$$$

 OpenBabel03242516073D

 39 43  0  0  0  0  0  0  0  0999 V2000
   40.2730   29.1500   42.0490 C   0  0  0  0  0  0  0  0  0  0  0  0
   40.2740   30.2270   41.1290 C   0  0  0  0  0  0  0  0  0  0  0  0
   42.0050   30.7790   41.1330 S   0  0  0  0  0  0  0  0  0  0  0  0
   42.4590   29.4400   42.4020 C   0  0  0  0  0  0  0  0  0  0  0  0
   41.4630   28.9530   42.5450 N   0  0  0  0  0  0  0  0  0  0  0  0
   43.7720   29.2070   42.9490 N   0  0  0  0  0  0  0  0  0  0  0  0
   44.2510   29.7590   43.6820 H   0  0  0  0  0  0  0  0  0  0  0  0
   44.2460   28.3710   42.5130 H   0  0  0  0  0  0  0  0  0  0  0  0
   39.1090   30.7380   40.3730 C   0  0  0  0  0  0  0  0  0  0  0  0
   38.4680   31.7400   40.9900 N   0  0  0  0  0  0  0  0  0  0  0  0
   37.3760   32.3200   40.4250 C   0  0  0  0  0  3  0  0  0  0  0  0
   36.9040   31.9020   39.2230 N   0  0  0  0  0  0  0  0  0  0  0  0
   37.5420   30.8950   38.5960 C   0  0  0  0  0  0  0  0  0  0  0  0
   37.1400   30.3950   37.3670 C   0  0  0  0  0  3  0  0  0  0  0  0
   37.8180   29.3690   36.7640 C   0  0  0  0  0  0  0  0  0  0  0  0
   37.4480   29.0200   35.7920 H   0  0  0  0  0  0  0  0  0  0  0  0
   38.9390   28.7870   37.3640 C   0  0  0  0  0  0  0  0  0  0  0  0
   39.4550   27.9760   36.8630 H   0  0  0  0  0  0  0  0  0  0  0  0
   39.3670   29.2630   38.5930 C   0  0  0  0  0  3  0  0  0  0  0  0
   38.6510   30.2920   39.1510 C   0  0  0  0  0  0  0  0  0  0  0  0
   39.8660   26.7320   40.4700 Cl  0  0  0  0  0  0  0  0  0  0  0  0
   38.7350   27.2190   41.7100 C   0  0  0  0  0  0  0  0  0  0  0  0
   37.6100   26.4990   42.0040 C   0  0  0  0  0  0  0  0  0  0  0  0
   36.8130   26.9900   42.9910 C   0  0  0  0  0  0  0  0  0  0  0  0
   37.0880   28.1220   43.6630 C   0  0  0  0  0  0  0  0  0  0  0  0
   38.2160   28.8600   43.3800 C   0  0  0  0  0  0  0  0  0  0  0  0
   39.0460   28.3750   42.3720 C   0  0  0  0  0  0  0  0  0  0  0  0
   35.9110   26.4410   43.2490 H   0  0  0  0  0  0  0  0  0  0  0  0
   36.4760   28.5550   44.4640 H   0  0  0  0  0  0  0  0  0  0  0  0
   38.4870   29.7770   43.8890 H   0  0  0  0  0  0  0  0  0  0  0  0
   37.6650   22.9040   40.8220 C   0  0  0  0  0  0  0  0  0  0  0  0
   37.9160   24.0600   41.5700 C   0  0  0  0  0  0  0  0  0  0  0  0
   37.3680   25.2930   41.2490 C   0  0  0  0  0  0  0  0  0  0  0  0
   36.5650   25.2800   40.1460 N   0  0  0  0  0  0  0  0  0  0  0  0
   36.3240   24.1750   39.4290 C   0  0  0  0  0  0  0  0  0  0  0  0
   36.8670   22.9950   39.7620 N   0  0  0  0  0  0  0  0  0  0  0  0
   38.1620   22.0030   41.1890 H   0  0  0  0  0  0  0  0  0  0  0  0
   38.5570   24.0450   42.4420 H   0  0  0  0  0  0  0  0  0  0  0  0
   35.6640   24.2810   38.5620 H   0  0  0  0  0  0  0  0  0  0  0  0
  1 27  1  0  0  0  0
  1  5  1  0  0  0  0
  2  3  1  0  0  0  0
  2  1  2  0  0  0  0
  3  4  1  0  0  0  0
  4  5  2  0  0  0  0
  4  6  1  0  0  0  0
  6  7  1  0  0  0  0
  8  6  1  0  0  0  0
  9 10  1  0  0  0  0
  9  2  1  0  0  0  0
 11 10  2  0  0  0  0
 12 11  1  0  0  0  0
 13 20  1  0  0  0  0
 13 12  2  0  0  0  0
 14 13  1  0  0  0  0
 15 17  1  0  0  0  0
 15 14  2  0  0  0  0
 16 15  1  0  0  0  0
 17 19  2  0  0  0  0
 18 17  1  0  0  0  0
 19 20  1  0  0  0  0
 20  9  2  0  0  0  0
 21 22  1  0  0  0  0
 22 23  2  0  0  0  0
 22 27  1  0  0  0  0
 23 24  1  0  0  0  0
 24 28  1  0  0  0  0
 24 25  2  0  0  0  0
 25 29  1  0  0  0  0
 26 25  1  0  0  0  0
 26 30  1  0  0  0  0
 27 26  2  0  0  0  0
 31 37  1  0  0  0  0
 31 32  1  0  0  0  0
 32 38  1  0  0  0  0
 33 32  2  0  0  0  0
 33 23  1  0  0  0  0
 34 33  1  0  0  0  0
 35 36  1  0  0  0  0
 35 34  2  0  0  0  0
 36 31  2  0  0  0  0
 39 35  1  0  0  0  0
M  END
>  <minimizedAffinity>
-6.2564168

$$$$

 OpenBabel03242516073D

 39 43  0  0  0  0  0  0  0  0999 V2000
   40.6510   28.9620   41.9780 C   0  0  0  0  0  0  0  0  0  0  0  0
   40.8950   29.7700   40.8400 C   0  0  0  0  0  0  0  0  0  0  0  0
   42.6330   30.2590   41.0400 S   0  0  0  0  0  0  0  0  0  0  0  0
   42.7540   29.2740   42.6610 C   0  0  0  0  0  0  0  0  0  0  0  0
   41.7150   28.8660   42.7250 N   0  0  0  0  0  0  0  0  0  0  0  0
   43.9270   29.1530   43.4880 N   0  0  0  0  0  0  0  0  0  0  0  0
   44.3070   29.8610   44.1430 H   0  0  0  0  0  0  0  0  0  0  0  0
   44.4090   28.2230   43.3690 H   0  0  0  0  0  0  0  0  0  0  0  0
   39.9240   30.1020   39.7740 C   0  0  0  0  0  0  0  0  0  0  0  0
   39.8930   29.2060   38.7790 N   0  0  0  0  0  0  0  0  0  0  0  0
   39.0520   29.3670   37.7230 C   0  0  0  0  0  3  0  0  0  0  0  0
   38.2210   30.4380   37.6470 N   0  0  0  0  0  0  0  0  0  0  0  0
   38.2450   31.3430   38.6430 C   0  0  0  0  0  0  0  0  0  0  0  0
   37.4370   32.4700   38.6600 C   0  0  0  0  0  3  0  0  0  0  0  0
   37.4940   33.3670   39.6930 C   0  0  0  0  0  0  0  0  0  0  0  0
   36.8280   34.2370   39.6450 H   0  0  0  0  0  0  0  0  0  0  0  0
   38.3680   33.1800   40.7700 C   0  0  0  0  0  0  0  0  0  0  0  0
   38.3900   33.9080   41.5730 H   0  0  0  0  0  0  0  0  0  0  0  0
   39.1890   32.0650   40.7840 C   0  0  0  0  0  3  0  0  0  0  0  0
   39.0910   31.2000   39.7240 C   0  0  0  0  0  0  0  0  0  0  0  0
   40.1530   26.4710   40.5440 Cl  0  0  0  0  0  0  0  0  0  0  0  0
   38.9700   27.1540   41.6360 C   0  0  0  0  0  0  0  0  0  0  0  0
   37.7610   26.5610   41.8740 C   0  0  0  0  0  0  0  0  0  0  0  0
   36.9320   27.1980   42.7460 C   0  0  0  0  0  0  0  0  0  0  0  0
   37.2560   28.3510   43.3580 C   0  0  0  0  0  0  0  0  0  0  0  0
   38.4680   28.9610   43.1290 C   0  0  0  0  0  0  0  0  0  0  0  0
   39.3330   28.3260   42.2400 C   0  0  0  0  0  0  0  0  0  0  0  0
   35.9630   26.7530   42.9570 H   0  0  0  0  0  0  0  0  0  0  0  0
   36.6210   28.8980   44.0660 H   0  0  0  0  0  0  0  0  0  0  0  0
   38.7810   29.8880   43.5950 H   0  0  0  0  0  0  0  0  0  0  0  0
   36.3620   24.0210   39.4430 C   0  0  0  0  0  0  0  0  0  0  0  0
   36.6270   25.2330   40.0920 C   0  0  0  0  0  0  0  0  0  0  0  0
   37.4710   25.3250   41.1880 C   0  0  0  0  0  0  0  0  0  0  0  0
   38.0200   24.1380   41.5760 N   0  0  0  0  0  0  0  0  0  0  0  0
   37.7670   22.9780   40.9560 C   0  0  0  0  0  0  0  0  0  0  0  0
   36.9460   22.9160   39.8980 N   0  0  0  0  0  0  0  0  0  0  0  0
   35.6780   24.0950   38.5940 H   0  0  0  0  0  0  0  0  0  0  0  0
   36.1800   26.1620   39.7650 H   0  0  0  0  0  0  0  0  0  0  0  0
   38.2610   22.0860   41.3540 H   0  0  0  0  0  0  0  0  0  0  0  0
  1 27  1  0  0  0  0
  1  5  1  0  0  0  0
  2  3  1  0  0  0  0
  2  1  2  0  0  0  0
  3  4  1  0  0  0  0
  4  5  2  0  0  0  0
  4  6  1  0  0  0  0
  6  7  1  0  0  0  0
  8  6  1  0  0  0  0
  9  2  1  0  0  0  0
 10  9  2  0  0  0  0
 11 10  1  0  0  0  0
 12 11  2  0  0  0  0
 12 13  1  0  0  0  0
 13 14  2  0  0  0  0
 13 20  1  0  0  0  0
 14 15  1  0  0  0  0
 15 17  2  0  0  0  0
 16 15  1  0  0  0  0
 17 19  1  0  0  0  0
 17 18  1  0  0  0  0
 20  9  1  0  0  0  0
 20 19  2  0  0  0  0
 21 22  1  0  0  0  0
 22 23  2  0  0  0  0
 22 27  1  0  0  0  0
 23 24  1  0  0  0  0
 24 28  1  0  0  0  0
 24 25  2  0  0  0  0
 25 29  1  0  0  0  0
 26 25  1  0  0  0  0
 26 30  1  0  0  0  0
 27 26  2  0  0  0  0
 31 36  2  0  0  0  0
 31 32  1  0  0  0  0
 32 33  2  0  0  0  0
 33 34  1  0  0  0  0
 33 23  1  0  0  0  0
 35 39  1  0  0  0  0
 35 34  2  0  0  0  0
 36 35  1  0  0  0  0
 37 31  1  0  0  0  0
 38 32  1  0  0  0  0
M  END
>  <minimizedAffinity>
-6.20530176

$$$$

 OpenBabel03242516073D

 39 43  0  0  0  0  0  0  0  0999 V2000
   36.9770   27.6600   37.6220 C   0  0  0  0  0  0  0  0  0  0  0  0
   37.9630   26.6530   37.7700 C   0  0  0  0  0  0  0  0  0  0  0  0
   38.0020   25.8620   36.1350 S   0  0  0  0  0  0  0  0  0  0  0  0
   36.6540   27.0420   35.5010 C   0  0  0  0  0  0  0  0  0  0  0  0
   36.4760   27.6550   36.4180 N   0  0  0  0  0  0  0  0  0  0  0  0
   36.1010   27.0520   34.1700 N   0  0  0  0  0  0  0  0  0  0  0  0
   35.4060   26.3920   33.7770 H   0  0  0  0  0  0  0  0  0  0  0  0
   36.4860   27.8370   33.5810 H   0  0  0  0  0  0  0  0  0  0  0  0
   38.7430   26.3610   38.9930 C   0  0  0  0  0  0  0  0  0  0  0  0
   39.9480   26.9480   39.0140 N   0  0  0  0  0  0  0  0  0  0  0  0
   40.7860   26.7790   40.0700 C   0  0  0  0  0  3  0  0  0  0  0  0
   40.4300   26.0120   41.1320 N   0  0  0  0  0  0  0  0  0  0  0  0
   39.2210   25.4190   41.1200 C   0  0  0  0  0  0  0  0  0  0  0  0
   38.7620   24.6170   42.1540 C   0  0  0  0  0  3  0  0  0  0  0  0
   37.5260   24.0320   42.1010 C   0  0  0  0  0  0  0  0  0  0  0  0
   37.2230   23.4090   42.9530 H   0  0  0  0  0  0  0  0  0  0  0  0
   36.6790   24.2200   41.0030 C   0  0  0  0  0  0  0  0  0  0  0  0
   35.7060   23.7430   40.9900 H   0  0  0  0  0  0  0  0  0  0  0  0
   37.1070   25.0150   39.9530 C   0  0  0  0  0  3  0  0  0  0  0  0
   38.3540   25.5760   40.0580 C   0  0  0  0  0  0  0  0  0  0  0  0
   38.6590   30.0250   37.9140 Cl  0  0  0  0  0  0  0  0  0  0  0  0
   37.3020   29.7270   38.9750 C   0  0  0  0  0  0  0  0  0  0  0  0
   36.9600   30.5800   39.9880 C   0  0  0  0  0  0  0  0  0  0  0  0
   35.8810   30.2290   40.7410 C   0  0  0  0  0  0  0  0  0  0  0  0
   35.1680   29.1090   40.5260 C   0  0  0  0  0  0  0  0  0  0  0  0
   35.4990   28.2390   39.5110 C   0  0  0  0  0  0  0  0  0  0  0  0
   36.6000   28.5800   38.7270 C   0  0  0  0  0  0  0  0  0  0  0  0
   35.5830   30.8850   41.5540 H   0  0  0  0  0  0  0  0  0  0  0  0
   34.2950   28.7870   41.1050 H   0  0  0  0  0  0  0  0  0  0  0  0
   34.9610   27.3250   39.2920 H   0  0  0  0  0  0  0  0  0  0  0  0
   38.1860   34.1590   39.9140 C   0  0  0  0  0  0  0  0  0  0  0  0
   37.3890   33.0230   39.7240 C   0  0  0  0  0  0  0  0  0  0  0  0
   37.7620   31.7650   40.1690 C   0  0  0  0  0  0  0  0  0  0  0  0
   38.9690   31.7290   40.8070 N   0  0  0  0  0  0  0  0  0  0  0  0
   39.7310   32.8150   40.9880 C   0  0  0  0  0  0  0  0  0  0  0  0
   39.3460   34.0210   40.5480 N   0  0  0  0  0  0  0  0  0  0  0  0
   37.7670   35.0850   39.5120 H   0  0  0  0  0  0  0  0  0  0  0  0
   36.4350   33.0770   39.2160 H   0  0  0  0  0  0  0  0  0  0  0  0
   40.6820   32.6690   41.5130 H   0  0  0  0  0  0  0  0  0  0  0  0
  1  2  2  0  0  0  0
  1 27  1  0  0  0  0
  2  9  1  0  0  0  0
  3  2  1  0  0  0  0
  4  3  1  0  0  0  0
  4  5  2  0  0  0  0
  5  1  1  0  0  0  0
  6  4  1  0  0  0  0
  7  6  1  0  0  0  0
  8  6  1  0  0  0  0
  9 10  2  0  0  0  0
  9 20  1  0  0  0  0
 10 11  1  0  0  0  0
 11 12  2  0  0  0  0
 13 12  1  0  0  0  0
 13 14  1  0  0  0  0
 15 14  2  0  0  0  0
 15 16  1  0  0  0  0
 17 15  1  0  0  0  0
 18 17  1  0  0  0  0
 19 20  1  0  0  0  0
 19 17  2  0  0  0  0
 20 13  2  0  0  0  0
 21 22  1  0  0  0  0
 22 23  1  0  0  0  0
 23 33  1  0  0  0  0
 23 24  2  0  0  0  0
 24 28  1  0  0  0  0
 25 24  1  0  0  0  0
 25 29  1  0  0  0  0
 26 25  2  0  0  0  0
 27 22  2  0  0  0  0
 27 26  1  0  0  0  0
 30 26  1  0  0  0  0
 31 36  1  0  0  0  0
 32 31  2  0  0  0  0
 32 33  1  0  0  0  0
 33 34  2  0  0  0  0
 34 35  1  0  0  0  0
 35 39  1  0  0  0  0
 36 35  2  0  0  0  0
 37 31  1  0  0  0  0
 38 32  1  0  0  0  0
M  END
>  <minimizedAffinity>
-6.14255238

$$$$

 OpenBabel03242516073D

 39 43  0  0  0  0  0  0  0  0999 V2000
   36.7790   29.0270   37.5230 C   0  0  0  0  0  0  0  0  0  0  0  0
   35.9740   28.7620   38.6580 C   0  0  0  0  0  0  0  0  0  0  0  0
   34.2880   28.7570   37.9830 S   0  0  0  0  0  0  0  0  0  0  0  0
   34.9540   29.1190   36.2400 C   0  0  0  0  0  0  0  0  0  0  0  0
   36.0500   29.1640   36.4500 N   0  0  0  0  0  0  0  0  0  0  0  0
   34.1580   29.2630   35.0470 N   0  0  0  0  0  0  0  0  0  0  0  0
   33.5930   30.0840   34.7670 H   0  0  0  0  0  0  0  0  0  0  0  0
   34.1950   28.4050   34.4340 H   0  0  0  0  0  0  0  0  0  0  0  0
   36.4510   28.5510   40.0430 C   0  0  0  0  0  0  0  0  0  0  0  0
   36.5890   29.6860   40.7420 N   0  0  0  0  0  0  0  0  0  0  0  0
   37.0180   29.6630   42.0310 C   0  0  0  0  0  3  0  0  0  0  0  0
   37.3180   28.4910   42.6480 N   0  0  0  0  0  0  0  0  0  0  0  0
   37.1810   27.3450   41.9540 C   0  0  0  0  0  0  0  0  0  0  0  0
   37.4610   26.0980   42.4910 C   0  0  0  0  0  3  0  0  0  0  0  0
   37.3090   24.9570   41.7500 C   0  0  0  0  0  0  0  0  0  0  0  0
   37.5470   24.0020   42.2360 H   0  0  0  0  0  0  0  0  0  0  0  0
   36.8660   25.0060   40.4240 C   0  0  0  0  0  0  0  0  0  0  0  0
   36.7560   24.0860   39.8620 H   0  0  0  0  0  0  0  0  0  0  0  0
   36.5780   26.2360   39.8560 C   0  0  0  0  0  3  0  0  0  0  0  0
   36.7480   27.3460   40.6440 C   0  0  0  0  0  0  0  0  0  0  0  0
   37.8330   31.6680   38.1720 Cl  0  0  0  0  0  0  0  0  0  0  0  0
   38.8880   30.3020   37.8950 C   0  0  0  0  0  0  0  0  0  0  0  0
   40.2500   30.3970   37.9690 C   0  0  0  0  0  0  0  0  0  0  0  0
   40.9550   29.2570   37.7300 C   0  0  0  0  0  0  0  0  0  0  0  0
   40.3710   28.0810   37.4350 C   0  0  0  0  0  0  0  0  0  0  0  0
   39.0020   27.9670   37.3570 C   0  0  0  0  0  0  0  0  0  0  0  0
   38.2610   29.1230   37.5980 C   0  0  0  0  0  0  0  0  0  0  0  0
   42.0390   29.2990   37.7810 H   0  0  0  0  0  0  0  0  0  0  0  0
   40.8970   27.1400   37.2360 H   0  0  0  0  0  0  0  0  0  0  0  0
   38.4790   27.0470   37.1240 H   0  0  0  0  0  0  0  0  0  0  0  0
   41.8850   33.7980   37.6790 C   0  0  0  0  0  0  0  0  0  0  0  0
   41.3400   32.5530   37.3430 C   0  0  0  0  0  0  0  0  0  0  0  0
   40.8170   31.6850   38.2890 C   0  0  0  0  0  0  0  0  0  0  0  0
   40.8790   32.1480   39.5710 N   0  0  0  0  0  0  0  0  0  0  0  0
   41.3990   33.3390   39.8940 C   0  0  0  0  0  0  0  0  0  0  0  0
   41.8990   34.1590   38.9590 N   0  0  0  0  0  0  0  0  0  0  0  0
   42.2600   34.3780   36.8330 H   0  0  0  0  0  0  0  0  0  0  0  0
   41.3030   32.2070   36.3180 H   0  0  0  0  0  0  0  0  0  0  0  0
   41.3970   33.6080   40.9560 H   0  0  0  0  0  0  0  0  0  0  0  0
  1 27  1  0  0  0  0
  1  2  2  0  0  0  0
  2  9  1  0  0  0  0
  3  2  1  0  0  0  0
  4  5  2  0  0  0  0
  4  3  1  0  0  0  0
  5  1  1  0  0  0  0
  6  4  1  0  0  0  0
  7  6  1  0  0  0  0
  8  6  1  0  0  0  0
  9 20  2  0  0  0  0
  9 10  1  0  0  0  0
 10 11  2  0  0  0  0
 11 12  1  0  0  0  0
 13 14  1  0  0  0  0
 13 12  2  0  0  0  0
 15 16  1  0  0  0  0
 15 14  2  0  0  0  0
 17 15  1  0  0  0  0
 18 17  1  0  0  0  0
 19 17  2  0  0  0  0
 19 20  1  0  0  0  0
 20 13  1  0  0  0  0
 22 23  1  0  0  0  0
 22 21  1  0  0  0  0
 23 33  1  0  0  0  0
 24 28  1  0  0  0  0
 24 23  2  0  0  0  0
 25 24  1  0  0  0  0
 26 25  2  0  0  0  0
 26 27  1  0  0  0  0
 27 22  2  0  0  0  0
 29 25  1  0  0  0  0
 30 26  1  0  0  0  0
 31 36  1  0  0  0  0
 32 31  2  0  0  0  0
 32 33  1  0  0  0  0
 33 34  2  0  0  0  0
 34 35  1  0  0  0  0
 35 39  1  0  0  0  0
 36 35  2  0  0  0  0
 37 31  1  0  0  0  0
 38 32  1  0  0  0  0
M  END
>  <minimizedAffinity>
-6.14028978

$$$$

 OpenBabel03242516073D

 39 43  0  0  0  0  0  0  0  0999 V2000
   40.3440   29.7330   40.6050 C   0  0  0  0  0  0  0  0  0  0  0  0
   40.2790   28.6610   41.5290 C   0  0  0  0  0  0  0  0  0  0  0  0
   42.0200   28.1940   41.7500 S   0  0  0  0  0  0  0  0  0  0  0  0
   42.5680   29.5480   40.5350 C   0  0  0  0  0  0  0  0  0  0  0  0
   41.5760   29.9850   40.2620 N   0  0  0  0  0  0  0  0  0  0  0  0
   43.9270   29.8420   40.1570 N   0  0  0  0  0  0  0  0  0  0  0  0
   44.5210   29.3110   39.4960 H   0  0  0  0  0  0  0  0  0  0  0  0
   44.3010   30.7020   40.6400 H   0  0  0  0  0  0  0  0  0  0  0  0
   39.0520   28.0970   42.1360 C   0  0  0  0  0  0  0  0  0  0  0  0
   38.4760   28.9090   43.0330 N   0  0  0  0  0  0  0  0  0  0  0  0
   37.3400   28.5380   43.6800 C   0  0  0  0  0  3  0  0  0  0  0  0
   36.7570   27.3360   43.4370 N   0  0  0  0  0  0  0  0  0  0  0  0
   37.3290   26.5140   42.5360 C   0  0  0  0  0  0  0  0  0  0  0  0
   36.8130   25.2670   42.2170 C   0  0  0  0  0  3  0  0  0  0  0  0
   37.4270   24.4620   41.2950 C   0  0  0  0  0  0  0  0  0  0  0  0
   36.9660   23.4880   41.0870 H   0  0  0  0  0  0  0  0  0  0  0  0
   38.5960   24.8650   40.6420 C   0  0  0  0  0  0  0  0  0  0  0  0
   39.0590   24.2060   39.9170 H   0  0  0  0  0  0  0  0  0  0  0  0
   39.1380   26.1050   40.9380 C   0  0  0  0  0  3  0  0  0  0  0  0
   38.4820   26.8700   41.8690 C   0  0  0  0  0  0  0  0  0  0  0  0
   38.9560   28.4740   38.3690 Cl  0  0  0  0  0  0  0  0  0  0  0  0
   38.3850   29.9650   39.0810 C   0  0  0  0  0  0  0  0  0  0  0  0
   37.2690   30.6140   38.6320 C   0  0  0  0  0  0  0  0  0  0  0  0
   36.9350   31.7670   39.2740 C   0  0  0  0  0  0  0  0  0  0  0  0
   37.6450   32.2690   40.3000 C   0  0  0  0  0  0  0  0  0  0  0  0
   38.7720   31.6290   40.7640 C   0  0  0  0  0  0  0  0  0  0  0  0
   39.1320   30.4460   40.1210 C   0  0  0  0  0  0  0  0  0  0  0  0
   36.0520   32.3070   38.9410 H   0  0  0  0  0  0  0  0  0  0  0  0
   37.4150   33.1920   40.8450 H   0  0  0  0  0  0  0  0  0  0  0  0
   39.3820   31.9860   41.5860 H   0  0  0  0  0  0  0  0  0  0  0  0
   34.7160   28.7090   36.5880 C   0  0  0  0  0  0  0  0  0  0  0  0
   35.3980   29.2670   37.6760 C   0  0  0  0  0  0  0  0  0  0  0  0
   36.5480   30.0270   37.5280 C   0  0  0  0  0  0  0  0  0  0  0  0
   36.9550   30.1840   36.2350 N   0  0  0  0  0  0  0  0  0  0  0  0
   36.3040   29.6500   35.1940 C   0  0  0  0  0  0  0  0  0  0  0  0
   35.1930   28.9190   35.3650 N   0  0  0  0  0  0  0  0  0  0  0  0
   33.8240   28.1340   36.8520 H   0  0  0  0  0  0  0  0  0  0  0  0
   35.0550   29.1290   38.6930 H   0  0  0  0  0  0  0  0  0  0  0  0
   36.7210   29.8390   34.1990 H   0  0  0  0  0  0  0  0  0  0  0  0
  1  2  2  0  0  0  0
  2  3  1  0  0  0  0
  2  9  1  0  0  0  0
  4  3  1  0  0  0  0
  5  4  2  0  0  0  0
  5  1  1  0  0  0  0
  6  4  1  0  0  0  0
  6  8  1  0  0  0  0
  7  6  1  0  0  0  0
  9 10  1  0  0  0  0
 10 11  2  0  0  0  0
 12 11  1  0  0  0  0
 13 12  2  0  0  0  0
 14 13  1  0  0  0  0
 15 14  2  0  0  0  0
 16 15  1  0  0  0  0
 17 19  2  0  0  0  0
 17 15  1  0  0  0  0
 18 17  1  0  0  0  0
 19 20  1  0  0  0  0
 20  9  2  0  0  0  0
 20 13  1  0  0  0  0
 21 22  1  0  0  0  0
 22 27  1  0  0  0  0
 23 22  2  0  0  0  0
 23 24  1  0  0  0  0
 24 25  2  0  0  0  0
 25 26  1  0  0  0  0
 25 29  1  0  0  0  0
 26 30  1  0  0  0  0
 27  1  1  0  0  0  0
 27 26  2  0  0  0  0
 28 24  1  0  0  0  0
 31 37  1  0  0  0  0
 31 32  1  0  0  0  0
 32 38  1  0  0  0  0
 33 32  2  0  0  0  0
 33 23  1  0  0  0  0
 34 33  1  0  0  0  0
 35 36  1  0  0  0  0
 35 34  2  0  0  0  0
 36 31  2  0  0  0  0
 39 35  1  0  0  0  0
M  END
>  <minimizedAffinity>
-6.10042858

$$$$

 OpenBabel03242516073D

 39 43  0  0  0  0  0  0  0  0999 V2000
   38.3010   29.4380   40.5760 C   0  0  0  0  0  0  0  0  0  0  0  0
   37.6120   30.0330   39.4900 C   0  0  0  0  0  0  0  0  0  0  0  0
   38.7300   31.3630   38.9630 S   0  0  0  0  0  0  0  0  0  0  0  0
   39.9750   30.8940   40.3200 C   0  0  0  0  0  0  0  0  0  0  0  0
   39.4400   30.0350   40.7940 N   0  0  0  0  0  0  0  0  0  0  0  0
   41.2410   31.5390   40.5630 N   0  0  0  0  0  0  0  0  0  0  0  0
   41.3980   32.4480   41.0340 H   0  0  0  0  0  0  0  0  0  0  0  0
   42.0550   30.9780   40.1980 H   0  0  0  0  0  0  0  0  0  0  0  0
   36.2930   29.6240   38.9580 C   0  0  0  0  0  0  0  0  0  0  0  0
   35.3200   29.6220   39.8790 N   0  0  0  0  0  0  0  0  0  0  0  0
   34.0500   29.2710   39.5490 C   0  0  0  0  0  3  0  0  0  0  0  0
   33.7290   28.9120   38.2790 N   0  0  0  0  0  0  0  0  0  0  0  0
   34.7010   28.9120   37.3460 C   0  0  0  0  0  0  0  0  0  0  0  0
   34.4780   28.5630   36.0230 C   0  0  0  0  0  3  0  0  0  0  0  0
   35.4950   28.5750   35.1070 C   0  0  0  0  0  0  0  0  0  0  0  0
   35.2510   28.2880   34.0760 H   0  0  0  0  0  0  0  0  0  0  0  0
   36.7960   28.9400   35.4700 C   0  0  0  0  0  0  0  0  0  0  0  0
   37.5800   28.9400   34.7220 H   0  0  0  0  0  0  0  0  0  0  0  0
   37.0530   29.2950   36.7840 C   0  0  0  0  0  3  0  0  0  0  0  0
   35.9980   29.2640   37.6590 C   0  0  0  0  0  0  0  0  0  0  0  0
   38.4320   26.8650   39.2080 Cl  0  0  0  0  0  0  0  0  0  0  0  0
   37.7550   27.0180   40.8120 C   0  0  0  0  0  0  0  0  0  0  0  0
   37.2570   25.9500   41.5050 C   0  0  0  0  0  0  0  0  0  0  0  0
   36.7580   26.2070   42.7460 C   0  0  0  0  0  0  0  0  0  0  0  0
   36.7420   27.4370   43.2900 C   0  0  0  0  0  0  0  0  0  0  0  0
   37.2390   28.5240   42.6060 C   0  0  0  0  0  0  0  0  0  0  0  0
   37.7550   28.2820   41.3350 C   0  0  0  0  0  0  0  0  0  0  0  0
   36.3540   25.3800   43.3230 H   0  0  0  0  0  0  0  0  0  0  0  0
   36.3510   27.6910   44.2830 H   0  0  0  0  0  0  0  0  0  0  0  0
   37.2520   29.5350   42.9960 H   0  0  0  0  0  0  0  0  0  0  0  0
   36.3360   22.8770   39.4980 C   0  0  0  0  0  0  0  0  0  0  0  0
   36.2680   24.1360   40.1060 C   0  0  0  0  0  0  0  0  0  0  0  0
   37.3020   24.6550   40.8690 C   0  0  0  0  0  0  0  0  0  0  0  0
   38.3880   23.8360   40.9750 N   0  0  0  0  0  0  0  0  0  0  0  0
   38.4540   22.6310   40.3940 C   0  0  0  0  0  0  0  0  0  0  0  0
   37.4390   22.1530   39.6610 N   0  0  0  0  0  0  0  0  0  0  0  0
   35.4480   22.5950   38.9260 H   0  0  0  0  0  0  0  0  0  0  0  0
   35.3950   24.7680   40.0070 H   0  0  0  0  0  0  0  0  0  0  0  0
   39.3750   22.0580   40.5470 H   0  0  0  0  0  0  0  0  0  0  0  0
  1  5  1  0  0  0  0
  1 27  1  0  0  0  0
  2  1  2  0  0  0  0
  3  2  1  0  0  0  0
  3  4  1  0  0  0  0
  4  6  1  0  0  0  0
  4  5  2  0  0  0  0
  6  7  1  0  0  0  0
  8  6  1  0  0  0  0
  9  2  1  0  0  0  0
  9 10  1  0  0  0  0
 11 10  2  0  0  0  0
 12 11  1  0  0  0  0
 13 20  1  0  0  0  0
 13 12  2  0  0  0  0
 14 13  1  0  0  0  0
 15 17  1  0  0  0  0
 15 14  2  0  0  0  0
 16 15  1  0  0  0  0
 17 19  2  0  0  0  0
 18 17  1  0  0  0  0
 19 20  1  0  0  0  0
 20  9  2  0  0  0  0
 21 22  1  0  0  0  0
 22 27  2  0  0  0  0
 22 23  1  0  0  0  0
 23 24  2  0  0  0  0
 24 25  1  0  0  0  0
 24 28  1  0  0  0  0
 25 29  1  0  0  0  0
 26 30  1  0  0  0  0
 26 25  2  0  0  0  0
 27 26  1  0  0  0  0
 31 36  2  0  0  0  0
 31 32  1  0  0  0  0
 32 33  2  0  0  0  0
 33 34  1  0  0  0  0
 33 23  1  0  0  0  0
 35 39  1  0  0  0  0
 35 34  2  0  0  0  0
 36 35  1  0  0  0  0
 37 31  1  0  0  0  0
 38 32  1  0  0  0  0
M  END
>  <minimizedAffinity>
-6.09890604

$$$$

 OpenBabel03242516073D

 39 43  0  0  0  0  0  0  0  0999 V2000
   38.3330   29.8830   38.5220 C   0  0  0  0  0  0  0  0  0  0  0  0
   39.3830   28.9890   38.8430 C   0  0  0  0  0  0  0  0  0  0  0  0
   40.8630   29.8450   38.2300 S   0  0  0  0  0  0  0  0  0  0  0  0
   39.8040   31.3030   37.6260 C   0  0  0  0  0  0  0  0  0  0  0  0
   38.7880   30.9510   37.9280 N   0  0  0  0  0  0  0  0  0  0  0  0
   40.2980   32.4920   36.9780 N   0  0  0  0  0  0  0  0  0  0  0  0
   40.6040   32.5860   35.9930 H   0  0  0  0  0  0  0  0  0  0  0  0
   40.3300   33.3210   37.6300 H   0  0  0  0  0  0  0  0  0  0  0  0
   39.2460   27.6790   39.5190 C   0  0  0  0  0  0  0  0  0  0  0  0
   39.0600   26.6560   38.6730 N   0  0  0  0  0  0  0  0  0  0  0  0
   38.9170   25.3870   39.1360 C   0  0  0  0  0  3  0  0  0  0  0  0
   38.9590   25.1180   40.4660 N   0  0  0  0  0  0  0  0  0  0  0  0
   39.1460   26.1390   41.3230 C   0  0  0  0  0  0  0  0  0  0  0  0
   39.2040   25.9710   42.6990 C   0  0  0  0  0  3  0  0  0  0  0  0
   39.3950   27.0370   43.5350 C   0  0  0  0  0  0  0  0  0  0  0  0
   39.4320   26.8350   44.6130 H   0  0  0  0  0  0  0  0  0  0  0  0
   39.5400   28.3360   43.0360 C   0  0  0  0  0  0  0  0  0  0  0  0
   39.6900   29.1600   43.7230 H   0  0  0  0  0  0  0  0  0  0  0  0
   39.4870   28.5390   41.6660 C   0  0  0  0  0  3  0  0  0  0  0  0
   39.2930   27.4360   40.8750 C   0  0  0  0  0  0  0  0  0  0  0  0
   36.7560   28.7590   36.3400 Cl  0  0  0  0  0  0  0  0  0  0  0  0
   36.0580   29.0640   37.9140 C   0  0  0  0  0  0  0  0  0  0  0  0
   34.7500   28.7930   38.2030 C   0  0  0  0  0  0  0  0  0  0  0  0
   34.3340   29.0790   39.4670 C   0  0  0  0  0  0  0  0  0  0  0  0
   35.1430   29.6010   40.4070 C   0  0  0  0  0  0  0  0  0  0  0  0
   36.4630   29.8800   40.1320 C   0  0  0  0  0  0  0  0  0  0  0  0
   36.9100   29.5950   38.8440 C   0  0  0  0  0  0  0  0  0  0  0  0
   33.2990   28.8760   39.7290 H   0  0  0  0  0  0  0  0  0  0  0  0
   34.8520   29.8460   41.4350 H   0  0  0  0  0  0  0  0  0  0  0  0
   37.1590   30.2990   40.8490 H   0  0  0  0  0  0  0  0  0  0  0  0
   32.9650   26.3550   35.9240 C   0  0  0  0  0  0  0  0  0  0  0  0
   33.7660   26.8730   36.9490 C   0  0  0  0  0  0  0  0  0  0  0  0
   33.9310   28.2340   37.1540 C   0  0  0  0  0  0  0  0  0  0  0  0
   33.2470   29.0220   36.2750 N   0  0  0  0  0  0  0  0  0  0  0  0
   32.4800   28.5280   35.2950 C   0  0  0  0  0  0  0  0  0  0  0  0
   32.3380   27.2070   35.1180 N   0  0  0  0  0  0  0  0  0  0  0  0
   32.9260   25.2640   35.8790 H   0  0  0  0  0  0  0  0  0  0  0  0
   34.2990   26.2270   37.6340 H   0  0  0  0  0  0  0  0  0  0  0  0
   31.9770   29.2540   34.6470 H   0  0  0  0  0  0  0  0  0  0  0  0
  1  2  2  0  0  0  0
  1 27  1  0  0  0  0
  2  9  1  0  0  0  0
  3  2  1  0  0  0  0
  4  5  2  0  0  0  0
  4  3  1  0  0  0  0
  5  1  1  0  0  0  0
  6  4  1  0  0  0  0
  6  8  1  0  0  0  0
  7  6  1  0  0  0  0
  9 20  1  0  0  0  0
 10 11  1  0  0  0  0
 10  9  2  0  0  0  0
 11 12  2  0  0  0  0
 12 13  1  0  0  0  0
 13 14  1  0  0  0  0
 14 15  2  0  0  0  0
 15 16  1  0  0  0  0
 17 15  1  0  0  0  0
 17 18  1  0  0  0  0
 19 17  2  0  0  0  0
 20 13  2  0  0  0  0
 20 19  1  0  0  0  0
 21 22  1  0  0  0  0
 22 23  2  0  0  0  0
 22 27  1  0  0  0  0
 23 24  1  0  0  0  0
 24 28  1  0  0  0  0
 24 25  2  0  0  0  0
 25 29  1  0  0  0  0
 26 25  1  0  0  0  0
 26 30  1  0  0  0  0
 27 26  2  0  0  0  0
 31 32  1  0  0  0  0
 32 33  2  0  0  0  0
 32 38  1  0  0  0  0
 33 23  1  0  0  0  0
 34 33  1  0  0  0  0
 35 34  2  0  0  0  0
 36 35  1  0  0  0  0
 36 31  2  0  0  0  0
 37 31  1  0  0  0  0
 39 35  1  0  0  0  0
M  END
>  <minimizedAffinity>
-5.98030853

$$$$

 OpenBabel03242516073D

 39 43  0  0  0  0  0  0  0  0999 V2000
   40.2290   31.1450   38.1460 C   0  0  0  0  0  0  0  0  0  0  0  0
   40.2200   31.4790   39.5230 C   0  0  0  0  0  0  0  0  0  0  0  0
   41.1910   33.0120   39.5870 S   0  0  0  0  0  0  0  0  0  0  0  0
   41.4590   32.9560   37.7060 C   0  0  0  0  0  0  0  0  0  0  0  0
   40.9020   32.0210   37.4530 N   0  0  0  0  0  0  0  0  0  0  0  0
   42.1910   33.9240   36.9300 N   0  0  0  0  0  0  0  0  0  0  0  0
   43.2200   34.0170   36.8560 H   0  0  0  0  0  0  0  0  0  0  0  0
   41.5550   34.5810   36.4040 H   0  0  0  0  0  0  0  0  0  0  0  0
   39.5600   30.7180   40.6070 C   0  0  0  0  0  0  0  0  0  0  0  0
   38.2890   31.0860   40.8230 N   0  0  0  0  0  0  0  0  0  0  0  0
   37.5440   30.4820   41.7850 C   0  0  0  0  0  3  0  0  0  0  0  0
   38.0630   29.4910   42.5540 N   0  0  0  0  0  0  0  0  0  0  0  0
   39.3390   29.1140   42.3440 C   0  0  0  0  0  0  0  0  0  0  0  0
   39.9620   28.1140   43.0750 C   0  0  0  0  0  3  0  0  0  0  0  0
   41.2620   27.7630   42.8290 C   0  0  0  0  0  0  0  0  0  0  0  0
   41.6950   26.9630   43.4420 H   0  0  0  0  0  0  0  0  0  0  0  0
   42.0100   28.3990   41.8320 C   0  0  0  0  0  0  0  0  0  0  0  0
   43.0370   28.0990   41.6610 H   0  0  0  0  0  0  0  0  0  0  0  0
   41.4180   29.4030   41.0840 C   0  0  0  0  0  3  0  0  0  0  0  0
   40.1140   29.7140   41.3730 C   0  0  0  0  0  0  0  0  0  0  0  0
   37.3750   31.4530   37.6300 Cl  0  0  0  0  0  0  0  0  0  0  0  0
   38.2050   29.9460   37.3220 C   0  0  0  0  0  0  0  0  0  0  0  0
   37.5670   28.8430   36.8260 C   0  0  0  0  0  0  0  0  0  0  0  0
   38.3310   27.7330   36.6330 C   0  0  0  0  0  0  0  0  0  0  0  0
   39.6480   27.6910   36.9050 C   0  0  0  0  0  0  0  0  0  0  0  0
   40.3050   28.7920   37.4050 C   0  0  0  0  0  0  0  0  0  0  0  0
   39.5420   29.9390   37.6100 C   0  0  0  0  0  0  0  0  0  0  0  0
   37.8540   26.8390   36.2410 H   0  0  0  0  0  0  0  0  0  0  0  0
   40.3010   26.8210   36.7660 H   0  0  0  0  0  0  0  0  0  0  0  0
   41.3630   28.8150   37.6410 H   0  0  0  0  0  0  0  0  0  0  0  0
   34.2520   29.2870   35.0550 C   0  0  0  0  0  0  0  0  0  0  0  0
   35.6280   29.1890   35.2940 C   0  0  0  0  0  0  0  0  0  0  0  0
   36.1540   28.9490   36.5540 C   0  0  0  0  0  0  0  0  0  0  0  0
   35.2170   28.8160   37.5370 N   0  0  0  0  0  0  0  0  0  0  0  0
   33.9010   28.9090   37.3100 C   0  0  0  0  0  0  0  0  0  0  0  0
   33.4190   29.1420   36.0810 N   0  0  0  0  0  0  0  0  0  0  0  0
   33.9800   29.4790   34.0140 H   0  0  0  0  0  0  0  0  0  0  0  0
   36.3530   29.2980   34.4970 H   0  0  0  0  0  0  0  0  0  0  0  0
   33.2400   28.7860   38.1750 H   0  0  0  0  0  0  0  0  0  0  0  0
  1  2  2  0  0  0  0
  2  3  1  0  0  0  0
  2  9  1  0  0  0  0
  4  3  1  0  0  0  0
  5  4  2  0  0  0  0
  5  1  1  0  0  0  0
  6  4  1  0  0  0  0
  7  6  1  0  0  0  0
  8  6  1  0  0  0  0
  9 10  2  0  0  0  0
  9 20  1  0  0  0  0
 10 11  1  0  0  0  0
 11 12  2  0  0  0  0
 13 12  1  0  0  0  0
 13 14  1  0  0  0  0
 15 14  2  0  0  0  0
 15 16  1  0  0  0  0
 17 15  1  0  0  0  0
 18 17  1  0  0  0  0
 19 20  1  0  0  0  0
 19 17  2  0  0  0  0
 20 13  2  0  0  0  0
 22 27  1  0  0  0  0
 22 21  1  0  0  0  0
 23 22  2  0  0  0  0
 24 23  1  0  0  0  0
 24 25  2  0  0  0  0
 25 26  1  0  0  0  0
 26 27  2  0  0  0  0
 26 30  1  0  0  0  0
 27  1  1  0  0  0  0
 28 24  1  0  0  0  0
 29 25  1  0  0  0  0
 31 32  2  0  0  0  0
 31 36  1  0  0  0  0
 32 33  1  0  0  0  0
 33 23  1  0  0  0  0
 33 34  2  0  0  0  0
 35 34  1  0  0  0  0
 35 39  1  0  0  0  0
 36 35  2  0  0  0  0
 37 31  1  0  0  0  0
 38 32  1  0  0  0  0
M  END
>  <minimizedAffinity>
-5.95155859

$$$$
