
 OpenBabel03252506583D

 41 46  0  0  0  0  0  0  0  0999 V2000
   40.9270   31.7660   38.2480 C   0  0  0  0  0  0  0  0  0  0  0  0
   42.0680   32.4100   37.8120 C   0  0  0  0  0  0  0  0  0  0  0  0
   42.3420   33.7260   38.1310 C   0  0  0  0  0  0  0  0  0  0  0  0
   41.4450   34.4570   38.9240 C   0  0  0  0  0  0  0  0  0  0  0  0
   41.3820   35.7220   39.4220 N   0  0  0  0  0  0  0  0  0  0  0  0
   40.2340   35.8400   40.1410 C   0  0  0  0  0  0  0  0  0  0  0  0
   39.6080   34.6440   40.0730 N   0  0  0  0  0  0  0  0  0  0  0  0
   40.3230   33.7810   39.3380 C   0  0  0  0  0  0  0  0  0  0  0  0
   40.0260   32.4900   39.0410 C   0  0  0  0  0  0  0  0  0  0  0  0
   40.7100   30.7250   37.9950 H   0  0  0  0  0  0  0  0  0  0  0  0
   43.2280   34.2410   37.7970 H   0  0  0  0  0  0  0  0  0  0  0  0
   42.1550   36.3650   39.2040 H   0  0  0  0  0  0  0  0  0  0  0  0
   39.9750   36.7570   40.6290 H   0  0  0  0  0  0  0  0  0  0  0  0
   45.2250   31.3800   36.2290 C   0  0  0  0  0  0  0  0  0  0  0  0
   44.8230   30.3260   35.4140 C   0  0  0  0  0  0  0  0  0  0  0  0
   43.4620   29.9660   35.4050 C   0  0  0  0  0  0  0  0  0  0  0  0
   42.6050   30.6750   36.2030 N   0  0  0  0  0  0  0  0  0  0  0  0
   43.0360   31.7010   36.9880 C   0  0  0  0  0  0  0  0  0  0  0  0
   44.3360   32.0530   37.0030 N   0  0  0  0  0  0  0  0  0  0  0  0
   46.2760   31.6090   36.1940 H   0  0  0  0  0  0  0  0  0  0  0  0
   45.4500   29.7450   34.7760 H   0  0  0  0  0  0  0  0  0  0  0  0
   43.0030   29.1760   34.8290 H   0  0  0  0  0  0  0  0  0  0  0  0
   38.7960   31.8510   39.5330 C   0  0  0  0  0  0  0  0  0  0  0  0
   37.5190   32.2490   39.2350 C   0  0  0  0  0  0  0  0  0  0  0  0
   36.7360   31.3230   39.9430 C   0  0  0  0  0  0  0  0  0  0  0  0
   37.5340   30.4420   40.6120 C   0  0  0  0  0  0  0  0  0  0  0  0
   38.7500   30.8280   40.3120 O   0  0  0  0  0  0  0  0  0  0  0  0
   37.1700   33.0620   38.6190 H   0  0  0  0  0  0  0  0  0  0  0  0
   35.6900   31.3580   39.8820 H   0  0  0  0  0  0  0  0  0  0  0  0
   37.3870   29.2930   41.4810 C   0  0  0  0  0  0  0  0  0  0  0  0
   37.5380   29.4370   42.8260 N   0  0  0  0  0  0  0  0  0  0  0  0
   37.5240   28.4340   43.6790 C   0  0  0  0  0  3  0  0  0  0  0  0
   37.3570   27.1530   43.3060 N   0  0  0  0  0  0  0  0  0  0  0  0
   37.1930   26.8870   41.9760 C   0  0  0  0  0  0  0  0  0  0  0  0
   36.9900   25.6190   41.5360 C   0  0  0  0  0  3  0  0  0  0  0  0
   36.7890   25.3260   40.2010 C   0  0  0  0  0  0  0  0  0  0  0  0
   36.6440   24.2880   39.9840 H   0  0  0  0  0  0  0  0  0  0  0  0
   36.8070   26.4260   39.3430 C   0  0  0  0  0  0  0  0  0  0  0  0
   36.6430   26.1570   38.2930 H   0  0  0  0  0  0  0  0  0  0  0  0
   37.0160   27.6920   39.8290 C   0  0  0  0  0  3  0  0  0  0  0  0
   37.2180   27.9790   41.1480 C   0  0  0  0  0  0  0  0  0  0  0  0
  1  9  1  0  0  0  0
  2  3  1  0  0  0  0
  2  1  2  0  0  0  0
  3  4  2  0  0  0  0
  4  8  1  0  0  0  0
  4  5  1  0  0  0  0
  5  6  1  0  0  0  0
  6 13  1  0  0  0  0
  7  6  2  0  0  0  0
  8  7  1  0  0  0  0
  9  8  2  0  0  0  0
  9 23  1  0  0  0  0
 10  1  1  0  0  0  0
 11  3  1  0  0  0  0
 12  5  1  0  0  0  0
 14 19  1  0  0  0  0
 15 14  2  0  0  0  0
 16 15  1  0  0  0  0
 16 17  2  0  0  0  0
 17 18  1  0  0  0  0
 18 19  2  0  0  0  0
 18  2  1  0  0  0  0
 20 14  1  0  0  0  0
 21 15  1  0  0  0  0
 22 16  1  0  0  0  0
 23 27  1  0  0  0  0
 24 23  2  0  0  0  0
 24 25  1  0  0  0  0
 25 26  2  0  0  0  0
 26 30  1  0  0  0  0
 27 26  1  0  0  0  0
 28 24  1  0  0  0  0
 29 25  1  0  0  0  0
 30 31  1  0  0  0  0
 31 32  2  0  0  0  0
 33 32  1  0  0  0  0
 34 33  2  0  0  0  0
 35 34  1  0  0  0  0
 36 35  2  0  0  0  0
 37 36  1  0  0  0  0
 38 40  2  0  0  0  0
 38 36  1  0  0  0  0
 39 38  1  0  0  0  0
 40 41  1  0  0  0  0
 41 30  2  0  0  0  0
 41 34  1  0  0  0  0
M  END
>  <minimizedAffinity>
-7.75517178

$$$$

 OpenBabel03252506583D

 41 46  0  0  0  0  0  0  0  0999 V2000
   41.3230   32.6780   41.3330 C   0  0  0  0  0  0  0  0  0  0  0  0
   41.6660   33.9810   41.0290 C   0  0  0  0  0  0  0  0  0  0  0  0
   40.7760   34.8620   40.4460 C   0  0  0  0  0  0  0  0  0  0  0  0
   39.4720   34.4450   40.1400 C   0  0  0  0  0  0  0  0  0  0  0  0
   38.3660   35.0090   39.5850 N   0  0  0  0  0  0  0  0  0  0  0  0
   37.3800   34.0740   39.5550 C   0  0  0  0  0  0  0  0  0  0  0  0
   37.8960   32.9470   40.0910 N   0  0  0  0  0  0  0  0  0  0  0  0
   39.1700   33.1420   40.4580 C   0  0  0  0  0  0  0  0  0  0  0  0
   40.0220   32.2530   41.0300 C   0  0  0  0  0  0  0  0  0  0  0  0
   42.0260   31.9800   41.7940 H   0  0  0  0  0  0  0  0  0  0  0  0
   41.0310   35.8810   40.2030 H   0  0  0  0  0  0  0  0  0  0  0  0
   38.4240   35.9930   39.2890 H   0  0  0  0  0  0  0  0  0  0  0  0
   36.4110   34.3000   39.1570 H   0  0  0  0  0  0  0  0  0  0  0  0
   44.4500   35.8490   42.5410 C   0  0  0  0  0  0  0  0  0  0  0  0
   45.5530   35.3590   41.8470 C   0  0  0  0  0  0  0  0  0  0  0  0
   45.3420   34.3840   40.8530 C   0  0  0  0  0  0  0  0  0  0  0  0
   44.0580   33.9680   40.6240 N   0  0  0  0  0  0  0  0  0  0  0  0
   43.0030   34.4700   41.3250 C   0  0  0  0  0  0  0  0  0  0  0  0
   43.1950   35.4040   42.2780 N   0  0  0  0  0  0  0  0  0  0  0  0
   44.6740   36.5910   43.2880 H   0  0  0  0  0  0  0  0  0  0  0  0
   46.5700   35.6510   41.9880 H   0  0  0  0  0  0  0  0  0  0  0  0
   46.0930   33.9140   40.2360 H   0  0  0  0  0  0  0  0  0  0  0  0
   39.6050   30.8750   41.3340 C   0  0  0  0  0  0  0  0  0  0  0  0
   39.7140   30.2630   42.5550 C   0  0  0  0  0  0  0  0  0  0  0  0
   39.1840   28.9870   42.3060 C   0  0  0  0  0  0  0  0  0  0  0  0
   38.7940   28.8820   41.0020 C   0  0  0  0  0  0  0  0  0  0  0  0
   39.0810   30.0560   40.4940 O   0  0  0  0  0  0  0  0  0  0  0  0
   40.1030   30.6360   43.4890 H   0  0  0  0  0  0  0  0  0  0  0  0
   39.1060   28.2850   43.0810 H   0  0  0  0  0  0  0  0  0  0  0  0
   38.1940   27.8960   40.1280 C   0  0  0  0  0  0  0  0  0  0  0  0
   38.0360   28.1720   38.8040 N   0  0  0  0  0  0  0  0  0  0  0  0
   37.4100   27.3800   37.9590 C   0  0  0  0  0  3  0  0  0  0  0  0
   36.8590   26.2080   38.3180 N   0  0  0  0  0  0  0  0  0  0  0  0
   36.9570   25.8250   39.6250 C   0  0  0  0  0  0  0  0  0  0  0  0
   36.4480   24.6400   40.0480 C   0  0  0  0  0  3  0  0  0  0  0  0
   36.5620   24.2140   41.3560 C   0  0  0  0  0  0  0  0  0  0  0  0
   36.1160   23.2620   41.5620 H   0  0  0  0  0  0  0  0  0  0  0  0
   37.2400   25.0880   42.2080 C   0  0  0  0  0  0  0  0  0  0  0  0
   37.3130   24.7170   43.2370 H   0  0  0  0  0  0  0  0  0  0  0  0
   37.7400   26.2770   41.7400 C   0  0  0  0  0  3  0  0  0  0  0  0
   37.6220   26.6970   40.4480 C   0  0  0  0  0  0  0  0  0  0  0  0
  1 10  1  0  0  0  0
  2 18  1  0  0  0  0
  2  1  2  0  0  0  0
  3  2  1  0  0  0  0
  4  3  2  0  0  0  0
  4  8  1  0  0  0  0
  5  4  1  0  0  0  0
  6  5  1  0  0  0  0
  6  7  2  0  0  0  0
  7  8  1  0  0  0  0
  8  9  2  0  0  0  0
  9  1  1  0  0  0  0
  9 23  1  0  0  0  0
 11  3  1  0  0  0  0
 12  5  1  0  0  0  0
 13  6  1  0  0  0  0
 14 20  1  0  0  0  0
 15 21  1  0  0  0  0
 15 14  2  0  0  0  0
 16 15  1  0  0  0  0
 17 16  2  0  0  0  0
 17 18  1  0  0  0  0
 18 19  2  0  0  0  0
 19 14  1  0  0  0  0
 22 16  1  0  0  0  0
 23 24  2  0  0  0  0
 24 28  1  0  0  0  0
 25 24  1  0  0  0  0
 25 29  1  0  0  0  0
 26 25  2  0  0  0  0
 27 26  1  0  0  0  0
 27 23  1  0  0  0  0
 30 41  1  0  0  0  0
 30 26  1  0  0  0  0
 31 30  2  0  0  0  0
 32 33  2  0  0  0  0
 32 31  1  0  0  0  0
 33 34  1  0  0  0  0
 34 35  2  0  0  0  0
 34 41  1  0  0  0  0
 35 36  1  0  0  0  0
 36 37  1  0  0  0  0
 36 38  2  0  0  0  0
 38 39  1  0  0  0  0
 40 38  1  0  0  0  0
 41 40  2  0  0  0  0
M  END
>  <minimizedAffinity>
-7.20508528

$$$$

 OpenBabel03252506583D

 41 46  0  0  0  0  0  0  0  0999 V2000
   37.1220   26.7540   39.8750 C   0  0  0  0  0  0  0  0  0  0  0  0
   37.0500   25.6630   40.7190 C   0  0  0  0  0  0  0  0  0  0  0  0
   37.1350   25.7840   42.0930 C   0  0  0  0  0  0  0  0  0  0  0  0
   37.3020   27.0490   42.6770 C   0  0  0  0  0  0  0  0  0  0  0  0
   37.4210   27.5380   43.9410 N   0  0  0  0  0  0  0  0  0  0  0  0
   37.5610   28.8880   43.8640 C   0  0  0  0  0  0  0  0  0  0  0  0
   37.5260   29.2090   42.5520 N   0  0  0  0  0  0  0  0  0  0  0  0
   37.3690   28.1080   41.8040 C   0  0  0  0  0  0  0  0  0  0  0  0
   37.2880   28.0210   40.4510 C   0  0  0  0  0  0  0  0  0  0  0  0
   37.0550   26.6590   38.7880 H   0  0  0  0  0  0  0  0  0  0  0  0
   37.0810   24.9420   42.7630 H   0  0  0  0  0  0  0  0  0  0  0  0
   37.3900   26.8690   44.7210 H   0  0  0  0  0  0  0  0  0  0  0  0
   37.6710   29.4870   44.7460 H   0  0  0  0  0  0  0  0  0  0  0  0
   35.6750   22.7920   38.8760 C   0  0  0  0  0  0  0  0  0  0  0  0
   36.5950   21.7850   39.1580 C   0  0  0  0  0  0  0  0  0  0  0  0
   37.6920   22.0910   39.9860 C   0  0  0  0  0  0  0  0  0  0  0  0
   37.7950   23.3680   40.4690 N   0  0  0  0  0  0  0  0  0  0  0  0
   36.8750   24.3270   40.1710 C   0  0  0  0  0  0  0  0  0  0  0  0
   35.8220   24.0440   39.3800 N   0  0  0  0  0  0  0  0  0  0  0  0
   34.8590   22.4990   38.2390 H   0  0  0  0  0  0  0  0  0  0  0  0
   36.5580   20.7790   38.8070 H   0  0  0  0  0  0  0  0  0  0  0  0
   38.4810   21.4210   40.2910 H   0  0  0  0  0  0  0  0  0  0  0  0
   37.3700   29.2160   39.5970 C   0  0  0  0  0  0  0  0  0  0  0  0
   36.3520   29.7160   38.8300 C   0  0  0  0  0  0  0  0  0  0  0  0
   36.9430   30.8380   38.2280 C   0  0  0  0  0  0  0  0  0  0  0  0
   38.2380   30.9660   38.6360 C   0  0  0  0  0  0  0  0  0  0  0  0
   38.4120   29.9560   39.4540 O   0  0  0  0  0  0  0  0  0  0  0  0
   35.3410   29.3610   38.6970 H   0  0  0  0  0  0  0  0  0  0  0  0
   36.3820   31.4550   37.5920 H   0  0  0  0  0  0  0  0  0  0  0  0
   39.3580   31.8580   38.4190 C   0  0  0  0  0  0  0  0  0  0  0  0
   40.3360   31.5140   37.5360 N   0  0  0  0  0  0  0  0  0  0  0  0
   41.4380   32.2120   37.3530 C   0  0  0  0  0  3  0  0  0  0  0  0
   41.7120   33.3450   38.0220 N   0  0  0  0  0  0  0  0  0  0  0  0
   40.7990   33.7890   38.9350 C   0  0  0  0  0  0  0  0  0  0  0  0
   41.0010   34.9410   39.6230 C   0  0  0  0  0  3  0  0  0  0  0  0
   40.0790   35.4310   40.5280 C   0  0  0  0  0  0  0  0  0  0  0  0
   40.3580   36.3470   41.0060 H   0  0  0  0  0  0  0  0  0  0  0  0
   38.9270   34.6560   40.6790 C   0  0  0  0  0  0  0  0  0  0  0  0
   38.2180   35.0750   41.4020 H   0  0  0  0  0  0  0  0  0  0  0  0
   38.7620   33.4970   39.9640 C   0  0  0  0  0  3  0  0  0  0  0  0
   39.6770   33.0150   39.0730 C   0  0  0  0  0  0  0  0  0  0  0  0
  1  9  2  0  0  0  0
  1  2  1  0  0  0  0
  2  3  2  0  0  0  0
  3  4  1  0  0  0  0
  3 11  1  0  0  0  0
  4  5  1  0  0  0  0
  5 12  1  0  0  0  0
  6  5  1  0  0  0  0
  6 13  1  0  0  0  0
  7  6  2  0  0  0  0
  8  7  1  0  0  0  0
  8  4  2  0  0  0  0
  9  8  1  0  0  0  0
 10  1  1  0  0  0  0
 14 15  2  0  0  0  0
 14 19  1  0  0  0  0
 15 16  1  0  0  0  0
 16 22  1  0  0  0  0
 16 17  2  0  0  0  0
 18 17  1  0  0  0  0
 18  2  1  0  0  0  0
 19 18  2  0  0  0  0
 20 14  1  0  0  0  0
 21 15  1  0  0  0  0
 23  9  1  0  0  0  0
 24 23  2  0  0  0  0
 25 26  2  0  0  0  0
 25 24  1  0  0  0  0
 26 27  1  0  0  0  0
 27 23  1  0  0  0  0
 28 24  1  0  0  0  0
 29 25  1  0  0  0  0
 30 26  1  0  0  0  0
 30 41  1  0  0  0  0
 31 30  2  0  0  0  0
 32 31  1  0  0  0  0
 32 33  2  0  0  0  0
 33 34  1  0  0  0  0
 34 41  2  0  0  0  0
 34 35  1  0  0  0  0
 35 36  2  0  0  0  0
 36 38  1  0  0  0  0
 36 37  1  0  0  0  0
 38 39  1  0  0  0  0
 40 38  2  0  0  0  0
 41 40  1  0  0  0  0
M  END
>  <minimizedAffinity>
-7.15316916

$$$$

 OpenBabel03252506583D

 41 46  0  0  0  0  0  0  0  0999 V2000
   37.0080   27.2480   39.5780 C   0  0  0  0  0  0  0  0  0  0  0  0
   36.8930   26.0540   40.2640 C   0  0  0  0  0  0  0  0  0  0  0  0
   36.9980   25.9800   41.6390 C   0  0  0  0  0  0  0  0  0  0  0  0
   37.2310   27.1420   42.3900 C   0  0  0  0  0  0  0  0  0  0  0  0
   37.3860   27.4440   43.7070 N   0  0  0  0  0  0  0  0  0  0  0  0
   37.5890   28.7840   43.8160 C   0  0  0  0  0  0  0  0  0  0  0  0
   37.5560   29.2860   42.5620 N   0  0  0  0  0  0  0  0  0  0  0  0
   37.3390   28.3080   41.6710 C   0  0  0  0  0  0  0  0  0  0  0  0
   37.2410   28.4130   40.3210 C   0  0  0  0  0  0  0  0  0  0  0  0
   36.9260   27.3070   38.4890 H   0  0  0  0  0  0  0  0  0  0  0  0
   36.9100   25.0560   42.1870 H   0  0  0  0  0  0  0  0  0  0  0  0
   37.3310   26.6750   44.3880 H   0  0  0  0  0  0  0  0  0  0  0  0
   37.7360   29.2500   44.7700 H   0  0  0  0  0  0  0  0  0  0  0  0
   35.6060   23.6340   37.8110 C   0  0  0  0  0  0  0  0  0  0  0  0
   36.2260   22.4510   38.2030 C   0  0  0  0  0  0  0  0  0  0  0  0
   37.0900   22.4810   39.3140 C   0  0  0  0  0  0  0  0  0  0  0  0
   37.2740   23.6790   39.9520 N   0  0  0  0  0  0  0  0  0  0  0  0
   36.6490   24.8170   39.5390 C   0  0  0  0  0  0  0  0  0  0  0  0
   35.8210   24.7970   38.4770 N   0  0  0  0  0  0  0  0  0  0  0  0
   34.9580   23.5490   36.9560 H   0  0  0  0  0  0  0  0  0  0  0  0
   36.1150   21.4960   37.7400 H   0  0  0  0  0  0  0  0  0  0  0  0
   37.6380   21.6510   39.7330 H   0  0  0  0  0  0  0  0  0  0  0  0
   37.3710   29.7100   39.6390 C   0  0  0  0  0  0  0  0  0  0  0  0
   36.6390   30.1150   38.5540 C   0  0  0  0  0  0  0  0  0  0  0  0
   37.1450   31.4000   38.3050 C   0  0  0  0  0  0  0  0  0  0  0  0
   38.1210   31.7080   39.2070 C   0  0  0  0  0  0  0  0  0  0  0  0
   38.1920   30.6430   39.9680 O   0  0  0  0  0  0  0  0  0  0  0  0
   35.8640   29.6020   38.0070 H   0  0  0  0  0  0  0  0  0  0  0  0
   36.7470   31.9860   37.5320 H   0  0  0  0  0  0  0  0  0  0  0  0
   39.0070   32.8130   39.5090 C   0  0  0  0  0  0  0  0  0  0  0  0
   38.6540   33.7240   40.4580 N   0  0  0  0  0  0  0  0  0  0  0  0
   39.3450   34.8120   40.7240 C   0  0  0  0  0  3  0  0  0  0  0  0
   40.4810   35.1390   40.0830 N   0  0  0  0  0  0  0  0  0  0  0  0
   40.9340   34.2950   39.1090 C   0  0  0  0  0  0  0  0  0  0  0  0
   42.0890   34.5510   38.4430 C   0  0  0  0  0  3  0  0  0  0  0  0
   42.5870   33.6990   37.4770 C   0  0  0  0  0  0  0  0  0  0  0  0
   43.5050   34.0150   37.0250 H   0  0  0  0  0  0  0  0  0  0  0  0
   41.8190   32.5580   37.2390 C   0  0  0  0  0  0  0  0  0  0  0  0
   42.2440   31.9040   36.4690 H   0  0  0  0  0  0  0  0  0  0  0  0
   40.6570   32.3370   37.9350 C   0  0  0  0  0  3  0  0  0  0  0  0
   40.1650   33.1830   38.8860 C   0  0  0  0  0  0  0  0  0  0  0  0
  1  2  2  0  0  0  0
  1  9  1  0  0  0  0
  2  3  1  0  0  0  0
  3 11  1  0  0  0  0
  3  4  2  0  0  0  0
  4  5  1  0  0  0  0
  5  6  1  0  0  0  0
  5 12  1  0  0  0  0
  6 13  1  0  0  0  0
  7  6  2  0  0  0  0
  8  4  1  0  0  0  0
  8  7  1  0  0  0  0
  9  8  2  0  0  0  0
 10  1  1  0  0  0  0
 14 15  2  0  0  0  0
 14 19  1  0  0  0  0
 15 16  1  0  0  0  0
 16 22  1  0  0  0  0
 16 17  2  0  0  0  0
 18 17  1  0  0  0  0
 18  2  1  0  0  0  0
 19 18  2  0  0  0  0
 20 14  1  0  0  0  0
 21 15  1  0  0  0  0
 23 27  1  0  0  0  0
 23  9  1  0  0  0  0
 24 23  2  0  0  0  0
 25 24  1  0  0  0  0
 25 26  2  0  0  0  0
 26 30  1  0  0  0  0
 26 27  1  0  0  0  0
 28 24  1  0  0  0  0
 29 25  1  0  0  0  0
 30 31  1  0  0  0  0
 31 32  2  0  0  0  0
 33 32  1  0  0  0  0
 34 33  2  0  0  0  0
 35 34  1  0  0  0  0
 36 35  2  0  0  0  0
 37 36  1  0  0  0  0
 38 36  1  0  0  0  0
 38 40  2  0  0  0  0
 39 38  1  0  0  0  0
 40 41  1  0  0  0  0
 41 34  1  0  0  0  0
 41 30  2  0  0  0  0
M  END
>  <minimizedAffinity>
-6.94681215

$$$$

 OpenBabel03252506583D

 41 46  0  0  0  0  0  0  0  0999 V2000
   36.5280   30.6580   38.6230 C   0  0  0  0  0  0  0  0  0  0  0  0
   35.7210   29.5370   38.6480 C   0  0  0  0  0  0  0  0  0  0  0  0
   35.6450   28.7070   39.7500 C   0  0  0  0  0  0  0  0  0  0  0  0
   36.4040   28.9890   40.8960 C   0  0  0  0  0  0  0  0  0  0  0  0
   36.5800   28.4230   42.1200 N   0  0  0  0  0  0  0  0  0  0  0  0
   37.4690   29.1800   42.8160 C   0  0  0  0  0  0  0  0  0  0  0  0
   37.8260   30.2020   42.0080 N   0  0  0  0  0  0  0  0  0  0  0  0
   37.1930   30.1120   40.8300 C   0  0  0  0  0  0  0  0  0  0  0  0
   37.2890   30.9470   39.7630 C   0  0  0  0  0  0  0  0  0  0  0  0
   36.5890   31.3150   37.7510 H   0  0  0  0  0  0  0  0  0  0  0  0
   35.0200   27.8290   39.7840 H   0  0  0  0  0  0  0  0  0  0  0  0
   36.0550   27.5640   42.3340 H   0  0  0  0  0  0  0  0  0  0  0  0
   37.7590   28.9210   43.8150 H   0  0  0  0  0  0  0  0  0  0  0  0
   34.6820   28.8410   35.1890 C   0  0  0  0  0  0  0  0  0  0  0  0
   33.3300   28.5410   35.3360 C   0  0  0  0  0  0  0  0  0  0  0  0
   32.7710   28.5780   36.6270 C   0  0  0  0  0  0  0  0  0  0  0  0
   33.5910   28.9080   37.6730 N   0  0  0  0  0  0  0  0  0  0  0  0
   34.9100   29.1960   37.4910 C   0  0  0  0  0  0  0  0  0  0  0  0
   35.4540   29.1630   36.2580 N   0  0  0  0  0  0  0  0  0  0  0  0
   35.0520   28.7960   34.1800 H   0  0  0  0  0  0  0  0  0  0  0  0
   32.6520   28.2790   34.5550 H   0  0  0  0  0  0  0  0  0  0  0  0
   31.7460   28.3710   36.8970 H   0  0  0  0  0  0  0  0  0  0  0  0
   38.1640   32.1290   39.7880 C   0  0  0  0  0  0  0  0  0  0  0  0
   37.8240   33.3590   40.2850 C   0  0  0  0  0  0  0  0  0  0  0  0
   38.9910   34.1100   40.0700 C   0  0  0  0  0  0  0  0  0  0  0  0
   39.9470   33.3400   39.4760 C   0  0  0  0  0  0  0  0  0  0  0  0
   39.3700   32.1700   39.3440 O   0  0  0  0  0  0  0  0  0  0  0  0
   36.9040   33.6990   40.7340 H   0  0  0  0  0  0  0  0  0  0  0  0
   39.0430   35.1090   40.3850 H   0  0  0  0  0  0  0  0  0  0  0  0
   41.3100   33.4760   39.0090 C   0  0  0  0  0  0  0  0  0  0  0  0
   41.6220   33.1450   37.7250 N   0  0  0  0  0  0  0  0  0  0  0  0
   42.8490   33.1390   37.2460 C   0  0  0  0  0  3  0  0  0  0  0  0
   43.9280   33.4640   37.9790 N   0  0  0  0  0  0  0  0  0  0  0  0
   43.7350   33.8160   39.2850 C   0  0  0  0  0  0  0  0  0  0  0  0
   44.7780   34.1820   40.0720 C   0  0  0  0  0  3  0  0  0  0  0  0
   44.6090   34.5740   41.3850 C   0  0  0  0  0  0  0  0  0  0  0  0
   45.5110   34.8360   41.8990 H   0  0  0  0  0  0  0  0  0  0  0  0
   43.2890   34.5680   41.8400 C   0  0  0  0  0  0  0  0  0  0  0  0
   43.1910   34.8860   42.8850 H   0  0  0  0  0  0  0  0  0  0  0  0
   42.2630   34.1910   41.0110 C   0  0  0  0  0  3  0  0  0  0  0  0
   42.4340   33.8000   39.7150 C   0  0  0  0  0  0  0  0  0  0  0  0
  1  2  2  0  0  0  0
  1  9  1  0  0  0  0
  2  3  1  0  0  0  0
  3 11  1  0  0  0  0
  3  4  2  0  0  0  0
  4  5  1  0  0  0  0
  5 12  1  0  0  0  0
  5  6  1  0  0  0  0
  6 13  1  0  0  0  0
  7  6  2  0  0  0  0
  8  4  1  0  0  0  0
  8  7  1  0  0  0  0
  9 23  1  0  0  0  0
  9  8  2  0  0  0  0
 10  1  1  0  0  0  0
 14 15  2  0  0  0  0
 14 19  1  0  0  0  0
 15 16  1  0  0  0  0
 16 22  1  0  0  0  0
 16 17  2  0  0  0  0
 18 17  1  0  0  0  0
 18  2  1  0  0  0  0
 19 18  2  0  0  0  0
 20 14  1  0  0  0  0
 21 15  1  0  0  0  0
 23 24  2  0  0  0  0
 24 28  1  0  0  0  0
 25 24  1  0  0  0  0
 25 29  1  0  0  0  0
 26 25  2  0  0  0  0
 27 26  1  0  0  0  0
 27 23  1  0  0  0  0
 30 26  1  0  0  0  0
 30 41  1  0  0  0  0
 31 30  2  0  0  0  0
 32 31  1  0  0  0  0
 32 33  2  0  0  0  0
 33 34  1  0  0  0  0
 34 41  2  0  0  0  0
 34 35  1  0  0  0  0
 35 36  2  0  0  0  0
 36 38  1  0  0  0  0
 36 37  1  0  0  0  0
 38 39  1  0  0  0  0
 40 38  2  0  0  0  0
 41 40  1  0  0  0  0
M  END
>  <minimizedAffinity>
-6.8650775

$$$$

 OpenBabel03252506583D

 41 46  0  0  0  0  0  0  0  0999 V2000
   36.9640   25.8660   40.6120 C   0  0  0  0  0  0  0  0  0  0  0  0
   37.3060   24.5610   40.9050 C   0  0  0  0  0  0  0  0  0  0  0  0
   38.2290   24.2410   41.8830 C   0  0  0  0  0  0  0  0  0  0  0  0
   38.8550   25.2590   42.6170 C   0  0  0  0  0  0  0  0  0  0  0  0
   39.7770   25.3240   43.6160 N   0  0  0  0  0  0  0  0  0  0  0  0
   39.9860   26.6320   43.9190 C   0  0  0  0  0  0  0  0  0  0  0  0
   39.1890   27.3540   43.1000 N   0  0  0  0  0  0  0  0  0  0  0  0
   38.4870   26.5430   42.2950 C   0  0  0  0  0  0  0  0  0  0  0  0
   37.5850   26.8890   41.3410 C   0  0  0  0  0  0  0  0  0  0  0  0
   36.2350   26.1200   39.8380 H   0  0  0  0  0  0  0  0  0  0  0  0
   38.5060   23.2270   42.1220 H   0  0  0  0  0  0  0  0  0  0  0  0
   40.1580   24.4390   43.9770 H   0  0  0  0  0  0  0  0  0  0  0  0
   40.6770   26.9230   44.6840 H   0  0  0  0  0  0  0  0  0  0  0  0
   34.8330   22.4950   39.1310 C   0  0  0  0  0  0  0  0  0  0  0  0
   35.5700   21.3610   38.8010 C   0  0  0  0  0  0  0  0  0  0  0  0
   36.9210   21.3030   39.1900 C   0  0  0  0  0  0  0  0  0  0  0  0
   37.4400   22.3700   39.8730 N   0  0  0  0  0  0  0  0  0  0  0  0
   36.6880   23.4640   40.1780 C   0  0  0  0  0  0  0  0  0  0  0  0
   35.3930   23.5280   39.8100 N   0  0  0  0  0  0  0  0  0  0  0  0
   33.8070   22.4830   38.8080 H   0  0  0  0  0  0  0  0  0  0  0  0
   35.2120   20.5070   38.2720 H   0  0  0  0  0  0  0  0  0  0  0  0
   37.6150   20.4950   39.0070 H   0  0  0  0  0  0  0  0  0  0  0  0
   37.2550   28.2970   41.0680 C   0  0  0  0  0  0  0  0  0  0  0  0
   35.9950   28.8320   41.0690 C   0  0  0  0  0  0  0  0  0  0  0  0
   36.2340   30.1800   40.7570 C   0  0  0  0  0  0  0  0  0  0  0  0
   37.5700   30.3960   40.5850 C   0  0  0  0  0  0  0  0  0  0  0  0
   38.1080   29.2190   40.7900 O   0  0  0  0  0  0  0  0  0  0  0  0
   35.0400   28.3660   41.2570 H   0  0  0  0  0  0  0  0  0  0  0  0
   35.4390   30.8630   40.7150 H   0  0  0  0  0  0  0  0  0  0  0  0
   38.4570   31.4970   40.2720 C   0  0  0  0  0  0  0  0  0  0  0  0
   38.3020   32.6930   40.9050 N   0  0  0  0  0  0  0  0  0  0  0  0
   38.9930   33.7740   40.6110 C   0  0  0  0  0  3  0  0  0  0  0  0
   39.9300   33.8100   39.6480 N   0  0  0  0  0  0  0  0  0  0  0  0
   40.1740   32.6650   38.9450 C   0  0  0  0  0  0  0  0  0  0  0  0
   41.1270   32.6250   37.9790 C   0  0  0  0  0  3  0  0  0  0  0  0
   41.4160   31.4720   37.2760 C   0  0  0  0  0  0  0  0  0  0  0  0
   42.1870   31.5730   36.5400 H   0  0  0  0  0  0  0  0  0  0  0  0
   40.6590   30.3540   37.6330 C   0  0  0  0  0  0  0  0  0  0  0  0
   40.9160   29.4580   37.0560 H   0  0  0  0  0  0  0  0  0  0  0  0
   39.7050   30.4370   38.6150 C   0  0  0  0  0  3  0  0  0  0  0  0
   39.4190   31.5790   39.3050 C   0  0  0  0  0  0  0  0  0  0  0  0
  1  2  2  0  0  0  0
  1  9  1  0  0  0  0
  2  3  1  0  0  0  0
  3 11  1  0  0  0  0
  3  4  2  0  0  0  0
  4  5  1  0  0  0  0
  5  6  1  0  0  0  0
  5 12  1  0  0  0  0
  6 13  1  0  0  0  0
  7  6  2  0  0  0  0
  8  4  1  0  0  0  0
  8  7  1  0  0  0  0
  9  8  2  0  0  0  0
 10  1  1  0  0  0  0
 14 19  1  0  0  0  0
 15 14  2  0  0  0  0
 15 16  1  0  0  0  0
 16 17  2  0  0  0  0
 17 18  1  0  0  0  0
 18  2  1  0  0  0  0
 19 18  2  0  0  0  0
 20 14  1  0  0  0  0
 21 15  1  0  0  0  0
 22 16  1  0  0  0  0
 23 24  2  0  0  0  0
 23  9  1  0  0  0  0
 24 28  1  0  0  0  0
 25 24  1  0  0  0  0
 26 25  2  0  0  0  0
 26 27  1  0  0  0  0
 27 23  1  0  0  0  0
 29 25  1  0  0  0  0
 30 26  1  0  0  0  0
 30 31  1  0  0  0  0
 32 31  2  0  0  0  0
 33 32  1  0  0  0  0
 34 41  1  0  0  0  0
 34 33  2  0  0  0  0
 35 34  1  0  0  0  0
 36 38  1  0  0  0  0
 36 35  2  0  0  0  0
 37 36  1  0  0  0  0
 38 40  2  0  0  0  0
 39 38  1  0  0  0  0
 40 41  1  0  0  0  0
 41 30  2  0  0  0  0
M  END
>  <minimizedAffinity>
-6.80333281

$$$$

 OpenBabel03252506583D

 41 46  0  0  0  0  0  0  0  0999 V2000
   38.4150   31.4910   40.0710 C   0  0  0  0  0  0  0  0  0  0  0  0
   38.7870   32.4540   39.1530 C   0  0  0  0  0  0  0  0  0  0  0  0
   38.4870   32.3490   37.8080 C   0  0  0  0  0  0  0  0  0  0  0  0
   37.7810   31.2330   37.3320 C   0  0  0  0  0  0  0  0  0  0  0  0
   37.3250   30.8040   36.1250 N   0  0  0  0  0  0  0  0  0  0  0  0
   36.6940   29.6130   36.3070 C   0  0  0  0  0  0  0  0  0  0  0  0
   36.7730   29.3280   37.6250 N   0  0  0  0  0  0  0  0  0  0  0  0
   37.4300   30.2990   38.2760 C   0  0  0  0  0  0  0  0  0  0  0  0
   37.7100   30.3740   39.6030 C   0  0  0  0  0  0  0  0  0  0  0  0
   38.6530   31.5740   41.1340 H   0  0  0  0  0  0  0  0  0  0  0  0
   38.7710   33.0920   37.0810 H   0  0  0  0  0  0  0  0  0  0  0  0
   37.5060   31.3950   35.3030 H   0  0  0  0  0  0  0  0  0  0  0  0
   36.2520   29.0860   35.4850 H   0  0  0  0  0  0  0  0  0  0  0  0
   39.5790   35.7390   40.6080 C   0  0  0  0  0  0  0  0  0  0  0  0
   40.9510   35.8390   40.3950 C   0  0  0  0  0  0  0  0  0  0  0  0
   41.6090   34.7760   39.7480 C   0  0  0  0  0  0  0  0  0  0  0  0
   40.8600   33.6960   39.3630 N   0  0  0  0  0  0  0  0  0  0  0  0
   39.5180   33.6340   39.5890 C   0  0  0  0  0  0  0  0  0  0  0  0
   38.8800   34.6460   40.2070 N   0  0  0  0  0  0  0  0  0  0  0  0
   39.1320   36.5810   41.1070 H   0  0  0  0  0  0  0  0  0  0  0  0
   41.5760   36.6560   40.6760 H   0  0  0  0  0  0  0  0  0  0  0  0
   42.6620   34.7100   39.5150 H   0  0  0  0  0  0  0  0  0  0  0  0
   37.2900   29.3200   40.5390 C   0  0  0  0  0  0  0  0  0  0  0  0
   36.1890   29.3710   41.3510 C   0  0  0  0  0  0  0  0  0  0  0  0
   36.2470   28.1410   42.0250 C   0  0  0  0  0  0  0  0  0  0  0  0
   37.3340   27.4270   41.6130 C   0  0  0  0  0  0  0  0  0  0  0  0
   37.9020   28.2040   40.7230 O   0  0  0  0  0  0  0  0  0  0  0  0
   35.4460   30.1450   41.4690 H   0  0  0  0  0  0  0  0  0  0  0  0
   35.4980   27.8760   42.7090 H   0  0  0  0  0  0  0  0  0  0  0  0
   37.9510   26.1450   41.8810 C   0  0  0  0  0  0  0  0  0  0  0  0
   38.9510   26.0540   42.8010 N   0  0  0  0  0  0  0  0  0  0  0  0
   39.6370   24.9540   43.0330 C   0  0  0  0  0  3  0  0  0  0  0  0
   39.4190   23.7980   42.3820 N   0  0  0  0  0  0  0  0  0  0  0  0
   38.4360   23.7700   41.4350 C   0  0  0  0  0  0  0  0  0  0  0  0
   38.1450   22.6280   40.7620 C   0  0  0  0  0  3  0  0  0  0  0  0
   37.1340   22.5630   39.8230 C   0  0  0  0  0  0  0  0  0  0  0  0
   37.0070   21.6050   39.3620 H   0  0  0  0  0  0  0  0  0  0  0  0
   36.4350   23.7540   39.6200 C   0  0  0  0  0  0  0  0  0  0  0  0
   35.6400   23.6660   38.8710 H   0  0  0  0  0  0  0  0  0  0  0  0
   36.7610   24.8870   40.3220 C   0  0  0  0  0  3  0  0  0  0  0  0
   37.7630   24.9490   41.2460 C   0  0  0  0  0  0  0  0  0  0  0  0
  1 10  1  0  0  0  0
  2 18  1  0  0  0  0
  2  1  2  0  0  0  0
  3  2  1  0  0  0  0
  4  3  2  0  0  0  0
  4  8  1  0  0  0  0
  5  6  1  0  0  0  0
  5  4  1  0  0  0  0
  6  7  2  0  0  0  0
  7  8  1  0  0  0  0
  8  9  2  0  0  0  0
  9  1  1  0  0  0  0
  9 23  1  0  0  0  0
 11  3  1  0  0  0  0
 12  5  1  0  0  0  0
 13  6  1  0  0  0  0
 14 20  1  0  0  0  0
 15 14  1  0  0  0  0
 15 21  1  0  0  0  0
 16 15  2  0  0  0  0
 17 18  2  0  0  0  0
 17 16  1  0  0  0  0
 18 19  1  0  0  0  0
 19 14  2  0  0  0  0
 22 16  1  0  0  0  0
 23 27  1  0  0  0  0
 23 24  2  0  0  0  0
 24 28  1  0  0  0  0
 24 25  1  0  0  0  0
 25 29  1  0  0  0  0
 26 30  1  0  0  0  0
 26 25  2  0  0  0  0
 27 26  1  0  0  0  0
 30 31  1  0  0  0  0
 31 32  2  0  0  0  0
 33 32  1  0  0  0  0
 34 33  2  0  0  0  0
 35 34  1  0  0  0  0
 36 35  2  0  0  0  0
 37 36  1  0  0  0  0
 38 36  1  0  0  0  0
 38 40  2  0  0  0  0
 39 38  1  0  0  0  0
 40 41  1  0  0  0  0
 41 34  1  0  0  0  0
 41 30  2  0  0  0  0
M  END
>  <minimizedAffinity>
-6.75743914

$$$$

 OpenBabel03252506583D

 41 46  0  0  0  0  0  0  0  0999 V2000
   37.2560   29.8860   38.8730 C   0  0  0  0  0  0  0  0  0  0  0  0
   36.8630   30.1660   37.5790 C   0  0  0  0  0  0  0  0  0  0  0  0
   37.5970   30.9880   36.7460 C   0  0  0  0  0  0  0  0  0  0  0  0
   38.7870   31.5720   37.2050 C   0  0  0  0  0  0  0  0  0  0  0  0
   39.7350   32.4010   36.6910 N   0  0  0  0  0  0  0  0  0  0  0  0
   40.6770   32.6160   37.6480 C   0  0  0  0  0  0  0  0  0  0  0  0
   40.2920   31.9160   38.7380 N   0  0  0  0  0  0  0  0  0  0  0  0
   39.1440   31.2680   38.4970 C   0  0  0  0  0  0  0  0  0  0  0  0
   38.4440   30.4660   39.3400 C   0  0  0  0  0  0  0  0  0  0  0  0
   36.6750   29.2370   39.5340 H   0  0  0  0  0  0  0  0  0  0  0  0
   37.3020   31.2160   35.7340 H   0  0  0  0  0  0  0  0  0  0  0  0
   39.6180   32.7250   35.7220 H   0  0  0  0  0  0  0  0  0  0  0  0
   41.5260   33.2430   37.4620 H   0  0  0  0  0  0  0  0  0  0  0  0
   34.3410   28.8580   35.2430 C   0  0  0  0  0  0  0  0  0  0  0  0
   33.3050   28.4870   36.0950 C   0  0  0  0  0  0  0  0  0  0  0  0
   33.4710   28.6860   37.4790 C   0  0  0  0  0  0  0  0  0  0  0  0
   34.6470   29.2360   37.9130 N   0  0  0  0  0  0  0  0  0  0  0  0
   35.6390   29.5880   37.0470 C   0  0  0  0  0  0  0  0  0  0  0  0
   35.4900   29.4010   35.7220 N   0  0  0  0  0  0  0  0  0  0  0  0
   34.1570   28.6820   34.1970 H   0  0  0  0  0  0  0  0  0  0  0  0
   32.3730   28.0550   35.8070 H   0  0  0  0  0  0  0  0  0  0  0  0
   32.7620   28.4490   38.2580 H   0  0  0  0  0  0  0  0  0  0  0  0
   38.9080   30.1990   40.7100 C   0  0  0  0  0  0  0  0  0  0  0  0
   38.9340   31.1100   41.7320 C   0  0  0  0  0  0  0  0  0  0  0  0
   39.4520   30.3590   42.7990 C   0  0  0  0  0  0  0  0  0  0  0  0
   39.7080   29.0810   42.3990 C   0  0  0  0  0  0  0  0  0  0  0  0
   39.3540   29.0700   41.1360 O   0  0  0  0  0  0  0  0  0  0  0  0
   38.6410   32.1480   41.7470 H   0  0  0  0  0  0  0  0  0  0  0  0
   39.5620   30.7930   43.7480 H   0  0  0  0  0  0  0  0  0  0  0  0
   40.2170   27.8500   42.9660 C   0  0  0  0  0  0  0  0  0  0  0  0
   41.4020   27.8520   43.6370 N   0  0  0  0  0  0  0  0  0  0  0  0
   41.9890   26.7660   44.0940 C   0  0  0  0  0  3  0  0  0  0  0  0
   41.4750   25.5330   43.9470 N   0  0  0  0  0  0  0  0  0  0  0  0
   40.2840   25.4080   43.2900 C   0  0  0  0  0  0  0  0  0  0  0  0
   39.6950   24.1950   43.1320 C   0  0  0  0  0  3  0  0  0  0  0  0
   38.4760   24.0440   42.5010 C   0  0  0  0  0  0  0  0  0  0  0  0
   38.1210   23.0360   42.4400 H   0  0  0  0  0  0  0  0  0  0  0  0
   37.8950   25.2270   42.0420 C   0  0  0  0  0  0  0  0  0  0  0  0
   36.9290   25.0700   41.5480 H   0  0  0  0  0  0  0  0  0  0  0  0
   38.5240   26.4330   42.2210 C   0  0  0  0  0  3  0  0  0  0  0  0
   39.7300   26.5790   42.8420 C   0  0  0  0  0  0  0  0  0  0  0  0
  1  9  1  0  0  0  0
  1 10  1  0  0  0  0
  2  1  2  0  0  0  0
  3  4  2  0  0  0  0
  3  2  1  0  0  0  0
  4  8  1  0  0  0  0
  5  4  1  0  0  0  0
  5  6  1  0  0  0  0
  6  7  2  0  0  0  0
  8  7  1  0  0  0  0
  8  9  2  0  0  0  0
  9 23  1  0  0  0  0
 11  3  1  0  0  0  0
 12  5  1  0  0  0  0
 13  6  1  0  0  0  0
 14 19  2  0  0  0  0
 14 15  1  0  0  0  0
 15 16  2  0  0  0  0
 16 17  1  0  0  0  0
 16 22  1  0  0  0  0
 18  2  1  0  0  0  0
 18 17  2  0  0  0  0
 19 18  1  0  0  0  0
 20 14  1  0  0  0  0
 21 15  1  0  0  0  0
 23 27  1  0  0  0  0
 23 24  2  0  0  0  0
 24 28  1  0  0  0  0
 24 25  1  0  0  0  0
 25 29  1  0  0  0  0
 26 25  2  0  0  0  0
 26 30  1  0  0  0  0
 27 26  1  0  0  0  0
 30 31  1  0  0  0  0
 31 32  2  0  0  0  0
 33 32  1  0  0  0  0
 34 33  2  0  0  0  0
 35 34  1  0  0  0  0
 36 35  2  0  0  0  0
 37 36  1  0  0  0  0
 38 40  2  0  0  0  0
 38 36  1  0  0  0  0
 39 38  1  0  0  0  0
 40 41  1  0  0  0  0
 41 30  2  0  0  0  0
 41 34  1  0  0  0  0
M  END
>  <minimizedAffinity>
-6.69396114

$$$$

 OpenBabel03252506583D

 41 46  0  0  0  0  0  0  0  0999 V2000
   39.4470   30.8020   41.7580 C   0  0  0  0  0  0  0  0  0  0  0  0
   40.4750   31.7160   41.6300 C   0  0  0  0  0  0  0  0  0  0  0  0
   41.7650   31.4380   42.0390 C   0  0  0  0  0  0  0  0  0  0  0  0
   42.0690   30.1920   42.6080 C   0  0  0  0  0  0  0  0  0  0  0  0
   43.1790   29.5860   43.1070 N   0  0  0  0  0  0  0  0  0  0  0  0
   42.8330   28.3390   43.5250 C   0  0  0  0  0  0  0  0  0  0  0  0
   41.5130   28.1980   43.2770 N   0  0  0  0  0  0  0  0  0  0  0  0
   41.0190   29.3120   42.7180 C   0  0  0  0  0  0  0  0  0  0  0  0
   39.7420   29.5550   42.3260 C   0  0  0  0  0  0  0  0  0  0  0  0
   38.4260   31.0220   41.4360 H   0  0  0  0  0  0  0  0  0  0  0  0
   42.5770   32.1410   41.9460 H   0  0  0  0  0  0  0  0  0  0  0  0
   44.0620   30.1140   43.0980 H   0  0  0  0  0  0  0  0  0  0  0  0
   43.5560   27.6760   43.9560 H   0  0  0  0  0  0  0  0  0  0  0  0
   38.7420   34.7090   40.3780 C   0  0  0  0  0  0  0  0  0  0  0  0
   39.7960   35.5030   39.9350 C   0  0  0  0  0  0  0  0  0  0  0  0
   41.1080   35.0100   40.0650 C   0  0  0  0  0  0  0  0  0  0  0  0
   41.2770   33.7710   40.6230 N   0  0  0  0  0  0  0  0  0  0  0  0
   40.2200   33.0230   41.0460 C   0  0  0  0  0  0  0  0  0  0  0  0
   38.9610   33.4860   40.9250 N   0  0  0  0  0  0  0  0  0  0  0  0
   37.7630   35.1380   40.2520 H   0  0  0  0  0  0  0  0  0  0  0  0
   39.7170   36.4720   39.4950 H   0  0  0  0  0  0  0  0  0  0  0  0
   42.0210   35.5080   39.7700 H   0  0  0  0  0  0  0  0  0  0  0  0
   38.6830   28.5460   42.4840 C   0  0  0  0  0  0  0  0  0  0  0  0
   37.7390   28.5330   43.4760 C   0  0  0  0  0  0  0  0  0  0  0  0
   36.9900   27.3850   43.1720 C   0  0  0  0  0  0  0  0  0  0  0  0
   37.4890   26.7750   42.0590 C   0  0  0  0  0  0  0  0  0  0  0  0
   38.5000   27.5350   41.7110 O   0  0  0  0  0  0  0  0  0  0  0  0
   37.5830   29.2150   44.2980 H   0  0  0  0  0  0  0  0  0  0  0  0
   36.1580   27.1260   43.7550 H   0  0  0  0  0  0  0  0  0  0  0  0
   37.2040   25.6160   41.2400 C   0  0  0  0  0  0  0  0  0  0  0  0
   37.5700   24.3770   41.6700 N   0  0  0  0  0  0  0  0  0  0  0  0
   37.4440   23.2820   40.9490 C   0  0  0  0  0  3  0  0  0  0  0  0
   36.9370   23.2750   39.7040 N   0  0  0  0  0  0  0  0  0  0  0  0
   36.5330   24.4640   39.1670 C   0  0  0  0  0  0  0  0  0  0  0  0
   35.9860   24.5230   37.9270 C   0  0  0  0  0  3  0  0  0  0  0  0
   35.5390   25.7060   37.3730 C   0  0  0  0  0  0  0  0  0  0  0  0
   35.1300   25.6180   36.3880 H   0  0  0  0  0  0  0  0  0  0  0  0
   35.6900   26.8340   38.1830 C   0  0  0  0  0  0  0  0  0  0  0  0
   35.3250   27.7540   37.7130 H   0  0  0  0  0  0  0  0  0  0  0  0
   36.2490   26.7310   39.4310 C   0  0  0  0  0  3  0  0  0  0  0  0
   36.6930   25.5610   39.9740 C   0  0  0  0  0  0  0  0  0  0  0  0
  1  9  1  0  0  0  0
  2  1  2  0  0  0  0
  2  3  1  0  0  0  0
  3  4  2  0  0  0  0
  4  8  1  0  0  0  0
  4  5  1  0  0  0  0
  5  6  1  0  0  0  0
  6 13  1  0  0  0  0
  7  6  2  0  0  0  0
  8  7  1  0  0  0  0
  9 23  1  0  0  0  0
  9  8  2  0  0  0  0
 10  1  1  0  0  0  0
 11  3  1  0  0  0  0
 12  5  1  0  0  0  0
 14 19  1  0  0  0  0
 15 16  1  0  0  0  0
 15 14  2  0  0  0  0
 16 17  2  0  0  0  0
 17 18  1  0  0  0  0
 18  2  1  0  0  0  0
 19 18  2  0  0  0  0
 20 14  1  0  0  0  0
 21 15  1  0  0  0  0
 22 16  1  0  0  0  0
 23 24  2  0  0  0  0
 24 28  1  0  0  0  0
 25 24  1  0  0  0  0
 25 29  1  0  0  0  0
 26 25  2  0  0  0  0
 27 26  1  0  0  0  0
 27 23  1  0  0  0  0
 30 31  1  0  0  0  0
 30 26  1  0  0  0  0
 32 31  2  0  0  0  0
 33 32  1  0  0  0  0
 34 33  2  0  0  0  0
 34 41  1  0  0  0  0
 35 34  1  0  0  0  0
 36 35  2  0  0  0  0
 36 38  1  0  0  0  0
 37 36  1  0  0  0  0
 38 40  2  0  0  0  0
 39 38  1  0  0  0  0
 40 41  1  0  0  0  0
 41 30  2  0  0  0  0
M  END
>  <minimizedAffinity>
-6.6865387

$$$$
