
     RDKit          3D

 49 53  0  0  0  0  0  0  0  0999 V2000
   46.4291   32.9619   46.4596 C   0  0  2  0  0  0  0  0  0  0  0  0
   46.9803   31.7407   45.7758 C   0  0  0  0  0  0  0  0  0  0  0  0
   46.0975   30.5537   45.8106 C   0  0  0  0  0  0  0  0  0  0  0  0
   45.8218   30.2933   47.2854 C   0  0  0  0  0  0  0  0  0  0  0  0
   45.0387   31.3625   47.8874 C   0  0  0  0  0  0  0  0  0  0  0  0
   45.3853   32.7343   47.4320 C   0  0  0  0  0  0  0  0  0  0  0  0
   44.5676   35.5648   44.6162 C   0  0  0  0  0  0  0  0  0  0  0  0
   45.2205   35.5753   43.3624 C   0  0  0  0  0  0  0  0  0  0  0  0
   46.3010   34.6732   43.1700 C   0  0  0  0  0  0  0  0  0  0  0  0
   46.6446   33.8539   44.1991 N   0  0  0  0  0  0  0  0  0  0  0  0
   46.0009   33.8720   45.3770 C   0  0  0  0  0  0  0  0  0  0  0  0
   44.9545   34.7321   45.5907 N   0  0  0  0  0  0  0  0  0  0  0  0
   47.0019   34.6591   41.8993 C   0  0  0  0  0  0  0  0  0  0  0  0
   48.1378   35.3856   41.7752 C   0  0  0  0  0  0  0  0  0  0  0  0
   48.7716   35.3233   40.5150 C   0  0  0  0  0  0  0  0  0  0  0  0
   48.1662   34.5363   39.5618 C   0  0  0  0  0  0  0  0  0  0  0  0
   47.0250   33.8056   39.6795 C   0  0  0  0  0  0  0  0  0  0  0  0
   46.5084   33.9402   40.9235 N   0  0  0  0  0  0  0  0  0  0  0  0
   44.6974   33.8622   47.9414 N   0  0  0  0  0  0  0  0  0  0  0  0
   47.2829   33.5012   46.9643 H   0  0  0  0  0  0  0  0  0  0  0  0
   47.2671   31.9348   44.7139 H   0  0  0  0  0  0  0  0  0  0  0  0
   47.9313   31.4651   46.2758 H   0  0  0  0  0  0  0  0  0  0  0  0
   45.1143   30.7382   45.3516 H   0  0  0  0  0  0  0  0  0  0  0  0
   46.6587   29.7019   45.3894 H   0  0  0  0  0  0  0  0  0  0  0  0
   45.1458   29.4030   47.2795 H   0  0  0  0  0  0  0  0  0  0  0  0
   46.7263   29.9865   47.8378 H   0  0  0  0  0  0  0  0  0  0  0  0
   44.2520   31.4529   48.5933 H   0  0  0  0  0  0  0  0  0  0  0  0
   43.7594   36.2669   44.7042 H   0  0  0  0  0  0  0  0  0  0  0  0
   44.9589   36.2161   42.5443 H   0  0  0  0  0  0  0  0  0  0  0  0
   48.5431   35.9738   42.5686 H   0  0  0  0  0  0  0  0  0  0  0  0
   49.6647   35.8788   40.3784 H   0  0  0  0  0  0  0  0  0  0  0  0
   48.7293   34.5510   38.6240 H   0  0  0  0  0  0  0  0  0  0  0  0
   45.1272   34.5335   48.6178 H   0  0  0  0  0  0  0  0  0  0  0  0
   43.7122   33.9914   47.5967 H   0  0  0  0  0  0  0  0  0  0  0  0
   46.5817   33.0542   38.5294 C   0  0  0  0  0  0  0  0  0  0  0  0
   45.3289   32.5744   38.4995 N   0  0  0  0  0  0  0  0  0  0  0  0
   44.8312   31.8684   37.4778 C   0  0  0  0  0  0  0  0  0  0  0  0
   45.5723   31.5812   36.3766 N   0  0  0  0  0  0  0  0  0  0  0  0
   46.8605   32.0304   36.3209 C   0  0  0  0  0  0  0  0  0  0  0  0
   47.6616   31.7707   35.2299 C   0  0  0  0  0  0  0  0  0  0  0  0
   48.9639   32.2191   35.1623 C   0  0  0  0  0  0  0  0  0  0  0  0
   49.4910   31.9525   34.2569 H   0  0  0  0  0  0  0  0  0  0  0  0
   49.4341   32.9525   36.2577 C   0  0  0  0  0  0  0  0  0  0  0  0
   50.4581   33.2854   36.1659 H   0  0  0  0  0  0  0  0  0  0  0  0
   48.5968   33.1862   37.3241 C   0  0  0  0  0  0  0  0  0  0  0  0
   47.3044   32.7479   37.4044 C   0  0  0  0  0  0  0  0  0  0  0  0
   43.7989   31.5246   37.5540 H   0  0  0  0  0  0  0  0  0  0  0  0
   47.1819   31.1919   34.4446 H   0  0  0  0  0  0  0  0  0  0  0  0
   49.0662   33.7501   38.0879 H   0  0  0  0  0  0  0  0  0  0  0  0
  1  6  1  0
  2  3  1  0
  2  1  1  0
  3  4  1  0
  4  5  1  0
  6  5  2  0
  6 19  1  0
  7 12  2  0
  8  7  1  0
  9  8  2  0
  9 10  1  0
 10 11  2  0
 11 12  1  0
 11  1  1  0
 13  9  1  0
 14 13  2  0
 15 14  1  0
 16 17  1  0
 16 15  2  0
 17 18  2  0
 18 13  1  0
  1 20  1  1
  2 21  1  0
  2 22  1  0
  3 23  1  0
  3 24  1  0
  4 25  1  0
  4 26  1  0
  5 27  1  0
  7 28  1  0
  8 29  1  0
 14 30  1  0
 15 31  1  0
 16 32  1  0
 19 33  1  0
 19 34  1  0
 35 36  2  0
 36 37  1  0
 37 38  2  0
 38 39  1  0
 39 40  2  0
 40 41  1  0
 41 42  1  0
 41 43  2  0
 43 44  1  0
 43 45  1  0
 45 46  2  0
 46 35  1  0
 46 39  1  0
 37 47  1  0
 40 48  1  0
 45 49  1  0
 17 35  1  0
M  ISO  8  20  13  21  13  22  13  23  13  24  13  25  13  26  13  27  13
M  ISO  7  28  14  29  14  30  14  31  14  32  14  42  16  44  16
M  END
>  <DihAtoms>  (1) 
15,16,34,35

>  <DihDeg>  (1) 
-0.005937992824749827

$$$$
