
 OpenBabel03252506093D

 33 36  0  0  0  0  0  0  0  0999 V2000
   45.6750   32.5130   41.8120 F   0  0  0  0  0  0  0  0  0  0  0  0
   46.6270   33.3740   41.4380 C   0  0  0  0  0  0  0  0  0  0  0  0
   46.8750   34.4960   42.2010 C   0  0  0  0  0  0  0  0  0  0  0  0
   47.8400   35.4390   41.8860 C   0  0  0  0  0  0  0  0  0  0  0  0
   48.6110   35.2570   40.7390 C   0  0  0  0  0  0  0  0  0  0  0  0
   48.3340   34.1200   39.9980 C   0  0  0  0  0  0  0  0  0  0  0  0
   47.3810   33.1780   40.2960 C   0  0  0  0  0  0  0  0  0  0  0  0
   47.9800   36.2970   42.5300 H   0  0  0  0  0  0  0  0  0  0  0  0
   49.3740   35.9720   40.4620 H   0  0  0  0  0  0  0  0  0  0  0  0
   48.9730   34.0300   39.1140 H   0  0  0  0  0  0  0  0  0  0  0  0
   47.1660   32.0000   39.4550 C   0  0  0  0  0  0  0  0  0  0  0  0
   48.1100   31.0310   39.6170 N   0  0  0  0  0  0  0  0  0  0  0  0
   48.0260   29.8840   38.8950 C   0  0  0  0  0  3  0  0  0  0  0  0
   47.0040   29.7000   38.0130 N   0  0  0  0  0  0  0  0  0  0  0  0
   46.0580   30.6350   37.8300 C   0  0  0  0  0  0  0  0  0  0  0  0
   45.0040   30.4810   36.9480 C   0  0  0  0  0  3  0  0  0  0  0  0
   44.0450   31.4640   36.7900 C   0  0  0  0  0  0  0  0  0  0  0  0
   43.2120   31.4050   36.1280 H   0  0  0  0  0  0  0  0  0  0  0  0
   44.1850   32.6080   37.5530 C   0  0  0  0  0  0  0  0  0  0  0  0
   43.4420   33.4080   37.4510 H   0  0  0  0  0  0  0  0  0  0  0  0
   45.2170   32.8380   38.4630 C   0  0  0  0  0  3  0  0  0  0  0  0
   46.1210   31.8050   38.5500 C   0  0  0  0  0  0  0  0  0  0  0  0
   45.4650   34.0820   45.5880 C   0  0  0  0  0  0  0  0  0  0  0  0
   44.6020   35.1890   45.6720 C   0  0  0  0  0  0  0  0  0  0  0  0
   44.5050   36.0760   44.5670 C   0  0  0  0  0  0  0  0  0  0  0  0
   45.2730   35.7830   43.4790 N   0  0  0  0  0  0  0  0  0  0  0  0
   46.0820   34.7300   43.4250 C   0  0  0  0  0  0  0  0  0  0  0  0
   46.1740   33.8940   44.4690 N   0  0  0  0  0  0  0  0  0  0  0  0
   44.0190   35.3610   46.5670 H   0  0  0  0  0  0  0  0  0  0  0  0
   43.8580   36.9260   44.6010 H   0  0  0  0  0  0  0  0  0  0  0  0
   45.5610   33.2050   46.6830 N   0  0  0  0  0  0  0  0  0  0  0  0
   46.4070   32.7130   47.0590 H   0  0  0  0  0  0  0  0  0  0  0  0
   44.8130   32.8750   47.3320 H   0  0  0  0  0  0  0  0  0  0  0  0
  2  1  1  0  0  0  0
  2  3  1  0  0  0  0
  3 27  1  0  0  0  0
  4  3  2  0  0  0  0
  4  8  1  0  0  0  0
  5  4  1  0  0  0  0
  6  7  1  0  0  0  0
  6  5  2  0  0  0  0
  7  2  2  0  0  0  0
  9  5  1  0  0  0  0
 10  6  1  0  0  0  0
 11 12  1  0  0  0  0
 11  7  1  0  0  0  0
 13 12  2  0  0  0  0
 14 13  1  0  0  0  0
 15 14  2  0  0  0  0
 15 22  1  0  0  0  0
 16 15  1  0  0  0  0
 17 16  2  0  0  0  0
 17 19  1  0  0  0  0
 18 17  1  0  0  0  0
 19 21  2  0  0  0  0
 20 19  1  0  0  0  0
 21 22  1  0  0  0  0
 22 11  2  0  0  0  0
 23 24  1  0  0  0  0
 23 31  1  0  0  0  0
 24 29  1  0  0  0  0
 25 30  1  0  0  0  0
 25 24  2  0  0  0  0
 26 25  1  0  0  0  0
 27 26  2  0  0  0  0
 27 28  1  0  0  0  0
 28 23  2  0  0  0  0
 31 32  1  0  0  0  0
 31 33  1  0  0  0  0
M  END
>  <minimizedAffinity>
-5.70580435

>  <minimizedRMSD>
1.43177092

$$$$
