
 OpenBabel03252501523D

 48 52  0  0  1  0  0  0  0  0999 V2000
   36.6060   28.1590   38.5010 C   0  0  0  0  0  0  0  0  0  0  0  0
   36.0650   27.3480   39.0510 H   0  0  0  0  0  0  0  0  0  0  0  0
   37.4270   27.7100   37.9040 H   0  0  0  0  0  0  0  0  0  0  0  0
   37.1470   29.0890   39.4350 N   0  0  0  0  0  0  0  0  0  0  0  0
   36.9700   30.4420   39.0470 C   0  0  0  0  0  0  0  0  0  0  0  0
   36.7970   31.2600   40.3000 C   0  0  0  0  0  0  0  0  0  0  0  0
   36.2250   30.2690   41.2620 C   0  0  0  0  0  0  0  0  0  0  0  0
   36.6250   28.9050   40.7690 C   0  0  2  0  0  0  0  0  0  0  0  0
   37.8920   30.7970   38.5400 H   0  0  0  0  0  0  0  0  0  0  0  0
   36.1470   30.6070   38.3230 H   0  0  0  0  0  0  0  0  0  0  0  0
   37.7950   31.5760   40.6800 H   0  0  0  0  0  0  0  0  0  0  0  0
   36.1570   32.1430   40.1360 H   0  0  0  0  0  0  0  0  0  0  0  0
   35.1090   30.3120   41.1980 H   0  0  0  0  0  0  0  0  0  0  0  0
   36.5070   30.4410   42.3190 H   0  0  0  0  0  0  0  0  0  0  0  0
   35.7920   28.1930   40.7290 H   0  0  0  0  0  0  0  0  0  0  0  0
   37.7830   28.4560   41.5850 C   0  0  0  0  0  0  0  0  0  0  0  0
   38.7030   29.3200   42.0730 N   0  0  0  0  0  0  0  0  0  0  0  0
   39.7590   28.9350   42.8120 C   0  0  0  0  0  3  0  0  0  0  0  0
   39.9890   27.6490   43.1310 N   0  0  0  0  0  0  0  0  0  0  0  0
   39.1120   26.7360   42.6780 C   0  0  0  0  0  0  0  0  0  0  0  0
   39.3290   25.4070   42.9940 C   0  0  0  0  0  3  0  0  0  0  0  0
   38.4450   24.4490   42.5430 C   0  0  0  0  0  0  0  0  0  0  0  0
   38.6990   23.4300   42.8430 H   0  0  0  0  0  0  0  0  0  0  0  0
   37.3400   24.8240   41.7720 C   0  0  0  0  0  0  0  0  0  0  0  0
   36.7200   24.0080   41.4740 H   0  0  0  0  0  0  0  0  0  0  0  0
   37.1600   26.1700   41.4780 C   0  0  0  0  0  3  0  0  0  0  0  0
   38.0330   27.1440   41.9200 C   0  0  0  0  0  0  0  0  0  0  0  0
   34.3930   28.5000   37.5000 C   0  0  0  0  0  3  0  0  0  0  0  0
   35.6980   28.8040   37.4920 C   0  0  0  0  0  3  0  0  0  0  0  0
   32.1130   29.4430   36.9170 C   0  0  0  0  0  0  0  0  0  0  0  0
   33.4440   29.0900   36.5440 C   0  0  0  0  0  0  0  0  0  0  0  0
   33.8590   29.3140   35.2240 C   0  0  0  0  0  0  0  0  0  0  0  0
   32.9640   29.8620   34.3570 N   0  0  0  0  0  0  0  0  0  0  0  0
   31.7330   30.1810   34.7320 C   0  0  0  0  0  0  0  0  0  0  0  0
   31.3190   29.9700   36.0000 N   0  0  0  0  0  0  0  0  0  0  0  0
   31.8150   29.2610   37.9410 H   0  0  0  0  0  0  0  0  0  0  0  0
   34.8530   29.0650   34.8950 H   0  0  0  0  0  0  0  0  0  0  0  0
   31.1150   32.8920   34.7830 F   0  0  0  0  0  0  0  0  0  0  0  0
   30.5170   32.1360   33.8210 C   0  0  0  0  0  0  0  0  0  0  0  0
   30.8060   30.7670   33.7670 C   0  0  0  0  0  0  0  0  0  0  0  0
   30.2380   29.9420   32.8230 C   0  0  0  0  0  0  0  0  0  0  0  0
   29.3570   30.5240   31.9130 C   0  0  0  0  0  0  0  0  0  0  0  0
   29.0510   31.9040   31.9500 C   0  0  0  0  0  0  0  0  0  0  0  0
   29.6460   32.6990   32.9200 C   0  0  0  0  0  0  0  0  0  0  0  0
   30.4400   28.8900   32.7580 H   0  0  0  0  0  0  0  0  0  0  0  0
   28.8550   29.9720   31.1320 H   0  0  0  0  0  0  0  0  0  0  0  0
   28.3760   32.3560   31.2560 H   0  0  0  0  0  0  0  0  0  0  0  0
   29.4530   33.7580   32.9990 H   0  0  0  0  0  0  0  0  0  0  0  0
  1  2  1  0  0  0  0
  1  4  1  0  0  0  0
  3  1  1  0  0  0  0
  4  8  1  0  0  0  0
  5  4  1  0  0  0  0
  5  6  1  0  0  0  0
  6 11  1  0  0  0  0
  6  7  1  0  0  0  0
  7 14  1  0  0  0  0
  8 15  1  1  0  0  0
  8  7  1  0  0  0  0
  8 16  1  0  0  0  0
  9  5  1  0  0  0  0
 10  5  1  0  0  0  0
 12  6  1  0  0  0  0
 13  7  1  0  0  0  0
 16 27  2  0  0  0  0
 16 17  1  0  0  0  0
 17 18  2  0  0  0  0
 18 19  1  0  0  0  0
 20 21  1  0  0  0  0
 20 19  2  0  0  0  0
 22 23  1  0  0  0  0
 22 21  2  0  0  0  0
 24 22  1  0  0  0  0
 25 24  1  0  0  0  0
 26 24  2  0  0  0  0
 26 27  1  0  0  0  0
 27 20  1  0  0  0  0
 29 28  2  0  0  0  0
 29  1  1  0  0  0  0
 30 36  1  0  0  0  0
 31 30  1  0  0  0  0
 31 28  1  0  0  0  0
 32 31  2  0  0  0  0
 33 34  2  0  0  0  0
 33 32  1  0  0  0  0
 34 35  1  0  0  0  0
 35 30  2  0  0  0  0
 37 32  1  0  0  0  0
 39 38  1  0  0  0  0
 40 39  1  0  0  0  0
 40 34  1  0  0  0  0
 41 40  2  0  0  0  0
 42 43  2  0  0  0  0
 42 41  1  0  0  0  0
 43 44  1  0  0  0  0
 44 48  1  0  0  0  0
 44 39  2  0  0  0  0
 45 41  1  0  0  0  0
 46 42  1  0  0  0  0
 47 43  1  0  0  0  0
M  END
>  <minimizedAffinity>
-6.74693394

$$$$

 OpenBabel03252501523D

 48 52  0  0  1  0  0  0  0  0999 V2000
   33.8990   27.2090   36.7390 C   0  0  0  0  0  0  0  0  0  0  0  0
   34.4540   26.2540   36.5560 H   0  0  0  0  0  0  0  0  0  0  0  0
   33.2830   27.1030   37.6570 H   0  0  0  0  0  0  0  0  0  0  0  0
   33.0550   27.4910   35.6260 N   0  0  0  0  0  0  0  0  0  0  0  0
   33.0580   26.4650   34.6460 C   0  0  0  0  0  0  0  0  0  0  0  0
   31.6860   26.4220   34.0250 C   0  0  0  0  0  0  0  0  0  0  0  0
   30.8140   26.9480   35.1180 C   0  0  0  0  0  0  0  0  0  0  0  0
   31.6940   27.7710   36.0180 C   0  0  2  0  0  0  0  0  0  0  0  0
   33.7800   26.7300   33.8460 H   0  0  0  0  0  0  0  0  0  0  0  0
   33.3770   25.4720   35.0220 H   0  0  0  0  0  0  0  0  0  0  0  0
   31.6410   27.1360   33.1720 H   0  0  0  0  0  0  0  0  0  0  0  0
   31.4130   25.4080   33.6850 H   0  0  0  0  0  0  0  0  0  0  0  0
   30.4540   26.0860   35.7350 H   0  0  0  0  0  0  0  0  0  0  0  0
   29.9220   27.5040   34.7670 H   0  0  0  0  0  0  0  0  0  0  0  0
   31.5760   27.5340   37.0830 H   0  0  0  0  0  0  0  0  0  0  0  0
   31.4740   29.2010   35.6740 C   0  0  0  0  0  0  0  0  0  0  0  0
   31.9070   29.7400   34.5120 N   0  0  0  0  0  0  0  0  0  0  0  0
   31.7190   31.0310   34.1820 C   0  0  0  0  0  3  0  0  0  0  0  0
   31.0800   31.8990   34.9860 N   0  0  0  0  0  0  0  0  0  0  0  0
   30.6210   31.4270   36.1590 C   0  0  0  0  0  0  0  0  0  0  0  0
   29.9600   32.3020   37.0020 C   0  0  0  0  0  3  0  0  0  0  0  0
   29.4800   31.8460   38.2110 C   0  0  0  0  0  0  0  0  0  0  0  0
   28.9720   32.6080   38.8070 H   0  0  0  0  0  0  0  0  0  0  0  0
   29.6630   30.5090   38.5780 C   0  0  0  0  0  0  0  0  0  0  0  0
   29.2540   30.2590   39.5320 H   0  0  0  0  0  0  0  0  0  0  0  0
   30.3330   29.6640   37.7010 C   0  0  0  0  0  3  0  0  0  0  0  0
   30.8210   30.1010   36.4860 C   0  0  0  0  0  0  0  0  0  0  0  0
   35.0180   28.7220   38.3120 C   0  0  0  0  0  3  0  0  0  0  0  0
   34.8610   28.3240   37.0420 C   0  0  0  0  0  3  0  0  0  0  0  0
   36.8490   30.3840   37.7500 C   0  0  0  0  0  0  0  0  0  0  0  0
   35.9390   29.8050   38.6860 C   0  0  0  0  0  0  0  0  0  0  0  0
   35.9240   30.2880   40.0020 C   0  0  0  0  0  0  0  0  0  0  0  0
   36.7840   31.2920   40.3250 N   0  0  0  0  0  0  0  0  0  0  0  0
   37.6190   31.8110   39.4340 C   0  0  0  0  0  0  0  0  0  0  0  0
   37.6460   31.3550   38.1630 N   0  0  0  0  0  0  0  0  0  0  0  0
   36.8420   29.9940   36.7410 H   0  0  0  0  0  0  0  0  0  0  0  0
   35.2560   29.8860   40.7430 H   0  0  0  0  0  0  0  0  0  0  0  0
   36.7940   34.4660   39.4360 F   0  0  0  0  0  0  0  0  0  0  0  0
   38.0780   34.2140   39.8140 C   0  0  0  0  0  0  0  0  0  0  0  0
   38.5250   32.8870   39.8240 C   0  0  0  0  0  0  0  0  0  0  0  0
   39.8100   32.5570   40.1950 C   0  0  0  0  0  0  0  0  0  0  0  0
   40.6570   33.6020   40.5630 C   0  0  0  0  0  0  0  0  0  0  0  0
   40.2250   34.9480   40.5610 C   0  0  0  0  0  0  0  0  0  0  0  0
   38.9210   35.2350   40.1800 C   0  0  0  0  0  0  0  0  0  0  0  0
   40.1810   31.5510   40.2120 H   0  0  0  0  0  0  0  0  0  0  0  0
   41.6810   33.4580   40.8710 H   0  0  0  0  0  0  0  0  0  0  0  0
   40.8690   35.7530   40.8410 H   0  0  0  0  0  0  0  0  0  0  0  0
   38.5330   36.2420   40.1570 H   0  0  0  0  0  0  0  0  0  0  0  0
  1 29  1  0  0  0  0
  1  3  1  0  0  0  0
  2  1  1  0  0  0  0
  4  8  1  0  0  0  0
  4  1  1  0  0  0  0
  5 10  1  0  0  0  0
  5  4  1  0  0  0  0
  6  5  1  0  0  0  0
  6  7  1  0  0  0  0
  7 13  1  0  0  0  0
  7  8  1  0  0  0  0
  8 15  1  1  0  0  0
  9  5  1  0  0  0  0
 11  6  1  0  0  0  0
 12  6  1  0  0  0  0
 14  7  1  0  0  0  0
 16  8  1  0  0  0  0
 16 27  1  0  0  0  0
 17 16  2  0  0  0  0
 18 17  1  0  0  0  0
 18 19  2  0  0  0  0
 19 20  1  0  0  0  0
 20 27  2  0  0  0  0
 20 21  1  0  0  0  0
 21 22  2  0  0  0  0
 22 24  1  0  0  0  0
 22 23  1  0  0  0  0
 24 25  1  0  0  0  0
 26 24  2  0  0  0  0
 27 26  1  0  0  0  0
 28 31  1  0  0  0  0
 29 28  2  0  0  0  0
 30 35  2  0  0  0  0
 30 31  1  0  0  0  0
 31 32  2  0  0  0  0
 32 33  1  0  0  0  0
 32 37  1  0  0  0  0
 34 40  1  0  0  0  0
 34 33  2  0  0  0  0
 35 34  1  0  0  0  0
 36 30  1  0  0  0  0
 38 39  1  0  0  0  0
 39 40  2  0  0  0  0
 39 44  1  0  0  0  0
 40 41  1  0  0  0  0
 41 45  1  0  0  0  0
 41 42  2  0  0  0  0
 42 46  1  0  0  0  0
 43 42  1  0  0  0  0
 43 47  1  0  0  0  0
 44 43  2  0  0  0  0
 48 44  1  0  0  0  0
M  END
>  <minimizedAffinity>
-6.43000031

$$$$

 OpenBabel03252501523D

 48 52  0  0  1  0  0  0  0  0999 V2000
   42.6050   31.8140   42.7110 C   0  0  0  0  0  0  0  0  0  0  0  0
   42.2350   32.1110   43.7240 H   0  0  0  0  0  0  0  0  0  0  0  0
   43.6470   31.4380   42.7990 H   0  0  0  0  0  0  0  0  0  0  0  0
   42.5760   32.9430   41.8430 N   0  0  0  0  0  0  0  0  0  0  0  0
   43.8270   33.6070   41.7440 C   0  0  0  0  0  0  0  0  0  0  0  0
   43.9410   34.1640   40.3490 C   0  0  0  0  0  0  0  0  0  0  0  0
   43.0790   33.2370   39.5540 C   0  0  0  0  0  0  0  0  0  0  0  0
   42.1060   32.6140   40.5180 C   0  0  2  0  0  0  0  0  0  0  0  0
   43.8390   34.4640   42.4500 H   0  0  0  0  0  0  0  0  0  0  0  0
   44.7010   32.9810   42.0160 H   0  0  0  0  0  0  0  0  0  0  0  0
   43.4820   35.1790   40.3140 H   0  0  0  0  0  0  0  0  0  0  0  0
   44.9870   34.2090   40.0020 H   0  0  0  0  0  0  0  0  0  0  0  0
   43.7150   32.4020   39.1660 H   0  0  0  0  0  0  0  0  0  0  0  0
   42.5780   33.7080   38.6850 H   0  0  0  0  0  0  0  0  0  0  0  0
   42.0380   31.5230   40.4260 H   0  0  0  0  0  0  0  0  0  0  0  0
   40.8120   33.3300   40.3720 C   0  0  0  0  0  0  0  0  0  0  0  0
   40.6530   34.6210   40.7450 N   0  0  0  0  0  0  0  0  0  0  0  0
   39.4890   35.2860   40.6230 C   0  0  0  0  0  3  0  0  0  0  0  0
   38.3800   34.7200   40.1160 N   0  0  0  0  0  0  0  0  0  0  0  0
   38.4690   33.4360   39.7240 C   0  0  0  0  0  0  0  0  0  0  0  0
   37.3410   32.8330   39.1990 C   0  0  0  0  0  3  0  0  0  0  0  0
   37.4030   31.5180   38.7890 C   0  0  0  0  0  0  0  0  0  0  0  0
   36.4630   31.1290   38.3880 H   0  0  0  0  0  0  0  0  0  0  0  0
   38.6000   30.8040   38.9060 C   0  0  0  0  0  0  0  0  0  0  0  0
   38.5410   29.7960   38.5610 H   0  0  0  0  0  0  0  0  0  0  0  0
   39.7090   31.4490   39.4390 C   0  0  0  0  0  3  0  0  0  0  0  0
   39.6670   32.7640   39.8550 C   0  0  0  0  0  0  0  0  0  0  0  0
   40.6270   30.3640   42.7360 C   0  0  0  0  0  3  0  0  0  0  0  0
   41.8140   30.6500   42.1830 C   0  0  0  0  0  3  0  0  0  0  0  0
   38.4230   29.1140   42.6380 C   0  0  0  0  0  0  0  0  0  0  0  0
   39.7970   29.2420   42.2740 C   0  0  0  0  0  0  0  0  0  0  0  0
   40.3710   28.2650   41.4490 C   0  0  0  0  0  0  0  0  0  0  0  0
   39.5840   27.2350   41.0330 N   0  0  0  0  0  0  0  0  0  0  0  0
   38.3090   27.1430   41.3870 C   0  0  0  0  0  0  0  0  0  0  0  0
   37.7420   28.0760   42.1820 N   0  0  0  0  0  0  0  0  0  0  0  0
   38.0020   29.8800   43.2760 H   0  0  0  0  0  0  0  0  0  0  0  0
   41.4030   28.3170   41.1460 H   0  0  0  0  0  0  0  0  0  0  0  0
   37.1410   27.1600   38.8640 F   0  0  0  0  0  0  0  0  0  0  0  0
   36.9270   26.0620   39.6410 C   0  0  0  0  0  0  0  0  0  0  0  0
   37.5020   26.0210   40.9170 C   0  0  0  0  0  0  0  0  0  0  0  0
   37.3290   24.9440   41.7570 C   0  0  0  0  0  0  0  0  0  0  0  0
   36.5530   23.8850   41.2860 C   0  0  0  0  0  0  0  0  0  0  0  0
   35.9640   23.9050   40.0010 C   0  0  0  0  0  0  0  0  0  0  0  0
   36.1650   25.0120   39.1870 C   0  0  0  0  0  0  0  0  0  0  0  0
   37.7550   24.8850   42.7390 H   0  0  0  0  0  0  0  0  0  0  0  0
   36.3520   22.9920   41.8590 H   0  0  0  0  0  0  0  0  0  0  0  0
   35.3690   23.0970   39.6340 H   0  0  0  0  0  0  0  0  0  0  0  0
   35.7420   25.0870   38.1970 H   0  0  0  0  0  0  0  0  0  0  0  0
  1  3  1  0  0  0  0
  1  2  1  0  0  0  0
  4  1  1  0  0  0  0
  5  4  1  0  0  0  0
  5 10  1  0  0  0  0
  5  9  1  0  0  0  0
  6  5  1  0  0  0  0
  7  6  1  0  0  0  0
  7  8  1  0  0  0  0
  8 15  1  6  0  0  0
  8  4  1  0  0  0  0
 11  6  1  0  0  0  0
 12  6  1  0  0  0  0
 13  7  1  0  0  0  0
 14  7  1  0  0  0  0
 16  8  1  0  0  0  0
 16 17  1  0  0  0  0
 18 17  2  0  0  0  0
 19 18  1  0  0  0  0
 20 27  1  0  0  0  0
 20 19  2  0  0  0  0
 21 20  1  0  0  0  0
 22 24  1  0  0  0  0
 22 21  2  0  0  0  0
 23 22  1  0  0  0  0
 24 26  2  0  0  0  0
 25 24  1  0  0  0  0
 26 27  1  0  0  0  0
 27 16  2  0  0  0  0
 29  1  1  0  0  0  0
 29 28  2  0  0  0  0
 30 36  1  0  0  0  0
 31 30  1  0  0  0  0
 31 28  1  0  0  0  0
 32 31  2  0  0  0  0
 33 34  2  0  0  0  0
 33 32  1  0  0  0  0
 34 35  1  0  0  0  0
 35 30  2  0  0  0  0
 37 32  1  0  0  0  0
 38 39  1  0  0  0  0
 39 40  1  0  0  0  0
 40 34  1  0  0  0  0
 40 41  2  0  0  0  0
 41 45  1  0  0  0  0
 42 41  1  0  0  0  0
 42 46  1  0  0  0  0
 43 42  2  0  0  0  0
 44 39  2  0  0  0  0
 44 43  1  0  0  0  0
 47 43  1  0  0  0  0
 48 44  1  0  0  0  0
M  END
>  <minimizedAffinity>
-6.36629295

$$$$

 OpenBabel03252501523D

 48 52  0  0  1  0  0  0  0  0999 V2000
   37.0490   25.2590   38.7770 C   0  0  0  0  0  0  0  0  0  0  0  0
   36.7100   24.3200   38.2710 H   0  0  0  0  0  0  0  0  0  0  0  0
   37.9880   25.6120   38.3010 H   0  0  0  0  0  0  0  0  0  0  0  0
   37.2820   24.9980   40.1580 N   0  0  0  0  0  0  0  0  0  0  0  0
   37.2590   23.6160   40.4800 C   0  0  0  0  0  0  0  0  0  0  0  0
   38.2380   23.3910   41.6030 C   0  0  0  0  0  0  0  0  0  0  0  0
   39.2250   24.4960   41.4040 C   0  0  0  0  0  0  0  0  0  0  0  0
   38.5170   25.5770   40.6330 C   0  0  2  0  0  0  0  0  0  0  0  0
   36.2490   23.3490   40.8580 H   0  0  0  0  0  0  0  0  0  0  0  0
   37.4470   22.9420   39.6210 H   0  0  0  0  0  0  0  0  0  0  0  0
   37.7290   23.5520   42.5800 H   0  0  0  0  0  0  0  0  0  0  0  0
   38.6850   22.3830   41.5700 H   0  0  0  0  0  0  0  0  0  0  0  0
   40.0480   24.1260   40.7430 H   0  0  0  0  0  0  0  0  0  0  0  0
   39.6880   24.8710   42.3380 H   0  0  0  0  0  0  0  0  0  0  0  0
   39.0890   25.9460   39.7720 H   0  0  0  0  0  0  0  0  0  0  0  0
   38.1110   26.6270   41.6030 C   0  0  0  0  0  0  0  0  0  0  0  0
   37.0190   26.5000   42.3910 N   0  0  0  0  0  0  0  0  0  0  0  0
   36.6330   27.4390   43.2750 C   0  0  0  0  0  3  0  0  0  0  0  0
   37.3070   28.5900   43.4490 N   0  0  0  0  0  0  0  0  0  0  0  0
   38.4050   28.7800   42.6970 C   0  0  0  0  0  0  0  0  0  0  0  0
   39.1150   29.9560   42.8600 C   0  0  0  0  0  3  0  0  0  0  0  0
   40.2450   30.1780   42.1010 C   0  0  0  0  0  0  0  0  0  0  0  0
   40.7370   31.1330   42.3010 H   0  0  0  0  0  0  0  0  0  0  0  0
   40.6660   29.2180   41.1760 C   0  0  0  0  0  0  0  0  0  0  0  0
   41.5500   29.4870   40.6410 H   0  0  0  0  0  0  0  0  0  0  0  0
   39.9240   28.0500   41.0440 C   0  0  0  0  0  3  0  0  0  0  0  0
   38.7900   27.8100   41.7930 C   0  0  0  0  0  0  0  0  0  0  0  0
   35.1610   26.2440   37.5600 C   0  0  0  0  0  3  0  0  0  0  0  0
   36.0570   26.3650   38.5500 C   0  0  0  0  0  3  0  0  0  0  0  0
   33.1160   27.0910   36.3240 C   0  0  0  0  0  0  0  0  0  0  0  0
   34.1610   27.2830   37.2770 C   0  0  0  0  0  0  0  0  0  0  0  0
   34.2330   28.5030   37.9650 C   0  0  0  0  0  0  0  0  0  0  0  0
   33.2960   29.4500   37.6870 N   0  0  0  0  0  0  0  0  0  0  0  0
   32.3360   29.2440   36.7950 C   0  0  0  0  0  0  0  0  0  0  0  0
   32.2540   28.0740   36.1250 N   0  0  0  0  0  0  0  0  0  0  0  0
   33.0810   26.1430   35.8050 H   0  0  0  0  0  0  0  0  0  0  0  0
   35.0010   28.6950   38.6940 H   0  0  0  0  0  0  0  0  0  0  0  0
   30.5190   30.0480   38.7400 F   0  0  0  0  0  0  0  0  0  0  0  0
   30.4500   30.6700   37.5310 C   0  0  0  0  0  0  0  0  0  0  0  0
   31.3510   30.2890   36.5290 C   0  0  0  0  0  0  0  0  0  0  0  0
   31.3410   30.8730   35.2830 C   0  0  0  0  0  0  0  0  0  0  0  0
   30.3920   31.8680   35.0520 C   0  0  0  0  0  0  0  0  0  0  0  0
   29.4730   32.2690   36.0500 C   0  0  0  0  0  0  0  0  0  0  0  0
   29.5200   31.6520   37.2920 C   0  0  0  0  0  0  0  0  0  0  0  0
   32.0170   30.6020   34.4960 H   0  0  0  0  0  0  0  0  0  0  0  0
   30.2930   32.3930   34.1140 H   0  0  0  0  0  0  0  0  0  0  0  0
   28.7430   33.0300   35.8790 H   0  0  0  0  0  0  0  0  0  0  0  0
   28.8450   31.9130   38.0940 H   0  0  0  0  0  0  0  0  0  0  0  0
  1  4  1  0  0  0  0
  2  1  1  0  0  0  0
  3  1  1  0  0  0  0
  4  5  1  0  0  0  0
  4  8  1  0  0  0  0
  5  9  1  0  0  0  0
  5  6  1  0  0  0  0
  6 11  1  0  0  0  0
  7  6  1  0  0  0  0
  7 14  1  0  0  0  0
  8 15  1  6  0  0  0
  8  7  1  0  0  0  0
  8 16  1  0  0  0  0
 10  5  1  0  0  0  0
 12  6  1  0  0  0  0
 13  7  1  0  0  0  0
 16 27  2  0  0  0  0
 16 17  1  0  0  0  0
 17 18  2  0  0  0  0
 18 19  1  0  0  0  0
 20 21  1  0  0  0  0
 20 19  2  0  0  0  0
 22 23  1  0  0  0  0
 22 21  2  0  0  0  0
 24 22  1  0  0  0  0
 25 24  1  0  0  0  0
 26 24  2  0  0  0  0
 26 27  1  0  0  0  0
 27 20  1  0  0  0  0
 28 29  2  0  0  0  0
 29  1  1  0  0  0  0
 30 31  1  0  0  0  0
 31 28  1  0  0  0  0
 31 32  2  0  0  0  0
 32 37  1  0  0  0  0
 33 32  1  0  0  0  0
 34 33  2  0  0  0  0
 35 30  2  0  0  0  0
 35 34  1  0  0  0  0
 36 30  1  0  0  0  0
 39 38  1  0  0  0  0
 40 34  1  0  0  0  0
 40 39  2  0  0  0  0
 41 40  1  0  0  0  0
 42 41  2  0  0  0  0
 42 43  1  0  0  0  0
 43 44  2  0  0  0  0
 44 39  1  0  0  0  0
 44 48  1  0  0  0  0
 45 41  1  0  0  0  0
 46 42  1  0  0  0  0
 47 43  1  0  0  0  0
M  END
>  <minimizedAffinity>
-6.34198761

$$$$

 OpenBabel03252501523D

 48 52  0  0  1  0  0  0  0  0999 V2000
   40.3360   34.1740   39.7860 C   0  0  0  0  0  0  0  0  0  0  0  0
   40.0920   34.6100   38.7840 H   0  0  0  0  0  0  0  0  0  0  0  0
   39.7070   34.6640   40.5600 H   0  0  0  0  0  0  0  0  0  0  0  0
   41.7120   34.3940   40.0800 N   0  0  0  0  0  0  0  0  0  0  0  0
   41.9190   35.2750   41.1730 C   0  0  0  0  0  0  0  0  0  0  0  0
   43.1720   34.8350   41.8840 C   0  0  0  0  0  0  0  0  0  0  0  0
   43.2310   33.3750   41.5740 C   0  0  0  0  0  0  0  0  0  0  0  0
   42.4340   33.1660   40.3150 C   0  0  2  0  0  0  0  0  0  0  0  0
   42.0960   36.3000   40.7840 H   0  0  0  0  0  0  0  0  0  0  0  0
   41.0560   35.3600   41.8630 H   0  0  0  0  0  0  0  0  0  0  0  0
   44.0570   35.3240   41.4180 H   0  0  0  0  0  0  0  0  0  0  0  0
   43.1400   35.0610   42.9640 H   0  0  0  0  0  0  0  0  0  0  0  0
   42.6940   32.8150   42.3810 H   0  0  0  0  0  0  0  0  0  0  0  0
   44.2560   32.9610   41.5050 H   0  0  0  0  0  0  0  0  0  0  0  0
   41.7150   32.3400   40.3830 H   0  0  0  0  0  0  0  0  0  0  0  0
   43.3970   33.0550   39.1880 C   0  0  0  0  0  0  0  0  0  0  0  0
   44.4360   33.9100   39.0380 N   0  0  0  0  0  0  0  0  0  0  0  0
   45.3180   33.8280   38.0260 C   0  0  0  0  0  3  0  0  0  0  0  0
   45.2420   32.8830   37.0720 N   0  0  0  0  0  0  0  0  0  0  0  0
   44.2320   31.9990   37.1620 C   0  0  0  0  0  0  0  0  0  0  0  0
   44.1340   31.0170   36.1930 C   0  0  0  0  0  3  0  0  0  0  0  0
   43.1080   30.0980   36.2590 C   0  0  0  0  0  0  0  0  0  0  0  0
   43.1140   29.3630   35.4510 H   0  0  0  0  0  0  0  0  0  0  0  0
   42.1780   30.1620   37.3010 C   0  0  0  0  0  0  0  0  0  0  0  0
   41.4260   29.4050   37.2610 H   0  0  0  0  0  0  0  0  0  0  0  0
   42.3140   31.1640   38.2540 C   0  0  0  0  0  3  0  0  0  0  0  0
   43.3330   32.0940   38.2050 C   0  0  0  0  0  0  0  0  0  0  0  0
   38.9160   32.3470   40.5970 C   0  0  0  0  0  3  0  0  0  0  0  0
   39.9520   32.7220   39.8340 C   0  0  0  0  0  3  0  0  0  0  0  0
   37.1800   30.5850   41.1570 C   0  0  0  0  0  0  0  0  0  0  0  0
   38.4810   30.9460   40.6950 C   0  0  0  0  0  0  0  0  0  0  0  0
   39.3720   29.9290   40.3230 C   0  0  0  0  0  0  0  0  0  0  0  0
   38.9480   28.6390   40.4210 N   0  0  0  0  0  0  0  0  0  0  0  0
   37.7320   28.3340   40.8530 C   0  0  0  0  0  0  0  0  0  0  0  0
   36.8630   29.3020   41.2160 N   0  0  0  0  0  0  0  0  0  0  0  0
   36.5100   31.3860   41.4390 H   0  0  0  0  0  0  0  0  0  0  0  0
   40.3640   30.1500   39.9680 H   0  0  0  0  0  0  0  0  0  0  0  0
   37.8090   26.9540   43.2660 F   0  0  0  0  0  0  0  0  0  0  0  0
   37.3710   26.2700   42.1720 C   0  0  0  0  0  0  0  0  0  0  0  0
   37.3200   26.9360   40.9420 C   0  0  0  0  0  0  0  0  0  0  0  0
   36.8880   26.3090   39.7950 C   0  0  0  0  0  0  0  0  0  0  0  0
   36.5000   24.9740   39.9040 C   0  0  0  0  0  0  0  0  0  0  0  0
   36.5440   24.2830   41.1370 C   0  0  0  0  0  0  0  0  0  0  0  0
   36.9860   24.9550   42.2680 C   0  0  0  0  0  0  0  0  0  0  0  0
   36.8390   26.7930   38.8390 H   0  0  0  0  0  0  0  0  0  0  0  0
   36.1460   24.3860   39.0700 H   0  0  0  0  0  0  0  0  0  0  0  0
   36.2490   23.2600   41.2270 H   0  0  0  0  0  0  0  0  0  0  0  0
   37.0420   24.4820   43.2370 H   0  0  0  0  0  0  0  0  0  0  0  0
  1 29  1  0  0  0  0
  1  4  1  0  0  0  0
  1  3  1  0  0  0  0
  2  1  1  0  0  0  0
  4  8  1  0  0  0  0
  4  5  1  0  0  0  0
  5 10  1  0  0  0  0
  5  6  1  0  0  0  0
  6 12  1  0  0  0  0
  7  6  1  0  0  0  0
  7 13  1  0  0  0  0
  8 15  1  1  0  0  0
  8  7  1  0  0  0  0
  9  5  1  0  0  0  0
 11  6  1  0  0  0  0
 14  7  1  0  0  0  0
 16  8  1  0  0  0  0
 17 16  1  0  0  0  0
 18 17  2  0  0  0  0
 19 20  2  0  0  0  0
 19 18  1  0  0  0  0
 20 27  1  0  0  0  0
 21 22  2  0  0  0  0
 21 20  1  0  0  0  0
 22 24  1  0  0  0  0
 23 22  1  0  0  0  0
 24 26  2  0  0  0  0
 25 24  1  0  0  0  0
 27 26  1  0  0  0  0
 27 16  2  0  0  0  0
 28 31  1  0  0  0  0
 29 28  2  0  0  0  0
 30 35  1  0  0  0  0
 30 36  1  0  0  0  0
 31 30  2  0  0  0  0
 32 33  2  0  0  0  0
 32 31  1  0  0  0  0
 33 34  1  0  0  0  0
 34 40  1  0  0  0  0
 34 35  2  0  0  0  0
 37 32  1  0  0  0  0
 39 44  1  0  0  0  0
 39 38  1  0  0  0  0
 40 39  2  0  0  0  0
 41 42  2  0  0  0  0
 41 40  1  0  0  0  0
 42 43  1  0  0  0  0
 43 47  1  0  0  0  0
 43 44  2  0  0  0  0
 44 48  1  0  0  0  0
 45 41  1  0  0  0  0
 46 42  1  0  0  0  0
M  END
>  <minimizedAffinity>
-6.33711004

$$$$

 OpenBabel03252501523D

 48 52  0  0  1  0  0  0  0  0999 V2000
   39.5620   31.9470   41.5610 C   0  0  0  0  0  0  0  0  0  0  0  0
   38.8540   32.2460   42.3750 H   0  0  0  0  0  0  0  0  0  0  0  0
   40.5870   31.8670   41.9800 H   0  0  0  0  0  0  0  0  0  0  0  0
   39.5440   32.9300   40.5300 N   0  0  0  0  0  0  0  0  0  0  0  0
   38.2620   33.5030   40.3220 C   0  0  0  0  0  0  0  0  0  0  0  0
   38.4630   34.9360   39.9030 C   0  0  0  0  0  0  0  0  0  0  0  0
   39.7740   35.2810   40.5310 C   0  0  0  0  0  0  0  0  0  0  0  0
   40.5060   33.9840   40.7490 C   0  0  2  0  0  0  0  0  0  0  0  0
   37.7610   32.9750   39.4830 H   0  0  0  0  0  0  0  0  0  0  0  0
   37.5750   33.4140   41.1870 H   0  0  0  0  0  0  0  0  0  0  0  0
   38.5840   34.9870   38.7970 H   0  0  0  0  0  0  0  0  0  0  0  0
   37.6300   35.5850   40.2230 H   0  0  0  0  0  0  0  0  0  0  0  0
   39.5830   35.7080   41.5480 H   0  0  0  0  0  0  0  0  0  0  0  0
   40.3740   36.0200   39.9640 H   0  0  0  0  0  0  0  0  0  0  0  0
   40.9210   33.8810   41.7600 H   0  0  0  0  0  0  0  0  0  0  0  0
   41.5010   33.8420   39.6540 C   0  0  0  0  0  0  0  0  0  0  0  0
   41.1460   33.4990   38.3950 N   0  0  0  0  0  0  0  0  0  0  0  0
   42.0300   33.3630   37.3900 C   0  0  0  0  0  3  0  0  0  0  0  0
   43.3510   33.5590   37.5550 N   0  0  0  0  0  0  0  0  0  0  0  0
   43.7720   33.9030   38.7850 C   0  0  0  0  0  0  0  0  0  0  0  0
   45.1260   34.1110   38.9780 C   0  0  0  0  0  3  0  0  0  0  0  0
   45.5870   34.4640   40.2290 C   0  0  0  0  0  0  0  0  0  0  0  0
   46.6690   34.6060   40.2830 H   0  0  0  0  0  0  0  0  0  0  0  0
   44.6880   34.6100   41.2900 C   0  0  0  0  0  0  0  0  0  0  0  0
   45.1460   34.8860   42.2140 H   0  0  0  0  0  0  0  0  0  0  0  0
   43.3360   34.3930   41.0510 C   0  0  0  0  0  3  0  0  0  0  0  0
   42.8550   34.0380   39.8070 C   0  0  0  0  0  0  0  0  0  0  0  0
   38.5490   29.7330   41.8540 C   0  0  0  0  0  3  0  0  0  0  0  0
   39.2350   30.5680   41.0610 C   0  0  0  0  0  3  0  0  0  0  0  0
   37.3950   27.5100   42.2480 C   0  0  0  0  0  0  0  0  0  0  0  0
   38.1940   28.3690   41.4350 C   0  0  0  0  0  0  0  0  0  0  0  0
   38.6510   27.8960   40.1970 C   0  0  0  0  0  0  0  0  0  0  0  0
   38.3090   26.6310   39.8290 N   0  0  0  0  0  0  0  0  0  0  0  0
   37.5650   25.8550   40.6060 C   0  0  0  0  0  0  0  0  0  0  0  0
   37.1170   26.2960   41.8010 N   0  0  0  0  0  0  0  0  0  0  0  0
   37.0540   27.8960   43.1980 H   0  0  0  0  0  0  0  0  0  0  0  0
   39.2550   28.5070   39.5480 H   0  0  0  0  0  0  0  0  0  0  0  0
   39.1690   23.6770   41.2490 F   0  0  0  0  0  0  0  0  0  0  0  0
   38.0520   23.4290   40.5110 C   0  0  0  0  0  0  0  0  0  0  0  0
   37.2220   24.5040   40.1700 C   0  0  0  0  0  0  0  0  0  0  0  0
   36.0760   24.3290   39.4270 C   0  0  0  0  0  0  0  0  0  0  0  0
   35.7700   23.0310   39.0220 C   0  0  0  0  0  0  0  0  0  0  0  0
   36.5940   21.9310   39.3560 C   0  0  0  0  0  0  0  0  0  0  0  0
   37.7390   22.1540   40.1070 C   0  0  0  0  0  0  0  0  0  0  0  0
   35.4220   25.1330   39.1500 H   0  0  0  0  0  0  0  0  0  0  0  0
   34.8980   22.7790   38.4360 H   0  0  0  0  0  0  0  0  0  0  0  0
   36.3640   20.9330   39.0480 H   0  0  0  0  0  0  0  0  0  0  0  0
   38.4080   21.3560   40.3930 H   0  0  0  0  0  0  0  0  0  0  0  0
  1  3  1  0  0  0  0
  1  2  1  0  0  0  0
  4  8  1  0  0  0  0
  4  1  1  0  0  0  0
  5  4  1  0  0  0  0
  5 10  1  0  0  0  0
  6 12  1  0  0  0  0
  6  5  1  0  0  0  0
  6  7  1  0  0  0  0
  7  8  1  0  0  0  0
  7 13  1  0  0  0  0
  8 15  1  1  0  0  0
  9  5  1  0  0  0  0
 11  6  1  0  0  0  0
 14  7  1  0  0  0  0
 16 27  1  0  0  0  0
 16  8  1  0  0  0  0
 17 16  2  0  0  0  0
 18 19  2  0  0  0  0
 18 17  1  0  0  0  0
 19 20  1  0  0  0  0
 20 21  2  0  0  0  0
 20 27  1  0  0  0  0
 21 22  1  0  0  0  0
 22 23  1  0  0  0  0
 22 24  2  0  0  0  0
 24 25  1  0  0  0  0
 26 24  1  0  0  0  0
 27 26  2  0  0  0  0
 29  1  1  0  0  0  0
 29 28  2  0  0  0  0
 30 36  1  0  0  0  0
 31 28  1  0  0  0  0
 31 30  2  0  0  0  0
 32 31  1  0  0  0  0
 33 32  2  0  0  0  0
 33 34  1  0  0  0  0
 34 35  2  0  0  0  0
 35 30  1  0  0  0  0
 37 32  1  0  0  0  0
 39 38  1  0  0  0  0
 40 39  1  0  0  0  0
 40 34  1  0  0  0  0
 41 40  2  0  0  0  0
 42 43  2  0  0  0  0
 42 41  1  0  0  0  0
 43 44  1  0  0  0  0
 44 48  1  0  0  0  0
 44 39  2  0  0  0  0
 45 41  1  0  0  0  0
 46 42  1  0  0  0  0
 47 43  1  0  0  0  0
M  END
>  <minimizedAffinity>
-6.27154684

$$$$

 OpenBabel03252501523D

 48 52  0  0  1  0  0  0  0  0999 V2000
   34.5480   28.2950   37.5780 C   0  0  0  0  0  0  0  0  0  0  0  0
   34.7720   27.2220   37.8020 H   0  0  0  0  0  0  0  0  0  0  0  0
   33.7660   28.6580   38.2780 H   0  0  0  0  0  0  0  0  0  0  0  0
   34.0810   28.4150   36.2380 N   0  0  0  0  0  0  0  0  0  0  0  0
   34.7650   27.5690   35.3270 C   0  0  0  0  0  0  0  0  0  0  0  0
   33.7840   27.1540   34.2610 C   0  0  0  0  0  0  0  0  0  0  0  0
   32.4720   27.2350   34.9730 C   0  0  0  0  0  0  0  0  0  0  0  0
   32.6590   28.1890   36.1210 C   0  0  2  0  0  0  0  0  0  0  0  0
   35.5730   28.1470   34.8320 H   0  0  0  0  0  0  0  0  0  0  0  0
   35.2630   26.6970   35.7970 H   0  0  0  0  0  0  0  0  0  0  0  0
   33.7810   27.9090   33.4430 H   0  0  0  0  0  0  0  0  0  0  0  0
   34.0090   26.1540   33.8530 H   0  0  0  0  0  0  0  0  0  0  0  0
   32.2500   26.2370   35.4270 H   0  0  0  0  0  0  0  0  0  0  0  0
   31.6150   27.5070   34.3260 H   0  0  0  0  0  0  0  0  0  0  0  0
   32.2820   27.8030   37.0770 H   0  0  0  0  0  0  0  0  0  0  0  0
   32.0860   29.4980   35.7140 C   0  0  0  0  0  0  0  0  0  0  0  0
   32.3560   30.0640   34.5150 N   0  0  0  0  0  0  0  0  0  0  0  0
   31.8480   31.2490   34.1270 C   0  0  0  0  0  3  0  0  0  0  0  0
   31.0240   31.9730   34.9040 N   0  0  0  0  0  0  0  0  0  0  0  0
   30.7130   31.4670   36.1100 C   0  0  0  0  0  0  0  0  0  0  0  0
   29.8660   32.1950   36.9260 C   0  0  0  0  0  3  0  0  0  0  0  0
   29.5310   31.7010   38.1690 C   0  0  0  0  0  0  0  0  0  0  0  0
   28.8580   32.3450   38.7400 H   0  0  0  0  0  0  0  0  0  0  0  0
   30.0460   30.4730   38.5960 C   0  0  0  0  0  0  0  0  0  0  0  0
   29.7250   30.1810   39.5720 H   0  0  0  0  0  0  0  0  0  0  0  0
   30.8930   29.7750   37.7440 C   0  0  0  0  0  3  0  0  0  0  0  0
   31.2410   30.2520   36.4970 C   0  0  0  0  0  0  0  0  0  0  0  0
   35.7880   29.8720   38.9880 C   0  0  0  0  0  3  0  0  0  0  0  0
   35.7500   29.1530   37.8580 C   0  0  0  0  0  3  0  0  0  0  0  0
   36.9490   31.5310   40.5150 C   0  0  0  0  0  0  0  0  0  0  0  0
   36.9290   30.7340   39.3310 C   0  0  0  0  0  0  0  0  0  0  0  0
   38.0340   30.7750   38.4690 C   0  0  0  0  0  0  0  0  0  0  0  0
   39.0790   31.5790   38.8060 N   0  0  0  0  0  0  0  0  0  0  0  0
   39.0700   32.3090   39.9140 C   0  0  0  0  0  0  0  0  0  0  0  0
   38.0130   32.2800   40.7530 N   0  0  0  0  0  0  0  0  0  0  0  0
   36.0860   31.4840   41.1640 H   0  0  0  0  0  0  0  0  0  0  0  0
   38.0660   30.1920   37.5650 H   0  0  0  0  0  0  0  0  0  0  0  0
   41.3070   31.2880   41.2130 F   0  0  0  0  0  0  0  0  0  0  0  0
   41.3250   32.6120   40.8910 C   0  0  0  0  0  0  0  0  0  0  0  0
   40.2140   33.1570   40.2360 C   0  0  0  0  0  0  0  0  0  0  0  0
   40.1620   34.4860   39.8810 C   0  0  0  0  0  0  0  0  0  0  0  0
   41.2650   35.2770   40.2000 C   0  0  0  0  0  0  0  0  0  0  0  0
   42.3970   34.7460   40.8610 C   0  0  0  0  0  0  0  0  0  0  0  0
   42.4060   33.4000   41.2000 C   0  0  0  0  0  0  0  0  0  0  0  0
   39.3250   34.9320   39.3800 H   0  0  0  0  0  0  0  0  0  0  0  0
   41.3310   36.3290   39.9690 H   0  0  0  0  0  0  0  0  0  0  0  0
   43.2460   35.3460   41.1080 H   0  0  0  0  0  0  0  0  0  0  0  0
   43.2400   32.9370   41.7050 H   0  0  0  0  0  0  0  0  0  0  0  0
  1  2  1  0  0  0  0
  1 29  1  0  0  0  0
  1  3  1  0  0  0  0
  4  1  1  0  0  0  0
  5 10  1  0  0  0  0
  5  4  1  0  0  0  0
  6  7  1  0  0  0  0
  6  5  1  0  0  0  0
  7 13  1  0  0  0  0
  7  8  1  0  0  0  0
  8  4  1  0  0  0  0
  8 15  1  1  0  0  0
  9  5  1  0  0  0  0
 11  6  1  0  0  0  0
 12  6  1  0  0  0  0
 14  7  1  0  0  0  0
 16  8  1  0  0  0  0
 16 27  1  0  0  0  0
 17 16  2  0  0  0  0
 18 17  1  0  0  0  0
 18 19  2  0  0  0  0
 19 20  1  0  0  0  0
 20 27  2  0  0  0  0
 20 21  1  0  0  0  0
 21 22  2  0  0  0  0
 22 24  1  0  0  0  0
 22 23  1  0  0  0  0
 24 25  1  0  0  0  0
 26 24  2  0  0  0  0
 27 26  1  0  0  0  0
 28 31  1  0  0  0  0
 29 28  2  0  0  0  0
 30 35  1  0  0  0  0
 30 36  1  0  0  0  0
 31 30  2  0  0  0  0
 32 33  2  0  0  0  0
 32 31  1  0  0  0  0
 33 34  1  0  0  0  0
 34 40  1  0  0  0  0
 34 35  2  0  0  0  0
 37 32  1  0  0  0  0
 39 44  1  0  0  0  0
 39 38  1  0  0  0  0
 40 39  2  0  0  0  0
 41 42  2  0  0  0  0
 41 40  1  0  0  0  0
 42 43  1  0  0  0  0
 43 47  1  0  0  0  0
 43 44  2  0  0  0  0
 44 48  1  0  0  0  0
 45 41  1  0  0  0  0
 46 42  1  0  0  0  0
M  END
>  <minimizedAffinity>
-6.22983122

$$$$

 OpenBabel03252501523D

 48 52  0  0  1  0  0  0  0  0999 V2000
   39.7420   32.3090   40.8860 C   0  0  0  0  0  0  0  0  0  0  0  0
   40.0540   33.2560   40.3770 H   0  0  0  0  0  0  0  0  0  0  0  0
   39.1590   32.5590   41.7970 H   0  0  0  0  0  0  0  0  0  0  0  0
   40.8990   31.5610   41.2500 N   0  0  0  0  0  0  0  0  0  0  0  0
   42.1030   32.3050   41.1510 C   0  0  0  0  0  0  0  0  0  0  0  0
   43.0350   31.8140   42.2280 C   0  0  0  0  0  0  0  0  0  0  0  0
   42.0920   31.3100   43.2720 C   0  0  0  0  0  0  0  0  0  0  0  0
   40.7990   30.9910   42.5730 C   0  0  2  0  0  0  0  0  0  0  0  0
   42.5810   32.0930   40.1710 H   0  0  0  0  0  0  0  0  0  0  0  0
   41.9660   33.4050   41.1870 H   0  0  0  0  0  0  0  0  0  0  0  0
   43.6240   30.9500   41.8460 H   0  0  0  0  0  0  0  0  0  0  0  0
   43.7140   32.6070   42.5860 H   0  0  0  0  0  0  0  0  0  0  0  0
   41.8670   32.1430   43.9840 H   0  0  0  0  0  0  0  0  0  0  0  0
   42.4780   30.4570   43.8660 H   0  0  0  0  0  0  0  0  0  0  0  0
   39.9160   31.4090   43.0730 H   0  0  0  0  0  0  0  0  0  0  0  0
   40.7530   29.5200   42.3640 C   0  0  0  0  0  0  0  0  0  0  0  0
   41.8040   28.8270   41.8690 N   0  0  0  0  0  0  0  0  0  0  0  0
   41.7830   27.4960   41.6720 C   0  0  0  0  0  3  0  0  0  0  0  0
   40.7080   26.7390   41.9520 N   0  0  0  0  0  0  0  0  0  0  0  0
   39.6270   27.3650   42.4490 C   0  0  0  0  0  0  0  0  0  0  0  0
   38.5090   26.6060   42.7460 C   0  0  0  0  0  3  0  0  0  0  0  0
   37.3860   27.2230   43.2560 C   0  0  0  0  0  0  0  0  0  0  0  0
   36.5560   26.5420   43.4590 H   0  0  0  0  0  0  0  0  0  0  0  0
   37.3820   28.6050   43.4700 C   0  0  0  0  0  0  0  0  0  0  0  0
   36.4660   28.9820   43.8670 H   0  0  0  0  0  0  0  0  0  0  0  0
   38.5270   29.3290   43.1580 C   0  0  0  0  0  3  0  0  0  0  0  0
   39.6600   28.7310   42.6460 C   0  0  0  0  0  0  0  0  0  0  0  0
   37.5750   31.2320   40.4880 C   0  0  0  0  0  3  0  0  0  0  0  0
   38.7930   31.5330   40.0160 C   0  0  0  0  0  3  0  0  0  0  0  0
   35.5090   29.7750   40.3030 C   0  0  0  0  0  0  0  0  0  0  0  0
   36.5930   30.4770   39.6960 C   0  0  0  0  0  0  0  0  0  0  0  0
   36.7230   30.4440   38.3010 C   0  0  0  0  0  0  0  0  0  0  0  0
   35.8020   29.7390   37.5890 N   0  0  0  0  0  0  0  0  0  0  0  0
   34.8040   29.0960   38.1800 C   0  0  0  0  0  0  0  0  0  0  0  0
   34.6660   29.1180   39.5230 N   0  0  0  0  0  0  0  0  0  0  0  0
   35.4290   29.8140   41.3810 H   0  0  0  0  0  0  0  0  0  0  0  0
   37.5230   30.9580   37.7970 H   0  0  0  0  0  0  0  0  0  0  0  0
   35.1230   26.3790   37.6840 F   0  0  0  0  0  0  0  0  0  0  0  0
   34.0290   26.9850   37.1450 C   0  0  0  0  0  0  0  0  0  0  0  0
   33.8390   28.3520   37.3760 C   0  0  0  0  0  0  0  0  0  0  0  0
   32.7560   29.0310   36.8630 C   0  0  0  0  0  0  0  0  0  0  0  0
   31.8480   28.3000   36.0980 C   0  0  0  0  0  0  0  0  0  0  0  0
   32.0220   26.9180   35.8520 C   0  0  0  0  0  0  0  0  0  0  0  0
   33.1280   26.2750   36.3900 C   0  0  0  0  0  0  0  0  0  0  0  0
   32.5840   30.0780   37.0220 H   0  0  0  0  0  0  0  0  0  0  0  0
   30.9660   28.7300   35.6470 H   0  0  0  0  0  0  0  0  0  0  0  0
   31.3300   26.3530   35.2670 H   0  0  0  0  0  0  0  0  0  0  0  0
   33.3150   25.2230   36.2380 H   0  0  0  0  0  0  0  0  0  0  0  0
  1  4  1  0  0  0  0
  1  3  1  0  0  0  0
  2  1  1  0  0  0  0
  4  8  1  0  0  0  0
  5 10  1  0  0  0  0
  5  4  1  0  0  0  0
  5  6  1  0  0  0  0
  6 12  1  0  0  0  0
  6  7  1  0  0  0  0
  7 14  1  0  0  0  0
  7 13  1  0  0  0  0
  8 15  1  1  0  0  0
  8  7  1  0  0  0  0
  9  5  1  0  0  0  0
 11  6  1  0  0  0  0
 16  8  1  0  0  0  0
 16 27  1  0  0  0  0
 17 16  2  0  0  0  0
 18 17  1  0  0  0  0
 18 19  2  0  0  0  0
 19 20  1  0  0  0  0
 20 27  2  0  0  0  0
 20 21  1  0  0  0  0
 21 22  2  0  0  0  0
 22 23  1  0  0  0  0
 22 24  1  0  0  0  0
 24 25  1  0  0  0  0
 26 24  2  0  0  0  0
 27 26  1  0  0  0  0
 29 28  2  0  0  0  0
 29  1  1  0  0  0  0
 30 36  1  0  0  0  0
 31 30  1  0  0  0  0
 31 28  1  0  0  0  0
 32 31  2  0  0  0  0
 33 34  2  0  0  0  0
 33 32  1  0  0  0  0
 34 35  1  0  0  0  0
 35 30  2  0  0  0  0
 37 32  1  0  0  0  0
 39 40  1  0  0  0  0
 39 38  1  0  0  0  0
 40 34  1  0  0  0  0
 41 45  1  0  0  0  0
 41 40  2  0  0  0  0
 42 41  1  0  0  0  0
 43 42  2  0  0  0  0
 43 44  1  0  0  0  0
 44 39  2  0  0  0  0
 46 42  1  0  0  0  0
 47 43  1  0  0  0  0
 48 44  1  0  0  0  0
M  END
>  <minimizedAffinity>
-6.18148708

$$$$

 OpenBabel03252501523D

 48 52  0  0  1  0  0  0  0  0999 V2000
   34.0730   28.0190   37.5440 C   0  0  0  0  0  0  0  0  0  0  0  0
   33.4860   27.9010   38.4890 H   0  0  0  0  0  0  0  0  0  0  0  0
   33.4460   28.5360   36.7870 H   0  0  0  0  0  0  0  0  0  0  0  0
   34.4520   26.7360   37.0540 N   0  0  0  0  0  0  0  0  0  0  0  0
   34.1590   26.5520   35.6780 C   0  0  0  0  0  0  0  0  0  0  0  0
   35.2220   25.6540   35.0990 C   0  0  0  0  0  0  0  0  0  0  0  0
   36.3950   25.9210   35.9870 C   0  0  0  0  0  0  0  0  0  0  0  0
   35.8460   26.4410   37.2880 C   0  0  2  0  0  0  0  0  0  0  0  0
   33.1870   26.0250   35.5820 H   0  0  0  0  0  0  0  0  0  0  0  0
   34.0490   27.4930   35.1020 H   0  0  0  0  0  0  0  0  0  0  0  0
   34.9230   24.5900   35.2300 H   0  0  0  0  0  0  0  0  0  0  0  0
   35.4120   25.8660   34.0340 H   0  0  0  0  0  0  0  0  0  0  0  0
   36.9960   26.7540   35.5440 H   0  0  0  0  0  0  0  0  0  0  0  0
   37.0720   25.0550   36.1250 H   0  0  0  0  0  0  0  0  0  0  0  0
   36.3470   27.3510   37.6410 H   0  0  0  0  0  0  0  0  0  0  0  0
   35.8510   25.3150   38.2580 C   0  0  0  0  0  0  0  0  0  0  0  0
   35.3230   24.1040   37.9640 N   0  0  0  0  0  0  0  0  0  0  0  0
   35.3160   23.0730   38.8280 C   0  0  0  0  0  3  0  0  0  0  0  0
   35.8390   23.1600   40.0640 N   0  0  0  0  0  0  0  0  0  0  0  0
   36.3810   24.3370   40.4220 C   0  0  0  0  0  0  0  0  0  0  0  0
   36.9250   24.4490   41.6880 C   0  0  0  0  0  3  0  0  0  0  0  0
   37.4880   25.6450   42.0820 C   0  0  0  0  0  0  0  0  0  0  0  0
   37.8910   25.6370   43.0980 H   0  0  0  0  0  0  0  0  0  0  0  0
   37.5070   26.7320   41.2030 C   0  0  0  0  0  0  0  0  0  0  0  0
   37.9650   27.6090   41.6040 H   0  0  0  0  0  0  0  0  0  0  0  0
   36.9500   26.5760   39.9390 C   0  0  0  0  0  3  0  0  0  0  0  0
   36.3810   25.3880   39.5270 C   0  0  0  0  0  0  0  0  0  0  0  0
   35.3660   29.5670   38.9400 C   0  0  0  0  0  3  0  0  0  0  0  0
   35.2470   28.9310   37.7660 C   0  0  0  0  0  3  0  0  0  0  0  0
   37.2940   31.0360   38.1960 C   0  0  0  0  0  0  0  0  0  0  0  0
   36.4860   30.4740   39.2300 C   0  0  0  0  0  0  0  0  0  0  0  0
   36.7700   30.8000   40.5630 C   0  0  0  0  0  0  0  0  0  0  0  0
   37.8120   31.6420   40.8080 N   0  0  0  0  0  0  0  0  0  0  0  0
   38.5460   32.1490   39.8270 C   0  0  0  0  0  0  0  0  0  0  0  0
   38.2840   31.8440   38.5370 N   0  0  0  0  0  0  0  0  0  0  0  0
   37.0560   30.7700   37.1750 H   0  0  0  0  0  0  0  0  0  0  0  0
   36.1900   30.4020   41.3770 H   0  0  0  0  0  0  0  0  0  0  0  0
   38.1640   34.8960   40.0250 F   0  0  0  0  0  0  0  0  0  0  0  0
   39.4270   34.4280   40.2280 C   0  0  0  0  0  0  0  0  0  0  0  0
   39.6530   33.0490   40.1360 C   0  0  0  0  0  0  0  0  0  0  0  0
   40.9030   32.5040   40.3280 C   0  0  0  0  0  0  0  0  0  0  0  0
   41.9450   33.3830   40.6220 C   0  0  0  0  0  0  0  0  0  0  0  0
   41.7380   34.7790   40.7200 C   0  0  0  0  0  0  0  0  0  0  0  0
   40.4610   35.2840   40.5180 C   0  0  0  0  0  0  0  0  0  0  0  0
   41.1060   31.4530   40.2630 H   0  0  0  0  0  0  0  0  0  0  0  0
   42.9620   33.0660   40.7910 H   0  0  0  0  0  0  0  0  0  0  0  0
   42.5320   35.4580   40.9450 H   0  0  0  0  0  0  0  0  0  0  0  0
   40.2400   36.3390   40.5800 H   0  0  0  0  0  0  0  0  0  0  0  0
  1 29  1  0  0  0  0
  1  2  1  0  0  0  0
  3  1  1  0  0  0  0
  4  8  1  0  0  0  0
  4  1  1  0  0  0  0
  5  4  1  0  0  0  0
  6 11  1  0  0  0  0
  6  5  1  0  0  0  0
  6  7  1  0  0  0  0
  7 14  1  0  0  0  0
  7  8  1  0  0  0  0
  8 15  1  1  0  0  0
  8 16  1  0  0  0  0
  9  5  1  0  0  0  0
 10  5  1  0  0  0  0
 12  6  1  0  0  0  0
 13  7  1  0  0  0  0
 16 27  1  0  0  0  0
 17 16  2  0  0  0  0
 17 18  1  0  0  0  0
 18 19  2  0  0  0  0
 19 20  1  0  0  0  0
 20 21  1  0  0  0  0
 21 22  2  0  0  0  0
 22 23  1  0  0  0  0
 24 25  1  0  0  0  0
 24 22  1  0  0  0  0
 26 24  2  0  0  0  0
 27 26  1  0  0  0  0
 27 20  2  0  0  0  0
 28 31  1  0  0  0  0
 29 28  2  0  0  0  0
 30 35  2  0  0  0  0
 30 31  1  0  0  0  0
 31 32  2  0  0  0  0
 32 33  1  0  0  0  0
 32 37  1  0  0  0  0
 34 40  1  0  0  0  0
 34 33  2  0  0  0  0
 35 34  1  0  0  0  0
 36 30  1  0  0  0  0
 38 39  1  0  0  0  0
 39 44  1  0  0  0  0
 40 39  2  0  0  0  0
 40 41  1  0  0  0  0
 41 42  2  0  0  0  0
 42 43  1  0  0  0  0
 42 46  1  0  0  0  0
 43 47  1  0  0  0  0
 44 48  1  0  0  0  0
 44 43  2  0  0  0  0
 45 41  1  0  0  0  0
M  END
>  <minimizedAffinity>
-6.11288929

$$$$
