
 OpenBabel03252506563D

 41 46  0  0  0  0  0  0  0  0999 V2000
   47.2580   31.4030   45.1100 C   0  0  0  0  0  0  0  0  0  0  0  0
   46.9080   32.7390   45.0630 C   0  0  0  0  0  0  0  0  0  0  0  0
   46.2850   33.3770   46.1180 C   0  0  0  0  0  0  0  0  0  0  0  0
   45.9860   32.6670   47.2910 C   0  0  0  0  0  0  0  0  0  0  0  0
   45.4030   32.9500   48.4860 N   0  0  0  0  0  0  0  0  0  0  0  0
   45.4000   31.8160   49.2380 C   0  0  0  0  0  0  0  0  0  0  0  0
   45.9820   30.8530   48.4900 N   0  0  0  0  0  0  0  0  0  0  0  0
   46.3500   31.3420   47.2980 C   0  0  0  0  0  0  0  0  0  0  0  0
   46.9620   30.6870   46.2780 C   0  0  0  0  0  0  0  0  0  0  0  0
   47.7490   30.8970   44.2750 H   0  0  0  0  0  0  0  0  0  0  0  0
   46.0070   34.4180   46.0950 H   0  0  0  0  0  0  0  0  0  0  0  0
   45.0710   33.9100   48.6460 H   0  0  0  0  0  0  0  0  0  0  0  0
   44.9870   31.8050   50.2260 H   0  0  0  0  0  0  0  0  0  0  0  0
   46.6080   35.1840   42.3320 C   0  0  0  0  0  0  0  0  0  0  0  0
   47.7900   34.9890   41.6220 C   0  0  0  0  0  0  0  0  0  0  0  0
   48.6940   34.0130   42.0810 C   0  0  0  0  0  0  0  0  0  0  0  0
   48.3620   33.3060   43.2050 N   0  0  0  0  0  0  0  0  0  0  0  0
   47.1950   33.5260   43.8740 C   0  0  0  0  0  0  0  0  0  0  0  0
   46.3230   34.4580   43.4420 N   0  0  0  0  0  0  0  0  0  0  0  0
   45.9570   35.9430   41.9340 H   0  0  0  0  0  0  0  0  0  0  0  0
   48.0930   35.5120   40.7430 H   0  0  0  0  0  0  0  0  0  0  0  0
   49.6440   33.7500   41.6390 H   0  0  0  0  0  0  0  0  0  0  0  0
   47.3140   29.2620   46.3800 C   0  0  0  0  0  0  0  0  0  0  0  0
   48.5820   28.7500   46.3040 C   0  0  0  0  0  0  0  0  0  0  0  0
   48.3650   27.3710   46.4580 C   0  0  0  0  0  0  0  0  0  0  0  0
   47.0340   27.1160   46.6130 C   0  0  0  0  0  0  0  0  0  0  0  0
   46.4780   28.3010   46.5550 O   0  0  0  0  0  0  0  0  0  0  0  0
   49.5270   29.2490   46.1620 H   0  0  0  0  0  0  0  0  0  0  0  0
   49.1750   26.7060   46.4740 H   0  0  0  0  0  0  0  0  0  0  0  0
   46.1670   25.9730   46.8140 C   0  0  0  0  0  0  0  0  0  0  0  0
   46.6990   24.7770   47.1870 N   0  0  0  0  0  0  0  0  0  0  0  0
   46.0030   23.6650   47.2920 C   0  0  0  0  0  3  0  0  0  0  0  0
   44.6840   23.5940   47.0400 N   0  0  0  0  0  0  0  0  0  0  0  0
   44.0410   24.7370   46.6580 C   0  0  0  0  0  0  0  0  0  0  0  0
   42.7050   24.7420   46.4150 C   0  0  0  0  0  3  0  0  0  0  0  0
   42.0250   25.8890   46.0600 C   0  0  0  0  0  0  0  0  0  0  0  0
   40.9740   25.7590   45.8950 H   0  0  0  0  0  0  0  0  0  0  0  0
   42.8090   27.0410   45.9700 C   0  0  0  0  0  0  0  0  0  0  0  0
   42.2370   27.9320   45.6860 H   0  0  0  0  0  0  0  0  0  0  0  0
   44.1580   26.9930   46.2220 C   0  0  0  0  0  3  0  0  0  0  0  0
   44.8270   25.8570   46.5710 C   0  0  0  0  0  0  0  0  0  0  0  0
  1  9  1  0  0  0  0
  2  1  2  0  0  0  0
  2  3  1  0  0  0  0
  3  4  2  0  0  0  0
  4  8  1  0  0  0  0
  4  5  1  0  0  0  0
  5 12  1  0  0  0  0
  5  6  1  0  0  0  0
  6 13  1  0  0  0  0
  7  6  2  0  0  0  0
  8  7  1  0  0  0  0
  9 23  1  0  0  0  0
  9  8  2  0  0  0  0
 10  1  1  0  0  0  0
 11  3  1  0  0  0  0
 14 19  1  0  0  0  0
 15 16  1  0  0  0  0
 15 14  2  0  0  0  0
 16 17  2  0  0  0  0
 17 18  1  0  0  0  0
 18  2  1  0  0  0  0
 19 18  2  0  0  0  0
 20 14  1  0  0  0  0
 21 15  1  0  0  0  0
 22 16  1  0  0  0  0
 23 27  1  0  0  0  0
 24 23  2  0  0  0  0
 24 25  1  0  0  0  0
 25 29  1  0  0  0  0
 25 26  2  0  0  0  0
 26 30  1  0  0  0  0
 27 26  1  0  0  0  0
 28 24  1  0  0  0  0
 30 31  1  0  0  0  0
 31 32  2  0  0  0  0
 33 32  1  0  0  0  0
 34 33  2  0  0  0  0
 35 34  1  0  0  0  0
 36 35  2  0  0  0  0
 37 36  1  0  0  0  0
 38 36  1  0  0  0  0
 38 40  2  0  0  0  0
 39 38  1  0  0  0  0
 40 41  1  0  0  0  0
 41 34  1  0  0  0  0
 41 30  2  0  0  0  0
M  END
>  <minimizedAffinity>
-6.38582754

>  <minimizedRMSD>
0.526703537

$$$$
