
 OpenBabel03242515433D

 41 46  0  0  1  0  0  0  0  0999 V2000
   43.7540   34.0060   40.9810 C   0  0  0  0  0  0  0  0  0  0  0  0
   43.6740   33.2190   39.8860 C   0  0  0  0  0  0  0  0  0  0  0  0
   44.8830   32.9420   39.2050 C   0  0  0  0  0  0  0  0  0  0  0  0
   46.0410   33.4590   39.6560 N   0  0  0  0  0  0  0  0  0  0  0  0
   46.0680   34.2350   40.7450 C   0  0  0  0  0  0  0  0  0  0  0  0
   44.9230   34.4660   41.3460 N   0  0  0  0  0  0  0  0  0  0  0  0
   42.5830   32.5770   39.2430 C   0  0  2  0  0  0  0  0  0  0  0  0
   41.6410   32.0070   38.6740 N   0  0  0  0  0  0  0  0  0  0  0  0
   40.9010   31.1250   38.2490 C   0  0  0  0  0  0  0  0  0  0  0  0
   40.1730   32.1320   37.7450 N   0  0  0  0  0  0  0  0  0  0  0  0
   40.5070   33.4380   37.8910 C   0  0  0  0  0  0  0  0  0  0  0  0
   39.7520   34.4630   37.2590 C   0  0  0  0  0  0  0  0  0  0  0  0
   40.2400   35.7320   37.3790 C   0  0  0  0  0  0  0  0  0  0  0  0
   39.5840   36.4050   36.8640 H   0  0  0  0  0  0  0  0  0  0  0  0
   41.3790   36.1300   38.0380 C   0  0  0  0  0  0  0  0  0  0  0  0
   41.7040   37.1210   38.0920 H   0  0  0  0  0  0  0  0  0  0  0  0
   42.0120   35.0180   38.6090 C   0  0  0  0  0  0  0  0  0  0  0  0
   41.7020   33.5960   38.6340 C   0  0  1  0  0  0  0  0  0  0  0  0
   44.8820   32.1850   37.9800 N   0  0  0  0  0  0  0  0  0  0  0  0
   44.1470   32.0500   37.2570 H   0  0  0  0  0  0  0  0  0  0  0  0
   45.7770   31.6670   37.7490 H   0  0  0  0  0  0  0  0  0  0  0  0
   42.1850   34.3110   41.8300 S   0  0  0  0  0  0  0  0  0  0  0  0
   39.8970   32.9990   41.5330 C   0  0  0  0  0  0  0  0  0  0  0  0
   41.2170   32.8210   41.9070 C   0  0  0  0  0  0  0  0  0  0  0  0
   41.6690   31.5810   42.2670 C   0  0  0  0  0  0  0  0  0  0  0  0
   40.8600   30.4680   42.2750 C   0  0  0  0  0  0  0  0  0  0  0  0
   39.5280   30.6460   41.8970 C   0  0  0  0  0  0  0  0  0  0  0  0
   39.0320   31.8830   41.5280 C   0  0  0  0  0  0  0  0  0  0  0  0
   38.8890   29.3820   41.9790 O   0  0  0  0  0  0  0  0  0  0  0  0
   39.7450   28.5630   42.7050 C   0  0  0  0  0  0  0  0  0  0  0  0
   41.0360   29.1260   42.5810 O   0  0  0  0  0  0  0  0  0  0  0  0
   39.4350   33.9400   41.2300 H   0  0  0  0  0  0  0  0  0  0  0  0
   42.6930   31.5150   42.5450 H   0  0  0  0  0  0  0  0  0  0  0  0
   37.9790   31.9990   41.2350 H   0  0  0  0  0  0  0  0  0  0  0  0
   39.7760   27.5650   42.2100 H   0  0  0  0  0  0  0  0  0  0  0  0
   39.4480   28.4240   43.7640 H   0  0  0  0  0  0  0  0  0  0  0  0
   47.1980   34.8050   41.2720 O   0  0  0  0  0  0  0  0  0  0  0  0
   48.3810   34.7920   40.5030 C   0  0  0  0  0  0  0  0  0  0  0  0
   49.1360   33.6690   40.7360 F   0  0  0  0  0  0  0  0  0  0  0  0
   47.9880   34.8850   39.1640 F   0  0  0  0  0  0  0  0  0  0  0  0
   49.1340   35.9020   40.8710 F   0  0  0  0  0  0  0  0  0  0  0  0
  1  6  1  0  0  0  0
  1 22  1  0  0  0  0
  2  1  2  0  0  0  0
  3  4  2  0  0  0  0
  3  2  1  0  0  0  0
  4  5  1  0  0  0  0
  5 37  1  0  0  0  0
  5  6  2  0  0  0  0
  7  2  1  6  0  0  0
  8  7  1  0  0  0  0
  9  8  1  0  0  0  0
 10 11  1  0  0  0  0
 10  9  2  0  0  0  0
 11 18  1  0  0  0  0
 12 13  1  0  0  0  0
 12 11  2  0  0  0  0
 13 15  2  0  0  0  0
 14 13  1  0  0  0  0
 15 16  1  0  0  0  0
 15 17  1  0  0  0  0
 18 17  1  6  0  0  0
 18  8  1  0  0  0  0
 18  7  1  0  0  0  0
 19  3  1  0  0  0  0
 20 19  1  0  0  0  0
 21 19  1  0  0  0  0
 22 24  1  0  0  0  0
 23 24  1  0  0  0  0
 24 25  2  0  0  0  0
 25 26  1  0  0  0  0
 25 33  1  0  0  0  0
 26 31  1  0  0  0  0
 27 29  1  0  0  0  0
 27 26  2  0  0  0  0
 28 23  2  0  0  0  0
 28 27  1  0  0  0  0
 29 30  1  0  0  0  0
 30 36  1  0  0  0  0
 31 30  1  0  0  0  0
 32 23  1  0  0  0  0
 34 28  1  0  0  0  0
 35 30  1  0  0  0  0
 38 39  1  0  0  0  0
 38 41  1  0  0  0  0
 38 37  1  0  0  0  0
 40 38  1  0  0  0  0
M  END
>  <minimizedAffinity>
-5.78156328

>  <minimizedRMSD>
1.62300467

$$$$
