
 OpenBabel03242516273D

 46 51  0  0  0  0  0  0  0  0999 V2000
   36.8280   26.6950   38.1020 C   0  0  0  0  0  0  0  0  0  0  0  0
   36.0510   27.0210   37.0290 N   0  0  0  0  0  0  0  0  0  0  0  0
   35.0240   26.2730   36.6160 C   0  0  0  0  0  0  0  0  0  0  0  0
   34.7480   25.1450   37.2910 N   0  0  0  0  0  0  0  0  0  0  0  0
   35.4550   24.7440   38.3550 C   0  0  0  0  0  0  0  0  0  0  0  0
   35.1740   23.5970   39.0730 C   0  0  0  0  0  0  0  0  0  0  0  0
   35.9300   23.2470   40.1780 C   0  0  0  0  0  0  0  0  0  0  0  0
   37.0060   24.0270   40.6180 C   0  0  0  0  0  0  0  0  0  0  0  0
   37.2540   25.1650   39.8710 C   0  0  0  0  0  0  0  0  0  0  0  0
   36.5160   25.5310   38.7730 C   0  0  0  0  0  0  0  0  0  0  0  0
   34.4430   26.5710   35.7720 H   0  0  0  0  0  0  0  0  0  0  0  0
   34.3480   23.0130   38.7210 H   0  0  0  0  0  0  0  0  0  0  0  0
   35.5890   22.3210   40.6470 H   0  0  0  0  0  0  0  0  0  0  0  0
   37.4690   23.6090   41.4790 H   0  0  0  0  0  0  0  0  0  0  0  0
   38.4680   25.7560   40.4170 C   0  0  0  0  0  0  0  0  0  0  0  0
   39.7810   25.7330   40.0330 N   0  0  0  0  0  0  0  0  0  0  0  0
   40.7030   26.4110   40.7630 C   0  0  0  0  0  3  0  0  0  0  0  0
   40.4280   27.1330   41.8770 N   0  0  0  0  0  0  0  0  0  0  0  0
   39.1480   27.1870   42.2930 C   0  0  0  0  0  0  0  0  0  0  0  0
   38.8940   27.9380   43.4050 C   0  0  0  0  0  3  0  0  0  0  0  0
   37.6170   28.0530   43.8680 C   0  0  0  0  0  0  0  0  0  0  0  0
   37.3740   28.6340   44.7340 H   0  0  0  0  0  0  0  0  0  0  0  0
   36.5740   27.4110   43.2190 C   0  0  0  0  0  0  0  0  0  0  0  0
   35.5560   27.4770   43.5500 H   0  0  0  0  0  0  0  0  0  0  0  0
   36.9150   26.6740   42.1090 C   0  0  0  0  0  3  0  0  0  0  0  0
   38.1790   26.5030   41.5680 C   0  0  0  0  0  0  0  0  0  0  0  0
   38.1860   27.6700   38.6770 S   0  0  0  0  0  0  0  0  0  0  0  0
   38.0120   31.4960   39.9220 C   0  0  0  0  0  0  0  0  0  0  0  0
   38.3910   30.2990   39.3910 C   0  0  0  0  0  0  0  0  0  0  0  0
   37.5700   29.1920   39.3950 C   0  0  0  0  0  0  0  0  0  0  0  0
   36.2900   29.2690   39.9600 C   0  0  0  0  0  0  0  0  0  0  0  0
   35.8850   30.4450   40.4930 C   0  0  0  0  0  0  0  0  0  0  0  0
   36.7370   31.5370   40.4720 C   0  0  0  0  0  0  0  0  0  0  0  0
   39.3900   30.2240   38.9380 H   0  0  0  0  0  0  0  0  0  0  0  0
   35.6510   28.4210   39.9670 H   0  0  0  0  0  0  0  0  0  0  0  0
   34.9030   30.5740   40.9490 H   0  0  0  0  0  0  0  0  0  0  0  0
   36.4010   32.4710   40.9010 H   0  0  0  0  0  0  0  0  0  0  0  0
   39.1940   34.8970   40.5160 C   0  0  0  0  0  0  0  0  0  0  0  0
   40.4680   34.9100   39.9480 C   0  0  0  0  0  0  0  0  0  0  0  0
   40.9320   33.7300   39.3530 C   0  0  0  0  0  0  0  0  0  0  0  0
   40.1320   32.6250   39.3480 N   0  0  0  0  0  0  0  0  0  0  0  0
   38.8820   32.6600   39.9190 C   0  0  0  0  0  0  0  0  0  0  0  0
   38.4360   33.7900   40.4910 N   0  0  0  0  0  0  0  0  0  0  0  0
   38.8980   35.8430   40.9630 H   0  0  0  0  0  0  0  0  0  0  0  0
   41.1780   35.7310   39.8970 H   0  0  0  0  0  0  0  0  0  0  0  0
   41.9000   33.5970   38.8710 H   0  0  0  0  0  0  0  0  0  0  0  0
  1 27  1  0  0  0  0
  1 10  1  0  0  0  0
  2  1  2  0  0  0  0
  3  2  1  0  0  0  0
  3  4  2  0  0  0  0
  4  5  1  0  0  0  0
  5 10  2  0  0  0  0
  5  6  1  0  0  0  0
  6  7  2  0  0  0  0
  7  8  1  0  0  0  0
  7 13  1  0  0  0  0
  8 14  1  0  0  0  0
  9 15  1  0  0  0  0
  9  8  2  0  0  0  0
 10  9  1  0  0  0  0
 11  3  1  0  0  0  0
 12  6  1  0  0  0  0
 15 26  1  0  0  0  0
 16 15  2  0  0  0  0
 16 17  1  0  0  0  0
 17 18  2  0  0  0  0
 18 19  1  0  0  0  0
 19 20  1  0  0  0  0
 20 21  2  0  0  0  0
 21 22  1  0  0  0  0
 23 24  1  0  0  0  0
 23 21  1  0  0  0  0
 25 23  2  0  0  0  0
 26 25  1  0  0  0  0
 26 19  2  0  0  0  0
 27 30  1  0  0  0  0
 28 33  1  0  0  0  0
 29 30  1  0  0  0  0
 29 28  2  0  0  0  0
 30 31  2  0  0  0  0
 31 35  1  0  0  0  0
 31 32  1  0  0  0  0
 32 36  1  0  0  0  0
 33 32  2  0  0  0  0
 33 37  1  0  0  0  0
 34 29  1  0  0  0  0
 38 44  1  0  0  0  0
 39 38  2  0  0  0  0
 40 39  1  0  0  0  0
 41 40  2  0  0  0  0
 41 42  1  0  0  0  0
 42 28  1  0  0  0  0
 42 43  2  0  0  0  0
 43 38  1  0  0  0  0
 45 39  1  0  0  0  0
 46 40  1  0  0  0  0
M  END
>  <minimizedAffinity>
-7.27620125

$$$$

 OpenBabel03242516273D

 46 51  0  0  0  0  0  0  0  0999 V2000
   36.2600   26.6490   39.4090 C   0  0  0  0  0  0  0  0  0  0  0  0
   35.6390   26.3680   38.2260 N   0  0  0  0  0  0  0  0  0  0  0  0
   35.6940   25.1700   37.6390 C   0  0  0  0  0  0  0  0  0  0  0  0
   36.3970   24.1980   38.2430 N   0  0  0  0  0  0  0  0  0  0  0  0
   37.0390   24.3800   39.4040 C   0  0  0  0  0  0  0  0  0  0  0  0
   37.7510   23.3870   40.0490 C   0  0  0  0  0  0  0  0  0  0  0  0
   38.3760   23.6330   41.2590 C   0  0  0  0  0  0  0  0  0  0  0  0
   38.3210   24.8850   41.8820 C   0  0  0  0  0  0  0  0  0  0  0  0
   37.5990   25.8510   41.2020 C   0  0  0  0  0  0  0  0  0  0  0  0
   36.9720   25.6280   40.0030 C   0  0  0  0  0  0  0  0  0  0  0  0
   35.1890   24.9980   36.7140 H   0  0  0  0  0  0  0  0  0  0  0  0
   37.7830   22.4370   39.5570 H   0  0  0  0  0  0  0  0  0  0  0  0
   38.8940   22.7550   41.6530 H   0  0  0  0  0  0  0  0  0  0  0  0
   38.8540   24.8910   42.8020 H   0  0  0  0  0  0  0  0  0  0  0  0
   37.7690   27.0890   41.9500 C   0  0  0  0  0  0  0  0  0  0  0  0
   37.0440   27.6990   42.9370 N   0  0  0  0  0  0  0  0  0  0  0  0
   37.4790   28.8760   43.4550 C   0  0  0  0  0  3  0  0  0  0  0  0
   38.6060   29.5220   43.0680 N   0  0  0  0  0  0  0  0  0  0  0  0
   39.3540   28.9580   42.1000 C   0  0  0  0  0  0  0  0  0  0  0  0
   40.4960   29.6180   41.7420 C   0  0  0  0  0  3  0  0  0  0  0  0
   41.3090   29.0920   40.7830 C   0  0  0  0  0  0  0  0  0  0  0  0
   42.2150   29.5750   40.4760 H   0  0  0  0  0  0  0  0  0  0  0  0
   40.9860   27.8940   40.1670 C   0  0  0  0  0  0  0  0  0  0  0  0
   41.6000   27.4460   39.4100 H   0  0  0  0  0  0  0  0  0  0  0  0
   39.8200   27.2950   40.5840 C   0  0  0  0  0  3  0  0  0  0  0  0
   38.9360   27.7540   41.5470 C   0  0  0  0  0  0  0  0  0  0  0  0
   36.1960   28.2220   40.2140 S   0  0  0  0  0  0  0  0  0  0  0  0
   37.9530   31.5740   38.8380 C   0  0  0  0  0  0  0  0  0  0  0  0
   37.4820   30.5570   39.6120 C   0  0  0  0  0  0  0  0  0  0  0  0
   36.7740   29.4940   39.0920 C   0  0  0  0  0  0  0  0  0  0  0  0
   36.5130   29.4310   37.7170 C   0  0  0  0  0  0  0  0  0  0  0  0
   36.9700   30.4260   36.9220 C   0  0  0  0  0  0  0  0  0  0  0  0
   37.6770   31.4780   37.4800 C   0  0  0  0  0  0  0  0  0  0  0  0
   37.6840   30.5880   40.6930 H   0  0  0  0  0  0  0  0  0  0  0  0
   35.9680   28.6160   37.3070 H   0  0  0  0  0  0  0  0  0  0  0  0
   36.8020   30.4400   35.8450 H   0  0  0  0  0  0  0  0  0  0  0  0
   38.0370   32.2670   36.8340 H   0  0  0  0  0  0  0  0  0  0  0  0
   40.7750   33.6370   39.8860 C   0  0  0  0  0  0  0  0  0  0  0  0
   40.1730   34.7720   40.4300 C   0  0  0  0  0  0  0  0  0  0  0  0
   38.7740   34.8330   40.4350 C   0  0  0  0  0  0  0  0  0  0  0  0
   38.0580   33.7930   39.9160 N   0  0  0  0  0  0  0  0  0  0  0  0
   38.6950   32.6940   39.3910 C   0  0  0  0  0  0  0  0  0  0  0  0
   40.0360   32.6350   39.3850 N   0  0  0  0  0  0  0  0  0  0  0  0
   41.8610   33.6570   39.9100 H   0  0  0  0  0  0  0  0  0  0  0  0
   40.6470   35.6460   40.8670 H   0  0  0  0  0  0  0  0  0  0  0  0
   38.1720   35.6520   40.8290 H   0  0  0  0  0  0  0  0  0  0  0  0
  1 10  1  0  0  0  0
  1 27  1  0  0  0  0
  2  1  2  0  0  0  0
  3  2  1  0  0  0  0
  3  4  2  0  0  0  0
  4  5  1  0  0  0  0
  5 10  2  0  0  0  0
  5  6  1  0  0  0  0
  6  7  2  0  0  0  0
  7 13  1  0  0  0  0
  7  8  1  0  0  0  0
  8 14  1  0  0  0  0
  9  8  2  0  0  0  0
  9 15  1  0  0  0  0
 10  9  1  0  0  0  0
 11  3  1  0  0  0  0
 12  6  1  0  0  0  0
 15 16  1  0  0  0  0
 16 17  2  0  0  0  0
 18 17  1  0  0  0  0
 19 18  2  0  0  0  0
 20 19  1  0  0  0  0
 21 20  2  0  0  0  0
 22 21  1  0  0  0  0
 23 25  2  0  0  0  0
 23 21  1  0  0  0  0
 24 23  1  0  0  0  0
 25 26  1  0  0  0  0
 26 15  2  0  0  0  0
 26 19  1  0  0  0  0
 28 42  1  0  0  0  0
 28 29  1  0  0  0  0
 29 34  1  0  0  0  0
 30 29  2  0  0  0  0
 30 27  1  0  0  0  0
 31 30  1  0  0  0  0
 32 33  1  0  0  0  0
 32 31  2  0  0  0  0
 33 28  2  0  0  0  0
 35 31  1  0  0  0  0
 36 32  1  0  0  0  0
 37 33  1  0  0  0  0
 38 44  1  0  0  0  0
 38 39  1  0  0  0  0
 39 40  2  0  0  0  0
 39 45  1  0  0  0  0
 40 46  1  0  0  0  0
 41 40  1  0  0  0  0
 42 41  2  0  0  0  0
 43 42  1  0  0  0  0
 43 38  2  0  0  0  0
M  END
>  <minimizedAffinity>
-6.93278646

$$$$

 OpenBabel03242516273D

 46 51  0  0  0  0  0  0  0  0999 V2000
   37.9320   28.4300   38.9390 C   0  0  0  0  0  0  0  0  0  0  0  0
   38.2450   28.9780   37.7290 N   0  0  0  0  0  0  0  0  0  0  0  0
   38.0960   28.3280   36.5720 C   0  0  0  0  0  0  0  0  0  0  0  0
   37.6170   27.0740   36.6040 N   0  0  0  0  0  0  0  0  0  0  0  0
   37.2820   26.4540   37.7430 C   0  0  0  0  0  0  0  0  0  0  0  0
   36.7700   25.1720   37.7940 C   0  0  0  0  0  0  0  0  0  0  0  0
   36.4240   24.5930   39.0030 C   0  0  0  0  0  0  0  0  0  0  0  0
   36.5740   25.2680   40.2200 C   0  0  0  0  0  0  0  0  0  0  0  0
   37.0920   26.5490   40.1230 C   0  0  0  0  0  0  0  0  0  0  0  0
   37.4400   27.1410   38.9360 C   0  0  0  0  0  0  0  0  0  0  0  0
   38.3530   28.8010   35.6500 H   0  0  0  0  0  0  0  0  0  0  0  0
   36.6630   24.6710   36.8540 H   0  0  0  0  0  0  0  0  0  0  0  0
   36.0270   23.5810   38.8880 H   0  0  0  0  0  0  0  0  0  0  0  0
   36.2570   24.6740   41.0420 H   0  0  0  0  0  0  0  0  0  0  0  0
   37.2780   27.0180   41.4890 C   0  0  0  0  0  0  0  0  0  0  0  0
   36.5340   27.8060   42.3230 N   0  0  0  0  0  0  0  0  0  0  0  0
   36.9820   28.0600   43.5800 C   0  0  0  0  0  3  0  0  0  0  0  0
   38.1410   27.5850   44.0970 N   0  0  0  0  0  0  0  0  0  0  0  0
   38.9070   26.8020   43.3140 C   0  0  0  0  0  0  0  0  0  0  0  0
   40.0600   26.3200   43.8660 C   0  0  0  0  0  3  0  0  0  0  0  0
   40.8710   25.5040   43.1350 C   0  0  0  0  0  0  0  0  0  0  0  0
   41.7820   25.1020   43.5300 H   0  0  0  0  0  0  0  0  0  0  0  0
   40.5360   25.1620   41.8340 C   0  0  0  0  0  0  0  0  0  0  0  0
   41.1470   24.5230   41.2270 H   0  0  0  0  0  0  0  0  0  0  0  0
   39.3610   25.6910   41.3540 C   0  0  0  0  0  3  0  0  0  0  0  0
   38.4780   26.5230   42.0220 C   0  0  0  0  0  0  0  0  0  0  0  0
   38.1090   29.2690   40.4850 S   0  0  0  0  0  0  0  0  0  0  0  0
   39.8960   32.7650   39.5870 C   0  0  0  0  0  0  0  0  0  0  0  0
   39.6120   31.4530   39.8220 C   0  0  0  0  0  0  0  0  0  0  0  0
   38.3570   31.0200   40.1920 C   0  0  0  0  0  0  0  0  0  0  0  0
   37.3120   31.9420   40.3410 C   0  0  0  0  0  0  0  0  0  0  0  0
   37.5630   33.2510   40.1130 C   0  0  0  0  0  0  0  0  0  0  0  0
   38.8370   33.6500   39.7430 C   0  0  0  0  0  0  0  0  0  0  0  0
   40.4200   30.7160   39.7040 H   0  0  0  0  0  0  0  0  0  0  0  0
   36.3410   31.6160   40.6260 H   0  0  0  0  0  0  0  0  0  0  0  0
   36.7970   34.0200   40.2110 H   0  0  0  0  0  0  0  0  0  0  0  0
   39.0240   34.7000   39.5630 H   0  0  0  0  0  0  0  0  0  0  0  0
   42.6540   33.9140   37.4920 C   0  0  0  0  0  0  0  0  0  0  0  0
   43.7100   34.0720   38.3900 C   0  0  0  0  0  0  0  0  0  0  0  0
   43.4710   33.7830   39.7390 C   0  0  0  0  0  0  0  0  0  0  0  0
   42.2320   33.3600   40.1230 N   0  0  0  0  0  0  0  0  0  0  0  0
   41.2220   33.2180   39.2020 C   0  0  0  0  0  0  0  0  0  0  0  0
   41.4490   33.4950   37.9080 N   0  0  0  0  0  0  0  0  0  0  0  0
   42.9060   34.1580   36.4640 H   0  0  0  0  0  0  0  0  0  0  0  0
   44.7270   34.3970   38.1890 H   0  0  0  0  0  0  0  0  0  0  0  0
   44.2000   33.8580   40.5460 H   0  0  0  0  0  0  0  0  0  0  0  0
  1 27  1  0  0  0  0
  2  1  2  0  0  0  0
  3  4  2  0  0  0  0
  3  2  1  0  0  0  0
  4  5  1  0  0  0  0
  5  6  2  0  0  0  0
  5 10  1  0  0  0  0
  6  7  1  0  0  0  0
  7  8  2  0  0  0  0
  8 14  1  0  0  0  0
  9  8  1  0  0  0  0
  9 15  1  0  0  0  0
 10  1  1  0  0  0  0
 10  9  2  0  0  0  0
 11  3  1  0  0  0  0
 12  6  1  0  0  0  0
 13  7  1  0  0  0  0
 15 26  2  0  0  0  0
 15 16  1  0  0  0  0
 16 17  2  0  0  0  0
 17 18  1  0  0  0  0
 19 20  1  0  0  0  0
 19 18  2  0  0  0  0
 21 22  1  0  0  0  0
 21 20  2  0  0  0  0
 23 21  1  0  0  0  0
 24 23  1  0  0  0  0
 25 23  2  0  0  0  0
 25 26  1  0  0  0  0
 26 19  1  0  0  0  0
 28 33  2  0  0  0  0
 28 29  1  0  0  0  0
 29 30  2  0  0  0  0
 30 31  1  0  0  0  0
 30 27  1  0  0  0  0
 31 35  1  0  0  0  0
 32 36  1  0  0  0  0
 32 31  2  0  0  0  0
 33 32  1  0  0  0  0
 34 29  1  0  0  0  0
 37 33  1  0  0  0  0
 38 43  2  0  0  0  0
 38 39  1  0  0  0  0
 39 40  2  0  0  0  0
 40 41  1  0  0  0  0
 40 46  1  0  0  0  0
 42 28  1  0  0  0  0
 42 41  2  0  0  0  0
 43 42  1  0  0  0  0
 44 38  1  0  0  0  0
 45 39  1  0  0  0  0
M  END
>  <minimizedAffinity>
-6.93029165

$$$$

 OpenBabel03242516273D

 46 51  0  0  0  0  0  0  0  0999 V2000
   36.2510   29.5350   40.2740 C   0  0  0  0  0  0  0  0  0  0  0  0
   34.9950   29.1100   40.5970 N   0  0  0  0  0  0  0  0  0  0  0  0
   34.0450   28.8790   39.6870 C   0  0  0  0  0  0  0  0  0  0  0  0
   34.3420   29.0780   38.3930 N   0  0  0  0  0  0  0  0  0  0  0  0
   35.5470   29.4940   37.9800 C   0  0  0  0  0  0  0  0  0  0  0  0
   35.8770   29.6850   36.6530 C   0  0  0  0  0  0  0  0  0  0  0  0
   37.1470   30.0970   36.2890 C   0  0  0  0  0  0  0  0  0  0  0  0
   38.1490   30.3380   37.2360 C   0  0  0  0  0  0  0  0  0  0  0  0
   37.7760   30.1360   38.5530 C   0  0  0  0  0  0  0  0  0  0  0  0
   36.5240   29.7280   38.9350 C   0  0  0  0  0  0  0  0  0  0  0  0
   33.0770   28.5450   39.9890 H   0  0  0  0  0  0  0  0  0  0  0  0
   35.0980   29.4960   35.9430 H   0  0  0  0  0  0  0  0  0  0  0  0
   37.2640   30.2000   35.2070 H   0  0  0  0  0  0  0  0  0  0  0  0
   39.0590   30.6440   36.7780 H   0  0  0  0  0  0  0  0  0  0  0  0
   38.9090   30.5540   39.3670 C   0  0  0  0  0  0  0  0  0  0  0  0
   40.0140   29.9060   39.8470 N   0  0  0  0  0  0  0  0  0  0  0  0
   40.9220   30.5900   40.5880 C   0  0  0  0  0  3  0  0  0  0  0  0
   40.8270   31.9050   40.9060 N   0  0  0  0  0  0  0  0  0  0  0  0
   39.7560   32.5860   40.4540 C   0  0  0  0  0  0  0  0  0  0  0  0
   39.6950   33.9140   40.7700 C   0  0  0  0  0  3  0  0  0  0  0  0
   38.6490   34.6680   40.3270 C   0  0  0  0  0  0  0  0  0  0  0  0
   38.5640   35.7120   40.5490 H   0  0  0  0  0  0  0  0  0  0  0  0
   37.6470   34.0970   39.5590 C   0  0  0  0  0  0  0  0  0  0  0  0
   36.8090   34.6550   39.1900 H   0  0  0  0  0  0  0  0  0  0  0  0
   37.7840   32.7550   39.2870 C   0  0  0  0  0  3  0  0  0  0  0  0
   38.8080   31.9150   39.6930 C   0  0  0  0  0  0  0  0  0  0  0  0
   37.5300   29.8390   41.4550 S   0  0  0  0  0  0  0  0  0  0  0  0
   38.2170   25.8890   41.8380 C   0  0  0  0  0  0  0  0  0  0  0  0
   37.8030   27.1200   41.4250 C   0  0  0  0  0  0  0  0  0  0  0  0
   38.1450   28.2800   42.0880 C   0  0  0  0  0  0  0  0  0  0  0  0
   38.9470   28.2210   43.2360 C   0  0  0  0  0  0  0  0  0  0  0  0
   39.3750   27.0130   43.6690 C   0  0  0  0  0  0  0  0  0  0  0  0
   39.0110   25.8690   42.9780 C   0  0  0  0  0  0  0  0  0  0  0  0
   37.1780   27.1840   40.5230 H   0  0  0  0  0  0  0  0  0  0  0  0
   39.2160   29.1100   43.7530 H   0  0  0  0  0  0  0  0  0  0  0  0
   40.0000   26.8960   44.5540 H   0  0  0  0  0  0  0  0  0  0  0  0
   39.3600   24.9100   43.3340 H   0  0  0  0  0  0  0  0  0  0  0  0
   36.2260   23.4840   39.9490 C   0  0  0  0  0  0  0  0  0  0  0  0
   37.0770   22.3890   39.8040 C   0  0  0  0  0  0  0  0  0  0  0  0
   38.3590   22.4770   40.3620 C   0  0  0  0  0  0  0  0  0  0  0  0
   38.7250   23.6160   41.0200 N   0  0  0  0  0  0  0  0  0  0  0  0
   37.8510   24.6690   41.1380 C   0  0  0  0  0  0  0  0  0  0  0  0
   36.6220   24.5870   40.6040 N   0  0  0  0  0  0  0  0  0  0  0  0
   35.2500   23.3510   39.4900 H   0  0  0  0  0  0  0  0  0  0  0  0
   36.8850   21.4430   39.3060 H   0  0  0  0  0  0  0  0  0  0  0  0
   39.1240   21.7010   40.3290 H   0  0  0  0  0  0  0  0  0  0  0  0
  1  2  1  0  0  0  0
  1 27  1  0  0  0  0
  3 11  1  0  0  0  0
  3  2  2  0  0  0  0
  4  3  1  0  0  0  0
  5  4  2  0  0  0  0
  5 10  1  0  0  0  0
  6  5  1  0  0  0  0
  7  6  2  0  0  0  0
  7  8  1  0  0  0  0
  8  9  2  0  0  0  0
  9 10  1  0  0  0  0
  9 15  1  0  0  0  0
 10  1  2  0  0  0  0
 12  6  1  0  0  0  0
 13  7  1  0  0  0  0
 14  8  1  0  0  0  0
 15 26  2  0  0  0  0
 15 16  1  0  0  0  0
 16 17  2  0  0  0  0
 17 18  1  0  0  0  0
 19 20  1  0  0  0  0
 19 18  2  0  0  0  0
 21 22  1  0  0  0  0
 21 20  2  0  0  0  0
 23 21  1  0  0  0  0
 24 23  1  0  0  0  0
 25 23  2  0  0  0  0
 25 26  1  0  0  0  0
 26 19  1  0  0  0  0
 27 30  1  0  0  0  0
 28 33  1  0  0  0  0
 29 28  2  0  0  0  0
 29 30  1  0  0  0  0
 30 31  2  0  0  0  0
 31 32  1  0  0  0  0
 31 35  1  0  0  0  0
 32 36  1  0  0  0  0
 33 37  1  0  0  0  0
 33 32  2  0  0  0  0
 34 29  1  0  0  0  0
 38 43  1  0  0  0  0
 39 38  2  0  0  0  0
 39 40  1  0  0  0  0
 40 41  2  0  0  0  0
 41 42  1  0  0  0  0
 42 28  1  0  0  0  0
 43 42  2  0  0  0  0
 44 38  1  0  0  0  0
 45 39  1  0  0  0  0
 46 40  1  0  0  0  0
M  END
>  <minimizedAffinity>
-6.82747793

$$$$

 OpenBabel03242516273D

 46 51  0  0  0  0  0  0  0  0999 V2000
   41.0160   29.2550   41.0310 C   0  0  0  0  0  0  0  0  0  0  0  0
   41.8680   28.4970   41.7800 N   0  0  0  0  0  0  0  0  0  0  0  0
   42.9810   27.9480   41.2890 C   0  0  0  0  0  0  0  0  0  0  0  0
   43.2730   28.1520   39.9940 N   0  0  0  0  0  0  0  0  0  0  0  0
   42.4970   28.8810   39.1820 C   0  0  0  0  0  0  0  0  0  0  0  0
   42.7900   29.1180   37.8520 C   0  0  0  0  0  0  0  0  0  0  0  0
   41.9580   29.8980   37.0690 C   0  0  0  0  0  0  0  0  0  0  0  0
   40.7910   30.4800   37.5770 C   0  0  0  0  0  0  0  0  0  0  0  0
   40.5340   30.2160   38.9120 C   0  0  0  0  0  0  0  0  0  0  0  0
   41.3460   29.4470   39.7050 C   0  0  0  0  0  0  0  0  0  0  0  0
   43.6180   27.3640   41.9160 H   0  0  0  0  0  0  0  0  0  0  0  0
   43.6870   28.6640   37.4810 H   0  0  0  0  0  0  0  0  0  0  0  0
   42.3190   30.0020   36.0430 H   0  0  0  0  0  0  0  0  0  0  0  0
   40.2780   31.0450   36.8370 H   0  0  0  0  0  0  0  0  0  0  0  0
   39.2330   30.8030   39.2000 C   0  0  0  0  0  0  0  0  0  0  0  0
   37.9620   30.2990   39.2450 N   0  0  0  0  0  0  0  0  0  0  0  0
   36.9280   31.1190   39.5650 C   0  0  0  0  0  3  0  0  0  0  0  0
   37.0480   32.4380   39.8540 N   0  0  0  0  0  0  0  0  0  0  0  0
   38.2820   32.9790   39.8250 C   0  0  0  0  0  0  0  0  0  0  0  0
   38.3790   34.3050   40.1410 C   0  0  0  0  0  3  0  0  0  0  0  0
   39.5990   34.9110   40.1510 C   0  0  0  0  0  0  0  0  0  0  0  0
   39.7200   35.9470   40.3960 H   0  0  0  0  0  0  0  0  0  0  0  0
   40.7430   34.1920   39.8420 C   0  0  0  0  0  0  0  0  0  0  0  0
   41.7220   34.6310   39.8410 H   0  0  0  0  0  0  0  0  0  0  0  0
   40.5580   32.8640   39.5350 C   0  0  0  0  0  3  0  0  0  0  0  0
   39.3610   32.1680   39.5000 C   0  0  0  0  0  0  0  0  0  0  0  0
   39.5410   30.0030   41.6570 S   0  0  0  0  0  0  0  0  0  0  0  0
   37.4690   26.5610   41.9410 C   0  0  0  0  0  0  0  0  0  0  0  0
   38.2880   27.5770   41.5480 C   0  0  0  0  0  0  0  0  0  0  0  0
   38.4440   28.7320   42.2840 C   0  0  0  0  0  0  0  0  0  0  0  0
   37.7450   28.8970   43.4880 C   0  0  0  0  0  0  0  0  0  0  0  0
   36.9260   27.9050   43.9050 C   0  0  0  0  0  0  0  0  0  0  0  0
   36.7940   26.7580   43.1390 C   0  0  0  0  0  0  0  0  0  0  0  0
   38.8480   27.4600   40.6090 H   0  0  0  0  0  0  0  0  0  0  0  0
   37.8600   29.7840   44.0610 H   0  0  0  0  0  0  0  0  0  0  0  0
   36.3540   27.9680   44.8300 H   0  0  0  0  0  0  0  0  0  0  0  0
   36.1360   25.9720   43.4840 H   0  0  0  0  0  0  0  0  0  0  0  0
   36.3710   24.3150   39.2830 C   0  0  0  0  0  0  0  0  0  0  0  0
   36.9370   23.0880   39.6290 C   0  0  0  0  0  0  0  0  0  0  0  0
   37.7130   23.0300   40.7950 C   0  0  0  0  0  0  0  0  0  0  0  0
   37.8830   24.1600   41.5410 N   0  0  0  0  0  0  0  0  0  0  0  0
   37.3040   25.3470   41.1600 C   0  0  0  0  0  0  0  0  0  0  0  0
   36.5620   25.4040   40.0430 N   0  0  0  0  0  0  0  0  0  0  0  0
   35.7860   24.2900   38.3670 H   0  0  0  0  0  0  0  0  0  0  0  0
   36.8610   22.1370   39.1110 H   0  0  0  0  0  0  0  0  0  0  0  0
   38.2090   22.1430   41.1870 H   0  0  0  0  0  0  0  0  0  0  0  0
  1 27  1  0  0  0  0
  1  2  1  0  0  0  0
  3  2  2  0  0  0  0
  3 11  1  0  0  0  0
  4  3  1  0  0  0  0
  5 10  1  0  0  0  0
  5  4  2  0  0  0  0
  6  5  1  0  0  0  0
  7  8  1  0  0  0  0
  7  6  2  0  0  0  0
  8  9  2  0  0  0  0
  9 15  1  0  0  0  0
  9 10  1  0  0  0  0
 10  1  2  0  0  0  0
 12  6  1  0  0  0  0
 13  7  1  0  0  0  0
 14  8  1  0  0  0  0
 15 16  2  0  0  0  0
 15 26  1  0  0  0  0
 16 17  1  0  0  0  0
 17 18  2  0  0  0  0
 19 18  1  0  0  0  0
 19 20  1  0  0  0  0
 20 21  2  0  0  0  0
 21 22  1  0  0  0  0
 23 21  1  0  0  0  0
 24 23  1  0  0  0  0
 25 23  2  0  0  0  0
 26 25  1  0  0  0  0
 26 19  2  0  0  0  0
 27 30  1  0  0  0  0
 28 33  1  0  0  0  0
 29 28  2  0  0  0  0
 29 30  1  0  0  0  0
 30 31  2  0  0  0  0
 31 32  1  0  0  0  0
 31 35  1  0  0  0  0
 32 36  1  0  0  0  0
 33 37  1  0  0  0  0
 33 32  2  0  0  0  0
 34 29  1  0  0  0  0
 38 39  2  0  0  0  0
 38 43  1  0  0  0  0
 39 40  1  0  0  0  0
 40 46  1  0  0  0  0
 40 41  2  0  0  0  0
 42 41  1  0  0  0  0
 42 28  1  0  0  0  0
 43 42  2  0  0  0  0
 44 38  1  0  0  0  0
 45 39  1  0  0  0  0
M  END
>  <minimizedAffinity>
-6.77485514

$$$$

 OpenBabel03242516273D

 46 51  0  0  0  0  0  0  0  0999 V2000
   40.1180   25.7130   39.9690 C   0  0  0  0  0  0  0  0  0  0  0  0
   41.1230   25.2290   39.1820 N   0  0  0  0  0  0  0  0  0  0  0  0
   41.0800   24.0290   38.5970 C   0  0  0  0  0  0  0  0  0  0  0  0
   39.9960   23.2630   38.7970 N   0  0  0  0  0  0  0  0  0  0  0  0
   38.9610   23.6520   39.5530 C   0  0  0  0  0  0  0  0  0  0  0  0
   37.8290   22.8860   39.7550 C   0  0  0  0  0  0  0  0  0  0  0  0
   36.7830   23.3540   40.5310 C   0  0  0  0  0  0  0  0  0  0  0  0
   36.8190   24.6110   41.1450 C   0  0  0  0  0  0  0  0  0  0  0  0
   37.9710   25.3450   40.9190 C   0  0  0  0  0  0  0  0  0  0  0  0
   39.0180   24.9010   40.1520 C   0  0  0  0  0  0  0  0  0  0  0  0
   41.8910   23.6960   37.9880 H   0  0  0  0  0  0  0  0  0  0  0  0
   37.8200   21.9270   39.2780 H   0  0  0  0  0  0  0  0  0  0  0  0
   35.9550   22.6430   40.5960 H   0  0  0  0  0  0  0  0  0  0  0  0
   35.9320   24.8050   41.6990 H   0  0  0  0  0  0  0  0  0  0  0  0
   37.8560   26.5470   41.7330 C   0  0  0  0  0  0  0  0  0  0  0  0
   38.3760   26.9170   42.9430 N   0  0  0  0  0  0  0  0  0  0  0  0
   38.0850   28.1430   43.4490 C   0  0  0  0  0  3  0  0  0  0  0  0
   37.2980   29.0630   42.8400 N   0  0  0  0  0  0  0  0  0  0  0  0
   36.7640   28.7440   41.6460 C   0  0  0  0  0  0  0  0  0  0  0  0
   35.9910   29.6970   41.0430 C   0  0  0  0  0  3  0  0  0  0  0  0
   35.4370   29.4470   39.8230 C   0  0  0  0  0  0  0  0  0  0  0  0
   34.8280   30.1670   39.3150 H   0  0  0  0  0  0  0  0  0  0  0  0
   35.6510   28.2340   39.1890 C   0  0  0  0  0  0  0  0  0  0  0  0
   35.2340   27.9990   38.2290 H   0  0  0  0  0  0  0  0  0  0  0  0
   36.4390   27.3300   39.8640 C   0  0  0  0  0  3  0  0  0  0  0  0
   37.0410   27.4970   41.1000 C   0  0  0  0  0  0  0  0  0  0  0  0
   40.1430   27.3000   40.7470 S   0  0  0  0  0  0  0  0  0  0  0  0
   39.3740   30.9040   39.1210 C   0  0  0  0  0  0  0  0  0  0  0  0
   39.6820   29.8770   39.9630 C   0  0  0  0  0  0  0  0  0  0  0  0
   39.7370   28.5640   39.5440 C   0  0  0  0  0  0  0  0  0  0  0  0
   39.4690   28.2430   38.2060 C   0  0  0  0  0  0  0  0  0  0  0  0
   39.1620   29.2420   37.3470 C   0  0  0  0  0  0  0  0  0  0  0  0
   39.1160   30.5490   37.8040 C   0  0  0  0  0  0  0  0  0  0  0  0
   39.9010   30.1130   41.0140 H   0  0  0  0  0  0  0  0  0  0  0  0
   39.5090   27.2340   37.8750 H   0  0  0  0  0  0  0  0  0  0  0  0
   38.9430   29.0620   36.2950 H   0  0  0  0  0  0  0  0  0  0  0  0
   38.8690   31.3380   37.1070 H   0  0  0  0  0  0  0  0  0  0  0  0
   37.9970   34.1660   40.0040 C   0  0  0  0  0  0  0  0  0  0  0  0
   39.1150   34.9030   40.3960 C   0  0  0  0  0  0  0  0  0  0  0  0
   40.3630   34.2690   40.3590 C   0  0  0  0  0  0  0  0  0  0  0  0
   40.4420   32.9710   39.9460 N   0  0  0  0  0  0  0  0  0  0  0  0
   39.3130   32.2850   39.5690 C   0  0  0  0  0  0  0  0  0  0  0  0
   38.1160   32.8900   39.6040 N   0  0  0  0  0  0  0  0  0  0  0  0
   37.0620   34.7160   40.0600 H   0  0  0  0  0  0  0  0  0  0  0  0
   39.1610   35.9340   40.7350 H   0  0  0  0  0  0  0  0  0  0  0  0
   41.3170   34.7220   40.6320 H   0  0  0  0  0  0  0  0  0  0  0  0
  1 10  1  0  0  0  0
  1 27  1  0  0  0  0
  2  1  2  0  0  0  0
  3  4  2  0  0  0  0
  3  2  1  0  0  0  0
  4  5  1  0  0  0  0
  5  6  2  0  0  0  0
  5 10  1  0  0  0  0
  6  7  1  0  0  0  0
  7 13  1  0  0  0  0
  7  8  2  0  0  0  0
  8 14  1  0  0  0  0
  9  8  1  0  0  0  0
  9 15  1  0  0  0  0
 10  9  2  0  0  0  0
 11  3  1  0  0  0  0
 12  6  1  0  0  0  0
 15 16  1  0  0  0  0
 16 17  2  0  0  0  0
 18 17  1  0  0  0  0
 19 18  2  0  0  0  0
 20 19  1  0  0  0  0
 21 20  2  0  0  0  0
 22 21  1  0  0  0  0
 23 21  1  0  0  0  0
 23 25  2  0  0  0  0
 24 23  1  0  0  0  0
 25 26  1  0  0  0  0
 26 19  1  0  0  0  0
 26 15  2  0  0  0  0
 28 42  1  0  0  0  0
 28 29  1  0  0  0  0
 29 34  1  0  0  0  0
 30 29  2  0  0  0  0
 30 27  1  0  0  0  0
 31 30  1  0  0  0  0
 32 33  1  0  0  0  0
 32 31  2  0  0  0  0
 33 28  2  0  0  0  0
 35 31  1  0  0  0  0
 36 32  1  0  0  0  0
 37 33  1  0  0  0  0
 38 44  1  0  0  0  0
 38 39  1  0  0  0  0
 39 45  1  0  0  0  0
 40 39  2  0  0  0  0
 40 46  1  0  0  0  0
 41 40  1  0  0  0  0
 42 43  1  0  0  0  0
 42 41  2  0  0  0  0
 43 38  2  0  0  0  0
M  END
>  <minimizedAffinity>
-6.75552464

$$$$

 OpenBabel03242516273D

 46 51  0  0  0  0  0  0  0  0999 V2000
   36.9690   30.8010   40.4570 C   0  0  0  0  0  0  0  0  0  0  0  0
   36.5760   31.7860   39.5980 N   0  0  0  0  0  0  0  0  0  0  0  0
   37.3390   32.8400   39.2970 C   0  0  0  0  0  0  0  0  0  0  0  0
   38.5500   32.9330   39.8700 N   0  0  0  0  0  0  0  0  0  0  0  0
   39.0210   32.0160   40.7240 C   0  0  0  0  0  0  0  0  0  0  0  0
   40.2710   32.0840   41.3080 C   0  0  0  0  0  0  0  0  0  0  0  0
   40.7090   31.0930   42.1690 C   0  0  0  0  0  0  0  0  0  0  0  0
   39.9160   29.9840   42.4880 C   0  0  0  0  0  0  0  0  0  0  0  0
   38.6720   29.9550   41.8830 C   0  0  0  0  0  0  0  0  0  0  0  0
   38.2190   30.9270   41.0270 C   0  0  0  0  0  0  0  0  0  0  0  0
   36.9880   33.5840   38.6160 H   0  0  0  0  0  0  0  0  0  0  0  0
   40.8620   32.9400   41.0530 H   0  0  0  0  0  0  0  0  0  0  0  0
   41.7170   31.2780   42.5480 H   0  0  0  0  0  0  0  0  0  0  0  0
   40.4120   29.3260   43.1600 H   0  0  0  0  0  0  0  0  0  0  0  0
   37.9750   28.8020   42.4360 C   0  0  0  0  0  0  0  0  0  0  0  0
   37.0630   28.6480   43.4440 N   0  0  0  0  0  0  0  0  0  0  0  0
   36.5760   27.4110   43.7220 C   0  0  0  0  0  3  0  0  0  0  0  0
   36.9270   26.2770   43.0680 N   0  0  0  0  0  0  0  0  0  0  0  0
   37.8220   26.3790   42.0660 C   0  0  0  0  0  0  0  0  0  0  0  0
   38.1430   25.2260   41.4080 C   0  0  0  0  0  3  0  0  0  0  0  0
   39.0260   25.2610   40.3710 C   0  0  0  0  0  0  0  0  0  0  0  0
   39.3030   24.3810   39.8270 H   0  0  0  0  0  0  0  0  0  0  0  0
   39.6020   26.4590   39.9790 C   0  0  0  0  0  0  0  0  0  0  0  0
   40.3000   26.5290   39.1670 H   0  0  0  0  0  0  0  0  0  0  0  0
   39.2270   27.5720   40.6930 C   0  0  0  0  0  3  0  0  0  0  0  0
   38.3400   27.6310   41.7560 C   0  0  0  0  0  0  0  0  0  0  0  0
   35.9850   29.3910   40.8670 S   0  0  0  0  0  0  0  0  0  0  0  0
   33.9080   28.6350   37.5000 C   0  0  0  0  0  0  0  0  0  0  0  0
   34.4030   29.1760   38.6500 C   0  0  0  0  0  0  0  0  0  0  0  0
   35.4270   28.5910   39.3640 C   0  0  0  0  0  0  0  0  0  0  0  0
   36.0000   27.3930   38.9160 C   0  0  0  0  0  0  0  0  0  0  0  0
   35.5310   26.8340   37.7770 C   0  0  0  0  0  0  0  0  0  0  0  0
   34.5000   27.4500   37.0860 C   0  0  0  0  0  0  0  0  0  0  0  0
   33.9680   30.1180   39.0110 H   0  0  0  0  0  0  0  0  0  0  0  0
   36.7900   26.9360   39.4600 H   0  0  0  0  0  0  0  0  0  0  0  0
   35.9310   25.9040   37.3730 H   0  0  0  0  0  0  0  0  0  0  0  0
   34.1340   26.9920   36.1770 H   0  0  0  0  0  0  0  0  0  0  0  0
   30.7050   30.2350   36.7910 C   0  0  0  0  0  0  0  0  0  0  0  0
   30.7280   30.4240   35.4090 C   0  0  0  0  0  0  0  0  0  0  0  0
   31.8630   29.9990   34.7080 C   0  0  0  0  0  0  0  0  0  0  0  0
   32.8930   29.4200   35.3910 N   0  0  0  0  0  0  0  0  0  0  0  0
   32.8250   29.2530   36.7530 C   0  0  0  0  0  0  0  0  0  0  0  0
   31.7390   29.6610   37.4270 N   0  0  0  0  0  0  0  0  0  0  0  0
   29.7990   30.5910   37.2720 H   0  0  0  0  0  0  0  0  0  0  0  0
   29.9660   30.8690   34.7740 H   0  0  0  0  0  0  0  0  0  0  0  0
   32.0150   30.0790   33.6310 H   0  0  0  0  0  0  0  0  0  0  0  0
  1 27  1  0  0  0  0
  1 10  1  0  0  0  0
  2  1  2  0  0  0  0
  3  2  1  0  0  0  0
  3  4  2  0  0  0  0
  4  5  1  0  0  0  0
  5 10  2  0  0  0  0
  5  6  1  0  0  0  0
  6  7  2  0  0  0  0
  7  8  1  0  0  0  0
  7 13  1  0  0  0  0
  8 14  1  0  0  0  0
  9 15  1  0  0  0  0
  9  8  2  0  0  0  0
 10  9  1  0  0  0  0
 11  3  1  0  0  0  0
 12  6  1  0  0  0  0
 15 16  1  0  0  0  0
 16 17  2  0  0  0  0
 18 17  1  0  0  0  0
 19 18  2  0  0  0  0
 20 19  1  0  0  0  0
 21 20  2  0  0  0  0
 22 21  1  0  0  0  0
 23 21  1  0  0  0  0
 23 25  2  0  0  0  0
 24 23  1  0  0  0  0
 25 26  1  0  0  0  0
 26 19  1  0  0  0  0
 26 15  2  0  0  0  0
 28 29  1  0  0  0  0
 29 34  1  0  0  0  0
 29 30  2  0  0  0  0
 30 27  1  0  0  0  0
 31 30  1  0  0  0  0
 31 35  1  0  0  0  0
 32 31  2  0  0  0  0
 33 28  2  0  0  0  0
 33 32  1  0  0  0  0
 36 32  1  0  0  0  0
 37 33  1  0  0  0  0
 38 44  1  0  0  0  0
 38 43  1  0  0  0  0
 39 38  2  0  0  0  0
 40 41  2  0  0  0  0
 40 39  1  0  0  0  0
 41 42  1  0  0  0  0
 42 43  2  0  0  0  0
 42 28  1  0  0  0  0
 45 39  1  0  0  0  0
 46 40  1  0  0  0  0
M  END
>  <minimizedAffinity>
-6.71760988

$$$$

 OpenBabel03242516273D

 46 51  0  0  0  0  0  0  0  0999 V2000
   36.3240   26.6340   38.5380 C   0  0  0  0  0  0  0  0  0  0  0  0
   36.1470   25.7460   37.5170 N   0  0  0  0  0  0  0  0  0  0  0  0
   36.2370   24.4220   37.6760 C   0  0  0  0  0  0  0  0  0  0  0  0
   36.5170   23.9470   38.9000 N   0  0  0  0  0  0  0  0  0  0  0  0
   36.7060   24.7410   39.9620 C   0  0  0  0  0  0  0  0  0  0  0  0
   36.9750   24.2690   41.2320 C   0  0  0  0  0  0  0  0  0  0  0  0
   37.1410   25.1410   42.2940 C   0  0  0  0  0  0  0  0  0  0  0  0
   37.0460   26.5290   42.1360 C   0  0  0  0  0  0  0  0  0  0  0  0
   36.7760   26.9590   40.8480 C   0  0  0  0  0  0  0  0  0  0  0  0
   36.6080   26.1110   39.7830 C   0  0  0  0  0  0  0  0  0  0  0  0
   36.0880   23.7670   36.8460 H   0  0  0  0  0  0  0  0  0  0  0  0
   37.0450   23.2050   41.3330 H   0  0  0  0  0  0  0  0  0  0  0  0
   37.3420   24.6260   43.2360 H   0  0  0  0  0  0  0  0  0  0  0  0
   37.1980   27.0410   43.0550 H   0  0  0  0  0  0  0  0  0  0  0  0
   36.8390   28.4130   40.8820 C   0  0  0  0  0  0  0  0  0  0  0  0
   35.8940   29.3940   41.0130 N   0  0  0  0  0  0  0  0  0  0  0  0
   36.2790   30.6960   41.0190 C   0  0  0  0  0  3  0  0  0  0  0  0
   37.5590   31.1250   40.9030 N   0  0  0  0  0  0  0  0  0  0  0  0
   38.5250   30.1950   40.7730 C   0  0  0  0  0  0  0  0  0  0  0  0
   39.8090   30.6520   40.6800 C   0  0  0  0  0  3  0  0  0  0  0  0
   40.8380   29.7650   40.5670 C   0  0  0  0  0  0  0  0  0  0  0  0
   41.8590   30.0800   40.4940 H   0  0  0  0  0  0  0  0  0  0  0  0
   40.5900   28.4010   40.5470 C   0  0  0  0  0  0  0  0  0  0  0  0
   41.3700   27.6710   40.4610 H   0  0  0  0  0  0  0  0  0  0  0  0
   39.2700   28.0250   40.6450 C   0  0  0  0  0  3  0  0  0  0  0  0
   38.1660   28.8530   40.7630 C   0  0  0  0  0  0  0  0  0  0  0  0
   36.2010   28.3880   38.3600 S   0  0  0  0  0  0  0  0  0  0  0  0
   32.6820   29.3510   36.6530 C   0  0  0  0  0  0  0  0  0  0  0  0
   33.6840   29.0510   37.5270 C   0  0  0  0  0  0  0  0  0  0  0  0
   34.9720   28.7800   37.1160 C   0  0  0  0  0  0  0  0  0  0  0  0
   35.2930   28.8060   35.7520 C   0  0  0  0  0  0  0  0  0  0  0  0
   34.3200   29.1030   34.8600 C   0  0  0  0  0  0  0  0  0  0  0  0
   33.0370   29.3680   35.3100 C   0  0  0  0  0  0  0  0  0  0  0  0
   33.4500   29.0330   38.6010 H   0  0  0  0  0  0  0  0  0  0  0  0
   36.2830   28.5990   35.4260 H   0  0  0  0  0  0  0  0  0  0  0  0
   34.5010   29.1400   33.7860 H   0  0  0  0  0  0  0  0  0  0  0  0
   32.2680   29.6040   34.5870 H   0  0  0  0  0  0  0  0  0  0  0  0
   29.8770   30.1040   38.8620 C   0  0  0  0  0  0  0  0  0  0  0  0
   28.7820   30.1590   38.0010 C   0  0  0  0  0  0  0  0  0  0  0  0
   29.0090   29.9370   36.6370 C   0  0  0  0  0  0  0  0  0  0  0  0
   30.2760   29.6770   36.2040 N   0  0  0  0  0  0  0  0  0  0  0  0
   31.3250   29.6310   37.0910 C   0  0  0  0  0  0  0  0  0  0  0  0
   31.1100   29.8440   38.3980 N   0  0  0  0  0  0  0  0  0  0  0  0
   29.6320   30.2890   39.9040 H   0  0  0  0  0  0  0  0  0  0  0  0
   27.7400   30.3550   38.2420 H   0  0  0  0  0  0  0  0  0  0  0  0
   28.2500   29.9460   35.8540 H   0  0  0  0  0  0  0  0  0  0  0  0
  1 10  1  0  0  0  0
  2  3  1  0  0  0  0
  2  1  2  0  0  0  0
  3  4  2  0  0  0  0
  4  5  1  0  0  0  0
  5  6  1  0  0  0  0
  6 12  1  0  0  0  0
  6  7  2  0  0  0  0
  7 13  1  0  0  0  0
  8  7  1  0  0  0  0
  8 14  1  0  0  0  0
  9 15  1  0  0  0  0
  9  8  2  0  0  0  0
 10  5  2  0  0  0  0
 10  9  1  0  0  0  0
 11  3  1  0  0  0  0
 15 16  1  0  0  0  0
 16 17  2  0  0  0  0
 18 17  1  0  0  0  0
 19 18  2  0  0  0  0
 20 19  1  0  0  0  0
 21 20  2  0  0  0  0
 22 21  1  0  0  0  0
 23 21  1  0  0  0  0
 23 25  2  0  0  0  0
 24 23  1  0  0  0  0
 25 26  1  0  0  0  0
 26 19  1  0  0  0  0
 26 15  2  0  0  0  0
 27  1  1  0  0  0  0
 28 42  1  0  0  0  0
 28 29  1  0  0  0  0
 29 34  1  0  0  0  0
 30 29  2  0  0  0  0
 30 27  1  0  0  0  0
 31 30  1  0  0  0  0
 32 33  1  0  0  0  0
 32 31  2  0  0  0  0
 33 28  2  0  0  0  0
 35 31  1  0  0  0  0
 36 32  1  0  0  0  0
 37 33  1  0  0  0  0
 38 44  1  0  0  0  0
 39 45  1  0  0  0  0
 39 38  2  0  0  0  0
 40 39  1  0  0  0  0
 41 40  2  0  0  0  0
 41 42  1  0  0  0  0
 42 43  2  0  0  0  0
 43 38  1  0  0  0  0
 46 40  1  0  0  0  0
M  END
>  <minimizedAffinity>
-6.66278505

$$$$

 OpenBabel03242516273D

 46 51  0  0  0  0  0  0  0  0999 V2000
   40.4480   31.6270   38.0140 C   0  0  0  0  0  0  0  0  0  0  0  0
   41.5570   31.6630   37.2190 N   0  0  0  0  0  0  0  0  0  0  0  0
   42.3870   32.7090   37.1710 C   0  0  0  0  0  0  0  0  0  0  0  0
   42.1130   33.7750   37.9400 N   0  0  0  0  0  0  0  0  0  0  0  0
   41.0480   33.8300   38.7510 C   0  0  0  0  0  0  0  0  0  0  0  0
   40.7610   34.9090   39.5640 C   0  0  0  0  0  0  0  0  0  0  0  0
   39.6550   34.8980   40.3960 C   0  0  0  0  0  0  0  0  0  0  0  0
   38.7820   33.8050   40.4550 C   0  0  0  0  0  0  0  0  0  0  0  0
   39.1060   32.7470   39.6240 C   0  0  0  0  0  0  0  0  0  0  0  0
   40.1960   32.7380   38.7930 C   0  0  0  0  0  0  0  0  0  0  0  0
   43.2440   32.6890   36.5350 H   0  0  0  0  0  0  0  0  0  0  0  0
   41.4390   35.7360   39.5050 H   0  0  0  0  0  0  0  0  0  0  0  0
   39.5580   35.8150   40.9830 H   0  0  0  0  0  0  0  0  0  0  0  0
   37.9920   33.9690   41.1470 H   0  0  0  0  0  0  0  0  0  0  0  0
   38.0200   31.7840   39.7480 C   0  0  0  0  0  0  0  0  0  0  0  0
   36.9150   31.5080   38.9900 N   0  0  0  0  0  0  0  0  0  0  0  0
   36.0720   30.5150   39.3720 C   0  0  0  0  0  3  0  0  0  0  0  0
   36.2350   29.7450   40.4770 N   0  0  0  0  0  0  0  0  0  0  0  0
   37.3100   29.9780   41.2540 C   0  0  0  0  0  0  0  0  0  0  0  0
   37.4630   29.1760   42.3490 C   0  0  0  0  0  3  0  0  0  0  0  0
   38.5400   29.3430   43.1660 C   0  0  0  0  0  0  0  0  0  0  0  0
   38.7000   28.7340   44.0330 H   0  0  0  0  0  0  0  0  0  0  0  0
   39.4820   30.3230   42.8960 C   0  0  0  0  0  0  0  0  0  0  0  0
   40.3440   30.4860   43.5130 H   0  0  0  0  0  0  0  0  0  0  0  0
   39.2540   31.0880   41.7750 C   0  0  0  0  0  3  0  0  0  0  0  0
   38.1920   30.9890   40.8910 C   0  0  0  0  0  0  0  0  0  0  0  0
   39.3370   30.2550   38.1060 S   0  0  0  0  0  0  0  0  0  0  0  0
   39.7910   26.8000   40.1270 C   0  0  0  0  0  0  0  0  0  0  0  0
   39.3160   27.8380   39.3800 C   0  0  0  0  0  0  0  0  0  0  0  0
   40.0760   28.9500   39.0880 C   0  0  0  0  0  0  0  0  0  0  0  0
   41.3900   29.0470   39.5640 C   0  0  0  0  0  0  0  0  0  0  0  0
   41.8900   28.0330   40.3060 C   0  0  0  0  0  0  0  0  0  0  0  0
   41.0970   26.9300   40.5810 C   0  0  0  0  0  0  0  0  0  0  0  0
   38.2890   27.7740   38.9940 H   0  0  0  0  0  0  0  0  0  0  0  0
   41.9830   29.9010   39.3440 H   0  0  0  0  0  0  0  0  0  0  0  0
   42.9030   28.0440   40.7080 H   0  0  0  0  0  0  0  0  0  0  0  0
   41.5080   26.1250   41.1750 H   0  0  0  0  0  0  0  0  0  0  0  0
   38.6740   23.3270   40.2060 C   0  0  0  0  0  0  0  0  0  0  0  0
   37.5080   23.3710   40.9690 C   0  0  0  0  0  0  0  0  0  0  0  0
   37.0980   24.6130   41.4700 C   0  0  0  0  0  0  0  0  0  0  0  0
   37.8420   25.7230   41.1940 N   0  0  0  0  0  0  0  0  0  0  0  0
   38.9850   25.6310   40.4360 C   0  0  0  0  0  0  0  0  0  0  0  0
   39.3790   24.4410   39.9570 N   0  0  0  0  0  0  0  0  0  0  0  0
   38.9360   22.3330   39.8530 H   0  0  0  0  0  0  0  0  0  0  0  0
   36.8460   22.5530   41.2420 H   0  0  0  0  0  0  0  0  0  0  0  0
   36.2090   24.7960   42.0750 H   0  0  0  0  0  0  0  0  0  0  0  0
  1 27  1  0  0  0  0
  1 10  1  0  0  0  0
  2  1  2  0  0  0  0
  3  2  1  0  0  0  0
  3  4  2  0  0  0  0
  4  5  1  0  0  0  0
  5 10  2  0  0  0  0
  5  6  1  0  0  0  0
  6  7  2  0  0  0  0
  7  8  1  0  0  0  0
  7 13  1  0  0  0  0
  8 14  1  0  0  0  0
  9 15  1  0  0  0  0
  9  8  2  0  0  0  0
 10  9  1  0  0  0  0
 11  3  1  0  0  0  0
 12  6  1  0  0  0  0
 15 26  1  0  0  0  0
 16 17  1  0  0  0  0
 16 15  2  0  0  0  0
 17 18  2  0  0  0  0
 18 19  1  0  0  0  0
 19 20  1  0  0  0  0
 20 21  2  0  0  0  0
 21 22  1  0  0  0  0
 23 21  1  0  0  0  0
 23 24  1  0  0  0  0
 25 23  2  0  0  0  0
 26 19  2  0  0  0  0
 26 25  1  0  0  0  0
 27 30  1  0  0  0  0
 28 42  1  0  0  0  0
 28 33  1  0  0  0  0
 29 28  2  0  0  0  0
 30 29  1  0  0  0  0
 30 31  2  0  0  0  0
 31 32  1  0  0  0  0
 32 33  2  0  0  0  0
 32 36  1  0  0  0  0
 33 37  1  0  0  0  0
 34 29  1  0  0  0  0
 35 31  1  0  0  0  0
 38 39  1  0  0  0  0
 39 45  1  0  0  0  0
 39 40  2  0  0  0  0
 40 46  1  0  0  0  0
 41 40  1  0  0  0  0
 42 41  2  0  0  0  0
 43 38  2  0  0  0  0
 43 42  1  0  0  0  0
 44 38  1  0  0  0  0
M  END
>  <minimizedAffinity>
-6.65916491

$$$$
