
 OpenBabel03252509233D

 30 33  0  0  1  0  0  0  0  0999 V2000
   46.7080   34.8870   41.9600 C   0  0  1  0  0  0  0  0  0  0  0  0
   48.2350   35.1470   42.0220 C   0  0  0  0  0  0  0  0  0  0  0  0
   47.5470   33.8590   41.4650 C   0  0  2  0  0  0  0  0  0  0  0  0
   46.1680   35.6120   41.3260 H   0  0  0  0  0  0  0  0  0  0  0  0
   48.7600   35.0540   42.9670 H   0  0  0  0  0  0  0  0  0  0  0  0
   48.6060   35.8550   41.2850 H   0  0  0  0  0  0  0  0  0  0  0  0
   47.7280   32.9590   42.1210 H   0  0  0  0  0  0  0  0  0  0  0  0
   47.8700   33.6010   40.0610 C   0  0  0  0  0  0  0  0  0  0  0  0
   48.1130   34.6640   39.2590 N   0  0  0  0  0  0  0  0  0  0  0  0
   48.4110   34.4420   37.9600 C   0  0  0  0  0  3  0  0  0  0  0  0
   48.4860   33.2100   37.3950 N   0  0  0  0  0  0  0  0  0  0  0  0
   48.2500   32.1190   38.1650 C   0  0  0  0  0  0  0  0  0  0  0  0
   48.3010   30.8250   37.6890 C   0  0  0  0  0  3  0  0  0  0  0  0
   48.0580   29.7310   38.4920 C   0  0  0  0  0  0  0  0  0  0  0  0
   48.0970   28.7170   38.1270 H   0  0  0  0  0  0  0  0  0  0  0  0
   47.7500   29.9480   39.8270 C   0  0  0  0  0  0  0  0  0  0  0  0
   47.5600   29.0940   40.4550 H   0  0  0  0  0  0  0  0  0  0  0  0
   47.7070   31.2460   40.2730 C   0  0  0  0  0  3  0  0  0  0  0  0
   47.9470   32.3510   39.4840 C   0  0  0  0  0  0  0  0  0  0  0  0
   44.6470   35.4270   45.0610 C   0  0  0  0  0  0  0  0  0  0  0  0
   45.1700   35.6480   43.7590 C   0  0  0  0  0  0  0  0  0  0  0  0
   46.1470   34.7700   43.3600 C   0  0  0  0  0  0  0  0  0  0  0  0
   46.5740   33.7460   44.1970 N   0  0  0  0  0  0  0  0  0  0  0  0
   46.0490   33.5780   45.4170 C   0  0  0  0  0  0  0  0  0  0  0  0
   45.0770   34.4290   45.8460 N   0  0  0  0  0  0  0  0  0  0  0  0
   43.8710   36.1070   45.4010 H   0  0  0  0  0  0  0  0  0  0  0  0
   46.4620   32.7580   45.9570 H   0  0  0  0  0  0  0  0  0  0  0  0
   44.7460   36.7210   42.9140 N   0  0  0  0  0  0  0  0  0  0  0  0
   45.4840   37.4150   43.1890 H   0  0  0  0  0  0  0  0  0  0  0  0
   43.9360   36.7230   42.2540 H   0  0  0  0  0  0  0  0  0  0  0  0
  1  4  1  6  0  0  0
  1  2  1  0  0  0  0
  1 22  1  0  0  0  0
  2  5  1  0  0  0  0
  3  1  1  0  0  0  0
  3  2  1  0  0  0  0
  3  7  1  1  0  0  0
  6  2  1  0  0  0  0
  8  3  1  0  0  0  0
  9  8  2  0  0  0  0
 10  9  1  0  0  0  0
 11 10  2  0  0  0  0
 11 12  1  0  0  0  0
 12 19  1  0  0  0  0
 13 12  2  0  0  0  0
 13 14  1  0  0  0  0
 14 16  2  0  0  0  0
 15 14  1  0  0  0  0
 16 18  1  0  0  0  0
 16 17  1  0  0  0  0
 19  8  1  0  0  0  0
 19 18  2  0  0  0  0
 20 26  1  0  0  0  0
 20 25  1  0  0  0  0
 21 20  2  0  0  0  0
 22 21  1  0  0  0  0
 22 23  2  0  0  0  0
 23 24  1  0  0  0  0
 24 25  2  0  0  0  0
 24 27  1  0  0  0  0
 28 29  1  0  0  0  0
 28 21  1  0  0  0  0
 30 28  1  0  0  0  0
M  END
>  <minimizedAffinity>
-5.14125443

>  <minimizedRMSD>
0.225604877

$$$$
