
 OpenBabel03242522593D

 34 37  0  0  0  0  0  0  0  0999 V2000
   45.4200   33.1450   47.1340 C   0  0  0  0  0  0  0  0  0  0  0  0
   45.5850   33.6850   45.8580 C   0  0  0  0  0  0  0  0  0  0  0  0
   46.4490   33.1280   44.9570 C   0  0  0  0  0  0  0  0  0  0  0  0
   47.0880   32.0560   45.4180 N   0  0  0  0  0  0  0  0  0  0  0  0
   46.9870   31.4870   46.6080 C   0  0  0  0  0  0  0  0  0  0  0  0
   46.1190   32.0650   47.4770 N   0  0  0  0  0  0  0  0  0  0  0  0
   44.7200   33.6150   47.8320 H   0  0  0  0  0  0  0  0  0  0  0  0
   45.0210   34.5600   45.5750 H   0  0  0  0  0  0  0  0  0  0  0  0
   47.6540   30.3220   47.1630 C   0  0  0  0  0  0  0  0  0  0  0  0
   47.4480   29.0800   46.7020 N   0  0  0  0  0  0  0  0  0  0  0  0
   48.0290   27.9680   47.1680 C   0  0  0  0  0  0  0  0  0  0  0  0
   48.9070   28.0200   48.1840 N   0  0  0  0  0  0  0  0  0  0  0  0
   49.1800   29.2180   48.7130 C   0  0  0  0  0  0  0  0  0  0  0  0
   50.0810   29.2740   49.7550 C   0  0  0  0  0  0  0  0  0  0  0  0
   50.4050   30.4750   50.3450 C   0  0  0  0  0  0  0  0  0  0  0  0
   51.1050   30.5300   51.1560 H   0  0  0  0  0  0  0  0  0  0  0  0
   49.7830   31.6200   49.8370 C   0  0  0  0  0  0  0  0  0  0  0  0
   50.0640   32.5430   50.3250 H   0  0  0  0  0  0  0  0  0  0  0  0
   48.8910   31.5070   48.7930 C   0  0  0  0  0  0  0  0  0  0  0  0
   48.5580   30.3340   48.2010 C   0  0  0  0  0  0  0  0  0  0  0  0
   44.3760   32.3010   42.9570 Cl  0  0  0  0  0  0  0  0  0  0  0  0
   45.7720   33.2980   42.6310 C   0  0  0  0  0  0  0  0  0  0  0  0
   46.6740   33.6240   43.6040 C   0  0  0  0  0  0  0  0  0  0  0  0
   47.7210   34.4090   43.2050 C   0  0  0  0  0  0  0  0  0  0  0  0
   47.8920   34.8580   41.9450 C   0  0  0  0  0  0  0  0  0  0  0  0
   46.9720   34.5220   40.9710 C   0  0  0  0  0  0  0  0  0  0  0  0
   45.9110   33.7370   41.3280 C   0  0  0  0  0  0  0  0  0  0  0  0
   48.4590   34.6860   43.9630 H   0  0  0  0  0  0  0  0  0  0  0  0
   47.0640   34.8570   39.9450 H   0  0  0  0  0  0  0  0  0  0  0  0
   45.1950   33.4790   40.5590 H   0  0  0  0  0  0  0  0  0  0  0  0
   49.0430   35.7130   41.5360 C   0  0  0  0  0  0  0  0  0  0  0  0
   50.1910   35.0620   41.9030 F   0  0  0  0  0  0  0  0  0  0  0  0
   48.9360   36.9740   42.0840 F   0  0  0  0  0  0  0  0  0  0  0  0
   49.0020   35.8410   40.1490 F   0  0  0  0  0  0  0  0  0  0  0  0
  1  6  1  0  0  0  0
  1  7  1  0  0  0  0
  2  1  2  0  0  0  0
  3  4  2  0  0  0  0
  3  2  1  0  0  0  0
  4  5  1  0  0  0  0
  5  9  1  0  0  0  0
  5  6  2  0  0  0  0
  8  2  1  0  0  0  0
  9 20  1  0  0  0  0
 10  9  2  0  0  0  0
 10 11  1  0  0  0  0
 11 12  2  0  0  0  0
 12 13  1  0  0  0  0
 13 14  1  0  0  0  0
 14 15  2  0  0  0  0
 15 16  1  0  0  0  0
 17 18  1  0  0  0  0
 17 15  1  0  0  0  0
 19 17  2  0  0  0  0
 20 13  2  0  0  0  0
 20 19  1  0  0  0  0
 22 21  1  0  0  0  0
 22 23  1  0  0  0  0
 23  3  1  0  0  0  0
 24 23  2  0  0  0  0
 24 28  1  0  0  0  0
 25 24  1  0  0  0  0
 26 27  1  0  0  0  0
 26 25  2  0  0  0  0
 27 22  2  0  0  0  0
 29 26  1  0  0  0  0
 30 27  1  0  0  0  0
 31 32  1  0  0  0  0
 31 25  1  0  0  0  0
 31 33  1  0  0  0  0
 34 31  1  0  0  0  0
M  END
>  <minimizedAffinity>
-6.95512486

>  <minimizedRMSD>
1.05048466

$$$$
