
 OpenBabel03242518353D

 38 42  0  0  1  0  0  0  0  0999 V2000
   48.1050   33.8790   39.0220 C   0  0  0  0  0  0  0  0  0  0  0  0
   48.5910   34.5490   37.9000 C   0  0  0  0  0  0  0  0  0  0  0  0
   47.7140   34.3570   36.8490 C   0  0  0  0  0  0  0  0  0  0  0  0
   46.7240   33.5720   37.3820 C   0  0  0  0  0  0  0  0  0  0  0  0
   46.9700   33.3030   38.6500 O   0  0  0  0  0  0  0  0  0  0  0  0
   49.5190   35.1100   37.9330 H   0  0  0  0  0  0  0  0  0  0  0  0
   47.8340   34.7630   35.8490 H   0  0  0  0  0  0  0  0  0  0  0  0
   45.5440   33.0950   36.6450 C   0  0  2  0  0  0  0  0  0  0  0  0
   45.0350   31.7320   36.8880 C   0  0  0  0  0  0  0  0  0  0  0  0
   45.8560   31.9510   35.6530 C   0  0  2  0  0  0  0  0  0  0  0  0
   44.9010   33.8930   36.2030 H   0  0  0  0  0  0  0  0  0  0  0  0
   45.5810   31.1870   37.7140 H   0  0  0  0  0  0  0  0  0  0  0  0
   43.9610   31.5620   36.8270 H   0  0  0  0  0  0  0  0  0  0  0  0
   45.2430   31.9440   34.7310 H   0  0  0  0  0  0  0  0  0  0  0  0
   47.2370   31.4400   35.5940 C   0  0  0  0  0  0  0  0  0  0  0  0
   47.4890   30.5870   36.6320 N   0  0  0  0  0  0  0  0  0  0  0  0
   48.6790   29.9650   36.7520 C   0  0  0  0  0  0  0  0  0  0  0  0
   49.6580   30.1820   35.8260 N   0  0  0  0  0  0  0  0  0  0  0  0
   49.4520   31.0140   34.7900 C   0  0  0  0  0  0  0  0  0  0  0  0
   50.3740   31.3110   33.8090 C   0  0  0  0  0  0  0  0  0  0  0  0
   50.0680   32.2000   32.7800 C   0  0  0  0  0  0  0  0  0  0  0  0
   50.8090   32.4190   32.0190 H   0  0  0  0  0  0  0  0  0  0  0  0
   48.8220   32.8210   32.7000 C   0  0  0  0  0  0  0  0  0  0  0  0
   48.6230   33.5030   31.8900 H   0  0  0  0  0  0  0  0  0  0  0  0
   47.9020   32.5150   33.6900 C   0  0  0  0  0  0  0  0  0  0  0  0
   48.2290   31.6380   34.6880 C   0  0  0  0  0  0  0  0  0  0  0  0
   48.6110   33.7590   40.3330 O   0  0  0  0  0  0  0  0  0  0  0  0
   48.4090   34.8120   41.2530 C   0  0  0  0  0  0  0  0  0  0  0  0
   48.9990   35.8910   40.9970 O   0  0  0  0  0  0  0  0  0  0  0  0
   47.5580   34.5200   42.3610 C   0  0  0  0  0  0  0  0  0  0  0  0
   46.4140   35.2660   42.4120 C   0  0  0  0  0  0  0  0  0  0  0  0
   45.5300   35.0390   43.4660 C   0  0  0  0  0  0  0  0  0  0  0  0
   45.8500   34.0930   44.3820 N   0  0  0  0  0  0  0  0  0  0  0  0
   46.9800   33.3870   44.2940 C   0  0  0  0  0  0  0  0  0  0  0  0
   47.8270   33.6110   43.2770 N   0  0  0  0  0  0  0  0  0  0  0  0
   46.0610   36.0510   41.7260 H   0  0  0  0  0  0  0  0  0  0  0  0
   44.6030   35.5840   43.5820 H   0  0  0  0  0  0  0  0  0  0  0  0
   47.2000   32.6350   45.0540 H   0  0  0  0  0  0  0  0  0  0  0  0
  1 27  1  0  0  0  0
  2  6  1  0  0  0  0
  2  1  2  0  0  0  0
  3  4  2  0  0  0  0
  3  2  1  0  0  0  0
  4  5  1  0  0  0  0
  5  1  1  0  0  0  0
  7  3  1  0  0  0  0
  8 11  1  6  0  0  0
  8  9  1  0  0  0  0
  8  4  1  0  0  0  0
  9 12  1  0  0  0  0
 10 14  1  6  0  0  0
 10  8  1  0  0  0  0
 10  9  1  0  0  0  0
 13  9  1  0  0  0  0
 15 10  1  0  0  0  0
 15 16  1  0  0  0  0
 16 17  2  0  0  0  0
 18 17  1  0  0  0  0
 19 18  2  0  0  0  0
 20 19  1  0  0  0  0
 21 20  2  0  0  0  0
 22 21  1  0  0  0  0
 23 21  1  0  0  0  0
 23 25  2  0  0  0  0
 24 23  1  0  0  0  0
 25 26  1  0  0  0  0
 26 19  1  0  0  0  0
 26 15  2  0  0  0  0
 27 28  1  0  0  0  0
 28 30  1  0  0  0  0
 29 28  2  0  0  0  0
 30 31  2  0  0  0  0
 30 35  1  0  0  0  0
 31 32  1  0  0  0  0
 32 37  1  0  0  0  0
 32 33  2  0  0  0  0
 34 33  1  0  0  0  0
 34 38  1  0  0  0  0
 35 34  2  0  0  0  0
 36 31  1  0  0  0  0
M  END
>  <minimizedAffinity>
-5.38666391

>  <minimizedRMSD>
2.52842569

$$$$
