
     RDKit          3D

 44 49  0  0  0  0  0  0  0  0999 V2000
   47.2650   31.3928   45.1565 C   0  0  0  0  0  0  0  0  0  0  0  0
   46.8704   32.7157   45.1236 C   0  0  0  0  0  0  0  0  0  0  0  0
   46.2308   33.3231   46.1882 C   0  0  0  0  0  0  0  0  0  0  0  0
   45.9614   32.5916   47.3551 C   0  0  0  0  0  0  0  0  0  0  0  0
   45.3745   32.8426   48.5565 N   0  0  0  0  0  0  0  0  0  0  0  0
   45.4132   31.7031   49.2961 C   0  0  0  0  0  0  0  0  0  0  0  0
   46.0240   30.7673   48.5373 N   0  0  0  0  0  0  0  0  0  0  0  0
   46.3697   31.2801   47.3481 C   0  0  0  0  0  0  0  0  0  0  0  0
   46.9993   30.6557   46.3189 C   0  0  0  0  0  0  0  0  0  0  0  0
   46.4862   35.1932   42.4322 C   0  0  0  0  0  0  0  0  0  0  0  0
   47.6589   35.0273   41.7009 C   0  0  0  0  0  0  0  0  0  0  0  0
   48.5875   34.0598   42.1323 C   0  0  0  0  0  0  0  0  0  0  0  0
   48.2837   33.3328   43.2522 N   0  0  0  0  0  0  0  0  0  0  0  0
   47.1252   33.5238   43.9420 C   0  0  0  0  0  0  0  0  0  0  0  0
   46.2307   34.4469   43.5371 N   0  0  0  0  0  0  0  0  0  0  0  0
   47.3995   29.2427   46.4057 C   0  0  0  0  0  0  0  0  0  0  0  0
   48.6768   28.7900   46.6047 C   0  0  0  0  0  0  0  0  0  0  0  0
   48.5113   27.3957   46.6068 C   0  0  0  0  0  0  0  0  0  0  0  0
   47.1989   27.0749   46.4159 C   0  0  0  0  0  0  0  0  0  0  0  0
   46.6040   28.2380   46.3061 O   0  0  0  0  0  0  0  0  0  0  0  0
   47.7705   30.9124   44.3149 H   0  0  0  0  0  0  0  0  0  0  0  0
   45.9174   34.3537   46.1764 H   0  0  0  0  0  0  0  0  0  0  0  0
   45.0100   33.7897   48.7258 H   0  0  0  0  0  0  0  0  0  0  0  0
   45.0047   31.6677   50.2856 H   0  0  0  0  0  0  0  0  0  0  0  0
   45.8157   35.9460   42.0553 H   0  0  0  0  0  0  0  0  0  0  0  0
   47.9396   35.5674   40.8252 H   0  0  0  0  0  0  0  0  0  0  0  0
   49.5337   33.8187   41.6718 H   0  0  0  0  0  0  0  0  0  0  0  0
   49.5978   29.3374   46.7313 H   0  0  0  0  0  0  0  0  0  0  0  0
   49.3319   26.7645   46.7735 H   0  0  0  0  0  0  0  0  0  0  0  0
   46.3777   25.8856   46.3218 C   0  0  0  0  0  0  0  0  0  0  0  0
   45.0486   25.9565   46.6096 N   0  0  0  0  0  0  0  0  0  0  0  0
   44.2508   24.9105   46.6504 C   0  0  0  0  0  0  0  0  0  0  0  0
   44.6676   23.6551   46.4097 N   0  0  0  0  0  0  0  0  0  0  0  0
   45.9852   23.4627   46.1067 C   0  0  0  0  0  0  0  0  0  0  0  0
   46.4661   22.2247   45.8255 C   0  0  0  0  0  0  0  0  0  0  0  0
   47.7858   22.0069   45.4850 C   0  0  0  0  0  0  0  0  0  0  0  0
   48.0391   20.9850   45.2873 H   0  0  0  0  0  0  0  0  0  0  0  0
   48.5870   23.1501   45.4503 C   0  0  0  0  0  0  0  0  0  0  0  0
   49.6272   22.9397   45.1752 H   0  0  0  0  0  0  0  0  0  0  0  0
   48.0619   24.3838   45.7422 C   0  0  0  0  0  0  0  0  0  0  0  0
   46.7576   24.5951   46.0815 C   0  0  0  0  0  0  0  0  0  0  0  0
   43.2137   25.1555   46.8991 H   0  0  0  0  0  0  0  0  0  0  0  0
   45.7520   21.4073   45.8828 H   0  0  0  0  0  0  0  0  0  0  0  0
   48.7959   25.1407   45.6347 H   0  0  0  0  0  0  0  0  0  0  0  0
  1  9  2  0
  2  1  1  0
  2  3  2  0
  3  4  1  0
  4  5  1  0
  5  6  1  0
  7  6  2  0
  8  4  2  0
  8  7  1  0
  9 16  1  0
  9  8  1  0
 10 15  2  0
 11 12  2  0
 11 10  1  0
 12 13  1  0
 13 14  2  0
 14  2  1  0
 15 14  1  0
 16 17  2  0
 17 18  1  0
 19 18  2  0
 20 16  1  0
 20 19  1  0
  1 21  1  0
  3 22  1  0
  5 23  1  0
  6 24  1  0
 10 25  1  0
 11 26  1  0
 12 27  1  0
 17 28  1  0
 18 29  1  0
 30 31  2  0
 31 32  1  0
 32 33  2  0
 33 34  1  0
 34 35  2  0
 35 36  1  0
 36 37  1  0
 36 38  2  0
 38 39  1  0
 38 40  1  0
 40 41  2  0
 41 30  1  0
 41 34  1  0
 32 42  1  0
 35 43  1  0
 40 44  1  0
 19 30  1  0
M  ISO  8  21  14  22  14  23   9  24  14  25  14  26  14  27  14  28  14
M  ISO  3  29  14  37  16  39  16
M  END
>  <DihAtoms>  (1) 
17,18,29,30

>  <DihDeg>  (1) 
155.73821228610333

$$$$
