REMARK  Name = 
REMARK  1 active torsions:
REMARK  status: ('A' for Active; 'I' for Inactive)
REMARK    1  A    between atoms: C_3  and  C_12
REMARK                            x       y       z     vdW  Elec       q    Type
REMARK                         _______ _______ _______ _____ _____    ______ ____
ROOT
ATOM      1  C   UNL     1      46.994  33.955  42.367  0.00  0.00    +0.000 A 
ATOM      2  N   UNL     1      48.326  33.832  42.422  0.00  0.00    +0.000 NA
ATOM      3  C   UNL     1      49.074  33.476  41.379  0.00  0.00    +0.000 A 
ATOM      4  N   UNL     1      48.547  33.209  40.172  0.00  0.00    +0.000 NA
ATOM      5  C   UNL     1      47.213  33.306  40.016  0.00  0.00    +0.000 A 
ATOM      6  C   UNL     1      46.653  33.037  38.788  0.00  0.00    +0.000 A 
ATOM      7  C   UNL     1      45.295  33.127  38.600  0.00  0.00    +0.000 A 
ATOM      8  H   UNL     1      44.946  32.900  37.613  0.00  0.00    +0.000 HD
ATOM      9  C   UNL     1      44.519  33.498  39.689  0.00  0.00    +0.000 A 
ATOM     10  H   UNL     1      43.454  33.566  39.529  0.00  0.00    +0.000 HD
ATOM     11  C   UNL     1      45.130  33.756  40.896  0.00  0.00    +0.000 A 
ATOM     12  C   UNL     1      46.484  33.676  41.123  0.00  0.00    +0.000 A 
ENDROOT
BRANCH   1  15
ATOM     13  C   UNL     1      44.661  36.031  44.329  0.00  0.00    +0.000 A 
ATOM     14  C   UNL     1      45.472  35.526  43.318  0.00  0.00    +0.000 A 
ATOM     15  C   UNL     1      46.202  34.344  43.516  0.00  0.00    +0.000 A 
ATOM     16  N   UNL     1      46.006  33.828  44.730  0.00  0.00    +0.000 NA
ATOM     17  C   UNL     1      45.248  34.281  45.707  0.00  0.00    +0.000 A 
ATOM     18  N   UNL     1      44.556  35.417  45.497  0.00  0.00    +0.000 NA
ATOM     19  N   UNL     1      45.147  33.614  46.944  0.00  0.00    +0.000 N 
ATOM     20  H   UNL     1      44.100  36.943  44.176  0.00  0.00    +0.000 HD
ATOM     21  H   UNL     1      45.500  36.083  42.409  0.00  0.00    +0.000 HD
ATOM     22  H   UNL     1      45.998  33.070  47.253  0.00  0.00    +0.000 HD
ATOM     23  H   UNL     1      44.249  33.699  47.469  0.00  0.00    +0.000 HD
ENDBRANCH   1  15
TORSDOF 1
