
 OpenBabel03252503463D

 47 51  0  0  1  0  0  0  0  0999 V2000
   45.5930   35.8280   43.1040 C   0  0  0  0  0  0  0  0  0  0  0  0
   46.6430   35.9740   42.7650 H   0  0  0  0  0  0  0  0  0  0  0  0
   45.2620   36.8480   43.4130 H   0  0  0  0  0  0  0  0  0  0  0  0
   44.7930   35.2850   41.9980 C   0  0  0  0  0  0  0  0  0  0  0  0
   43.5820   35.7710   41.5850 C   0  0  0  0  0  0  0  0  0  0  0  0
   42.8620   35.2150   40.5440 C   0  0  0  0  0  0  0  0  0  0  0  0
   43.4010   34.1110   39.8920 C   0  0  0  0  0  0  0  0  0  0  0  0
   44.6340   33.6130   40.3060 C   0  0  0  0  0  0  0  0  0  0  0  0
   45.3420   34.1930   41.3610 C   0  0  0  0  0  0  0  0  0  0  0  0
   43.2490   36.6290   42.1540 H   0  0  0  0  0  0  0  0  0  0  0  0
   41.9380   35.7190   40.3550 H   0  0  0  0  0  0  0  0  0  0  0  0
   42.7890   33.7380   39.1030 H   0  0  0  0  0  0  0  0  0  0  0  0
   44.8900   32.7560   39.6870 H   0  0  0  0  0  0  0  0  0  0  0  0
   46.6010   33.4770   41.5000 C   0  0  0  0  0  0  0  0  0  0  0  0
   46.4610   32.1380   41.4340 N   0  0  0  0  0  0  0  0  0  0  0  0
   47.4880   31.2750   41.5370 C   0  0  0  0  0  0  0  0  0  0  0  0
   48.7350   31.7710   41.7190 N   0  0  0  0  0  0  0  0  0  0  0  0
   48.9280   33.1050   41.7930 C   0  0  0  0  0  0  0  0  0  0  0  0
   50.1830   33.6640   41.9730 C   0  0  0  0  0  0  0  0  0  0  0  0
   50.3410   35.0390   42.0390 C   0  0  0  0  0  0  0  0  0  0  0  0
   51.3420   35.3990   42.1790 H   0  0  0  0  0  0  0  0  0  0  0  0
   49.2340   35.8620   41.9220 C   0  0  0  0  0  0  0  0  0  0  0  0
   49.3530   36.9390   41.9740 H   0  0  0  0  0  0  0  0  0  0  0  0
   47.9380   35.3640   41.7390 C   0  0  0  0  0  0  0  0  0  0  0  0
   47.8620   34.0000   41.6840 C   0  0  0  0  0  0  0  0  0  0  0  0
   44.7320   35.0720   45.2930 C   0  0  0  0  0  0  0  0  0  0  0  0
   45.6040   34.9060   44.2230 C   0  0  0  0  0  0  0  0  0  0  0  0
   46.4770   33.8190   44.2830 C   0  0  0  0  0  0  0  0  0  0  0  0
   46.4590   32.9730   45.3450 N   0  0  0  0  0  0  0  0  0  0  0  0
   45.6040   33.1670   46.3580 C   0  0  0  0  0  0  0  0  0  0  0  0
   44.7320   34.2150   46.3450 N   0  0  0  0  0  0  0  0  0  0  0  0
   44.0150   35.8850   45.3420 H   0  0  0  0  0  0  0  0  0  0  0  0
   47.2140   33.5640   43.5680 H   0  0  0  0  0  0  0  0  0  0  0  0
   47.0650   31.7300   47.7620 C   0  0  2  0  0  0  0  0  0  0  0  0
   45.6180   32.2300   47.4800 C   0  0  1  0  0  0  0  0  0  0  0  0
   45.3260   32.7400   48.6990 O   0  0  0  0  0  0  0  0  0  0  0  0
   45.7060   31.8350   49.6440 C   0  0  0  0  0  0  0  0  0  0  0  0
   46.7330   30.9050   49.0200 C   0  0  2  0  0  0  0  0  0  0  0  0
   47.4090   31.0920   46.9370 H   0  0  0  0  0  0  0  0  0  0  0  0
   44.9780   31.3740   47.2440 H   0  0  0  0  0  0  0  0  0  0  0  0
   44.8320   31.2760   50.0730 H   0  0  0  0  0  0  0  0  0  0  0  0
   46.1750   32.3670   50.5030 H   0  0  0  0  0  0  0  0  0  0  0  0
   46.2240   29.9660   48.7860 H   0  0  0  0  0  0  0  0  0  0  0  0
   47.8470   32.7550   48.1410 O   0  0  0  0  0  0  0  0  0  0  0  0
   48.6670   32.4550   48.5610 H   0  0  0  0  0  0  0  0  0  0  0  0
   47.8240   30.6720   49.8060 O   0  0  0  0  0  0  0  0  0  0  0  0
   47.7760   31.1640   50.6870 H   0  0  0  0  0  0  0  0  0  0  0  0
  1  3  1  0  0  0  0
  1 27  1  0  0  0  0
  2  1  1  0  0  0  0
  4  1  1  0  0  0  0
  5  4  1  0  0  0  0
  5 10  1  0  0  0  0
  6  5  2  0  0  0  0
  7  8  2  0  0  0  0
  7  6  1  0  0  0  0
  8  9  1  0  0  0  0
  9 14  1  0  0  0  0
  9  4  2  0  0  0  0
 11  6  1  0  0  0  0
 12  7  1  0  0  0  0
 13  8  1  0  0  0  0
 14 25  1  0  0  0  0
 15 14  2  0  0  0  0
 15 16  1  0  0  0  0
 16 17  2  0  0  0  0
 17 18  1  0  0  0  0
 18 19  1  0  0  0  0
 19 20  2  0  0  0  0
 20 21  1  0  0  0  0
 22 23  1  0  0  0  0
 22 20  1  0  0  0  0
 24 22  2  0  0  0  0
 25 24  1  0  0  0  0
 25 18  2  0  0  0  0
 26 32  1  0  0  0  0
 26 31  1  0  0  0  0
 27 28  1  0  0  0  0
 27 26  2  0  0  0  0
 28 29  2  0  0  0  0
 29 30  1  0  0  0  0
 30 35  1  0  0  0  0
 31 30  2  0  0  0  0
 33 28  1  0  0  0  0
 34 39  1  6  0  0  0
 34 44  1  0  0  0  0
 34 38  1  0  0  0  0
 35 40  1  6  0  0  0
 35 34  1  0  0  0  0
 35 36  1  0  0  0  0
 36 37  1  0  0  0  0
 37 41  1  0  0  0  0
 37 42  1  0  0  0  0
 38 43  1  6  0  0  0
 38 37  1  0  0  0  0
 38 46  1  0  0  0  0
 44 45  1  0  0  0  0
 46 47  1  0  0  0  0
M  END
>  <minimizedAffinity>
-7.49761724

>  <minimizedRMSD>
0.671273589

$$$$
