
 OpenBabel03252506103D

 33 36  0  0  0  0  0  0  0  0999 V2000
   45.3090   33.2110   41.1370 F   0  0  0  0  0  0  0  0  0  0  0  0
   46.4360   33.9080   40.9610 C   0  0  0  0  0  0  0  0  0  0  0  0
   46.8840   34.7490   41.9580 C   0  0  0  0  0  0  0  0  0  0  0  0
   48.0390   35.5080   41.8580 C   0  0  0  0  0  0  0  0  0  0  0  0
   48.8000   35.4280   40.6930 C   0  0  0  0  0  0  0  0  0  0  0  0
   48.3190   34.5730   39.7140 C   0  0  0  0  0  0  0  0  0  0  0  0
   47.1780   33.8160   39.7980 C   0  0  0  0  0  0  0  0  0  0  0  0
   48.3310   36.1490   42.6800 H   0  0  0  0  0  0  0  0  0  0  0  0
   49.7080   36.0050   40.5800 H   0  0  0  0  0  0  0  0  0  0  0  0
   48.9600   34.5490   38.8270 H   0  0  0  0  0  0  0  0  0  0  0  0
   46.7530   32.9320   38.7120 C   0  0  0  0  0  0  0  0  0  0  0  0
   45.8340   33.4910   37.8770 N   0  0  0  0  0  0  0  0  0  0  0  0
   45.3580   32.7750   36.8240 C   0  0  0  0  0  3  0  0  0  0  0  0
   45.7950   31.5040   36.6050 N   0  0  0  0  0  0  0  0  0  0  0  0
   46.6990   30.9230   37.4100 C   0  0  0  0  0  0  0  0  0  0  0  0
   47.1680   29.6370   37.2150 C   0  0  0  0  0  3  0  0  0  0  0  0
   48.1040   29.0730   38.0620 C   0  0  0  0  0  0  0  0  0  0  0  0
   48.5030   28.0900   37.9650 H   0  0  0  0  0  0  0  0  0  0  0  0
   48.5500   29.8520   39.1140 C   0  0  0  0  0  0  0  0  0  0  0  0
   49.2920   29.4340   39.8040 H   0  0  0  0  0  0  0  0  0  0  0  0
   48.1270   31.1550   39.3780 C   0  0  0  0  0  3  0  0  0  0  0  0
   47.1970   31.6270   38.4810 C   0  0  0  0  0  0  0  0  0  0  0  0
   45.4940   34.0000   45.2950 C   0  0  0  0  0  0  0  0  0  0  0  0
   44.6640   35.1140   45.5120 C   0  0  0  0  0  0  0  0  0  0  0  0
   44.5820   36.1200   44.5140 C   0  0  0  0  0  0  0  0  0  0  0  0
   45.3310   35.9290   43.3900 N   0  0  0  0  0  0  0  0  0  0  0  0
   46.1100   34.8670   43.2090 C   0  0  0  0  0  0  0  0  0  0  0  0
   46.1870   33.9180   44.1530 N   0  0  0  0  0  0  0  0  0  0  0  0
   44.0940   35.2000   46.4280 H   0  0  0  0  0  0  0  0  0  0  0  0
   43.9610   36.9780   44.6500 H   0  0  0  0  0  0  0  0  0  0  0  0
   45.5750   33.0030   46.2840 N   0  0  0  0  0  0  0  0  0  0  0  0
   46.4090   32.4490   46.5930 H   0  0  0  0  0  0  0  0  0  0  0  0
   44.8230   32.6240   46.9010 H   0  0  0  0  0  0  0  0  0  0  0  0
  2  1  1  0  0  0  0
  2  3  1  0  0  0  0
  3 27  1  0  0  0  0
  4  3  2  0  0  0  0
  4  8  1  0  0  0  0
  5  4  1  0  0  0  0
  6  7  1  0  0  0  0
  6  5  2  0  0  0  0
  7  2  2  0  0  0  0
  9  5  1  0  0  0  0
 10  6  1  0  0  0  0
 11  7  1  0  0  0  0
 12 11  2  0  0  0  0
 13 12  1  0  0  0  0
 14 13  2  0  0  0  0
 14 15  1  0  0  0  0
 15 22  1  0  0  0  0
 16 15  2  0  0  0  0
 16 17  1  0  0  0  0
 17 19  2  0  0  0  0
 18 17  1  0  0  0  0
 19 21  1  0  0  0  0
 19 20  1  0  0  0  0
 22 11  1  0  0  0  0
 22 21  2  0  0  0  0
 23 24  1  0  0  0  0
 23 31  1  0  0  0  0
 24 29  1  0  0  0  0
 25 30  1  0  0  0  0
 25 24  2  0  0  0  0
 26 25  1  0  0  0  0
 27 26  2  0  0  0  0
 27 28  1  0  0  0  0
 28 23  2  0  0  0  0
 31 32  1  0  0  0  0
 31 33  1  0  0  0  0
M  END
>  <minimizedAffinity>
-6.00998211

>  <minimizedRMSD>
1.09328353

$$$$
