
     RDKit          3D

 37 40  0  0  0  0  0  0  0  0999 V2000
   46.6934   34.2354   40.7015 C   0  0  0  0  0  0  0  0  0  0  0  0
   48.0390   34.1973   41.3129 C   0  0  0  0  0  0  0  0  0  0  0  0
   48.7447   32.9810   41.1708 C   0  0  0  0  0  0  0  0  0  0  0  0
   50.0134   32.8650   41.7119 C   0  0  0  0  0  0  0  0  0  0  0  0
   50.5286   33.9525   42.3683 N   0  0  0  0  0  0  0  0  0  0  0  0
   49.8172   35.0959   42.4799 C   0  0  0  0  0  0  0  0  0  0  0  0
   48.5990   35.2084   41.9606 N   0  0  0  0  0  0  0  0  0  0  0  0
   48.0050   31.5986   40.3024 S   0  0  0  0  0  0  0  0  0  0  0  0
   45.6035   34.5573   41.6540 C   0  0  0  0  0  0  0  0  0  0  0  0
   44.2503   34.6596   41.0677 C   0  0  0  0  0  0  0  0  0  0  0  0
   43.2432   35.4476   41.7058 C   0  0  0  0  0  0  0  0  0  0  0  0
   41.7955   35.2088   40.5626 S   0  0  0  0  0  0  0  0  0  0  0  0
   42.8222   34.0941   39.4431 C   0  0  0  0  0  0  0  0  0  0  0  0
   43.8270   34.0865   39.9764 N   0  0  0  0  0  0  0  0  0  0  0  0
   46.4729   33.3540   40.1060 H   0  0  0  0  0  0  0  0  0  0  0  0
   46.7266   35.0888   39.9599 H   0  0  0  0  0  0  0  0  0  0  0  0
   50.5558   31.9484   41.6096 H   0  0  0  0  0  0  0  0  0  0  0  0
   50.2883   35.9270   43.0173 H   0  0  0  0  0  0  0  0  0  0  0  0
   47.0970   30.9878   41.2157 H   0  0  0  0  0  0  0  0  0  0  0  0
   45.5586   33.7310   42.4220 H   0  0  0  0  0  0  0  0  0  0  0  0
   45.8587   35.4690   42.2326 H   0  0  0  0  0  0  0  0  0  0  0  0
   43.3430   36.0183   42.6174 H   0  0  0  0  0  0  0  0  0  0  0  0
   42.0544   33.6034   38.2888 C   0  0  0  0  0  0  0  0  0  0  0  0
   41.2421   34.3287   37.4995 N   0  0  0  0  0  0  0  0  0  0  0  0
   40.5735   33.8191   36.4657 C   0  0  0  0  0  0  0  0  0  0  0  0
   40.6643   32.5223   36.1320 N   0  0  0  0  0  0  0  0  0  0  0  0
   41.4457   31.7177   36.8541 C   0  0  0  0  0  0  0  0  0  0  0  0
   41.5437   30.3850   36.5172 C   0  0  0  0  0  0  0  0  0  0  0  0
   42.3619   29.5483   37.2753 C   0  0  0  0  0  0  0  0  0  0  0  0
   42.4087   28.5104   36.9750 H   0  0  0  0  0  0  0  0  0  0  0  0
   43.0389   30.1201   38.3416 C   0  0  0  0  0  0  0  0  0  0  0  0
   43.6427   29.3645   38.8531 H   0  0  0  0  0  0  0  0  0  0  0  0
   42.9250   31.4528   38.6580 C   0  0  0  0  0  0  0  0  0  0  0  0
   42.1200   32.2832   37.9147 C   0  0  0  0  0  0  0  0  0  0  0  0
   39.9326   34.4885   35.8767 H   0  0  0  0  0  0  0  0  0  0  0  0
   40.9730   30.0356   35.6644 H   0  0  0  0  0  0  0  0  0  0  0  0
   43.5312   31.6671   39.5093 H   0  0  0  0  0  0  0  0  0  0  0  0
  1  2  1  0
  1  9  1  0
  2  7  1  0
  3  2  2  0
  3  4  1  0
  4  5  2  0
  5  6  1  0
  7  6  2  0
  8  3  1  0
 10  9  1  0
 10 11  2  0
 12 11  1  0
 13 14  2  0
 13 12  1  0
 14 10  1  0
  1 15  1  0
  1 16  1  0
  4 17  1  0
  6 18  1  0
  8 19  1  0
  9 20  1  0
  9 21  1  0
 11 22  1  0
 23 24  2  0
 24 25  1  0
 25 26  2  0
 26 27  1  0
 27 28  2  0
 28 29  1  0
 29 30  1  0
 29 31  2  0
 31 32  1  0
 31 33  1  0
 33 34  2  0
 34 23  1  0
 34 27  1  0
 25 35  1  0
 28 36  1  0
 33 37  1  0
 13 23  1  0
M  ISO  8  15   8  16   8  17  14  18  14  19  11  20   8  21   8  22  14
M  ISO  2  30  16  32  16
M  END
>  <DihAtoms>  (1) 
13,12,22,23

>  <DihDeg>  (1) 
179.99137653303393

$$$$
