
 OpenBabel03252507433D

 34 37  0  0  0  0  0  0  0  0999 V2000
   44.3890   34.4880   41.0320 C   0  0  0  0  0  0  0  0  0  0  0  0
   43.5800   35.6620   41.1280 C   0  0  0  0  0  0  0  0  0  0  0  0
   42.0390   35.1330   40.2300 S   0  0  0  0  0  0  0  0  0  0  0  0
   42.7790   33.4320   39.8960 C   0  0  0  0  0  0  0  0  0  0  0  0
   43.8010   33.5190   40.3880 N   0  0  0  0  0  0  0  0  0  0  0  0
   43.8390   36.5930   41.6080 H   0  0  0  0  0  0  0  0  0  0  0  0
   41.8610   32.5620   39.1440 C   0  0  0  0  0  0  0  0  0  0  0  0
   42.0690   32.0480   37.9190 N   0  0  0  0  0  0  0  0  0  0  0  0
   41.1930   31.2630   37.2920 C   0  0  0  0  0  3  0  0  0  0  0  0
   40.0180   30.9270   37.8480 N   0  0  0  0  0  0  0  0  0  0  0  0
   39.7170   31.3880   39.0640 C   0  0  0  0  0  0  0  0  0  0  0  0
   38.5140   31.0460   39.6400 C   0  0  0  0  0  3  0  0  0  0  0  0
   38.2030   31.5310   40.9100 C   0  0  0  0  0  0  0  0  0  0  0  0
   37.2490   31.2370   41.3240 H   0  0  0  0  0  0  0  0  0  0  0  0
   39.1450   32.3420   41.5250 C   0  0  0  0  0  0  0  0  0  0  0  0
   38.7850   32.6550   42.5110 H   0  0  0  0  0  0  0  0  0  0  0  0
   40.3390   32.6690   40.9300 C   0  0  0  0  0  3  0  0  0  0  0  0
   40.6500   32.1950   39.6770 C   0  0  0  0  0  0  0  0  0  0  0  0
   45.7400   34.4590   41.6320 C   0  0  0  0  0  0  0  0  0  0  0  0
   45.7430   33.6120   42.3780 H   0  0  0  0  0  0  0  0  0  0  0  0
   45.9290   35.3700   42.2370 H   0  0  0  0  0  0  0  0  0  0  0  0
   46.8590   34.2350   40.6850 C   0  0  0  0  0  0  0  0  0  0  0  0
   46.6650   33.4110   40.0050 H   0  0  0  0  0  0  0  0  0  0  0  0
   46.9040   35.1540   40.0260 H   0  0  0  0  0  0  0  0  0  0  0  0
   48.1880   34.1520   41.3270 C   0  0  0  0  0  0  0  0  0  0  0  0
   48.8810   32.9330   41.1530 C   0  0  0  0  0  0  0  0  0  0  0  0
   50.1330   32.7760   41.7200 C   0  0  0  0  0  0  0  0  0  0  0  0
   50.6470   33.8280   42.4330 N   0  0  0  0  0  0  0  0  0  0  0  0
   49.9480   34.9760   42.5750 C   0  0  0  0  0  0  0  0  0  0  0  0
   48.7450   35.1270   42.0310 N   0  0  0  0  0  0  0  0  0  0  0  0
   50.6660   31.8560   41.5930 H   0  0  0  0  0  0  0  0  0  0  0  0
   50.4160   35.7770   43.1580 H   0  0  0  0  0  0  0  0  0  0  0  0
   48.1450   31.5990   40.2080 S   0  0  0  0  0  0  0  0  0  0  0  0
   47.2050   30.9640   41.0730 H   0  0  0  0  0  0  0  0  0  0  0  0
  1  2  2  0  0  0  0
  1 19  1  0  0  0  0
  2  6  1  0  0  0  0
  3  2  1  0  0  0  0
  4  3  1  0  0  0  0
  4  5  2  0  0  0  0
  5  1  1  0  0  0  0
  7 18  1  0  0  0  0
  7  4  1  0  0  0  0
  8  7  2  0  0  0  0
  9 10  2  0  0  0  0
  9  8  1  0  0  0  0
 10 11  1  0  0  0  0
 11 12  2  0  0  0  0
 11 18  1  0  0  0  0
 12 13  1  0  0  0  0
 13 14  1  0  0  0  0
 13 15  2  0  0  0  0
 15 16  1  0  0  0  0
 17 15  1  0  0  0  0
 18 17  2  0  0  0  0
 19 21  1  0  0  0  0
 19 20  1  0  0  0  0
 22 25  1  0  0  0  0
 22 19  1  0  0  0  0
 23 22  1  0  0  0  0
 24 22  1  0  0  0  0
 25 30  1  0  0  0  0
 26 25  2  0  0  0  0
 26 27  1  0  0  0  0
 27 28  2  0  0  0  0
 28 29  1  0  0  0  0
 29 32  1  0  0  0  0
 30 29  2  0  0  0  0
 31 27  1  0  0  0  0
 33 34  1  0  0  0  0
 33 26  1  0  0  0  0
M  END
>  <minimizedAffinity>
-5.18937826

>  <minimizedRMSD>
1.41160214

$$$$
