
 OpenBabel03252508173D

 50 55  0  0  1  0  0  0  0  0999 V2000
   46.6790   31.5450   48.2060 C   0  0  1  0  0  0  0  0  0  0  0  0
   46.3350   30.4820   49.1910 C   0  0  0  0  0  0  0  0  0  0  0  0
   47.5290   31.2980   49.3850 C   0  0  1  0  0  0  0  0  0  0  0  0
   45.8490   32.3110   48.1840 H   0  0  0  0  0  0  0  0  0  0  0  0
   46.4960   29.4170   48.8970 H   0  0  0  0  0  0  0  0  0  0  0  0
   45.4970   30.5870   49.9090 H   0  0  0  0  0  0  0  0  0  0  0  0
   47.4790   32.0690   50.1820 H   0  0  0  0  0  0  0  0  0  0  0  0
   48.9050   30.7540   49.1620 C   0  0  2  0  0  0  0  0  0  0  0  0
   49.5360   30.1720   50.4520 C   0  0  0  0  0  0  0  0  0  0  0  0
   50.0620   31.4340   49.8890 C   0  0  1  0  0  0  0  0  0  0  0  0
   49.1280   30.0930   48.3060 H   0  0  0  0  0  0  0  0  0  0  0  0
   48.9830   30.2830   51.4030 H   0  0  0  0  0  0  0  0  0  0  0  0
   50.1190   29.2570   50.4110 H   0  0  0  0  0  0  0  0  0  0  0  0
   49.8120   32.4000   50.3820 H   0  0  0  0  0  0  0  0  0  0  0  0
   51.4180   31.3230   49.2890 C   0  0  0  0  0  0  0  0  0  0  0  0
   51.7490   30.3650   48.4030 N   0  0  0  0  0  0  0  0  0  0  0  0
   52.9510   30.2270   47.8380 C   0  0  0  0  0  3  0  0  0  0  0  0
   53.9530   31.0980   48.1510 N   0  0  0  0  0  0  0  0  0  0  0  0
   53.6750   32.0860   49.0390 C   0  0  0  0  0  0  0  0  0  0  0  0
   54.7200   32.9420   49.3230 C   0  0  0  0  0  3  0  0  0  0  0  0
   54.4620   33.9700   50.2360 C   0  0  0  0  0  0  0  0  0  0  0  0
   55.3060   34.6230   50.4340 H   0  0  0  0  0  0  0  0  0  0  0  0
   53.2230   34.1200   50.8230 C   0  0  0  0  0  0  0  0  0  0  0  0
   53.0960   34.9520   51.5310 H   0  0  0  0  0  0  0  0  0  0  0  0
   52.1870   33.2510   50.5260 C   0  0  0  0  0  3  0  0  0  0  0  0
   52.4270   32.2180   49.6160 C   0  0  0  0  0  0  0  0  0  0  0  0
   47.1080   31.0600   46.8620 C   0  0  0  0  0  0  0  0  0  0  0  0
   48.1500   30.8070   46.7260 H   0  0  0  0  0  0  0  0  0  0  0  0
   46.5300   30.1370   46.5590 H   0  0  0  0  0  0  0  0  0  0  0  0
   46.0290   33.0270   46.1310 C   0  0  0  0  0  3  0  0  0  0  0  0
   46.8540   32.1210   45.8140 C   0  0  0  0  0  3  0  0  0  0  0  0
   44.5750   35.9520   44.4170 C   0  0  0  0  0  0  0  0  0  0  0  0
   45.2100   35.9320   43.1780 C   0  0  0  0  0  0  0  0  0  0  0  0
   46.0960   34.9340   42.9770 C   0  0  0  0  0  0  0  0  0  0  0  0
   46.3380   34.0080   43.9490 N   0  0  0  0  0  0  0  0  0  0  0  0
   45.7040   34.0570   45.1400 C   0  0  0  0  0  0  0  0  0  0  0  0
   44.8380   35.0310   45.3380 N   0  0  0  0  0  0  0  0  0  0  0  0
   43.8560   36.7450   44.6060 H   0  0  0  0  0  0  0  0  0  0  0  0
   45.0300   36.6500   42.4100 H   0  0  0  0  0  0  0  0  0  0  0  0
   46.8400   34.7820   41.7270 C   0  0  0  0  0  0  0  0  0  0  0  0
   48.0530   35.3610   41.4650 C   0  0  0  0  0  0  0  0  0  0  0  0
   48.7460   35.2100   40.2820 C   0  0  0  0  0  0  0  0  0  0  0  0
   48.2100   34.4310   39.2750 C   0  0  0  0  0  0  0  0  0  0  0  0
   46.9980   33.8280   39.4810 C   0  0  0  0  0  0  0  0  0  0  0  0
   46.3380   34.0080   40.6860 C   0  0  0  0  0  0  0  0  0  0  0  0
   48.4950   35.9830   42.2540 H   0  0  0  0  0  0  0  0  0  0  0  0
   49.6980   35.7090   40.1750 H   0  0  0  0  0  0  0  0  0  0  0  0
   48.7760   34.3340   38.3630 H   0  0  0  0  0  0  0  0  0  0  0  0
   46.5830   33.2200   38.6900 H   0  0  0  0  0  0  0  0  0  0  0  0
   45.3870   33.5000   40.7720 H   0  0  0  0  0  0  0  0  0  0  0  0
  1  4  1  1  0  0  0
  1  2  1  0  0  0  0
  1  3  1  0  0  0  0
  2  3  1  0  0  0  0
  2  6  1  0  0  0  0
  3  7  1  1  0  0  0
  5  2  1  0  0  0  0
  8 11  1  6  0  0  0
  8  3  1  0  0  0  0
  8 10  1  0  0  0  0
  8  9  1  0  0  0  0
  9 12  1  0  0  0  0
 10 14  1  1  0  0  0
 10  9  1  0  0  0  0
 13  9  1  0  0  0  0
 15 26  1  0  0  0  0
 15 10  1  0  0  0  0
 16 15  2  0  0  0  0
 17 18  2  0  0  0  0
 17 16  1  0  0  0  0
 18 19  1  0  0  0  0
 19 20  2  0  0  0  0
 19 26  1  0  0  0  0
 20 21  1  0  0  0  0
 21 22  1  0  0  0  0
 21 23  2  0  0  0  0
 23 24  1  0  0  0  0
 25 23  1  0  0  0  0
 26 25  2  0  0  0  0
 27  1  1  0  0  0  0
 28 27  1  0  0  0  0
 29 27  1  0  0  0  0
 31 30  2  0  0  0  0
 31 27  1  0  0  0  0
 32 38  1  0  0  0  0
 32 37  1  0  0  0  0
 33 32  2  0  0  0  0
 34 33  1  0  0  0  0
 34 35  2  0  0  0  0
 35 36  1  0  0  0  0
 36 37  2  0  0  0  0
 36 30  1  0  0  0  0
 39 33  1  0  0  0  0
 40 34  1  0  0  0  0
 41 40  1  0  0  0  0
 41 46  1  0  0  0  0
 42 41  2  0  0  0  0
 43 44  2  0  0  0  0
 43 42  1  0  0  0  0
 44 45  1  0  0  0  0
 45 50  1  0  0  0  0
 45 40  2  0  0  0  0
 47 42  1  0  0  0  0
 48 43  1  0  0  0  0
 49 44  1  0  0  0  0
M  END
>  <minimizedAffinity>
-7.05239487

>  <minimizedRMSD>
1.50283837

$$$$
