
 OpenBabel03252508173D

 50 55  0  0  1  0  0  0  0  0999 V2000
   46.8980   31.7090   48.2800 C   0  0  1  0  0  0  0  0  0  0  0  0
   46.2450   30.7780   49.2420 C   0  0  0  0  0  0  0  0  0  0  0  0
   47.6270   31.1960   49.4540 C   0  0  1  0  0  0  0  0  0  0  0  0
   46.3350   32.6880   48.2730 H   0  0  0  0  0  0  0  0  0  0  0  0
   46.0820   29.7190   48.9260 H   0  0  0  0  0  0  0  0  0  0  0  0
   45.4720   31.1150   49.9620 H   0  0  0  0  0  0  0  0  0  0  0  0
   47.8050   31.9310   50.2670 H   0  0  0  0  0  0  0  0  0  0  0  0
   48.7790   30.2690   49.2200 C   0  0  2  0  0  0  0  0  0  0  0  0
   49.7080   30.1450   50.4550 C   0  0  0  0  0  0  0  0  0  0  0  0
   50.1840   30.8640   49.2540 C   0  0  1  0  0  0  0  0  0  0  0  0
   48.6310   29.2760   48.7620 H   0  0  0  0  0  0  0  0  0  0  0  0
   49.5050   30.7880   51.3310 H   0  0  0  0  0  0  0  0  0  0  0  0
   50.1250   29.1810   50.7300 H   0  0  0  0  0  0  0  0  0  0  0  0
   50.2300   31.9760   49.2640 H   0  0  0  0  0  0  0  0  0  0  0  0
   51.2520   30.1600   48.4970 C   0  0  0  0  0  0  0  0  0  0  0  0
   52.5570   30.2470   48.8220 N   0  0  0  0  0  0  0  0  0  0  0  0
   53.5490   29.6340   48.1720 C   0  0  0  0  0  3  0  0  0  0  0  0
   53.2720   28.8490   47.0920 N   0  0  0  0  0  0  0  0  0  0  0  0
   51.9730   28.7250   46.7180 C   0  0  0  0  0  0  0  0  0  0  0  0
   51.7440   27.9210   45.6210 C   0  0  0  0  0  3  0  0  0  0  0  0
   50.4140   27.7760   45.2140 C   0  0  0  0  0  0  0  0  0  0  0  0
   50.2700   27.1370   44.3480 H   0  0  0  0  0  0  0  0  0  0  0  0
   49.3810   28.4050   45.8800 C   0  0  0  0  0  0  0  0  0  0  0  0
   48.3610   28.2430   45.5020 H   0  0  0  0  0  0  0  0  0  0  0  0
   49.6320   29.2080   46.9790 C   0  0  0  0  0  3  0  0  0  0  0  0
   50.9560   29.3640   47.3990 C   0  0  0  0  0  0  0  0  0  0  0  0
   47.1710   31.1430   46.9260 C   0  0  0  0  0  0  0  0  0  0  0  0
   48.1790   30.8150   46.7100 H   0  0  0  0  0  0  0  0  0  0  0  0
   46.5110   30.2510   46.7170 H   0  0  0  0  0  0  0  0  0  0  0  0
   46.0570   33.0790   46.1640 C   0  0  0  0  0  3  0  0  0  0  0  0
   46.8910   32.1780   45.8580 C   0  0  0  0  0  3  0  0  0  0  0  0
   44.5320   35.9350   44.3970 C   0  0  0  0  0  0  0  0  0  0  0  0
   45.1680   35.9080   43.1590 C   0  0  0  0  0  0  0  0  0  0  0  0
   46.0790   34.9290   42.9760 C   0  0  0  0  0  0  0  0  0  0  0  0
   46.3420   34.0270   43.9650 N   0  0  0  0  0  0  0  0  0  0  0  0
   45.7070   34.0820   45.1540 C   0  0  0  0  0  0  0  0  0  0  0  0
   44.8170   35.0380   45.3350 N   0  0  0  0  0  0  0  0  0  0  0  0
   43.7930   36.7140   44.5720 H   0  0  0  0  0  0  0  0  0  0  0  0
   44.9710   36.6080   42.3770 H   0  0  0  0  0  0  0  0  0  0  0  0
   46.8260   34.7720   41.7290 C   0  0  0  0  0  0  0  0  0  0  0  0
   48.0400   35.3500   41.4680 C   0  0  0  0  0  0  0  0  0  0  0  0
   48.7370   35.1950   40.2870 C   0  0  0  0  0  0  0  0  0  0  0  0
   48.2030   34.4130   39.2820 C   0  0  0  0  0  0  0  0  0  0  0  0
   46.9920   33.8090   39.4870 C   0  0  0  0  0  0  0  0  0  0  0  0
   46.3280   33.9940   40.6890 C   0  0  0  0  0  0  0  0  0  0  0  0
   48.4790   35.9770   42.2560 H   0  0  0  0  0  0  0  0  0  0  0  0
   49.6890   35.6950   40.1810 H   0  0  0  0  0  0  0  0  0  0  0  0
   48.7720   34.3120   38.3730 H   0  0  0  0  0  0  0  0  0  0  0  0
   46.5790   33.1990   38.6970 H   0  0  0  0  0  0  0  0  0  0  0  0
   45.3760   33.4850   40.7740 H   0  0  0  0  0  0  0  0  0  0  0  0
  1  4  1  1  0  0  0
  1  2  1  0  0  0  0
  1  3  1  0  0  0  0
  2  3  1  0  0  0  0
  2  6  1  0  0  0  0
  3  7  1  1  0  0  0
  5  2  1  0  0  0  0
  8 11  1  6  0  0  0
  8 10  1  0  0  0  0
  8  3  1  0  0  0  0
  8  9  1  0  0  0  0
  9 13  1  0  0  0  0
  9 12  1  0  0  0  0
 10 14  1  1  0  0  0
 10  9  1  0  0  0  0
 15 16  1  0  0  0  0
 15 10  1  0  0  0  0
 17 16  2  0  0  0  0
 18 17  1  0  0  0  0
 19 18  2  0  0  0  0
 19 26  1  0  0  0  0
 20 19  1  0  0  0  0
 21 20  2  0  0  0  0
 21 23  1  0  0  0  0
 22 21  1  0  0  0  0
 23 25  2  0  0  0  0
 24 23  1  0  0  0  0
 25 26  1  0  0  0  0
 26 15  2  0  0  0  0
 27  1  1  0  0  0  0
 28 27  1  0  0  0  0
 29 27  1  0  0  0  0
 31 30  2  0  0  0  0
 31 27  1  0  0  0  0
 32 38  1  0  0  0  0
 32 37  1  0  0  0  0
 33 32  2  0  0  0  0
 34 33  1  0  0  0  0
 34 35  2  0  0  0  0
 35 36  1  0  0  0  0
 36 37  2  0  0  0  0
 36 30  1  0  0  0  0
 39 33  1  0  0  0  0
 40 34  1  0  0  0  0
 41 40  1  0  0  0  0
 41 46  1  0  0  0  0
 42 41  2  0  0  0  0
 43 44  2  0  0  0  0
 43 42  1  0  0  0  0
 44 45  1  0  0  0  0
 45 50  1  0  0  0  0
 45 40  2  0  0  0  0
 47 42  1  0  0  0  0
 48 43  1  0  0  0  0
 49 44  1  0  0  0  0
M  END
>  <minimizedAffinity>
-6.59917259

>  <minimizedRMSD>
1.11194611

$$$$
