
 OpenBabel03252506323D

 35 38  0  0  1  0  0  0  0  0999 V2000
   44.5060   35.6540   45.0120 C   0  0  0  0  0  0  0  0  0  0  0  0
   45.1660   35.5800   43.7910 C   0  0  0  0  0  0  0  0  0  0  0  0
   46.0640   34.5590   43.6130 C   0  0  0  0  0  0  0  0  0  0  0  0
   46.2630   33.6730   44.6410 N   0  0  0  0  0  0  0  0  0  0  0  0
   45.6090   33.7830   45.7950 C   0  0  0  0  0  0  0  0  0  0  0  0
   44.7290   34.7660   45.9960 N   0  0  0  0  0  0  0  0  0  0  0  0
   45.8650   32.8240   46.8150 N   0  0  0  0  0  0  0  0  0  0  0  0
   45.0290   32.6180   47.9990 C   0  0  0  0  0  0  0  0  0  0  0  0
   46.0640   32.2910   49.0340 C   0  0  0  0  0  0  0  0  0  0  0  0
   47.3690   32.0740   48.3270 C   0  0  0  0  0  0  0  0  0  0  0  0
   46.9830   31.8810   46.8910 C   0  0  1  0  0  0  0  0  0  0  0  0
   43.7840   36.4210   45.2440 H   0  0  0  0  0  0  0  0  0  0  0  0
   46.5720   34.5080   42.6600 H   0  0  0  0  0  0  0  0  0  0  0  0
   44.2780   31.8280   47.8660 H   0  0  0  0  0  0  0  0  0  0  0  0
   44.5050   33.5900   48.2420 H   0  0  0  0  0  0  0  0  0  0  0  0
   45.7730   31.4250   49.6640 H   0  0  0  0  0  0  0  0  0  0  0  0
   46.1460   33.1690   49.7310 H   0  0  0  0  0  0  0  0  0  0  0  0
   47.8670   31.1600   48.7600 H   0  0  0  0  0  0  0  0  0  0  0  0
   48.0820   32.9120   48.4710 H   0  0  0  0  0  0  0  0  0  0  0  0
   47.8390   32.2300   46.2860 H   0  0  0  0  0  0  0  0  0  0  0  0
   46.5870   30.4900   46.6930 C   0  0  0  0  0  0  0  0  0  0  0  0
   45.4640   30.0840   46.0770 N   0  0  0  0  0  0  0  0  0  0  0  0
   45.1070   28.8050   45.8910 C   0  0  0  0  0  0  0  0  0  0  0  0
   45.8870   27.7940   46.3280 N   0  0  0  0  0  0  0  0  0  0  0  0
   47.0310   28.1090   46.9570 C   0  0  0  0  0  0  0  0  0  0  0  0
   47.8050   27.0640   47.3940 C   0  0  0  0  0  0  0  0  0  0  0  0
   48.9890   27.3250   48.0470 C   0  0  0  0  0  0  0  0  0  0  0  0
   49.5710   26.4870   48.3750 H   0  0  0  0  0  0  0  0  0  0  0  0
   49.3820   28.6350   48.2530 C   0  0  0  0  0  0  0  0  0  0  0  0
   50.3090   28.8620   48.7650 H   0  0  0  0  0  0  0  0  0  0  0  0
   48.5510   29.6450   47.7850 C   0  0  0  0  0  0  0  0  0  0  0  0
   47.3590   29.4590   47.1270 C   0  0  0  0  0  0  0  0  0  0  0  0
   44.8320   36.5850   42.8270 N   0  0  0  0  0  0  0  0  0  0  0  0
   43.8270   36.7310   42.6490 H   0  0  0  0  0  0  0  0  0  0  0  0
   45.6520   37.0580   42.4150 H   0  0  0  0  0  0  0  0  0  0  0  0
  1 12  1  0  0  0  0
  1  6  1  0  0  0  0
  2  1  2  0  0  0  0
  3  2  1  0  0  0  0
  3  4  2  0  0  0  0
  4  5  1  0  0  0  0
  5  6  2  0  0  0  0
  5  7  1  0  0  0  0
  7 11  1  0  0  0  0
  7  8  1  0  0  0  0
  8 15  1  0  0  0  0
  8  9  1  0  0  0  0
  9 16  1  0  0  0  0
  9 17  1  0  0  0  0
 10 19  1  0  0  0  0
 10 18  1  0  0  0  0
 10  9  1  0  0  0  0
 11 20  1  6  0  0  0
 11 10  1  0  0  0  0
 13  3  1  0  0  0  0
 14  8  1  0  0  0  0
 21 11  1  0  0  0  0
 21 32  1  0  0  0  0
 22 21  2  0  0  0  0
 23 22  1  0  0  0  0
 23 24  2  0  0  0  0
 24 25  1  0  0  0  0
 25 32  2  0  0  0  0
 25 26  1  0  0  0  0
 26 27  2  0  0  0  0
 27 29  1  0  0  0  0
 27 28  1  0  0  0  0
 29 30  1  0  0  0  0
 31 29  2  0  0  0  0
 32 31  1  0  0  0  0
 33  2  1  0  0  0  0
 34 33  1  0  0  0  0
 35 33  1  0  0  0  0
M  END
>  <minimizedAffinity>
-6.09861326

>  <minimizedRMSD>
1.10311866

$$$$
