
     RDKit          3D

 55 60  0  0  0  0  0  0  0  0999 V2000
   45.7662   33.1304   46.2297 C   0  0  0  0  0  0  0  0  0  0  0  0
   45.9168   31.9403   45.8256 C   0  0  0  0  0  0  0  0  0  0  0  0
   44.5396   36.1446   44.4940 C   0  0  0  0  0  0  0  0  0  0  0  0
   45.2115   36.0964   43.2763 C   0  0  0  0  0  0  0  0  0  0  0  0
   46.0449   35.0487   43.0949 C   0  0  0  0  0  0  0  0  0  0  0  0
   46.2009   34.1050   44.0668 N   0  0  0  0  0  0  0  0  0  0  0  0
   45.5331   34.1832   45.2366 C   0  0  0  0  0  0  0  0  0  0  0  0
   44.7191   35.2047   45.4158 N   0  0  0  0  0  0  0  0  0  0  0  0
   46.8184   34.8623   41.8679 C   0  0  0  0  0  0  0  0  0  0  0  0
   48.0502   35.4109   41.6297 C   0  0  0  0  0  0  0  0  0  0  0  0
   48.7707   35.2267   40.4681 C   0  0  0  0  0  0  0  0  0  0  0  0
   48.2455   34.4439   39.4586 C   0  0  0  0  0  0  0  0  0  0  0  0
   47.0158   33.8692   39.6417 C   0  0  0  0  0  0  0  0  0  0  0  0
   46.3282   34.0824   40.8260 C   0  0  0  0  0  0  0  0  0  0  0  0
   46.1019   30.8934   46.9019 C   0  0  0  0  0  0  0  0  0  0  0  0
   45.8959   31.4950   48.2515 C   0  0  1  0  0  0  0  0  0  0  0  0
   45.7107   30.5217   49.3650 C   0  0  0  0  0  0  0  0  0  0  0  0
   46.9231   31.3320   49.2972 C   0  0  1  0  0  0  0  0  0  0  0  0
   48.2442   30.7493   48.9032 C   0  0  2  0  0  0  0  0  0  0  0  0
   49.1638   30.4742   50.1200 C   0  0  0  0  0  0  0  0  0  0  0  0
   49.4965   31.5738   49.1895 C   0  0  1  0  0  0  0  0  0  0  0  0
   45.7845   33.6084   47.1982 H   0  0  0  0  0  0  0  0  0  0  0  0
   45.8986   31.5921   44.8247 H   0  0  0  0  0  0  0  0  0  0  0  0
   43.8616   36.9776   44.6671 H   0  0  0  0  0  0  0  0  0  0  0  0
   45.0985   36.8279   42.5083 H   0  0  0  0  0  0  0  0  0  0  0  0
   48.4844   36.0370   42.4214 H   0  0  0  0  0  0  0  0  0  0  0  0
   49.7361   35.7046   40.3785 H   0  0  0  0  0  0  0  0  0  0  0  0
   48.8334   34.3201   38.5645 H   0  0  0  0  0  0  0  0  0  0  0  0
   46.6093   33.2578   38.8490 H   0  0  0  0  0  0  0  0  0  0  0  0
   45.3645   33.5948   40.8941 H   0  0  0  0  0  0  0  0  0  0  0  0
   47.0705   30.4657   46.6832 H   0  0  0  0  0  0  0  0  0  0  0  0
   45.3565   30.0680   46.7060 H   0  0  0  0  0  0  0  0  0  0  0  0
   45.0753   32.2695   48.2984 H   0  0  0  0  0  0  0  0  0  0  0  0
   45.8201   29.4338   49.1395 H   0  0  0  0  0  0  0  0  0  0  0  0
   44.9994   30.7004   50.1958 H   0  0  0  0  0  0  0  0  0  0  0  0
   47.0040   32.1673   50.0240 H   0  0  0  0  0  0  0  0  0  0  0  0
   48.3096   29.9107   48.1878 H   0  0  0  0  0  0  0  0  0  0  0  0
   48.8221   30.7992   51.1196 H   0  0  0  0  0  0  0  0  0  0  0  0
   49.7677   29.5716   50.1557 H   0  0  0  0  0  0  0  0  0  0  0  0
   49.3110   32.6269   49.4989 H   0  0  0  0  0  0  0  0  0  0  0  0
   50.6949   31.3284   48.3470 C   0  0  0  0  0  0  0  0  0  0  0  0
   50.6963   31.4958   47.0109 N   0  0  0  0  0  0  0  0  0  0  0  0
   51.7480   31.2875   46.2143 C   0  0  0  0  0  0  0  0  0  0  0  0
   52.9332   30.8731   46.7469 N   0  0  0  0  0  0  0  0  0  0  0  0
   52.9902   30.6877   48.0903 C   0  0  0  0  0  0  0  0  0  0  0  0
   54.2095   30.2685   48.5818 C   0  0  0  0  0  0  0  0  0  0  0  0
   54.2975   30.0691   49.9635 C   0  0  0  0  0  0  0  0  0  0  0  0
   55.2704   29.7399   50.3137 H   0  0  0  0  0  0  0  0  0  0  0  0
   53.2160   30.2819   50.7939 C   0  0  0  0  0  0  0  0  0  0  0  0
   53.3606   30.1044   51.8693 H   0  0  0  0  0  0  0  0  0  0  0  0
   52.0004   30.7025   50.2823 C   0  0  0  0  0  0  0  0  0  0  0  0
   51.8948   30.9067   48.9034 C   0  0  0  0  0  0  0  0  0  0  0  0
   51.5833   31.4678   45.1633 H   0  0  0  0  0  0  0  0  0  0  0  0
   55.0551   30.1029   47.9264 H   0  0  0  0  0  0  0  0  0  0  0  0
   51.1594   30.8688   50.9217 H   0  0  0  0  0  0  0  0  0  0  0  0
  2  1  2  0
  2 15  1  0
  3  8  2  0
  4  3  1  0
  5  4  2  0
  5  6  1  0
  6  7  2  0
  7  8  1  0
  7  1  1  0
  9  5  1  0
 10  9  2  0
 11 10  1  0
 12 13  1  0
 12 11  2  0
 13 14  2  0
 14  9  1  0
 15 16  1  0
 16 18  1  0
 16 17  1  0
 18 17  1  0
 19 21  1  0
 19 18  1  0
 19 20  1  0
 21 20  1  0
  1 22  1  0
  2 23  1  0
  3 24  1  0
  4 25  1  0
 10 26  1  0
 11 27  1  0
 12 28  1  0
 13 29  1  0
 14 30  1  0
 15 31  1  0
 15 32  1  0
 16 33  1  6
 17 34  1  0
 17 35  1  0
 18 36  1  1
 19 37  1  6
 20 38  1  0
 20 39  1  0
 21 40  1  1
 41 42  2  0
 42 43  1  0
 43 44  2  0
 44 45  1  0
 45 46  2  0
 46 47  1  0
 47 48  1  0
 47 49  2  0
 49 50  1  0
 49 51  1  0
 51 52  2  0
 52 41  1  0
 52 45  1  0
 43 53  1  0
 46 54  1  0
 51 55  1  0
 21 41  1  0
M  ISO  8  24  14  25  14  26  14  27  14  28  14  29  14  30  14  31   8
M  ISO  8  32   8  33  13  34  13  35  13  36  13  37  13  38  13  39  13
M  ISO  3  40  13  48  16  50  16
M  END
>  <DihAtoms>  (1) 
18,20,40,41

>  <DihDeg>  (1) 
-89.99746090018272

$$$$
