
 OpenBabel03242516053D

 39 43  0  0  0  0  0  0  0  0999 V2000
   47.1850   33.1470   38.7610 C   0  0  0  0  0  0  0  0  0  0  0  0
   47.7410   31.8530   38.6120 C   0  0  0  0  0  0  0  0  0  0  0  0
   46.9480   31.2290   37.1010 S   0  0  0  0  0  0  0  0  0  0  0  0
   45.9730   32.8490   36.9100 C   0  0  0  0  0  0  0  0  0  0  0  0
   46.3420   33.4120   37.8020 N   0  0  0  0  0  0  0  0  0  0  0  0
   45.0470   33.1560   35.8490 N   0  0  0  0  0  0  0  0  0  0  0  0
   44.0750   32.8120   35.7480 H   0  0  0  0  0  0  0  0  0  0  0  0
   45.4630   33.8030   35.1270 H   0  0  0  0  0  0  0  0  0  0  0  0
   48.7290   31.2120   39.5080 C   0  0  0  0  0  0  0  0  0  0  0  0
   48.1810   30.6390   40.5880 N   0  0  0  0  0  0  0  0  0  0  0  0
   48.9560   30.0070   41.5090 C   0  0  0  0  0  0  0  0  0  0  0  0
   50.3040   29.9390   41.3620 N   0  0  0  0  0  0  0  0  0  0  0  0
   50.8630   30.5110   40.2790 C   0  0  0  0  0  0  0  0  0  0  0  0
   52.2280   30.4960   40.0360 C   0  0  0  0  0  0  0  0  0  0  0  0
   52.7550   31.0920   38.9220 C   0  0  0  0  0  0  0  0  0  0  0  0
   53.8440   31.0430   38.7890 H   0  0  0  0  0  0  0  0  0  0  0  0
   51.9390   31.7360   37.9870 C   0  0  0  0  0  0  0  0  0  0  0  0
   52.3850   32.1990   37.1150 H   0  0  0  0  0  0  0  0  0  0  0  0
   50.5700   31.7700   38.2000 C   0  0  0  0  0  0  0  0  0  0  0  0
   50.0960   31.1580   39.3320 C   0  0  0  0  0  0  0  0  0  0  0  0
   45.4670   32.9840   41.1130 Cl  0  0  0  0  0  0  0  0  0  0  0  0
   46.8320   34.0750   41.0470 C   0  0  0  0  0  0  0  0  0  0  0  0
   47.1640   34.9000   42.0860 C   0  0  0  0  0  0  0  0  0  0  0  0
   48.2510   35.7000   41.9040 C   0  0  0  0  0  0  0  0  0  0  0  0
   48.9810   35.7020   40.7740 C   0  0  0  0  0  0  0  0  0  0  0  0
   48.6600   34.8780   39.7200 C   0  0  0  0  0  0  0  0  0  0  0  0
   47.5510   34.0500   39.8840 C   0  0  0  0  0  0  0  0  0  0  0  0
   48.5410   36.3680   42.7100 H   0  0  0  0  0  0  0  0  0  0  0  0
   49.8610   36.3280   40.5840 H   0  0  0  0  0  0  0  0  0  0  0  0
   49.2120   34.8380   38.7880 H   0  0  0  0  0  0  0  0  0  0  0  0
   44.5240   35.6700   44.6850 C   0  0  0  0  0  0  0  0  0  0  0  0
   45.3070   35.7370   43.5260 C   0  0  0  0  0  0  0  0  0  0  0  0
   46.3440   34.8530   43.2720 C   0  0  0  0  0  0  0  0  0  0  0  0
   46.5340   33.9140   44.2440 N   0  0  0  0  0  0  0  0  0  0  0  0
   45.7850   33.8500   45.3530 C   0  0  0  0  0  0  0  0  0  0  0  0
   44.7890   34.7180   45.5750 N   0  0  0  0  0  0  0  0  0  0  0  0
   43.7420   36.4300   44.7550 H   0  0  0  0  0  0  0  0  0  0  0  0
   45.1370   36.4910   42.7680 H   0  0  0  0  0  0  0  0  0  0  0  0
   46.0270   33.0550   46.0670 H   0  0  0  0  0  0  0  0  0  0  0  0
  1 27  1  0  0  0  0
  2  1  2  0  0  0  0
  2  9  1  0  0  0  0
  3  2  1  0  0  0  0
  4  3  1  0  0  0  0
  4  5  2  0  0  0  0
  5  1  1  0  0  0  0
  6  4  1  0  0  0  0
  7  6  1  0  0  0  0
  8  6  1  0  0  0  0
  9 10  1  0  0  0  0
 10 11  2  0  0  0  0
 12 11  1  0  0  0  0
 13 12  2  0  0  0  0
 14 13  1  0  0  0  0
 15 14  2  0  0  0  0
 16 15  1  0  0  0  0
 17 19  2  0  0  0  0
 17 15  1  0  0  0  0
 18 17  1  0  0  0  0
 19 20  1  0  0  0  0
 20  9  2  0  0  0  0
 20 13  1  0  0  0  0
 22 21  1  0  0  0  0
 22 23  1  0  0  0  0
 23 33  1  0  0  0  0
 24 23  2  0  0  0  0
 24 28  1  0  0  0  0
 25 24  1  0  0  0  0
 26 27  1  0  0  0  0
 26 25  2  0  0  0  0
 27 22  2  0  0  0  0
 29 25  1  0  0  0  0
 30 26  1  0  0  0  0
 31 37  1  0  0  0  0
 31 36  1  0  0  0  0
 32 31  2  0  0  0  0
 33 32  1  0  0  0  0
 33 34  2  0  0  0  0
 34 35  1  0  0  0  0
 35 36  2  0  0  0  0
 35 39  1  0  0  0  0
 38 32  1  0  0  0  0
M  END
>  <minimizedAffinity>
-6.60482216

>  <minimizedRMSD>
1.51401532

$$$$
