
     RDKit          3D

 49 54  0  0  0  0  0  0  0  0999 V2000
   46.1416   32.6668   46.9421 C   0  0  0  0  0  0  0  0  0  0  0  0
   47.2527   31.8858   47.0599 C   0  0  0  0  0  0  0  0  0  0  0  0
   47.4625   31.0505   48.1357 C   0  0  0  0  0  0  0  0  0  0  0  0
   46.5126   30.9802   49.1647 C   0  0  0  0  0  0  0  0  0  0  0  0
   45.3989   31.7422   49.0755 C   0  0  0  0  0  0  0  0  0  0  0  0
   45.2231   32.5708   47.9788 C   0  0  0  0  0  0  0  0  0  0  0  0
   44.7305   35.3325   44.8893 C   0  0  0  0  0  0  0  0  0  0  0  0
   45.4548   35.2563   43.6997 C   0  0  0  0  0  0  0  0  0  0  0  0
   46.4486   34.2741   43.6011 C   0  0  0  0  0  0  0  0  0  0  0  0
   46.6688   33.4371   44.6564 N   0  0  0  0  0  0  0  0  0  0  0  0
   45.9282   33.5501   45.8080 C   0  0  0  0  0  0  0  0  0  0  0  0
   44.9764   34.4909   45.9052 N   0  0  0  0  0  0  0  0  0  0  0  0
   48.9678   30.0800   48.1836 S   0  0  0  0  0  0  0  0  0  0  0  0
   49.9094   30.5178   49.6155 C   0  0  0  0  0  0  0  0  0  0  0  0
   50.1263   31.8008   50.0258 N   0  0  0  0  0  0  0  0  0  0  0  0
   50.8471   32.1096   51.1070 C   0  0  0  0  0  0  0  0  0  0  0  0
   51.3812   31.1069   51.8226 N   0  0  0  0  0  0  0  0  0  0  0  0
   51.2216   29.8177   51.4967 C   0  0  0  0  0  0  0  0  0  0  0  0
   51.7791   28.7741   52.2104 C   0  0  0  0  0  0  0  0  0  0  0  0
   51.5948   27.4622   51.8101 C   0  0  0  0  0  0  0  0  0  0  0  0
   50.8434   27.1299   50.6772 C   0  0  0  0  0  0  0  0  0  0  0  0
   50.3016   28.2050   49.9933 C   0  0  0  0  0  0  0  0  0  0  0  0
   50.4730   29.5116   50.3723 C   0  0  0  0  0  0  0  0  0  0  0  0
   48.0041   31.9249   46.2576 H   0  0  0  0  0  0  0  0  0  0  0  0
   46.6660   30.3380   49.9984 H   0  0  0  0  0  0  0  0  0  0  0  0
   44.6219   31.7361   49.8387 H   0  0  0  0  0  0  0  0  0  0  0  0
   44.3283   33.1753   47.9195 H   0  0  0  0  0  0  0  0  0  0  0  0
   43.9788   36.1176   44.8998 H   0  0  0  0  0  0  0  0  0  0  0  0
   45.3577   35.8673   42.8069 H   0  0  0  0  0  0  0  0  0  0  0  0
   47.0875   34.0974   42.7350 H   0  0  0  0  0  0  0  0  0  0  0  0
   50.9906   33.1297   51.3873 H   0  0  0  0  0  0  0  0  0  0  0  0
   52.3502   29.0469   53.0735 H   0  0  0  0  0  0  0  0  0  0  0  0
   52.0978   26.7457   52.4652 H   0  0  0  0  0  0  0  0  0  0  0  0
   50.8105   26.0793   50.5203 H   0  0  0  0  0  0  0  0  0  0  0  0
   49.4712   27.6411   48.9378 C   0  0  0  0  0  0  0  0  0  0  0  0
   48.2365   27.0520   48.9259 N   0  0  0  0  0  0  0  0  0  0  0  0
   47.7107   26.6260   47.7484 C   0  0  0  0  0  0  0  0  0  0  0  0
   48.3221   26.7377   46.5440 N   0  0  0  0  0  0  0  0  0  0  0  0
   49.5388   27.3127   46.5057 C   0  0  0  0  0  0  0  0  0  0  0  0
   50.1244   27.4317   45.2767 C   0  0  0  0  0  0  0  0  0  0  0  0
   51.3471   28.0233   45.1641 C   0  0  0  0  0  0  0  0  0  0  0  0
   51.8402   28.1399   44.2199 H   0  0  0  0  0  0  0  0  0  0  0  0
   52.0013   28.5042   46.2862 C   0  0  0  0  0  0  0  0  0  0  0  0
   52.9634   28.9778   46.2398 H   0  0  0  0  0  0  0  0  0  0  0  0
   51.3447   28.3442   47.4842 C   0  0  0  0  0  0  0  0  0  0  0  0
   50.1059   27.7589   47.6926 C   0  0  0  0  0  0  0  0  0  0  0  0
   46.7153   26.1771   47.9280 H   0  0  0  0  0  0  0  0  0  0  0  0
   49.6743   27.0816   44.3701 H   0  0  0  0  0  0  0  0  0  0  0  0
   51.8762   28.7376   48.3503 H   0  0  0  0  0  0  0  0  0  0  0  0
  1  2  2  0
  1  6  1  0
  2  3  1  0
  3 13  1  0
  3  4  2  0
  5  4  1  0
  6  5  2  0
  7 12  2  0
  8  7  1  0
  9  8  2  0
  9 10  1  0
 10 11  2  0
 11 12  1  0
 11  1  1  0
 13 14  1  0
 14 15  2  0
 14 23  1  0
 15 16  1  0
 16 17  2  0
 18 17  1  0
 18 19  2  0
 20 19  1  0
 21 20  2  0
 22 23  2  0
 22 21  1  0
 23 18  1  0
  2 24  1  0
  4 25  1  0
  5 26  1  0
  6 27  1  0
  7 28  1  0
  8 29  1  0
  9 30  1  0
 16 31  1  0
 19 32  1  0
 20 33  1  0
 21 34  1  0
 35 36  2  0
 36 37  1  0
 37 38  2  0
 38 39  1  0
 39 40  2  0
 40 41  1  0
 41 42  1  0
 41 43  2  0
 43 44  1  0
 43 45  1  0
 45 46  2  0
 46 35  1  0
 46 39  1  0
 37 47  1  0
 40 48  1  0
 45 49  1  0
 22 35  1  0
M  ISO  8  24  14  25  14  26  14  27  14  28  14  29  14  30  14  31  14
M  ISO  5  32  14  33  14  34  14  42  16  44  16
M  END
>  <DihAtoms>  (1) 
22,21,34,35

>  <DihDeg>  (1) 
-68.78542119384937

$$$$
