
 OpenBabel03252506103D

 33 36  0  0  0  0  0  0  0  0999 V2000
   45.1080   33.3040   41.1530 F   0  0  0  0  0  0  0  0  0  0  0  0
   46.2820   33.9150   40.9620 C   0  0  0  0  0  0  0  0  0  0  0  0
   46.7920   34.7400   41.9430 C   0  0  0  0  0  0  0  0  0  0  0  0
   47.9990   35.4110   41.8270 C   0  0  0  0  0  0  0  0  0  0  0  0
   48.7490   35.2540   40.6630 C   0  0  0  0  0  0  0  0  0  0  0  0
   48.2050   34.4190   39.7010 C   0  0  0  0  0  0  0  0  0  0  0  0
   47.0120   33.7470   39.8000 C   0  0  0  0  0  0  0  0  0  0  0  0
   48.3390   36.0450   42.6360 H   0  0  0  0  0  0  0  0  0  0  0  0
   49.6960   35.7620   40.5370 H   0  0  0  0  0  0  0  0  0  0  0  0
   48.8400   34.3320   38.8140 H   0  0  0  0  0  0  0  0  0  0  0  0
   46.5210   32.8760   38.7320 C   0  0  0  0  0  0  0  0  0  0  0  0
   45.9370   33.5470   37.7000 N   0  0  0  0  0  0  0  0  0  0  0  0
   45.4410   32.8560   36.6430 C   0  0  0  0  0  3  0  0  0  0  0  0
   45.5260   31.4970   36.6110 N   0  0  0  0  0  0  0  0  0  0  0  0
   46.0950   30.8040   37.6090 C   0  0  0  0  0  0  0  0  0  0  0  0
   46.2020   29.4260   37.6070 C   0  0  0  0  0  3  0  0  0  0  0  0
   46.8000   28.7470   38.6540 C   0  0  0  0  0  0  0  0  0  0  0  0
   46.9120   27.6890   38.7100 H   0  0  0  0  0  0  0  0  0  0  0  0
   47.2860   29.5080   39.7020 C   0  0  0  0  0  0  0  0  0  0  0  0
   47.7650   28.9990   40.5460 H   0  0  0  0  0  0  0  0  0  0  0  0
   47.2160   30.8980   39.7770 C   0  0  0  0  0  3  0  0  0  0  0  0
   46.6050   31.4820   38.6920 C   0  0  0  0  0  0  0  0  0  0  0  0
   45.4620   34.2180   45.3470 C   0  0  0  0  0  0  0  0  0  0  0  0
   44.6100   35.3280   45.4900 C   0  0  0  0  0  0  0  0  0  0  0  0
   44.4950   36.2540   44.4200 C   0  0  0  0  0  0  0  0  0  0  0  0
   45.2330   35.9930   43.3040 N   0  0  0  0  0  0  0  0  0  0  0  0
   46.0320   34.9370   43.1930 C   0  0  0  0  0  0  0  0  0  0  0  0
   46.1410   34.0640   44.2040 N   0  0  0  0  0  0  0  0  0  0  0  0
   44.0510   35.4720   46.4050 H   0  0  0  0  0  0  0  0  0  0  0  0
   43.8570   37.1070   44.4990 H   0  0  0  0  0  0  0  0  0  0  0  0
   45.5770   33.3020   46.4070 N   0  0  0  0  0  0  0  0  0  0  0  0
   46.4270   32.7900   46.7450 H   0  0  0  0  0  0  0  0  0  0  0  0
   44.8420   32.9550   47.0620 H   0  0  0  0  0  0  0  0  0  0  0  0
  2  1  1  0  0  0  0
  2  3  1  0  0  0  0
  3 27  1  0  0  0  0
  4  3  2  0  0  0  0
  4  8  1  0  0  0  0
  5  4  1  0  0  0  0
  6  7  1  0  0  0  0
  6  5  2  0  0  0  0
  7  2  2  0  0  0  0
  9  5  1  0  0  0  0
 10  6  1  0  0  0  0
 11  7  1  0  0  0  0
 12 11  2  0  0  0  0
 13 12  1  0  0  0  0
 14 13  2  0  0  0  0
 14 15  1  0  0  0  0
 15 22  1  0  0  0  0
 16 15  2  0  0  0  0
 16 17  1  0  0  0  0
 17 18  1  0  0  0  0
 17 19  2  0  0  0  0
 19 21  1  0  0  0  0
 19 20  1  0  0  0  0
 22 11  1  0  0  0  0
 22 21  2  0  0  0  0
 23 24  1  0  0  0  0
 23 31  1  0  0  0  0
 24 29  1  0  0  0  0
 25 30  1  0  0  0  0
 25 24  2  0  0  0  0
 26 25  1  0  0  0  0
 27 26  2  0  0  0  0
 27 28  1  0  0  0  0
 28 23  2  0  0  0  0
 31 32  1  0  0  0  0
 31 33  1  0  0  0  0
M  END
>  <minimizedAffinity>
-5.93994808

>  <minimizedRMSD>
0.548374772

$$$$
