
 OpenBabel03252509243D

 30 33  0  0  1  0  0  0  0  0999 V2000
   46.4220   34.9760   41.9810 C   0  0  1  0  0  0  0  0  0  0  0  0
   47.9570   35.1470   41.8440 C   0  0  0  0  0  0  0  0  0  0  0  0
   47.1080   33.9820   41.2400 C   0  0  2  0  0  0  0  0  0  0  0  0
   45.8500   35.8060   41.5310 H   0  0  0  0  0  0  0  0  0  0  0  0
   48.6040   34.9010   42.6800 H   0  0  0  0  0  0  0  0  0  0  0  0
   48.2680   35.9270   41.1540 H   0  0  0  0  0  0  0  0  0  0  0  0
   47.3170   32.9940   41.7440 H   0  0  0  0  0  0  0  0  0  0  0  0
   47.2080   33.8990   39.7820 C   0  0  0  0  0  0  0  0  0  0  0  0
   48.2670   34.4950   39.1830 N   0  0  0  0  0  0  0  0  0  0  0  0
   48.3730   34.4270   37.8390 C   0  0  0  0  0  3  0  0  0  0  0  0
   47.4810   33.7960   37.0340 N   0  0  0  0  0  0  0  0  0  0  0  0
   46.4070   33.1870   37.5950 C   0  0  0  0  0  0  0  0  0  0  0  0
   45.4450   32.5180   36.8670 C   0  0  0  0  0  3  0  0  0  0  0  0
   44.3620   31.9050   37.4620 C   0  0  0  0  0  0  0  0  0  0  0  0
   43.6060   31.3810   36.8980 H   0  0  0  0  0  0  0  0  0  0  0  0
   44.2430   31.9690   38.8410 C   0  0  0  0  0  0  0  0  0  0  0  0
   43.3970   31.4890   39.3070 H   0  0  0  0  0  0  0  0  0  0  0  0
   45.2150   32.6400   39.5390 C   0  0  0  0  0  3  0  0  0  0  0  0
   46.3040   33.2570   38.9620 C   0  0  0  0  0  0  0  0  0  0  0  0
   44.7670   35.1070   45.3560 C   0  0  0  0  0  0  0  0  0  0  0  0
   45.0980   35.4740   44.0260 C   0  0  0  0  0  0  0  0  0  0  0  0
   46.0610   34.7010   43.4230 C   0  0  0  0  0  0  0  0  0  0  0  0
   46.6500   33.6390   44.0980 N   0  0  0  0  0  0  0  0  0  0  0  0
   46.3020   33.3310   45.3540 C   0  0  0  0  0  0  0  0  0  0  0  0
   45.3520   34.0760   45.9830 N   0  0  0  0  0  0  0  0  0  0  0  0
   44.0070   35.7020   45.8560 H   0  0  0  0  0  0  0  0  0  0  0  0
   46.8280   32.4970   45.7570 H   0  0  0  0  0  0  0  0  0  0  0  0
   44.5080   36.5860   43.3470 N   0  0  0  0  0  0  0  0  0  0  0  0
   45.2370   37.3010   43.5890 H   0  0  0  0  0  0  0  0  0  0  0  0
   43.6180   36.5910   42.7990 H   0  0  0  0  0  0  0  0  0  0  0  0
  1  4  1  6  0  0  0
  1 22  1  0  0  0  0
  2  1  1  0  0  0  0
  2  5  1  0  0  0  0
  3  7  1  1  0  0  0
  3  2  1  0  0  0  0
  3  1  1  0  0  0  0
  6  2  1  0  0  0  0
  8  3  1  0  0  0  0
  9  8  1  0  0  0  0
 10  9  2  0  0  0  0
 11 12  2  0  0  0  0
 11 10  1  0  0  0  0
 12 19  1  0  0  0  0
 13 14  2  0  0  0  0
 13 12  1  0  0  0  0
 14 16  1  0  0  0  0
 15 14  1  0  0  0  0
 16 17  1  0  0  0  0
 16 18  2  0  0  0  0
 19 18  1  0  0  0  0
 19  8  2  0  0  0  0
 20 26  1  0  0  0  0
 20 25  1  0  0  0  0
 21 20  2  0  0  0  0
 22 21  1  0  0  0  0
 22 23  2  0  0  0  0
 23 24  1  0  0  0  0
 24 27  1  0  0  0  0
 24 25  2  0  0  0  0
 28 29  1  0  0  0  0
 28 21  1  0  0  0  0
 30 28  1  0  0  0  0
M  END
>  <minimizedAffinity>
-5.72356939

>  <minimizedRMSD>
0.551491022

$$$$
