
 OpenBabel03252500033D

 42 46  0  0  0  0  0  0  0  0999 V2000
   44.5770   34.1120   44.3720 C   0  0  0  0  0  0  0  0  0  0  0  0
   44.7100   33.3730   43.1960 C   0  0  0  0  0  0  0  0  0  0  0  0
   45.5240   32.2340   43.2040 C   0  0  0  0  0  0  0  0  0  0  0  0
   46.1300   31.9410   44.3970 N   0  0  0  0  0  0  0  0  0  0  0  0
   45.9760   32.6730   45.5010 C   0  0  0  0  0  0  0  0  0  0  0  0
   45.2020   33.7460   45.4700 N   0  0  0  0  0  0  0  0  0  0  0  0
   43.9370   34.9640   44.2750 H   0  0  0  0  0  0  0  0  0  0  0  0
   45.7650   31.3680   42.0970 C   0  0  0  0  0  0  0  0  0  0  0  0
   46.6530   31.8340   41.1350 C   0  0  0  0  0  0  0  0  0  0  0  0
   47.0020   31.1250   39.9980 C   0  0  0  0  0  0  0  0  0  0  0  0
   46.4620   29.8850   39.7670 C   0  0  0  0  0  0  0  0  0  0  0  0
   45.5750   29.3810   40.6960 C   0  0  0  0  0  0  0  0  0  0  0  0
   44.9980   28.1480   40.5350 C   0  0  0  0  0  0  0  0  0  0  0  0
   44.1150   27.6040   41.4260 C   0  0  0  0  0  0  0  0  0  0  0  0
   43.8120   28.3700   42.5410 C   0  0  0  0  0  0  0  0  0  0  0  0
   44.4100   29.6120   42.6780 C   0  0  0  0  0  0  0  0  0  0  0  0
   45.2770   30.1330   41.7940 C   0  0  0  0  0  0  0  0  0  0  0  0
   47.1420   32.8000   41.2110 H   0  0  0  0  0  0  0  0  0  0  0  0
   47.6960   31.5110   39.2630 H   0  0  0  0  0  0  0  0  0  0  0  0
   46.7390   29.3420   38.8800 H   0  0  0  0  0  0  0  0  0  0  0  0
   45.2830   27.5980   39.6310 H   0  0  0  0  0  0  0  0  0  0  0  0
   43.6840   26.6170   41.2470 H   0  0  0  0  0  0  0  0  0  0  0  0
   43.1080   27.9150   43.2340 H   0  0  0  0  0  0  0  0  0  0  0  0
   43.9770   30.2530   43.8800 N   0  0  0  0  0  0  0  0  0  0  0  0
   43.1940   30.8990   44.1170 H   0  0  0  0  0  0  0  0  0  0  0  0
   44.3070   30.2540   44.8650 H   0  0  0  0  0  0  0  0  0  0  0  0
   44.0960   33.6310   41.8950 C   0  0  0  0  0  0  0  0  0  0  0  0
   44.6070   34.4830   40.9890 N   0  0  0  0  0  0  0  0  0  0  0  0
   44.0890   34.7520   39.7940 C   0  0  0  0  0  3  0  0  0  0  0  0
   42.9470   34.1400   39.4100 N   0  0  0  0  0  0  0  0  0  0  0  0
   42.4010   33.2780   40.2870 C   0  0  0  0  0  0  0  0  0  0  0  0
   41.2230   32.6650   39.8570 C   0  0  0  0  0  3  0  0  0  0  0  0
   40.6070   31.7690   40.7030 C   0  0  0  0  0  0  0  0  0  0  0  0
   39.6940   31.2890   40.3770 H   0  0  0  0  0  0  0  0  0  0  0  0
   41.1320   31.4720   41.9570 C   0  0  0  0  0  0  0  0  0  0  0  0
   40.6500   30.7690   42.6220 H   0  0  0  0  0  0  0  0  0  0  0  0
   42.3040   32.0840   42.3810 C   0  0  0  0  0  3  0  0  0  0  0  0
   42.9280   32.9840   41.5390 C   0  0  0  0  0  0  0  0  0  0  0  0
   46.7430   32.1450   46.6760 C   0  0  0  0  0  0  0  0  0  0  0  0
   46.0680   32.3310   47.8500 F   0  0  0  0  0  0  0  0  0  0  0  0
   48.0080   32.7090   46.7180 F   0  0  0  0  0  0  0  0  0  0  0  0
   46.9960   30.7670   46.4570 F   0  0  0  0  0  0  0  0  0  0  0  0
  1  6  1  0  0  0  0
  2  3  1  0  0  0  0
  2  1  2  0  0  0  0
  3  4  2  0  0  0  0
  4  5  1  0  0  0  0
  5 39  1  0  0  0  0
  6  5  2  0  0  0  0
  7  1  1  0  0  0  0
  8  3  1  0  0  0  0
  9 18  1  0  0  0  0
  9  8  2  0  0  0  0
 10  9  1  0  0  0  0
 11 10  2  0  0  0  0
 11 12  1  0  0  0  0
 12 17  1  0  0  0  0
 13 12  2  0  0  0  0
 13 14  1  0  0  0  0
 14 15  2  0  0  0  0
 15 16  1  0  0  0  0
 15 23  1  0  0  0  0
 16 24  1  0  0  0  0
 17  8  1  0  0  0  0
 17 16  2  0  0  0  0
 19 10  1  0  0  0  0
 20 11  1  0  0  0  0
 21 13  1  0  0  0  0
 22 14  1  0  0  0  0
 24 25  1  0  0  0  0
 24 26  1  0  0  0  0
 27  2  1  0  0  0  0
 28 27  2  0  0  0  0
 29 28  1  0  0  0  0
 30 29  2  0  0  0  0
 30 31  1  0  0  0  0
 31 38  1  0  0  0  0
 32 31  2  0  0  0  0
 32 33  1  0  0  0  0
 33 35  2  0  0  0  0
 34 33  1  0  0  0  0
 35 37  1  0  0  0  0
 35 36  1  0  0  0  0
 38 27  1  0  0  0  0
 38 37  2  0  0  0  0
 39 41  1  0  0  0  0
 39 40  1  0  0  0  0
 42 39  1  0  0  0  0
M  END
>  <minimizedAffinity>
-2.44501495

>  <minimizedRMSD>
3.95536232

$$$$
