
 OpenBabel03252509233D

 30 33  0  0  1  0  0  0  0  0999 V2000
   46.3480   34.7890   42.0370 C   0  0  1  0  0  0  0  0  0  0  0  0
   47.8850   34.9940   42.0120 C   0  0  0  0  0  0  0  0  0  0  0  0
   47.1260   33.6980   41.5780 C   0  0  2  0  0  0  0  0  0  0  0  0
   45.8040   35.4890   41.3780 H   0  0  0  0  0  0  0  0  0  0  0  0
   48.4490   34.9460   42.9370 H   0  0  0  0  0  0  0  0  0  0  0  0
   48.2450   35.6350   41.2110 H   0  0  0  0  0  0  0  0  0  0  0  0
   47.3070   32.8390   42.2870 H   0  0  0  0  0  0  0  0  0  0  0  0
   47.3730   33.3330   40.1820 C   0  0  0  0  0  0  0  0  0  0  0  0
   48.6590   33.1740   39.7850 N   0  0  0  0  0  0  0  0  0  0  0  0
   48.9040   32.8390   38.5000 C   0  0  0  0  0  3  0  0  0  0  0  0
   47.9390   32.6470   37.5650 N   0  0  0  0  0  0  0  0  0  0  0  0
   46.6400   32.7960   37.9230 C   0  0  0  0  0  0  0  0  0  0  0  0
   45.5850   32.6230   37.0500 C   0  0  0  0  0  3  0  0  0  0  0  0
   44.2710   32.7810   37.4380 C   0  0  0  0  0  0  0  0  0  0  0  0
   43.4420   32.6470   36.7600 H   0  0  0  0  0  0  0  0  0  0  0  0
   44.0080   33.1250   38.7550 C   0  0  0  0  0  0  0  0  0  0  0  0
   42.9820   33.2470   39.0590 H   0  0  0  0  0  0  0  0  0  0  0  0
   45.0770   33.2900   39.6000 C   0  0  0  0  0  3  0  0  0  0  0  0
   46.3960   33.1370   39.2300 C   0  0  0  0  0  0  0  0  0  0  0  0
   44.5210   35.6760   45.2030 C   0  0  0  0  0  0  0  0  0  0  0  0
   44.9980   35.7870   43.8710 C   0  0  0  0  0  0  0  0  0  0  0  0
   45.8500   34.7890   43.4650 C   0  0  0  0  0  0  0  0  0  0  0  0
   46.2030   33.7560   44.3250 N   0  0  0  0  0  0  0  0  0  0  0  0
   45.7260   33.6950   45.5740 C   0  0  0  0  0  0  0  0  0  0  0  0
   44.8780   34.6670   46.0110 N   0  0  0  0  0  0  0  0  0  0  0  0
   43.8440   36.4520   45.5500 H   0  0  0  0  0  0  0  0  0  0  0  0
   46.0730   32.8550   46.1290 H   0  0  0  0  0  0  0  0  0  0  0  0
   44.6530   36.8670   43.0000 N   0  0  0  0  0  0  0  0  0  0  0  0
   45.4770   37.4840   43.2100 H   0  0  0  0  0  0  0  0  0  0  0  0
   43.8150   36.9360   42.3800 H   0  0  0  0  0  0  0  0  0  0  0  0
  1  4  1  6  0  0  0
  1 22  1  0  0  0  0
  2  1  1  0  0  0  0
  2  5  1  0  0  0  0
  3  2  1  0  0  0  0
  3  1  1  0  0  0  0
  3  7  1  1  0  0  0
  6  2  1  0  0  0  0
  8  3  1  0  0  0  0
  9  8  1  0  0  0  0
 10  9  2  0  0  0  0
 11 12  2  0  0  0  0
 11 10  1  0  0  0  0
 12 19  1  0  0  0  0
 13 14  2  0  0  0  0
 13 12  1  0  0  0  0
 14 16  1  0  0  0  0
 15 14  1  0  0  0  0
 16 17  1  0  0  0  0
 16 18  2  0  0  0  0
 19 18  1  0  0  0  0
 19  8  2  0  0  0  0
 20 26  1  0  0  0  0
 20 25  1  0  0  0  0
 21 20  2  0  0  0  0
 22 21  1  0  0  0  0
 22 23  2  0  0  0  0
 23 24  1  0  0  0  0
 24 25  2  0  0  0  0
 24 27  1  0  0  0  0
 28 29  1  0  0  0  0
 28 21  1  0  0  0  0
 30 28  1  0  0  0  0
M  END
>  <minimizedAffinity>
-5.22741795

>  <minimizedRMSD>
0.790548921

$$$$
