REMARK  Name = 
REMARK  6 active torsions:
REMARK  status: ('A' for Active; 'I' for Inactive)
REMARK    1  A    between atoms: C_1  and  C_7
REMARK    2  A    between atoms: C_2  and  C_15
REMARK    3  A    between atoms: C_5  and  C_9
REMARK    4  A    between atoms: C_15  and  C_16
REMARK    5  A    between atoms: C_18  and  C_19
REMARK    6  A    between atoms: C_21  and  C_41
REMARK                            x       y       z     vdW  Elec       q    Type
REMARK                         _______ _______ _______ _____ _____    ______ ____
ROOT
ATOM      1  C   UNL     1      45.896  31.495  48.252  0.00  0.00    +0.000 C 
ATOM      2  C   UNL     1      45.711  30.522  49.365  0.00  0.00    +0.000 C 
ATOM      3  C   UNL     1      46.923  31.332  49.297  0.00  0.00    +0.000 C 
ATOM      4  H   UNL     1      45.075  32.270  48.298  0.00  0.00    +0.000 HD
ATOM      5  H   UNL     1      45.820  29.434  49.139  0.00  0.00    +0.000 HD
ATOM      6  H   UNL     1      44.999  30.700  50.196  0.00  0.00    +0.000 HD
ATOM      7  H   UNL     1      47.004  32.167  50.024  0.00  0.00    +0.000 HD
ENDROOT
BRANCH   3   8
ATOM      8  C   UNL     1      48.244  30.749  48.903  0.00  0.00    +0.000 C 
ATOM      9  C   UNL     1      49.164  30.474  50.120  0.00  0.00    +0.000 C 
ATOM     10  C   UNL     1      49.496  31.574  49.190  0.00  0.00    +0.000 C 
ATOM     11  H   UNL     1      48.310  29.911  48.188  0.00  0.00    +0.000 HD
ATOM     12  H   UNL     1      48.822  30.799  51.120  0.00  0.00    +0.000 HD
ATOM     13  H   UNL     1      49.768  29.572  50.156  0.00  0.00    +0.000 HD
ATOM     14  H   UNL     1      49.311  32.627  49.499  0.00  0.00    +0.000 HD
BRANCH  10  15
ATOM     15  C   UNL     1      50.695  31.328  48.347  0.00  0.00    +0.000 A 
ATOM     16  N   UNL     1      51.438  32.323  47.824  0.00  0.00    +0.000 NA
ATOM     17  C   UNL     1      52.521  32.150  47.063  0.00  0.00    +0.000 A 
ATOM     18  N   UNL     1      52.948  30.890  46.763  0.00  0.00    +0.000 NA
ATOM     19  C   UNL     1      52.237  29.848  47.263  0.00  0.00    +0.000 A 
ATOM     20  C   UNL     1      52.707  28.593  46.933  0.00  0.00    +0.000 A 
ATOM     21  C   UNL     1      51.994  27.500  47.435  0.00  0.00    +0.000 A 
ATOM     22  H   UNL     1      52.392  26.530  47.155  0.00  0.00    +0.000 HD
ATOM     23  C   UNL     1      50.873  27.669  48.223  0.00  0.00    +0.000 A 
ATOM     24  H   UNL     1      50.364  26.763  48.581  0.00  0.00    +0.000 HD
ATOM     25  C   UNL     1      50.416  28.936  48.544  0.00  0.00    +0.000 A 
ATOM     26  C   UNL     1      51.117  30.040  48.050  0.00  0.00    +0.000 A 
ENDBRANCH  10  15
ENDBRANCH   3   8
BRANCH   1  27
ATOM     27  C   UNL     1      46.102  30.893  46.902  0.00  0.00    +0.000 C 
ATOM     28  H   UNL     1      47.071  30.466  46.683  0.00  0.00    +0.000 HD
ATOM     29  H   UNL     1      45.356  30.068  46.706  0.00  0.00    +0.000 HD
BRANCH  27  31
ATOM     30  C   UNL     1      45.766  33.130  46.230  0.00  0.00    +0.000 C 
ATOM     31  C   UNL     1      45.917  31.940  45.826  0.00  0.00    +0.000 C 
BRANCH  30  36
ATOM     32  C   UNL     1      44.540  36.145  44.494  0.00  0.00    +0.000 A 
ATOM     33  C   UNL     1      45.212  36.096  43.276  0.00  0.00    +0.000 A 
ATOM     34  C   UNL     1      46.045  35.049  43.095  0.00  0.00    +0.000 A 
ATOM     35  N   UNL     1      46.201  34.105  44.067  0.00  0.00    +0.000 NA
ATOM     36  C   UNL     1      45.533  34.183  45.237  0.00  0.00    +0.000 A 
ATOM     37  N   UNL     1      44.719  35.205  45.416  0.00  0.00    +0.000 NA
ATOM     38  H   UNL     1      43.862  36.978  44.667  0.00  0.00    +0.000 HD
ATOM     39  H   UNL     1      45.099  36.828  42.508  0.00  0.00    +0.000 HD
BRANCH  34  40
ATOM     40  C   UNL     1      46.818  34.862  41.868  0.00  0.00    +0.000 A 
ATOM     41  C   UNL     1      48.050  35.411  41.630  0.00  0.00    +0.000 A 
ATOM     42  C   UNL     1      48.771  35.227  40.468  0.00  0.00    +0.000 A 
ATOM     43  C   UNL     1      48.245  34.444  39.459  0.00  0.00    +0.000 A 
ATOM     44  C   UNL     1      47.016  33.869  39.642  0.00  0.00    +0.000 A 
ATOM     45  C   UNL     1      46.328  34.082  40.826  0.00  0.00    +0.000 A 
ATOM     46  H   UNL     1      48.484  36.037  42.421  0.00  0.00    +0.000 HD
ATOM     47  H   UNL     1      49.736  35.705  40.379  0.00  0.00    +0.000 HD
ATOM     48  H   UNL     1      48.833  34.320  38.565  0.00  0.00    +0.000 HD
ATOM     49  H   UNL     1      46.609  33.258  38.849  0.00  0.00    +0.000 HD
ATOM     50  H   UNL     1      45.364  33.595  40.894  0.00  0.00    +0.000 HD
ENDBRANCH  34  40
ENDBRANCH  30  36
ENDBRANCH  27  31
ENDBRANCH   1  27
TORSDOF 6
