
 OpenBabel03252506563D

 41 46  0  0  0  0  0  0  0  0999 V2000
   47.4310   31.3660   45.2580 C   0  0  0  0  0  0  0  0  0  0  0  0
   46.9280   32.6440   45.1170 C   0  0  0  0  0  0  0  0  0  0  0  0
   46.2020   33.2670   46.1140 C   0  0  0  0  0  0  0  0  0  0  0  0
   45.9520   32.6000   47.3220 C   0  0  0  0  0  0  0  0  0  0  0  0
   45.3030   32.8830   48.4840 N   0  0  0  0  0  0  0  0  0  0  0  0
   45.4110   31.8060   49.3060 C   0  0  0  0  0  0  0  0  0  0  0  0
   46.1250   30.8750   48.6360 N   0  0  0  0  0  0  0  0  0  0  0  0
   46.4700   31.3310   47.4240 C   0  0  0  0  0  0  0  0  0  0  0  0
   47.1860   30.6920   46.4630 C   0  0  0  0  0  0  0  0  0  0  0  0
   48.0050   30.8720   44.4690 H   0  0  0  0  0  0  0  0  0  0  0  0
   45.8030   34.2640   46.0170 H   0  0  0  0  0  0  0  0  0  0  0  0
   44.8550   33.8050   48.5730 H   0  0  0  0  0  0  0  0  0  0  0  0
   44.9720   31.8050   50.2830 H   0  0  0  0  0  0  0  0  0  0  0  0
   46.5820   35.0940   42.3940 C   0  0  0  0  0  0  0  0  0  0  0  0
   47.6370   34.7570   41.5510 C   0  0  0  0  0  0  0  0  0  0  0  0
   48.4720   33.6840   41.9160 C   0  0  0  0  0  0  0  0  0  0  0  0
   48.1990   33.0280   43.0870 N   0  0  0  0  0  0  0  0  0  0  0  0
   47.1570   33.3860   43.8870 C   0  0  0  0  0  0  0  0  0  0  0  0
   46.3530   34.4120   43.5460 N   0  0  0  0  0  0  0  0  0  0  0  0
   45.9790   35.9220   42.0630 H   0  0  0  0  0  0  0  0  0  0  0  0
   47.8900   35.2360   40.6320 H   0  0  0  0  0  0  0  0  0  0  0  0
   49.3240   33.3090   41.3680 H   0  0  0  0  0  0  0  0  0  0  0  0
   47.7010   29.3290   46.6650 C   0  0  0  0  0  0  0  0  0  0  0  0
   49.0050   28.9410   46.5100 C   0  0  0  0  0  0  0  0  0  0  0  0
   48.9560   27.5720   46.8170 C   0  0  0  0  0  0  0  0  0  0  0  0
   47.6800   27.2020   47.1290 C   0  0  0  0  0  0  0  0  0  0  0  0
   46.9940   28.3130   47.0150 O   0  0  0  0  0  0  0  0  0  0  0  0
   49.8730   29.5140   46.2250 H   0  0  0  0  0  0  0  0  0  0  0  0
   49.8320   26.9960   46.8130 H   0  0  0  0  0  0  0  0  0  0  0  0
   46.9660   26.0060   47.5260 C   0  0  0  0  0  0  0  0  0  0  0  0
   45.9130   26.1000   48.3850 N   0  0  0  0  0  0  0  0  0  0  0  0
   45.2740   25.0600   48.8770 C   0  0  0  0  0  3  0  0  0  0  0  0
   45.5960   23.7890   48.5830 N   0  0  0  0  0  0  0  0  0  0  0  0
   46.6380   23.5730   47.7270 C   0  0  0  0  0  0  0  0  0  0  0  0
   46.9970   22.3150   47.3650 C   0  0  0  0  0  3  0  0  0  0  0  0
   48.0250   22.0690   46.4780 C   0  0  0  0  0  0  0  0  0  0  0  0
   48.2100   21.0330   46.2750 H   0  0  0  0  0  0  0  0  0  0  0  0
   48.6650   23.2050   45.9800 C   0  0  0  0  0  0  0  0  0  0  0  0
   49.4740   22.9730   45.2780 H   0  0  0  0  0  0  0  0  0  0  0  0
   48.2710   24.4600   46.3720 C   0  0  0  0  0  3  0  0  0  0  0  0
   47.2570   24.6990   47.2510 C   0  0  0  0  0  0  0  0  0  0  0  0
  1  9  1  0  0  0  0
  2  1  2  0  0  0  0
  2  3  1  0  0  0  0
  3  4  2  0  0  0  0
  4  8  1  0  0  0  0
  4  5  1  0  0  0  0
  5 12  1  0  0  0  0
  5  6  1  0  0  0  0
  6 13  1  0  0  0  0
  7  6  2  0  0  0  0
  8  7  1  0  0  0  0
  9 23  1  0  0  0  0
  9  8  2  0  0  0  0
 10  1  1  0  0  0  0
 11  3  1  0  0  0  0
 14 19  1  0  0  0  0
 15 16  1  0  0  0  0
 15 14  2  0  0  0  0
 16 17  2  0  0  0  0
 17 18  1  0  0  0  0
 18  2  1  0  0  0  0
 19 18  2  0  0  0  0
 20 14  1  0  0  0  0
 21 15  1  0  0  0  0
 22 16  1  0  0  0  0
 23 27  1  0  0  0  0
 24 23  2  0  0  0  0
 24 25  1  0  0  0  0
 25 26  2  0  0  0  0
 26 30  1  0  0  0  0
 27 26  1  0  0  0  0
 28 24  1  0  0  0  0
 29 25  1  0  0  0  0
 30 31  1  0  0  0  0
 31 32  2  0  0  0  0
 33 32  1  0  0  0  0
 34 33  2  0  0  0  0
 35 34  1  0  0  0  0
 36 35  2  0  0  0  0
 37 36  1  0  0  0  0
 38 40  2  0  0  0  0
 38 36  1  0  0  0  0
 39 38  1  0  0  0  0
 40 41  1  0  0  0  0
 41 30  2  0  0  0  0
 41 34  1  0  0  0  0
M  END
>  <minimizedAffinity>
-5.98037481

>  <minimizedRMSD>
0.985852361

$$$$
