
     RDKit          3D

 26 28  0  0  0  0  0  0  0  0999 V2000
   44.6615   36.0313   44.3294 C   0  0  0  0  0  0  0  0  0  0  0  0
   45.4724   35.5261   43.3176 C   0  0  0  0  0  0  0  0  0  0  0  0
   46.2018   34.3436   43.5163 C   0  0  0  0  0  0  0  0  0  0  0  0
   46.0063   33.8283   44.7305 N   0  0  0  0  0  0  0  0  0  0  0  0
   45.2479   34.2809   45.7071 C   0  0  0  0  0  0  0  0  0  0  0  0
   44.5560   35.4166   45.4974 N   0  0  0  0  0  0  0  0  0  0  0  0
   45.1472   33.6142   46.9437 N   0  0  0  0  0  0  0  0  0  0  0  0
   44.0996   36.9427   44.1758 H   0  0  0  0  0  0  0  0  0  0  0  0
   45.5001   36.0827   42.4090 H   0  0  0  0  0  0  0  0  0  0  0  0
   45.9977   33.0702   47.2529 H   0  0  0  0  0  0  0  0  0  0  0  0
   44.2491   33.6993   47.4693 H   0  0  0  0  0  0  0  0  0  0  0  0
   46.9941   33.9553   42.3672 C   0  0  0  0  0  0  0  0  0  0  0  0
   48.1307   34.5800   42.0344 N   0  0  0  0  0  0  0  0  0  0  0  0
   48.8744   34.2402   40.9835 C   0  0  0  0  0  0  0  0  0  0  0  0
   48.5414   33.2308   40.1610 N   0  0  0  0  0  0  0  0  0  0  0  0
   47.4134   32.5403   40.4128 C   0  0  0  0  0  0  0  0  0  0  0  0
   47.0537   31.5029   39.5832 C   0  0  0  0  0  0  0  0  0  0  0  0
   45.9085   30.7812   39.8158 C   0  0  0  0  0  0  0  0  0  0  0  0
   45.7065   29.9919   39.1199 H   0  0  0  0  0  0  0  0  0  0  0  0
   45.1356   31.1379   40.9120 C   0  0  0  0  0  0  0  0  0  0  0  0
   44.2385   30.5638   41.0844 H   0  0  0  0  0  0  0  0  0  0  0  0
   45.5408   32.1845   41.7107 C   0  0  0  0  0  0  0  0  0  0  0  0
   46.6795   32.9294   41.5097 C   0  0  0  0  0  0  0  0  0  0  0  0
   49.7803   34.8356   40.8267 H   0  0  0  0  0  0  0  0  0  0  0  0
   47.7090   31.2755   38.7373 H   0  0  0  0  0  0  0  0  0  0  0  0
   44.8840   32.3771   42.5192 H   0  0  0  0  0  0  0  0  0  0  0  0
  1  6  2  0
  2  3  2  0
  2  1  1  0
  3  4  1  0
  4  5  2  0
  5  7  1  0
  6  5  1  0
  1  8  1  0
  2  9  1  0
  7 10  1  0
  7 11  1  0
 12 13  2  0
 13 14  1  0
 14 15  2  0
 15 16  1  0
 16 17  2  0
 17 18  1  0
 18 19  1  0
 18 20  2  0
 20 21  1  0
 20 22  1  0
 22 23  2  0
 23 12  1  0
 23 16  1  0
 14 24  1  0
 17 25  1  0
 22 26  1  0
  3 12  1  0
M  ISO  4   8  14   9  14  19  16  21  16
M  END
>  <DihAtoms>  (1) 
1,2,11,12

>  <DihDeg>  (1) 
0.002056354029012325

$$$$
