
 OpenBabel03242522503D

 29 31  0  0  0  0  0  0  0  0999 V2000
   47.5010   32.2550   48.3900 O   0  0  0  0  0  0  0  0  0  0  0  0
   45.4880   30.7280   47.7680 O   0  0  0  0  0  0  0  0  0  0  0  0
   45.8560   32.0590   48.4790 P   0  0  1  0  0  0  0  0  0  0  0  0
   45.3110   31.8680   50.0580 O   0  0  0  0  0  0  0  0  0  0  0  0
   45.3600   30.9210   50.3430 H   0  0  0  0  0  0  0  0  0  0  0  0
   45.0160   33.2960   47.7080 O   0  0  0  0  0  0  0  0  0  0  0  0
   46.7260   33.3880   44.5020 C   0  0  0  0  0  0  0  0  0  0  0  0
   46.3530   32.9930   45.8060 C   0  0  0  0  0  0  0  0  0  0  0  0
   45.3580   33.6990   46.4370 C   0  0  0  0  0  0  0  0  0  0  0  0
   44.7760   34.7480   45.7790 N   0  0  0  0  0  0  0  0  0  0  0  0
   45.1550   35.0950   44.5420 C   0  0  0  0  0  0  0  0  0  0  0  0
   46.1190   34.4310   43.8960 N   0  0  0  0  0  0  0  0  0  0  0  0
   47.4950   32.8950   43.9240 H   0  0  0  0  0  0  0  0  0  0  0  0
   46.9190   32.1590   46.1350 H   0  0  0  0  0  0  0  0  0  0  0  0
   44.6820   35.9220   44.0470 H   0  0  0  0  0  0  0  0  0  0  0  0
   48.5570   31.4800   48.7080 C   0  0  0  0  0  0  0  0  0  0  0  0
   49.4860   32.1580   49.3590 O   0  0  0  0  0  0  0  0  0  0  0  0
   49.0370   30.0410   48.5440 C   0  0  0  0  0  0  0  0  0  0  0  0
   49.6260   29.3790   49.5370 N   0  0  0  0  0  0  0  0  0  0  0  0
   50.0700   28.1510   49.4440 C   0  0  0  0  0  3  0  0  0  0  0  0
   49.9540   27.4700   48.3120 N   0  0  0  0  0  0  0  0  0  0  0  0
   49.3720   28.0830   47.2750 C   0  0  0  0  0  0  0  0  0  0  0  0
   49.2770   27.3670   46.1190 C   0  0  0  0  0  3  0  0  0  0  0  0
   48.7060   27.8830   44.9600 C   0  0  0  0  0  0  0  0  0  0  0  0
   48.6570   27.2750   44.0810 H   0  0  0  0  0  0  0  0  0  0  0  0
   48.2430   29.1950   45.0870 C   0  0  0  0  0  0  0  0  0  0  0  0
   47.8010   29.5610   44.1450 H   0  0  0  0  0  0  0  0  0  0  0  0
   48.3630   29.8740   46.2770 C   0  0  0  0  0  3  0  0  0  0  0  0
   48.9200   29.3530   47.3950 C   0  0  0  0  0  0  0  0  0  0  0  0
  1  3  1  0  0  0  0
  1 16  1  0  0  0  0
  3  2  2  6  0  0  0
  3  4  1  0  0  0  0
  4  5  1  0  0  0  0
  6  3  1  0  0  0  0
  7  8  1  0  0  0  0
  8 14  1  0  0  0  0
  8  9  2  0  0  0  0
  9  6  1  0  0  0  0
 10  9  1  0  0  0  0
 11 10  2  0  0  0  0
 12  7  2  0  0  0  0
 12 11  1  0  0  0  0
 13  7  1  0  0  0  0
 15 11  1  0  0  0  0
 16 17  2  0  0  0  0
 18 16  1  0  0  0  0
 18 19  1  0  0  0  0
 20 19  2  0  0  0  0
 21 20  1  0  0  0  0
 22 29  1  0  0  0  0
 22 21  2  0  0  0  0
 23 22  1  0  0  0  0
 24 26  1  0  0  0  0
 24 23  2  0  0  0  0
 25 24  1  0  0  0  0
 26 28  2  0  0  0  0
 27 26  1  0  0  0  0
 28 29  1  0  0  0  0
 29 18  2  0  0  0  0
M  END
>  <minimizedAffinity>
-4.90867805

>  <minimizedRMSD>
0.389289469

$$$$
