
 OpenBabel03242522503D

 29 31  0  0  0  0  0  0  0  0999 V2000
   47.7540   32.1950   48.5850 O   0  0  0  0  0  0  0  0  0  0  0  0
   45.9630   30.3280   48.3030 O   0  0  0  0  0  0  0  0  0  0  0  0
   46.1350   31.8370   48.6280 P   0  0  1  0  0  0  0  0  0  0  0  0
   45.4700   32.0240   50.1620 O   0  0  0  0  0  0  0  0  0  0  0  0
   45.5860   31.2040   50.7060 H   0  0  0  0  0  0  0  0  0  0  0  0
   45.2510   32.7050   47.4900 O   0  0  0  0  0  0  0  0  0  0  0  0
   47.2730   32.4040   44.4860 C   0  0  0  0  0  0  0  0  0  0  0  0
   46.7090   32.1220   45.7490 C   0  0  0  0  0  0  0  0  0  0  0  0
   45.7840   33.0020   46.2560 C   0  0  0  0  0  0  0  0  0  0  0  0
   45.4530   34.1070   45.5200 N   0  0  0  0  0  0  0  0  0  0  0  0
   46.0090   34.3430   44.3240 C   0  0  0  0  0  0  0  0  0  0  0  0
   46.9110   33.5090   43.7980 N   0  0  0  0  0  0  0  0  0  0  0  0
   48.0070   31.7730   44.0030 H   0  0  0  0  0  0  0  0  0  0  0  0
   47.0940   31.2200   46.1530 H   0  0  0  0  0  0  0  0  0  0  0  0
   45.7320   35.2170   43.7660 H   0  0  0  0  0  0  0  0  0  0  0  0
   48.8610   31.5930   49.0640 C   0  0  0  0  0  0  0  0  0  0  0  0
   49.7710   32.4720   49.4470 O   0  0  0  0  0  0  0  0  0  0  0  0
   49.4140   30.1920   49.3030 C   0  0  0  0  0  0  0  0  0  0  0  0
   49.8910   29.8150   50.4870 N   0  0  0  0  0  0  0  0  0  0  0  0
   50.3920   28.6330   50.7420 C   0  0  0  0  0  3  0  0  0  0  0  0
   50.4550   27.7060   49.7950 N   0  0  0  0  0  0  0  0  0  0  0  0
   49.9920   28.0230   48.5820 C   0  0  0  0  0  0  0  0  0  0  0  0
   50.0800   27.0570   47.6230 C   0  0  0  0  0  3  0  0  0  0  0  0
   49.6500   27.2550   46.3160 C   0  0  0  0  0  0  0  0  0  0  0  0
   49.7430   26.4590   45.6060 H   0  0  0  0  0  0  0  0  0  0  0  0
   49.1230   28.5250   46.0730 C   0  0  0  0  0  0  0  0  0  0  0  0
   48.7970   28.6340   45.0240 H   0  0  0  0  0  0  0  0  0  0  0  0
   49.0560   29.4640   47.0750 C   0  0  0  0  0  3  0  0  0  0  0  0
   49.4790   29.2540   48.3440 C   0  0  0  0  0  0  0  0  0  0  0  0
  1  3  1  0  0  0  0
  1 16  1  0  0  0  0
  3  2  2  6  0  0  0
  3  4  1  0  0  0  0
  4  5  1  0  0  0  0
  6  3  1  0  0  0  0
  7  8  1  0  0  0  0
  8 14  1  0  0  0  0
  8  9  2  0  0  0  0
  9  6  1  0  0  0  0
 10  9  1  0  0  0  0
 11 10  2  0  0  0  0
 12 11  1  0  0  0  0
 12  7  2  0  0  0  0
 13  7  1  0  0  0  0
 15 11  1  0  0  0  0
 16 18  1  0  0  0  0
 16 17  2  0  0  0  0
 18 19  1  0  0  0  0
 19 20  2  0  0  0  0
 21 20  1  0  0  0  0
 22 21  2  0  0  0  0
 23 22  1  0  0  0  0
 24 23  2  0  0  0  0
 25 24  1  0  0  0  0
 26 24  1  0  0  0  0
 26 28  2  0  0  0  0
 27 26  1  0  0  0  0
 28 29  1  0  0  0  0
 29 22  1  0  0  0  0
 29 18  2  0  0  0  0
M  END
>  <minimizedAffinity>
-4.83519077

>  <minimizedRMSD>
1.40052199

$$$$
