
 OpenBabel03242522503D

 29 31  0  0  0  0  0  0  0  0999 V2000
   47.4970   32.0050   48.2490 O   0  0  0  0  0  0  0  0  0  0  0  0
   45.3370   30.6950   47.6310 O   0  0  0  0  0  0  0  0  0  0  0  0
   45.8410   31.9840   48.3330 P   0  0  1  0  0  0  0  0  0  0  0  0
   45.2740   31.8630   49.9120 O   0  0  0  0  0  0  0  0  0  0  0  0
   45.2220   30.9180   50.2040 H   0  0  0  0  0  0  0  0  0  0  0  0
   45.1380   33.2970   47.5500 O   0  0  0  0  0  0  0  0  0  0  0  0
   46.9620   33.2740   44.4070 C   0  0  0  0  0  0  0  0  0  0  0  0
   46.5490   32.9320   45.7130 C   0  0  0  0  0  0  0  0  0  0  0  0
   45.5200   33.6480   46.2750 C   0  0  0  0  0  0  0  0  0  0  0  0
   44.9440   34.6540   45.5490 N   0  0  0  0  0  0  0  0  0  0  0  0
   45.3610   34.9510   44.3110 C   0  0  0  0  0  0  0  0  0  0  0  0
   46.3590   34.2760   43.7310 N   0  0  0  0  0  0  0  0  0  0  0  0
   47.7600   32.7700   43.8800 H   0  0  0  0  0  0  0  0  0  0  0  0
   47.1170   32.1260   46.1010 H   0  0  0  0  0  0  0  0  0  0  0  0
   44.8930   35.7450   43.7620 H   0  0  0  0  0  0  0  0  0  0  0  0
   48.4680   31.1500   48.6310 C   0  0  0  0  0  0  0  0  0  0  0  0
   49.1410   31.6050   49.6740 O   0  0  0  0  0  0  0  0  0  0  0  0
   49.0550   29.8010   48.2300 C   0  0  0  0  0  0  0  0  0  0  0  0
   48.2870   28.7870   47.8410 N   0  0  0  0  0  0  0  0  0  0  0  0
   48.7390   27.6050   47.5030 C   0  0  0  0  0  3  0  0  0  0  0  0
   50.0380   27.3410   47.5310 N   0  0  0  0  0  0  0  0  0  0  0  0
   50.8630   28.3220   47.9150 C   0  0  0  0  0  0  0  0  0  0  0  0
   52.1930   28.0210   47.9470 C   0  0  0  0  0  3  0  0  0  0  0  0
   53.1600   28.9400   48.3400 C   0  0  0  0  0  0  0  0  0  0  0  0
   54.1900   28.6480   48.3450 H   0  0  0  0  0  0  0  0  0  0  0  0
   52.6500   30.1900   48.6970 C   0  0  0  0  0  0  0  0  0  0  0  0
   53.4540   30.8830   49.0000 H   0  0  0  0  0  0  0  0  0  0  0  0
   51.3000   30.4410   48.6460 C   0  0  0  0  0  3  0  0  0  0  0  0
   50.3720   29.5340   48.2600 C   0  0  0  0  0  0  0  0  0  0  0  0
  1  3  1  0  0  0  0
  1 16  1  0  0  0  0
  3  2  2  6  0  0  0
  3  4  1  0  0  0  0
  4  5  1  0  0  0  0
  6  3  1  0  0  0  0
  7  8  1  0  0  0  0
  8 14  1  0  0  0  0
  8  9  2  0  0  0  0
  9  6  1  0  0  0  0
 10  9  1  0  0  0  0
 11 10  2  0  0  0  0
 12 11  1  0  0  0  0
 12  7  2  0  0  0  0
 13  7  1  0  0  0  0
 15 11  1  0  0  0  0
 16 17  2  0  0  0  0
 18 29  1  0  0  0  0
 18 16  1  0  0  0  0
 19 18  2  0  0  0  0
 20 21  2  0  0  0  0
 20 19  1  0  0  0  0
 21 22  1  0  0  0  0
 22 23  2  0  0  0  0
 22 29  1  0  0  0  0
 23 24  1  0  0  0  0
 24 25  1  0  0  0  0
 24 26  2  0  0  0  0
 26 27  1  0  0  0  0
 28 26  1  0  0  0  0
 29 28  2  0  0  0  0
M  END
>  <minimizedAffinity>
-4.88388538

>  <minimizedRMSD>
0.575463474

$$$$
