
 OpenBabel03242522503D

 29 31  0  0  0  0  0  0  0  0999 V2000
   47.4500   32.2540   48.2760 O   0  0  0  0  0  0  0  0  0  0  0  0
   45.3810   30.8080   47.6450 O   0  0  0  0  0  0  0  0  0  0  0  0
   45.8010   32.1090   48.3820 P   0  0  1  0  0  0  0  0  0  0  0  0
   45.2700   31.8970   49.9640 O   0  0  0  0  0  0  0  0  0  0  0  0
   45.2920   30.9420   50.2250 H   0  0  0  0  0  0  0  0  0  0  0  0
   44.9920   33.3900   47.6520 O   0  0  0  0  0  0  0  0  0  0  0  0
   46.6680   33.5070   44.4300 C   0  0  0  0  0  0  0  0  0  0  0  0
   46.3090   33.1020   45.7340 C   0  0  0  0  0  0  0  0  0  0  0  0
   45.3210   33.8040   46.3810 C   0  0  0  0  0  0  0  0  0  0  0  0
   44.7320   34.8570   45.7380 N   0  0  0  0  0  0  0  0  0  0  0  0
   45.0970   35.2140   44.4990 C   0  0  0  0  0  0  0  0  0  0  0  0
   46.0550   34.5550   43.8380 N   0  0  0  0  0  0  0  0  0  0  0  0
   47.4310   33.0190   43.8390 H   0  0  0  0  0  0  0  0  0  0  0  0
   46.8790   32.2660   46.0510 H   0  0  0  0  0  0  0  0  0  0  0  0
   44.6200   36.0450   44.0160 H   0  0  0  0  0  0  0  0  0  0  0  0
   48.4850   31.4370   48.5580 C   0  0  0  0  0  0  0  0  0  0  0  0
   49.4060   32.0440   49.2860 O   0  0  0  0  0  0  0  0  0  0  0  0
   48.9450   30.0070   48.2930 C   0  0  0  0  0  0  0  0  0  0  0  0
   49.5210   29.2670   49.2370 N   0  0  0  0  0  0  0  0  0  0  0  0
   49.9490   28.0420   49.0570 C   0  0  0  0  0  3  0  0  0  0  0  0
   49.8270   27.4460   47.8790 N   0  0  0  0  0  0  0  0  0  0  0  0
   49.2570   28.1400   46.8880 C   0  0  0  0  0  0  0  0  0  0  0  0
   49.1540   27.5100   45.6830 C   0  0  0  0  0  3  0  0  0  0  0  0
   48.5950   28.1160   44.5630 C   0  0  0  0  0  0  0  0  0  0  0  0
   48.5410   27.5720   43.6430 H   0  0  0  0  0  0  0  0  0  0  0  0
   48.1500   29.4220   44.7820 C   0  0  0  0  0  0  0  0  0  0  0  0
   47.7160   29.8600   43.8680 H   0  0  0  0  0  0  0  0  0  0  0  0
   48.2760   30.0110   46.0180 C   0  0  0  0  0  3  0  0  0  0  0  0
   48.8230   29.4050   47.0970 C   0  0  0  0  0  0  0  0  0  0  0  0
  1  3  1  0  0  0  0
  1 16  1  0  0  0  0
  3  2  2  6  0  0  0
  3  4  1  0  0  0  0
  4  5  1  0  0  0  0
  6  3  1  0  0  0  0
  7  8  1  0  0  0  0
  8 14  1  0  0  0  0
  8  9  2  0  0  0  0
  9  6  1  0  0  0  0
 10  9  1  0  0  0  0
 11 10  2  0  0  0  0
 12  7  2  0  0  0  0
 12 11  1  0  0  0  0
 13  7  1  0  0  0  0
 15 11  1  0  0  0  0
 16 17  2  0  0  0  0
 18 16  1  0  0  0  0
 18 19  1  0  0  0  0
 20 19  2  0  0  0  0
 21 20  1  0  0  0  0
 22 29  1  0  0  0  0
 22 21  2  0  0  0  0
 23 22  1  0  0  0  0
 24 26  1  0  0  0  0
 24 23  2  0  0  0  0
 25 24  1  0  0  0  0
 26 28  2  0  0  0  0
 27 26  1  0  0  0  0
 28 29  1  0  0  0  0
 29 18  2  0  0  0  0
M  END
>  <minimizedAffinity>
-4.87015009

>  <minimizedRMSD>
0.870776951

$$$$
