
 OpenBabel03242522493D

 29 31  0  0  0  0  0  0  0  0999 V2000
   47.4500   32.2550   48.2750 O   0  0  0  0  0  0  0  0  0  0  0  0
   45.3810   30.8090   47.6440 O   0  0  0  0  0  0  0  0  0  0  0  0
   45.8010   32.1100   48.3820 P   0  0  1  0  0  0  0  0  0  0  0  0
   45.2700   31.8970   49.9630 O   0  0  0  0  0  0  0  0  0  0  0  0
   45.2920   30.9420   50.2240 H   0  0  0  0  0  0  0  0  0  0  0  0
   44.9920   33.3910   47.6520 O   0  0  0  0  0  0  0  0  0  0  0  0
   46.6680   33.5080   44.4290 C   0  0  0  0  0  0  0  0  0  0  0  0
   46.3090   33.1030   45.7340 C   0  0  0  0  0  0  0  0  0  0  0  0
   45.3210   33.8050   46.3810 C   0  0  0  0  0  0  0  0  0  0  0  0
   44.7320   34.8580   45.7370 N   0  0  0  0  0  0  0  0  0  0  0  0
   45.0970   35.2150   44.4980 C   0  0  0  0  0  0  0  0  0  0  0  0
   46.0540   34.5550   43.8370 N   0  0  0  0  0  0  0  0  0  0  0  0
   47.4310   33.0210   43.8390 H   0  0  0  0  0  0  0  0  0  0  0  0
   46.8790   32.2670   46.0510 H   0  0  0  0  0  0  0  0  0  0  0  0
   44.6190   36.0450   44.0150 H   0  0  0  0  0  0  0  0  0  0  0  0
   48.4840   31.4370   48.5580 C   0  0  0  0  0  0  0  0  0  0  0  0
   49.4060   32.0440   49.2850 O   0  0  0  0  0  0  0  0  0  0  0  0
   48.9450   30.0070   48.2920 C   0  0  0  0  0  0  0  0  0  0  0  0
   49.5210   29.2670   49.2370 N   0  0  0  0  0  0  0  0  0  0  0  0
   49.9480   28.0430   49.0570 C   0  0  0  0  0  3  0  0  0  0  0  0
   49.8270   27.4470   47.8790 N   0  0  0  0  0  0  0  0  0  0  0  0
   49.2540   28.1400   46.8890 C   0  0  0  0  0  0  0  0  0  0  0  0
   49.1530   27.5090   45.6840 C   0  0  0  0  0  3  0  0  0  0  0  0
   48.5930   28.1150   44.5640 C   0  0  0  0  0  0  0  0  0  0  0  0
   48.5390   27.5710   43.6440 H   0  0  0  0  0  0  0  0  0  0  0  0
   48.1480   29.4200   44.7820 C   0  0  0  0  0  0  0  0  0  0  0  0
   47.7130   29.8580   43.8670 H   0  0  0  0  0  0  0  0  0  0  0  0
   48.2750   30.0110   46.0170 C   0  0  0  0  0  3  0  0  0  0  0  0
   48.8210   29.4050   47.0970 C   0  0  0  0  0  0  0  0  0  0  0  0
  1  3  1  0  0  0  0
  1 16  1  0  0  0  0
  3  2  2  6  0  0  0
  3  4  1  0  0  0  0
  4  5  1  0  0  0  0
  6  3  1  0  0  0  0
  7  8  1  0  0  0  0
  8 14  1  0  0  0  0
  8  9  2  0  0  0  0
  9  6  1  0  0  0  0
 10  9  1  0  0  0  0
 11 10  2  0  0  0  0
 12  7  2  0  0  0  0
 12 11  1  0  0  0  0
 13  7  1  0  0  0  0
 15 11  1  0  0  0  0
 16 17  2  0  0  0  0
 18 16  1  0  0  0  0
 18 19  1  0  0  0  0
 20 19  2  0  0  0  0
 21 20  1  0  0  0  0
 22 29  1  0  0  0  0
 22 21  2  0  0  0  0
 23 22  1  0  0  0  0
 24 26  1  0  0  0  0
 24 23  2  0  0  0  0
 25 24  1  0  0  0  0
 26 28  2  0  0  0  0
 27 26  1  0  0  0  0
 28 29  1  0  0  0  0
 29 18  2  0  0  0  0
M  END
>  <minimizedAffinity>
-4.87022066

>  <minimizedRMSD>
0.546376169

$$$$
