
 OpenBabel03242522503D

 29 31  0  0  0  0  0  0  0  0999 V2000
   47.4600   32.1710   48.1630 O   0  0  0  0  0  0  0  0  0  0  0  0
   45.3290   30.8140   47.5420 O   0  0  0  0  0  0  0  0  0  0  0  0
   45.8090   32.0830   48.2980 P   0  0  1  0  0  0  0  0  0  0  0  0
   45.2990   31.8560   49.8840 O   0  0  0  0  0  0  0  0  0  0  0  0
   45.2920   30.8960   50.1260 H   0  0  0  0  0  0  0  0  0  0  0  0
   45.0330   33.4070   47.6100 O   0  0  0  0  0  0  0  0  0  0  0  0
   46.6720   33.5480   44.3690 C   0  0  0  0  0  0  0  0  0  0  0  0
   46.3310   33.1370   45.6760 C   0  0  0  0  0  0  0  0  0  0  0  0
   45.3440   33.8270   46.3360 C   0  0  0  0  0  0  0  0  0  0  0  0
   44.7370   34.8760   45.7010 N   0  0  0  0  0  0  0  0  0  0  0  0
   45.0850   35.2390   44.4600 C   0  0  0  0  0  0  0  0  0  0  0  0
   46.0410   34.5910   43.7860 N   0  0  0  0  0  0  0  0  0  0  0  0
   47.4330   33.0700   43.7690 H   0  0  0  0  0  0  0  0  0  0  0  0
   46.9130   32.3060   45.9850 H   0  0  0  0  0  0  0  0  0  0  0  0
   44.5940   36.0660   43.9840 H   0  0  0  0  0  0  0  0  0  0  0  0
   48.4790   31.3970   48.5870 C   0  0  0  0  0  0  0  0  0  0  0  0
   49.2410   32.0260   49.4650 O   0  0  0  0  0  0  0  0  0  0  0  0
   49.0510   30.0000   48.3660 C   0  0  0  0  0  0  0  0  0  0  0  0
   48.2980   28.9900   47.9410 N   0  0  0  0  0  0  0  0  0  0  0  0
   48.7350   27.7710   47.7510 C   0  0  0  0  0  3  0  0  0  0  0  0
   50.0040   27.4620   47.9810 N   0  0  0  0  0  0  0  0  0  0  0  0
   50.8130   28.4350   48.4120 C   0  0  0  0  0  0  0  0  0  0  0  0
   52.1090   28.0880   48.6540 C   0  0  0  0  0  3  0  0  0  0  0  0
   53.0550   28.9960   49.1170 C   0  0  0  0  0  0  0  0  0  0  0  0
   54.0600   28.6670   49.2890 H   0  0  0  0  0  0  0  0  0  0  0  0
   52.5610   30.2880   49.3130 C   0  0  0  0  0  0  0  0  0  0  0  0
   53.3460   30.9690   49.6810 H   0  0  0  0  0  0  0  0  0  0  0  0
   51.2450   30.5860   49.0540 C   0  0  0  0  0  3  0  0  0  0  0  0
   50.3380   29.6880   48.6020 C   0  0  0  0  0  0  0  0  0  0  0  0
  1  3  1  0  0  0  0
  1 16  1  0  0  0  0
  3  2  2  6  0  0  0
  3  4  1  0  0  0  0
  4  5  1  0  0  0  0
  6  3  1  0  0  0  0
  7  8  1  0  0  0  0
  8 14  1  0  0  0  0
  8  9  2  0  0  0  0
  9  6  1  0  0  0  0
 10  9  1  0  0  0  0
 11 10  2  0  0  0  0
 12  7  2  0  0  0  0
 12 11  1  0  0  0  0
 13  7  1  0  0  0  0
 15 11  1  0  0  0  0
 16 17  2  0  0  0  0
 18 16  1  0  0  0  0
 18 29  1  0  0  0  0
 19 18  2  0  0  0  0
 20 19  1  0  0  0  0
 20 21  2  0  0  0  0
 21 22  1  0  0  0  0
 22 29  2  0  0  0  0
 22 23  1  0  0  0  0
 23 24  2  0  0  0  0
 24 25  1  0  0  0  0
 24 26  1  0  0  0  0
 26 27  1  0  0  0  0
 28 26  2  0  0  0  0
 29 28  1  0  0  0  0
M  END
>  <minimizedAffinity>
-5.0168438

>  <minimizedRMSD>
0.344701946

$$$$
