
 OpenBabel03242522503D

 29 31  0  0  0  0  0  0  0  0999 V2000
   47.6400   32.1890   48.6380 O   0  0  0  0  0  0  0  0  0  0  0  0
   45.7980   30.4650   48.0030 O   0  0  0  0  0  0  0  0  0  0  0  0
   46.0100   31.8840   48.5980 P   0  0  1  0  0  0  0  0  0  0  0  0
   45.3260   31.8120   50.1330 O   0  0  0  0  0  0  0  0  0  0  0  0
   45.4070   30.9040   50.5200 H   0  0  0  0  0  0  0  0  0  0  0  0
   45.1730   32.9730   47.6270 O   0  0  0  0  0  0  0  0  0  0  0  0
   47.1240   32.8270   44.5640 C   0  0  0  0  0  0  0  0  0  0  0  0
   46.6360   32.5160   45.8520 C   0  0  0  0  0  0  0  0  0  0  0  0
   45.6290   33.2960   46.3690 C   0  0  0  0  0  0  0  0  0  0  0  0
   45.1480   34.3330   45.6180 N   0  0  0  0  0  0  0  0  0  0  0  0
   45.6350   34.5990   44.3980 C   0  0  0  0  0  0  0  0  0  0  0  0
   46.6130   33.8620   43.8630 N   0  0  0  0  0  0  0  0  0  0  0  0
   47.9120   32.2740   44.0720 H   0  0  0  0  0  0  0  0  0  0  0  0
   47.1360   31.6780   46.2650 H   0  0  0  0  0  0  0  0  0  0  0  0
   45.2400   35.4180   43.8290 H   0  0  0  0  0  0  0  0  0  0  0  0
   48.7300   31.4350   48.8820 C   0  0  0  0  0  0  0  0  0  0  0  0
   49.7340   32.1590   49.3480 O   0  0  0  0  0  0  0  0  0  0  0  0
   49.1890   29.9840   48.7820 C   0  0  0  0  0  0  0  0  0  0  0  0
   48.9640   29.2470   47.6980 N   0  0  0  0  0  0  0  0  0  0  0  0
   49.3230   27.9940   47.5680 C   0  0  0  0  0  3  0  0  0  0  0  0
   49.9550   27.3640   48.5480 N   0  0  0  0  0  0  0  0  0  0  0  0
   50.2100   28.0520   49.6660 C   0  0  0  0  0  0  0  0  0  0  0  0
   50.8500   27.3770   50.6640 C   0  0  0  0  0  3  0  0  0  0  0  0
   51.1660   27.9640   51.8840 C   0  0  0  0  0  0  0  0  0  0  0  0
   51.6700   27.3860   52.6310 H   0  0  0  0  0  0  0  0  0  0  0  0
   50.7700   29.2990   51.9960 C   0  0  0  0  0  0  0  0  0  0  0  0
   51.0410   29.7200   52.9790 H   0  0  0  0  0  0  0  0  0  0  0  0
   50.1280   29.9330   50.9600 C   0  0  0  0  0  3  0  0  0  0  0  0
   49.8290   29.3460   49.7770 C   0  0  0  0  0  0  0  0  0  0  0  0
  1 16  1  0  0  0  0
  3  2  2  6  0  0  0
  3  1  1  0  0  0  0
  3  4  1  0  0  0  0
  4  5  1  0  0  0  0
  6  3  1  0  0  0  0
  7  8  1  0  0  0  0
  8 14  1  0  0  0  0
  8  9  2  0  0  0  0
  9  6  1  0  0  0  0
 10  9  1  0  0  0  0
 11 10  2  0  0  0  0
 12 11  1  0  0  0  0
 12  7  2  0  0  0  0
 13  7  1  0  0  0  0
 15 11  1  0  0  0  0
 16 17  2  0  0  0  0
 18 16  1  0  0  0  0
 18 29  1  0  0  0  0
 19 18  2  0  0  0  0
 20 19  1  0  0  0  0
 20 21  2  0  0  0  0
 21 22  1  0  0  0  0
 22 29  2  0  0  0  0
 22 23  1  0  0  0  0
 23 24  2  0  0  0  0
 24 26  1  0  0  0  0
 24 25  1  0  0  0  0
 26 27  1  0  0  0  0
 28 26  2  0  0  0  0
 29 28  1  0  0  0  0
M  END
>  <minimizedAffinity>
-5.59281778

>  <minimizedRMSD>
0.722132862

$$$$
