
 OpenBabel03242519413D

 32 35  0  0  1  0  0  0  0  0999 V2000
   48.0380   32.8760   41.6460 O   0  0  0  0  0  0  0  0  0  0  0  0
   47.1960   34.1070   41.2750 P   0  0  2  0  0  0  0  0  0  0  0  0
   45.6000   33.9300   41.8890 O   0  0  0  0  0  0  0  0  0  0  0  0
   44.3920   35.9020   44.6680 C   0  0  0  0  0  0  0  0  0  0  0  0
   44.6760   35.5070   43.3430 C   0  0  0  0  0  0  0  0  0  0  0  0
   45.3340   34.2850   43.1770 C   0  0  0  0  0  0  0  0  0  0  0  0
   45.6610   33.5500   44.2680 N   0  0  0  0  0  0  0  0  0  0  0  0
   45.3730   33.9630   45.5140 C   0  0  0  0  0  0  0  0  0  0  0  0
   44.7400   35.1360   45.7220 N   0  0  0  0  0  0  0  0  0  0  0  0
   43.8840   36.8470   44.8150 H   0  0  0  0  0  0  0  0  0  0  0  0
   44.4000   36.1170   42.5010 H   0  0  0  0  0  0  0  0  0  0  0  0
   45.6760   33.3030   46.3240 H   0  0  0  0  0  0  0  0  0  0  0  0
   47.0510   34.1910   39.6350 O   0  0  0  0  0  0  0  0  0  0  0  0
   46.6650   33.3580   38.6960 C   0  0  1  0  0  3  0  0  0  0  0  0
   47.1880   33.5920   37.4780 O   0  0  0  0  0  0  0  0  0  0  0  0
   46.0990   32.3490   37.9170 C   0  0  2  0  0  0  0  0  0  0  0  0
   45.3570   32.5120   36.8060 N   0  0  0  0  0  2  0  0  0  0  0  0
   44.8170   31.5350   36.0500 C   0  0  0  0  0  3  0  0  0  0  0  0
   45.0370   30.3050   36.4340 N   0  0  0  0  0  0  0  0  0  0  0  0
   45.7340   29.9120   37.4890 C   0  0  0  0  0  0  0  0  0  0  0  0
   45.8760   28.5770   37.7560 C   0  0  0  0  0  3  0  0  0  0  0  0
   46.6200   28.2460   38.8630 C   0  0  0  0  0  0  0  0  0  0  0  0
   46.7350   27.1970   39.0770 H   0  0  0  0  0  0  0  0  0  0  0  0
   47.1800   29.2290   39.6470 C   0  0  0  0  0  0  0  0  0  0  0  0
   47.7560   28.9290   40.5060 H   0  0  0  0  0  0  0  0  0  0  0  0
   46.9710   30.5400   39.2830 C   0  0  0  0  0  3  0  0  0  0  0  0
   46.2380   30.9780   38.1880 C   0  0  0  0  0  0  0  0  0  0  0  0
   47.8320   35.4420   42.0060 O   0  0  0  0  0  0  0  0  0  0  0  0
   49.0680   35.7620   41.4630 C   0  0  0  0  0  0  0  0  0  0  0  0
   49.4420   37.0600   41.7930 F   0  0  0  0  0  0  0  0  0  0  0  0
   50.0110   34.8450   41.8030 F   0  0  0  0  0  0  0  0  0  0  0  0
   48.9010   35.7470   40.0900 F   0  0  0  0  0  0  0  0  0  0  0  0
  2  1  2  1  0  0  0
  2  3  1  0  0  0  0
  2 28  1  0  0  0  0
  3  6  1  0  0  0  0
  4 10  1  0  0  0  0
  4  9  1  0  0  0  0
  5  4  2  0  0  0  0
  6  5  1  0  0  0  0
  6  7  2  0  0  0  0
  7  8  1  0  0  0  0
  8  9  2  0  0  0  0
  8 12  1  0  0  0  0
 11  5  1  0  0  0  0
 13  2  1  0  0  0  0
 14 13  1  1  0  0  0
 15 16  1  0  0  0  0
 15 14  1  0  0  0  0
 16 17  1  6  0  0  0
 16 27  1  0  0  0  0
 16 14  1  0  0  0  0
 18 19  2  0  0  0  0
 18 17  1  0  0  0  0
 19 20  1  0  0  0  0
 20 21  2  0  0  0  0
 20 27  1  0  0  0  0
 21 22  1  0  0  0  0
 22 23  1  0  0  0  0
 22 24  2  0  0  0  0
 24 25  1  0  0  0  0
 26 24  1  0  0  0  0
 27 26  2  0  0  0  0
 29 30  1  0  0  0  0
 29 31  1  0  0  0  0
 29 28  1  0  0  0  0
 32 29  1  0  0  0  0
M  END
>  <minimizedAffinity>
-5.08782148

>  <minimizedRMSD>
0.571459234

$$$$
