REMARK  Name = 
REMARK  7 active torsions:
REMARK  status: ('A' for Active; 'I' for Inactive)
REMARK    1  A    between atoms: P_2  and  O_3
REMARK    2  A    between atoms: P_2  and  O_10
REMARK    3  A    between atoms: P_2  and  O_13
REMARK    4  A    between atoms: O_3  and  C_6
REMARK    5  A    between atoms: O_10  and  C_11
REMARK    6  A    between atoms: C_11  and  C_21
REMARK    7  A    between atoms: O_13  and  C_14
REMARK                            x       y       z     vdW  Elec       q    Type
REMARK                         _______ _______ _______ _____ _____    ______ ____
ROOT
ATOM      1  O   UNL     1      48.053  32.882  41.883  0.00  0.00    +0.000 OA
ATOM      2  P   UNL     1      47.177  34.027  41.349  0.00  0.00    +0.000 P 
ENDROOT
BRANCH   2   3
ATOM      3  O   UNL     1      45.579  33.876  41.965  0.00  0.00    +0.000 OA
BRANCH   3   6
ATOM      4  C   UNL     1      44.380  35.922  44.694  0.00  0.00    +0.000 A 
ATOM      5  C   UNL     1      44.663  35.493  43.379  0.00  0.00    +0.000 A 
ATOM      6  C   UNL     1      45.314  34.264  43.243  0.00  0.00    +0.000 A 
ATOM      7  N   UNL     1      45.636  33.554  44.352  0.00  0.00    +0.000 NA
ATOM      8  C   UNL     1      45.349  33.998  45.588  0.00  0.00    +0.000 A 
ATOM      9  N   UNL     1      44.722  35.180  45.766  0.00  0.00    +0.000 NA
ATOM     10  H   UNL     1      43.877  36.873  44.817  0.00  0.00    +0.000 HD
ATOM     11  H   UNL     1      44.391  36.084  42.522  0.00  0.00    +0.000 HD
ATOM     12  H   UNL     1      45.648  33.357  46.414  0.00  0.00    +0.000 HD
ENDBRANCH   3   6
ENDBRANCH   2   3
BRANCH   2  13
ATOM     13  O   UNL     1      47.053  33.896  39.711  0.00  0.00    +0.000 OA
BRANCH  13  14
ATOM     14  C   UNL     1      46.416  33.091  38.892  0.00  0.00    +0.000 C 
ATOM     15  O   UNL     1      46.371  33.502  37.611  0.00  0.00    +0.000 OA
BRANCH  14  16
ATOM     16  C   UNL     1      45.700  32.071  38.265  0.00  0.00    +0.000 A 
ATOM     17  N   UNL     1      45.105  32.131  37.059  0.00  0.00    +0.000 NA
ATOM     18  C   UNL     1      44.420  31.142  36.451  0.00  0.00    +0.000 A 
ATOM     19  N   UNL     1      44.324  30.010  37.098  0.00  0.00    +0.000 NA
ATOM     20  C   UNL     1      44.827  29.727  38.289  0.00  0.00    +0.000 A 
ATOM     21  C   UNL     1      44.643  28.485  38.833  0.00  0.00    +0.000 A 
ATOM     22  C   UNL     1      45.201  28.264  40.069  0.00  0.00    +0.000 A 
ATOM     23  H   UNL     1      45.058  27.288  40.501  0.00  0.00    +0.000 HD
ATOM     24  C   UNL     1      45.905  29.261  40.705  0.00  0.00    +0.000 A 
ATOM     25  H   UNL     1      46.327  29.047  41.672  0.00  0.00    +0.000 HD
ATOM     26  C   UNL     1      46.028  30.473  40.064  0.00  0.00    +0.000 A 
ATOM     27  C   UNL     1      45.503  30.797  38.819  0.00  0.00    +0.000 A 
ENDBRANCH  14  16
ENDBRANCH  13  14
ENDBRANCH   2  13
BRANCH   2  28
ATOM     28  O   UNL     1      47.760  35.464  41.910  0.00  0.00    +0.000 OA
BRANCH  28  29
ATOM     29  C   UNL     1      49.007  35.739  41.367  0.00  0.00    +0.000 C 
ATOM     30  F   UNL     1      49.411  37.036  41.664  0.00  0.00    +0.000 F 
ATOM     31  F   UNL     1      49.925  34.809  41.739  0.00  0.00    +0.000 F 
ATOM     32  F   UNL     1      48.848  35.689  39.994  0.00  0.00    +0.000 F 
ENDBRANCH  28  29
ENDBRANCH   2  28
TORSDOF 7
