
 OpenBabel03242519413D

 32 35  0  0  1  0  0  0  0  0999 V2000
   48.0370   32.8720   41.6800 O   0  0  0  0  0  0  0  0  0  0  0  0
   47.1910   34.0930   41.2840 P   0  0  2  0  0  0  0  0  0  0  0  0
   45.5950   33.9220   41.8980 O   0  0  0  0  0  0  0  0  0  0  0  0
   44.3910   35.9080   44.6690 C   0  0  0  0  0  0  0  0  0  0  0  0
   44.6750   35.5070   43.3460 C   0  0  0  0  0  0  0  0  0  0  0  0
   45.3290   34.2830   43.1840 C   0  0  0  0  0  0  0  0  0  0  0  0
   45.6540   33.5510   44.2780 N   0  0  0  0  0  0  0  0  0  0  0  0
   45.3670   33.9690   45.5230 C   0  0  0  0  0  0  0  0  0  0  0  0
   44.7360   35.1450   45.7260 N   0  0  0  0  0  0  0  0  0  0  0  0
   43.8850   36.8550   44.8120 H   0  0  0  0  0  0  0  0  0  0  0  0
   44.4000   36.1140   42.5010 H   0  0  0  0  0  0  0  0  0  0  0  0
   45.6680   33.3120   46.3360 H   0  0  0  0  0  0  0  0  0  0  0  0
   47.0500   34.1450   39.6430 O   0  0  0  0  0  0  0  0  0  0  0  0
   46.7220   33.2770   38.7140 C   0  0  1  0  0  3  0  0  0  0  0  0
   47.0730   33.6230   37.4620 O   0  0  0  0  0  0  0  0  0  0  0  0
   46.2630   32.2000   37.9550 C   0  0  2  0  0  0  0  0  0  0  0  0
   45.3260   32.2390   36.9890 N   0  0  0  0  0  2  0  0  0  0  0  0
   44.8910   31.1980   36.2510 C   0  0  0  0  0  3  0  0  0  0  0  0
   45.4340   30.0340   36.4980 N   0  0  0  0  0  0  0  0  0  0  0  0
   46.3680   29.7640   37.3960 C   0  0  0  0  0  0  0  0  0  0  0  0
   46.8400   28.4870   37.5290 C   0  0  0  0  0  3  0  0  0  0  0  0
   47.8140   28.2850   38.4780 C   0  0  0  0  0  0  0  0  0  0  0  0
   48.1890   27.2810   38.5870 H   0  0  0  0  0  0  0  0  0  0  0  0
   48.2720   29.3350   39.2410 C   0  0  0  0  0  0  0  0  0  0  0  0
   49.0360   29.1360   39.9740 H   0  0  0  0  0  0  0  0  0  0  0  0
   47.7250   30.5780   39.0200 C   0  0  0  0  0  3  0  0  0  0  0  0
   46.7400   30.8860   38.0910 C   0  0  0  0  0  0  0  0  0  0  0  0
   47.8220   35.4430   41.9910 O   0  0  0  0  0  0  0  0  0  0  0  0
   49.0600   35.7550   41.4480 C   0  0  0  0  0  0  0  0  0  0  0  0
   49.4440   37.0500   41.7790 F   0  0  0  0  0  0  0  0  0  0  0  0
   49.9960   34.8300   41.7880 F   0  0  0  0  0  0  0  0  0  0  0  0
   48.8930   35.7410   40.0750 F   0  0  0  0  0  0  0  0  0  0  0  0
  2  1  2  1  0  0  0
  2  3  1  0  0  0  0
  2 28  1  0  0  0  0
  3  6  1  0  0  0  0
  4 10  1  0  0  0  0
  4  9  1  0  0  0  0
  5  4  2  0  0  0  0
  6  5  1  0  0  0  0
  6  7  2  0  0  0  0
  7  8  1  0  0  0  0
  8  9  2  0  0  0  0
  8 12  1  0  0  0  0
 11  5  1  0  0  0  0
 13  2  1  0  0  0  0
 14 13  1  1  0  0  0
 15 16  1  0  0  0  0
 15 14  1  0  0  0  0
 16 17  1  6  0  0  0
 16 27  1  0  0  0  0
 16 14  1  0  0  0  0
 18 19  2  0  0  0  0
 18 17  1  0  0  0  0
 19 20  1  0  0  0  0
 20 21  2  0  0  0  0
 20 27  1  0  0  0  0
 21 22  1  0  0  0  0
 22 23  1  0  0  0  0
 22 24  2  0  0  0  0
 24 25  1  0  0  0  0
 26 24  1  0  0  0  0
 27 26  2  0  0  0  0
 29 30  1  0  0  0  0
 29 31  1  0  0  0  0
 29 28  1  0  0  0  0
 32 29  1  0  0  0  0
M  END
>  <minimizedAffinity>
-5.10643673

>  <minimizedRMSD>
1.45485413

$$$$
