
 OpenBabel03242519413D

 32 35  0  0  1  0  0  0  0  0999 V2000
   48.0540   32.6990   41.8510 O   0  0  0  0  0  0  0  0  0  0  0  0
   47.0730   33.7790   41.3670 P   0  0  2  0  0  0  0  0  0  0  0  0
   45.5340   33.5380   42.0950 O   0  0  0  0  0  0  0  0  0  0  0  0
   44.3580   35.8990   44.5680 C   0  0  0  0  0  0  0  0  0  0  0  0
   44.6290   35.3140   43.3120 C   0  0  0  0  0  0  0  0  0  0  0  0
   45.2800   34.0780   43.3190 C   0  0  0  0  0  0  0  0  0  0  0  0
   45.6130   33.5070   44.5030 N   0  0  0  0  0  0  0  0  0  0  0  0
   45.3370   34.0970   45.6790 C   0  0  0  0  0  0  0  0  0  0  0  0
   44.7110   35.2920   45.7180 N   0  0  0  0  0  0  0  0  0  0  0  0
   43.8550   36.8580   44.5800 H   0  0  0  0  0  0  0  0  0  0  0  0
   44.3490   35.7980   42.3920 H   0  0  0  0  0  0  0  0  0  0  0  0
   45.6450   33.5610   46.5730 H   0  0  0  0  0  0  0  0  0  0  0  0
   46.8440   33.6140   39.7430 O   0  0  0  0  0  0  0  0  0  0  0  0
   45.8560   33.2000   38.9840 C   0  0  1  0  0  3  0  0  0  0  0  0
   46.0970   33.2440   37.6610 O   0  0  0  0  0  0  0  0  0  0  0  0
   44.6680   32.7140   38.4370 C   0  0  1  0  0  0  0  0  0  0  0  0
   44.5380   31.6650   37.6020 N   0  0  0  0  0  2  0  0  0  0  0  0
   43.3890   31.1940   37.0790 C   0  0  0  0  0  3  0  0  0  0  0  0
   42.2890   31.8160   37.4170 N   0  0  0  0  0  0  0  0  0  0  0  0
   42.1810   32.8620   38.2210 C   0  0  0  0  0  0  0  0  0  0  0  0
   40.9500   33.4000   38.4820 C   0  0  0  0  0  3  0  0  0  0  0  0
   40.9170   34.4810   39.3310 C   0  0  0  0  0  0  0  0  0  0  0  0
   39.9500   34.9080   39.5400 H   0  0  0  0  0  0  0  0  0  0  0  0
   42.0790   34.9770   39.8750 C   0  0  0  0  0  0  0  0  0  0  0  0
   42.0100   35.8250   40.5350 H   0  0  0  0  0  0  0  0  0  0  0  0
   43.2620   34.3570   39.5420 C   0  0  0  0  0  3  0  0  0  0  0  0
   43.4030   33.2630   38.6970 C   0  0  0  0  0  0  0  0  0  0  0  0
   47.6020   35.2580   41.8690 O   0  0  0  0  0  0  0  0  0  0  0  0
   48.8580   35.5380   41.3500 C   0  0  0  0  0  0  0  0  0  0  0  0
   49.3010   36.7930   41.7530 F   0  0  0  0  0  0  0  0  0  0  0  0
   49.7460   34.5520   41.6440 F   0  0  0  0  0  0  0  0  0  0  0  0
   48.7010   35.6060   39.9780 F   0  0  0  0  0  0  0  0  0  0  0  0
  2  1  2  1  0  0  0
  2 28  1  0  0  0  0
  2  3  1  0  0  0  0
  3  6  1  0  0  0  0
  4 10  1  0  0  0  0
  4  9  1  0  0  0  0
  5  6  1  0  0  0  0
  5  4  2  0  0  0  0
  6  7  2  0  0  0  0
  7  8  1  0  0  0  0
  8  9  2  0  0  0  0
  8 12  1  0  0  0  0
 11  5  1  0  0  0  0
 13  2  1  0  0  0  0
 14 13  1  1  0  0  0
 15 16  1  0  0  0  0
 15 14  1  0  0  0  0
 16 17  1  1  0  0  0
 16 27  1  0  0  0  0
 16 14  1  0  0  0  0
 18 19  2  0  0  0  0
 18 17  1  0  0  0  0
 19 20  1  0  0  0  0
 20 21  2  0  0  0  0
 20 27  1  0  0  0  0
 21 22  1  0  0  0  0
 22 23  1  0  0  0  0
 22 24  2  0  0  0  0
 24 25  1  0  0  0  0
 26 24  1  0  0  0  0
 27 26  2  0  0  0  0
 29 31  1  0  0  0  0
 29 30  1  0  0  0  0
 29 28  1  0  0  0  0
 32 29  1  0  0  0  0
M  END
>  <minimizedAffinity>
-5.97058249

>  <minimizedRMSD>
1.56384313

$$$$
