
 OpenBabel03242519413D

 32 35  0  0  1  0  0  0  0  0999 V2000
   47.9850   32.8590   41.5880 O   0  0  0  0  0  0  0  0  0  0  0  0
   47.1090   34.0690   41.2230 P   0  0  2  0  0  0  0  0  0  0  0  0
   45.5360   33.8740   41.8890 O   0  0  0  0  0  0  0  0  0  0  0  0
   44.4080   35.9010   44.6620 C   0  0  0  0  0  0  0  0  0  0  0  0
   44.6600   35.4830   43.3380 C   0  0  0  0  0  0  0  0  0  0  0  0
   45.3020   34.2520   43.1760 C   0  0  0  0  0  0  0  0  0  0  0  0
   45.6450   33.5310   44.2720 N   0  0  0  0  0  0  0  0  0  0  0  0
   45.3880   33.9650   45.5180 C   0  0  0  0  0  0  0  0  0  0  0  0
   44.7710   35.1480   45.7200 N   0  0  0  0  0  0  0  0  0  0  0  0
   43.9130   36.8530   44.8050 H   0  0  0  0  0  0  0  0  0  0  0  0
   44.3710   36.0820   42.4920 H   0  0  0  0  0  0  0  0  0  0  0  0
   45.7020   33.3150   46.3310 H   0  0  0  0  0  0  0  0  0  0  0  0
   46.9130   34.1230   39.5880 O   0  0  0  0  0  0  0  0  0  0  0  0
   47.2620   33.3470   38.5880 C   0  0  1  0  0  3  0  0  0  0  0  0
   47.4010   33.9730   37.4040 O   0  0  0  0  0  0  0  0  0  0  0  0
   47.6290   32.3100   37.7300 C   0  0  2  0  0  0  0  0  0  0  0  0
   46.9110   31.8270   36.6990 N   0  0  0  0  0  2  0  0  0  0  0  0
   47.2710   30.8300   35.8670 C   0  0  0  0  0  3  0  0  0  0  0  0
   48.4350   30.2750   36.0820 N   0  0  0  0  0  0  0  0  0  0  0  0
   49.3030   30.5870   37.0330 C   0  0  0  0  0  0  0  0  0  0  0  0
   50.4900   29.9120   37.1250 C   0  0  0  0  0  3  0  0  0  0  0  0
   51.3420   30.2960   38.1330 C   0  0  0  0  0  0  0  0  0  0  0  0
   52.2760   29.7670   38.2090 H   0  0  0  0  0  0  0  0  0  0  0  0
   50.9920   31.3130   38.9910 C   0  0  0  0  0  0  0  0  0  0  0  0
   51.6870   31.5850   39.7680 H   0  0  0  0  0  0  0  0  0  0  0  0
   49.7720   31.9230   38.8060 C   0  0  0  0  0  3  0  0  0  0  0  0
   48.8420   31.6090   37.8220 C   0  0  0  0  0  0  0  0  0  0  0  0
   47.7430   35.4260   41.9130 O   0  0  0  0  0  0  0  0  0  0  0  0
   49.0040   35.7000   41.4010 C   0  0  0  0  0  0  0  0  0  0  0  0
   49.4410   36.9620   41.7870 F   0  0  0  0  0  0  0  0  0  0  0  0
   49.8900   34.7210   41.7190 F   0  0  0  0  0  0  0  0  0  0  0  0
   48.8580   35.7460   40.0260 F   0  0  0  0  0  0  0  0  0  0  0  0
  2  1  2  1  0  0  0
  2  3  1  0  0  0  0
  2 28  1  0  0  0  0
  3  6  1  0  0  0  0
  4 10  1  0  0  0  0
  4  9  1  0  0  0  0
  5  4  2  0  0  0  0
  6  5  1  0  0  0  0
  6  7  2  0  0  0  0
  7  8  1  0  0  0  0
  8  9  2  0  0  0  0
  8 12  1  0  0  0  0
 11  5  1  0  0  0  0
 13  2  1  0  0  0  0
 14 13  1  1  0  0  0
 15 16  1  0  0  0  0
 15 14  1  0  0  0  0
 16 17  1  6  0  0  0
 16 27  1  0  0  0  0
 16 14  1  0  0  0  0
 18 19  2  0  0  0  0
 18 17  1  0  0  0  0
 19 20  1  0  0  0  0
 20 21  2  0  0  0  0
 20 27  1  0  0  0  0
 21 22  1  0  0  0  0
 22 23  1  0  0  0  0
 22 24  2  0  0  0  0
 24 25  1  0  0  0  0
 26 24  1  0  0  0  0
 27 26  2  0  0  0  0
 29 31  1  0  0  0  0
 29 30  1  0  0  0  0
 29 28  1  0  0  0  0
 32 29  1  0  0  0  0
M  END
>  <minimizedAffinity>
-5.46347666

>  <minimizedRMSD>
2.54234743

$$$$
