
 OpenBabel03242510223D

 41 45  0  0  1  0  0  0  0  0999 V2000
   49.1640   33.8400   41.2180 C   0  0  2  0  0  0  0  0  0  0  0  0
   48.4170   35.2240   41.1210 C   0  0  0  0  0  0  0  0  0  0  0  0
   47.8900   33.9730   40.5020 C   0  0  1  0  0  0  0  0  0  0  0  0
   50.1060   33.9020   40.6360 H   0  0  0  0  0  0  0  0  0  0  0  0
   47.9580   35.5830   42.0680 H   0  0  0  0  0  0  0  0  0  0  0  0
   48.7990   35.9610   40.4220 H   0  0  0  0  0  0  0  0  0  0  0  0
   47.0500   33.4440   41.0200 H   0  0  0  0  0  0  0  0  0  0  0  0
   48.1210   33.2880   43.4350 N   0  0  0  0  0  0  0  0  0  0  0  0
   49.2360   33.2170   42.6000 C   0  0  0  0  0  0  0  0  0  0  0  0
   50.3650   32.6960   42.7850 O   0  0  0  0  0  0  0  0  0  0  0  0
   47.6750   34.2480   43.3950 H   0  0  0  0  0  0  0  0  0  0  0  0
   46.2590   32.2280   44.6600 C   0  0  1  0  0  0  0  0  0  0  0  0
   46.5110   31.4000   43.5620 C   0  0  0  0  0  0  0  0  0  0  0  0
   47.6750   32.1920   44.2230 C   0  0  1  0  0  0  0  0  0  0  0  0
   45.9970   31.8210   45.6700 H   0  0  0  0  0  0  0  0  0  0  0  0
   46.3880   31.5600   42.4760 H   0  0  0  0  0  0  0  0  0  0  0  0
   46.5280   30.2810   43.7540 H   0  0  0  0  0  0  0  0  0  0  0  0
   48.4500   31.5070   44.6020 H   0  0  0  0  0  0  0  0  0  0  0  0
   45.0930   33.9710   43.1250 C   0  0  0  0  0  0  0  0  0  0  0  0
   45.5200   33.5470   44.4250 C   0  0  0  0  0  0  0  0  0  0  0  0
   45.2580   34.3910   45.4870 C   0  0  0  0  0  0  0  0  0  0  0  0
   44.6210   35.5610   45.2520 N   0  0  0  0  0  0  0  0  0  0  0  0
   44.2230   35.9480   44.0090 C   0  0  0  0  0  0  0  0  0  0  0  0
   44.4730   35.1150   42.9120 N   0  0  0  0  0  0  0  0  0  0  0  0
   45.3130   33.2620   42.3820 H   0  0  0  0  0  0  0  0  0  0  0  0
   45.5660   34.1010   46.4810 H   0  0  0  0  0  0  0  0  0  0  0  0
   43.7140   36.8930   43.8500 H   0  0  0  0  0  0  0  0  0  0  0  0
   47.9280   33.8270   38.9880 C   0  0  0  0  0  0  0  0  0  0  0  0
   48.3560   34.7950   38.3300 O   0  0  0  0  0  0  0  0  0  0  0  0
   47.4260   32.4970   38.5400 C   0  0  0  0  0  0  0  0  0  0  0  0
   48.2460   31.4450   38.3600 N   0  0  0  0  0  0  0  0  0  0  0  0
   47.7980   30.2520   37.9580 C   0  0  0  0  0  3  0  0  0  0  0  0
   46.5070   29.9890   37.6980 N   0  0  0  0  0  0  0  0  0  0  0  0
   45.6300   30.9930   37.8580 C   0  0  0  0  0  0  0  0  0  0  0  0
   44.3130   30.7640   37.6040 C   0  0  0  0  0  3  0  0  0  0  0  0
   43.3650   31.7540   37.7480 C   0  0  0  0  0  0  0  0  0  0  0  0
   42.3290   31.5340   37.5370 H   0  0  0  0  0  0  0  0  0  0  0  0
   43.8250   33.0080   38.1680 C   0  0  0  0  0  0  0  0  0  0  0  0
   43.0650   33.7560   38.2700 H   0  0  0  0  0  0  0  0  0  0  0  0
   45.1570   33.1940   38.4120 C   0  0  0  0  0  3  0  0  0  0  0  0
   46.1100   32.2140   38.2710 C   0  0  0  0  0  0  0  0  0  0  0  0
  1  4  1  6  0  0  0
  1  9  1  0  0  0  0
  2  1  1  0  0  0  0
  2  5  1  0  0  0  0
  3  7  1  1  0  0  0
  3  2  1  0  0  0  0
  3  1  1  0  0  0  0
  6  2  1  0  0  0  0
  8 14  1  0  0  0  0
  9 10  2  0  0  0  0
  9  8  1  0  0  0  0
 11  8  1  0  0  0  0
 12 15  1  1  0  0  0
 13 17  1  0  0  0  0
 13 14  1  0  0  0  0
 13 12  1  0  0  0  0
 14 18  1  1  0  0  0
 14 12  1  0  0  0  0
 16 13  1  0  0  0  0
 19 20  1  0  0  0  0
 20 12  1  0  0  0  0
 20 21  2  0  0  0  0
 21 26  1  0  0  0  0
 22 21  1  0  0  0  0
 23 22  2  0  0  0  0
 24 19  2  0  0  0  0
 24 23  1  0  0  0  0
 25 19  1  0  0  0  0
 27 23  1  0  0  0  0
 28  3  1  0  0  0  0
 29 28  2  0  0  0  0
 30 28  1  0  0  0  0
 31 30  1  0  0  0  0
 32 31  2  0  0  0  0
 33 34  2  0  0  0  0
 33 32  1  0  0  0  0
 34 41  1  0  0  0  0
 35 36  2  0  0  0  0
 35 34  1  0  0  0  0
 36 38  1  0  0  0  0
 37 36  1  0  0  0  0
 38 39  1  0  0  0  0
 38 40  2  0  0  0  0
 41 40  1  0  0  0  0
 41 30  2  0  0  0  0
M  END
>  <minimizedAffinity>
-4.8656168

>  <minimizedRMSD>
1.20426035

$$$$
