
     RDKit          3D

 44 48  0  0  0  0  0  0  0  0999 V2000
   46.3174   32.1403   44.5467 C   0  0  1  0  0  0  0  0  0  0  0  0
   46.4490   31.3553   43.3967 C   0  0  0  0  0  0  0  0  0  0  0  0
   47.6783   32.1252   43.9604 C   0  0  1  0  0  0  0  0  0  0  0  0
   45.0637   33.9753   43.1985 C   0  0  0  0  0  0  0  0  0  0  0  0
   45.5575   33.4641   44.4426 C   0  0  0  0  0  0  0  0  0  0  0  0
   45.3421   34.2269   45.5740 C   0  0  0  0  0  0  0  0  0  0  0  0
   44.6855   35.4035   45.4547 N   0  0  0  0  0  0  0  0  0  0  0  0
   44.2244   35.8739   44.2641 C   0  0  0  0  0  0  0  0  0  0  0  0
   44.4264   35.1240   43.0988 N   0  0  0  0  0  0  0  0  0  0  0  0
   48.0369   33.2523   43.1710 N   0  0  0  0  0  0  0  0  0  0  0  0
   49.1888   33.2906   42.3854 C   0  0  0  0  0  0  0  0  0  0  0  0
   50.3578   32.8980   42.6271 O   0  0  0  0  0  0  0  0  0  0  0  0
   49.1105   33.8841   40.9897 C   0  0  2  0  0  0  0  0  0  0  0  0
   48.6158   35.3765   40.8993 C   0  0  0  0  0  0  0  0  0  0  0  0
   47.8237   34.2270   40.3740 C   0  0  1  0  0  0  0  0  0  0  0  0
   47.7045   34.0405   38.8685 C   0  0  0  0  0  0  0  0  0  0  0  0
   48.4707   34.7077   38.1456 O   0  0  0  0  0  0  0  0  0  0  0  0
   46.1641   31.6932   45.5628 H   0  0  0  0  0  0  0  0  0  0  0  0
   46.2108   31.5559   42.3380 H   0  0  0  0  0  0  0  0  0  0  0  0
   46.4858   30.2299   43.5430 H   0  0  0  0  0  0  0  0  0  0  0  0
   48.4880   31.4287   44.2271 H   0  0  0  0  0  0  0  0  0  0  0  0
   45.2525   33.3229   42.3972 H   0  0  0  0  0  0  0  0  0  0  0  0
   45.7004   33.8712   46.5286 H   0  0  0  0  0  0  0  0  0  0  0  0
   43.7008   36.8228   44.1984 H   0  0  0  0  0  0  0  0  0  0  0  0
   47.4919   34.1582   43.0938 H   0  0  0  0  0  0  0  0  0  0  0  0
   49.9950   33.7615   40.3331 H   0  0  0  0  0  0  0  0  0  0  0  0
   48.3106   35.8362   41.8649 H   0  0  0  0  0  0  0  0  0  0  0  0
   49.0618   36.0163   40.1442 H   0  0  0  0  0  0  0  0  0  0  0  0
   46.9509   33.8711   40.9768 H   0  0  0  0  0  0  0  0  0  0  0  0
   46.6499   33.0523   38.5073 C   0  0  0  0  0  0  0  0  0  0  0  0
   45.9058   32.4260   39.4376 N   0  0  0  0  0  0  0  0  0  0  0  0
   44.9586   31.5389   39.1171 C   0  0  0  0  0  0  0  0  0  0  0  0
   44.6610   31.1907   37.8541 N   0  0  0  0  0  0  0  0  0  0  0  0
   45.3646   31.7767   36.8727 C   0  0  0  0  0  0  0  0  0  0  0  0
   45.0909   31.4482   35.5805 C   0  0  0  0  0  0  0  0  0  0  0  0
   45.7789   32.0151   34.5287 C   0  0  0  0  0  0  0  0  0  0  0  0
   45.5331   31.7289   33.5153 H   0  0  0  0  0  0  0  0  0  0  0  0
   46.7726   32.9451   34.8548 C   0  0  0  0  0  0  0  0  0  0  0  0
   47.2887   33.3675   34.0166 H   0  0  0  0  0  0  0  0  0  0  0  0
   47.0143   33.2456   36.1668 C   0  0  0  0  0  0  0  0  0  0  0  0
   46.3353   32.6871   37.2215 C   0  0  0  0  0  0  0  0  0  0  0  0
   44.4288   31.1036   39.9575 H   0  0  0  0  0  0  0  0  0  0  0  0
   44.3016   30.7130   35.3800 H   0  0  0  0  0  0  0  0  0  0  0  0
   47.7886   33.9618   36.2908 H   0  0  0  0  0  0  0  0  0  0  0  0
  2  3  1  0
  2  1  1  0
  3  1  1  0
  4  5  2  0
  5  1  1  0
  5  6  1  0
  7  6  2  0
  8  7  1  0
  9  4  1  0
  9  8  2  0
 10  3  1  0
 11 12  2  0
 11 10  1  0
 13 11  1  0
 14 13  1  0
 15 14  1  0
 15 13  1  0
 16 15  1  0
 17 16  2  0
  1 18  1  1
  2 19  1  0
  2 20  1  0
  3 21  1  1
  4 22  1  0
  6 23  1  0
  8 24  1  0
 10 25  1  0
 13 26  1  6
 14 27  1  0
 14 28  1  0
 15 29  1  1
 30 31  2  0
 31 32  1  0
 32 33  2  0
 33 34  1  0
 34 35  2  0
 35 36  1  0
 36 37  1  0
 36 38  2  0
 38 39  1  0
 38 40  1  0
 40 41  2  0
 41 30  1  0
 41 34  1  0
 32 42  1  0
 35 43  1  0
 40 44  1  0
 16 30  1  0
M  ISO  8  18  13  19  13  20  13  21  13  22  14  23  14  24  14  26  13
M  ISO  5  27  13  28  13  29  13  37  16  39  16
M  END
>  <DihAtoms>  (1) 
14,15,29,30

>  <DihDeg>  (1) 
0.3871059529150559

$$$$
