
 OpenBabel03242510223D

 41 45  0  0  1  0  0  0  0  0999 V2000
   49.2620   33.9720   41.2020 C   0  0  2  0  0  0  0  0  0  0  0  0
   48.7040   35.4440   41.2770 C   0  0  0  0  0  0  0  0  0  0  0  0
   48.0140   34.3520   40.5310 C   0  0  1  0  0  0  0  0  0  0  0  0
   50.2010   33.9770   40.6140 H   0  0  0  0  0  0  0  0  0  0  0  0
   48.3000   35.7490   42.2670 H   0  0  0  0  0  0  0  0  0  0  0  0
   49.1780   36.2000   40.6600 H   0  0  0  0  0  0  0  0  0  0  0  0
   47.1130   33.8820   41.0010 H   0  0  0  0  0  0  0  0  0  0  0  0
   48.0940   33.1660   43.2750 N   0  0  0  0  0  0  0  0  0  0  0  0
   49.2560   33.1900   42.5030 C   0  0  0  0  0  0  0  0  0  0  0  0
   50.3730   32.6470   42.6900 O   0  0  0  0  0  0  0  0  0  0  0  0
   47.6470   34.1260   43.3220 H   0  0  0  0  0  0  0  0  0  0  0  0
   46.1940   32.0150   44.3500 C   0  0  1  0  0  0  0  0  0  0  0  0
   46.4110   31.3440   43.1420 C   0  0  0  0  0  0  0  0  0  0  0  0
   47.6070   31.9860   43.9020 C   0  0  1  0  0  0  0  0  0  0  0  0
   45.9180   31.4770   45.2930 H   0  0  0  0  0  0  0  0  0  0  0  0
   46.2920   31.6630   42.0920 H   0  0  0  0  0  0  0  0  0  0  0  0
   46.3840   30.2090   43.1720 H   0  0  0  0  0  0  0  0  0  0  0  0
   48.3540   31.2240   44.1720 H   0  0  0  0  0  0  0  0  0  0  0  0
   45.0110   33.9620   43.1000 C   0  0  0  0  0  0  0  0  0  0  0  0
   45.5070   33.3810   44.3120 C   0  0  0  0  0  0  0  0  0  0  0  0
   45.3640   34.1150   45.4740 C   0  0  0  0  0  0  0  0  0  0  0  0
   44.7710   35.3290   45.4130 N   0  0  0  0  0  0  0  0  0  0  0  0
   44.3060   35.8660   44.2520 C   0  0  0  0  0  0  0  0  0  0  0  0
   44.4360   35.1470   43.0570 N   0  0  0  0  0  0  0  0  0  0  0  0
   45.1420   33.3300   42.2720 H   0  0  0  0  0  0  0  0  0  0  0  0
   45.7260   33.7060   46.4060 H   0  0  0  0  0  0  0  0  0  0  0  0
   43.8360   36.8440   44.2330 H   0  0  0  0  0  0  0  0  0  0  0  0
   48.0250   34.3780   39.0090 C   0  0  0  0  0  0  0  0  0  0  0  0
   48.8360   35.1470   38.4560 O   0  0  0  0  0  0  0  0  0  0  0  0
   47.0250   33.4410   38.4240 C   0  0  0  0  0  0  0  0  0  0  0  0
   45.9020   33.0930   39.0790 N   0  0  0  0  0  0  0  0  0  0  0  0
   45.0020   32.2520   38.5570 C   0  0  0  0  0  3  0  0  0  0  0  0
   45.1300   31.6820   37.3470 N   0  0  0  0  0  0  0  0  0  0  0  0
   46.2270   31.9850   36.6370 C   0  0  0  0  0  0  0  0  0  0  0  0
   46.3900   31.4250   35.4070 C   0  0  0  0  0  3  0  0  0  0  0  0
   47.4960   31.6970   34.6300 C   0  0  0  0  0  0  0  0  0  0  0  0
   47.5910   31.2340   33.6580 H   0  0  0  0  0  0  0  0  0  0  0  0
   48.4440   32.5760   35.1690 C   0  0  0  0  0  0  0  0  0  0  0  0
   49.2910   32.7660   34.5410 H   0  0  0  0  0  0  0  0  0  0  0  0
   48.2400   33.1150   36.4080 C   0  0  0  0  0  3  0  0  0  0  0  0
   47.1420   32.8510   37.1910 C   0  0  0  0  0  0  0  0  0  0  0  0
  1  4  1  6  0  0  0
  1  2  1  0  0  0  0
  1  9  1  0  0  0  0
  2  5  1  0  0  0  0
  3  7  1  1  0  0  0
  3  1  1  0  0  0  0
  3  2  1  0  0  0  0
  6  2  1  0  0  0  0
  8 11  1  0  0  0  0
  8 14  1  0  0  0  0
  9 10  2  0  0  0  0
  9  8  1  0  0  0  0
 12 15  1  1  0  0  0
 13 17  1  0  0  0  0
 13 14  1  0  0  0  0
 13 12  1  0  0  0  0
 14 18  1  1  0  0  0
 14 12  1  0  0  0  0
 16 13  1  0  0  0  0
 19 20  1  0  0  0  0
 20 12  1  0  0  0  0
 20 21  2  0  0  0  0
 21 26  1  0  0  0  0
 22 21  1  0  0  0  0
 23 22  2  0  0  0  0
 24 19  2  0  0  0  0
 24 23  1  0  0  0  0
 25 19  1  0  0  0  0
 27 23  1  0  0  0  0
 28  3  1  0  0  0  0
 29 28  2  0  0  0  0
 30 28  1  0  0  0  0
 30 31  1  0  0  0  0
 32 31  2  0  0  0  0
 33 32  1  0  0  0  0
 34 41  1  0  0  0  0
 34 33  2  0  0  0  0
 35 34  1  0  0  0  0
 36 38  1  0  0  0  0
 36 35  2  0  0  0  0
 37 36  1  0  0  0  0
 38 40  2  0  0  0  0
 39 38  1  0  0  0  0
 40 41  1  0  0  0  0
 41 30  2  0  0  0  0
M  END
>  <minimizedAffinity>
-5.3857398

>  <minimizedRMSD>
0.598825634

$$$$
