
 OpenBabel03242510223D

 41 45  0  0  1  0  0  0  0  0999 V2000
   49.2000   33.9360   41.0630 C   0  0  2  0  0  0  0  0  0  0  0  0
   48.6810   35.4220   40.9940 C   0  0  0  0  0  0  0  0  0  0  0  0
   47.9340   34.2740   40.4040 C   0  0  1  0  0  0  0  0  0  0  0  0
   50.1130   33.8490   40.4410 H   0  0  0  0  0  0  0  0  0  0  0  0
   48.3270   35.8470   41.9580 H   0  0  0  0  0  0  0  0  0  0  0  0
   49.1450   36.0910   40.2760 H   0  0  0  0  0  0  0  0  0  0  0  0
   47.0430   33.8840   40.9590 H   0  0  0  0  0  0  0  0  0  0  0  0
   48.0550   33.2490   43.1910 N   0  0  0  0  0  0  0  0  0  0  0  0
   49.2320   33.3050   42.4430 C   0  0  0  0  0  0  0  0  0  0  0  0
   50.3910   32.9000   42.7110 O   0  0  0  0  0  0  0  0  0  0  0  0
   47.5160   34.1590   43.1220 H   0  0  0  0  0  0  0  0  0  0  0  0
   46.2930   32.1130   44.4920 C   0  0  1  0  0  0  0  0  0  0  0  0
   46.4450   31.3620   43.3220 C   0  0  0  0  0  0  0  0  0  0  0  0
   47.6670   32.1020   43.9360 C   0  0  1  0  0  0  0  0  0  0  0  0
   46.1130   31.6370   45.4900 H   0  0  0  0  0  0  0  0  0  0  0  0
   46.2330   31.5980   42.2640 H   0  0  0  0  0  0  0  0  0  0  0  0
   46.4680   30.2330   43.4340 H   0  0  0  0  0  0  0  0  0  0  0  0
   48.4640   31.3900   44.2000 H   0  0  0  0  0  0  0  0  0  0  0  0
   45.0590   33.9840   43.1770 C   0  0  0  0  0  0  0  0  0  0  0  0
   45.5480   33.4470   44.4110 C   0  0  0  0  0  0  0  0  0  0  0  0
   45.3440   34.1940   45.5550 C   0  0  0  0  0  0  0  0  0  0  0  0
   44.7000   35.3800   45.4570 N   0  0  0  0  0  0  0  0  0  0  0  0
   44.2430   35.8750   44.2750 C   0  0  0  0  0  0  0  0  0  0  0  0
   44.4340   35.1420   43.0970 N   0  0  0  0  0  0  0  0  0  0  0  0
   45.2390   33.3440   42.3640 H   0  0  0  0  0  0  0  0  0  0  0  0
   45.6990   33.8180   46.5040 H   0  0  0  0  0  0  0  0  0  0  0  0
   43.7310   36.8310   44.2250 H   0  0  0  0  0  0  0  0  0  0  0  0
   47.8810   34.1290   38.8890 C   0  0  0  0  0  0  0  0  0  0  0  0
   48.5660   34.9220   38.2140 O   0  0  0  0  0  0  0  0  0  0  0  0
   46.9830   33.0180   38.4630 C   0  0  0  0  0  0  0  0  0  0  0  0
   45.6430   33.1180   38.5230 N   0  0  0  0  0  0  0  0  0  0  0  0
   44.8340   32.1240   38.1410 C   0  0  0  0  0  3  0  0  0  0  0  0
   45.2740   30.9460   37.6670 N   0  0  0  0  0  0  0  0  0  0  0  0
   46.6030   30.7770   37.5800 C   0  0  0  0  0  0  0  0  0  0  0  0
   47.0840   29.5960   37.1050 C   0  0  0  0  0  3  0  0  0  0  0  0
   48.4380   29.3600   36.9920 C   0  0  0  0  0  0  0  0  0  0  0  0
   48.7840   28.4100   36.6100 H   0  0  0  0  0  0  0  0  0  0  0  0
   49.2930   30.3950   37.3890 C   0  0  0  0  0  0  0  0  0  0  0  0
   50.3370   30.1820   37.2900 H   0  0  0  0  0  0  0  0  0  0  0  0
   48.7650   31.5650   37.8610 C   0  0  0  0  0  3  0  0  0  0  0  0
   47.4180   31.8100   37.9780 C   0  0  0  0  0  0  0  0  0  0  0  0
  1  4  1  6  0  0  0
  1  9  1  0  0  0  0
  2  1  1  0  0  0  0
  2  5  1  0  0  0  0
  3  7  1  1  0  0  0
  3  2  1  0  0  0  0
  3  1  1  0  0  0  0
  6  2  1  0  0  0  0
  8 14  1  0  0  0  0
  9 10  2  0  0  0  0
  9  8  1  0  0  0  0
 11  8  1  0  0  0  0
 12 15  1  1  0  0  0
 13 17  1  0  0  0  0
 13 14  1  0  0  0  0
 13 12  1  0  0  0  0
 14 18  1  1  0  0  0
 14 12  1  0  0  0  0
 16 13  1  0  0  0  0
 19 20  1  0  0  0  0
 20 12  1  0  0  0  0
 20 21  2  0  0  0  0
 21 26  1  0  0  0  0
 22 21  1  0  0  0  0
 23 22  2  0  0  0  0
 24 19  2  0  0  0  0
 24 23  1  0  0  0  0
 25 19  1  0  0  0  0
 27 23  1  0  0  0  0
 28  3  1  0  0  0  0
 29 28  2  0  0  0  0
 30 31  1  0  0  0  0
 30 28  1  0  0  0  0
 32 31  2  0  0  0  0
 33 32  1  0  0  0  0
 34 33  2  0  0  0  0
 34 41  1  0  0  0  0
 35 34  1  0  0  0  0
 36 35  2  0  0  0  0
 36 38  1  0  0  0  0
 37 36  1  0  0  0  0
 38 40  2  0  0  0  0
 39 38  1  0  0  0  0
 40 41  1  0  0  0  0
 41 30  2  0  0  0  0
M  END
>  <minimizedAffinity>
-4.94512653

>  <minimizedRMSD>
0.420644492

$$$$
