
 OpenBabel03242510223D

 41 45  0  0  1  0  0  0  0  0999 V2000
   49.2000   33.9310   41.0690 C   0  0  2  0  0  0  0  0  0  0  0  0
   48.6730   35.4140   41.0060 C   0  0  0  0  0  0  0  0  0  0  0  0
   47.9310   34.2640   40.4110 C   0  0  1  0  0  0  0  0  0  0  0  0
   50.1130   33.8500   40.4460 H   0  0  0  0  0  0  0  0  0  0  0  0
   48.3180   35.8340   41.9720 H   0  0  0  0  0  0  0  0  0  0  0  0
   49.1340   36.0880   40.2910 H   0  0  0  0  0  0  0  0  0  0  0  0
   47.0430   33.8690   40.9650 H   0  0  0  0  0  0  0  0  0  0  0  0
   48.0630   33.2450   43.2010 N   0  0  0  0  0  0  0  0  0  0  0  0
   49.2350   33.2940   42.4460 C   0  0  0  0  0  0  0  0  0  0  0  0
   50.3930   32.8780   42.7040 O   0  0  0  0  0  0  0  0  0  0  0  0
   47.5320   34.1610   43.1390 H   0  0  0  0  0  0  0  0  0  0  0  0
   46.2930   32.1120   44.4940 C   0  0  1  0  0  0  0  0  0  0  0  0
   46.4500   31.3600   43.3250 C   0  0  0  0  0  0  0  0  0  0  0  0
   47.6700   32.0990   43.9450 C   0  0  1  0  0  0  0  0  0  0  0  0
   46.1070   31.6360   45.4910 H   0  0  0  0  0  0  0  0  0  0  0  0
   46.2440   31.5960   42.2660 H   0  0  0  0  0  0  0  0  0  0  0  0
   46.4710   30.2310   43.4370 H   0  0  0  0  0  0  0  0  0  0  0  0
   48.4650   31.3860   44.2140 H   0  0  0  0  0  0  0  0  0  0  0  0
   45.0660   33.9830   43.1720 C   0  0  0  0  0  0  0  0  0  0  0  0
   45.5500   33.4470   44.4090 C   0  0  0  0  0  0  0  0  0  0  0  0
   45.3430   34.1950   45.5510 C   0  0  0  0  0  0  0  0  0  0  0  0
   44.7010   35.3820   45.4490 N   0  0  0  0  0  0  0  0  0  0  0  0
   44.2480   35.8760   44.2650 C   0  0  0  0  0  0  0  0  0  0  0  0
   44.4430   35.1410   43.0880 N   0  0  0  0  0  0  0  0  0  0  0  0
   45.2480   33.3410   42.3600 H   0  0  0  0  0  0  0  0  0  0  0  0
   45.6940   33.8200   46.5010 H   0  0  0  0  0  0  0  0  0  0  0  0
   43.7380   36.8320   44.2120 H   0  0  0  0  0  0  0  0  0  0  0  0
   47.8790   34.1260   38.8960 C   0  0  0  0  0  0  0  0  0  0  0  0
   48.5630   34.9220   38.2240 O   0  0  0  0  0  0  0  0  0  0  0  0
   46.9820   33.0170   38.4650 C   0  0  0  0  0  0  0  0  0  0  0  0
   45.6400   33.1160   38.5230 N   0  0  0  0  0  0  0  0  0  0  0  0
   44.8330   32.1240   38.1370 C   0  0  0  0  0  3  0  0  0  0  0  0
   45.2730   30.9470   37.6620 N   0  0  0  0  0  0  0  0  0  0  0  0
   46.6020   30.7770   37.5760 C   0  0  0  0  0  0  0  0  0  0  0  0
   47.0850   29.5970   37.1000 C   0  0  0  0  0  3  0  0  0  0  0  0
   48.4380   29.3620   36.9880 C   0  0  0  0  0  0  0  0  0  0  0  0
   48.7850   28.4120   36.6050 H   0  0  0  0  0  0  0  0  0  0  0  0
   49.2920   30.3960   37.3900 C   0  0  0  0  0  0  0  0  0  0  0  0
   50.3380   30.1830   37.2910 H   0  0  0  0  0  0  0  0  0  0  0  0
   48.7640   31.5650   37.8630 C   0  0  0  0  0  3  0  0  0  0  0  0
   47.4180   31.8100   37.9780 C   0  0  0  0  0  0  0  0  0  0  0  0
  1  4  1  6  0  0  0
  1  9  1  0  0  0  0
  2  1  1  0  0  0  0
  2  5  1  0  0  0  0
  3  7  1  1  0  0  0
  3  2  1  0  0  0  0
  3  1  1  0  0  0  0
  6  2  1  0  0  0  0
  8 14  1  0  0  0  0
  9 10  2  0  0  0  0
  9  8  1  0  0  0  0
 11  8  1  0  0  0  0
 12 15  1  1  0  0  0
 13 17  1  0  0  0  0
 13 14  1  0  0  0  0
 13 12  1  0  0  0  0
 14 18  1  1  0  0  0
 14 12  1  0  0  0  0
 16 13  1  0  0  0  0
 19 20  1  0  0  0  0
 20 12  1  0  0  0  0
 20 21  2  0  0  0  0
 21 26  1  0  0  0  0
 22 21  1  0  0  0  0
 23 22  2  0  0  0  0
 24 19  2  0  0  0  0
 24 23  1  0  0  0  0
 25 19  1  0  0  0  0
 27 23  1  0  0  0  0
 28  3  1  0  0  0  0
 29 28  2  0  0  0  0
 30 31  1  0  0  0  0
 30 28  1  0  0  0  0
 32 31  2  0  0  0  0
 33 32  1  0  0  0  0
 34 33  2  0  0  0  0
 34 41  1  0  0  0  0
 35 34  1  0  0  0  0
 36 35  2  0  0  0  0
 36 38  1  0  0  0  0
 37 36  1  0  0  0  0
 38 40  2  0  0  0  0
 39 38  1  0  0  0  0
 40 41  1  0  0  0  0
 41 30  2  0  0  0  0
M  END
>  <minimizedAffinity>
-4.94551325

>  <minimizedRMSD>
0.874960303

$$$$
