
 OpenBabel03242510223D

 41 45  0  0  1  0  0  0  0  0999 V2000
   49.0310   33.5860   41.1540 C   0  0  2  0  0  0  0  0  0  0  0  0
   48.5030   35.0700   41.1870 C   0  0  0  0  0  0  0  0  0  0  0  0
   47.7370   33.9510   40.5650 C   0  0  1  0  0  0  0  0  0  0  0  0
   49.9180   33.5390   40.4910 H   0  0  0  0  0  0  0  0  0  0  0  0
   48.1870   35.4390   42.1870 H   0  0  0  0  0  0  0  0  0  0  0  0
   48.9340   35.7800   40.4900 H   0  0  0  0  0  0  0  0  0  0  0  0
   46.8720   33.5260   41.1340 H   0  0  0  0  0  0  0  0  0  0  0  0
   48.0450   32.9600   43.3770 N   0  0  0  0  0  0  0  0  0  0  0  0
   49.1220   32.8800   42.4940 C   0  0  0  0  0  0  0  0  0  0  0  0
   50.2260   32.2900   42.6020 O   0  0  0  0  0  0  0  0  0  0  0  0
   47.6510   33.9440   43.4100 H   0  0  0  0  0  0  0  0  0  0  0  0
   46.1820   31.9390   44.6330 C   0  0  1  0  0  0  0  0  0  0  0  0
   46.3270   31.1680   43.4750 C   0  0  0  0  0  0  0  0  0  0  0  0
   47.5700   31.8450   44.1200 C   0  0  1  0  0  0  0  0  0  0  0  0
   45.9450   31.4840   45.6290 H   0  0  0  0  0  0  0  0  0  0  0  0
   46.1620   31.4040   42.4090 H   0  0  0  0  0  0  0  0  0  0  0  0
   46.2830   30.0410   43.5970 H   0  0  0  0  0  0  0  0  0  0  0  0
   48.3170   31.0920   44.4160 H   0  0  0  0  0  0  0  0  0  0  0  0
   45.0750   33.8520   43.2660 C   0  0  0  0  0  0  0  0  0  0  0  0
   45.5170   33.3120   44.5170 C   0  0  0  0  0  0  0  0  0  0  0  0
   45.3420   34.0910   45.6440 C   0  0  0  0  0  0  0  0  0  0  0  0
   44.7690   35.3100   45.5150 N   0  0  0  0  0  0  0  0  0  0  0  0
   44.3550   35.8070   44.3170 C   0  0  0  0  0  0  0  0  0  0  0  0
   44.5190   35.0420   43.1560 N   0  0  0  0  0  0  0  0  0  0  0  0
   45.2270   33.1860   42.4680 H   0  0  0  0  0  0  0  0  0  0  0  0
   45.6630   33.7140   46.6040 H   0  0  0  0  0  0  0  0  0  0  0  0
   43.9000   36.7900   44.2430 H   0  0  0  0  0  0  0  0  0  0  0  0
   47.6230   33.8890   39.0490 C   0  0  0  0  0  0  0  0  0  0  0  0
   48.2960   34.7060   38.3900 O   0  0  0  0  0  0  0  0  0  0  0  0
   46.6900   32.8180   38.5990 C   0  0  0  0  0  0  0  0  0  0  0  0
   47.1100   31.7490   37.8980 N   0  0  0  0  0  0  0  0  0  0  0  0
   46.2760   30.7860   37.4940 C   0  0  0  0  0  3  0  0  0  0  0  0
   44.9560   30.7910   37.7430 N   0  0  0  0  0  0  0  0  0  0  0  0
   44.4660   31.8290   38.4390 C   0  0  0  0  0  0  0  0  0  0  0  0
   43.1320   31.8680   38.7110 C   0  0  0  0  0  3  0  0  0  0  0  0
   42.5690   32.9070   39.4210 C   0  0  0  0  0  0  0  0  0  0  0  0
   41.5060   32.9030   39.6170 H   0  0  0  0  0  0  0  0  0  0  0  0
   43.4340   33.9190   39.8480 C   0  0  0  0  0  0  0  0  0  0  0  0
   42.9670   34.7110   40.3970 H   0  0  0  0  0  0  0  0  0  0  0  0
   44.7680   33.8400   39.5530 C   0  0  0  0  0  3  0  0  0  0  0  0
   45.3390   32.8100   38.8470 C   0  0  0  0  0  0  0  0  0  0  0  0
  1  4  1  6  0  0  0
  1  2  1  0  0  0  0
  1  9  1  0  0  0  0
  2  5  1  0  0  0  0
  3  7  1  1  0  0  0
  3  1  1  0  0  0  0
  3  2  1  0  0  0  0
  6  2  1  0  0  0  0
  8 11  1  0  0  0  0
  8 14  1  0  0  0  0
  9 10  2  0  0  0  0
  9  8  1  0  0  0  0
 12 15  1  1  0  0  0
 13 17  1  0  0  0  0
 13 14  1  0  0  0  0
 13 12  1  0  0  0  0
 14 18  1  1  0  0  0
 14 12  1  0  0  0  0
 16 13  1  0  0  0  0
 19 20  1  0  0  0  0
 20 12  1  0  0  0  0
 20 21  2  0  0  0  0
 21 26  1  0  0  0  0
 22 21  1  0  0  0  0
 23 22  2  0  0  0  0
 24 19  2  0  0  0  0
 24 23  1  0  0  0  0
 25 19  1  0  0  0  0
 27 23  1  0  0  0  0
 28  3  1  0  0  0  0
 29 28  2  0  0  0  0
 30 41  1  0  0  0  0
 30 28  1  0  0  0  0
 31 30  2  0  0  0  0
 32 33  2  0  0  0  0
 32 31  1  0  0  0  0
 33 34  1  0  0  0  0
 34 35  2  0  0  0  0
 34 41  1  0  0  0  0
 35 36  1  0  0  0  0
 36 37  1  0  0  0  0
 36 38  2  0  0  0  0
 38 39  1  0  0  0  0
 40 38  1  0  0  0  0
 41 40  2  0  0  0  0
M  END
>  <minimizedAffinity>
-5.02999973

>  <minimizedRMSD>
0.906784356

$$$$
