
 OpenBabel03242510223D

 41 45  0  0  1  0  0  0  0  0999 V2000
   49.0640   33.7450   41.0850 C   0  0  2  0  0  0  0  0  0  0  0  0
   48.5490   35.2340   41.1040 C   0  0  0  0  0  0  0  0  0  0  0  0
   47.7760   34.1170   40.4870 C   0  0  1  0  0  0  0  0  0  0  0  0
   49.9540   33.6840   40.4280 H   0  0  0  0  0  0  0  0  0  0  0  0
   48.2310   35.6140   42.1000 H   0  0  0  0  0  0  0  0  0  0  0  0
   48.9910   35.9350   40.4040 H   0  0  0  0  0  0  0  0  0  0  0  0
   46.9040   33.7040   41.0540 H   0  0  0  0  0  0  0  0  0  0  0  0
   48.0370   33.0980   43.2850 N   0  0  0  0  0  0  0  0  0  0  0  0
   49.1400   33.0480   42.4310 C   0  0  0  0  0  0  0  0  0  0  0  0
   50.2600   32.4950   42.5730 O   0  0  0  0  0  0  0  0  0  0  0  0
   47.6110   34.0690   43.3010 H   0  0  0  0  0  0  0  0  0  0  0  0
   46.1860   32.0370   44.5240 C   0  0  1  0  0  0  0  0  0  0  0  0
   46.3530   31.2740   43.3640 C   0  0  0  0  0  0  0  0  0  0  0  0
   47.5790   31.9720   44.0210 C   0  0  1  0  0  0  0  0  0  0  0  0
   45.9500   31.5750   45.5170 H   0  0  0  0  0  0  0  0  0  0  0  0
   46.1910   31.5100   42.2980 H   0  0  0  0  0  0  0  0  0  0  0  0
   46.3300   30.1450   43.4830 H   0  0  0  0  0  0  0  0  0  0  0  0
   48.3380   31.2320   44.3190 H   0  0  0  0  0  0  0  0  0  0  0  0
   45.0210   33.9190   43.1600 C   0  0  0  0  0  0  0  0  0  0  0  0
   45.4950   33.3980   44.4080 C   0  0  0  0  0  0  0  0  0  0  0  0
   45.3280   34.1850   45.5300 C   0  0  0  0  0  0  0  0  0  0  0  0
   44.7330   35.3930   45.4000 N   0  0  0  0  0  0  0  0  0  0  0  0
   44.2890   35.8720   44.2060 C   0  0  0  0  0  0  0  0  0  0  0  0
   44.4430   35.0980   43.0500 N   0  0  0  0  0  0  0  0  0  0  0  0
   45.1690   33.2480   42.3660 H   0  0  0  0  0  0  0  0  0  0  0  0
   45.6740   33.8230   46.4870 H   0  0  0  0  0  0  0  0  0  0  0  0
   43.8150   36.8460   44.1320 H   0  0  0  0  0  0  0  0  0  0  0  0
   47.6700   34.0450   38.9700 C   0  0  0  0  0  0  0  0  0  0  0  0
   48.4690   34.7350   38.3070 O   0  0  0  0  0  0  0  0  0  0  0  0
   46.5860   33.1230   38.5270 C   0  0  0  0  0  0  0  0  0  0  0  0
   45.2970   33.3220   38.8590 N   0  0  0  0  0  0  0  0  0  0  0  0
   44.3220   32.4970   38.4640 C   0  0  0  0  0  3  0  0  0  0  0  0
   44.5300   31.4070   37.7070 N   0  0  0  0  0  0  0  0  0  0  0  0
   45.7940   31.1470   37.3380 C   0  0  0  0  0  0  0  0  0  0  0  0
   46.0430   30.0500   36.5710 C   0  0  0  0  0  3  0  0  0  0  0  0
   47.3190   29.7300   36.1600 C   0  0  0  0  0  0  0  0  0  0  0  0
   47.4780   28.8500   35.5510 H   0  0  0  0  0  0  0  0  0  0  0  0
   48.3470   30.5870   36.5700 C   0  0  0  0  0  0  0  0  0  0  0  0
   49.3260   30.3110   36.2350 H   0  0  0  0  0  0  0  0  0  0  0  0
   48.0510   31.6770   37.3400 C   0  0  0  0  0  3  0  0  0  0  0  0
   46.7850   32.0060   37.7540 C   0  0  0  0  0  0  0  0  0  0  0  0
  1  4  1  6  0  0  0
  1  2  1  0  0  0  0
  1  9  1  0  0  0  0
  2  5  1  0  0  0  0
  3  7  1  1  0  0  0
  3  1  1  0  0  0  0
  3  2  1  0  0  0  0
  6  2  1  0  0  0  0
  8 11  1  0  0  0  0
  8 14  1  0  0  0  0
  9 10  2  0  0  0  0
  9  8  1  0  0  0  0
 12 15  1  1  0  0  0
 13 17  1  0  0  0  0
 13 14  1  0  0  0  0
 13 12  1  0  0  0  0
 14 18  1  1  0  0  0
 14 12  1  0  0  0  0
 16 13  1  0  0  0  0
 19 20  1  0  0  0  0
 20 12  1  0  0  0  0
 20 21  2  0  0  0  0
 21 26  1  0  0  0  0
 22 21  1  0  0  0  0
 23 22  2  0  0  0  0
 24 19  2  0  0  0  0
 24 23  1  0  0  0  0
 25 19  1  0  0  0  0
 27 23  1  0  0  0  0
 28  3  1  0  0  0  0
 29 28  2  0  0  0  0
 30 31  1  0  0  0  0
 30 28  1  0  0  0  0
 32 31  2  0  0  0  0
 33 32  1  0  0  0  0
 34 33  2  0  0  0  0
 34 41  1  0  0  0  0
 35 34  1  0  0  0  0
 36 38  1  0  0  0  0
 36 35  2  0  0  0  0
 37 36  1  0  0  0  0
 38 40  2  0  0  0  0
 39 38  1  0  0  0  0
 40 41  1  0  0  0  0
 41 30  2  0  0  0  0
M  END
>  <minimizedAffinity>
-5.01795578

>  <minimizedRMSD>
0.201050997

$$$$
