
 OpenBabel03242520443D

 25 27  0  0  1  0  0  0  0  0999 V2000
   47.5490   34.7760   41.5790 C   0  0  2  0  0  3  0  0  0  0  0  0
   48.5540   35.5800   41.5090 O   0  0  0  0  0  1  0  0  0  0  0  0
   47.4360   34.3150   40.1900 C   0  0  0  0  0  0  0  0  0  0  0  0
   48.3330   34.7340   39.2830 N   0  0  0  0  0  0  0  0  0  0  0  0
   48.2950   34.3520   37.9640 C   0  0  0  0  0  3  0  0  0  0  0  0
   47.3420   33.5250   37.5150 N   0  0  0  0  0  0  0  0  0  0  0  0
   46.3900   33.0480   38.3590 C   0  0  0  0  0  0  0  0  0  0  0  0
   45.4120   32.1970   37.9080 C   0  0  0  0  0  3  0  0  0  0  0  0
   44.4550   31.7100   38.7630 C   0  0  0  0  0  0  0  0  0  0  0  0
   43.7420   31.0540   38.3030 H   0  0  0  0  0  0  0  0  0  0  0  0
   44.5260   32.1190   40.0940 C   0  0  0  0  0  0  0  0  0  0  0  0
   43.7630   31.7190   40.7360 H   0  0  0  0  0  0  0  0  0  0  0  0
   45.5260   32.9680   40.4740 C   0  0  0  0  0  3  0  0  0  0  0  0
   46.5030   33.4810   39.6610 C   0  0  0  0  0  0  0  0  0  0  0  0
   44.9310   35.1220   44.1760 C   0  0  0  0  0  0  0  0  0  0  0  0
   45.6840   35.3010   43.0150 C   0  0  0  0  0  0  0  0  0  0  0  0
   46.8650   34.5440   42.8120 C   0  0  0  0  0  0  0  0  0  0  0  0
   47.1830   33.6660   43.8080 N   0  0  0  0  0  0  0  0  0  0  0  0
   46.4380   33.5170   44.9150 C   0  0  0  0  0  0  0  0  0  0  0  0
   45.3270   34.2440   45.0810 N   0  0  0  0  0  0  0  0  0  0  0  0
   43.7570   35.8750   44.3690 N   0  0  0  0  0  0  0  0  0  0  0  0
   45.3630   36.0110   42.2870 H   0  0  0  0  0  0  0  0  0  0  0  0
   46.7920   32.7850   45.6390 H   0  0  0  0  0  0  0  0  0  0  0  0
   43.9900   36.8290   44.7510 H   0  0  0  0  0  0  0  0  0  0  0  0
   42.8110   35.4780   44.1420 H   0  0  0  0  0  0  0  0  0  0  0  0
  1  2  1  6  0  0  0
  1 17  1  0  0  0  0
  3  1  1  0  0  0  0
  4  3  2  0  0  0  0
  5  4  1  0  0  0  0
  6  5  2  0  0  0  0
  6  7  1  0  0  0  0
  7 14  1  0  0  0  0
  8  7  2  0  0  0  0
  8  9  1  0  0  0  0
  9 11  2  0  0  0  0
 10  9  1  0  0  0  0
 11 13  1  0  0  0  0
 11 12  1  0  0  0  0
 14  3  1  0  0  0  0
 14 13  2  0  0  0  0
 15 21  1  0  0  0  0
 15 20  1  0  0  0  0
 16 15  2  0  0  0  0
 17 16  1  0  0  0  0
 17 18  2  0  0  0  0
 18 19  1  0  0  0  0
 19 20  2  0  0  0  0
 19 23  1  0  0  0  0
 21 24  1  0  0  0  0
 22 16  1  0  0  0  0
 25 21  1  0  0  0  0
M  END
>  <minimizedAffinity>
-5.34234476

>  <minimizedRMSD>
0.393099189

$$$$
