
 OpenBabel03242520443D

 25 27  0  0  1  0  0  0  0  0999 V2000
   47.5490   34.7740   41.5770 C   0  0  2  0  0  3  0  0  0  0  0  0
   48.5540   35.5770   41.5070 O   0  0  0  0  0  1  0  0  0  0  0  0
   47.4350   34.3130   40.1880 C   0  0  0  0  0  0  0  0  0  0  0  0
   48.3310   34.7310   39.2800 N   0  0  0  0  0  0  0  0  0  0  0  0
   48.2930   34.3490   37.9620 C   0  0  0  0  0  3  0  0  0  0  0  0
   47.3390   33.5230   37.5140 N   0  0  0  0  0  0  0  0  0  0  0  0
   46.3870   33.0460   38.3580 C   0  0  0  0  0  0  0  0  0  0  0  0
   45.4090   32.1950   37.9080 C   0  0  0  0  0  3  0  0  0  0  0  0
   44.4510   31.7070   38.7630 C   0  0  0  0  0  0  0  0  0  0  0  0
   43.7390   31.0530   38.3040 H   0  0  0  0  0  0  0  0  0  0  0  0
   44.5250   32.1180   40.0950 C   0  0  0  0  0  0  0  0  0  0  0  0
   43.7610   31.7190   40.7360 H   0  0  0  0  0  0  0  0  0  0  0  0
   45.5230   32.9660   40.4740 C   0  0  0  0  0  3  0  0  0  0  0  0
   46.5010   33.4800   39.6590 C   0  0  0  0  0  0  0  0  0  0  0  0
   44.9310   35.1220   44.1750 C   0  0  0  0  0  0  0  0  0  0  0  0
   45.6840   35.3000   43.0130 C   0  0  0  0  0  0  0  0  0  0  0  0
   46.8650   34.5430   42.8100 C   0  0  0  0  0  0  0  0  0  0  0  0
   47.1830   33.6660   43.8070 N   0  0  0  0  0  0  0  0  0  0  0  0
   46.4380   33.5170   44.9140 C   0  0  0  0  0  0  0  0  0  0  0  0
   45.3270   34.2440   45.0800 N   0  0  0  0  0  0  0  0  0  0  0  0
   43.7570   35.8750   44.3670 N   0  0  0  0  0  0  0  0  0  0  0  0
   45.3630   36.0090   42.2840 H   0  0  0  0  0  0  0  0  0  0  0  0
   46.7930   32.7860   45.6390 H   0  0  0  0  0  0  0  0  0  0  0  0
   43.9900   36.8290   44.7480 H   0  0  0  0  0  0  0  0  0  0  0  0
   42.8110   35.4780   44.1400 H   0  0  0  0  0  0  0  0  0  0  0  0
  1  2  1  6  0  0  0
  1 17  1  0  0  0  0
  3  1  1  0  0  0  0
  4  3  2  0  0  0  0
  5  4  1  0  0  0  0
  6  5  2  0  0  0  0
  6  7  1  0  0  0  0
  7 14  1  0  0  0  0
  8  7  2  0  0  0  0
  8  9  1  0  0  0  0
  9 11  2  0  0  0  0
 10  9  1  0  0  0  0
 11 13  1  0  0  0  0
 11 12  1  0  0  0  0
 14  3  1  0  0  0  0
 14 13  2  0  0  0  0
 15 21  1  0  0  0  0
 15 20  1  0  0  0  0
 16 15  2  0  0  0  0
 17 16  1  0  0  0  0
 17 18  2  0  0  0  0
 18 19  1  0  0  0  0
 19 20  2  0  0  0  0
 19 23  1  0  0  0  0
 21 24  1  0  0  0  0
 22 16  1  0  0  0  0
 25 21  1  0  0  0  0
M  END
>  <minimizedAffinity>
-5.34295511

>  <minimizedRMSD>
0.601857781

$$$$
