REMARK  Name = 
REMARK  2 active torsions:
REMARK  status: ('A' for Active; 'I' for Inactive)
REMARK    1  A    between atoms: C_3  and  C_8
REMARK    2  A    between atoms: C_8  and  C_14
REMARK                            x       y       z     vdW  Elec       q    Type
REMARK                         _______ _______ _______ _____ _____    ______ ____
ROOT
ATOM      1  C   UNL     1      47.721  34.969  41.638  0.00  0.00    +0.000 C 
ATOM      2  O   UNL     1      48.684  35.825  41.657  0.00  0.00    +0.000 OA
ENDROOT
BRANCH   1   3
ATOM      3  C   UNL     1      47.735  34.532  40.236  0.00  0.00    +0.000 A 
ATOM      4  N   UNL     1      46.877  35.088  39.367  0.00  0.00    +0.000 NA
ATOM      5  C   UNL     1      46.824  34.734  38.040  0.00  0.00    +0.000 A 
ATOM      6  N   UNL     1      47.645  33.799  37.546  0.00  0.00    +0.000 NA
ATOM      7  C   UNL     1      48.549  33.181  38.349  0.00  0.00    +0.000 A 
ATOM      8  C   UNL     1      49.398  32.225  37.849  0.00  0.00    +0.000 A 
ATOM      9  C   UNL     1      50.316  31.605  38.660  0.00  0.00    +0.000 A 
ATOM     10  H   UNL     1      50.926  30.877  38.164  0.00  0.00    +0.000 HD
ATOM     11  C   UNL     1      50.340  31.992  40.000  0.00  0.00    +0.000 A 
ATOM     12  H   UNL     1      51.070  31.488  40.606  0.00  0.00    +0.000 HD
ATOM     13  C   UNL     1      49.467  32.948  40.431  0.00  0.00    +0.000 A 
ATOM     14  C   UNL     1      48.534  33.595  39.661  0.00  0.00    +0.000 A 
ENDBRANCH   1   3
BRANCH   1  17
ATOM     15  C   UNL     1      44.912  35.138  44.047  0.00  0.00    +0.000 A 
ATOM     16  C   UNL     1      45.738  35.379  42.948  0.00  0.00    +0.000 A 
ATOM     17  C   UNL     1      46.961  34.676  42.812  0.00  0.00    +0.000 A 
ATOM     18  N   UNL     1      47.244  33.785  43.807  0.00  0.00    +0.000 NA
ATOM     19  C   UNL     1      46.429  33.575  44.853  0.00  0.00    +0.000 A 
ATOM     20  N   UNL     1      45.280  34.252  44.956  0.00  0.00    +0.000 NA
ATOM     21  N   UNL     1      43.697  35.837  44.173  0.00  0.00    +0.000 N 
ATOM     22  H   UNL     1      45.440  36.095  42.216  0.00  0.00    +0.000 HD
ATOM     23  H   UNL     1      46.762  32.839  45.583  0.00  0.00    +0.000 HD
ATOM     24  H   UNL     1      43.862  36.789  44.594  0.00  0.00    +0.000 HD
ATOM     25  H   UNL     1      42.787  35.409  43.868  0.00  0.00    +0.000 HD
ENDBRANCH   1  17
TORSDOF 2
