
 OpenBabel03252506283D

 46 49  0  0  0  0  0  0  0  0999 V2000
   46.9340   30.3820   48.2490 C   0  0  0  0  0  0  0  0  0  0  0  0
   47.2690   31.1390   48.9870 H   0  0  0  0  0  0  0  0  0  0  0  0
   47.5190   29.4700   48.3450 H   0  0  0  0  0  0  0  0  0  0  0  0
   46.8620   32.3380   45.2640 C   0  0  0  0  0  0  0  0  0  0  0  0
   47.6060   31.2060   44.8510 C   0  0  0  0  0  0  0  0  0  0  0  0
   47.7160   30.3640   45.8970 C   0  0  0  0  0  0  0  0  0  0  0  0
   47.0670   30.9460   46.9170 N   0  0  0  0  0  0  0  0  0  0  0  0
   46.5560   32.1220   46.5470 N   0  0  0  0  0  0  0  0  0  0  0  0
   48.0470   30.9870   43.8660 H   0  0  0  0  0  0  0  0  0  0  0  0
   48.2250   29.3930   45.9340 H   0  0  0  0  0  0  0  0  0  0  0  0
   45.0460   35.1330   43.7830 C   0  0  0  0  0  0  0  0  0  0  0  0
   45.8870   35.5920   42.7820 C   0  0  0  0  0  0  0  0  0  0  0  0
   47.1020   34.9170   42.6220 C   0  0  0  0  0  0  0  0  0  0  0  0
   47.3670   33.8810   43.4420 N   0  0  0  0  0  0  0  0  0  0  0  0
   46.5450   33.4550   44.4000 C   0  0  0  0  0  0  0  0  0  0  0  0
   45.3670   34.1000   44.5630 N   0  0  0  0  0  0  0  0  0  0  0  0
   44.1120   35.6690   43.8890 H   0  0  0  0  0  0  0  0  0  0  0  0
   45.7090   36.4180   42.1050 H   0  0  0  0  0  0  0  0  0  0  0  0
   48.4030   33.1460   40.8220 N   0  0  0  0  0  0  0  0  0  0  0  0
   48.4000   34.4190   40.5220 C   0  0  0  0  0  0  0  0  0  0  0  0
   48.0680   35.2820   41.6270 N   0  0  0  0  0  0  0  0  0  0  0  0
   48.6730   35.0890   39.2730 N   0  0  0  0  0  0  0  0  0  0  0  0
   48.1700   34.5840   38.5040 H   0  0  0  0  0  0  0  0  0  0  0  0
   48.6270   32.4000   40.1150 H   0  0  0  0  0  0  0  0  0  0  0  0
   48.5290   36.2320   41.7530 H   0  0  0  0  0  0  0  0  0  0  0  0
   49.3080   35.9380   39.3490 H   0  0  0  0  0  0  0  0  0  0  0  0
   45.5040   30.0860   48.5470 C   0  0  0  0  0  0  0  0  0  0  0  0
   45.4020   29.9240   49.6400 H   0  0  0  0  0  0  0  0  0  0  0  0
   44.9170   31.0210   48.3300 H   0  0  0  0  0  0  0  0  0  0  0  0
   44.9140   27.6130   48.2190 C   0  0  0  0  0  0  0  0  0  0  0  0
   44.9140   28.9370   47.8600 C   0  0  0  0  0  0  0  0  0  0  0  0
   44.2580   29.2510   46.6640 C   0  0  0  0  0  0  0  0  0  0  0  0
   43.6530   28.2930   45.9000 C   0  0  0  0  0  0  0  0  0  0  0  0
   42.9660   28.3040   44.7350 N   0  0  0  0  0  0  0  0  0  0  0  0
   42.5690   27.0660   44.3990 C   0  0  0  0  0  0  0  0  0  0  0  0
   43.0000   26.1830   45.3690 C   0  0  0  0  0  0  0  0  0  0  0  0
   43.6610   26.9810   46.2720 C   0  0  0  0  0  0  0  0  0  0  0  0
   44.3040   26.6610   47.4460 C   0  0  0  0  0  0  0  0  0  0  0  0
   45.4320   27.4090   49.1510 H   0  0  0  0  0  0  0  0  0  0  0  0
   44.1830   30.2540   46.2660 H   0  0  0  0  0  0  0  0  0  0  0  0
   42.7660   29.1600   44.1660 H   0  0  0  0  0  0  0  0  0  0  0  0
   42.0030   26.8210   43.5090 H   0  0  0  0  0  0  0  0  0  0  0  0
   42.8160   25.1130   45.3490 H   0  0  0  0  0  0  0  0  0  0  0  0
   44.3410   25.2640   47.8870 C   0  0  0  0  0  0  0  0  0  0  0  0
   45.0990   24.8890   48.8270 O   0  0  0  0  0  0  0  0  0  0  0  0
   43.7210   24.5090   47.4220 H   0  0  0  0  0  0  0  0  0  0  0  0
  1  3  1  0  0  0  0
  1 27  1  0  0  0  0
  1  2  1  0  0  0  0
  4  8  2  0  0  0  0
  5  4  1  0  0  0  0
  5  6  2  0  0  0  0
  6 10  1  0  0  0  0
  6  7  1  0  0  0  0
  7  1  1  0  0  0  0
  8  7  1  0  0  0  0
  9  5  1  0  0  0  0
 11 17  1  0  0  0  0
 11 16  1  0  0  0  0
 12 11  2  0  0  0  0
 13 12  1  0  0  0  0
 13 14  2  0  0  0  0
 14 15  1  0  0  0  0
 15 16  2  0  0  0  0
 15  4  1  0  0  0  0
 18 12  1  0  0  0  0
 20 19  2  0  0  0  0
 20 21  1  0  0  0  0
 21 25  1  0  0  0  0
 21 13  1  0  0  0  0
 22 26  1  0  0  0  0
 22 20  1  0  0  0  0
 23 22  1  0  0  0  0
 24 19  1  0  0  0  0
 27 28  1  0  0  0  0
 29 27  1  0  0  0  0
 30 39  1  0  0  0  0
 31 30  1  0  0  0  0
 31 27  1  0  0  0  0
 32 31  2  0  0  0  0
 33 37  2  0  0  0  0
 33 32  1  0  0  0  0
 34 33  1  0  0  0  0
 35 34  1  0  0  0  0
 35 36  2  0  0  0  0
 36 37  1  0  0  0  0
 37 38  1  0  0  0  0
 38 44  1  0  0  0  0
 38 30  2  0  0  0  0
 40 32  1  0  0  0  0
 41 34  1  0  0  0  0
 42 35  1  0  0  0  0
 43 36  1  0  0  0  0
 44 45  2  0  0  0  0
 46 44  1  0  0  0  0
M  END
>  <minimizedAffinity>
-5.53752851

>  <minimizedRMSD>
0.865290821

$$$$
