
 OpenBabel03252500563D

 37 38  0  0  0  0  0  0  0  0999 V2000
   43.6330   35.1610   40.2230 O   0  0  0  0  0  0  0  0  0  0  0  0
   43.2090   34.8360   41.6500 P   0  0  1  0  0  0  0  0  0  0  0  0
   43.2530   33.1620   41.8640 O   0  0  0  0  0  0  0  0  0  0  0  0
   42.4240   32.7730   42.1980 H   0  0  0  0  0  0  0  0  0  0  0  0
   44.3170   35.5300   42.7260 O   0  0  0  0  0  0  0  0  0  0  0  0
   46.3710   34.4380   43.1150 C   0  0  0  0  0  0  0  0  0  0  0  0
   45.1460   34.8430   43.6050 C   0  0  0  0  0  0  0  0  0  0  0  0
   44.8380   34.5330   44.9370 C   0  0  0  0  0  0  0  0  0  0  0  0
   45.7610   33.8570   45.6570 N   0  0  0  0  0  0  0  0  0  0  0  0
   46.9410   33.4750   45.1600 C   0  0  0  0  0  0  0  0  0  0  0  0
   47.2470   33.7660   43.8870 N   0  0  0  0  0  0  0  0  0  0  0  0
   43.8800   34.8730   45.2510 H   0  0  0  0  0  0  0  0  0  0  0  0
   47.6330   32.9330   45.8020 H   0  0  0  0  0  0  0  0  0  0  0  0
   46.7600   34.7260   41.7360 C   0  0  0  0  0  0  0  0  0  0  0  0
   46.7320   33.8350   41.0620 H   0  0  0  0  0  0  0  0  0  0  0  0
   46.0610   35.4670   41.2850 H   0  0  0  0  0  0  0  0  0  0  0  0
   48.1530   35.2940   41.7230 C   0  0  0  0  0  0  0  0  0  0  0  0
   48.8230   34.5440   42.2050 H   0  0  0  0  0  0  0  0  0  0  0  0
   48.5060   35.5400   40.7010 H   0  0  0  0  0  0  0  0  0  0  0  0
   48.1650   36.1870   42.3780 H   0  0  0  0  0  0  0  0  0  0  0  0
   41.6140   35.3490   41.9210 O   0  0  0  0  0  0  0  0  0  0  0  0
   40.5850   34.6100   41.3660 C   0  0  0  0  0  0  0  0  0  0  0  0
   39.8140   35.2080   40.3830 C   0  0  0  0  0  0  0  0  0  0  0  0
   38.7640   34.5550   39.7650 C   0  0  0  0  0  0  0  0  0  0  0  0
   38.4910   33.2850   40.1460 N   0  0  0  0  0  0  0  0  0  0  0  0
   39.2350   32.6930   41.1020 C   0  0  0  0  0  0  0  0  0  0  0  0
   40.2440   33.3550   41.6770 N   0  0  0  0  0  0  0  0  0  0  0  0
   40.0070   36.2120   40.0610 H   0  0  0  0  0  0  0  0  0  0  0  0
   38.1750   35.0300   39.0060 H   0  0  0  0  0  0  0  0  0  0  0  0
   37.2220   31.0360   40.0310 N   0  0  0  0  0  0  0  0  0  0  0  0
   37.7280   30.6970   41.1860 C   0  0  0  0  0  0  0  0  0  0  0  0
   38.9560   31.3410   41.5170 N   0  0  0  0  0  0  0  0  0  0  0  0
   37.2300   29.7710   42.1730 N   0  0  0  0  0  0  0  0  0  0  0  0
   37.7200   28.9020   42.4150 H   0  0  0  0  0  0  0  0  0  0  0  0
   36.3480   30.6740   39.6350 H   0  0  0  0  0  0  0  0  0  0  0  0
   39.7010   30.8370   42.0830 H   0  0  0  0  0  0  0  0  0  0  0  0
   36.3260   30.1020   42.5950 H   0  0  0  0  0  0  0  0  0  0  0  0
  2  1  2  6  0  0  0
  2  3  1  0  0  0  0
  2 21  1  0  0  0  0
  2  5  1  0  0  0  0
  3  4  1  0  0  0  0
  5  7  1  0  0  0  0
  6  7  2  0  0  0  0
  6 11  1  0  0  0  0
  7  8  1  0  0  0  0
  8 12  1  0  0  0  0
  8  9  2  0  0  0  0
 10  9  1  0  0  0  0
 10 13  1  0  0  0  0
 11 10  2  0  0  0  0
 14  6  1  0  0  0  0
 15 14  1  0  0  0  0
 16 14  1  0  0  0  0
 17 14  1  0  0  0  0
 17 18  1  0  0  0  0
 17 20  1  0  0  0  0
 19 17  1  0  0  0  0
 22 27  1  0  0  0  0
 22 21  1  0  0  0  0
 23 22  2  0  0  0  0
 24 25  2  0  0  0  0
 24 23  1  0  0  0  0
 25 26  1  0  0  0  0
 26 32  1  0  0  0  0
 26 27  2  0  0  0  0
 28 23  1  0  0  0  0
 29 24  1  0  0  0  0
 30 31  2  0  0  0  0
 31 32  1  0  0  0  0
 31 33  1  0  0  0  0
 32 36  1  0  0  0  0
 33 34  1  0  0  0  0
 33 37  1  0  0  0  0
 35 30  1  0  0  0  0
M  END
>  <minimizedAffinity>
-5.46120214

>  <minimizedRMSD>
0.383063704

$$$$
