
 OpenBabel03252506283D

 46 49  0  0  0  0  0  0  0  0999 V2000
   47.2110   30.3910   47.7920 C   0  0  0  0  0  0  0  0  0  0  0  0
   47.6760   31.1240   48.4830 H   0  0  0  0  0  0  0  0  0  0  0  0
   47.7440   29.4430   47.8250 H   0  0  0  0  0  0  0  0  0  0  0  0
   46.8410   32.3110   44.8050 C   0  0  0  0  0  0  0  0  0  0  0  0
   47.6180   31.2160   44.3520 C   0  0  0  0  0  0  0  0  0  0  0  0
   47.8400   30.3920   45.3950 C   0  0  0  0  0  0  0  0  0  0  0  0
   47.2280   30.9490   46.4500 N   0  0  0  0  0  0  0  0  0  0  0  0
   46.6310   32.0910   46.1070 N   0  0  0  0  0  0  0  0  0  0  0  0
   48.0060   31.0120   43.3420 H   0  0  0  0  0  0  0  0  0  0  0  0
   48.4030   29.4500   45.4040 H   0  0  0  0  0  0  0  0  0  0  0  0
   45.2010   35.3820   43.7200 C   0  0  0  0  0  0  0  0  0  0  0  0
   45.5540   35.5020   42.3850 C   0  0  0  0  0  0  0  0  0  0  0  0
   46.3730   34.4980   41.8580 C   0  0  0  0  0  0  0  0  0  0  0  0
   46.7580   33.4980   42.6740 N   0  0  0  0  0  0  0  0  0  0  0  0
   46.4090   33.4000   43.9570 C   0  0  0  0  0  0  0  0  0  0  0  0
   45.6160   34.3650   44.4770 N   0  0  0  0  0  0  0  0  0  0  0  0
   44.5670   36.1690   44.1060 H   0  0  0  0  0  0  0  0  0  0  0  0
   45.2640   36.2890   41.6990 H   0  0  0  0  0  0  0  0  0  0  0  0
   48.8780   35.4390   40.9050 N   0  0  0  0  0  0  0  0  0  0  0  0
   48.2030   34.6260   40.1330 C   0  0  0  0  0  0  0  0  0  0  0  0
   46.8150   34.4930   40.4940 N   0  0  0  0  0  0  0  0  0  0  0  0
   48.6250   33.8540   38.9900 N   0  0  0  0  0  0  0  0  0  0  0  0
   49.5340   33.3860   39.2170 H   0  0  0  0  0  0  0  0  0  0  0  0
   49.9020   35.6340   40.7620 H   0  0  0  0  0  0  0  0  0  0  0  0
   46.0540   34.3830   39.7590 H   0  0  0  0  0  0  0  0  0  0  0  0
   47.9680   33.8930   38.1550 H   0  0  0  0  0  0  0  0  0  0  0  0
   45.8090   30.1880   48.2520 C   0  0  0  0  0  0  0  0  0  0  0  0
   45.8130   30.1100   49.3600 H   0  0  0  0  0  0  0  0  0  0  0  0
   45.2420   31.1330   48.0250 H   0  0  0  0  0  0  0  0  0  0  0  0
   45.0560   27.7380   48.1950 C   0  0  0  0  0  0  0  0  0  0  0  0
   45.1040   29.0230   47.7180 C   0  0  0  0  0  0  0  0  0  0  0  0
   44.3780   29.2720   46.5470 C   0  0  0  0  0  0  0  0  0  0  0  0
   43.6640   28.2910   45.9180 C   0  0  0  0  0  0  0  0  0  0  0  0
   42.8920   28.2440   44.8090 N   0  0  0  0  0  0  0  0  0  0  0  0
   42.4010   27.0080   44.6160 C   0  0  0  0  0  0  0  0  0  0  0  0
   42.8540   26.1880   45.6310 C   0  0  0  0  0  0  0  0  0  0  0  0
   43.6260   27.0180   46.4070 C   0  0  0  0  0  0  0  0  0  0  0  0
   44.3360   26.7620   47.5580 C   0  0  0  0  0  0  0  0  0  0  0  0
   45.6300   27.5840   49.1030 H   0  0  0  0  0  0  0  0  0  0  0  0
   44.3300   30.2390   46.0640 H   0  0  0  0  0  0  0  0  0  0  0  0
   42.6990   29.0580   44.1780 H   0  0  0  0  0  0  0  0  0  0  0  0
   41.7570   26.7230   43.7940 H   0  0  0  0  0  0  0  0  0  0  0  0
   42.6090   25.1350   45.7210 H   0  0  0  0  0  0  0  0  0  0  0  0
   44.3270   25.4100   48.1210 C   0  0  0  0  0  0  0  0  0  0  0  0
   45.0400   25.1070   49.1210 O   0  0  0  0  0  0  0  0  0  0  0  0
   43.7100   24.6280   47.7000 H   0  0  0  0  0  0  0  0  0  0  0  0
  1  3  1  0  0  0  0
  1 27  1  0  0  0  0
  1  2  1  0  0  0  0
  4  8  2  0  0  0  0
  5  4  1  0  0  0  0
  5  6  2  0  0  0  0
  6 10  1  0  0  0  0
  6  7  1  0  0  0  0
  7  1  1  0  0  0  0
  8  7  1  0  0  0  0
  9  5  1  0  0  0  0
 11 17  1  0  0  0  0
 11 16  1  0  0  0  0
 12 11  2  0  0  0  0
 13 12  1  0  0  0  0
 13 14  2  0  0  0  0
 14 15  1  0  0  0  0
 15 16  2  0  0  0  0
 15  4  1  0  0  0  0
 18 12  1  0  0  0  0
 20 21  1  0  0  0  0
 20 19  2  0  0  0  0
 21 13  1  0  0  0  0
 22 23  1  0  0  0  0
 22 20  1  0  0  0  0
 24 19  1  0  0  0  0
 25 21  1  0  0  0  0
 26 22  1  0  0  0  0
 27 28  1  0  0  0  0
 29 27  1  0  0  0  0
 30 39  1  0  0  0  0
 31 30  1  0  0  0  0
 31 27  1  0  0  0  0
 32 31  2  0  0  0  0
 33 37  2  0  0  0  0
 33 32  1  0  0  0  0
 34 33  1  0  0  0  0
 35 34  1  0  0  0  0
 35 36  2  0  0  0  0
 36 43  1  0  0  0  0
 36 37  1  0  0  0  0
 37 38  1  0  0  0  0
 38 44  1  0  0  0  0
 38 30  2  0  0  0  0
 40 32  1  0  0  0  0
 41 34  1  0  0  0  0
 42 35  1  0  0  0  0
 44 45  2  0  0  0  0
 46 44  1  0  0  0  0
M  END
>  <minimizedAffinity>
-5.70509863

>  <minimizedRMSD>
1.04448354

$$$$
