
 OpenBabel03252506283D

 46 49  0  0  0  0  0  0  0  0999 V2000
   47.3640   30.3380   47.8360 C   0  0  0  0  0  0  0  0  0  0  0  0
   47.8640   31.0640   48.5100 H   0  0  0  0  0  0  0  0  0  0  0  0
   47.8930   29.3870   47.8390 H   0  0  0  0  0  0  0  0  0  0  0  0
   46.8820   32.2860   44.8830 C   0  0  0  0  0  0  0  0  0  0  0  0
   47.6180   31.1820   44.3860 C   0  0  0  0  0  0  0  0  0  0  0  0
   47.8770   30.3470   45.4110 C   0  0  0  0  0  0  0  0  0  0  0  0
   47.3260   30.9060   46.4980 N   0  0  0  0  0  0  0  0  0  0  0  0
   46.7310   32.0600   46.1920 N   0  0  0  0  0  0  0  0  0  0  0  0
   47.9540   30.9790   43.3570 H   0  0  0  0  0  0  0  0  0  0  0  0
   48.4240   29.3960   45.3870 H   0  0  0  0  0  0  0  0  0  0  0  0
   45.1800   35.3510   43.8800 C   0  0  0  0  0  0  0  0  0  0  0  0
   45.5300   35.5130   42.5480 C   0  0  0  0  0  0  0  0  0  0  0  0
   46.3690   34.5410   41.9950 C   0  0  0  0  0  0  0  0  0  0  0  0
   46.7740   33.5270   42.7840 N   0  0  0  0  0  0  0  0  0  0  0  0
   46.4280   33.3880   44.0630 C   0  0  0  0  0  0  0  0  0  0  0  0
   45.6160   34.3230   44.6090 N   0  0  0  0  0  0  0  0  0  0  0  0
   44.5310   36.1150   44.2870 H   0  0  0  0  0  0  0  0  0  0  0  0
   45.2240   36.3120   41.8840 H   0  0  0  0  0  0  0  0  0  0  0  0
   48.9030   35.4410   41.0800 N   0  0  0  0  0  0  0  0  0  0  0  0
   48.2020   34.6840   40.2730 C   0  0  0  0  0  0  0  0  0  0  0  0
   46.8100   34.5800   40.6310 N   0  0  0  0  0  0  0  0  0  0  0  0
   48.5970   33.9490   39.0980 N   0  0  0  0  0  0  0  0  0  0  0  0
   49.4920   33.4420   39.3030 H   0  0  0  0  0  0  0  0  0  0  0  0
   49.9320   35.6090   40.9420 H   0  0  0  0  0  0  0  0  0  0  0  0
   46.0460   34.5270   39.8930 H   0  0  0  0  0  0  0  0  0  0  0  0
   47.9410   34.0450   38.2670 H   0  0  0  0  0  0  0  0  0  0  0  0
   45.9830   30.1400   48.3550 C   0  0  0  0  0  0  0  0  0  0  0  0
   46.0460   29.9370   49.4450 H   0  0  0  0  0  0  0  0  0  0  0  0
   45.4470   31.1250   48.2690 H   0  0  0  0  0  0  0  0  0  0  0  0
   45.1270   27.7400   48.0670 C   0  0  0  0  0  0  0  0  0  0  0  0
   45.1970   29.0700   47.7400 C   0  0  0  0  0  0  0  0  0  0  0  0
   44.4050   29.4810   46.6600 C   0  0  0  0  0  0  0  0  0  0  0  0
   43.6110   28.6060   45.9740 C   0  0  0  0  0  0  0  0  0  0  0  0
   42.7660   28.7170   44.9240 N   0  0  0  0  0  0  0  0  0  0  0  0
   42.2130   27.5300   44.6240 C   0  0  0  0  0  0  0  0  0  0  0  0
   42.6980   26.5800   45.5010 C   0  0  0  0  0  0  0  0  0  0  0  0
   43.5530   27.2860   46.3130 C   0  0  0  0  0  0  0  0  0  0  0  0
   44.3270   26.8720   47.3720 C   0  0  0  0  0  0  0  0  0  0  0  0
   45.7540   27.4600   48.9070 H   0  0  0  0  0  0  0  0  0  0  0  0
   44.3650   30.5000   46.2990 H   0  0  0  0  0  0  0  0  0  0  0  0
   42.5650   29.6060   44.4080 H   0  0  0  0  0  0  0  0  0  0  0  0
   41.5040   27.3660   43.8220 H   0  0  0  0  0  0  0  0  0  0  0  0
   42.4160   25.5320   45.4860 H   0  0  0  0  0  0  0  0  0  0  0  0
   44.3000   25.4620   47.7740 C   0  0  0  0  0  0  0  0  0  0  0  0
   44.9710   25.0450   48.7610 O   0  0  0  0  0  0  0  0  0  0  0  0
   43.7050   24.7350   47.2380 H   0  0  0  0  0  0  0  0  0  0  0  0
  1  3  1  0  0  0  0
  1 27  1  0  0  0  0
  1  2  1  0  0  0  0
  4  8  2  0  0  0  0
  5  4  1  0  0  0  0
  5  6  2  0  0  0  0
  6  7  1  0  0  0  0
  7  1  1  0  0  0  0
  8  7  1  0  0  0  0
  9  5  1  0  0  0  0
 10  6  1  0  0  0  0
 11 17  1  0  0  0  0
 11 16  1  0  0  0  0
 12 11  2  0  0  0  0
 13 12  1  0  0  0  0
 13 14  2  0  0  0  0
 14 15  1  0  0  0  0
 15 16  2  0  0  0  0
 15  4  1  0  0  0  0
 18 12  1  0  0  0  0
 20 21  1  0  0  0  0
 20 19  2  0  0  0  0
 21 13  1  0  0  0  0
 22 23  1  0  0  0  0
 22 20  1  0  0  0  0
 24 19  1  0  0  0  0
 25 21  1  0  0  0  0
 26 22  1  0  0  0  0
 27 28  1  0  0  0  0
 29 27  1  0  0  0  0
 30 39  1  0  0  0  0
 31 30  1  0  0  0  0
 31 27  1  0  0  0  0
 32 31  2  0  0  0  0
 33 37  2  0  0  0  0
 33 32  1  0  0  0  0
 34 33  1  0  0  0  0
 35 34  1  0  0  0  0
 35 36  2  0  0  0  0
 36 37  1  0  0  0  0
 37 38  1  0  0  0  0
 38 44  1  0  0  0  0
 38 30  2  0  0  0  0
 40 32  1  0  0  0  0
 41 34  1  0  0  0  0
 42 35  1  0  0  0  0
 43 36  1  0  0  0  0
 44 45  2  0  0  0  0
 46 44  1  0  0  0  0
M  END
>  <minimizedAffinity>
-5.73468971

>  <minimizedRMSD>
1.1382339

$$$$
