
 OpenBabel03252506283D

 46 49  0  0  0  0  0  0  0  0999 V2000
   47.2140   30.3900   47.7910 C   0  0  0  0  0  0  0  0  0  0  0  0
   47.6790   31.1230   48.4810 H   0  0  0  0  0  0  0  0  0  0  0  0
   47.7460   29.4420   47.8230 H   0  0  0  0  0  0  0  0  0  0  0  0
   46.8430   32.3100   44.8040 C   0  0  0  0  0  0  0  0  0  0  0  0
   47.6190   31.2150   44.3510 C   0  0  0  0  0  0  0  0  0  0  0  0
   47.8410   30.3910   45.3930 C   0  0  0  0  0  0  0  0  0  0  0  0
   47.2300   30.9480   46.4490 N   0  0  0  0  0  0  0  0  0  0  0  0
   46.6330   32.0910   46.1060 N   0  0  0  0  0  0  0  0  0  0  0  0
   48.0060   31.0110   43.3400 H   0  0  0  0  0  0  0  0  0  0  0  0
   48.4040   29.4490   45.4020 H   0  0  0  0  0  0  0  0  0  0  0  0
   45.2030   35.3820   43.7190 C   0  0  0  0  0  0  0  0  0  0  0  0
   45.5550   35.5010   42.3840 C   0  0  0  0  0  0  0  0  0  0  0  0
   46.3740   34.4980   41.8570 C   0  0  0  0  0  0  0  0  0  0  0  0
   46.7590   33.4970   42.6730 N   0  0  0  0  0  0  0  0  0  0  0  0
   46.4100   33.3990   43.9550 C   0  0  0  0  0  0  0  0  0  0  0  0
   45.6180   34.3650   44.4760 N   0  0  0  0  0  0  0  0  0  0  0  0
   44.5690   36.1690   44.1060 H   0  0  0  0  0  0  0  0  0  0  0  0
   45.2650   36.2890   41.6990 H   0  0  0  0  0  0  0  0  0  0  0  0
   48.8780   35.4410   40.9040 N   0  0  0  0  0  0  0  0  0  0  0  0
   48.2040   34.6280   40.1310 C   0  0  0  0  0  0  0  0  0  0  0  0
   46.8160   34.4920   40.4930 N   0  0  0  0  0  0  0  0  0  0  0  0
   48.6250   33.8540   38.9880 N   0  0  0  0  0  0  0  0  0  0  0  0
   49.5360   33.3870   39.2150 H   0  0  0  0  0  0  0  0  0  0  0  0
   49.9020   35.6370   40.7590 H   0  0  0  0  0  0  0  0  0  0  0  0
   46.0550   34.3820   39.7580 H   0  0  0  0  0  0  0  0  0  0  0  0
   47.9690   33.8930   38.1550 H   0  0  0  0  0  0  0  0  0  0  0  0
   45.8120   30.1870   48.2510 C   0  0  0  0  0  0  0  0  0  0  0  0
   45.8170   30.1090   49.3590 H   0  0  0  0  0  0  0  0  0  0  0  0
   45.2450   31.1320   48.0250 H   0  0  0  0  0  0  0  0  0  0  0  0
   45.0580   27.7370   48.1940 C   0  0  0  0  0  0  0  0  0  0  0  0
   45.1060   29.0230   47.7170 C   0  0  0  0  0  0  0  0  0  0  0  0
   44.3790   29.2730   46.5470 C   0  0  0  0  0  0  0  0  0  0  0  0
   43.6640   28.2920   45.9190 C   0  0  0  0  0  0  0  0  0  0  0  0
   42.8910   28.2460   44.8100 N   0  0  0  0  0  0  0  0  0  0  0  0
   42.4000   27.0100   44.6180 C   0  0  0  0  0  0  0  0  0  0  0  0
   42.8530   26.1890   45.6310 C   0  0  0  0  0  0  0  0  0  0  0  0
   43.6260   27.0190   46.4070 C   0  0  0  0  0  0  0  0  0  0  0  0
   44.3380   26.7620   47.5570 C   0  0  0  0  0  0  0  0  0  0  0  0
   45.6340   27.5830   49.1010 H   0  0  0  0  0  0  0  0  0  0  0  0
   44.3310   30.2400   46.0650 H   0  0  0  0  0  0  0  0  0  0  0  0
   42.6970   29.0600   44.1800 H   0  0  0  0  0  0  0  0  0  0  0  0
   41.7540   26.7250   43.7960 H   0  0  0  0  0  0  0  0  0  0  0  0
   42.6080   25.1360   45.7220 H   0  0  0  0  0  0  0  0  0  0  0  0
   44.3290   25.4090   48.1200 C   0  0  0  0  0  0  0  0  0  0  0  0
   45.0380   25.1080   49.1230 O   0  0  0  0  0  0  0  0  0  0  0  0
   43.7160   24.6260   47.6950 H   0  0  0  0  0  0  0  0  0  0  0  0
  1  3  1  0  0  0  0
  1 27  1  0  0  0  0
  1  2  1  0  0  0  0
  4  8  2  0  0  0  0
  5  4  1  0  0  0  0
  5  6  2  0  0  0  0
  6 10  1  0  0  0  0
  6  7  1  0  0  0  0
  7  1  1  0  0  0  0
  8  7  1  0  0  0  0
  9  5  1  0  0  0  0
 11 17  1  0  0  0  0
 11 16  1  0  0  0  0
 12 11  2  0  0  0  0
 13 12  1  0  0  0  0
 13 14  2  0  0  0  0
 14 15  1  0  0  0  0
 15 16  2  0  0  0  0
 15  4  1  0  0  0  0
 18 12  1  0  0  0  0
 20 21  1  0  0  0  0
 20 19  2  0  0  0  0
 21 13  1  0  0  0  0
 22 23  1  0  0  0  0
 22 20  1  0  0  0  0
 24 19  1  0  0  0  0
 25 21  1  0  0  0  0
 26 22  1  0  0  0  0
 27 28  1  0  0  0  0
 29 27  1  0  0  0  0
 30 39  1  0  0  0  0
 31 30  1  0  0  0  0
 31 27  1  0  0  0  0
 32 31  2  0  0  0  0
 33 37  2  0  0  0  0
 33 32  1  0  0  0  0
 34 33  1  0  0  0  0
 35 34  1  0  0  0  0
 35 36  2  0  0  0  0
 36 43  1  0  0  0  0
 36 37  1  0  0  0  0
 37 38  1  0  0  0  0
 38 44  1  0  0  0  0
 38 30  2  0  0  0  0
 40 32  1  0  0  0  0
 41 34  1  0  0  0  0
 42 35  1  0  0  0  0
 44 45  2  0  0  0  0
 46 44  1  0  0  0  0
M  END
>  <minimizedAffinity>
-5.71023846

>  <minimizedRMSD>
1.13055301

$$$$
