
 OpenBabel03252507533D

 37 39  0  0  1  0  0  0  0  0999 V2000
   46.8420   34.5300   42.1680 C   0  0  2  0  0  0  0  0  0  0  0  0
   45.9860   34.3870   40.9380 C   0  0  0  0  0  0  0  0  0  0  0  0
   47.0860   33.9500   39.9490 C   0  0  0  0  0  0  0  0  0  0  0  0
   48.0170   33.0900   40.7690 C   0  0  1  0  0  0  0  0  0  0  0  0
   47.4900   33.1410   42.1610 C   0  0  0  0  0  0  0  0  0  0  0  0
   47.5530   35.3340   42.0060 H   0  0  0  0  0  0  0  0  0  0  0  0
   45.4900   35.3140   40.6150 H   0  0  0  0  0  0  0  0  0  0  0  0
   45.3310   33.5200   41.0550 H   0  0  0  0  0  0  0  0  0  0  0  0
   46.6010   33.3430   39.1520 H   0  0  0  0  0  0  0  0  0  0  0  0
   47.6080   34.8450   39.5780 H   0  0  0  0  0  0  0  0  0  0  0  0
   49.0240   33.5070   40.7450 H   0  0  0  0  0  0  0  0  0  0  0  0
   48.2140   33.0700   42.9700 H   0  0  0  0  0  0  0  0  0  0  0  0
   46.5630   32.5600   42.3280 H   0  0  0  0  0  0  0  0  0  0  0  0
   44.4880   35.9240   44.7670 C   0  0  0  0  0  0  0  0  0  0  0  0
   45.1720   35.8130   43.5410 C   0  0  0  0  0  0  0  0  0  0  0  0
   46.0590   34.7300   43.4100 C   0  0  0  0  0  0  0  0  0  0  0  0
   46.2300   33.8330   44.4590 N   0  0  0  0  0  0  0  0  0  0  0  0
   45.5360   34.0060   45.6100 C   0  0  0  0  0  0  0  0  0  0  0  0
   44.6810   35.0310   45.7630 N   0  0  0  0  0  0  0  0  0  0  0  0
   43.7950   36.7470   44.9050 H   0  0  0  0  0  0  0  0  0  0  0  0
   45.0400   36.5060   42.7330 H   0  0  0  0  0  0  0  0  0  0  0  0
   45.7510   33.2480   46.3520 H   0  0  0  0  0  0  0  0  0  0  0  0
   48.0370   31.6480   40.3770 C   0  0  2  0  0  0  0  0  0  0  0  0
   47.7850   30.6500   41.4060 C   0  0  0  0  0  0  0  0  0  0  0  0
   49.0950   30.7130   40.6470 C   0  0  2  0  0  0  0  0  0  0  0  0
   47.4750   31.5190   39.4100 H   0  0  0  0  0  0  0  0  0  0  0  0
   47.1340   29.7740   41.0920 H   0  0  0  0  0  0  0  0  0  0  0  0
   47.9930   30.5550   42.4400 H   0  0  0  0  0  0  0  0  0  0  0  0
   49.2870   29.9080   39.8760 H   0  0  0  0  0  0  0  0  0  0  0  0
   51.3000   31.7850   39.1620 N   0  0  0  0  0  0  0  0  0  0  0  0
   51.3730   31.6370   40.4600 C   0  0  0  0  0  0  0  0  0  0  0  0
   50.3340   31.0830   41.2930 N   0  0  0  0  0  0  0  0  0  0  0  0
   52.6560   32.1330   40.7970 N   0  0  0  0  0  0  0  0  0  0  0  0
   52.9830   33.0960   40.6500 H   0  0  0  0  0  0  0  0  0  0  0  0
   50.4650   31.5080   38.6030 H   0  0  0  0  0  0  0  0  0  0  0  0
   50.7810   31.0920   42.2460 H   0  0  0  0  0  0  0  0  0  0  0  0
   53.4390   31.5920   41.2350 H   0  0  0  0  0  0  0  0  0  0  0  0
  1  6  1  6  0  0  0
  1 16  1  0  0  0  0
  2  8  1  0  0  0  0
  2  1  1  0  0  0  0
  3  4  1  0  0  0  0
  3  2  1  0  0  0  0
  4 11  1  6  0  0  0
  4  5  1  0  0  0  0
  5  1  1  0  0  0  0
  5 13  1  0  0  0  0
  5 12  1  0  0  0  0
  7  2  1  0  0  0  0
  9  3  1  0  0  0  0
 10  3  1  0  0  0  0
 14 20  1  0  0  0  0
 14 19  1  0  0  0  0
 15 14  2  0  0  0  0
 16 15  1  0  0  0  0
 16 17  2  0  0  0  0
 17 18  1  0  0  0  0
 18 19  2  0  0  0  0
 18 22  1  0  0  0  0
 21 15  1  0  0  0  0
 23 26  1  6  0  0  0
 23 25  1  0  0  0  0
 23  4  1  0  0  0  0
 23 24  1  0  0  0  0
 24 28  1  0  0  0  0
 25 29  1  6  0  0  0
 25 32  1  0  0  0  0
 25 24  1  0  0  0  0
 27 24  1  0  0  0  0
 30 31  2  0  0  0  0
 31 33  1  0  0  0  0
 31 32  1  0  0  0  0
 32 36  1  0  0  0  0
 33 37  1  0  0  0  0
 34 33  1  0  0  0  0
 35 30  1  0  0  0  0
M  END
>  <minimizedAffinity>
-5.02072001

>  <minimizedRMSD>
2.25844908

$$$$
