
 OpenBabel03242521213D

 35 37  0  0  0  0  0  0  0  0999 V2000
   45.0280   33.9660   40.4030 C   0  0  0  0  0  0  0  0  0  0  0  0
   43.8000   34.4850   40.7140 C   0  0  0  0  0  0  0  0  0  0  0  0
   42.7140   34.4370   39.8530 C   0  0  0  0  0  0  0  0  0  0  0  0
   42.8960   33.8310   38.6180 C   0  0  0  0  0  0  0  0  0  0  0  0
   44.1340   33.3190   38.3310 C   0  0  0  0  0  0  0  0  0  0  0  0
   45.2200   33.3550   39.1680 C   0  0  0  0  0  0  0  0  0  0  0  0
   43.6210   34.9680   41.6720 H   0  0  0  0  0  0  0  0  0  0  0  0
   41.7700   34.8610   40.1450 H   0  0  0  0  0  0  0  0  0  0  0  0
   42.0500   33.7950   37.9490 H   0  0  0  0  0  0  0  0  0  0  0  0
   44.2030   32.8670   37.3560 H   0  0  0  0  0  0  0  0  0  0  0  0
   46.9300   33.5490   43.5070 C   0  0  0  0  0  0  0  0  0  0  0  0
   48.0500   34.2270   43.1940 C   0  0  0  0  0  0  0  0  0  0  0  0
   48.2540   34.8460   41.9870 C   0  0  0  0  0  0  0  0  0  0  0  0
   47.2500   34.7450   41.0950 N   0  0  0  0  0  0  0  0  0  0  0  0
   46.1300   34.0700   41.4040 C   0  0  0  0  0  0  0  0  0  0  0  0
   45.9330   33.4640   42.5880 N   0  0  0  0  0  0  0  0  0  0  0  0
   48.8330   34.2840   43.9370 H   0  0  0  0  0  0  0  0  0  0  0  0
   49.1600   35.3890   41.7450 H   0  0  0  0  0  0  0  0  0  0  0  0
   45.8300   32.9260   46.9600 C   0  0  0  0  0  0  0  0  0  0  0  0
   46.4180   31.6970   47.2370 C   0  0  0  0  0  0  0  0  0  0  0  0
   47.1890   31.0740   46.2550 C   0  0  0  0  0  0  0  0  0  0  0  0
   47.3340   31.7080   45.0510 N   0  0  0  0  0  0  0  0  0  0  0  0
   46.7520   32.9010   44.8080 C   0  0  0  0  0  0  0  0  0  0  0  0
   46.0200   33.4880   45.7450 N   0  0  0  0  0  0  0  0  0  0  0  0
   45.2390   33.3850   47.7350 H   0  0  0  0  0  0  0  0  0  0  0  0
   46.3390   31.1570   48.1580 H   0  0  0  0  0  0  0  0  0  0  0  0
   47.7010   30.1290   46.3260 H   0  0  0  0  0  0  0  0  0  0  0  0
   47.0320   34.1270   37.0380 N   0  0  0  0  0  0  0  0  0  0  0  0
   47.4790   33.5030   38.1040 C   0  0  0  0  0  0  0  0  0  0  0  0
   46.4970   32.8220   38.8450 N   0  0  0  0  0  0  0  0  0  0  0  0
   48.8490   33.4630   38.5550 N   0  0  0  0  0  0  0  0  0  0  0  0
   49.1550   32.5700   39.0010 H   0  0  0  0  0  0  0  0  0  0  0  0
   47.7110   34.6460   36.4530 H   0  0  0  0  0  0  0  0  0  0  0  0
   46.7250   31.8430   39.1900 H   0  0  0  0  0  0  0  0  0  0  0  0
   49.3290   34.3880   38.3440 H   0  0  0  0  0  0  0  0  0  0  0  0
  1  2  1  0  0  0  0
  1 15  1  0  0  0  0
  2  7  1  0  0  0  0
  3  8  1  0  0  0  0
  3  2  2  0  0  0  0
  4  3  1  0  0  0  0
  5  4  2  0  0  0  0
  5  6  1  0  0  0  0
  6  1  2  0  0  0  0
  9  4  1  0  0  0  0
 10  5  1  0  0  0  0
 11 23  1  0  0  0  0
 12 11  1  0  0  0  0
 12 17  1  0  0  0  0
 13 12  2  0  0  0  0
 14 15  2  0  0  0  0
 14 13  1  0  0  0  0
 15 16  1  0  0  0  0
 16 11  2  0  0  0  0
 18 13  1  0  0  0  0
 19 20  1  0  0  0  0
 19 25  1  0  0  0  0
 20 26  1  0  0  0  0
 21 27  1  0  0  0  0
 21 20  2  0  0  0  0
 22 21  1  0  0  0  0
 23 22  2  0  0  0  0
 23 24  1  0  0  0  0
 24 19  2  0  0  0  0
 28 29  2  0  0  0  0
 29 31  1  0  0  0  0
 29 30  1  0  0  0  0
 30  6  1  0  0  0  0
 30 34  1  0  0  0  0
 31 32  1  0  0  0  0
 33 28  1  0  0  0  0
 35 31  1  0  0  0  0
M  END
>  <minimizedAffinity>
-5.41900539

>  <minimizedRMSD>
4.28355455

$$$$
