
 OpenBabel03252500573D

 37 38  0  0  0  0  0  0  0  0999 V2000
   43.7040   34.8880   40.1570 O   0  0  0  0  0  0  0  0  0  0  0  0
   43.2550   34.7310   41.6050 P   0  0  1  0  0  0  0  0  0  0  0  0
   43.1650   33.0860   41.9710 O   0  0  0  0  0  0  0  0  0  0  0  0
   42.3070   32.7960   42.3330 H   0  0  0  0  0  0  0  0  0  0  0  0
   44.4140   35.4310   42.6210 O   0  0  0  0  0  0  0  0  0  0  0  0
   46.4870   34.3810   43.0260 C   0  0  0  0  0  0  0  0  0  0  0  0
   45.2460   34.7530   43.5040 C   0  0  0  0  0  0  0  0  0  0  0  0
   44.9280   34.4200   44.8270 C   0  0  0  0  0  0  0  0  0  0  0  0
   45.8560   33.7570   45.5530 N   0  0  0  0  0  0  0  0  0  0  0  0
   47.0510   33.4080   45.0690 C   0  0  0  0  0  0  0  0  0  0  0  0
   47.3680   33.7210   43.8030 N   0  0  0  0  0  0  0  0  0  0  0  0
   43.9580   34.7350   45.1320 H   0  0  0  0  0  0  0  0  0  0  0  0
   47.7460   32.8740   45.7140 H   0  0  0  0  0  0  0  0  0  0  0  0
   46.8890   34.6940   41.6560 C   0  0  0  0  0  0  0  0  0  0  0  0
   46.9130   33.8060   40.9780 H   0  0  0  0  0  0  0  0  0  0  0  0
   46.1650   35.4050   41.1960 H   0  0  0  0  0  0  0  0  0  0  0  0
   48.2550   35.3250   41.6720 C   0  0  0  0  0  0  0  0  0  0  0  0
   48.9480   34.6030   42.1630 H   0  0  0  0  0  0  0  0  0  0  0  0
   48.6150   35.5910   40.6580 H   0  0  0  0  0  0  0  0  0  0  0  0
   48.2130   36.2130   42.3320 H   0  0  0  0  0  0  0  0  0  0  0  0
   41.7060   35.3930   41.8140 O   0  0  0  0  0  0  0  0  0  0  0  0
   40.6290   34.7270   41.2570 C   0  0  0  0  0  0  0  0  0  0  0  0
   40.0220   35.2910   40.1480 C   0  0  0  0  0  0  0  0  0  0  0  0
   38.9400   34.7060   39.5170 C   0  0  0  0  0  0  0  0  0  0  0  0
   38.4680   33.5380   40.0150 N   0  0  0  0  0  0  0  0  0  0  0  0
   39.0520   32.9810   41.0940 C   0  0  0  0  0  0  0  0  0  0  0  0
   40.0970   33.5750   41.6780 N   0  0  0  0  0  0  0  0  0  0  0  0
   40.3730   36.2140   39.7320 H   0  0  0  0  0  0  0  0  0  0  0  0
   38.4800   35.1530   38.6600 H   0  0  0  0  0  0  0  0  0  0  0  0
   37.8610   30.9070   39.6010 N   0  0  0  0  0  0  0  0  0  0  0  0
   37.6740   30.9000   40.8930 C   0  0  0  0  0  0  0  0  0  0  0  0
   38.5600   31.7370   41.6330 N   0  0  0  0  0  0  0  0  0  0  0  0
   36.7070   30.1750   41.6800 N   0  0  0  0  0  0  0  0  0  0  0  0
   36.9720   29.4460   42.3510 H   0  0  0  0  0  0  0  0  0  0  0  0
   37.3180   30.3670   38.9190 H   0  0  0  0  0  0  0  0  0  0  0  0
   38.8820   31.4630   42.6080 H   0  0  0  0  0  0  0  0  0  0  0  0
   35.7250   30.4910   41.4760 H   0  0  0  0  0  0  0  0  0  0  0  0
  2  1  2  6  0  0  0
  2 21  1  0  0  0  0
  2  3  1  0  0  0  0
  2  5  1  0  0  0  0
  3  4  1  0  0  0  0
  5  7  1  0  0  0  0
  6  7  2  0  0  0  0
  6 11  1  0  0  0  0
  7  8  1  0  0  0  0
  8 12  1  0  0  0  0
  8  9  2  0  0  0  0
 10  9  1  0  0  0  0
 10 13  1  0  0  0  0
 11 10  2  0  0  0  0
 14 17  1  0  0  0  0
 14  6  1  0  0  0  0
 15 14  1  0  0  0  0
 16 14  1  0  0  0  0
 17 18  1  0  0  0  0
 17 20  1  0  0  0  0
 19 17  1  0  0  0  0
 22 27  1  0  0  0  0
 22 21  1  0  0  0  0
 23 22  2  0  0  0  0
 24 25  2  0  0  0  0
 24 23  1  0  0  0  0
 25 26  1  0  0  0  0
 26 32  1  0  0  0  0
 26 27  2  0  0  0  0
 28 23  1  0  0  0  0
 29 24  1  0  0  0  0
 30 31  2  0  0  0  0
 31 32  1  0  0  0  0
 31 33  1  0  0  0  0
 32 36  1  0  0  0  0
 33 34  1  0  0  0  0
 35 30  1  0  0  0  0
 37 33  1  0  0  0  0
M  END
>  <minimizedAffinity>
-6.15578461

>  <minimizedRMSD>
0.0834160522

$$$$
