
 OpenBabel03252500563D

 37 38  0  0  0  0  0  0  0  0999 V2000
   43.6950   34.8030   40.1350 O   0  0  0  0  0  0  0  0  0  0  0  0
   43.2450   34.7150   41.5880 P   0  0  1  0  0  0  0  0  0  0  0  0
   43.0980   33.0890   42.0160 O   0  0  0  0  0  0  0  0  0  0  0  0
   42.2320   32.8420   42.3890 H   0  0  0  0  0  0  0  0  0  0  0  0
   44.4290   35.4120   42.5770 O   0  0  0  0  0  0  0  0  0  0  0  0
   46.4980   34.3590   42.9950 C   0  0  0  0  0  0  0  0  0  0  0  0
   45.2560   34.7360   43.4660 C   0  0  0  0  0  0  0  0  0  0  0  0
   44.9310   34.4100   44.7890 C   0  0  0  0  0  0  0  0  0  0  0  0
   45.8550   33.7480   45.5210 N   0  0  0  0  0  0  0  0  0  0  0  0
   47.0510   33.3930   45.0430 C   0  0  0  0  0  0  0  0  0  0  0  0
   47.3740   33.7000   43.7780 N   0  0  0  0  0  0  0  0  0  0  0  0
   43.9610   34.7290   45.0890 H   0  0  0  0  0  0  0  0  0  0  0  0
   47.7420   32.8610   45.6940 H   0  0  0  0  0  0  0  0  0  0  0  0
   46.9050   34.6650   41.6240 C   0  0  0  0  0  0  0  0  0  0  0  0
   46.9540   33.7700   40.9570 H   0  0  0  0  0  0  0  0  0  0  0  0
   46.1720   35.3560   41.1500 H   0  0  0  0  0  0  0  0  0  0  0  0
   48.2580   35.3230   41.6460 C   0  0  0  0  0  0  0  0  0  0  0  0
   48.9620   34.6210   42.1510 H   0  0  0  0  0  0  0  0  0  0  0  0
   48.6220   35.5860   40.6320 H   0  0  0  0  0  0  0  0  0  0  0  0
   48.1930   36.2180   42.2950 H   0  0  0  0  0  0  0  0  0  0  0  0
   41.7190   35.4370   41.7740 O   0  0  0  0  0  0  0  0  0  0  0  0
   40.6370   34.8510   41.1430 C   0  0  0  0  0  0  0  0  0  0  0  0
   40.1830   35.4260   39.9680 C   0  0  0  0  0  0  0  0  0  0  0  0
   39.1090   34.9180   39.2610 C   0  0  0  0  0  0  0  0  0  0  0  0
   38.4890   33.8180   39.7490 N   0  0  0  0  0  0  0  0  0  0  0  0
   38.9220   33.2500   40.8910 C   0  0  0  0  0  0  0  0  0  0  0  0
   39.9640   33.7690   41.5490 N   0  0  0  0  0  0  0  0  0  0  0  0
   40.6540   36.2970   39.5580 H   0  0  0  0  0  0  0  0  0  0  0  0
   38.7680   35.3730   38.3530 H   0  0  0  0  0  0  0  0  0  0  0  0
   39.2280   30.6260   39.9100 N   0  0  0  0  0  0  0  0  0  0  0  0
   38.1990   30.8630   40.6780 C   0  0  0  0  0  0  0  0  0  0  0  0
   38.2710   32.0780   41.4220 N   0  0  0  0  0  0  0  0  0  0  0  0
   37.0040   30.0840   40.8840 N   0  0  0  0  0  0  0  0  0  0  0  0
   36.7750   29.6460   41.7840 H   0  0  0  0  0  0  0  0  0  0  0  0
   39.3420   29.8030   39.3080 H   0  0  0  0  0  0  0  0  0  0  0  0
   37.8440   32.1500   42.3930 H   0  0  0  0  0  0  0  0  0  0  0  0
   36.4200   30.0300   40.0110 H   0  0  0  0  0  0  0  0  0  0  0  0
  2  1  2  6  0  0  0
  2 21  1  0  0  0  0
  2  3  1  0  0  0  0
  2  5  1  0  0  0  0
  3  4  1  0  0  0  0
  5  7  1  0  0  0  0
  6  7  2  0  0  0  0
  6 11  1  0  0  0  0
  7  8  1  0  0  0  0
  8 12  1  0  0  0  0
  8  9  2  0  0  0  0
 10  9  1  0  0  0  0
 10 13  1  0  0  0  0
 11 10  2  0  0  0  0
 14 17  1  0  0  0  0
 14  6  1  0  0  0  0
 15 14  1  0  0  0  0
 16 14  1  0  0  0  0
 17 18  1  0  0  0  0
 17 20  1  0  0  0  0
 19 17  1  0  0  0  0
 22 27  1  0  0  0  0
 22 21  1  0  0  0  0
 23 22  2  0  0  0  0
 24 25  2  0  0  0  0
 24 23  1  0  0  0  0
 25 26  1  0  0  0  0
 26 32  1  0  0  0  0
 26 27  2  0  0  0  0
 28 23  1  0  0  0  0
 29 24  1  0  0  0  0
 30 31  2  0  0  0  0
 31 33  1  0  0  0  0
 31 32  1  0  0  0  0
 32 36  1  0  0  0  0
 33 34  1  0  0  0  0
 35 30  1  0  0  0  0
 37 33  1  0  0  0  0
M  END
>  <minimizedAffinity>
-5.90548658

>  <minimizedRMSD>
0.290967375

$$$$
