REMARK  Name = 
REMARK  6 active torsions:
REMARK  status: ('A' for Active; 'I' for Inactive)
REMARK    1  A    between atoms: C_1  and  C_22
REMARK    2  A    between atoms: C_5  and  C_7
REMARK    3  A    between atoms: C_12  and  O_13
REMARK    4  A    between atoms: O_13  and  P_15
REMARK    5  A    between atoms: P_15  and  O_16
REMARK    6  A    between atoms: P_15  and  O_17
REMARK                            x       y       z     vdW  Elec       q    Type
REMARK                         _______ _______ _______ _____ _____    ______ ____
ROOT
ATOM      1  C   UNL     1      45.386  33.830  45.581  0.00  0.00    +0.000 A 
ATOM      2  C   UNL     1      44.812  35.037  45.816  0.00  0.00    +0.000 A 
ATOM      3  C   UNL     1      44.338  35.874  44.837  0.00  0.00    +0.000 A 
ATOM      4  N   UNL     1      44.474  35.424  43.570  0.00  0.00    +0.000 NA
ATOM      5  C   UNL     1      45.037  34.239  43.320  0.00  0.00    +0.000 A 
ATOM      6  N   UNL     1      45.501  33.420  44.288  0.00  0.00    +0.000 NA
ATOM      7  H   UNL     1      44.735  35.336  46.853  0.00  0.00    +0.000 HD
ATOM      8  H   UNL     1      43.882  36.834  45.025  0.00  0.00    +0.000 HD
ENDROOT
BRANCH   1  13
ATOM      9  C   UNL     1      45.579  32.090  48.795  0.00  0.00    +0.000 A 
ATOM     10  C   UNL     1      46.774  31.369  48.650  0.00  0.00    +0.000 A 
ATOM     11  C   UNL     1      47.502  31.474  47.479  0.00  0.00    +0.000 A 
ATOM     12  N   UNL     1      47.017  32.291  46.496  0.00  0.00    +0.000 NA
ATOM     13  C   UNL     1      45.873  32.974  46.648  0.00  0.00    +0.000 A 
ATOM     14  N   UNL     1      45.167  32.871  47.786  0.00  0.00    +0.000 NA
ATOM     15  H   UNL     1      44.968  32.048  49.686  0.00  0.00    +0.000 HD
ATOM     16  H   UNL     1      47.090  30.745  49.473  0.00  0.00    +0.000 HD
ATOM     17  N   UNL     1      50.207  32.552  47.517  0.00  0.00    +0.000 NA
ATOM     18  C   UNL     1      49.924  31.329  47.752  0.00  0.00    +0.000 C 
ATOM     19  N   UNL     1      48.704  30.745  47.359  0.00  0.00    +0.000 N 
ATOM     20  N   UNL     1      50.911  30.530  48.443  0.00  0.00    +0.000 N 
ATOM     21  H   UNL     1      51.629  29.998  48.947  0.00  0.00    +0.000 HD
ATOM     22  H   UNL     1      49.527  33.154  47.021  0.00  0.00    +0.000 HD
ATOM     23  H   UNL     1      48.699  29.777  46.985  0.00  0.00    +0.000 HD
ATOM     24  H   UNL     1      51.670  30.993  48.995  0.00  0.00    +0.000 HD
ENDBRANCH   1  13
BRANCH   5  25
ATOM     25  C   UNL     1      45.178  33.762  41.925  0.00  0.00    +0.000 A 
ATOM     26  C   UNL     1      44.201  32.970  41.370  0.00  0.00    +0.000 A 
ATOM     27  C   UNL     1      44.237  32.471  40.075  0.00  0.00    +0.000 A 
ATOM     28  C   UNL     1      45.340  32.808  39.309  0.00  0.00    +0.000 A 
ATOM     29  C   UNL     1      46.310  33.595  39.860  0.00  0.00    +0.000 A 
ATOM     30  C   UNL     1      46.270  34.086  41.143  0.00  0.00    +0.000 A 
ATOM     31  H   UNL     1      43.322  32.691  41.955  0.00  0.00    +0.000 HD
ATOM     32  H   UNL     1      43.469  31.856  39.656  0.00  0.00    +0.000 HD
ATOM     33  H   UNL     1      45.490  32.489  38.293  0.00  0.00    +0.000 HD
ATOM     34  H   UNL     1      47.194  33.879  39.282  0.00  0.00    +0.000 HD
BRANCH  30  35
ATOM     35  O   UNL     1      47.227  34.874  41.716  0.00  0.00    +0.000 OA
BRANCH  35  37
ATOM     36  O   UNL     1      49.637  35.525  42.488  0.00  0.00    +0.000 OA
ATOM     37  P   UNL     1      48.882  34.870  41.327  0.00  0.00    +0.000 P 
BRANCH  37  38
ATOM     38  O   UNL     1      49.510  33.372  40.969  0.00  0.00    +0.000 OA
ATOM     39  H   UNL     1      49.964  33.314  40.106  0.00  0.00    +0.000 HD
ENDBRANCH  37  38
BRANCH  37  40
ATOM     40  O   UNL     1      49.105  35.888  39.986  0.00  0.00    +0.000 OA
ATOM     41  H   UNL     1      49.118  35.313  39.179  0.00  0.00    +0.000 HD
ENDBRANCH  37  40
ENDBRANCH  35  37
ENDBRANCH  30  35
ENDBRANCH   5  25
TORSDOF 6
