
 OpenBabel03252506283D

 46 49  0  0  0  0  0  0  0  0999 V2000
   46.9050   30.4230   48.2080 C   0  0  0  0  0  0  0  0  0  0  0  0
   47.2620   31.1430   48.9720 H   0  0  0  0  0  0  0  0  0  0  0  0
   47.5120   29.5200   48.2200 H   0  0  0  0  0  0  0  0  0  0  0  0
   46.6140   32.5300   45.3400 C   0  0  0  0  0  0  0  0  0  0  0  0
   47.4200   31.4750   44.8450 C   0  0  0  0  0  0  0  0  0  0  0  0
   47.6160   30.5880   45.8390 C   0  0  0  0  0  0  0  0  0  0  0  0
   46.9610   31.0670   46.9060 N   0  0  0  0  0  0  0  0  0  0  0  0
   46.3610   32.2230   46.6170 N   0  0  0  0  0  0  0  0  0  0  0  0
   47.8450   31.3420   43.8380 H   0  0  0  0  0  0  0  0  0  0  0  0
   48.1910   29.6530   45.8080 H   0  0  0  0  0  0  0  0  0  0  0  0
   44.8470   35.5590   44.3380 C   0  0  0  0  0  0  0  0  0  0  0  0
   45.3630   35.8540   43.0850 C   0  0  0  0  0  0  0  0  0  0  0  0
   46.3390   34.9850   42.5860 C   0  0  0  0  0  0  0  0  0  0  0  0
   46.7040   33.9340   43.3470 N   0  0  0  0  0  0  0  0  0  0  0  0
   46.1970   33.6670   44.5500 C   0  0  0  0  0  0  0  0  0  0  0  0
   45.2520   34.5010   45.0420 N   0  0  0  0  0  0  0  0  0  0  0  0
   44.0950   36.2440   44.7040 H   0  0  0  0  0  0  0  0  0  0  0  0
   45.0950   36.6860   42.4460 H   0  0  0  0  0  0  0  0  0  0  0  0
   49.1080   35.4000   42.1100 N   0  0  0  0  0  0  0  0  0  0  0  0
   48.3750   34.9960   41.1040 C   0  0  0  0  0  0  0  0  0  0  0  0
   46.9590   35.1660   41.3060 N   0  0  0  0  0  0  0  0  0  0  0  0
   48.7560   34.4160   39.8400 N   0  0  0  0  0  0  0  0  0  0  0  0
   49.4830   33.6800   40.0130 H   0  0  0  0  0  0  0  0  0  0  0  0
   50.1580   35.3370   42.1050 H   0  0  0  0  0  0  0  0  0  0  0  0
   46.3100   35.4350   40.5090 H   0  0  0  0  0  0  0  0  0  0  0  0
   48.2570   34.8180   38.9930 H   0  0  0  0  0  0  0  0  0  0  0  0
   45.4980   30.0790   48.5560 C   0  0  0  0  0  0  0  0  0  0  0  0
   45.4470   29.8860   49.6490 H   0  0  0  0  0  0  0  0  0  0  0  0
   44.8770   31.0020   48.3900 H   0  0  0  0  0  0  0  0  0  0  0  0
   44.9080   27.6070   48.2190 C   0  0  0  0  0  0  0  0  0  0  0  0
   44.9110   28.9320   47.8640 C   0  0  0  0  0  0  0  0  0  0  0  0
   44.2600   29.2490   46.6660 C   0  0  0  0  0  0  0  0  0  0  0  0
   43.6590   28.2930   45.8970 C   0  0  0  0  0  0  0  0  0  0  0  0
   42.9770   28.3080   44.7290 N   0  0  0  0  0  0  0  0  0  0  0  0
   42.5810   27.0700   44.3870 C   0  0  0  0  0  0  0  0  0  0  0  0
   43.0080   26.1840   45.3570 C   0  0  0  0  0  0  0  0  0  0  0  0
   43.6650   26.9800   46.2650 C   0  0  0  0  0  0  0  0  0  0  0  0
   44.3020   26.6570   47.4410 C   0  0  0  0  0  0  0  0  0  0  0  0
   45.4220   27.4000   49.1530 H   0  0  0  0  0  0  0  0  0  0  0  0
   44.1870   30.2530   46.2700 H   0  0  0  0  0  0  0  0  0  0  0  0
   42.7800   29.1650   44.1610 H   0  0  0  0  0  0  0  0  0  0  0  0
   42.0200   26.8280   43.4940 H   0  0  0  0  0  0  0  0  0  0  0  0
   42.8240   25.1150   45.3330 H   0  0  0  0  0  0  0  0  0  0  0  0
   44.3360   25.2590   47.8790 C   0  0  0  0  0  0  0  0  0  0  0  0
   45.0940   24.8800   48.8190 O   0  0  0  0  0  0  0  0  0  0  0  0
   43.7160   24.5060   47.4120 H   0  0  0  0  0  0  0  0  0  0  0  0
  1  3  1  0  0  0  0
  1 27  1  0  0  0  0
  1  2  1  0  0  0  0
  4  8  2  0  0  0  0
  5  4  1  0  0  0  0
  5  6  2  0  0  0  0
  6  7  1  0  0  0  0
  7  1  1  0  0  0  0
  8  7  1  0  0  0  0
  9  5  1  0  0  0  0
 10  6  1  0  0  0  0
 11 17  1  0  0  0  0
 11 16  1  0  0  0  0
 12 11  2  0  0  0  0
 13 12  1  0  0  0  0
 13 14  2  0  0  0  0
 14 15  1  0  0  0  0
 15 16  2  0  0  0  0
 15  4  1  0  0  0  0
 18 12  1  0  0  0  0
 20 21  1  0  0  0  0
 20 19  2  0  0  0  0
 21 13  1  0  0  0  0
 22 23  1  0  0  0  0
 22 20  1  0  0  0  0
 24 19  1  0  0  0  0
 25 21  1  0  0  0  0
 26 22  1  0  0  0  0
 27 28  1  0  0  0  0
 29 27  1  0  0  0  0
 30 39  1  0  0  0  0
 31 30  1  0  0  0  0
 31 27  1  0  0  0  0
 32 31  2  0  0  0  0
 33 37  2  0  0  0  0
 33 32  1  0  0  0  0
 34 33  1  0  0  0  0
 35 34  1  0  0  0  0
 35 36  2  0  0  0  0
 36 37  1  0  0  0  0
 37 38  1  0  0  0  0
 38 44  1  0  0  0  0
 38 30  2  0  0  0  0
 40 32  1  0  0  0  0
 41 34  1  0  0  0  0
 42 35  1  0  0  0  0
 43 36  1  0  0  0  0
 44 45  2  0  0  0  0
 46 44  1  0  0  0  0
M  END
>  <minimizedAffinity>
-5.66153574

>  <minimizedRMSD>
0.581292748

$$$$
