
 OpenBabel03252500573D

 37 38  0  0  0  0  0  0  0  0999 V2000
   43.7920   35.1260   39.5540 O   0  0  0  0  0  0  0  0  0  0  0  0
   43.6530   34.4730   40.9240 P   0  0  1  0  0  0  0  0  0  0  0  0
   44.0330   32.8340   40.7870 O   0  0  0  0  0  0  0  0  0  0  0  0
   43.3490   32.2270   41.1250 H   0  0  0  0  0  0  0  0  0  0  0  0
   44.7620   35.1810   41.9880 O   0  0  0  0  0  0  0  0  0  0  0  0
   46.8520   34.2860   42.6180 C   0  0  0  0  0  0  0  0  0  0  0  0
   45.5280   34.5130   42.9370 C   0  0  0  0  0  0  0  0  0  0  0  0
   45.0670   34.0580   44.1790 C   0  0  0  0  0  0  0  0  0  0  0  0
   45.9480   33.4250   44.9870 N   0  0  0  0  0  0  0  0  0  0  0  0
   47.2250   33.2160   44.6560 C   0  0  0  0  0  0  0  0  0  0  0  0
   47.6780   33.6480   43.4690 N   0  0  0  0  0  0  0  0  0  0  0  0
   44.0400   34.2650   44.3630 H   0  0  0  0  0  0  0  0  0  0  0  0
   47.8730   32.6980   45.3590 H   0  0  0  0  0  0  0  0  0  0  0  0
   47.4030   34.7320   41.3390 C   0  0  0  0  0  0  0  0  0  0  0  0
   47.6300   33.8990   40.6300 H   0  0  0  0  0  0  0  0  0  0  0  0
   46.6720   35.3860   40.8120 H   0  0  0  0  0  0  0  0  0  0  0  0
   48.6670   35.5090   41.5890 C   0  0  0  0  0  0  0  0  0  0  0  0
   49.3660   34.8390   42.1420 H   0  0  0  0  0  0  0  0  0  0  0  0
   49.1330   35.8810   40.6550 H   0  0  0  0  0  0  0  0  0  0  0  0
   48.4250   36.3420   42.2790 H   0  0  0  0  0  0  0  0  0  0  0  0
   42.0480   34.5860   41.4680 O   0  0  0  0  0  0  0  0  0  0  0  0
   41.0350   34.2250   40.5990 C   0  0  0  0  0  0  0  0  0  0  0  0
   39.8520   34.9420   40.6490 C   0  0  0  0  0  0  0  0  0  0  0  0
   38.7790   34.6610   39.8240 C   0  0  0  0  0  0  0  0  0  0  0  0
   38.9060   33.6440   38.9390 N   0  0  0  0  0  0  0  0  0  0  0  0
   40.0530   32.9400   38.8820 C   0  0  0  0  0  0  0  0  0  0  0  0
   41.0700   33.2390   39.6950 N   0  0  0  0  0  0  0  0  0  0  0  0
   39.7230   35.7520   41.3390 H   0  0  0  0  0  0  0  0  0  0  0  0
   37.8690   35.2240   39.8730 H   0  0  0  0  0  0  0  0  0  0  0  0
   41.0930   30.3900   39.4860 N   0  0  0  0  0  0  0  0  0  0  0  0
   41.0390   30.7340   38.2280 C   0  0  0  0  0  0  0  0  0  0  0  0
   40.2020   31.8540   37.9440 N   0  0  0  0  0  0  0  0  0  0  0  0
   41.6980   30.1520   37.0840 N   0  0  0  0  0  0  0  0  0  0  0  0
   41.1860   29.6860   36.3250 H   0  0  0  0  0  0  0  0  0  0  0  0
   41.6430   29.6130   39.8660 H   0  0  0  0  0  0  0  0  0  0  0  0
   39.6650   31.9160   37.0290 H   0  0  0  0  0  0  0  0  0  0  0  0
   42.7420   30.2690   37.1380 H   0  0  0  0  0  0  0  0  0  0  0  0
  2  1  2  6  0  0  0
  2 21  1  0  0  0  0
  2  5  1  0  0  0  0
  3  2  1  0  0  0  0
  3  4  1  0  0  0  0
  5  7  1  0  0  0  0
  6  7  2  0  0  0  0
  6 11  1  0  0  0  0
  7  8  1  0  0  0  0
  8 12  1  0  0  0  0
  8  9  2  0  0  0  0
 10  9  1  0  0  0  0
 10 13  1  0  0  0  0
 11 10  2  0  0  0  0
 14 17  1  0  0  0  0
 14  6  1  0  0  0  0
 15 14  1  0  0  0  0
 16 14  1  0  0  0  0
 17 18  1  0  0  0  0
 17 20  1  0  0  0  0
 19 17  1  0  0  0  0
 22 23  1  0  0  0  0
 22 21  1  0  0  0  0
 23 28  1  0  0  0  0
 24 29  1  0  0  0  0
 24 23  2  0  0  0  0
 25 24  1  0  0  0  0
 26 25  2  0  0  0  0
 26 27  1  0  0  0  0
 27 22  2  0  0  0  0
 30 35  1  0  0  0  0
 31 30  2  0  0  0  0
 32 31  1  0  0  0  0
 32 26  1  0  0  0  0
 33 37  1  0  0  0  0
 33 31  1  0  0  0  0
 34 33  1  0  0  0  0
 36 32  1  0  0  0  0
M  END
>  <minimizedAffinity>
-4.3871994

>  <minimizedRMSD>
2.52235675

$$$$
