
 OpenBabel03242512283D

 21 21  0  0  0  0  0  0  0  0999 V2000
   44.9700   34.8500   44.7070 C   0  0  0  0  0  0  0  0  0  0  0  0
   45.8790   34.5300   43.6930 C   0  0  0  0  0  0  0  0  0  0  0  0
   46.8710   33.5820   43.9780 C   0  0  0  0  0  0  0  0  0  0  0  0
   46.8870   33.0400   45.2090 N   0  0  0  0  0  0  0  0  0  0  0  0
   46.0010   33.3680   46.1610 C   0  0  0  0  0  0  0  0  0  0  0  0
   45.0430   34.2700   45.9190 N   0  0  0  0  0  0  0  0  0  0  0  0
   43.9490   35.8150   44.4380 N   0  0  0  0  0  0  0  0  0  0  0  0
   45.8380   34.9810   42.7240 H   0  0  0  0  0  0  0  0  0  0  0  0
   47.6090   33.2840   43.2420 H   0  0  0  0  0  0  0  0  0  0  0  0
   42.9500   35.7790   44.7380 H   0  0  0  0  0  0  0  0  0  0  0  0
   44.2510   36.6350   43.8820 H   0  0  0  0  0  0  0  0  0  0  0  0
   46.0460   32.7640   47.4850 C   0  0  0  0  0  0  0  0  0  0  0  0
   45.0070   32.4010   48.1090 O   0  0  0  0  0  0  0  0  0  0  0  0
   46.5860   30.7050   49.2650 N   0  0  0  0  0  0  0  0  0  0  0  0
   47.5770   31.5100   49.0120 C   0  0  0  0  0  0  0  0  0  0  0  0
   47.3250   32.5750   48.1010 N   0  0  0  0  0  0  0  0  0  0  0  0
   48.9060   31.4430   49.5520 N   0  0  0  0  0  0  0  0  0  0  0  0
   49.4230   30.9470   48.7730 H   0  0  0  0  0  0  0  0  0  0  0  0
   46.7180   29.8970   49.9350 H   0  0  0  0  0  0  0  0  0  0  0  0
   48.0970   33.2630   47.8560 H   0  0  0  0  0  0  0  0  0  0  0  0
   49.3240   31.7670   50.4470 H   0  0  0  0  0  0  0  0  0  0  0  0
  1  6  1  0  0  0  0
  2  3  1  0  0  0  0
  2  1  2  0  0  0  0
  3  4  2  0  0  0  0
  4  5  1  0  0  0  0
  5 12  1  0  0  0  0
  6  5  2  0  0  0  0
  7  1  1  0  0  0  0
  7 10  1  0  0  0  0
  8  2  1  0  0  0  0
  9  3  1  0  0  0  0
 11  7  1  0  0  0  0
 12 16  1  0  0  0  0
 12 13  2  0  0  0  0
 14 19  1  0  0  0  0
 15 14  2  0  0  0  0
 15 17  1  0  0  0  0
 16 15  1  0  0  0  0
 17 21  1  0  0  0  0
 18 17  1  0  0  0  0
 20 16  1  0  0  0  0
M  END
>  <minimizedAffinity>
-5.30187988

>  <minimizedRMSD>
1.05954707

$$$$
