
 OpenBabel03242523553D

 44 46  0  0  1  0  0  0  0  0999 V2000
   42.8120   34.5110   38.7560 C   0  0  1  0  0  0  0  0  0  0  0  0
   42.9530   35.1820   40.1130 C   0  0  1  0  0  0  0  0  0  0  0  0
   41.6550   35.4010   40.6290 O   0  0  0  0  0  0  0  0  0  0  0  0
   40.7300   35.7380   39.6330 C   0  0  0  0  0  0  0  0  0  0  0  0
   40.4340   34.5610   38.7250 C   0  0  2  0  0  0  0  0  0  0  0  0
   41.6480   33.5870   38.8670 C   0  0  1  0  0  0  0  0  0  0  0  0
   43.7620   33.9720   38.5700 H   0  0  0  0  0  0  0  0  0  0  0  0
   43.5210   36.1200   40.0770 H   0  0  0  0  0  0  0  0  0  0  0  0
   39.8090   35.9900   40.1550 H   0  0  0  0  0  0  0  0  0  0  0  0
   41.0240   36.6470   39.0690 H   0  0  0  0  0  0  0  0  0  0  0  0
   39.4960   34.0440   39.0070 H   0  0  0  0  0  0  0  0  0  0  0  0
   41.4330   33.3100   39.9520 H   0  0  0  0  0  0  0  0  0  0  0  0
   42.5970   35.4730   37.7500 O   0  0  0  0  0  0  0  0  0  0  0  0
   43.4460   35.6090   37.2980 H   0  0  0  0  0  0  0  0  0  0  0  0
   40.4540   34.9740   37.4010 O   0  0  0  0  0  0  0  0  0  0  0  0
   39.7340   34.4960   36.9000 H   0  0  0  0  0  0  0  0  0  0  0  0
   43.4870   34.2010   40.9570 O   0  0  0  0  0  0  0  0  0  0  0  0
   44.5930   34.3440   41.6980 C   0  0  0  0  0  0  0  0  0  0  0  0
   45.8500   34.4450   41.1040 C   0  0  0  0  0  0  0  0  0  0  0  0
   46.9690   34.5930   41.8990 C   0  0  0  0  0  0  0  0  0  0  0  0
   46.8070   34.6380   43.2740 N   0  0  0  0  0  0  0  0  0  0  0  0
   45.5750   34.5370   43.8200 C   0  0  0  0  0  0  0  0  0  0  0  0
   44.4760   34.3920   43.0360 N   0  0  0  0  0  0  0  0  0  0  0  0
   45.9500   34.4060   40.0280 H   0  0  0  0  0  0  0  0  0  0  0  0
   45.4460   34.5730   44.9010 H   0  0  0  0  0  0  0  0  0  0  0  0
   48.3500   34.6870   41.3250 C   0  0  0  0  0  0  0  0  0  0  0  0
   49.0750   36.0180   41.5070 C   0  0  0  0  0  0  0  0  0  0  0  0
   49.4990   34.6960   42.1770 C   0  0  0  0  0  0  0  0  0  0  0  0
   48.3840   34.3010   40.2840 H   0  0  0  0  0  0  0  0  0  0  0  0
   48.5720   36.7780   42.1030 H   0  0  0  0  0  0  0  0  0  0  0  0
   49.6970   36.3540   40.6810 H   0  0  0  0  0  0  0  0  0  0  0  0
   49.3580   34.7280   43.2840 H   0  0  0  0  0  0  0  0  0  0  0  0
   50.4870   34.2710   41.9100 H   0  0  0  0  0  0  0  0  0  0  0  0
   41.5270   32.6380   37.9170 O   0  0  0  0  0  0  0  0  0  0  0  0
   40.9020   31.4640   37.9030 C   0  0  0  0  0  0  0  0  0  0  0  0
   39.6400   31.3500   37.5040 O   0  0  0  0  0  0  0  0  0  0  0  0
   43.6220   30.6210   38.8930 N   0  0  0  0  0  0  0  0  0  0  0  0
   42.6690   29.8650   38.7260 C   0  0  0  0  0  0  0  0  0  0  0  0
   41.3660   30.1230   38.2710 N   0  0  0  0  0  0  0  0  0  0  0  0
   43.0360   28.5140   39.0780 N   0  0  0  0  0  0  0  0  0  0  0  0
   42.5160   27.8790   39.7210 H   0  0  0  0  0  0  0  0  0  0  0  0
   43.7790   31.5900   38.7720 H   0  0  0  0  0  0  0  0  0  0  0  0
   40.7260   29.3160   38.2160 H   0  0  0  0  0  0  0  0  0  0  0  0
   43.8520   27.9370   38.7790 H   0  0  0  0  0  0  0  0  0  0  0  0
  1  7  1  6  0  0  0
  1  6  1  0  0  0  0
  1  2  1  0  0  0  0
  2  8  1  6  0  0  0
  2  3  1  0  0  0  0
  2 17  1  0  0  0  0
  4  9  1  0  0  0  0
  4  3  1  0  0  0  0
  5  6  1  0  0  0  0
  5 11  1  1  0  0  0
  5  4  1  0  0  0  0
  6 12  1  1  0  0  0
 10  4  1  0  0  0  0
 13  1  1  0  0  0  0
 14 13  1  0  0  0  0
 15  5  1  0  0  0  0
 16 15  1  0  0  0  0
 17 18  1  0  0  0  0
 18 23  1  0  0  0  0
 19 18  2  0  0  0  0
 19 20  1  0  0  0  0
 20 21  2  0  0  0  0
 21 22  1  0  0  0  0
 22 25  1  0  0  0  0
 23 22  2  0  0  0  0
 24 19  1  0  0  0  0
 26 27  1  0  0  0  0
 26 20  1  0  0  0  0
 26 28  1  0  0  0  0
 27 30  1  0  0  0  0
 27 28  1  0  0  0  0
 28 32  1  0  0  0  0
 29 26  1  0  0  0  0
 31 27  1  0  0  0  0
 33 28  1  0  0  0  0
 34  6  1  0  0  0  0
 35 34  1  0  0  0  0
 35 39  1  0  0  0  0
 36 35  2  0  0  0  0
 38 37  2  0  0  0  0
 38 40  1  0  0  0  0
 39 38  1  0  0  0  0
 40 41  1  0  0  0  0
 42 37  1  0  0  0  0
 43 39  1  0  0  0  0
 44 40  1  0  0  0  0
M  END
>  <minimizedAffinity>
-5.80316639

>  <minimizedRMSD>
0.0735668615

$$$$
