REMARK  Name = 
REMARK  3 active torsions:
REMARK  status: ('A' for Active; 'I' for Inactive)
REMARK    1  A    between atoms: C_1  and  C_10
REMARK    2  A    between atoms: C_6  and  C_18
REMARK    3  A    between atoms: C_7  and  C_16
REMARK                            x       y       z     vdW  Elec       q    Type
REMARK                         _______ _______ _______ _____ _____    ______ ____
ROOT
ATOM      1  C   UNL     1      47.589  29.993  48.244  0.00  0.00    +0.000 C 
ATOM      2  C   UNL     1      47.431  28.785  47.406  0.00  0.00    +0.000 C 
ATOM      3  C   UNL     1      48.706  28.016  47.175  0.00  0.00    +0.000 C 
ATOM      4  C   UNL     1      49.543  27.853  48.408  0.00  0.00    +0.000 C 
ATOM      5  C   UNL     1      49.609  29.108  49.239  0.00  0.00    +0.000 C 
ATOM      6  C   UNL     1      49.094  30.298  48.423  0.00  0.00    +0.000 C 
ATOM      7  H   UNL     1      47.243  29.780  49.288  0.00  0.00    +0.000 HD
ATOM      8  H   UNL     1      47.001  29.035  46.429  0.00  0.00    +0.000 HD
ATOM      9  H   UNL     1      46.721  28.075  47.887  0.00  0.00    +0.000 HD
ATOM     10  H   UNL     1      48.416  27.005  46.846  0.00  0.00    +0.000 HD
ATOM     11  H   UNL     1      49.247  28.528  46.352  0.00  0.00    +0.000 HD
ATOM     12  H   UNL     1      50.583  27.632  48.075  0.00  0.00    +0.000 HD
ATOM     13  H   UNL     1      49.209  26.973  49.005  0.00  0.00    +0.000 HD
ATOM     14  H   UNL     1      50.591  29.309  49.691  0.00  0.00    +0.000 HD
ATOM     15  H   UNL     1      48.841  28.967  50.049  0.00  0.00    +0.000 HD
ATOM     16  H   UNL     1      49.589  30.331  47.429  0.00  0.00    +0.000 HD
ENDROOT
BRANCH   6  17
ATOM     17  C   UNL     1      49.266  31.527  49.196  0.00  0.00    +0.000 C 
ATOM     18  O   UNL     1      49.805  31.538  50.325  0.00  0.00    +0.000 OA
ATOM     19  N   UNL     1      50.998  33.978  49.022  0.00  0.00    +0.000 NA
ATOM     20  C   UNL     1      49.778  33.966  48.855  0.00  0.00    +0.000 C 
ATOM     21  N   UNL     1      48.924  32.856  48.928  0.00  0.00    +0.000 N 
ATOM     22  N   UNL     1      49.282  35.292  48.559  0.00  0.00    +0.000 N 
ATOM     23  H   UNL     1      49.467  35.839  47.682  0.00  0.00    +0.000 HD
ATOM     24  H   UNL     1      51.670  33.282  49.235  0.00  0.00    +0.000 HD
ATOM     25  H   UNL     1      47.942  33.083  48.740  0.00  0.00    +0.000 HD
ATOM     26  H   UNL     1      48.685  35.791  49.246  0.00  0.00    +0.000 HD
ENDBRANCH   6  17
BRANCH   1  30
ATOM     27  C   UNL     1      45.914  33.145  46.248  0.00  0.00    +0.000 A 
ATOM     28  C   UNL     1      45.373  32.978  47.520  0.00  0.00    +0.000 A 
ATOM     29  C   UNL     1      45.836  31.976  48.269  0.00  0.00    +0.000 A 
ATOM     30  C   UNL     1      46.847  31.117  47.777  0.00  0.00    +0.000 A 
ATOM     31  S   UNL     1      47.160  31.788  46.113  0.00  0.00    +0.000 S 
ATOM     32  H   UNL     1      44.602  33.638  47.890  0.00  0.00    +0.000 HD
ATOM     33  H   UNL     1      45.544  31.691  49.264  0.00  0.00    +0.000 HD
BRANCH  27  38
ATOM     34  C   UNL     1      44.432  36.099  44.537  0.00  0.00    +0.000 A 
ATOM     35  C   UNL     1      45.051  36.007  43.292  0.00  0.00    +0.000 A 
ATOM     36  C   UNL     1      45.944  34.950  43.077  0.00  0.00    +0.000 A 
ATOM     37  N   UNL     1      46.159  34.062  44.109  0.00  0.00    +0.000 NA
ATOM     38  C   UNL     1      45.535  34.200  45.289  0.00  0.00    +0.000 A 
ATOM     39  N   UNL     1      44.665  35.226  45.505  0.00  0.00    +0.000 NA
ATOM     40  H   UNL     1      43.740  36.874  44.781  0.00  0.00    +0.000 HD
ATOM     41  H   UNL     1      44.853  36.717  42.526  0.00  0.00    +0.000 HD
ATOM     42  H   UNL     1      46.458  34.810  42.150  0.00  0.00    +0.000 HD
ENDBRANCH  27  38
ENDBRANCH   1  30
TORSDOF 3
