
     RDKit          3D

 21 21  0  0  0  0  0  0  0  0999 V2000
   44.9164   35.1334   44.0465 C   0  0  0  0  0  0  0  0  0  0  0  0
   45.7399   35.3736   42.9434 C   0  0  0  0  0  0  0  0  0  0  0  0
   46.9501   34.6644   42.8279 C   0  0  0  0  0  0  0  0  0  0  0  0
   47.2451   33.7849   43.8014 N   0  0  0  0  0  0  0  0  0  0  0  0
   46.4306   33.5757   44.8522 C   0  0  0  0  0  0  0  0  0  0  0  0
   45.2850   34.2484   44.9597 N   0  0  0  0  0  0  0  0  0  0  0  0
   43.6991   35.8470   44.1624 N   0  0  0  0  0  0  0  0  0  0  0  0
   47.7236   34.9923   41.6468 C   0  0  0  0  0  0  0  0  0  0  0  0
   48.6772   35.8152   41.6507 O   0  0  0  0  0  0  0  0  0  0  0  0
   45.4231   36.0994   42.2080 H   0  0  0  0  0  0  0  0  0  0  0  0
   46.7357   32.8458   45.6042 H   0  0  0  0  0  0  0  0  0  0  0  0
   44.0000   36.6902   44.7211 H   0  0  0  0  0  0  0  0  0  0  0  0
   43.0963   35.1806   43.6322 H   0  0  0  0  0  0  0  0  0  0  0  0
   47.2381   32.2884   41.3394 N   0  0  0  0  0  0  0  0  0  0  0  0
   47.1790   32.9748   40.2460 C   0  0  0  0  0  0  0  0  0  0  0  0
   47.4257   34.3718   40.3782 N   0  0  0  0  0  0  0  0  0  0  0  0
   46.9036   32.5413   38.9274 N   0  0  0  0  0  0  0  0  0  0  0  0
   46.1090   33.0604   38.4481 H   0  0  0  0  0  0  0  0  0  0  0  0
   47.0772   31.2758   41.3589 H   0  0  0  0  0  0  0  0  0  0  0  0
   47.4049   35.0282   39.5622 H   0  0  0  0  0  0  0  0  0  0  0  0
   47.3025   31.8133   38.2902 H   0  0  0  0  0  0  0  0  0  0  0  0
  1  7  1  0
  1  6  2  0
  2  1  1  0
  3  2  2  0
  3  4  1  0
  4  5  2  0
  5  6  1  0
  8  3  1  0
  9  8  2  0
  2 10  1  0
  5 11  1  0
  7 12  1  0
  7 13  1  0
 14 15  2  3
 15 16  1  0
 15 17  1  0
 17 18  1  0
 14 19  1  0
 16 20  1  0
 17 21  1  0
  8 16  1  0
M  ISO  3  10  14  11  14  18   5
M  END
>  <DihAtoms>  (1) 
2,7,15,14

>  <DihDeg>  (1) 
179.99947822698323

$$$$
