
 OpenBabel03242523553D

 44 46  0  0  1  0  0  0  0  0999 V2000
   42.7880   34.4290   38.8320 C   0  0  1  0  0  0  0  0  0  0  0  0
   42.9690   35.1830   40.1400 C   0  0  1  0  0  0  0  0  0  0  0  0
   41.6860   35.4980   40.6440 O   0  0  0  0  0  0  0  0  0  0  0  0
   40.7720   35.8110   39.6290 C   0  0  0  0  0  0  0  0  0  0  0  0
   40.4140   34.5910   38.8040 C   0  0  2  0  0  0  0  0  0  0  0  0
   41.5810   33.5720   39.0090 C   0  0  1  0  0  0  0  0  0  0  0  0
   43.7100   33.8330   38.6800 H   0  0  0  0  0  0  0  0  0  0  0  0
   43.5810   36.0880   40.0390 H   0  0  0  0  0  0  0  0  0  0  0  0
   39.8670   36.1420   40.1360 H   0  0  0  0  0  0  0  0  0  0  0  0
   41.1060   36.6650   39.0040 H   0  0  0  0  0  0  0  0  0  0  0  0
   39.4550   34.1400   39.1240 H   0  0  0  0  0  0  0  0  0  0  0  0
   41.3600   33.3790   40.1110 H   0  0  0  0  0  0  0  0  0  0  0  0
   42.6130   35.3300   37.7640 O   0  0  0  0  0  0  0  0  0  0  0  0
   43.4640   35.3940   37.3010 H   0  0  0  0  0  0  0  0  0  0  0  0
   40.4460   34.9120   37.4550 O   0  0  0  0  0  0  0  0  0  0  0  0
   39.7020   34.4360   36.9900 H   0  0  0  0  0  0  0  0  0  0  0  0
   43.4610   34.2360   41.0470 O   0  0  0  0  0  0  0  0  0  0  0  0
   44.5820   34.3700   41.7650 C   0  0  0  0  0  0  0  0  0  0  0  0
   45.8270   34.4690   41.1460 C   0  0  0  0  0  0  0  0  0  0  0  0
   46.9630   34.6080   41.9170 C   0  0  0  0  0  0  0  0  0  0  0  0
   46.8300   34.6470   43.2960 N   0  0  0  0  0  0  0  0  0  0  0  0
   45.6100   34.5480   43.8670 C   0  0  0  0  0  0  0  0  0  0  0  0
   44.4940   34.4120   43.1060 N   0  0  0  0  0  0  0  0  0  0  0  0
   45.9040   34.4360   40.0670 H   0  0  0  0  0  0  0  0  0  0  0  0
   45.5040   34.5790   44.9510 H   0  0  0  0  0  0  0  0  0  0  0  0
   48.3320   34.7000   41.3150 C   0  0  0  0  0  0  0  0  0  0  0  0
   49.0730   36.0210   41.5010 C   0  0  0  0  0  0  0  0  0  0  0  0
   49.4990   34.6860   42.1420 C   0  0  0  0  0  0  0  0  0  0  0  0
   48.3400   34.3300   40.2670 H   0  0  0  0  0  0  0  0  0  0  0  0
   48.5890   36.7760   42.1200 H   0  0  0  0  0  0  0  0  0  0  0  0
   49.6790   36.3650   40.6670 H   0  0  0  0  0  0  0  0  0  0  0  0
   49.3830   34.7030   43.2520 H   0  0  0  0  0  0  0  0  0  0  0  0
   50.4780   34.2570   41.8460 H   0  0  0  0  0  0  0  0  0  0  0  0
   41.4090   32.5680   38.1260 O   0  0  0  0  0  0  0  0  0  0  0  0
   40.6540   31.4730   38.1550 C   0  0  0  0  0  0  0  0  0  0  0  0
   39.6120   31.3230   37.3450 O   0  0  0  0  0  0  0  0  0  0  0  0
   38.6290   30.3660   40.0960 N   0  0  0  0  0  0  0  0  0  0  0  0
   39.7170   29.8550   39.8470 C   0  0  0  0  0  0  0  0  0  0  0  0
   40.7430   30.2640   38.9800 N   0  0  0  0  0  0  0  0  0  0  0  0
   39.8840   28.6420   40.6130 N   0  0  0  0  0  0  0  0  0  0  0  0
   40.1590   27.7080   40.2400 H   0  0  0  0  0  0  0  0  0  0  0  0
   38.1470   31.1750   39.7930 H   0  0  0  0  0  0  0  0  0  0  0  0
   41.5780   29.6620   38.9330 H   0  0  0  0  0  0  0  0  0  0  0  0
   39.7700   28.4680   41.6350 H   0  0  0  0  0  0  0  0  0  0  0  0
  1  7  1  6  0  0  0
  1  6  1  0  0  0  0
  1  2  1  0  0  0  0
  2  8  1  6  0  0  0
  2  3  1  0  0  0  0
  2 17  1  0  0  0  0
  4  9  1  0  0  0  0
  4  3  1  0  0  0  0
  5  6  1  0  0  0  0
  5 11  1  1  0  0  0
  5  4  1  0  0  0  0
  6 12  1  1  0  0  0
 10  4  1  0  0  0  0
 13  1  1  0  0  0  0
 14 13  1  0  0  0  0
 15  5  1  0  0  0  0
 16 15  1  0  0  0  0
 17 18  1  0  0  0  0
 18 23  1  0  0  0  0
 19 18  2  0  0  0  0
 19 20  1  0  0  0  0
 20 21  2  0  0  0  0
 21 22  1  0  0  0  0
 22 25  1  0  0  0  0
 23 22  2  0  0  0  0
 24 19  1  0  0  0  0
 26 27  1  0  0  0  0
 26 20  1  0  0  0  0
 26 28  1  0  0  0  0
 27 30  1  0  0  0  0
 27 28  1  0  0  0  0
 28 32  1  0  0  0  0
 29 26  1  0  0  0  0
 31 27  1  0  0  0  0
 33 28  1  0  0  0  0
 34 35  1  0  0  0  0
 34  6  1  0  0  0  0
 35 39  1  0  0  0  0
 36 35  2  0  0  0  0
 38 37  2  0  0  0  0
 38 40  1  0  0  0  0
 39 38  1  0  0  0  0
 40 44  1  0  0  0  0
 41 40  1  0  0  0  0
 42 37  1  0  0  0  0
 43 39  1  0  0  0  0
M  END
>  <minimizedAffinity>
-6.03391457

>  <minimizedRMSD>
0.641750336

$$$$
