
 OpenBabel03242512283D

 21 21  0  0  0  0  0  0  0  0999 V2000
   45.3990   35.3850   43.5820 C   0  0  0  0  0  0  0  0  0  0  0  0
   46.5230   34.7960   42.9920 C   0  0  0  0  0  0  0  0  0  0  0  0
   47.1630   33.7640   43.6910 C   0  0  0  0  0  0  0  0  0  0  0  0
   46.6570   33.4050   44.8850 N   0  0  0  0  0  0  0  0  0  0  0  0
   45.5780   33.9910   45.4240 C   0  0  0  0  0  0  0  0  0  0  0  0
   44.9450   34.9790   44.7810 N   0  0  0  0  0  0  0  0  0  0  0  0
   44.7310   36.4400   42.8850 N   0  0  0  0  0  0  0  0  0  0  0  0
   46.8990   35.1050   42.0400 H   0  0  0  0  0  0  0  0  0  0  0  0
   48.0390   33.2600   43.2970 H   0  0  0  0  0  0  0  0  0  0  0  0
   43.7010   36.5930   42.8080 H   0  0  0  0  0  0  0  0  0  0  0  0
   45.3510   37.1210   42.4110 H   0  0  0  0  0  0  0  0  0  0  0  0
   45.0550   33.5800   46.7200 C   0  0  0  0  0  0  0  0  0  0  0  0
   44.2970   34.3130   47.4170 O   0  0  0  0  0  0  0  0  0  0  0  0
   47.5610   33.0060   47.7620 N   0  0  0  0  0  0  0  0  0  0  0  0
   46.7140   32.0190   47.7490 C   0  0  0  0  0  0  0  0  0  0  0  0
   45.4200   32.2880   47.2190 N   0  0  0  0  0  0  0  0  0  0  0  0
   46.9380   30.6790   48.2130 N   0  0  0  0  0  0  0  0  0  0  0  0
   46.5110   30.7180   49.1810 H   0  0  0  0  0  0  0  0  0  0  0  0
   48.5370   32.8620   48.1450 H   0  0  0  0  0  0  0  0  0  0  0  0
   44.6860   31.5190   47.1830 H   0  0  0  0  0  0  0  0  0  0  0  0
   47.3870   29.8450   47.7830 H   0  0  0  0  0  0  0  0  0  0  0  0
  1  6  1  0  0  0  0
  2  1  2  0  0  0  0
  2  3  1  0  0  0  0
  3  4  2  0  0  0  0
  4  5  1  0  0  0  0
  5 12  1  0  0  0  0
  6  5  2  0  0  0  0
  7  1  1  0  0  0  0
  8  2  1  0  0  0  0
  9  3  1  0  0  0  0
 10  7  1  0  0  0  0
 11  7  1  0  0  0  0
 12 16  1  0  0  0  0
 12 13  2  0  0  0  0
 14 19  1  0  0  0  0
 15 14  2  0  0  0  0
 15 17  1  0  0  0  0
 16 15  1  0  0  0  0
 17 18  1  0  0  0  0
 20 16  1  0  0  0  0
 21 17  1  0  0  0  0
M  END
>  <minimizedAffinity>
-4.47270632

>  <minimizedRMSD>
1.65729058

$$$$
