
 OpenBabel03242523553D

 44 46  0  0  1  0  0  0  0  0999 V2000
   42.9310   34.0580   39.1710 C   0  0  1  0  0  0  0  0  0  0  0  0
   43.2860   35.0080   40.3040 C   0  0  1  0  0  0  0  0  0  0  0  0
   42.0980   35.6490   40.7260 O   0  0  0  0  0  0  0  0  0  0  0  0
   41.2270   35.9200   39.6630 C   0  0  0  0  0  0  0  0  0  0  0  0
   40.6280   34.6490   39.0950 C   0  0  2  0  0  0  0  0  0  0  0  0
   41.5940   33.4920   39.5060 C   0  0  1  0  0  0  0  0  0  0  0  0
   43.7230   33.2830   39.1470 H   0  0  0  0  0  0  0  0  0  0  0  0
   44.0510   35.7460   40.0290 H   0  0  0  0  0  0  0  0  0  0  0  0
   40.4140   36.5060   40.0870 H   0  0  0  0  0  0  0  0  0  0  0  0
   41.6930   36.5560   38.8830 H   0  0  0  0  0  0  0  0  0  0  0  0
   39.6120   34.4560   39.4910 H   0  0  0  0  0  0  0  0  0  0  0  0
   41.3750   33.5640   40.6230 H   0  0  0  0  0  0  0  0  0  0  0  0
   42.8920   34.7470   37.9440 O   0  0  0  0  0  0  0  0  0  0  0  0
   43.7260   34.5600   37.4830 H   0  0  0  0  0  0  0  0  0  0  0  0
   40.6770   34.6870   37.7090 O   0  0  0  0  0  0  0  0  0  0  0  0
   39.8440   34.2750   37.3430 H   0  0  0  0  0  0  0  0  0  0  0  0
   43.6240   34.1840   41.3850 O   0  0  0  0  0  0  0  0  0  0  0  0
   44.7840   34.2250   42.0500 C   0  0  0  0  0  0  0  0  0  0  0  0
   45.9890   34.4480   41.3840 C   0  0  0  0  0  0  0  0  0  0  0  0
   47.1680   34.4860   42.1010 C   0  0  0  0  0  0  0  0  0  0  0  0
   47.1170   34.3010   43.4740 N   0  0  0  0  0  0  0  0  0  0  0  0
   45.9340   34.0870   44.0910 C   0  0  0  0  0  0  0  0  0  0  0  0
   44.7760   34.0510   43.3820 N   0  0  0  0  0  0  0  0  0  0  0  0
   46.0010   34.5890   40.3110 H   0  0  0  0  0  0  0  0  0  0  0  0
   45.8930   33.9420   45.1700 H   0  0  0  0  0  0  0  0  0  0  0  0
   48.4960   34.7010   41.4440 C   0  0  0  0  0  0  0  0  0  0  0  0
   49.1010   36.0970   41.5670 C   0  0  0  0  0  0  0  0  0  0  0  0
   49.6880   34.8330   42.2250 C   0  0  0  0  0  0  0  0  0  0  0  0
   48.5060   34.3030   40.4070 H   0  0  0  0  0  0  0  0  0  0  0  0
   48.5630   36.8160   42.1840 H   0  0  0  0  0  0  0  0  0  0  0  0
   49.6380   36.4770   40.7010 H   0  0  0  0  0  0  0  0  0  0  0  0
   49.6100   34.8710   43.3380 H   0  0  0  0  0  0  0  0  0  0  0  0
   50.6940   34.4990   41.9030 H   0  0  0  0  0  0  0  0  0  0  0  0
   41.2140   32.3830   38.8400 O   0  0  0  0  0  0  0  0  0  0  0  0
   40.0390   31.7710   38.7220 C   0  0  0  0  0  0  0  0  0  0  0  0
   39.3210   31.8490   37.6070 O   0  0  0  0  0  0  0  0  0  0  0  0
   38.0190   32.6150   40.7960 N   0  0  0  0  0  0  0  0  0  0  0  0
   38.3680   31.4570   40.5840 C   0  0  0  0  0  0  0  0  0  0  0  0
   39.2910   30.9330   39.6650 N   0  0  0  0  0  0  0  0  0  0  0  0
   37.6660   30.5560   41.4670 N   0  0  0  0  0  0  0  0  0  0  0  0
   37.1420   29.6990   41.1870 H   0  0  0  0  0  0  0  0  0  0  0  0
   38.2530   33.5000   40.4190 H   0  0  0  0  0  0  0  0  0  0  0  0
   39.4180   29.9100   39.6670 H   0  0  0  0  0  0  0  0  0  0  0  0
   37.5490   30.5820   42.5030 H   0  0  0  0  0  0  0  0  0  0  0  0
  1  7  1  6  0  0  0
  1  6  1  0  0  0  0
  1  2  1  0  0  0  0
  2  8  1  6  0  0  0
  2  3  1  0  0  0  0
  2 17  1  0  0  0  0
  4  9  1  0  0  0  0
  4  3  1  0  0  0  0
  5 11  1  1  0  0  0
  5  6  1  0  0  0  0
  5  4  1  0  0  0  0
  6 12  1  1  0  0  0
 10  4  1  0  0  0  0
 13  1  1  0  0  0  0
 14 13  1  0  0  0  0
 15  5  1  0  0  0  0
 16 15  1  0  0  0  0
 17 18  1  0  0  0  0
 18 23  1  0  0  0  0
 19 18  2  0  0  0  0
 19 20  1  0  0  0  0
 20 21  2  0  0  0  0
 21 22  1  0  0  0  0
 22 25  1  0  0  0  0
 23 22  2  0  0  0  0
 24 19  1  0  0  0  0
 26 27  1  0  0  0  0
 26 20  1  0  0  0  0
 26 28  1  0  0  0  0
 27 30  1  0  0  0  0
 27 28  1  0  0  0  0
 28 32  1  0  0  0  0
 29 26  1  0  0  0  0
 31 27  1  0  0  0  0
 33 28  1  0  0  0  0
 34  6  1  0  0  0  0
 35 34  1  0  0  0  0
 35 39  1  0  0  0  0
 36 35  2  0  0  0  0
 38 37  2  0  0  0  0
 38 40  1  0  0  0  0
 39 43  1  0  0  0  0
 39 38  1  0  0  0  0
 40 44  1  0  0  0  0
 41 40  1  0  0  0  0
 42 37  1  0  0  0  0
M  END
>  <minimizedAffinity>
-6.57484818

>  <minimizedRMSD>
1.68030965

$$$$
