
 OpenBabel03242512283D

 21 21  0  0  0  0  0  0  0  0999 V2000
   44.9400   34.9500   44.6490 C   0  0  0  0  0  0  0  0  0  0  0  0
   45.8660   34.7050   43.6290 C   0  0  0  0  0  0  0  0  0  0  0  0
   46.8750   33.7630   43.8710 C   0  0  0  0  0  0  0  0  0  0  0  0
   46.8890   33.1530   45.0700 N   0  0  0  0  0  0  0  0  0  0  0  0
   45.9870   33.4100   46.0290 C   0  0  0  0  0  0  0  0  0  0  0  0
   45.0130   34.3050   45.8270 N   0  0  0  0  0  0  0  0  0  0  0  0
   43.9030   35.9080   44.4220 N   0  0  0  0  0  0  0  0  0  0  0  0
   45.8250   35.2090   42.6850 H   0  0  0  0  0  0  0  0  0  0  0  0
   47.6260   33.5220   43.1280 H   0  0  0  0  0  0  0  0  0  0  0  0
   42.9020   35.8350   44.7090 H   0  0  0  0  0  0  0  0  0  0  0  0
   44.1940   36.7640   43.9170 H   0  0  0  0  0  0  0  0  0  0  0  0
   46.0310   32.7330   47.3180 C   0  0  0  0  0  0  0  0  0  0  0  0
   44.9910   32.3520   47.9280 O   0  0  0  0  0  0  0  0  0  0  0  0
   46.4200   30.9660   49.4210 N   0  0  0  0  0  0  0  0  0  0  0  0
   47.4840   31.5790   48.9930 C   0  0  0  0  0  0  0  0  0  0  0  0
   47.3110   32.4920   47.9140 N   0  0  0  0  0  0  0  0  0  0  0  0
   48.8230   31.4380   49.4900 N   0  0  0  0  0  0  0  0  0  0  0  0
   49.2320   30.7510   48.7960 H   0  0  0  0  0  0  0  0  0  0  0  0
   46.4910   30.2770   50.2210 H   0  0  0  0  0  0  0  0  0  0  0  0
   48.1450   33.0230   47.5220 H   0  0  0  0  0  0  0  0  0  0  0  0
   49.3290   31.8570   50.2980 H   0  0  0  0  0  0  0  0  0  0  0  0
  1  6  1  0  0  0  0
  2  3  1  0  0  0  0
  2  1  2  0  0  0  0
  3  4  2  0  0  0  0
  4  5  1  0  0  0  0
  5 12  1  0  0  0  0
  6  5  2  0  0  0  0
  7  1  1  0  0  0  0
  7 10  1  0  0  0  0
  8  2  1  0  0  0  0
  9  3  1  0  0  0  0
 11  7  1  0  0  0  0
 12 16  1  0  0  0  0
 12 13  2  0  0  0  0
 14 19  1  0  0  0  0
 15 14  2  0  0  0  0
 15 17  1  0  0  0  0
 16 15  1  0  0  0  0
 17 21  1  0  0  0  0
 18 17  1  0  0  0  0
 20 16  1  0  0  0  0
M  END
>  <minimizedAffinity>
-5.37144899

>  <minimizedRMSD>
0.876595855

$$$$
