
 OpenBabel03242523553D

 44 46  0  0  1  0  0  0  0  0999 V2000
   42.8140   34.5200   38.7540 C   0  0  1  0  0  0  0  0  0  0  0  0
   42.9520   35.1870   40.1140 C   0  0  1  0  0  0  0  0  0  0  0  0
   41.6530   35.4030   40.6290 O   0  0  0  0  0  0  0  0  0  0  0  0
   40.7290   35.7420   39.6320 C   0  0  0  0  0  0  0  0  0  0  0  0
   40.4350   34.5690   38.7200 C   0  0  2  0  0  0  0  0  0  0  0  0
   41.6500   33.5950   38.8600 C   0  0  1  0  0  0  0  0  0  0  0  0
   43.7650   33.9820   38.5670 H   0  0  0  0  0  0  0  0  0  0  0  0
   43.5200   36.1250   40.0820 H   0  0  0  0  0  0  0  0  0  0  0  0
   39.8070   35.9930   40.1540 H   0  0  0  0  0  0  0  0  0  0  0  0
   41.0240   36.6540   39.0720 H   0  0  0  0  0  0  0  0  0  0  0  0
   39.4980   34.0500   38.9990 H   0  0  0  0  0  0  0  0  0  0  0  0
   41.4340   33.3140   39.9440 H   0  0  0  0  0  0  0  0  0  0  0  0
   42.6000   35.4850   37.7510 O   0  0  0  0  0  0  0  0  0  0  0  0
   43.4490   35.6240   37.3010 H   0  0  0  0  0  0  0  0  0  0  0  0
   40.4570   34.9860   37.3970 O   0  0  0  0  0  0  0  0  0  0  0  0
   39.7390   34.5090   36.8930 H   0  0  0  0  0  0  0  0  0  0  0  0
   43.4860   34.2030   40.9550 O   0  0  0  0  0  0  0  0  0  0  0  0
   44.5910   34.3440   41.6970 C   0  0  0  0  0  0  0  0  0  0  0  0
   45.8490   34.4440   41.1040 C   0  0  0  0  0  0  0  0  0  0  0  0
   46.9680   34.5900   41.9000 C   0  0  0  0  0  0  0  0  0  0  0  0
   46.8050   34.6330   43.2750 N   0  0  0  0  0  0  0  0  0  0  0  0
   45.5720   34.5330   43.8200 C   0  0  0  0  0  0  0  0  0  0  0  0
   44.4730   34.3900   43.0350 N   0  0  0  0  0  0  0  0  0  0  0  0
   45.9490   34.4070   40.0280 H   0  0  0  0  0  0  0  0  0  0  0  0
   45.4430   34.5670   44.9010 H   0  0  0  0  0  0  0  0  0  0  0  0
   48.3490   34.6830   41.3270 C   0  0  0  0  0  0  0  0  0  0  0  0
   49.0730   36.0150   41.5050 C   0  0  0  0  0  0  0  0  0  0  0  0
   49.4970   34.6970   42.1810 C   0  0  0  0  0  0  0  0  0  0  0  0
   48.3840   34.2930   40.2870 H   0  0  0  0  0  0  0  0  0  0  0  0
   48.5680   36.7770   42.0980 H   0  0  0  0  0  0  0  0  0  0  0  0
   49.6950   36.3490   40.6780 H   0  0  0  0  0  0  0  0  0  0  0  0
   49.3550   34.7330   43.2870 H   0  0  0  0  0  0  0  0  0  0  0  0
   50.4860   34.2720   41.9160 H   0  0  0  0  0  0  0  0  0  0  0  0
   41.5310   32.6490   37.9070 O   0  0  0  0  0  0  0  0  0  0  0  0
   40.9350   31.4600   37.8990 C   0  0  0  0  0  0  0  0  0  0  0  0
   39.6290   31.3350   37.6940 O   0  0  0  0  0  0  0  0  0  0  0  0
   43.3330   30.6020   39.5130 N   0  0  0  0  0  0  0  0  0  0  0  0
   42.6090   29.8450   38.8730 C   0  0  0  0  0  0  0  0  0  0  0  0
   41.4780   30.1110   38.0850 N   0  0  0  0  0  0  0  0  0  0  0  0
   43.0670   28.4830   39.0100 N   0  0  0  0  0  0  0  0  0  0  0  0
   42.4880   27.6600   39.2820 H   0  0  0  0  0  0  0  0  0  0  0  0
   43.3610   31.5780   39.6740 H   0  0  0  0  0  0  0  0  0  0  0  0
   41.0230   29.3000   37.6390 H   0  0  0  0  0  0  0  0  0  0  0  0
   44.0170   28.0730   38.8740 H   0  0  0  0  0  0  0  0  0  0  0  0
  1  7  1  6  0  0  0
  1  6  1  0  0  0  0
  1  2  1  0  0  0  0
  2  8  1  6  0  0  0
  2  3  1  0  0  0  0
  2 17  1  0  0  0  0
  4  9  1  0  0  0  0
  4  3  1  0  0  0  0
  5  6  1  0  0  0  0
  5 11  1  1  0  0  0
  5  4  1  0  0  0  0
  6 12  1  1  0  0  0
 10  4  1  0  0  0  0
 13  1  1  0  0  0  0
 14 13  1  0  0  0  0
 15  5  1  0  0  0  0
 16 15  1  0  0  0  0
 17 18  1  0  0  0  0
 18 23  1  0  0  0  0
 19 18  2  0  0  0  0
 19 20  1  0  0  0  0
 20 21  2  0  0  0  0
 21 22  1  0  0  0  0
 22 25  1  0  0  0  0
 23 22  2  0  0  0  0
 24 19  1  0  0  0  0
 26 27  1  0  0  0  0
 26 20  1  0  0  0  0
 26 28  1  0  0  0  0
 27 30  1  0  0  0  0
 27 28  1  0  0  0  0
 28 32  1  0  0  0  0
 29 26  1  0  0  0  0
 31 27  1  0  0  0  0
 33 28  1  0  0  0  0
 34  6  1  0  0  0  0
 35 34  1  0  0  0  0
 35 39  1  0  0  0  0
 36 35  2  0  0  0  0
 37 42  1  0  0  0  0
 38 40  1  0  0  0  0
 38 37  2  0  0  0  0
 39 38  1  0  0  0  0
 40 41  1  0  0  0  0
 43 39  1  0  0  0  0
 44 40  1  0  0  0  0
M  END
>  <minimizedAffinity>
-5.7956686

>  <minimizedRMSD>
0.146657348

$$$$
