
 OpenBabel03242523553D

 44 46  0  0  1  0  0  0  0  0999 V2000
   42.8130   34.5040   38.7490 C   0  0  1  0  0  0  0  0  0  0  0  0
   42.9620   35.1760   40.1050 C   0  0  1  0  0  0  0  0  0  0  0  0
   41.6670   35.4000   40.6270 O   0  0  0  0  0  0  0  0  0  0  0  0
   40.7390   35.7390   39.6340 C   0  0  0  0  0  0  0  0  0  0  0  0
   40.4340   34.5630   38.7290 C   0  0  2  0  0  0  0  0  0  0  0  0
   41.6460   33.5850   38.8660 C   0  0  1  0  0  0  0  0  0  0  0  0
   43.7610   33.9620   38.5590 H   0  0  0  0  0  0  0  0  0  0  0  0
   43.5340   36.1120   40.0660 H   0  0  0  0  0  0  0  0  0  0  0  0
   39.8210   35.9950   40.1610 H   0  0  0  0  0  0  0  0  0  0  0  0
   41.0340   36.6470   39.0690 H   0  0  0  0  0  0  0  0  0  0  0  0
   39.4960   34.0490   39.0160 H   0  0  0  0  0  0  0  0  0  0  0  0
   41.4360   33.3090   39.9530 H   0  0  0  0  0  0  0  0  0  0  0  0
   42.5970   35.4660   37.7430 O   0  0  0  0  0  0  0  0  0  0  0  0
   43.4440   35.5990   37.2870 H   0  0  0  0  0  0  0  0  0  0  0  0
   40.4500   34.9740   37.4040 O   0  0  0  0  0  0  0  0  0  0  0  0
   39.7260   34.4980   36.9070 H   0  0  0  0  0  0  0  0  0  0  0  0
   43.4970   34.1930   40.9470 O   0  0  0  0  0  0  0  0  0  0  0  0
   44.6010   34.3370   41.6910 C   0  0  0  0  0  0  0  0  0  0  0  0
   45.8590   34.4420   41.1010 C   0  0  0  0  0  0  0  0  0  0  0  0
   46.9760   34.5900   41.8990 C   0  0  0  0  0  0  0  0  0  0  0  0
   46.8100   34.6320   43.2750 N   0  0  0  0  0  0  0  0  0  0  0  0
   45.5760   34.5280   43.8170 C   0  0  0  0  0  0  0  0  0  0  0  0
   44.4800   34.3830   43.0290 N   0  0  0  0  0  0  0  0  0  0  0  0
   45.9620   34.4060   40.0250 H   0  0  0  0  0  0  0  0  0  0  0  0
   45.4450   34.5620   44.8970 H   0  0  0  0  0  0  0  0  0  0  0  0
   48.3580   34.6890   41.3290 C   0  0  0  0  0  0  0  0  0  0  0  0
   49.0760   36.0230   41.5070 C   0  0  0  0  0  0  0  0  0  0  0  0
   49.5040   34.7070   42.1860 C   0  0  0  0  0  0  0  0  0  0  0  0
   48.3970   34.2970   40.2900 H   0  0  0  0  0  0  0  0  0  0  0  0
   48.5670   36.7840   42.0980 H   0  0  0  0  0  0  0  0  0  0  0  0
   49.7000   36.3590   40.6810 H   0  0  0  0  0  0  0  0  0  0  0  0
   49.3590   34.7440   43.2920 H   0  0  0  0  0  0  0  0  0  0  0  0
   50.4950   34.2860   41.9240 H   0  0  0  0  0  0  0  0  0  0  0  0
   41.5170   32.6350   37.9180 O   0  0  0  0  0  0  0  0  0  0  0  0
   40.8780   31.4690   37.9030 C   0  0  0  0  0  0  0  0  0  0  0  0
   39.6250   31.3650   37.4750 O   0  0  0  0  0  0  0  0  0  0  0  0
   39.4160   29.4270   39.5720 N   0  0  0  0  0  0  0  0  0  0  0  0
   40.5290   29.2670   39.0810 C   0  0  0  0  0  0  0  0  0  0  0  0
   41.3160   30.1260   38.2990 N   0  0  0  0  0  0  0  0  0  0  0  0
   41.0350   27.9550   39.4130 N   0  0  0  0  0  0  0  0  0  0  0  0
   41.4200   27.2540   38.7450 H   0  0  0  0  0  0  0  0  0  0  0  0
   38.7490   30.1600   39.5800 H   0  0  0  0  0  0  0  0  0  0  0  0
   42.2330   29.7660   37.9930 H   0  0  0  0  0  0  0  0  0  0  0  0
   41.1120   27.4760   40.3360 H   0  0  0  0  0  0  0  0  0  0  0  0
  1  7  1  6  0  0  0
  1  6  1  0  0  0  0
  1  2  1  0  0  0  0
  2  8  1  6  0  0  0
  2  3  1  0  0  0  0
  2 17  1  0  0  0  0
  4  9  1  0  0  0  0
  4  3  1  0  0  0  0
  5  6  1  0  0  0  0
  5 11  1  1  0  0  0
  5  4  1  0  0  0  0
  6 12  1  1  0  0  0
 10  4  1  0  0  0  0
 13  1  1  0  0  0  0
 14 13  1  0  0  0  0
 15  5  1  0  0  0  0
 16 15  1  0  0  0  0
 17 18  1  0  0  0  0
 18 23  1  0  0  0  0
 19 18  2  0  0  0  0
 19 20  1  0  0  0  0
 20 21  2  0  0  0  0
 21 22  1  0  0  0  0
 22 25  1  0  0  0  0
 23 22  2  0  0  0  0
 24 19  1  0  0  0  0
 26 27  1  0  0  0  0
 26 20  1  0  0  0  0
 26 28  1  0  0  0  0
 27 30  1  0  0  0  0
 27 28  1  0  0  0  0
 28 32  1  0  0  0  0
 29 26  1  0  0  0  0
 31 27  1  0  0  0  0
 33 28  1  0  0  0  0
 34  6  1  0  0  0  0
 35 34  1  0  0  0  0
 35 39  1  0  0  0  0
 36 35  2  0  0  0  0
 37 42  1  0  0  0  0
 38 40  1  0  0  0  0
 38 37  2  0  0  0  0
 39 38  1  0  0  0  0
 40 44  1  0  0  0  0
 41 40  1  0  0  0  0
 43 39  1  0  0  0  0
M  END
>  <minimizedAffinity>
-5.91390705

>  <minimizedRMSD>
0.112983286

$$$$
