
 OpenBabel03242523553D

 44 46  0  0  1  0  0  0  0  0999 V2000
   42.8000   34.4800   38.7610 C   0  0  1  0  0  0  0  0  0  0  0  0
   42.9710   35.1790   40.1010 C   0  0  1  0  0  0  0  0  0  0  0  0
   41.6830   35.4410   40.6250 O   0  0  0  0  0  0  0  0  0  0  0  0
   40.7560   35.7760   39.6300 C   0  0  0  0  0  0  0  0  0  0  0  0
   40.4220   34.5870   38.7530 C   0  0  2  0  0  0  0  0  0  0  0  0
   41.6150   33.5880   38.9050 C   0  0  1  0  0  0  0  0  0  0  0  0
   43.7350   33.9140   38.5780 H   0  0  0  0  0  0  0  0  0  0  0  0
   43.5600   36.1020   40.0370 H   0  0  0  0  0  0  0  0  0  0  0  0
   39.8470   36.0630   40.1560 H   0  0  0  0  0  0  0  0  0  0  0  0
   41.0660   36.6650   39.0430 H   0  0  0  0  0  0  0  0  0  0  0  0
   39.4760   34.0990   39.0570 H   0  0  0  0  0  0  0  0  0  0  0  0
   41.4050   33.3400   39.9990 H   0  0  0  0  0  0  0  0  0  0  0  0
   42.5970   35.4240   37.7350 O   0  0  0  0  0  0  0  0  0  0  0  0
   43.4430   35.5290   37.2710 H   0  0  0  0  0  0  0  0  0  0  0  0
   40.4380   34.9680   37.4200 O   0  0  0  0  0  0  0  0  0  0  0  0
   39.7020   34.4960   36.9370 H   0  0  0  0  0  0  0  0  0  0  0  0
   43.4910   34.2050   40.9620 O   0  0  0  0  0  0  0  0  0  0  0  0
   44.5970   34.3450   41.7020 C   0  0  0  0  0  0  0  0  0  0  0  0
   45.8540   34.4470   41.1080 C   0  0  0  0  0  0  0  0  0  0  0  0
   46.9740   34.5920   41.9020 C   0  0  0  0  0  0  0  0  0  0  0  0
   46.8120   34.6340   43.2780 N   0  0  0  0  0  0  0  0  0  0  0  0
   45.5800   34.5330   43.8240 C   0  0  0  0  0  0  0  0  0  0  0  0
   44.4810   34.3900   43.0400 N   0  0  0  0  0  0  0  0  0  0  0  0
   45.9520   34.4110   40.0310 H   0  0  0  0  0  0  0  0  0  0  0  0
   45.4530   34.5660   44.9050 H   0  0  0  0  0  0  0  0  0  0  0  0
   48.3530   34.6870   41.3270 C   0  0  0  0  0  0  0  0  0  0  0  0
   49.0760   36.0210   41.5030 C   0  0  0  0  0  0  0  0  0  0  0  0
   49.5030   34.7030   42.1800 C   0  0  0  0  0  0  0  0  0  0  0  0
   48.3880   34.2970   40.2880 H   0  0  0  0  0  0  0  0  0  0  0  0
   48.5710   36.7820   42.0960 H   0  0  0  0  0  0  0  0  0  0  0  0
   49.6970   36.3550   40.6750 H   0  0  0  0  0  0  0  0  0  0  0  0
   49.3620   34.7400   43.2860 H   0  0  0  0  0  0  0  0  0  0  0  0
   50.4920   34.2790   41.9140 H   0  0  0  0  0  0  0  0  0  0  0  0
   41.4610   32.6200   37.9790 O   0  0  0  0  0  0  0  0  0  0  0  0
   40.7710   31.4820   37.9830 C   0  0  0  0  0  0  0  0  0  0  0  0
   39.5590   31.4000   37.4460 O   0  0  0  0  0  0  0  0  0  0  0  0
   39.4120   28.8460   37.4420 N   0  0  0  0  0  0  0  0  0  0  0  0
   40.3890   28.9970   38.1680 C   0  0  0  0  0  0  0  0  0  0  0  0
   41.1070   30.1550   38.5070 N   0  0  0  0  0  0  0  0  0  0  0  0
   40.7990   27.7280   38.7220 N   0  0  0  0  0  0  0  0  0  0  0  0
   41.7620   27.3280   38.7060 H   0  0  0  0  0  0  0  0  0  0  0  0
   38.8450   29.4440   36.8930 H   0  0  0  0  0  0  0  0  0  0  0  0
   41.9090   30.0340   39.1450 H   0  0  0  0  0  0  0  0  0  0  0  0
   40.2430   26.9980   39.2200 H   0  0  0  0  0  0  0  0  0  0  0  0
  1  7  1  6  0  0  0
  1  6  1  0  0  0  0
  1  2  1  0  0  0  0
  2  8  1  6  0  0  0
  2  3  1  0  0  0  0
  2 17  1  0  0  0  0
  4  9  1  0  0  0  0
  4  3  1  0  0  0  0
  5  6  1  0  0  0  0
  5 11  1  1  0  0  0
  5  4  1  0  0  0  0
  6 12  1  1  0  0  0
 10  4  1  0  0  0  0
 13  1  1  0  0  0  0
 14 13  1  0  0  0  0
 15  5  1  0  0  0  0
 16 15  1  0  0  0  0
 17 18  1  0  0  0  0
 18 23  1  0  0  0  0
 19 18  2  0  0  0  0
 19 20  1  0  0  0  0
 20 21  2  0  0  0  0
 21 22  1  0  0  0  0
 22 25  1  0  0  0  0
 23 22  2  0  0  0  0
 24 19  1  0  0  0  0
 26 27  1  0  0  0  0
 26 20  1  0  0  0  0
 26 28  1  0  0  0  0
 27 30  1  0  0  0  0
 27 28  1  0  0  0  0
 28 32  1  0  0  0  0
 29 26  1  0  0  0  0
 31 27  1  0  0  0  0
 33 28  1  0  0  0  0
 34 35  1  0  0  0  0
 34  6  1  0  0  0  0
 35 39  1  0  0  0  0
 36 35  2  0  0  0  0
 37 38  2  0  0  0  0
 38 39  1  0  0  0  0
 38 40  1  0  0  0  0
 39 43  1  0  0  0  0
 40 44  1  0  0  0  0
 41 40  1  0  0  0  0
 42 37  1  0  0  0  0
M  END
>  <minimizedAffinity>
-5.84517288

>  <minimizedRMSD>
0.212691218

$$$$
