
 OpenBabel03242523553D

 44 46  0  0  1  0  0  0  0  0999 V2000
   42.8140   34.4680   38.7780 C   0  0  1  0  0  0  0  0  0  0  0  0
   42.9780   35.1740   40.1140 C   0  0  1  0  0  0  0  0  0  0  0  0
   41.6880   35.4370   40.6320 O   0  0  0  0  0  0  0  0  0  0  0  0
   40.7650   35.7650   39.6310 C   0  0  0  0  0  0  0  0  0  0  0  0
   40.4370   34.5700   38.7590 C   0  0  2  0  0  0  0  0  0  0  0  0
   41.6300   33.5740   38.9220 C   0  0  1  0  0  0  0  0  0  0  0  0
   43.7510   33.9020   38.6020 H   0  0  0  0  0  0  0  0  0  0  0  0
   43.5670   36.0970   40.0480 H   0  0  0  0  0  0  0  0  0  0  0  0
   39.8530   36.0530   40.1510 H   0  0  0  0  0  0  0  0  0  0  0  0
   41.0760   36.6510   39.0390 H   0  0  0  0  0  0  0  0  0  0  0  0
   39.4900   34.0820   39.0620 H   0  0  0  0  0  0  0  0  0  0  0  0
   41.4160   33.3320   40.0160 H   0  0  0  0  0  0  0  0  0  0  0  0
   42.6140   35.4040   37.7460 O   0  0  0  0  0  0  0  0  0  0  0  0
   43.4630   35.5090   37.2850 H   0  0  0  0  0  0  0  0  0  0  0  0
   40.4580   34.9440   37.4230 O   0  0  0  0  0  0  0  0  0  0  0  0
   39.7250   34.4680   36.9400 H   0  0  0  0  0  0  0  0  0  0  0  0
   43.4960   34.2050   40.9840 O   0  0  0  0  0  0  0  0  0  0  0  0
   44.6060   34.3470   41.7180 C   0  0  0  0  0  0  0  0  0  0  0  0
   45.8590   34.4550   41.1170 C   0  0  0  0  0  0  0  0  0  0  0  0
   46.9830   34.6020   41.9050 C   0  0  0  0  0  0  0  0  0  0  0  0
   46.8290   34.6370   43.2820 N   0  0  0  0  0  0  0  0  0  0  0  0
   45.6010   34.5300   43.8350 C   0  0  0  0  0  0  0  0  0  0  0  0
   44.4970   34.3870   43.0570 N   0  0  0  0  0  0  0  0  0  0  0  0
   45.9520   34.4240   40.0400 H   0  0  0  0  0  0  0  0  0  0  0  0
   45.4790   34.5580   44.9170 H   0  0  0  0  0  0  0  0  0  0  0  0
   48.3590   34.7040   41.3230 C   0  0  0  0  0  0  0  0  0  0  0  0
   49.0830   36.0340   41.5120 C   0  0  0  0  0  0  0  0  0  0  0  0
   49.5140   34.7080   42.1680 C   0  0  0  0  0  0  0  0  0  0  0  0
   48.3870   34.3260   40.2780 H   0  0  0  0  0  0  0  0  0  0  0  0
   48.5820   36.7880   42.1180 H   0  0  0  0  0  0  0  0  0  0  0  0
   49.6990   36.3790   40.6840 H   0  0  0  0  0  0  0  0  0  0  0  0
   49.3800   34.7300   43.2760 H   0  0  0  0  0  0  0  0  0  0  0  0
   50.5010   34.2870   41.8910 H   0  0  0  0  0  0  0  0  0  0  0  0
   41.4820   32.6000   38.0010 O   0  0  0  0  0  0  0  0  0  0  0  0
   40.9200   31.3960   38.0570 C   0  0  0  0  0  0  0  0  0  0  0  0
   39.8360   31.0980   37.3500 O   0  0  0  0  0  0  0  0  0  0  0  0
   39.1250   29.2340   39.1490 N   0  0  0  0  0  0  0  0  0  0  0  0
   40.3470   29.2590   39.2640 C   0  0  0  0  0  0  0  0  0  0  0  0
   41.2890   30.1960   38.8140 N   0  0  0  0  0  0  0  0  0  0  0  0
   40.8020   28.0970   39.9920 N   0  0  0  0  0  0  0  0  0  0  0  0
   41.5540   27.4380   39.6980 H   0  0  0  0  0  0  0  0  0  0  0  0
   38.4460   29.8210   38.7330 H   0  0  0  0  0  0  0  0  0  0  0  0
   42.2780   30.0000   39.0300 H   0  0  0  0  0  0  0  0  0  0  0  0
   40.4850   27.7080   40.9070 H   0  0  0  0  0  0  0  0  0  0  0  0
  1  7  1  6  0  0  0
  1  6  1  0  0  0  0
  1  2  1  0  0  0  0
  2  8  1  6  0  0  0
  2  3  1  0  0  0  0
  2 17  1  0  0  0  0
  4  9  1  0  0  0  0
  4  3  1  0  0  0  0
  5  6  1  0  0  0  0
  5 11  1  1  0  0  0
  5  4  1  0  0  0  0
  6 12  1  1  0  0  0
 10  4  1  0  0  0  0
 13  1  1  0  0  0  0
 14 13  1  0  0  0  0
 15  5  1  0  0  0  0
 16 15  1  0  0  0  0
 17 18  1  0  0  0  0
 18 23  1  0  0  0  0
 19 18  2  0  0  0  0
 19 20  1  0  0  0  0
 20 21  2  0  0  0  0
 21 22  1  0  0  0  0
 22 25  1  0  0  0  0
 23 22  2  0  0  0  0
 24 19  1  0  0  0  0
 26 27  1  0  0  0  0
 26 20  1  0  0  0  0
 26 28  1  0  0  0  0
 27 30  1  0  0  0  0
 27 28  1  0  0  0  0
 28 32  1  0  0  0  0
 29 26  1  0  0  0  0
 31 27  1  0  0  0  0
 33 28  1  0  0  0  0
 34 35  1  0  0  0  0
 34  6  1  0  0  0  0
 35 39  1  0  0  0  0
 36 35  2  0  0  0  0
 37 38  2  0  0  0  0
 38 40  1  0  0  0  0
 39 43  1  0  0  0  0
 39 38  1  0  0  0  0
 40 44  1  0  0  0  0
 41 40  1  0  0  0  0
 42 37  1  0  0  0  0
M  END
>  <minimizedAffinity>
-5.91402149

>  <minimizedRMSD>
0.292277634

$$$$
