
 OpenBabel03242512283D

 21 21  0  0  0  0  0  0  0  0999 V2000
   44.9470   35.0390   44.4790 C   0  0  0  0  0  0  0  0  0  0  0  0
   45.8930   34.9760   43.4500 C   0  0  0  0  0  0  0  0  0  0  0  0
   46.9410   34.0560   43.5780 C   0  0  0  0  0  0  0  0  0  0  0  0
   46.9720   33.2890   44.6830 N   0  0  0  0  0  0  0  0  0  0  0  0
   46.0500   33.3730   45.6530 C   0  0  0  0  0  0  0  0  0  0  0  0
   45.0370   34.2430   45.5590 N   0  0  0  0  0  0  0  0  0  0  0  0
   43.8690   35.9720   44.3680 N   0  0  0  0  0  0  0  0  0  0  0  0
   45.8380   35.6010   42.5830 H   0  0  0  0  0  0  0  0  0  0  0  0
   47.7100   33.9510   42.8210 H   0  0  0  0  0  0  0  0  0  0  0  0
   42.8700   35.8170   44.6260 H   0  0  0  0  0  0  0  0  0  0  0  0
   44.1250   36.9010   43.9880 H   0  0  0  0  0  0  0  0  0  0  0  0
   46.1120   32.5290   46.8390 C   0  0  0  0  0  0  0  0  0  0  0  0
   45.2880   32.6270   47.7940 O   0  0  0  0  0  0  0  0  0  0  0  0
   47.2190   31.6820   49.2380 N   0  0  0  0  0  0  0  0  0  0  0  0
   47.7050   31.1300   48.1640 C   0  0  0  0  0  0  0  0  0  0  0  0
   47.1530   31.5490   46.9200 N   0  0  0  0  0  0  0  0  0  0  0  0
   48.7430   30.1410   48.0920 N   0  0  0  0  0  0  0  0  0  0  0  0
   48.1770   29.2510   48.0040 H   0  0  0  0  0  0  0  0  0  0  0  0
   47.5930   31.4090   50.1900 H   0  0  0  0  0  0  0  0  0  0  0  0
   47.5110   31.1330   46.0080 H   0  0  0  0  0  0  0  0  0  0  0  0
   49.7810   30.2000   48.1150 H   0  0  0  0  0  0  0  0  0  0  0  0
  1  6  1  0  0  0  0
  2  3  1  0  0  0  0
  2  1  2  0  0  0  0
  3  4  2  0  0  0  0
  4  5  1  0  0  0  0
  5 12  1  0  0  0  0
  6  5  2  0  0  0  0
  7  1  1  0  0  0  0
  7 10  1  0  0  0  0
  8  2  1  0  0  0  0
  9  3  1  0  0  0  0
 11  7  1  0  0  0  0
 12 16  1  0  0  0  0
 12 13  2  0  0  0  0
 14 19  1  0  0  0  0
 15 14  2  0  0  0  0
 16 15  1  0  0  0  0
 17 21  1  0  0  0  0
 17 15  1  0  0  0  0
 18 17  1  0  0  0  0
 20 16  1  0  0  0  0
M  END
>  <minimizedAffinity>
-4.74591255

>  <minimizedRMSD>
0.44922033

$$$$
