
 OpenBabel03242523173D

 26 27  0  0  0  0  0  0  0  0999 V2000
   46.2180   34.5870   43.5860 C   0  0  0  0  0  0  0  0  0  0  0  0
   47.3490   34.0160   43.1030 C   0  0  0  0  0  0  0  0  0  0  0  0
   47.7690   32.8690   43.7470 C   0  0  0  0  0  0  0  0  0  0  0  0
   47.0080   32.4080   44.8190 N   0  0  0  0  0  0  0  0  0  0  0  0
   45.9130   33.0010   45.2520 C   0  0  0  0  0  0  0  0  0  0  0  0
   45.4730   34.1420   44.6310 N   0  0  0  0  0  0  0  0  0  0  0  0
   48.6590   32.3330   43.4430 H   0  0  0  0  0  0  0  0  0  0  0  0
   45.4700   32.4850   46.0930 H   0  0  0  0  0  0  0  0  0  0  0  0
   45.4980   35.7250   43.0360 C   0  0  0  0  0  0  0  0  0  0  0  0
   45.2380   36.9180   43.0820 O   0  0  0  0  0  0  0  0  0  0  0  0
   42.4560   35.6150   42.5920 N   0  0  0  0  0  0  0  0  0  0  0  0
   43.3560   35.1500   41.8480 C   0  0  0  0  0  0  0  0  0  0  0  0
   44.7670   35.1280   41.9250 N   0  0  0  0  0  0  0  0  0  0  0  0
   42.4700   34.6200   40.8360 N   0  0  0  0  0  0  0  0  0  0  0  0
   42.2550   34.9760   39.8620 H   0  0  0  0  0  0  0  0  0  0  0  0
   42.5140   36.1080   43.4690 H   0  0  0  0  0  0  0  0  0  0  0  0
   45.0600   34.6100   41.0370 H   0  0  0  0  0  0  0  0  0  0  0  0
   41.8550   33.7680   40.8610 H   0  0  0  0  0  0  0  0  0  0  0  0
   48.1490   34.5330   42.0560 C   0  0  0  0  0  0  0  0  0  0  0  0
   48.6240   35.7810   41.8260 C   0  0  0  0  0  0  0  0  0  0  0  0
   49.6900   34.8040   42.3230 C   0  0  0  0  0  0  0  0  0  0  0  0
   48.2930   33.6720   41.2640 H   0  0  0  0  0  0  0  0  0  0  0  0
   48.8760   36.1760   40.8030 H   0  0  0  0  0  0  0  0  0  0  0  0
   48.4600   36.6390   42.5340 H   0  0  0  0  0  0  0  0  0  0  0  0
   49.9640   34.8040   43.3970 H   0  0  0  0  0  0  0  0  0  0  0  0
   50.4290   34.4400   41.6350 H   0  0  0  0  0  0  0  0  0  0  0  0
  1  6  1  0  0  0  0
  2  1  2  0  0  0  0
  2  3  1  0  0  0  0
  3  4  2  0  0  0  0
  4  5  1  0  0  0  0
  5  8  1  0  0  0  0
  6  5  2  0  0  0  0
  7  3  1  0  0  0  0
  9 10  2  0  0  0  0
  9  1  1  0  0  0  0
 11 16  1  0  0  0  0
 12 13  1  0  0  0  0
 12 11  2  0  0  0  0
 13  9  1  0  0  0  0
 14 18  1  0  0  0  0
 14 12  1  0  0  0  0
 15 14  1  0  0  0  0
 17 13  1  0  0  0  0
 19 21  1  0  0  0  0
 19  2  1  0  0  0  0
 20 19  1  0  0  0  0
 20 21  1  0  0  0  0
 20 24  1  0  0  0  0
 21 25  1  0  0  0  0
 22 19  1  0  0  0  0
 23 20  1  0  0  0  0
 26 21  1  0  0  0  0
M  END
>  <minimizedAffinity>
-5.10581827

>  <minimizedRMSD>
0.336185485

$$$$
