
 OpenBabel03242520453D

 21 21  0  0  0  0  0  0  0  0999 V2000
   44.9250   35.1200   44.0170 C   0  0  0  0  0  0  0  0  0  0  0  0
   45.7780   35.3920   42.9430 C   0  0  0  0  0  0  0  0  0  0  0  0
   47.0000   34.6990   42.8510 C   0  0  0  0  0  0  0  0  0  0  0  0
   47.2780   33.8050   43.8160 N   0  0  0  0  0  0  0  0  0  0  0  0
   46.4360   33.5670   44.8380 C   0  0  0  0  0  0  0  0  0  0  0  0
   45.2780   34.2220   44.9250 N   0  0  0  0  0  0  0  0  0  0  0  0
   43.6960   35.8160   44.1090 N   0  0  0  0  0  0  0  0  0  0  0  0
   45.4740   36.1260   42.2130 H   0  0  0  0  0  0  0  0  0  0  0  0
   46.7280   32.8260   45.5850 H   0  0  0  0  0  0  0  0  0  0  0  0
   43.9700   36.6520   44.6920 H   0  0  0  0  0  0  0  0  0  0  0  0
   43.1180   35.1530   43.5490 H   0  0  0  0  0  0  0  0  0  0  0  0
   47.8040   35.0590   41.7000 C   0  0  0  0  0  0  0  0  0  0  0  0
   48.7380   35.9020   41.7450 O   0  0  0  0  0  0  0  0  0  0  0  0
   47.9810   32.3390   41.2390 N   0  0  0  0  0  0  0  0  0  0  0  0
   47.6590   33.0420   40.2020 C   0  0  0  0  0  0  0  0  0  0  0  0
   47.5620   34.4480   40.4150 N   0  0  0  0  0  0  0  0  0  0  0  0
   47.3870   32.6200   38.8790 N   0  0  0  0  0  0  0  0  0  0  0  0
   46.4510   32.9450   38.4950 H   0  0  0  0  0  0  0  0  0  0  0  0
   48.0790   31.3190   41.1980 H   0  0  0  0  0  0  0  0  0  0  0  0
   47.3080   35.1170   39.6500 H   0  0  0  0  0  0  0  0  0  0  0  0
   47.8990   32.0500   38.1670 H   0  0  0  0  0  0  0  0  0  0  0  0
  1  7  1  0  0  0  0
  1  6  1  0  0  0  0
  2  1  2  0  0  0  0
  3  2  1  0  0  0  0
  3  4  2  0  0  0  0
  4  5  1  0  0  0  0
  5  6  2  0  0  0  0
  5  9  1  0  0  0  0
  7 10  1  0  0  0  0
  8  2  1  0  0  0  0
 11  7  1  0  0  0  0
 12 13  2  0  0  0  0
 12  3  1  0  0  0  0
 15 16  1  0  0  0  0
 15 14  2  0  0  0  0
 16 12  1  0  0  0  0
 17 15  1  0  0  0  0
 18 17  1  0  0  0  0
 19 14  1  0  0  0  0
 20 16  1  0  0  0  0
 21 17  1  0  0  0  0
M  END
>  <minimizedAffinity>
-4.46123171

>  <minimizedRMSD>
0.124480121

$$$$
