
 OpenBabel03242523553D

 44 46  0  0  1  0  0  0  0  0999 V2000
   42.8280   34.3500   38.9740 C   0  0  1  0  0  0  0  0  0  0  0  0
   43.0570   35.1880   40.2210 C   0  0  1  0  0  0  0  0  0  0  0  0
   41.7980   35.6380   40.6840 O   0  0  0  0  0  0  0  0  0  0  0  0
   40.9170   35.9380   39.6370 C   0  0  0  0  0  0  0  0  0  0  0  0
   40.4730   34.6880   38.9050 C   0  0  2  0  0  0  0  0  0  0  0  0
   41.5580   33.6030   39.2020 C   0  0  1  0  0  0  0  0  0  0  0  0
   43.7030   33.6760   38.8800 H   0  0  0  0  0  0  0  0  0  0  0  0
   43.7370   36.0340   40.0580 H   0  0  0  0  0  0  0  0  0  0  0  0
   40.0370   36.3750   40.1050 H   0  0  0  0  0  0  0  0  0  0  0  0
   41.3190   36.7120   38.9520 H   0  0  0  0  0  0  0  0  0  0  0  0
   39.4800   34.3360   39.2470 H   0  0  0  0  0  0  0  0  0  0  0  0
   41.3160   33.5140   40.3130 H   0  0  0  0  0  0  0  0  0  0  0  0
   42.7280   35.1750   37.8370 O   0  0  0  0  0  0  0  0  0  0  0  0
   43.5850   35.1390   37.3810 H   0  0  0  0  0  0  0  0  0  0  0  0
   40.5370   34.8990   37.5350 O   0  0  0  0  0  0  0  0  0  0  0  0
   39.7620   34.4450   37.0990 H   0  0  0  0  0  0  0  0  0  0  0  0
   43.4700   34.2810   41.2050 O   0  0  0  0  0  0  0  0  0  0  0  0
   44.6150   34.3620   41.8920 C   0  0  0  0  0  0  0  0  0  0  0  0
   45.8390   34.5020   41.2400 C   0  0  0  0  0  0  0  0  0  0  0  0
   47.0010   34.5840   41.9800 C   0  0  0  0  0  0  0  0  0  0  0  0
   46.9150   34.5250   43.3620 N   0  0  0  0  0  0  0  0  0  0  0  0
   45.7140   34.3890   43.9660 C   0  0  0  0  0  0  0  0  0  0  0  0
   44.5720   34.3100   43.2350 N   0  0  0  0  0  0  0  0  0  0  0  0
   45.8790   34.5440   40.1600 H   0  0  0  0  0  0  0  0  0  0  0  0
   45.6450   34.3440   45.0520 H   0  0  0  0  0  0  0  0  0  0  0  0
   48.3490   34.7140   41.3400 C   0  0  0  0  0  0  0  0  0  0  0  0
   49.0710   36.0450   41.5350 C   0  0  0  0  0  0  0  0  0  0  0  0
   49.5410   34.7040   42.1320 C   0  0  0  0  0  0  0  0  0  0  0  0
   48.3330   34.3680   40.2840 H   0  0  0  0  0  0  0  0  0  0  0  0
   48.5930   36.7770   42.1850 H   0  0  0  0  0  0  0  0  0  0  0  0
   49.6470   36.4190   40.6910 H   0  0  0  0  0  0  0  0  0  0  0  0
   49.4570   34.6930   43.2450 H   0  0  0  0  0  0  0  0  0  0  0  0
   50.5180   34.3000   41.7980 H   0  0  0  0  0  0  0  0  0  0  0  0
   41.3160   32.5480   38.3980 O   0  0  0  0  0  0  0  0  0  0  0  0
   40.4200   31.5660   38.4580 C   0  0  0  0  0  0  0  0  0  0  0  0
   39.5680   31.3370   37.4660 O   0  0  0  0  0  0  0  0  0  0  0  0
   38.1530   31.4910   40.4450 N   0  0  0  0  0  0  0  0  0  0  0  0
   39.0470   30.6540   40.3660 C   0  0  0  0  0  0  0  0  0  0  0  0
   40.1510   30.5730   39.5030 N   0  0  0  0  0  0  0  0  0  0  0  0
   38.8520   29.6230   41.3580 N   0  0  0  0  0  0  0  0  0  0  0  0
   38.8460   28.5930   41.1880 H   0  0  0  0  0  0  0  0  0  0  0  0
   37.9280   32.3260   39.9640 H   0  0  0  0  0  0  0  0  0  0  0  0
   40.7760   29.7610   39.6240 H   0  0  0  0  0  0  0  0  0  0  0  0
   38.6880   29.6980   42.3850 H   0  0  0  0  0  0  0  0  0  0  0  0
  1  7  1  6  0  0  0
  1  6  1  0  0  0  0
  1  2  1  0  0  0  0
  2  8  1  6  0  0  0
  2  3  1  0  0  0  0
  2 17  1  0  0  0  0
  4  9  1  0  0  0  0
  4  3  1  0  0  0  0
  5  6  1  0  0  0  0
  5 11  1  1  0  0  0
  5  4  1  0  0  0  0
  6 12  1  1  0  0  0
 10  4  1  0  0  0  0
 13  1  1  0  0  0  0
 14 13  1  0  0  0  0
 15  5  1  0  0  0  0
 16 15  1  0  0  0  0
 17 18  1  0  0  0  0
 18 23  1  0  0  0  0
 19 18  2  0  0  0  0
 19 20  1  0  0  0  0
 20 21  2  0  0  0  0
 21 22  1  0  0  0  0
 22 25  1  0  0  0  0
 23 22  2  0  0  0  0
 24 19  1  0  0  0  0
 26 27  1  0  0  0  0
 26 20  1  0  0  0  0
 26 28  1  0  0  0  0
 27 28  1  0  0  0  0
 27 30  1  0  0  0  0
 28 32  1  0  0  0  0
 29 26  1  0  0  0  0
 31 27  1  0  0  0  0
 33 28  1  0  0  0  0
 34 35  1  0  0  0  0
 34  6  1  0  0  0  0
 35 39  1  0  0  0  0
 36 35  2  0  0  0  0
 38 37  2  0  0  0  0
 38 40  1  0  0  0  0
 39 43  1  0  0  0  0
 39 38  1  0  0  0  0
 40 44  1  0  0  0  0
 41 40  1  0  0  0  0
 42 37  1  0  0  0  0
M  END
>  <minimizedAffinity>
-6.14830112

>  <minimizedRMSD>
1.15608895

$$$$
