REMARK  Name = 
REMARK  1 active torsions:
REMARK  status: ('A' for Active; 'I' for Inactive)
REMARK    1  A    between atoms: C_5  and  C_8
REMARK                            x       y       z     vdW  Elec       q    Type
REMARK                         _______ _______ _______ _____ _____    ______ ____
ROOT
ATOM      1  C   UNL     1      44.905  35.061  44.334  0.00  0.00    +0.000 A 
ATOM      2  C   UNL     1      45.813  35.023  43.270  0.00  0.00    +0.000 A 
ATOM      3  C   UNL     1      46.925  34.179  43.388  0.00  0.00    +0.000 A 
ATOM      4  N   UNL     1      47.050  33.458  44.517  0.00  0.00    +0.000 NA
ATOM      5  C   UNL     1      46.162  33.517  45.520  0.00  0.00    +0.000 A 
ATOM      6  N   UNL     1      45.090  34.314  45.437  0.00  0.00    +0.000 NA
ATOM      7  N   UNL     1      43.763  35.916  44.234  0.00  0.00    +0.000 N 
ATOM      8  H   UNL     1      45.683  35.610  42.385  0.00  0.00    +0.000 HD
ATOM      9  H   UNL     1      47.670  34.097  42.604  0.00  0.00    +0.000 HD
ATOM     10  H   UNL     1      42.787  35.705  44.538  0.00  0.00    +0.000 HD
ATOM     11  H   UNL     1      43.941  36.845  43.812  0.00  0.00    +0.000 HD
ENDROOT
BRANCH   5  12
ATOM     12  C   UNL     1      46.326  32.724  46.731  0.00  0.00    +0.000 C 
ATOM     13  O   UNL     1      45.440  32.655  47.631  0.00  0.00    +0.000 OA
ATOM     14  N   UNL     1      47.810  31.727  44.610  0.00  0.00    +0.000 NA
ATOM     15  C   UNL     1      48.290  31.492  45.797  0.00  0.00    +0.000 C 
ATOM     16  N   UNL     1      47.546  31.994  46.903  0.00  0.00    +0.000 N 
ATOM     17  N   UNL     1      49.493  30.779  46.118  0.00  0.00    +0.000 N 
ATOM     18  H   UNL     1      50.176  31.575  46.261  0.00  0.00    +0.000 HD
ATOM     19  H   UNL     1      48.322  31.377  43.753  0.00  0.00    +0.000 HD
ATOM     20  H   UNL     1      47.890  31.832  47.896  0.00  0.00    +0.000 HD
ATOM     21  H   UNL     1      49.717  29.767  46.206  0.00  0.00    +0.000 HD
ENDBRANCH   5  12
TORSDOF 1
