
     RDKit          3D

 44 46  0  0  0  0  0  0  0  0999 V2000
   42.8239   34.4845   38.7785 C   0  0  1  0  0  0  0  0  0  0  0  0
   42.9537   35.1625   40.1334 C   0  0  1  0  0  0  0  0  0  0  0  0
   41.6521   35.3768   40.6422 O   0  0  0  0  0  0  0  0  0  0  0  0
   40.7303   35.7035   39.6385 C   0  0  0  0  0  0  0  0  0  0  0  0
   40.4448   34.5198   38.7357 C   0  0  2  0  0  0  0  0  0  0  0  0
   41.6637   33.5542   38.8894 C   0  0  1  0  0  0  0  0  0  0  0  0
   42.6084   35.4392   37.7674 O   0  0  0  0  0  0  0  0  0  0  0  0
   40.4686   34.9257   37.4101 O   0  0  0  0  0  0  0  0  0  0  0  0
   43.4904   34.1889   40.9853 O   0  0  0  0  0  0  0  0  0  0  0  0
   44.5989   34.3375   41.7193 C   0  0  0  0  0  0  0  0  0  0  0  0
   45.8519   34.4485   41.1178 C   0  0  0  0  0  0  0  0  0  0  0  0
   46.9755   34.6017   41.9064 C   0  0  0  0  0  0  0  0  0  0  0  0
   46.8210   34.6409   43.2834 N   0  0  0  0  0  0  0  0  0  0  0  0
   45.5935   34.5304   43.8363 C   0  0  0  0  0  0  0  0  0  0  0  0
   44.4904   34.3796   43.0579 N   0  0  0  0  0  0  0  0  0  0  0  0
   48.3514   34.7075   41.3240 C   0  0  0  0  0  0  0  0  0  0  0  0
   49.0723   36.0400   41.5136 C   0  0  0  0  0  0  0  0  0  0  0  0
   49.5058   34.7142   42.1685 C   0  0  0  0  0  0  0  0  0  0  0  0
   41.5530   32.5990   37.9436 O   0  0  0  0  0  0  0  0  0  0  0  0
   40.9468   31.4147   37.9385 C   0  0  0  0  0  0  0  0  0  0  0  0
   39.6694   31.2869   37.6004 O   0  0  0  0  0  0  0  0  0  0  0  0
   43.7783   33.9489   38.5999 H   0  0  0  0  0  0  0  0  0  0  0  0
   43.5174   36.1044   40.0950 H   0  0  0  0  0  0  0  0  0  0  0  0
   39.8047   35.9528   40.1560 H   0  0  0  0  0  0  0  0  0  0  0  0
   41.0221   36.6113   39.0721 H   0  0  0  0  0  0  0  0  0  0  0  0
   39.5088   33.9992   39.0172 H   0  0  0  0  0  0  0  0  0  0  0  0
   41.4458   33.2810   39.9753 H   0  0  0  0  0  0  0  0  0  0  0  0
   43.4575   35.5779   37.3180 H   0  0  0  0  0  0  0  0  0  0  0  0
   39.7546   34.4411   36.9077 H   0  0  0  0  0  0  0  0  0  0  0  0
   45.9446   34.4150   40.0411 H   0  0  0  0  0  0  0  0  0  0  0  0
   45.4712   34.5608   44.9177 H   0  0  0  0  0  0  0  0  0  0  0  0
   48.3803   34.3317   40.2795 H   0  0  0  0  0  0  0  0  0  0  0  0
   48.5689   36.7919   42.1214 H   0  0  0  0  0  0  0  0  0  0  0  0
   49.6867   36.3870   40.6870 H   0  0  0  0  0  0  0  0  0  0  0  0
   49.3720   34.7354   43.2769 H   0  0  0  0  0  0  0  0  0  0  0  0
   50.4939   34.2961   41.8911 H   0  0  0  0  0  0  0  0  0  0  0  0
   41.5772   30.2339   40.6396 N   0  0  0  0  0  0  0  0  0  0  0  0
   41.6992   29.6459   39.5690 C   0  0  0  0  0  0  0  0  0  0  0  0
   41.4499   30.0752   38.2561 N   0  0  0  0  0  0  0  0  0  0  0  0
   42.1823   28.3033   39.7913 N   0  0  0  0  0  0  0  0  0  0  0  0
   41.7651   27.4252   39.4144 H   0  0  0  0  0  0  0  0  0  0  0  0
   41.2847   31.1384   40.9154 H   0  0  0  0  0  0  0  0  0  0  0  0
   41.6255   29.3921   37.5038 H   0  0  0  0  0  0  0  0  0  0  0  0
   42.9996   27.9628   40.3430 H   0  0  0  0  0  0  0  0  0  0  0  0
  1  6  1  0
  1  2  1  0
  2  3  1  0
  2  9  1  0
  4  3  1  0
  5  6  1  0
  5  4  1  0
  7  1  1  0
  8  5  1  0
  9 10  1  0
 10 15  1  0
 11 10  2  0
 11 12  1  0
 12 13  2  0
 13 14  1  0
 15 14  2  0
 16 17  1  0
 16 12  1  0
 16 18  1  0
 17 18  1  0
 19 20  1  0
 19  6  1  0
 21 20  2  0
  1 22  1  6
  2 23  1  6
  4 24  1  0
  4 25  1  0
  5 26  1  1
  6 27  1  1
  7 28  1  0
  8 29  1  0
 11 30  1  0
 14 31  1  0
 16 32  1  0
 17 33  1  0
 17 34  1  0
 18 35  1  0
 18 36  1  0
 37 38  2  3
 38 39  1  0
 38 40  1  0
 40 41  1  0
 37 42  1  0
 39 43  1  0
 40 44  1  0
 20 39  1  0
M  ISO  8  22  13  23  13  24  13  25  13  26  13  27  13  28   3  29   3
M  ISO  8  30  14  31  14  32  13  33  13  34  13  35  13  36  13  41   5
M  END
>  <DihAtoms>  (1) 
18,19,38,37

>  <DihDeg>  (1) 
179.55171932427962

$$$$
