
 OpenBabel03242523553D

 44 46  0  0  1  0  0  0  0  0999 V2000
   42.8170   34.5290   38.7480 C   0  0  1  0  0  0  0  0  0  0  0  0
   42.9510   35.1870   40.1120 C   0  0  1  0  0  0  0  0  0  0  0  0
   41.6510   35.3930   40.6290 O   0  0  0  0  0  0  0  0  0  0  0  0
   40.7260   35.7340   39.6340 C   0  0  0  0  0  0  0  0  0  0  0  0
   40.4370   34.5660   38.7140 C   0  0  2  0  0  0  0  0  0  0  0  0
   41.6570   33.5970   38.8470 C   0  0  1  0  0  0  0  0  0  0  0  0
   43.7700   33.9970   38.5570 H   0  0  0  0  0  0  0  0  0  0  0  0
   43.5140   36.1280   40.0870 H   0  0  0  0  0  0  0  0  0  0  0  0
   39.8020   35.9760   40.1580 H   0  0  0  0  0  0  0  0  0  0  0  0
   41.0160   36.6510   39.0810 H   0  0  0  0  0  0  0  0  0  0  0  0
   39.5020   34.0400   38.9900 H   0  0  0  0  0  0  0  0  0  0  0  0
   41.4430   33.3070   39.9300 H   0  0  0  0  0  0  0  0  0  0  0  0
   42.5970   35.5000   37.7520 O   0  0  0  0  0  0  0  0  0  0  0  0
   43.4460   35.6460   37.3020 H   0  0  0  0  0  0  0  0  0  0  0  0
   40.4570   34.9920   37.3940 O   0  0  0  0  0  0  0  0  0  0  0  0
   39.7410   34.5150   36.8870 H   0  0  0  0  0  0  0  0  0  0  0  0
   43.4900   34.2000   40.9470 O   0  0  0  0  0  0  0  0  0  0  0  0
   44.5930   34.3410   41.6910 C   0  0  0  0  0  0  0  0  0  0  0  0
   45.8530   34.4430   41.1010 C   0  0  0  0  0  0  0  0  0  0  0  0
   46.9690   34.5890   41.8990 C   0  0  0  0  0  0  0  0  0  0  0  0
   46.8030   34.6330   43.2750 N   0  0  0  0  0  0  0  0  0  0  0  0
   45.5690   34.5320   43.8160 C   0  0  0  0  0  0  0  0  0  0  0  0
   44.4720   34.3880   43.0290 N   0  0  0  0  0  0  0  0  0  0  0  0
   45.9550   34.4050   40.0250 H   0  0  0  0  0  0  0  0  0  0  0  0
   45.4370   34.5670   44.8970 H   0  0  0  0  0  0  0  0  0  0  0  0
   48.3510   34.6840   41.3300 C   0  0  0  0  0  0  0  0  0  0  0  0
   49.0730   36.0180   41.5060 C   0  0  0  0  0  0  0  0  0  0  0  0
   49.4980   34.7020   42.1860 C   0  0  0  0  0  0  0  0  0  0  0  0
   48.3910   34.2910   40.2910 H   0  0  0  0  0  0  0  0  0  0  0  0
   48.5650   36.7800   42.0950 H   0  0  0  0  0  0  0  0  0  0  0  0
   49.6970   36.3500   40.6790 H   0  0  0  0  0  0  0  0  0  0  0  0
   49.3520   34.7410   43.2930 H   0  0  0  0  0  0  0  0  0  0  0  0
   50.4880   34.2780   41.9260 H   0  0  0  0  0  0  0  0  0  0  0  0
   41.5430   32.6570   37.8880 O   0  0  0  0  0  0  0  0  0  0  0  0
   40.9300   31.4770   37.8630 C   0  0  0  0  0  0  0  0  0  0  0  0
   39.6360   31.3690   37.5840 O   0  0  0  0  0  0  0  0  0  0  0  0
   43.5470   30.6420   39.1060 N   0  0  0  0  0  0  0  0  0  0  0  0
   42.6850   29.8710   38.6960 C   0  0  0  0  0  0  0  0  0  0  0  0
   41.4400   30.1230   38.0980 N   0  0  0  0  0  0  0  0  0  0  0  0
   43.1030   28.5030   38.9010 N   0  0  0  0  0  0  0  0  0  0  0  0
   42.5500   27.7510   39.3640 H   0  0  0  0  0  0  0  0  0  0  0  0
   43.6460   31.6270   39.1500 H   0  0  0  0  0  0  0  0  0  0  0  0
   40.8770   29.3010   37.8360 H   0  0  0  0  0  0  0  0  0  0  0  0
   43.9920   28.0240   38.6440 H   0  0  0  0  0  0  0  0  0  0  0  0
  1  7  1  6  0  0  0
  1  6  1  0  0  0  0
  1  2  1  0  0  0  0
  2  8  1  6  0  0  0
  2  3  1  0  0  0  0
  2 17  1  0  0  0  0
  4  9  1  0  0  0  0
  4  3  1  0  0  0  0
  5  6  1  0  0  0  0
  5 11  1  1  0  0  0
  5  4  1  0  0  0  0
  6 12  1  1  0  0  0
 10  4  1  0  0  0  0
 13  1  1  0  0  0  0
 14 13  1  0  0  0  0
 15  5  1  0  0  0  0
 16 15  1  0  0  0  0
 17 18  1  0  0  0  0
 18 23  1  0  0  0  0
 19 18  2  0  0  0  0
 19 20  1  0  0  0  0
 20 21  2  0  0  0  0
 21 22  1  0  0  0  0
 22 25  1  0  0  0  0
 23 22  2  0  0  0  0
 24 19  1  0  0  0  0
 26 27  1  0  0  0  0
 26 20  1  0  0  0  0
 26 28  1  0  0  0  0
 27 30  1  0  0  0  0
 27 28  1  0  0  0  0
 28 32  1  0  0  0  0
 29 26  1  0  0  0  0
 31 27  1  0  0  0  0
 33 28  1  0  0  0  0
 34  6  1  0  0  0  0
 35 34  1  0  0  0  0
 35 39  1  0  0  0  0
 36 35  2  0  0  0  0
 37 42  1  0  0  0  0
 38 40  1  0  0  0  0
 38 37  2  0  0  0  0
 39 38  1  0  0  0  0
 40 41  1  0  0  0  0
 43 39  1  0  0  0  0
 44 40  1  0  0  0  0
M  END
>  <minimizedAffinity>
-5.80819941

>  <minimizedRMSD>
0.107299514

$$$$
