
 OpenBabel03242523553D

 44 46  0  0  1  0  0  0  0  0999 V2000
   42.8160   34.5070   38.7570 C   0  0  1  0  0  0  0  0  0  0  0  0
   42.9570   35.1800   40.1120 C   0  0  1  0  0  0  0  0  0  0  0  0
   41.6590   35.4030   40.6280 O   0  0  0  0  0  0  0  0  0  0  0  0
   40.7360   35.7400   39.6300 C   0  0  0  0  0  0  0  0  0  0  0  0
   40.4370   34.5630   38.7240 C   0  0  2  0  0  0  0  0  0  0  0  0
   41.6480   33.5860   38.8690 C   0  0  1  0  0  0  0  0  0  0  0  0
   43.7640   33.9650   38.5720 H   0  0  0  0  0  0  0  0  0  0  0  0
   43.5280   36.1160   40.0750 H   0  0  0  0  0  0  0  0  0  0  0  0
   39.8150   35.9960   40.1520 H   0  0  0  0  0  0  0  0  0  0  0  0
   41.0330   36.6480   39.0650 H   0  0  0  0  0  0  0  0  0  0  0  0
   39.4980   34.0490   39.0080 H   0  0  0  0  0  0  0  0  0  0  0  0
   41.4330   33.3110   39.9540 H   0  0  0  0  0  0  0  0  0  0  0  0
   42.6030   35.4670   37.7490 O   0  0  0  0  0  0  0  0  0  0  0  0
   43.4520   35.6010   37.2970 H   0  0  0  0  0  0  0  0  0  0  0  0
   40.4580   34.9730   37.4000 O   0  0  0  0  0  0  0  0  0  0  0  0
   39.7380   34.4960   36.8990 H   0  0  0  0  0  0  0  0  0  0  0  0
   43.4890   34.1990   40.9590 O   0  0  0  0  0  0  0  0  0  0  0  0
   44.5940   34.3400   41.6990 C   0  0  0  0  0  0  0  0  0  0  0  0
   45.8520   34.4440   41.1050 C   0  0  0  0  0  0  0  0  0  0  0  0
   46.9710   34.5900   41.9000 C   0  0  0  0  0  0  0  0  0  0  0  0
   46.8090   34.6300   43.2760 N   0  0  0  0  0  0  0  0  0  0  0  0
   45.5770   34.5270   43.8220 C   0  0  0  0  0  0  0  0  0  0  0  0
   44.4780   34.3840   43.0370 N   0  0  0  0  0  0  0  0  0  0  0  0
   45.9510   34.4090   40.0290 H   0  0  0  0  0  0  0  0  0  0  0  0
   45.4490   34.5590   44.9030 H   0  0  0  0  0  0  0  0  0  0  0  0
   48.3510   34.6870   41.3260 C   0  0  0  0  0  0  0  0  0  0  0  0
   49.0730   36.0200   41.5060 C   0  0  0  0  0  0  0  0  0  0  0  0
   49.5000   34.7000   42.1780 C   0  0  0  0  0  0  0  0  0  0  0  0
   48.3860   34.3000   40.2850 H   0  0  0  0  0  0  0  0  0  0  0  0
   48.5680   36.7790   42.1020 H   0  0  0  0  0  0  0  0  0  0  0  0
   49.6940   36.3570   40.6800 H   0  0  0  0  0  0  0  0  0  0  0  0
   49.3590   34.7330   43.2850 H   0  0  0  0  0  0  0  0  0  0  0  0
   50.4890   34.2770   41.9110 H   0  0  0  0  0  0  0  0  0  0  0  0
   41.5250   32.6360   37.9210 O   0  0  0  0  0  0  0  0  0  0  0  0
   40.8860   31.4690   37.9040 C   0  0  0  0  0  0  0  0  0  0  0  0
   39.6240   31.3710   37.5010 O   0  0  0  0  0  0  0  0  0  0  0  0
   41.9220   30.4900   40.5600 N   0  0  0  0  0  0  0  0  0  0  0  0
   41.7910   29.7950   39.5570 C   0  0  0  0  0  0  0  0  0  0  0  0
   41.3320   30.1220   38.2720 N   0  0  0  0  0  0  0  0  0  0  0  0
   42.2000   28.4380   39.8350 N   0  0  0  0  0  0  0  0  0  0  0  0
   41.6500   27.5740   39.6390 H   0  0  0  0  0  0  0  0  0  0  0  0
   41.7610   31.4420   40.7830 H   0  0  0  0  0  0  0  0  0  0  0  0
   41.3060   29.3580   37.5800 H   0  0  0  0  0  0  0  0  0  0  0  0
   43.0770   28.0730   40.2640 H   0  0  0  0  0  0  0  0  0  0  0  0
  1  7  1  6  0  0  0
  1  6  1  0  0  0  0
  1  2  1  0  0  0  0
  2  8  1  6  0  0  0
  2  3  1  0  0  0  0
  2 17  1  0  0  0  0
  4  9  1  0  0  0  0
  4  3  1  0  0  0  0
  5  6  1  0  0  0  0
  5 11  1  1  0  0  0
  5  4  1  0  0  0  0
  6 12  1  1  0  0  0
 10  4  1  0  0  0  0
 13  1  1  0  0  0  0
 14 13  1  0  0  0  0
 15  5  1  0  0  0  0
 16 15  1  0  0  0  0
 17 18  1  0  0  0  0
 18 23  1  0  0  0  0
 19 18  2  0  0  0  0
 19 20  1  0  0  0  0
 20 21  2  0  0  0  0
 21 22  1  0  0  0  0
 22 25  1  0  0  0  0
 23 22  2  0  0  0  0
 24 19  1  0  0  0  0
 26 27  1  0  0  0  0
 26 20  1  0  0  0  0
 26 28  1  0  0  0  0
 27 30  1  0  0  0  0
 27 28  1  0  0  0  0
 28 32  1  0  0  0  0
 29 26  1  0  0  0  0
 31 27  1  0  0  0  0
 33 28  1  0  0  0  0
 34  6  1  0  0  0  0
 35 34  1  0  0  0  0
 35 39  1  0  0  0  0
 36 35  2  0  0  0  0
 37 42  1  0  0  0  0
 38 40  1  0  0  0  0
 38 37  2  0  0  0  0
 39 38  1  0  0  0  0
 40 44  1  0  0  0  0
 41 40  1  0  0  0  0
 43 39  1  0  0  0  0
M  END
>  <minimizedAffinity>
-5.84957552

>  <minimizedRMSD>
0.0972307399

$$$$
