
     RDKit          3D

 26 27  0  0  0  0  0  0  0  0999 V2000
   46.2640   34.5003   43.6132 C   0  0  0  0  0  0  0  0  0  0  0  0
   47.3786   33.8874   43.1444 C   0  0  0  0  0  0  0  0  0  0  0  0
   47.7729   32.7495   43.8209 C   0  0  0  0  0  0  0  0  0  0  0  0
   47.0040   32.3390   44.9076 N   0  0  0  0  0  0  0  0  0  0  0  0
   45.9261   32.9721   45.3260 C   0  0  0  0  0  0  0  0  0  0  0  0
   45.5116   34.1046   44.6731 N   0  0  0  0  0  0  0  0  0  0  0  0
   48.1882   34.3524   42.0796 C   0  0  0  0  0  0  0  0  0  0  0  0
   48.5434   35.6060   41.7081 C   0  0  0  0  0  0  0  0  0  0  0  0
   49.6703   34.8285   42.3872 C   0  0  0  0  0  0  0  0  0  0  0  0
   45.5713   35.6375   43.0309 C   0  0  0  0  0  0  0  0  0  0  0  0
   45.2216   36.8056   43.1200 O   0  0  0  0  0  0  0  0  0  0  0  0
   48.6475   32.1832   43.5304 H   0  0  0  0  0  0  0  0  0  0  0  0
   45.4730   32.4927   46.1842 H   0  0  0  0  0  0  0  0  0  0  0  0
   48.4735   33.4188   41.4197 H   0  0  0  0  0  0  0  0  0  0  0  0
   48.8186   35.8926   40.6559 H   0  0  0  0  0  0  0  0  0  0  0  0
   48.2419   36.5238   42.2843 H   0  0  0  0  0  0  0  0  0  0  0  0
   49.8713   34.9972   43.4637 H   0  0  0  0  0  0  0  0  0  0  0  0
   50.4880   34.4649   41.7938 H   0  0  0  0  0  0  0  0  0  0  0  0
   42.6659   35.3935   42.0471 N   0  0  0  0  0  0  0  0  0  0  0  0
   43.7117   35.0484   41.4422 C   0  0  0  0  0  0  0  0  0  0  0  0
   45.0864   35.0990   41.7655 N   0  0  0  0  0  0  0  0  0  0  0  0
   43.0528   34.5577   40.2520 N   0  0  0  0  0  0  0  0  0  0  0  0
   42.9838   34.9837   39.2845 H   0  0  0  0  0  0  0  0  0  0  0  0
   42.5373   35.8115   42.9552 H   0  0  0  0  0  0  0  0  0  0  0  0
   45.5641   34.6779   40.9080 H   0  0  0  0  0  0  0  0  0  0  0  0
   42.5048   33.6732   40.1029 H   0  0  0  0  0  0  0  0  0  0  0  0
  1  6  2  0
  2  1  1  0
  2  3  2  0
  3  4  1  0
  4  5  2  0
  6  5  1  0
  7  9  1  0
  7  2  1  0
  8  7  1  0
  8  9  1  0
 10  1  1  0
 11 10  2  0
  3 12  1  0
  5 13  1  0
  7 14  1  0
  8 15  1  0
  8 16  1  0
  9 17  1  0
  9 18  1  0
 19 20  2  3
 20 21  1  0
 20 22  1  0
 22 23  1  0
 19 24  1  0
 21 25  1  0
 22 26  1  0
 10 21  1  0
M  ISO  8  12  14  13  14  14  13  15  13  16  13  17  13  18  13  23   5
M  END
>  <DihAtoms>  (1) 
0,9,20,19

>  <DihDeg>  (1) 
179.90490826414717

$$$$
