
 OpenBabel03242523173D

 26 27  0  0  0  0  0  0  0  0999 V2000
   45.7210   34.8900   44.1670 C   0  0  0  0  0  0  0  0  0  0  0  0
   46.6630   34.0890   43.6080 C   0  0  0  0  0  0  0  0  0  0  0  0
   47.0270   32.9790   44.3450 C   0  0  0  0  0  0  0  0  0  0  0  0
   46.4060   32.7830   45.5770 N   0  0  0  0  0  0  0  0  0  0  0  0
   45.4950   33.5930   46.0770 C   0  0  0  0  0  0  0  0  0  0  0  0
   45.1150   34.7040   45.3680 N   0  0  0  0  0  0  0  0  0  0  0  0
   47.7680   32.2740   43.9920 H   0  0  0  0  0  0  0  0  0  0  0  0
   45.1370   33.2640   47.0440 H   0  0  0  0  0  0  0  0  0  0  0  0
   45.0810   36.0500   43.5680 C   0  0  0  0  0  0  0  0  0  0  0  0
   45.1620   37.2080   43.1890 O   0  0  0  0  0  0  0  0  0  0  0  0
   43.9650   34.6630   41.0580 N   0  0  0  0  0  0  0  0  0  0  0  0
   43.3480   34.9460   42.1150 C   0  0  0  0  0  0  0  0  0  0  0  0
   43.7250   35.5710   43.3260 N   0  0  0  0  0  0  0  0  0  0  0  0
   42.0680   34.4150   41.7010 N   0  0  0  0  0  0  0  0  0  0  0  0
   41.5710   33.5270   41.9950 H   0  0  0  0  0  0  0  0  0  0  0  0
   44.9250   34.8160   40.7940 H   0  0  0  0  0  0  0  0  0  0  0  0
   42.8250   35.5700   43.9020 H   0  0  0  0  0  0  0  0  0  0  0  0
   41.3680   34.8020   41.0200 H   0  0  0  0  0  0  0  0  0  0  0  0
   47.3330   34.3360   42.3860 C   0  0  0  0  0  0  0  0  0  0  0  0
   48.0010   35.4260   41.9370 C   0  0  0  0  0  0  0  0  0  0  0  0
   48.9180   34.2750   42.3480 C   0  0  0  0  0  0  0  0  0  0  0  0
   47.1400   33.4100   41.6840 H   0  0  0  0  0  0  0  0  0  0  0  0
   48.1250   35.6810   40.8480 H   0  0  0  0  0  0  0  0  0  0  0  0
   48.1580   36.3490   42.5610 H   0  0  0  0  0  0  0  0  0  0  0  0
   49.3900   34.2910   43.3510 H   0  0  0  0  0  0  0  0  0  0  0  0
   49.4190   33.7060   41.5880 H   0  0  0  0  0  0  0  0  0  0  0  0
  1  6  1  0  0  0  0
  2  1  2  0  0  0  0
  2  3  1  0  0  0  0
  3  4  2  0  0  0  0
  4  5  1  0  0  0  0
  5  8  1  0  0  0  0
  6  5  2  0  0  0  0
  7  3  1  0  0  0  0
  9  1  1  0  0  0  0
 10  9  2  0  0  0  0
 11 12  2  0  0  0  0
 12 13  1  0  0  0  0
 13  9  1  0  0  0  0
 13 17  1  0  0  0  0
 14 15  1  0  0  0  0
 14 12  1  0  0  0  0
 16 11  1  0  0  0  0
 18 14  1  0  0  0  0
 19  2  1  0  0  0  0
 20 21  1  0  0  0  0
 20 19  1  0  0  0  0
 20 24  1  0  0  0  0
 21 19  1  0  0  0  0
 21 25  1  0  0  0  0
 22 19  1  0  0  0  0
 23 20  1  0  0  0  0
 26 21  1  0  0  0  0
M  END
>  <minimizedAffinity>
-5.01873636

>  <minimizedRMSD>
1.83239114

$$$$
