
 OpenBabel03242512283D

 21 21  0  0  0  0  0  0  0  0999 V2000
   44.9710   34.9770   44.3100 C   0  0  0  0  0  0  0  0  0  0  0  0
   45.8770   35.0840   43.2490 C   0  0  0  0  0  0  0  0  0  0  0  0
   47.0300   34.2890   43.2910 C   0  0  0  0  0  0  0  0  0  0  0  0
   47.1940   33.4740   44.3480 N   0  0  0  0  0  0  0  0  0  0  0  0
   46.3070   33.3940   45.3500 C   0  0  0  0  0  0  0  0  0  0  0  0
   45.1960   34.1410   45.3390 N   0  0  0  0  0  0  0  0  0  0  0  0
   43.7870   35.7790   44.2870 N   0  0  0  0  0  0  0  0  0  0  0  0
   45.7160   35.7430   42.4220 H   0  0  0  0  0  0  0  0  0  0  0  0
   47.7770   34.3180   42.5040 H   0  0  0  0  0  0  0  0  0  0  0  0
   42.8240   35.4920   44.5680 H   0  0  0  0  0  0  0  0  0  0  0  0
   43.9170   36.7510   43.9540 H   0  0  0  0  0  0  0  0  0  0  0  0
   46.5130   32.5020   46.4830 C   0  0  0  0  0  0  0  0  0  0  0  0
   47.2900   32.7780   47.4420 O   0  0  0  0  0  0  0  0  0  0  0  0
   45.2550   31.4340   44.2530 N   0  0  0  0  0  0  0  0  0  0  0  0
   45.1640   30.7320   45.3450 C   0  0  0  0  0  0  0  0  0  0  0  0
   45.8020   31.2590   46.5040 N   0  0  0  0  0  0  0  0  0  0  0  0
   44.4880   29.4780   45.5130 N   0  0  0  0  0  0  0  0  0  0  0  0
   45.2910   28.7940   45.4260 H   0  0  0  0  0  0  0  0  0  0  0  0
   44.7990   31.0890   43.3630 H   0  0  0  0  0  0  0  0  0  0  0  0
   45.7610   30.7280   47.4250 H   0  0  0  0  0  0  0  0  0  0  0  0
   43.4920   29.2230   45.6780 H   0  0  0  0  0  0  0  0  0  0  0  0
  1  6  1  0  0  0  0
  2  3  1  0  0  0  0
  2  1  2  0  0  0  0
  3  4  2  0  0  0  0
  4  5  1  0  0  0  0
  5 12  1  0  0  0  0
  6  5  2  0  0  0  0
  7  1  1  0  0  0  0
  7 10  1  0  0  0  0
  8  2  1  0  0  0  0
  9  3  1  0  0  0  0
 11  7  1  0  0  0  0
 12 16  1  0  0  0  0
 12 13  2  0  0  0  0
 14 15  2  0  0  0  0
 15 17  1  0  0  0  0
 15 16  1  0  0  0  0
 16 20  1  0  0  0  0
 17 21  1  0  0  0  0
 18 17  1  0  0  0  0
 19 14  1  0  0  0  0
M  END
>  <minimizedAffinity>
-4.42035675

>  <minimizedRMSD>
2.34865499

$$$$
