
 OpenBabel03242512283D

 21 21  0  0  0  0  0  0  0  0999 V2000
   44.9610   35.0610   44.2370 C   0  0  0  0  0  0  0  0  0  0  0  0
   45.7740   35.2580   43.1150 C   0  0  0  0  0  0  0  0  0  0  0  0
   46.9440   34.4950   43.0120 C   0  0  0  0  0  0  0  0  0  0  0  0
   47.2140   33.6200   43.9980 N   0  0  0  0  0  0  0  0  0  0  0  0
   46.4140   33.4550   45.0620 C   0  0  0  0  0  0  0  0  0  0  0  0
   45.2900   34.1690   45.1890 N   0  0  0  0  0  0  0  0  0  0  0  0
   43.7620   35.8300   44.3620 N   0  0  0  0  0  0  0  0  0  0  0  0
   45.5290   35.9630   42.3480 H   0  0  0  0  0  0  0  0  0  0  0  0
   47.6220   34.5940   42.1700 H   0  0  0  0  0  0  0  0  0  0  0  0
   42.8320   35.4990   44.7020 H   0  0  0  0  0  0  0  0  0  0  0  0
   43.8420   36.8240   44.0830 H   0  0  0  0  0  0  0  0  0  0  0  0
   46.7340   32.4990   46.1140 C   0  0  0  0  0  0  0  0  0  0  0  0
   47.0440   32.8510   47.2890 O   0  0  0  0  0  0  0  0  0  0  0  0
   45.0420   31.4260   44.1950 N   0  0  0  0  0  0  0  0  0  0  0  0
   45.8170   30.5770   44.8070 C   0  0  0  0  0  0  0  0  0  0  0  0
   46.6950   31.1030   45.7970 N   0  0  0  0  0  0  0  0  0  0  0  0
   45.8840   29.1590   44.5940 N   0  0  0  0  0  0  0  0  0  0  0  0
   46.7170   29.0850   43.9440 H   0  0  0  0  0  0  0  0  0  0  0  0
   44.3700   31.0890   43.4510 H   0  0  0  0  0  0  0  0  0  0  0  0
   47.3500   30.4560   46.3280 H   0  0  0  0  0  0  0  0  0  0  0  0
   45.3150   28.3610   44.9410 H   0  0  0  0  0  0  0  0  0  0  0  0
  1  7  1  0  0  0  0
  1  6  1  0  0  0  0
  2  1  2  0  0  0  0
  3  2  1  0  0  0  0
  3  4  2  0  0  0  0
  4  5  1  0  0  0  0
  5  6  2  0  0  0  0
  5 12  1  0  0  0  0
  7 10  1  0  0  0  0
  8  2  1  0  0  0  0
  9  3  1  0  0  0  0
 11  7  1  0  0  0  0
 12 13  2  0  0  0  0
 14 15  2  0  0  0  0
 15 16  1  0  0  0  0
 16 12  1  0  0  0  0
 16 20  1  0  0  0  0
 17 15  1  0  0  0  0
 17 21  1  0  0  0  0
 18 17  1  0  0  0  0
 19 14  1  0  0  0  0
M  END
>  <minimizedAffinity>
-4.37994003

>  <minimizedRMSD>
1.77545464

$$$$
