
     RDKit          3D

 42 44  0  0  0  0  0  0  0  0999 V2000
   47.5889   29.9932   48.2442 C   0  0  1  0  0  0  0  0  0  0  0  0
   47.4306   28.7853   47.4063 C   0  0  0  0  0  0  0  0  0  0  0  0
   48.7061   28.0161   47.1747 C   0  0  0  0  0  0  0  0  0  0  0  0
   49.5426   27.8532   48.4084 C   0  0  0  0  0  0  0  0  0  0  0  0
   49.6094   29.1078   49.2395 C   0  0  0  0  0  0  0  0  0  0  0  0
   49.0940   30.2978   48.4231 C   0  0  2  0  0  0  0  0  0  0  0  0
   45.9143   33.1449   46.2482 C   0  0  0  0  0  0  0  0  0  0  0  0
   45.3732   32.9776   47.5200 C   0  0  0  0  0  0  0  0  0  0  0  0
   45.8360   31.9760   48.2690 C   0  0  0  0  0  0  0  0  0  0  0  0
   46.8466   31.1174   47.7774 C   0  0  0  0  0  0  0  0  0  0  0  0
   47.1599   31.7883   46.1128 S   0  0  0  0  0  0  0  0  0  0  0  0
   44.4323   36.0993   44.5373 C   0  0  0  0  0  0  0  0  0  0  0  0
   45.0510   36.0066   43.2924 C   0  0  0  0  0  0  0  0  0  0  0  0
   45.9435   34.9501   43.0767 C   0  0  0  0  0  0  0  0  0  0  0  0
   46.1594   34.0618   44.1093 N   0  0  0  0  0  0  0  0  0  0  0  0
   45.5352   34.1998   45.2890 C   0  0  0  0  0  0  0  0  0  0  0  0
   44.6651   35.2259   45.5052 N   0  0  0  0  0  0  0  0  0  0  0  0
   49.2660   31.5267   49.1963 C   0  0  0  0  0  0  0  0  0  0  0  0
   49.8051   31.5381   50.3252 O   0  0  0  0  0  0  0  0  0  0  0  0
   47.2430   29.7805   49.2880 H   0  0  0  0  0  0  0  0  0  0  0  0
   47.0008   29.0350   46.4290 H   0  0  0  0  0  0  0  0  0  0  0  0
   46.7207   28.0752   47.8874 H   0  0  0  0  0  0  0  0  0  0  0  0
   48.4158   27.0051   46.8462 H   0  0  0  0  0  0  0  0  0  0  0  0
   49.2469   28.5284   46.3516 H   0  0  0  0  0  0  0  0  0  0  0  0
   50.5827   27.6318   48.0752 H   0  0  0  0  0  0  0  0  0  0  0  0
   49.2092   26.9731   49.0045 H   0  0  0  0  0  0  0  0  0  0  0  0
   50.5911   29.3089   49.6912 H   0  0  0  0  0  0  0  0  0  0  0  0
   48.8407   28.9674   50.0492 H   0  0  0  0  0  0  0  0  0  0  0  0
   49.5891   30.3311   47.4292 H   0  0  0  0  0  0  0  0  0  0  0  0
   44.6020   33.6383   47.8900 H   0  0  0  0  0  0  0  0  0  0  0  0
   45.5440   31.6909   49.2643 H   0  0  0  0  0  0  0  0  0  0  0  0
   43.7400   36.8739   44.7812 H   0  0  0  0  0  0  0  0  0  0  0  0
   44.8526   36.7169   42.5258 H   0  0  0  0  0  0  0  0  0  0  0  0
   46.4575   34.8102   42.1498 H   0  0  0  0  0  0  0  0  0  0  0  0
   50.8441   34.0550   49.5966 N   0  0  0  0  0  0  0  0  0  0  0  0
   49.7039   34.0027   49.1322 C   0  0  0  0  0  0  0  0  0  0  0  0
   48.9236   32.8559   48.9276 N   0  0  0  0  0  0  0  0  0  0  0  0
   49.2208   35.3247   48.7987 N   0  0  0  0  0  0  0  0  0  0  0  0
   49.5820   35.9384   48.0277 H   0  0  0  0  0  0  0  0  0  0  0  0
   51.4824   33.3746   49.9290 H   0  0  0  0  0  0  0  0  0  0  0  0
   48.0066   33.0544   48.5161 H   0  0  0  0  0  0  0  0  0  0  0  0
   48.4457   35.7489   49.3441 H   0  0  0  0  0  0  0  0  0  0  0  0
  1  6  1  0
  2  1  1  0
  3  2  1  0
  3  4  1  0
  4  5  1  0
  6 18  1  0
  6  5  1  0
  7  8  2  0
  8  9  1  0
 10  1  1  0
 10  9  2  0
 11  7  1  0
 11 10  1  0
 12 17  2  0
 13 12  1  0
 14 13  2  0
 14 15  1  0
 15 16  2  0
 16 17  1  0
 16  7  1  0
 18 19  2  0
  1 20  1  1
  2 21  1  0
  2 22  1  0
  3 23  1  0
  3 24  1  0
  4 25  1  0
  4 26  1  0
  5 27  1  0
  5 28  1  0
  6 29  1  6
  8 30  1  0
  9 31  1  0
 12 32  1  0
 13 33  1  0
 14 34  1  0
 35 36  2  3
 36 37  1  0
 36 38  1  0
 38 39  1  0
 35 40  1  0
 37 41  1  0
 38 42  1  0
 18 37  1  0
M  ISO  8  20  13  21  13  22  13  23  13  24  13  25  13  26  13  27  13
M  ISO  8  28  13  29  13  30  14  31  14  32  14  33  14  34  14  39   5
M  END
>  <DihAtoms>  (1) 
5,17,36,35

>  <DihDeg>  (1) 
179.32876760791285

$$$$
