
 OpenBabel03242520453D

 21 21  0  0  0  0  0  0  0  0999 V2000
   44.9370   35.1170   44.0150 C   0  0  0  0  0  0  0  0  0  0  0  0
   45.7940   35.4060   42.9480 C   0  0  0  0  0  0  0  0  0  0  0  0
   47.0080   34.7020   42.8400 C   0  0  0  0  0  0  0  0  0  0  0  0
   47.2750   33.7830   43.7830 N   0  0  0  0  0  0  0  0  0  0  0  0
   46.4300   33.5280   44.7990 C   0  0  0  0  0  0  0  0  0  0  0  0
   45.2800   34.1940   44.9000 N   0  0  0  0  0  0  0  0  0  0  0  0
   43.7160   35.8250   44.1230 N   0  0  0  0  0  0  0  0  0  0  0  0
   45.4980   36.1610   42.2350 H   0  0  0  0  0  0  0  0  0  0  0  0
   46.7130   32.7670   45.5280 H   0  0  0  0  0  0  0  0  0  0  0  0
   43.9980   36.6430   44.7260 H   0  0  0  0  0  0  0  0  0  0  0  0
   43.1310   35.1820   43.5470 H   0  0  0  0  0  0  0  0  0  0  0  0
   47.8180   35.0810   41.6980 C   0  0  0  0  0  0  0  0  0  0  0  0
   48.7350   35.9410   41.7560 O   0  0  0  0  0  0  0  0  0  0  0  0
   48.6070   32.5090   41.0650 N   0  0  0  0  0  0  0  0  0  0  0  0
   48.0150   33.1430   40.1070 C   0  0  0  0  0  0  0  0  0  0  0  0
   47.5990   34.4710   40.4080 N   0  0  0  0  0  0  0  0  0  0  0  0
   47.7180   32.7090   38.7940 N   0  0  0  0  0  0  0  0  0  0  0  0
   46.6960   32.8010   38.5180 H   0  0  0  0  0  0  0  0  0  0  0  0
   48.9480   31.5480   40.9570 H   0  0  0  0  0  0  0  0  0  0  0  0
   47.1090   35.0810   39.7120 H   0  0  0  0  0  0  0  0  0  0  0  0
   48.2760   32.3090   38.0030 H   0  0  0  0  0  0  0  0  0  0  0  0
  1  7  1  0  0  0  0
  1  6  1  0  0  0  0
  2  1  2  0  0  0  0
  3  2  1  0  0  0  0
  3  4  2  0  0  0  0
  4  5  1  0  0  0  0
  5  6  2  0  0  0  0
  5  9  1  0  0  0  0
  7 10  1  0  0  0  0
  8  2  1  0  0  0  0
 11  7  1  0  0  0  0
 12 13  2  0  0  0  0
 12  3  1  0  0  0  0
 15 16  1  0  0  0  0
 15 14  2  0  0  0  0
 16 12  1  0  0  0  0
 17 15  1  0  0  0  0
 18 17  1  0  0  0  0
 19 14  1  0  0  0  0
 20 16  1  0  0  0  0
 21 17  1  0  0  0  0
M  END
>  <minimizedAffinity>
-4.50836658

>  <minimizedRMSD>
0.168790013

$$$$
