
 OpenBabel03242513433D

 45 47  0  0  0  0  0  0  0  0999 V2000
   47.6700   31.0040   45.9770 C   0  0  0  0  0  0  0  0  0  0  0  0
   46.9440   32.0490   45.4640 C   0  0  0  0  0  0  0  0  0  0  0  0
   45.9230   32.5300   46.2350 C   0  0  0  0  0  0  0  0  0  0  0  0
   45.5910   32.0350   47.4670 C   0  0  0  0  0  0  0  0  0  0  0  0
   44.6710   32.2830   48.4380 N   0  0  0  0  0  0  0  0  0  0  0  0
   44.8470   31.4210   49.4800 C   0  0  0  0  0  0  0  0  0  0  0  0
   45.8850   30.6370   49.1410 N   0  0  0  0  0  0  0  0  0  0  0  0
   46.3470   30.9900   47.9360 C   0  0  0  0  0  0  0  0  0  0  0  0
   47.3890   30.4510   47.2230 C   0  0  0  0  0  0  0  0  0  0  0  0
   48.4980   30.5920   45.3870 H   0  0  0  0  0  0  0  0  0  0  0  0
   45.3250   33.3640   45.8510 H   0  0  0  0  0  0  0  0  0  0  0  0
   43.9820   33.0510   48.2930 H   0  0  0  0  0  0  0  0  0  0  0  0
   44.2330   31.4260   50.3700 H   0  0  0  0  0  0  0  0  0  0  0  0
   47.2760   34.4060   42.6950 C   0  0  0  0  0  0  0  0  0  0  0  0
   47.8700   33.6310   41.6940 C   0  0  0  0  0  0  0  0  0  0  0  0
   48.1450   32.2840   42.0140 C   0  0  0  0  0  0  0  0  0  0  0  0
   47.8300   31.8110   43.2420 N   0  0  0  0  0  0  0  0  0  0  0  0
   47.2610   32.6090   44.1600 C   0  0  0  0  0  0  0  0  0  0  0  0
   46.9780   33.8960   43.9100 N   0  0  0  0  0  0  0  0  0  0  0  0
   47.0660   35.4500   42.4460 H   0  0  0  0  0  0  0  0  0  0  0  0
   48.6060   31.6790   41.2390 H   0  0  0  0  0  0  0  0  0  0  0  0
   48.1720   34.2510   40.3790 C   0  0  0  0  0  0  0  0  0  0  0  0
   48.7260   35.4830   40.7030 F   0  0  0  0  0  0  0  0  0  0  0  0
   47.0060   34.4380   39.7230 F   0  0  0  0  0  0  0  0  0  0  0  0
   49.0490   33.4320   39.6910 F   0  0  0  0  0  0  0  0  0  0  0  0
   48.1150   29.3970   47.7520 O   0  0  0  0  0  0  0  0  0  0  0  0
   49.7890   28.1530   49.2920 O   0  0  0  0  0  0  0  0  0  0  0  0
   49.4300   29.5520   48.7980 P   0  0  2  0  0  0  0  0  0  0  0  0
   48.8810   30.4140   50.1630 O   0  0  0  0  0  0  0  0  0  0  0  0
   48.7320   31.3400   49.8400 H   0  0  0  0  0  0  0  0  0  0  0  0
   50.7640   30.3050   48.1250 O   0  0  0  0  0  0  0  0  0  0  0  0
   51.8750   30.3130   48.9320 C   0  0  0  0  0  0  0  0  0  0  0  0
   51.6960   29.6620   49.8100 H   0  0  0  0  0  0  0  0  0  0  0  0
   52.7550   29.9470   48.4010 H   0  0  0  0  0  0  0  0  0  0  0  0
   52.0650   31.7640   49.4020 C   0  0  0  0  0  0  0  0  0  0  0  0
   52.5690   32.3720   48.6390 H   0  0  0  0  0  0  0  0  0  0  0  0
   51.0530   32.1990   49.6080 H   0  0  0  0  0  0  0  0  0  0  0  0
   50.9370   31.6390   52.0600 N   0  0  0  0  0  0  0  0  0  0  0  0
   52.1710   31.9090   51.8330 C   0  0  0  0  0  0  0  0  0  0  0  0
   52.8580   31.7060   50.6120 N   0  0  0  0  0  0  0  0  0  0  0  0
   52.8040   32.4630   53.0040 N   0  0  0  0  0  0  0  0  0  0  0  0
   52.7340   33.4360   53.3930 H   0  0  0  0  0  0  0  0  0  0  0  0
   50.3650   31.2320   51.2960 H   0  0  0  0  0  0  0  0  0  0  0  0
   53.8820   31.5320   50.6930 H   0  0  0  0  0  0  0  0  0  0  0  0
   53.4600   32.1670   53.7800 H   0  0  0  0  0  0  0  0  0  0  0  0
  1  9  1  0  0  0  0
  2  1  2  0  0  0  0
  2  3  1  0  0  0  0
  3  4  2  0  0  0  0
  4  8  1  0  0  0  0
  4  5  1  0  0  0  0
  5  6  1  0  0  0  0
  6 13  1  0  0  0  0
  7  6  2  0  0  0  0
  8  7  1  0  0  0  0
  9 26  1  0  0  0  0
  9  8  2  0  0  0  0
 10  1  1  0  0  0  0
 11  3  1  0  0  0  0
 12  5  1  0  0  0  0
 14 19  1  0  0  0  0
 15 16  1  0  0  0  0
 15 14  2  0  0  0  0
 16 17  2  0  0  0  0
 17 18  1  0  0  0  0
 18  2  1  0  0  0  0
 19 18  2  0  0  0  0
 20 14  1  0  0  0  0
 21 16  1  0  0  0  0
 22 23  1  0  0  0  0
 22 15  1  0  0  0  0
 24 22  1  0  0  0  0
 25 22  1  0  0  0  0
 26 28  1  0  0  0  0
 28 27  2  1  0  0  0
 28 29  1  0  0  0  0
 30 29  1  0  0  0  0
 31 28  1  0  0  0  0
 31 32  1  0  0  0  0
 32 35  1  0  0  0  0
 32 33  1  0  0  0  0
 34 32  1  0  0  0  0
 35 37  1  0  0  0  0
 35 40  1  0  0  0  0
 36 35  1  0  0  0  0
 39 38  2  0  0  0  0
 39 41  1  0  0  0  0
 40 44  1  0  0  0  0
 40 39  1  0  0  0  0
 41 42  1  0  0  0  0
 41 45  1  0  0  0  0
 43 38  1  0  0  0  0
M  END
>  <minimizedAffinity>
-5.78402424

>  <minimizedRMSD>
0.349657595

$$$$
