REMARK  Name = 
REMARK  5 active torsions:
REMARK  status: ('A' for Active; 'I' for Inactive)
REMARK    1  A    between atoms: S_1  and  C_3
REMARK    2  A    between atoms: S_1  and  C_11
REMARK    3  A    between atoms: C_12  and  N_32
REMARK    4  A    between atoms: C_15  and  O_18
REMARK    5  A    between atoms: O_18  and  C_19
REMARK                            x       y       z     vdW  Elec       q    Type
REMARK                         _______ _______ _______ _____ _____    ______ ____
ROOT
ATOM      1  C   UNL     1      43.911  34.766  40.916  0.00  0.00    +0.000 A 
ATOM      2  C   UNL     1      43.863  33.835  39.938  0.00  0.00    +0.000 A 
ATOM      3  C   UNL     1      45.077  33.200  39.604  0.00  0.00    +0.000 A 
ATOM      4  N   UNL     1      46.216  33.538  40.254  0.00  0.00    +0.000 NA
ATOM      5  C   UNL     1      46.213  34.472  41.221  0.00  0.00    +0.000 A 
ATOM      6  N   UNL     1      45.054  35.045  41.508  0.00  0.00    +0.000 NA
ATOM      7  N   UNL     1      45.156  32.187  38.602  0.00  0.00    +0.000 N 
ATOM      8  H   UNL     1      45.219  32.572  37.623  0.00  0.00    +0.000 HD
ATOM      9  H   UNL     1      45.147  31.176  38.883  0.00  0.00    +0.000 HD
ENDROOT
BRANCH   2  12
ATOM     10  N   UNL     1      43.573  34.865  37.451  0.00  0.00    +0.000 NA
ATOM     11  C   UNL     1      42.611  34.147  37.942  0.00  0.00    +0.000 C 
ATOM     12  N   UNL     1      42.820  33.349  39.135  0.00  0.00    +0.000 N 
ATOM     13  N   UNL     1      41.330  34.158  37.279  0.00  0.00    +0.000 N 
ATOM     14  H   UNL     1      40.987  33.192  37.085  0.00  0.00    +0.000 HD
ATOM     15  H   UNL     1      43.404  35.426  36.601  0.00  0.00    +0.000 HD
ATOM     16  H   UNL     1      42.151  32.552  39.151  0.00  0.00    +0.000 HD
ATOM     17  H   UNL     1      40.814  35.032  37.025  0.00  0.00    +0.000 HD
ENDBRANCH   2  12
BRANCH   1  18
ATOM     18  S   UNL     1      42.320  35.540  41.311  0.00  0.00    +0.000 S 
BRANCH  18  20
ATOM     19  C   UNL     1      39.969  34.880  40.230  0.00  0.00    +0.000 A 
ATOM     20  C   UNL     1      40.985  34.388  41.062  0.00  0.00    +0.000 A 
ATOM     21  C   UNL     1      40.919  33.109  41.600  0.00  0.00    +0.000 A 
ATOM     22  C   UNL     1      39.853  32.295  41.328  0.00  0.00    +0.000 A 
ATOM     23  C   UNL     1      38.831  32.770  40.500  0.00  0.00    +0.000 A 
ATOM     24  C   UNL     1      38.874  34.045  39.951  0.00  0.00    +0.000 A 
ATOM     25  O   UNL     1      37.866  31.739  40.387  0.00  0.00    +0.000 OA
ATOM     26  C   UNL     1      38.149  30.831  41.398  0.00  0.00    +0.000 C 
ATOM     27  O   UNL     1      39.514  31.005  41.706  0.00  0.00    +0.000 OA
ATOM     28  H   UNL     1      39.971  35.863  39.787  0.00  0.00    +0.000 HD
ATOM     29  H   UNL     1      41.731  32.812  42.223  0.00  0.00    +0.000 HD
ATOM     30  H   UNL     1      38.095  34.432  39.309  0.00  0.00    +0.000 HD
ATOM     31  H   UNL     1      37.587  31.167  42.316  0.00  0.00    +0.000 HD
ATOM     32  H   UNL     1      37.881  29.788  41.151  0.00  0.00    +0.000 HD
ENDBRANCH  18  20
ENDBRANCH   1  18
BRANCH   5  33
ATOM     33  O   UNL     1      47.306  34.894  41.944  0.00  0.00    +0.000 OA
BRANCH  33  34
ATOM     34  C   UNL     1      48.512  35.104  41.245  0.00  0.00    +0.000 C 
ATOM     35  F   UNL     1      49.410  34.085  41.445  0.00  0.00    +0.000 F 
ATOM     36  F   UNL     1      48.164  35.242  39.889  0.00  0.00    +0.000 F 
ATOM     37  F   UNL     1      49.069  36.285  41.709  0.00  0.00    +0.000 F 
ENDBRANCH  33  34
ENDBRANCH   5  33
TORSDOF 5
