
 OpenBabel03242515413D

 37 39  0  0  0  0  0  0  0  0999 V2000
   43.4130   34.7150   40.5590 C   0  0  0  0  0  0  0  0  0  0  0  0
   43.6190   34.0140   39.4230 C   0  0  0  0  0  0  0  0  0  0  0  0
   44.9000   33.4520   39.2460 C   0  0  0  0  0  0  0  0  0  0  0  0
   45.8520   33.6330   40.1920 N   0  0  0  0  0  0  0  0  0  0  0  0
   45.5990   34.3400   41.3070 C   0  0  0  0  0  0  0  0  0  0  0  0
   44.3840   34.8510   41.4390 N   0  0  0  0  0  0  0  0  0  0  0  0
   45.2390   32.6740   38.0990 N   0  0  0  0  0  0  0  0  0  0  0  0
   45.5030   33.2570   37.2620 H   0  0  0  0  0  0  0  0  0  0  0  0
   45.2060   31.6260   38.1530 H   0  0  0  0  0  0  0  0  0  0  0  0
   42.5110   31.5480   39.2730 N   0  0  0  0  0  0  0  0  0  0  0  0
   42.4790   32.3090   38.2220 C   0  0  0  0  0  0  0  0  0  0  0  0
   42.8000   33.7200   38.3230 N   0  0  0  0  0  0  0  0  0  0  0  0
   42.1210   31.7230   36.9540 N   0  0  0  0  0  0  0  0  0  0  0  0
   41.3610   32.2610   36.4810 H   0  0  0  0  0  0  0  0  0  0  0  0
   42.2800   30.5460   39.1810 H   0  0  0  0  0  0  0  0  0  0  0  0
   42.3400   34.2440   37.5510 H   0  0  0  0  0  0  0  0  0  0  0  0
   42.5700   30.8630   36.5620 H   0  0  0  0  0  0  0  0  0  0  0  0
   41.7450   35.4040   40.7390 S   0  0  0  0  0  0  0  0  0  0  0  0
   39.3800   34.3730   40.0500 C   0  0  0  0  0  0  0  0  0  0  0  0
   40.5330   34.1000   40.8000 C   0  0  0  0  0  0  0  0  0  0  0  0
   40.6770   32.9040   41.4910 C   0  0  0  0  0  0  0  0  0  0  0  0
   39.6890   31.9580   41.4550 C   0  0  0  0  0  0  0  0  0  0  0  0
   38.5320   32.2130   40.7120 C   0  0  0  0  0  0  0  0  0  0  0  0
   38.3650   33.4020   40.0140 C   0  0  0  0  0  0  0  0  0  0  0  0
   37.6870   31.0850   40.8460 O   0  0  0  0  0  0  0  0  0  0  0  0
   38.1850   30.3520   41.9150 C   0  0  0  0  0  0  0  0  0  0  0  0
   39.5470   30.7020   42.0250 O   0  0  0  0  0  0  0  0  0  0  0  0
   39.2180   35.2830   39.4960 H   0  0  0  0  0  0  0  0  0  0  0  0
   41.5830   32.7760   42.0370 H   0  0  0  0  0  0  0  0  0  0  0  0
   37.4790   33.6200   39.4340 H   0  0  0  0  0  0  0  0  0  0  0  0
   37.6950   30.7480   42.8500 H   0  0  0  0  0  0  0  0  0  0  0  0
   38.0140   29.2640   41.8300 H   0  0  0  0  0  0  0  0  0  0  0  0
   46.4870   34.5880   42.3290 O   0  0  0  0  0  0  0  0  0  0  0  0
   47.8630   34.5050   42.0360 C   0  0  0  0  0  0  0  0  0  0  0  0
   48.2190   33.2640   41.5680 F   0  0  0  0  0  0  0  0  0  0  0  0
   48.1290   35.5190   41.0970 F   0  0  0  0  0  0  0  0  0  0  0  0
   48.5610   34.7560   43.2070 F   0  0  0  0  0  0  0  0  0  0  0  0
  1 18  1  0  0  0  0
  1  6  1  0  0  0  0
  2  1  2  0  0  0  0
  3  2  1  0  0  0  0
  3  4  2  0  0  0  0
  4  5  1  0  0  0  0
  5  6  2  0  0  0  0
  5 33  1  0  0  0  0
  7  9  1  0  0  0  0
  7  3  1  0  0  0  0
  8  7  1  0  0  0  0
 11 12  1  0  0  0  0
 11 10  2  0  0  0  0
 12  2  1  0  0  0  0
 13 11  1  0  0  0  0
 14 13  1  0  0  0  0
 15 10  1  0  0  0  0
 16 12  1  0  0  0  0
 17 13  1  0  0  0  0
 18 20  1  0  0  0  0
 19 20  1  0  0  0  0
 20 21  2  0  0  0  0
 21 29  1  0  0  0  0
 22 21  1  0  0  0  0
 22 27  1  0  0  0  0
 23 25  1  0  0  0  0
 23 22  2  0  0  0  0
 24 19  2  0  0  0  0
 24 23  1  0  0  0  0
 25 26  1  0  0  0  0
 26 27  1  0  0  0  0
 26 31  1  0  0  0  0
 28 19  1  0  0  0  0
 30 24  1  0  0  0  0
 32 26  1  0  0  0  0
 34 33  1  0  0  0  0
 34 37  1  0  0  0  0
 35 34  1  0  0  0  0
 36 34  1  0  0  0  0
M  END
>  <minimizedAffinity>
-5.54704952

>  <minimizedRMSD>
0.913438678

$$$$
