
     RDKit          3D

 43 45  0  0  0  0  0  0  0  0999 V2000
   44.3056   34.6763   41.4593 N   0  0  0  0  0  0  0  0  0  0  0  0
   43.9762   35.3946   42.6852 C   0  0  0  0  0  0  0  0  0  0  0  0
   45.1845   35.7717   43.4838 C   0  0  0  0  0  0  0  0  0  0  0  0
   46.1140   34.7292   43.6379 N   0  0  0  0  0  0  0  0  0  0  0  0
   46.2865   33.8413   42.5712 C   0  0  0  0  0  0  0  0  0  0  0  0
   45.6772   34.4178   41.2766 C   0  0  1  0  0  0  0  0  0  0  0  0
   42.5938   33.1417   40.8735 C   0  0  0  0  0  0  0  0  0  0  0  0
   43.2269   34.3372   40.6259 C   0  0  0  0  0  0  0  0  0  0  0  0
   42.7542   35.1066   39.5820 C   0  0  0  0  0  0  0  0  0  0  0  0
   41.7038   34.6887   38.8352 N   0  0  0  0  0  0  0  0  0  0  0  0
   41.1029   33.5037   39.1074 C   0  0  0  0  0  0  0  0  0  0  0  0
   41.5500   32.7438   40.1185 N   0  0  0  0  0  0  0  0  0  0  0  0
   46.2389   33.8356   40.1460 N   0  0  0  0  0  0  0  0  0  0  0  0
   46.1300   32.4295   39.9157 C   0  0  0  0  0  0  0  0  0  0  0  0
   46.9837   32.2844   38.6629 C   0  0  0  0  0  0  0  0  0  0  0  0
   48.2216   33.0293   39.1371 C   0  0  0  0  0  0  0  0  0  0  0  0
   47.5863   34.2306   39.8159 C   0  0  1  0  0  0  0  0  0  0  0  0
   43.4830   36.3456   42.3628 H   0  0  0  0  0  0  0  0  0  0  0  0
   43.2101   34.8581   43.2837 H   0  0  0  0  0  0  0  0  0  0  0  0
   45.6626   36.7073   43.1285 H   0  0  0  0  0  0  0  0  0  0  0  0
   44.7991   36.0307   44.5122 H   0  0  0  0  0  0  0  0  0  0  0  0
   47.0363   35.1121   43.9447 H   0  0  0  0  0  0  0  0  0  0  0  0
   47.3221   33.4850   42.3945 H   0  0  0  0  0  0  0  0  0  0  0  0
   45.6963   32.9059   42.7633 H   0  0  0  0  0  0  0  0  0  0  0  0
   46.1406   35.4569   41.3073 H   0  0  0  0  0  0  0  0  0  0  0  0
   42.8865   32.4672   41.6663 H   0  0  0  0  0  0  0  0  0  0  0  0
   43.2496   36.0350   39.3935 H   0  0  0  0  0  0  0  0  0  0  0  0
   40.2717   33.1662   38.5215 H   0  0  0  0  0  0  0  0  0  0  0  0
   45.0878   32.2054   39.5723 H   0  0  0  0  0  0  0  0  0  0  0  0
   46.4767   31.7993   40.7324 H   0  0  0  0  0  0  0  0  0  0  0  0
   46.5098   32.8967   37.8722 H   0  0  0  0  0  0  0  0  0  0  0  0
   47.2000   31.2513   38.3886 H   0  0  0  0  0  0  0  0  0  0  0  0
   48.8338   32.4526   39.8370 H   0  0  0  0  0  0  0  0  0  0  0  0
   48.7834   33.4163   38.2568 H   0  0  0  0  0  0  0  0  0  0  0  0
   48.1748   34.4954   40.7011 H   0  0  0  0  0  0  0  0  0  0  0  0
   48.7988   34.0760   37.3280 N   0  0  0  0  0  0  0  0  0  0  0  0
   47.9575   35.0331   37.5366 C   0  0  0  0  0  0  0  0  0  0  0  0
   47.4638   35.3341   38.8558 N   0  0  0  0  0  0  0  0  0  0  0  0
   47.4660   35.8536   36.4583 N   0  0  0  0  0  0  0  0  0  0  0  0
   46.5124   35.6575   36.0862 H   0  0  0  0  0  0  0  0  0  0  0  0
   49.1850   33.8207   36.3879 H   0  0  0  0  0  0  0  0  0  0  0  0
   47.0592   36.2805   39.0610 H   0  0  0  0  0  0  0  0  0  0  0  0
   47.9510   36.6418   35.9851 H   0  0  0  0  0  0  0  0  0  0  0  0
  1  2  1  0
  2  3  1  0
  3  4  1  0
  5  4  1  0
  6  1  1  0
  6  5  1  0
  8  7  2  0
  8  1  1  0
  9  8  1  0
 10 11  1  0
 10  9  2  0
 11 12  2  0
 12  7  1  0
 13 14  1  0
 13  6  1  0
 15 16  1  0
 15 14  1  0
 16 17  1  0
 17 13  1  0
  2 18  1  0
  2 19  1  0
  3 20  1  0
  3 21  1  0
  4 22  1  0
  5 23  1  0
  5 24  1  0
  6 25  1  6
  7 26  1  0
  9 27  1  0
 11 28  1  0
 14 29  1  0
 14 30  1  0
 15 31  1  0
 15 32  1  0
 16 33  1  0
 16 34  1  0
 17 35  1  1
 36 37  2  3
 37 38  1  0
 37 39  1  0
 39 40  1  0
 36 41  1  0
 38 42  1  0
 39 43  1  0
 17 38  1  0
M  ISO  8  18  13  19  13  20  13  21  13  22   5  23  13  24  13  25  13
M  ISO  8  26  14  27  14  28  14  29  13  30  13  31  13  32  13  33  13
M  ISO  3  34  13  35  13  40   5
M  END
>  <DihAtoms>  (1) 
15,16,37,36

>  <DihDeg>  (1) 
-59.99890345110477

$$$$
