
 OpenBabel03252509333D

 39 40  0  0  1  0  0  0  0  0999 V2000
   44.8970   34.4310   42.4920 C   0  0  1  0  0  0  0  0  0  0  0  0
   44.2640   35.7390   42.1050 C   0  0  0  0  0  0  0  0  0  0  0  0
   43.4150   35.3210   40.9280 C   0  0  0  0  0  0  0  0  0  0  0  0
   44.1580   34.1510   40.2930 C   0  0  0  0  0  0  0  0  0  0  0  0
   45.4080   33.9520   41.1320 C   0  0  1  0  0  0  0  0  0  0  0  0
   44.1650   33.6970   42.8360 H   0  0  0  0  0  0  0  0  0  0  0  0
   43.6940   36.2270   42.8990 H   0  0  0  0  0  0  0  0  0  0  0  0
   45.0510   36.4430   41.7720 H   0  0  0  0  0  0  0  0  0  0  0  0
   42.4770   34.8970   41.3850 H   0  0  0  0  0  0  0  0  0  0  0  0
   43.1980   36.1280   40.2140 H   0  0  0  0  0  0  0  0  0  0  0  0
   44.4990   34.5250   39.2980 H   0  0  0  0  0  0  0  0  0  0  0  0
   43.5380   33.2350   40.2300 H   0  0  0  0  0  0  0  0  0  0  0  0
   45.5330   32.8570   41.2240 H   0  0  0  0  0  0  0  0  0  0  0  0
   47.4430   32.6090   39.6840 N   0  0  0  0  0  0  0  0  0  0  0  0
   47.4790   33.8840   39.8810 C   0  0  0  0  0  0  0  0  0  0  0  0
   46.5560   34.6460   40.6660 N   0  0  0  0  0  0  0  0  0  0  0  0
   48.5620   34.5610   39.2340 N   0  0  0  0  0  0  0  0  0  0  0  0
   48.8810   35.3890   38.6930 H   0  0  0  0  0  0  0  0  0  0  0  0
   46.6770   32.0590   40.1310 H   0  0  0  0  0  0  0  0  0  0  0  0
   46.7130   35.6370   40.8820 H   0  0  0  0  0  0  0  0  0  0  0  0
   49.5250   34.1510   39.2250 H   0  0  0  0  0  0  0  0  0  0  0  0
   45.9610   34.5690   43.3830 O   0  0  0  0  0  0  0  0  0  0  0  0
   45.1490   34.2330   45.8280 O   0  0  0  0  0  0  0  0  0  0  0  0
   45.7450   33.5020   44.6690 P   0  0  1  0  0  0  0  0  0  0  0  0
   44.8480   32.1580   44.2180 O   0  0  0  0  0  0  0  0  0  0  0  0
   44.3950   32.2970   43.3500 H   0  0  0  0  0  0  0  0  0  0  0  0
   47.2760   32.9110   45.1010 O   0  0  0  0  0  0  0  0  0  0  0  0
   47.1590   31.5740   45.3640 C   0  0  0  0  0  0  0  0  0  0  0  0
   48.2190   31.1800   45.3380 H   0  0  0  0  0  0  0  0  0  0  0  0
   46.6090   30.9530   44.6760 H   0  0  0  0  0  0  0  0  0  0  0  0
   46.9940   31.4900   49.0770 C   0  0  0  0  0  0  0  0  0  0  0  0
   47.4630   31.7570   47.7870 C   0  0  0  0  0  0  0  0  0  0  0  0
   46.6880   31.3070   46.7190 C   0  0  0  0  0  0  0  0  0  0  0  0
   45.5270   30.6380   47.0010 N   0  0  0  0  0  0  0  0  0  0  0  0
   45.1050   30.3990   48.2550 C   0  0  0  0  0  0  0  0  0  0  0  0
   45.8510   30.8320   49.2860 N   0  0  0  0  0  0  0  0  0  0  0  0
   47.6520   31.8720   49.8660 H   0  0  0  0  0  0  0  0  0  0  0  0
   48.3830   32.2860   47.5850 H   0  0  0  0  0  0  0  0  0  0  0  0
   44.1810   29.8670   48.4510 H   0  0  0  0  0  0  0  0  0  0  0  0
  1  6  1  1  0  0  0
  1 22  1  0  0  0  0
  2  1  1  0  0  0  0
  2  7  1  0  0  0  0
  3  9  1  0  0  0  0
  3  2  1  0  0  0  0
  4  3  1  0  0  0  0
  4  5  1  0  0  0  0
  5 13  1  1  0  0  0
  5  1  1  0  0  0  0
  8  2  1  0  0  0  0
 10  3  1  0  0  0  0
 11  4  1  0  0  0  0
 12  4  1  0  0  0  0
 14 15  2  0  0  0  0
 14 19  1  0  0  0  0
 15 16  1  0  0  0  0
 16 20  1  0  0  0  0
 16  5  1  0  0  0  0
 17 15  1  0  0  0  0
 18 17  1  0  0  0  0
 21 17  1  0  0  0  0
 22 24  1  0  0  0  0
 24 27  1  0  0  0  0
 24 23  2  1  0  0  0
 25 24  1  0  0  0  0
 26 25  1  0  0  0  0
 27 28  1  0  0  0  0
 28 33  1  0  0  0  0
 29 28  1  0  0  0  0
 30 28  1  0  0  0  0
 31 36  1  0  0  0  0
 31 37  1  0  0  0  0
 32 31  2  0  0  0  0
 33 34  2  0  0  0  0
 33 32  1  0  0  0  0
 34 35  1  0  0  0  0
 35 39  1  0  0  0  0
 35 36  2  0  0  0  0
 38 32  1  0  0  0  0
M  END
>  <minimizedAffinity>
-4.97390509

>  <minimizedRMSD>
2.60751605

$$$$
