
 OpenBabel03242513433D

 45 47  0  0  0  0  0  0  0  0999 V2000
   47.6840   31.0100   46.0090 C   0  0  0  0  0  0  0  0  0  0  0  0
   46.9660   32.0750   45.5270 C   0  0  0  0  0  0  0  0  0  0  0  0
   45.9830   32.5750   46.3350 C   0  0  0  0  0  0  0  0  0  0  0  0
   45.6820   32.0810   47.5750 C   0  0  0  0  0  0  0  0  0  0  0  0
   44.8030   32.3440   48.5780 N   0  0  0  0  0  0  0  0  0  0  0  0
   44.9930   31.4720   49.6080 C   0  0  0  0  0  0  0  0  0  0  0  0
   46.0000   30.6660   49.2300 N   0  0  0  0  0  0  0  0  0  0  0  0
   46.4280   31.0150   48.0120 C   0  0  0  0  0  0  0  0  0  0  0  0
   47.4320   30.4560   47.2600 C   0  0  0  0  0  0  0  0  0  0  0  0
   48.4800   30.5820   45.3870 H   0  0  0  0  0  0  0  0  0  0  0  0
   45.3940   33.4260   45.9760 H   0  0  0  0  0  0  0  0  0  0  0  0
   44.1270   33.1290   48.4610 H   0  0  0  0  0  0  0  0  0  0  0  0
   44.4100   31.4860   50.5200 H   0  0  0  0  0  0  0  0  0  0  0  0
   47.1840   34.4190   42.7340 C   0  0  0  0  0  0  0  0  0  0  0  0
   47.8030   33.6590   41.7360 C   0  0  0  0  0  0  0  0  0  0  0  0
   48.1340   32.3280   42.0660 C   0  0  0  0  0  0  0  0  0  0  0  0
   47.8480   31.8540   43.3010 N   0  0  0  0  0  0  0  0  0  0  0  0
   47.2510   32.6360   44.2160 C   0  0  0  0  0  0  0  0  0  0  0  0
   46.9140   33.9080   43.9560 N   0  0  0  0  0  0  0  0  0  0  0  0
   46.9280   35.4510   42.4770 H   0  0  0  0  0  0  0  0  0  0  0  0
   48.6150   31.7360   41.2940 H   0  0  0  0  0  0  0  0  0  0  0  0
   48.0700   34.2800   40.4140 C   0  0  0  0  0  0  0  0  0  0  0  0
   48.5760   35.5360   40.7230 F   0  0  0  0  0  0  0  0  0  0  0  0
   46.8940   34.4130   39.7650 F   0  0  0  0  0  0  0  0  0  0  0  0
   48.9760   33.4910   39.7270 F   0  0  0  0  0  0  0  0  0  0  0  0
   48.1500   29.3810   47.7580 O   0  0  0  0  0  0  0  0  0  0  0  0
   49.8060   28.0830   49.2720 O   0  0  0  0  0  0  0  0  0  0  0  0
   49.4710   29.4960   48.8000 P   0  0  2  0  0  0  0  0  0  0  0  0
   48.9450   30.3490   50.1800 O   0  0  0  0  0  0  0  0  0  0  0  0
   48.8120   31.2820   49.8710 H   0  0  0  0  0  0  0  0  0  0  0  0
   50.8170   30.2330   48.1330 O   0  0  0  0  0  0  0  0  0  0  0  0
   51.9140   30.2630   48.9600 C   0  0  0  0  0  0  0  0  0  0  0  0
   51.7270   29.6190   49.8410 H   0  0  0  0  0  0  0  0  0  0  0  0
   52.8080   29.9040   48.4480 H   0  0  0  0  0  0  0  0  0  0  0  0
   52.0770   31.7210   49.4180 C   0  0  0  0  0  0  0  0  0  0  0  0
   52.5720   32.3320   48.6510 H   0  0  0  0  0  0  0  0  0  0  0  0
   51.0570   32.1400   49.6180 H   0  0  0  0  0  0  0  0  0  0  0  0
   50.9450   31.6510   52.0770 N   0  0  0  0  0  0  0  0  0  0  0  0
   52.1800   31.9150   51.8450 C   0  0  0  0  0  0  0  0  0  0  0  0
   52.8680   31.6870   50.6300 N   0  0  0  0  0  0  0  0  0  0  0  0
   52.8110   32.4930   53.0060 N   0  0  0  0  0  0  0  0  0  0  0  0
   52.7420   33.4720   53.3760 H   0  0  0  0  0  0  0  0  0  0  0  0
   50.3730   31.2310   51.3190 H   0  0  0  0  0  0  0  0  0  0  0  0
   53.8920   31.5130   50.7160 H   0  0  0  0  0  0  0  0  0  0  0  0
   53.4640   32.2110   53.7890 H   0  0  0  0  0  0  0  0  0  0  0  0
  1  9  1  0  0  0  0
  2  1  2  0  0  0  0
  2  3  1  0  0  0  0
  3  4  2  0  0  0  0
  4  8  1  0  0  0  0
  4  5  1  0  0  0  0
  5  6  1  0  0  0  0
  6 13  1  0  0  0  0
  7  6  2  0  0  0  0
  8  7  1  0  0  0  0
  9 26  1  0  0  0  0
  9  8  2  0  0  0  0
 10  1  1  0  0  0  0
 11  3  1  0  0  0  0
 12  5  1  0  0  0  0
 14 19  1  0  0  0  0
 15 16  1  0  0  0  0
 15 14  2  0  0  0  0
 16 17  2  0  0  0  0
 17 18  1  0  0  0  0
 18  2  1  0  0  0  0
 19 18  2  0  0  0  0
 20 14  1  0  0  0  0
 21 16  1  0  0  0  0
 22 23  1  0  0  0  0
 22 15  1  0  0  0  0
 24 22  1  0  0  0  0
 25 22  1  0  0  0  0
 26 28  1  0  0  0  0
 28 27  2  1  0  0  0
 28 29  1  0  0  0  0
 30 29  1  0  0  0  0
 31 28  1  0  0  0  0
 31 32  1  0  0  0  0
 32 35  1  0  0  0  0
 32 33  1  0  0  0  0
 34 32  1  0  0  0  0
 35 37  1  0  0  0  0
 35 40  1  0  0  0  0
 36 35  1  0  0  0  0
 39 38  2  0  0  0  0
 39 41  1  0  0  0  0
 40 44  1  0  0  0  0
 40 39  1  0  0  0  0
 41 42  1  0  0  0  0
 41 45  1  0  0  0  0
 43 38  1  0  0  0  0
M  END
>  <minimizedAffinity>
-5.78522635

>  <minimizedRMSD>
0.289016396

$$$$
