
 OpenBabel03242513453D

 45 47  0  0  0  0  0  0  0  0999 V2000
   41.8940   31.7590   40.8210 C   0  0  0  0  0  0  0  0  0  0  0  0
   41.7260   31.2600   42.0870 C   0  0  0  0  0  0  0  0  0  0  0  0
   42.5830   31.7140   43.0510 C   0  0  0  0  0  0  0  0  0  0  0  0
   43.5810   32.6230   42.8240 C   0  0  0  0  0  0  0  0  0  0  0  0
   44.5560   33.2460   43.5380 N   0  0  0  0  0  0  0  0  0  0  0  0
   45.2700   34.0780   42.7280 C   0  0  0  0  0  0  0  0  0  0  0  0
   44.7250   33.9610   41.5050 N   0  0  0  0  0  0  0  0  0  0  0  0
   43.7080   33.0920   41.5420 C   0  0  0  0  0  0  0  0  0  0  0  0
   42.8880   32.6850   40.5180 C   0  0  0  0  0  0  0  0  0  0  0  0
   41.2250   31.4170   40.0220 H   0  0  0  0  0  0  0  0  0  0  0  0
   42.4720   31.3330   44.0720 H   0  0  0  0  0  0  0  0  0  0  0  0
   44.6450   33.0380   44.5560 H   0  0  0  0  0  0  0  0  0  0  0  0
   46.0990   34.6820   43.0720 H   0  0  0  0  0  0  0  0  0  0  0  0
   40.0290   28.1540   42.9890 C   0  0  0  0  0  0  0  0  0  0  0  0
   38.6770   28.5030   42.9120 C   0  0  0  0  0  0  0  0  0  0  0  0
   38.3850   29.8330   42.5410 C   0  0  0  0  0  0  0  0  0  0  0  0
   39.3980   30.6920   42.2830 N   0  0  0  0  0  0  0  0  0  0  0  0
   40.6780   30.2940   42.3760 C   0  0  0  0  0  0  0  0  0  0  0  0
   41.0110   29.0420   42.7240 N   0  0  0  0  0  0  0  0  0  0  0  0
   40.2540   27.1230   43.2770 H   0  0  0  0  0  0  0  0  0  0  0  0
   37.3360   30.1060   42.4800 H   0  0  0  0  0  0  0  0  0  0  0  0
   37.6450   27.4780   43.2150 C   0  0  0  0  0  0  0  0  0  0  0  0
   37.3010   27.7230   44.5380 F   0  0  0  0  0  0  0  0  0  0  0  0
   38.2190   26.2590   43.1140 F   0  0  0  0  0  0  0  0  0  0  0  0
   36.5830   27.6450   42.3440 F   0  0  0  0  0  0  0  0  0  0  0  0
   43.0680   33.1970   39.2440 O   0  0  0  0  0  0  0  0  0  0  0  0
   40.7890   33.0480   38.0180 O   0  0  0  0  0  0  0  0  0  0  0  0
   41.9010   34.0360   38.3620 P   0  0  2  0  0  0  0  0  0  0  0  0
   42.6200   34.4810   36.8810 O   0  0  0  0  0  0  0  0  0  0  0  0
   43.2810   35.1830   37.1160 H   0  0  0  0  0  0  0  0  0  0  0  0
   41.2800   35.3810   39.1400 O   0  0  0  0  0  0  0  0  0  0  0  0
   40.8250   35.1380   40.4140 C   0  0  0  0  0  0  0  0  0  0  0  0
   41.0940   34.1050   40.7090 H   0  0  0  0  0  0  0  0  0  0  0  0
   41.2650   35.8310   41.1320 H   0  0  0  0  0  0  0  0  0  0  0  0
   39.2950   35.2730   40.3660 C   0  0  0  0  0  0  0  0  0  0  0  0
   38.9510   36.1590   40.9170 H   0  0  0  0  0  0  0  0  0  0  0  0
   38.9860   35.3670   39.2930 H   0  0  0  0  0  0  0  0  0  0  0  0
   38.0430   33.1600   38.8440 N   0  0  0  0  0  0  0  0  0  0  0  0
   37.9510   33.2550   40.1200 C   0  0  0  0  0  0  0  0  0  0  0  0
   38.7550   34.0660   40.9560 N   0  0  0  0  0  0  0  0  0  0  0  0
   36.8970   32.4110   40.6270 N   0  0  0  0  0  0  0  0  0  0  0  0
   35.8600   32.5690   40.6110 H   0  0  0  0  0  0  0  0  0  0  0  0
   38.7650   33.7190   38.3500 H   0  0  0  0  0  0  0  0  0  0  0  0
   38.8880   33.7200   41.9300 H   0  0  0  0  0  0  0  0  0  0  0  0
   36.7780   31.4830   41.1200 H   0  0  0  0  0  0  0  0  0  0  0  0
  1  2  1  0  0  0  0
  2 18  1  0  0  0  0
  2  3  2  0  0  0  0
  3 11  1  0  0  0  0
  4  3  1  0  0  0  0
  4  5  1  0  0  0  0
  5 12  1  0  0  0  0
  6 13  1  0  0  0  0
  6  5  1  0  0  0  0
  7  8  1  0  0  0  0
  7  6  2  0  0  0  0
  8  4  2  0  0  0  0
  9  1  2  0  0  0  0
  9  8  1  0  0  0  0
 10  1  1  0  0  0  0
 14 20  1  0  0  0  0
 15 14  1  0  0  0  0
 15 22  1  0  0  0  0
 16 15  2  0  0  0  0
 17 18  2  0  0  0  0
 17 16  1  0  0  0  0
 18 19  1  0  0  0  0
 19 14  2  0  0  0  0
 21 16  1  0  0  0  0
 22 23  1  0  0  0  0
 24 22  1  0  0  0  0
 25 22  1  0  0  0  0
 26  9  1  0  0  0  0
 28 27  2  6  0  0  0
 28 31  1  0  0  0  0
 28 26  1  0  0  0  0
 29 30  1  0  0  0  0
 29 28  1  0  0  0  0
 31 32  1  0  0  0  0
 32 33  1  0  0  0  0
 32 34  1  0  0  0  0
 35 32  1  0  0  0  0
 35 36  1  0  0  0  0
 35 40  1  0  0  0  0
 37 35  1  0  0  0  0
 38 39  2  0  0  0  0
 39 41  1  0  0  0  0
 39 40  1  0  0  0  0
 40 44  1  0  0  0  0
 41 45  1  0  0  0  0
 42 41  1  0  0  0  0
 43 38  1  0  0  0  0
M  END
>  <minimizedAffinity>
-7.07271338

$$$$

 OpenBabel03242513453D

 45 47  0  0  0  0  0  0  0  0999 V2000
   40.9290   31.9110   40.8000 C   0  0  0  0  0  0  0  0  0  0  0  0
   40.9470   31.2070   41.9770 C   0  0  0  0  0  0  0  0  0  0  0  0
   41.9790   31.4640   42.8360 C   0  0  0  0  0  0  0  0  0  0  0  0
   42.9760   32.3680   42.5900 C   0  0  0  0  0  0  0  0  0  0  0  0
   44.0920   32.8310   43.2140 N   0  0  0  0  0  0  0  0  0  0  0  0
   44.7070   33.7690   42.4390 C   0  0  0  0  0  0  0  0  0  0  0  0
   43.9580   33.8800   41.3280 N   0  0  0  0  0  0  0  0  0  0  0  0
   42.9130   33.0480   41.4000 C   0  0  0  0  0  0  0  0  0  0  0  0
   41.9100   32.8470   40.4840 C   0  0  0  0  0  0  0  0  0  0  0  0
   40.1160   31.7310   40.0860 H   0  0  0  0  0  0  0  0  0  0  0  0
   42.0200   30.9160   43.7840 H   0  0  0  0  0  0  0  0  0  0  0  0
   44.3400   32.4480   44.1520 H   0  0  0  0  0  0  0  0  0  0  0  0
   45.6150   34.2810   42.7270 H   0  0  0  0  0  0  0  0  0  0  0  0
   37.6720   29.6240   42.3000 C   0  0  0  0  0  0  0  0  0  0  0  0
   37.9780   28.3860   42.8730 C   0  0  0  0  0  0  0  0  0  0  0  0
   39.3400   28.1280   43.1370 C   0  0  0  0  0  0  0  0  0  0  0  0
   40.2690   29.0650   42.8330 N   0  0  0  0  0  0  0  0  0  0  0  0
   39.9080   30.2360   42.2830 C   0  0  0  0  0  0  0  0  0  0  0  0
   38.6290   30.5330   42.0110 N   0  0  0  0  0  0  0  0  0  0  0  0
   36.6160   29.8220   42.0950 H   0  0  0  0  0  0  0  0  0  0  0  0
   39.5810   27.1680   43.5810 H   0  0  0  0  0  0  0  0  0  0  0  0
   36.8790   27.4320   43.1670 C   0  0  0  0  0  0  0  0  0  0  0  0
   36.6440   27.5910   44.5270 F   0  0  0  0  0  0  0  0  0  0  0  0
   37.3300   26.1810   42.9300 F   0  0  0  0  0  0  0  0  0  0  0  0
   35.7820   27.7630   42.3910 F   0  0  0  0  0  0  0  0  0  0  0  0
   41.9010   33.5650   39.3000 O   0  0  0  0  0  0  0  0  0  0  0  0
   42.8950   31.7280   37.7650 O   0  0  0  0  0  0  0  0  0  0  0  0
   41.9040   32.8890   37.7550 P   0  0  2  0  0  0  0  0  0  0  0  0
   42.5520   34.0620   36.7000 O   0  0  0  0  0  0  0  0  0  0  0  0
   41.8580   34.7680   36.6420 H   0  0  0  0  0  0  0  0  0  0  0  0
   40.4020   32.3830   37.2190 O   0  0  0  0  0  0  0  0  0  0  0  0
   39.9990   31.1720   37.7260 C   0  0  0  0  0  0  0  0  0  0  0  0
   39.9850   30.4200   36.9130 H   0  0  0  0  0  0  0  0  0  0  0  0
   40.6740   30.8240   38.5100 H   0  0  0  0  0  0  0  0  0  0  0  0
   38.5730   31.3730   38.2610 C   0  0  0  0  0  0  0  0  0  0  0  0
   37.8220   30.9560   37.5760 H   0  0  0  0  0  0  0  0  0  0  0  0
   38.4940   30.8530   39.2500 H   0  0  0  0  0  0  0  0  0  0  0  0
   36.9670   32.5740   40.3430 N   0  0  0  0  0  0  0  0  0  0  0  0
   37.3750   33.2180   39.3100 C   0  0  0  0  0  0  0  0  0  0  0  0
   38.3860   32.8010   38.4120 N   0  0  0  0  0  0  0  0  0  0  0  0
   36.6610   34.4620   39.1610 N   0  0  0  0  0  0  0  0  0  0  0  0
   35.6910   34.6260   38.7940 H   0  0  0  0  0  0  0  0  0  0  0  0
   37.4010   31.6580   40.5650 H   0  0  0  0  0  0  0  0  0  0  0  0
   38.9110   33.5650   37.9360 H   0  0  0  0  0  0  0  0  0  0  0  0
   36.8040   35.4960   39.3290 H   0  0  0  0  0  0  0  0  0  0  0  0
  1  2  1  0  0  0  0
  2 18  1  0  0  0  0
  2  3  2  0  0  0  0
  3 11  1  0  0  0  0
  4  3  1  0  0  0  0
  4  5  1  0  0  0  0
  5 12  1  0  0  0  0
  6 13  1  0  0  0  0
  6  5  1  0  0  0  0
  7  8  1  0  0  0  0
  7  6  2  0  0  0  0
  8  4  2  0  0  0  0
  9  1  2  0  0  0  0
  9  8  1  0  0  0  0
 10  1  1  0  0  0  0
 14 15  1  0  0  0  0
 15 16  2  0  0  0  0
 15 22  1  0  0  0  0
 16 21  1  0  0  0  0
 17 16  1  0  0  0  0
 18 17  2  0  0  0  0
 19 18  1  0  0  0  0
 19 14  2  0  0  0  0
 20 14  1  0  0  0  0
 22 23  1  0  0  0  0
 24 22  1  0  0  0  0
 25 22  1  0  0  0  0
 26  9  1  0  0  0  0
 28 27  2  1  0  0  0
 28 26  1  0  0  0  0
 29 28  1  0  0  0  0
 30 29  1  0  0  0  0
 31 32  1  0  0  0  0
 31 28  1  0  0  0  0
 32 35  1  0  0  0  0
 32 34  1  0  0  0  0
 33 32  1  0  0  0  0
 35 40  1  0  0  0  0
 35 37  1  0  0  0  0
 36 35  1  0  0  0  0
 38 43  1  0  0  0  0
 39 38  2  0  0  0  0
 40 39  1  0  0  0  0
 41 39  1  0  0  0  0
 41 45  1  0  0  0  0
 42 41  1  0  0  0  0
 44 40  1  0  0  0  0
M  END
>  <minimizedAffinity>
-6.97943449

$$$$

 OpenBabel03242513453D

 45 47  0  0  0  0  0  0  0  0999 V2000
   40.4640   31.5280   40.7300 C   0  0  0  0  0  0  0  0  0  0  0  0
   39.1310   31.2940   40.9520 C   0  0  0  0  0  0  0  0  0  0  0  0
   38.2870   32.3630   40.8290 C   0  0  0  0  0  0  0  0  0  0  0  0
   38.6920   33.6290   40.5040 C   0  0  0  0  0  0  0  0  0  0  0  0
   38.1250   34.8500   40.3140 N   0  0  0  0  0  0  0  0  0  0  0  0
   39.0830   35.7660   39.9940 C   0  0  0  0  0  0  0  0  0  0  0  0
   40.2480   35.0970   39.9900 N   0  0  0  0  0  0  0  0  0  0  0  0
   40.0350   33.8110   40.2930 C   0  0  0  0  0  0  0  0  0  0  0  0
   40.9470   32.7900   40.3960 C   0  0  0  0  0  0  0  0  0  0  0  0
   41.1720   30.6940   40.8200 H   0  0  0  0  0  0  0  0  0  0  0  0
   37.2160   32.2060   41.0010 H   0  0  0  0  0  0  0  0  0  0  0  0
   37.0930   34.9480   40.4240 H   0  0  0  0  0  0  0  0  0  0  0  0
   38.8710   36.8090   39.7970 H   0  0  0  0  0  0  0  0  0  0  0  0
   37.0850   28.5950   42.3180 C   0  0  0  0  0  0  0  0  0  0  0  0
   37.7840   27.4470   41.9310 C   0  0  0  0  0  0  0  0  0  0  0  0
   38.9700   27.6450   41.1920 C   0  0  0  0  0  0  0  0  0  0  0  0
   39.3710   28.9030   40.8960 N   0  0  0  0  0  0  0  0  0  0  0  0
   38.6530   29.9650   41.2980 C   0  0  0  0  0  0  0  0  0  0  0  0
   37.5190   29.8350   42.0030 N   0  0  0  0  0  0  0  0  0  0  0  0
   36.1660   28.4400   42.8900 H   0  0  0  0  0  0  0  0  0  0  0  0
   39.5140   26.7550   40.8900 H   0  0  0  0  0  0  0  0  0  0  0  0
   37.2540   26.1130   42.3120 C   0  0  0  0  0  0  0  0  0  0  0  0
   36.6770   25.6300   41.1440 F   0  0  0  0  0  0  0  0  0  0  0  0
   36.2970   26.2900   43.2480 F   0  0  0  0  0  0  0  0  0  0  0  0
   38.3030   25.3280   42.7570 F   0  0  0  0  0  0  0  0  0  0  0  0
   42.2910   33.0380   40.1690 O   0  0  0  0  0  0  0  0  0  0  0  0
   43.4690   32.6020   42.4370 O   0  0  0  0  0  0  0  0  0  0  0  0
   43.3750   33.6340   41.3160 P   0  0  2  0  0  0  0  0  0  0  0  0
   42.6600   35.0220   42.0030 O   0  0  0  0  0  0  0  0  0  0  0  0
   42.6840   35.7060   41.2850 H   0  0  0  0  0  0  0  0  0  0  0  0
   44.8930   33.9940   40.7110 O   0  0  0  0  0  0  0  0  0  0  0  0
   45.2300   33.2950   39.5780 C   0  0  0  0  0  0  0  0  0  0  0  0
   46.2290   32.8370   39.7130 H   0  0  0  0  0  0  0  0  0  0  0  0
   44.5090   32.5030   39.3690 H   0  0  0  0  0  0  0  0  0  0  0  0
   45.2880   34.3190   38.4330 C   0  0  0  0  0  0  0  0  0  0  0  0
   44.9560   35.3120   38.7630 H   0  0  0  0  0  0  0  0  0  0  0  0
   46.3490   34.3870   38.0790 H   0  0  0  0  0  0  0  0  0  0  0  0
   42.6230   35.3160   37.9280 N   0  0  0  0  0  0  0  0  0  0  0  0
   43.0700   34.2210   37.4300 C   0  0  0  0  0  0  0  0  0  0  0  0
   44.4250   33.8160   37.3850 N   0  0  0  0  0  0  0  0  0  0  0  0
   41.9950   33.4190   36.8990 N   0  0  0  0  0  0  0  0  0  0  0  0
   41.3030   32.8200   37.4130 H   0  0  0  0  0  0  0  0  0  0  0  0
   43.2960   35.9870   38.3470 H   0  0  0  0  0  0  0  0  0  0  0  0
   44.6830   33.1870   36.5950 H   0  0  0  0  0  0  0  0  0  0  0  0
   41.5660   33.1650   35.9660 H   0  0  0  0  0  0  0  0  0  0  0  0
  1 10  1  0  0  0  0
  1  2  1  0  0  0  0
  2 18  1  0  0  0  0
  3  2  2  0  0  0  0
  3 11  1  0  0  0  0
  4  3  1  0  0  0  0
  5 12  1  0  0  0  0
  5  4  1  0  0  0  0
  6  5  1  0  0  0  0
  7  6  2  0  0  0  0
  7  8  1  0  0  0  0
  8  9  1  0  0  0  0
  8  4  2  0  0  0  0
  9  1  2  0  0  0  0
 13  6  1  0  0  0  0
 14 20  1  0  0  0  0
 15 22  1  0  0  0  0
 15 14  2  0  0  0  0
 16 15  1  0  0  0  0
 17 16  2  0  0  0  0
 17 18  1  0  0  0  0
 18 19  2  0  0  0  0
 19 14  1  0  0  0  0
 21 16  1  0  0  0  0
 22 25  1  0  0  0  0
 22 24  1  0  0  0  0
 23 22  1  0  0  0  0
 26  9  1  0  0  0  0
 26 28  1  0  0  0  0
 28 29  1  0  0  0  0
 28 27  2  1  0  0  0
 30 29  1  0  0  0  0
 31 28  1  0  0  0  0
 32 33  1  0  0  0  0
 32 31  1  0  0  0  0
 34 32  1  0  0  0  0
 35 36  1  0  0  0  0
 35 32  1  0  0  0  0
 37 35  1  0  0  0  0
 38 43  1  0  0  0  0
 39 38  2  0  0  0  0
 40 39  1  0  0  0  0
 40 35  1  0  0  0  0
 41 42  1  0  0  0  0
 41 39  1  0  0  0  0
 44 40  1  0  0  0  0
 45 41  1  0  0  0  0
M  END
>  <minimizedAffinity>
-6.90781927

$$$$

 OpenBabel03242513453D

 45 47  0  0  0  0  0  0  0  0999 V2000
   40.1940   30.4800   40.7170 C   0  0  0  0  0  0  0  0  0  0  0  0
   38.8740   30.1360   40.8620 C   0  0  0  0  0  0  0  0  0  0  0  0
   37.9580   31.1460   40.7700 C   0  0  0  0  0  0  0  0  0  0  0  0
   38.2790   32.4570   40.5450 C   0  0  0  0  0  0  0  0  0  0  0  0
   37.6290   33.6440   40.4080 N   0  0  0  0  0  0  0  0  0  0  0  0
   38.5270   34.6470   40.1920 C   0  0  0  0  0  0  0  0  0  0  0  0
   39.7390   34.0650   40.1970 N   0  0  0  0  0  0  0  0  0  0  0  0
   39.6120   32.7500   40.4070 C   0  0  0  0  0  0  0  0  0  0  0  0
   40.5930   31.7940   40.4870 C   0  0  0  0  0  0  0  0  0  0  0  0
   40.9580   29.6960   40.7850 H   0  0  0  0  0  0  0  0  0  0  0  0
   36.8950   30.9000   40.8820 H   0  0  0  0  0  0  0  0  0  0  0  0
   36.5890   33.6590   40.4770 H   0  0  0  0  0  0  0  0  0  0  0  0
   38.2460   35.6820   40.0520 H   0  0  0  0  0  0  0  0  0  0  0  0
   36.8330   27.1450   41.3340 C   0  0  0  0  0  0  0  0  0  0  0  0
   37.7870   26.1460   41.5510 C   0  0  0  0  0  0  0  0  0  0  0  0
   39.1400   26.5460   41.5270 C   0  0  0  0  0  0  0  0  0  0  0  0
   39.4500   27.8440   41.3020 N   0  0  0  0  0  0  0  0  0  0  0  0
   38.4840   28.7550   41.1000 C   0  0  0  0  0  0  0  0  0  0  0  0
   37.1830   28.4300   41.1120 N   0  0  0  0  0  0  0  0  0  0  0  0
   35.7840   26.8330   41.3510 H   0  0  0  0  0  0  0  0  0  0  0  0
   39.8840   25.7730   41.6950 H   0  0  0  0  0  0  0  0  0  0  0  0
   37.3360   24.7520   41.7910 C   0  0  0  0  0  0  0  0  0  0  0  0
   36.3400   24.8770   42.7510 F   0  0  0  0  0  0  0  0  0  0  0  0
   38.3730   24.0540   42.3030 F   0  0  0  0  0  0  0  0  0  0  0  0
   36.8700   24.2230   40.6000 F   0  0  0  0  0  0  0  0  0  0  0  0
   41.9220   32.1540   40.3380 O   0  0  0  0  0  0  0  0  0  0  0  0
   42.6140   31.9280   42.8260 O   0  0  0  0  0  0  0  0  0  0  0  0
   42.9120   32.7430   41.5690 P   0  0  2  0  0  0  0  0  0  0  0  0
   42.4010   34.3360   41.9000 O   0  0  0  0  0  0  0  0  0  0  0  0
   42.6780   34.8650   41.1080 H   0  0  0  0  0  0  0  0  0  0  0  0
   44.5470   32.7130   41.2170 O   0  0  0  0  0  0  0  0  0  0  0  0
   44.8390   32.7930   39.8770 C   0  0  0  0  0  0  0  0  0  0  0  0
   45.8160   32.3080   39.6840 H   0  0  0  0  0  0  0  0  0  0  0  0
   44.0780   32.2940   39.2740 H   0  0  0  0  0  0  0  0  0  0  0  0
   44.9340   34.2890   39.5370 C   0  0  0  0  0  0  0  0  0  0  0  0
   44.3250   34.8960   40.2210 H   0  0  0  0  0  0  0  0  0  0  0  0
   46.0060   34.6000   39.6270 H   0  0  0  0  0  0  0  0  0  0  0  0
   42.2190   34.9870   38.8340 N   0  0  0  0  0  0  0  0  0  0  0  0
   43.0660   34.5230   37.9900 C   0  0  0  0  0  0  0  0  0  0  0  0
   44.4660   34.4340   38.1750 N   0  0  0  0  0  0  0  0  0  0  0  0
   42.4070   34.0840   36.7840 N   0  0  0  0  0  0  0  0  0  0  0  0
   41.8610   33.2050   36.6130 H   0  0  0  0  0  0  0  0  0  0  0  0
   42.5650   35.3370   39.7480 H   0  0  0  0  0  0  0  0  0  0  0  0
   45.0420   34.4820   37.3070 H   0  0  0  0  0  0  0  0  0  0  0  0
   42.2470   34.4110   35.7910 H   0  0  0  0  0  0  0  0  0  0  0  0
  1 10  1  0  0  0  0
  1  2  1  0  0  0  0
  2 18  1  0  0  0  0
  3  2  2  0  0  0  0
  3 11  1  0  0  0  0
  4  3  1  0  0  0  0
  5 12  1  0  0  0  0
  5  4  1  0  0  0  0
  6  7  2  0  0  0  0
  6  5  1  0  0  0  0
  7  8  1  0  0  0  0
  8  9  1  0  0  0  0
  8  4  2  0  0  0  0
  9  1  2  0  0  0  0
 13  6  1  0  0  0  0
 14 20  1  0  0  0  0
 14 15  1  0  0  0  0
 15 22  1  0  0  0  0
 16 15  2  0  0  0  0
 16 21  1  0  0  0  0
 17 16  1  0  0  0  0
 18 19  1  0  0  0  0
 18 17  2  0  0  0  0
 19 14  2  0  0  0  0
 22 24  1  0  0  0  0
 22 23  1  0  0  0  0
 25 22  1  0  0  0  0
 26  9  1  0  0  0  0
 26 28  1  0  0  0  0
 28 29  1  0  0  0  0
 28 27  2  1  0  0  0
 30 29  1  0  0  0  0
 31 28  1  0  0  0  0
 32 31  1  0  0  0  0
 33 32  1  0  0  0  0
 34 32  1  0  0  0  0
 35 37  1  0  0  0  0
 35 32  1  0  0  0  0
 35 36  1  0  0  0  0
 38 43  1  0  0  0  0
 39 40  1  0  0  0  0
 39 38  2  0  0  0  0
 40 35  1  0  0  0  0
 41 39  1  0  0  0  0
 42 41  1  0  0  0  0
 44 40  1  0  0  0  0
 45 41  1  0  0  0  0
M  END
>  <minimizedAffinity>
-6.62681389

$$$$

 OpenBabel03242513453D

 45 47  0  0  0  0  0  0  0  0999 V2000
   40.7680   31.6920   41.1700 C   0  0  0  0  0  0  0  0  0  0  0  0
   39.4150   31.4710   41.1120 C   0  0  0  0  0  0  0  0  0  0  0  0
   38.6330   32.5210   40.7200 C   0  0  0  0  0  0  0  0  0  0  0  0
   39.1170   33.7580   40.3900 C   0  0  0  0  0  0  0  0  0  0  0  0
   38.6220   34.9570   39.9810 N   0  0  0  0  0  0  0  0  0  0  0  0
   39.6390   35.8480   39.8050 C   0  0  0  0  0  0  0  0  0  0  0  0
   40.7680   35.1850   40.1110 N   0  0  0  0  0  0  0  0  0  0  0  0
   40.4760   33.9280   40.4640 C   0  0  0  0  0  0  0  0  0  0  0  0
   41.3290   32.9230   40.8490 C   0  0  0  0  0  0  0  0  0  0  0  0
   41.4260   30.8710   41.4810 H   0  0  0  0  0  0  0  0  0  0  0  0
   37.5490   32.3740   40.6640 H   0  0  0  0  0  0  0  0  0  0  0  0
   37.5930   35.0580   39.8530 H   0  0  0  0  0  0  0  0  0  0  0  0
   39.4900   36.8690   39.4820 H   0  0  0  0  0  0  0  0  0  0  0  0
   38.1810   28.6280   43.0450 C   0  0  0  0  0  0  0  0  0  0  0  0
   37.7980   27.7190   42.0530 C   0  0  0  0  0  0  0  0  0  0  0  0
   37.9820   28.1250   40.7140 C   0  0  0  0  0  0  0  0  0  0  0  0
   38.5070   29.3440   40.4520 N   0  0  0  0  0  0  0  0  0  0  0  0
   38.8550   30.1720   41.4510 C   0  0  0  0  0  0  0  0  0  0  0  0
   38.7010   29.8370   42.7410 N   0  0  0  0  0  0  0  0  0  0  0  0
   38.0360   28.3130   44.0820 H   0  0  0  0  0  0  0  0  0  0  0  0
   37.6860   27.4210   39.9430 H   0  0  0  0  0  0  0  0  0  0  0  0
   37.2330   26.4050   42.4540 C   0  0  0  0  0  0  0  0  0  0  0  0
   38.3230   25.7030   42.9500 F   0  0  0  0  0  0  0  0  0  0  0  0
   36.7650   25.7910   41.3460 F   0  0  0  0  0  0  0  0  0  0  0  0
   36.2510   26.6150   43.4060 F   0  0  0  0  0  0  0  0  0  0  0  0
   42.6930   33.1580   40.9030 O   0  0  0  0  0  0  0  0  0  0  0  0
   45.1590   33.0390   40.1120 O   0  0  0  0  0  0  0  0  0  0  0  0
   43.7330   33.1470   39.5750 P   0  0  2  0  0  0  0  0  0  0  0  0
   43.6160   34.6800   38.8370 O   0  0  0  0  0  0  0  0  0  0  0  0
   42.7140   34.6980   38.4240 H   0  0  0  0  0  0  0  0  0  0  0  0
   43.4240   31.9350   38.4650 O   0  0  0  0  0  0  0  0  0  0  0  0
   42.7630   32.3570   37.3370 C   0  0  0  0  0  0  0  0  0  0  0  0
   42.4580   33.4140   37.4640 H   0  0  0  0  0  0  0  0  0  0  0  0
   43.3970   32.2810   36.4520 H   0  0  0  0  0  0  0  0  0  0  0  0
   41.5110   31.4750   37.2070 C   0  0  0  0  0  0  0  0  0  0  0  0
   41.5940   30.7790   36.3620 H   0  0  0  0  0  0  0  0  0  0  0  0
   41.3980   30.8880   38.1550 H   0  0  0  0  0  0  0  0  0  0  0  0
   38.7490   30.6980   37.5570 N   0  0  0  0  0  0  0  0  0  0  0  0
   39.1050   31.7840   36.9740 C   0  0  0  0  0  0  0  0  0  0  0  0
   40.3910   32.3730   37.0190 N   0  0  0  0  0  0  0  0  0  0  0  0
   38.0060   32.3610   36.2390 N   0  0  0  0  0  0  0  0  0  0  0  0
   37.6110   32.0730   35.3100 H   0  0  0  0  0  0  0  0  0  0  0  0
   39.4500   30.1800   38.1210 H   0  0  0  0  0  0  0  0  0  0  0  0
   40.4180   33.4090   36.9120 H   0  0  0  0  0  0  0  0  0  0  0  0
   37.3030   33.1460   36.3280 H   0  0  0  0  0  0  0  0  0  0  0  0
  1 10  1  0  0  0  0
  2  1  1  0  0  0  0
  2 18  1  0  0  0  0
  3  2  2  0  0  0  0
  4  8  2  0  0  0  0
  4  3  1  0  0  0  0
  5  4  1  0  0  0  0
  6  5  1  0  0  0  0
  6  7  2  0  0  0  0
  7  8  1  0  0  0  0
  8  9  1  0  0  0  0
  9 26  1  0  0  0  0
  9  1  2  0  0  0  0
 11  3  1  0  0  0  0
 12  5  1  0  0  0  0
 13  6  1  0  0  0  0
 14 20  1  0  0  0  0
 15 22  1  0  0  0  0
 15 14  2  0  0  0  0
 16 15  1  0  0  0  0
 17 16  2  0  0  0  0
 17 18  1  0  0  0  0
 18 19  2  0  0  0  0
 19 14  1  0  0  0  0
 21 16  1  0  0  0  0
 22 23  1  0  0  0  0
 22 25  1  0  0  0  0
 24 22  1  0  0  0  0
 28 27  2  1  0  0  0
 28 26  1  0  0  0  0
 29 28  1  0  0  0  0
 30 29  1  0  0  0  0
 31 28  1  0  0  0  0
 32 33  1  0  0  0  0
 32 31  1  0  0  0  0
 34 32  1  0  0  0  0
 35 32  1  0  0  0  0
 35 37  1  0  0  0  0
 36 35  1  0  0  0  0
 38 43  1  0  0  0  0
 39 40  1  0  0  0  0
 39 38  2  0  0  0  0
 40 35  1  0  0  0  0
 41 45  1  0  0  0  0
 41 39  1  0  0  0  0
 42 41  1  0  0  0  0
 44 40  1  0  0  0  0
M  END
>  <minimizedAffinity>
-6.50717211

$$$$

 OpenBabel03242513453D

 45 47  0  0  0  0  0  0  0  0999 V2000
   41.6370   30.9350   40.3450 C   0  0  0  0  0  0  0  0  0  0  0  0
   40.7720   29.9920   39.8500 C   0  0  0  0  0  0  0  0  0  0  0  0
   40.9050   29.6630   38.5300 C   0  0  0  0  0  0  0  0  0  0  0  0
   41.8360   30.2130   37.6910 C   0  0  0  0  0  0  0  0  0  0  0  0
   42.2050   30.1030   36.3870 N   0  0  0  0  0  0  0  0  0  0  0  0
   43.2440   30.9460   36.1230 C   0  0  0  0  0  0  0  0  0  0  0  0
   43.5110   31.5780   37.2780 N   0  0  0  0  0  0  0  0  0  0  0  0
   42.6770   31.1510   38.2330 C   0  0  0  0  0  0  0  0  0  0  0  0
   42.6080   31.5360   39.5490 C   0  0  0  0  0  0  0  0  0  0  0  0
   41.5600   31.2250   41.4000 H   0  0  0  0  0  0  0  0  0  0  0  0
   40.2280   28.9120   38.1070 H   0  0  0  0  0  0  0  0  0  0  0  0
   41.6930   29.4340   35.7740 H   0  0  0  0  0  0  0  0  0  0  0  0
   43.7100   31.0340   35.1500 H   0  0  0  0  0  0  0  0  0  0  0  0
   37.9770   29.5770   42.1630 C   0  0  0  0  0  0  0  0  0  0  0  0
   37.8920   28.1880   42.3050 C   0  0  0  0  0  0  0  0  0  0  0  0
   38.8260   27.4180   41.5790 C   0  0  0  0  0  0  0  0  0  0  0  0
   39.7400   28.0380   40.7970 N   0  0  0  0  0  0  0  0  0  0  0  0
   39.7680   29.3780   40.7040 C   0  0  0  0  0  0  0  0  0  0  0  0
   38.9040   30.1580   41.3720 N   0  0  0  0  0  0  0  0  0  0  0  0
   37.2510   30.1720   42.7250 H   0  0  0  0  0  0  0  0  0  0  0  0
   38.7620   26.3400   41.6870 H   0  0  0  0  0  0  0  0  0  0  0  0
   36.8490   27.6120   43.1910 C   0  0  0  0  0  0  0  0  0  0  0  0
   37.1150   26.2490   43.1880 F   0  0  0  0  0  0  0  0  0  0  0  0
   35.6430   27.8390   42.6280 F   0  0  0  0  0  0  0  0  0  0  0  0
   36.9700   28.1800   44.4470 F   0  0  0  0  0  0  0  0  0  0  0  0
   43.4870   32.4890   40.0370 O   0  0  0  0  0  0  0  0  0  0  0  0
   44.2850   34.7690   40.9770 O   0  0  0  0  0  0  0  0  0  0  0  0
   43.0390   33.8950   40.8540 P   0  0  2  0  0  0  0  0  0  0  0  0
   42.6200   33.4360   42.4420 O   0  0  0  0  0  0  0  0  0  0  0  0
   41.7650   32.9400   42.3500 H   0  0  0  0  0  0  0  0  0  0  0  0
   41.7870   34.7420   40.1380 O   0  0  0  0  0  0  0  0  0  0  0  0
   41.1360   35.6090   40.9810 C   0  0  0  0  0  0  0  0  0  0  0  0
   41.1170   35.1820   42.0030 H   0  0  0  0  0  0  0  0  0  0  0  0
   41.6340   36.5790   41.0180 H   0  0  0  0  0  0  0  0  0  0  0  0
   39.6980   35.7350   40.4540 C   0  0  0  0  0  0  0  0  0  0  0  0
   39.2680   36.7200   40.6850 H   0  0  0  0  0  0  0  0  0  0  0  0
   39.7200   35.5970   39.3430 H   0  0  0  0  0  0  0  0  0  0  0  0
   39.0750   33.2100   39.1940 N   0  0  0  0  0  0  0  0  0  0  0  0
   38.4930   33.6260   40.2590 C   0  0  0  0  0  0  0  0  0  0  0  0
   38.9300   34.6850   41.0900 N   0  0  0  0  0  0  0  0  0  0  0  0
   37.2980   32.8640   40.5270 N   0  0  0  0  0  0  0  0  0  0  0  0
   36.3560   32.9330   40.0690 H   0  0  0  0  0  0  0  0  0  0  0  0
   39.9500   33.6760   38.8870 H   0  0  0  0  0  0  0  0  0  0  0  0
   38.6600   34.6140   42.0940 H   0  0  0  0  0  0  0  0  0  0  0  0
   36.9650   32.0890   41.1640 H   0  0  0  0  0  0  0  0  0  0  0  0
  1 10  1  0  0  0  0
  2  1  1  0  0  0  0
  2 18  1  0  0  0  0
  3  2  2  0  0  0  0
  4  8  2  0  0  0  0
  4  3  1  0  0  0  0
  5  4  1  0  0  0  0
  6  5  1  0  0  0  0
  6  7  2  0  0  0  0
  7  8  1  0  0  0  0
  8  9  1  0  0  0  0
  9 26  1  0  0  0  0
  9  1  2  0  0  0  0
 11  3  1  0  0  0  0
 12  5  1  0  0  0  0
 13  6  1  0  0  0  0
 14 15  1  0  0  0  0
 14 20  1  0  0  0  0
 15 22  1  0  0  0  0
 16 21  1  0  0  0  0
 16 15  2  0  0  0  0
 17 16  1  0  0  0  0
 18 17  2  0  0  0  0
 18 19  1  0  0  0  0
 19 14  2  0  0  0  0
 22 25  1  0  0  0  0
 23 22  1  0  0  0  0
 24 22  1  0  0  0  0
 26 28  1  0  0  0  0
 28 27  2  1  0  0  0
 28 29  1  0  0  0  0
 30 29  1  0  0  0  0
 31 28  1  0  0  0  0
 31 32  1  0  0  0  0
 32 34  1  0  0  0  0
 32 33  1  0  0  0  0
 35 36  1  0  0  0  0
 35 32  1  0  0  0  0
 35 40  1  0  0  0  0
 37 35  1  0  0  0  0
 38 39  2  0  0  0  0
 39 41  1  0  0  0  0
 39 40  1  0  0  0  0
 40 44  1  0  0  0  0
 41 45  1  0  0  0  0
 42 41  1  0  0  0  0
 43 38  1  0  0  0  0
M  END
>  <minimizedAffinity>
-6.3098979

$$$$

 OpenBabel03242513453D

 45 47  0  0  0  0  0  0  0  0999 V2000
   39.8880   30.6410   41.2660 C   0  0  0  0  0  0  0  0  0  0  0  0
   38.6060   30.2290   41.0030 C   0  0  0  0  0  0  0  0  0  0  0  0
   37.7210   31.1860   40.5920 C   0  0  0  0  0  0  0  0  0  0  0  0
   38.0380   32.5080   40.4320 C   0  0  0  0  0  0  0  0  0  0  0  0
   37.4120   33.6550   40.0560 N   0  0  0  0  0  0  0  0  0  0  0  0
   38.2870   34.7000   40.0960 C   0  0  0  0  0  0  0  0  0  0  0  0
   39.4600   34.1850   40.5010 N   0  0  0  0  0  0  0  0  0  0  0  0
   39.3320   32.8690   40.7080 C   0  0  0  0  0  0  0  0  0  0  0  0
   40.2800   31.9680   41.1260 C   0  0  0  0  0  0  0  0  0  0  0  0
   40.6250   29.9000   41.5980 H   0  0  0  0  0  0  0  0  0  0  0  0
   36.6900   30.8860   40.3740 H   0  0  0  0  0  0  0  0  0  0  0  0
   36.4040   33.6160   39.7950 H   0  0  0  0  0  0  0  0  0  0  0  0
   38.0180   35.7160   39.8380 H   0  0  0  0  0  0  0  0  0  0  0  0
   38.6280   26.7220   42.0230 C   0  0  0  0  0  0  0  0  0  0  0  0
   37.4720   26.2140   41.4220 C   0  0  0  0  0  0  0  0  0  0  0  0
   36.7010   27.1210   40.6630 C   0  0  0  0  0  0  0  0  0  0  0  0
   37.1010   28.4090   40.5520 N   0  0  0  0  0  0  0  0  0  0  0  0
   38.2230   28.8340   41.1560 C   0  0  0  0  0  0  0  0  0  0  0  0
   38.9930   28.0160   41.8880 N   0  0  0  0  0  0  0  0  0  0  0  0
   39.2240   26.0190   42.6110 H   0  0  0  0  0  0  0  0  0  0  0  0
   35.8020   26.7300   40.1960 H   0  0  0  0  0  0  0  0  0  0  0  0
   37.1270   24.7820   41.6080 C   0  0  0  0  0  0  0  0  0  0  0  0
   36.4220   24.4500   40.4590 F   0  0  0  0  0  0  0  0  0  0  0  0
   36.3160   24.6790   42.6820 F   0  0  0  0  0  0  0  0  0  0  0  0
   38.2980   24.0570   41.7480 F   0  0  0  0  0  0  0  0  0  0  0  0
   41.5710   32.3960   41.3870 O   0  0  0  0  0  0  0  0  0  0  0  0
   42.5470   30.6640   39.7240 O   0  0  0  0  0  0  0  0  0  0  0  0
   42.9540   31.8560   40.5860 P   0  0  2  0  0  0  0  0  0  0  0  0
   44.0120   31.2460   41.7760 O   0  0  0  0  0  0  0  0  0  0  0  0
   44.3300   32.0440   42.2720 H   0  0  0  0  0  0  0  0  0  0  0  0
   43.7180   33.0230   39.6630 O   0  0  0  0  0  0  0  0  0  0  0  0
   42.8740   33.9700   39.1350 C   0  0  0  0  0  0  0  0  0  0  0  0
   41.9720   34.0530   39.7730 H   0  0  0  0  0  0  0  0  0  0  0  0
   43.3550   34.9480   39.0830 H   0  0  0  0  0  0  0  0  0  0  0  0
   42.4700   33.4670   37.7400 C   0  0  0  0  0  0  0  0  0  0  0  0
   42.8540   34.1250   36.9480 H   0  0  0  0  0  0  0  0  0  0  0  0
   42.8960   32.4410   37.6020 H   0  0  0  0  0  0  0  0  0  0  0  0
   40.9220   31.0570   37.3550 N   0  0  0  0  0  0  0  0  0  0  0  0
   40.4220   32.2350   37.2640 C   0  0  0  0  0  0  0  0  0  0  0  0
   41.0220   33.4340   37.7160 N   0  0  0  0  0  0  0  0  0  0  0  0
   39.1290   32.2010   36.6250 N   0  0  0  0  0  0  0  0  0  0  0  0
   38.9000   32.1000   35.6060 H   0  0  0  0  0  0  0  0  0  0  0  0
   41.8550   30.9420   37.7960 H   0  0  0  0  0  0  0  0  0  0  0  0
   40.3640   34.1930   37.9950 H   0  0  0  0  0  0  0  0  0  0  0  0
   38.1040   32.2530   36.8810 H   0  0  0  0  0  0  0  0  0  0  0  0
  1 10  1  0  0  0  0
  2 18  1  0  0  0  0
  2  1  2  0  0  0  0
  3  2  1  0  0  0  0
  4  3  2  0  0  0  0
  4  8  1  0  0  0  0
  5  6  1  0  0  0  0
  5  4  1  0  0  0  0
  6  7  2  0  0  0  0
  7  8  1  0  0  0  0
  8  9  2  0  0  0  0
  9  1  1  0  0  0  0
  9 26  1  0  0  0  0
 11  3  1  0  0  0  0
 12  5  1  0  0  0  0
 13  6  1  0  0  0  0
 14 20  1  0  0  0  0
 15 22  1  0  0  0  0
 15 14  2  0  0  0  0
 16 15  1  0  0  0  0
 17 16  2  0  0  0  0
 17 18  1  0  0  0  0
 18 19  2  0  0  0  0
 19 14  1  0  0  0  0
 21 16  1  0  0  0  0
 22 25  1  0  0  0  0
 22 24  1  0  0  0  0
 23 22  1  0  0  0  0
 28 27  2  6  0  0  0
 28 26  1  0  0  0  0
 28 29  1  0  0  0  0
 29 30  1  0  0  0  0
 31 28  1  0  0  0  0
 32 31  1  0  0  0  0
 32 33  1  0  0  0  0
 34 32  1  0  0  0  0
 35 32  1  0  0  0  0
 36 35  1  0  0  0  0
 37 35  1  0  0  0  0
 38 43  1  0  0  0  0
 39 38  2  0  0  0  0
 39 40  1  0  0  0  0
 40 35  1  0  0  0  0
 40 44  1  0  0  0  0
 41 45  1  0  0  0  0
 41 39  1  0  0  0  0
 42 41  1  0  0  0  0
M  END
>  <minimizedAffinity>
-6.24441671

$$$$

 OpenBabel03242513453D

 45 47  0  0  0  0  0  0  0  0999 V2000
   38.7380   30.8900   40.2450 C   0  0  0  0  0  0  0  0  0  0  0  0
   37.6520   31.0530   39.4220 C   0  0  0  0  0  0  0  0  0  0  0  0
   37.2890   32.3370   39.1240 C   0  0  0  0  0  0  0  0  0  0  0  0
   37.9370   33.4470   39.5940 C   0  0  0  0  0  0  0  0  0  0  0  0
   37.8260   34.7980   39.4870 N   0  0  0  0  0  0  0  0  0  0  0  0
   38.8040   35.4070   40.2170 C   0  0  0  0  0  0  0  0  0  0  0  0
   39.5200   34.4170   40.7760 N   0  0  0  0  0  0  0  0  0  0  0  0
   39.0160   33.2310   40.4140 C   0  0  0  0  0  0  0  0  0  0  0  0
   39.4440   31.9730   40.7600 C   0  0  0  0  0  0  0  0  0  0  0  0
   39.0580   29.8740   40.5060 H   0  0  0  0  0  0  0  0  0  0  0  0
   36.4260   32.4980   38.4690 H   0  0  0  0  0  0  0  0  0  0  0  0
   37.0620   35.1950   38.9010 H   0  0  0  0  0  0  0  0  0  0  0  0
   38.9190   36.4810   40.2850 H   0  0  0  0  0  0  0  0  0  0  0  0
   35.6190   28.9360   37.2500 C   0  0  0  0  0  0  0  0  0  0  0  0
   35.5920   27.7180   37.9370 C   0  0  0  0  0  0  0  0  0  0  0  0
   36.2940   27.6640   39.1600 C   0  0  0  0  0  0  0  0  0  0  0  0
   36.9470   28.7620   39.6050 N   0  0  0  0  0  0  0  0  0  0  0  0
   36.9340   29.9030   38.8960 C   0  0  0  0  0  0  0  0  0  0  0  0
   36.2830   30.0100   37.7280 N   0  0  0  0  0  0  0  0  0  0  0  0
   35.0750   28.9750   36.3020 H   0  0  0  0  0  0  0  0  0  0  0  0
   36.2750   26.7200   39.6960 H   0  0  0  0  0  0  0  0  0  0  0  0
   34.8420   26.5750   37.3570 C   0  0  0  0  0  0  0  0  0  0  0  0
   35.1330   25.5120   38.2040 F   0  0  0  0  0  0  0  0  0  0  0  0
   35.3400   26.3230   36.1280 F   0  0  0  0  0  0  0  0  0  0  0  0
   33.4950   26.8910   37.3360 F   0  0  0  0  0  0  0  0  0  0  0  0
   40.5410   31.8220   41.5910 O   0  0  0  0  0  0  0  0  0  0  0  0
   43.0490   31.1780   41.7100 O   0  0  0  0  0  0  0  0  0  0  0  0
   42.1190   32.2800   41.2090 P   0  0  2  0  0  0  0  0  0  0  0  0
   42.4740   33.6640   42.1380 O   0  0  0  0  0  0  0  0  0  0  0  0
   41.9220   34.3880   41.7450 H   0  0  0  0  0  0  0  0  0  0  0  0
   42.3770   32.5820   39.5840 O   0  0  0  0  0  0  0  0  0  0  0  0
   42.2630   31.4750   38.7780 C   0  0  0  0  0  0  0  0  0  0  0  0
   43.2650   31.0300   38.6220 H   0  0  0  0  0  0  0  0  0  0  0  0
   41.6130   30.7220   39.2250 H   0  0  0  0  0  0  0  0  0  0  0  0
   41.7080   31.9690   37.4320 C   0  0  0  0  0  0  0  0  0  0  0  0
   42.4730   31.9350   36.6440 H   0  0  0  0  0  0  0  0  0  0  0  0
   40.8540   31.3050   37.1420 H   0  0  0  0  0  0  0  0  0  0  0  0
   43.2910   34.3040   36.8070 N   0  0  0  0  0  0  0  0  0  0  0  0
   42.2340   34.3460   37.5330 C   0  0  0  0  0  0  0  0  0  0  0  0
   41.2570   33.3280   37.6440 N   0  0  0  0  0  0  0  0  0  0  0  0
   42.1490   35.5940   38.2510 N   0  0  0  0  0  0  0  0  0  0  0  0
   42.6680   35.8960   39.1120 H   0  0  0  0  0  0  0  0  0  0  0  0
   43.4740   33.4560   36.2360 H   0  0  0  0  0  0  0  0  0  0  0  0
   40.2920   33.6500   37.8710 H   0  0  0  0  0  0  0  0  0  0  0  0
   41.6310   36.5150   38.2040 H   0  0  0  0  0  0  0  0  0  0  0  0
  1 10  1  0  0  0  0
  1  9  1  0  0  0  0
  2  1  2  0  0  0  0
  3  2  1  0  0  0  0
  3  4  2  0  0  0  0
  4  8  1  0  0  0  0
  5  4  1  0  0  0  0
  5  6  1  0  0  0  0
  6 13  1  0  0  0  0
  6  7  2  0  0  0  0
  8  9  2  0  0  0  0
  8  7  1  0  0  0  0
  9 26  1  0  0  0  0
 11  3  1  0  0  0  0
 12  5  1  0  0  0  0
 14 19  2  0  0  0  0
 14 15  1  0  0  0  0
 15 16  2  0  0  0  0
 16 17  1  0  0  0  0
 16 21  1  0  0  0  0
 18  2  1  0  0  0  0
 18 17  2  0  0  0  0
 19 18  1  0  0  0  0
 20 14  1  0  0  0  0
 22 15  1  0  0  0  0
 22 23  1  0  0  0  0
 24 22  1  0  0  0  0
 25 22  1  0  0  0  0
 28 26  1  0  0  0  0
 28 27  2  1  0  0  0
 28 29  1  0  0  0  0
 30 29  1  0  0  0  0
 31 28  1  0  0  0  0
 32 34  1  0  0  0  0
 32 31  1  0  0  0  0
 33 32  1  0  0  0  0
 35 40  1  0  0  0  0
 35 32  1  0  0  0  0
 36 35  1  0  0  0  0
 37 35  1  0  0  0  0
 38 39  2  0  0  0  0
 39 40  1  0  0  0  0
 39 41  1  0  0  0  0
 40 44  1  0  0  0  0
 41 42  1  0  0  0  0
 43 38  1  0  0  0  0
 45 41  1  0  0  0  0
M  END
>  <minimizedAffinity>
-6.20590973

$$$$

 OpenBabel03242513453D

 45 47  0  0  0  0  0  0  0  0999 V2000
   36.5440   26.7070   37.6710 C   0  0  0  0  0  0  0  0  0  0  0  0
   36.3160   25.9170   38.7690 C   0  0  0  0  0  0  0  0  0  0  0  0
   35.8240   24.6630   38.5380 C   0  0  0  0  0  0  0  0  0  0  0  0
   35.5530   24.1610   37.2930 C   0  0  0  0  0  0  0  0  0  0  0  0
   35.0780   23.0060   36.7550 N   0  0  0  0  0  0  0  0  0  0  0  0
   35.0290   23.1090   35.3960 C   0  0  0  0  0  0  0  0  0  0  0  0
   35.4780   24.3420   35.1020 N   0  0  0  0  0  0  0  0  0  0  0  0
   35.7980   24.9890   36.2280 C   0  0  0  0  0  0  0  0  0  0  0  0
   36.2910   26.2620   36.3760 C   0  0  0  0  0  0  0  0  0  0  0  0
   36.9380   27.7200   37.8180 H   0  0  0  0  0  0  0  0  0  0  0  0
   35.6320   24.0090   39.3960 H   0  0  0  0  0  0  0  0  0  0  0  0
   34.8230   22.2220   37.3920 H   0  0  0  0  0  0  0  0  0  0  0  0
   34.6840   22.3140   34.7480 H   0  0  0  0  0  0  0  0  0  0  0  0
   36.6570   28.1460   41.6420 C   0  0  0  0  0  0  0  0  0  0  0  0
   37.1210   27.2910   42.6470 C   0  0  0  0  0  0  0  0  0  0  0  0
   37.3070   25.9380   42.2930 C   0  0  0  0  0  0  0  0  0  0  0  0
   37.0350   25.5340   41.0310 N   0  0  0  0  0  0  0  0  0  0  0  0
   36.5910   26.4060   40.1110 C   0  0  0  0  0  0  0  0  0  0  0  0
   36.3970   27.7030   40.3920 N   0  0  0  0  0  0  0  0  0  0  0  0
   36.5120   29.1940   41.9180 H   0  0  0  0  0  0  0  0  0  0  0  0
   37.6670   25.2720   43.0710 H   0  0  0  0  0  0  0  0  0  0  0  0
   37.3890   27.8420   44.0000 C   0  0  0  0  0  0  0  0  0  0  0  0
   36.2030   27.6340   44.6930 F   0  0  0  0  0  0  0  0  0  0  0  0
   37.6160   29.1680   43.8790 F   0  0  0  0  0  0  0  0  0  0  0  0
   38.4600   27.1620   44.5530 F   0  0  0  0  0  0  0  0  0  0  0  0
   36.5190   27.0490   35.2600 O   0  0  0  0  0  0  0  0  0  0  0  0
   35.1070   29.2190   35.4030 O   0  0  0  0  0  0  0  0  0  0  0  0
   36.5480   28.7360   35.2510 P   0  0  2  0  0  0  0  0  0  0  0  0
   37.0510   29.2160   33.6940 O   0  0  0  0  0  0  0  0  0  0  0  0
   38.0100   28.9690   33.6450 H   0  0  0  0  0  0  0  0  0  0  0  0
   37.5290   29.4170   36.4210 O   0  0  0  0  0  0  0  0  0  0  0  0
   36.8970   30.3330   37.2270 C   0  0  0  0  0  0  0  0  0  0  0  0
   36.7940   31.2920   36.6820 H   0  0  0  0  0  0  0  0  0  0  0  0
   35.9030   29.9890   37.5160 H   0  0  0  0  0  0  0  0  0  0  0  0
   37.8010   30.5360   38.4530 C   0  0  0  0  0  0  0  0  0  0  0  0
   37.3170   30.1840   39.3740 H   0  0  0  0  0  0  0  0  0  0  0  0
   38.7450   29.9560   38.2910 H   0  0  0  0  0  0  0  0  0  0  0  0
   36.7070   32.2720   40.4880 N   0  0  0  0  0  0  0  0  0  0  0  0
   37.2690   32.7080   39.4200 C   0  0  0  0  0  0  0  0  0  0  0  0
   38.0750   31.9560   38.5340 N   0  0  0  0  0  0  0  0  0  0  0  0
   36.9770   34.1060   39.2160 N   0  0  0  0  0  0  0  0  0  0  0  0
   36.0980   34.5500   38.8520 H   0  0  0  0  0  0  0  0  0  0  0  0
   36.8370   31.2760   40.7510 H   0  0  0  0  0  0  0  0  0  0  0  0
   38.8000   32.4940   38.0140 H   0  0  0  0  0  0  0  0  0  0  0  0
   37.4410   35.0500   39.3310 H   0  0  0  0  0  0  0  0  0  0  0  0
  1 10  1  0  0  0  0
  1  2  1  0  0  0  0
  2 18  1  0  0  0  0
  3  2  2  0  0  0  0
  3 11  1  0  0  0  0
  4  3  1  0  0  0  0
  5  4  1  0  0  0  0
  5 12  1  0  0  0  0
  6  5  1  0  0  0  0
  7  6  2  0  0  0  0
  7  8  1  0  0  0  0
  8  9  1  0  0  0  0
  8  4  2  0  0  0  0
  9  1  2  0  0  0  0
 13  6  1  0  0  0  0
 14 20  1  0  0  0  0
 14 15  1  0  0  0  0
 15 22  1  0  0  0  0
 16 15  2  0  0  0  0
 16 21  1  0  0  0  0
 17 16  1  0  0  0  0
 18 19  1  0  0  0  0
 18 17  2  0  0  0  0
 19 14  2  0  0  0  0
 22 25  1  0  0  0  0
 22 23  1  0  0  0  0
 24 22  1  0  0  0  0
 26  9  1  0  0  0  0
 28 26  1  0  0  0  0
 28 27  2  1  0  0  0
 28 31  1  0  0  0  0
 29 28  1  0  0  0  0
 30 29  1  0  0  0  0
 31 32  1  0  0  0  0
 32 34  1  0  0  0  0
 32 35  1  0  0  0  0
 33 32  1  0  0  0  0
 35 40  1  0  0  0  0
 35 36  1  0  0  0  0
 37 35  1  0  0  0  0
 38 43  1  0  0  0  0
 39 38  2  0  0  0  0
 40 39  1  0  0  0  0
 41 45  1  0  0  0  0
 41 39  1  0  0  0  0
 42 41  1  0  0  0  0
 44 40  1  0  0  0  0
M  END
>  <minimizedAffinity>
-6.14740038

$$$$
