
     RDKit          3D

 37 39  0  0  0  0  0  0  0  0999 V2000
   42.3200   35.5400   41.3106 S   0  0  0  0  0  0  0  0  0  0  0  0
   39.9691   34.8797   40.2298 C   0  0  0  0  0  0  0  0  0  0  0  0
   40.9850   34.3875   41.0615 C   0  0  0  0  0  0  0  0  0  0  0  0
   40.9194   33.1094   41.6005 C   0  0  0  0  0  0  0  0  0  0  0  0
   39.8528   32.2951   41.3279 C   0  0  0  0  0  0  0  0  0  0  0  0
   38.8307   32.7703   40.5001 C   0  0  0  0  0  0  0  0  0  0  0  0
   38.8743   34.0448   39.9506 C   0  0  0  0  0  0  0  0  0  0  0  0
   37.8663   31.7392   40.3872 O   0  0  0  0  0  0  0  0  0  0  0  0
   38.1488   30.8312   41.3980 C   0  0  0  0  0  0  0  0  0  0  0  0
   39.5144   31.0048   41.7057 O   0  0  0  0  0  0  0  0  0  0  0  0
   43.9110   34.7659   40.9161 C   0  0  0  0  0  0  0  0  0  0  0  0
   43.8627   33.8354   39.9380 C   0  0  0  0  0  0  0  0  0  0  0  0
   45.0770   33.2003   39.6037 C   0  0  0  0  0  0  0  0  0  0  0  0
   46.2157   33.5375   40.2544 N   0  0  0  0  0  0  0  0  0  0  0  0
   46.2128   34.4720   41.2207 C   0  0  0  0  0  0  0  0  0  0  0  0
   45.0544   35.0455   41.5085 N   0  0  0  0  0  0  0  0  0  0  0  0
   45.1559   32.1870   38.6016 N   0  0  0  0  0  0  0  0  0  0  0  0
   47.3058   34.8940   41.9441 O   0  0  0  0  0  0  0  0  0  0  0  0
   48.5117   35.1044   41.2445 C   0  0  0  0  0  0  0  0  0  0  0  0
   49.4102   34.0852   41.4448 F   0  0  0  0  0  0  0  0  0  0  0  0
   48.1638   35.2422   39.8893 F   0  0  0  0  0  0  0  0  0  0  0  0
   49.0694   36.2845   41.7091 F   0  0  0  0  0  0  0  0  0  0  0  0
   39.9715   35.8629   39.7871 H   0  0  0  0  0  0  0  0  0  0  0  0
   41.7310   32.8115   42.2232 H   0  0  0  0  0  0  0  0  0  0  0  0
   38.0952   34.4316   39.3089 H   0  0  0  0  0  0  0  0  0  0  0  0
   37.5870   31.1668   42.3160 H   0  0  0  0  0  0  0  0  0  0  0  0
   37.8807   29.7884   41.1512 H   0  0  0  0  0  0  0  0  0  0  0  0
   45.2191   32.5722   37.6230 H   0  0  0  0  0  0  0  0  0  0  0  0
   45.1468   31.1760   38.8835 H   0  0  0  0  0  0  0  0  0  0  0  0
   43.9264   34.3793   37.2865 N   0  0  0  0  0  0  0  0  0  0  0  0
   42.8293   33.9145   37.7999 C   0  0  0  0  0  0  0  0  0  0  0  0
   42.8203   33.3489   39.1350 N   0  0  0  0  0  0  0  0  0  0  0  0
   41.6197   33.9722   37.0155 N   0  0  0  0  0  0  0  0  0  0  0  0
   41.1442   33.0441   36.9702 H   0  0  0  0  0  0  0  0  0  0  0  0
   43.9122   34.7778   36.3349 H   0  0  0  0  0  0  0  0  0  0  0  0
   42.0352   32.6725   39.2285 H   0  0  0  0  0  0  0  0  0  0  0  0
   41.2675   34.8411   36.5515 H   0  0  0  0  0  0  0  0  0  0  0  0
  2  3  2  0
  3  1  1  0
  3  4  1  0
  5  4  2  0
  5 10  1  0
  6  5  1  0
  7  2  1  0
  7  6  2  0
  8  6  1  0
  8  9  1  0
  9 10  1  0
 11  1  1  0
 11 16  1  0
 12 11  2  0
 13 12  1  0
 13 14  2  0
 14 15  1  0
 15 16  2  0
 15 18  1  0
 17 13  1  0
 19 20  1  0
 19 22  1  0
 19 18  1  0
 21 19  1  0
  2 23  1  0
  4 24  1  0
  7 25  1  0
  9 26  1  0
  9 27  1  0
 17 28  1  0
 17 29  1  0
 30 31  2  3
 31 32  1  0
 31 33  1  0
 33 34  1  0
 30 35  1  0
 32 36  1  0
 33 37  1  0
 12 32  1  0
M  ISO  6  23  14  24  14  25  14  26  13  27  13  34   5
M  END
>  <DihAtoms>  (1) 
10,11,31,30

>  <DihDeg>  (1) 
86.48016523909291

$$$$
