
 OpenBabel03242513433D

 45 47  0  0  0  0  0  0  0  0999 V2000
   47.7420   31.0390   45.9450 C   0  0  0  0  0  0  0  0  0  0  0  0
   46.9910   32.0640   45.4270 C   0  0  0  0  0  0  0  0  0  0  0  0
   45.9540   32.5190   46.1920 C   0  0  0  0  0  0  0  0  0  0  0  0
   45.6310   32.0180   47.4240 C   0  0  0  0  0  0  0  0  0  0  0  0
   44.7010   32.2440   48.3910 N   0  0  0  0  0  0  0  0  0  0  0  0
   44.8950   31.3890   49.4350 C   0  0  0  0  0  0  0  0  0  0  0  0
   45.9550   30.6320   49.1020 N   0  0  0  0  0  0  0  0  0  0  0  0
   46.4120   30.9950   47.8980 C   0  0  0  0  0  0  0  0  0  0  0  0
   47.4710   30.4820   47.1910 C   0  0  0  0  0  0  0  0  0  0  0  0
   48.5830   30.6480   45.3580 H   0  0  0  0  0  0  0  0  0  0  0  0
   45.3370   33.3370   45.8040 H   0  0  0  0  0  0  0  0  0  0  0  0
   43.9920   32.9930   48.2410 H   0  0  0  0  0  0  0  0  0  0  0  0
   44.2770   31.3800   50.3230 H   0  0  0  0  0  0  0  0  0  0  0  0
   47.2860   34.4280   42.6590 C   0  0  0  0  0  0  0  0  0  0  0  0
   47.8900   33.6620   41.6570 C   0  0  0  0  0  0  0  0  0  0  0  0
   48.1850   32.3190   41.9750 C   0  0  0  0  0  0  0  0  0  0  0  0
   47.8790   31.8410   43.2040 N   0  0  0  0  0  0  0  0  0  0  0  0
   47.2980   32.6300   44.1230 C   0  0  0  0  0  0  0  0  0  0  0  0
   46.9960   33.9130   43.8740 N   0  0  0  0  0  0  0  0  0  0  0  0
   47.0600   35.4680   42.4110 H   0  0  0  0  0  0  0  0  0  0  0  0
   48.6540   31.7220   41.1990 H   0  0  0  0  0  0  0  0  0  0  0  0
   48.1810   34.2880   40.3420 C   0  0  0  0  0  0  0  0  0  0  0  0
   48.7240   35.5240   40.6660 F   0  0  0  0  0  0  0  0  0  0  0  0
   47.0110   34.4650   39.6900 F   0  0  0  0  0  0  0  0  0  0  0  0
   49.0640   33.4780   39.6490 F   0  0  0  0  0  0  0  0  0  0  0  0
   48.2220   29.4480   47.7250 O   0  0  0  0  0  0  0  0  0  0  0  0
   49.8450   28.2300   49.3370 O   0  0  0  0  0  0  0  0  0  0  0  0
   49.4370   29.6280   48.8810 P   0  0  2  0  0  0  0  0  0  0  0  0
   48.7280   30.3850   50.2340 O   0  0  0  0  0  0  0  0  0  0  0  0
   48.5470   31.3160   49.9430 H   0  0  0  0  0  0  0  0  0  0  0  0
   50.7690   30.4930   48.3550 O   0  0  0  0  0  0  0  0  0  0  0  0
   51.7350   30.6830   49.3140 C   0  0  0  0  0  0  0  0  0  0  0  0
   51.4820   30.0870   50.2120 H   0  0  0  0  0  0  0  0  0  0  0  0
   52.7180   30.3740   48.9560 H   0  0  0  0  0  0  0  0  0  0  0  0
   51.7110   32.1780   49.6690 C   0  0  0  0  0  0  0  0  0  0  0  0
   52.7250   32.5740   49.8180 H   0  0  0  0  0  0  0  0  0  0  0  0
   51.2230   32.7300   48.8250 H   0  0  0  0  0  0  0  0  0  0  0  0
   52.7210   33.3440   52.1130 N   0  0  0  0  0  0  0  0  0  0  0  0
   51.6420   32.6530   52.0580 C   0  0  0  0  0  0  0  0  0  0  0  0
   50.9340   32.3020   50.8850 N   0  0  0  0  0  0  0  0  0  0  0  0
   51.2140   32.2580   53.3780 N   0  0  0  0  0  0  0  0  0  0  0  0
   51.5900   31.4940   53.9910 H   0  0  0  0  0  0  0  0  0  0  0  0
   53.1380   33.6920   51.2270 H   0  0  0  0  0  0  0  0  0  0  0  0
   49.9080   32.1620   51.0000 H   0  0  0  0  0  0  0  0  0  0  0  0
   50.4940   32.5280   54.1040 H   0  0  0  0  0  0  0  0  0  0  0  0
  1  9  1  0  0  0  0
  2  1  2  0  0  0  0
  2  3  1  0  0  0  0
  3  4  2  0  0  0  0
  4  8  1  0  0  0  0
  4  5  1  0  0  0  0
  5  6  1  0  0  0  0
  6 13  1  0  0  0  0
  7  6  2  0  0  0  0
  8  7  1  0  0  0  0
  9 26  1  0  0  0  0
  9  8  2  0  0  0  0
 10  1  1  0  0  0  0
 11  3  1  0  0  0  0
 12  5  1  0  0  0  0
 14 19  1  0  0  0  0
 15 16  1  0  0  0  0
 15 14  2  0  0  0  0
 16 17  2  0  0  0  0
 17 18  1  0  0  0  0
 18  2  1  0  0  0  0
 19 18  2  0  0  0  0
 20 14  1  0  0  0  0
 21 16  1  0  0  0  0
 22 23  1  0  0  0  0
 22 15  1  0  0  0  0
 24 22  1  0  0  0  0
 25 22  1  0  0  0  0
 26 28  1  0  0  0  0
 28 27  2  1  0  0  0
 28 29  1  0  0  0  0
 30 29  1  0  0  0  0
 31 28  1  0  0  0  0
 31 32  1  0  0  0  0
 32 35  1  0  0  0  0
 32 33  1  0  0  0  0
 34 32  1  0  0  0  0
 35 36  1  0  0  0  0
 35 40  1  0  0  0  0
 37 35  1  0  0  0  0
 39 38  2  0  0  0  0
 39 41  1  0  0  0  0
 40 44  1  0  0  0  0
 40 39  1  0  0  0  0
 41 42  1  0  0  0  0
 41 45  1  0  0  0  0
 43 38  1  0  0  0  0
M  END
>  <minimizedAffinity>
-6.0228281

>  <minimizedRMSD>
1.22062182

$$$$
