REMARK  Name = 
REMARK  6 active torsions:
REMARK  status: ('A' for Active; 'I' for Inactive)
REMARK    1  A    between atoms: C_1  and  C_3
REMARK    2  A    between atoms: C_1  and  C_11
REMARK    3  A    between atoms: C_2  and  S_8
REMARK    4  A    between atoms: C_11  and  C_13
REMARK    5  A    between atoms: C_16  and  C_18
REMARK    6  A    between atoms: C_18  and  N_34
REMARK                            x       y       z     vdW  Elec       q    Type
REMARK                         _______ _______ _______ _____ _____    ______ ____
ROOT
ATOM      1  C   UNL     1      46.230  31.670  45.683  0.00  0.00    +0.000 C 
ATOM      2  H   UNL     1      46.167  30.754  45.023  0.00  0.00    +0.000 HD
ATOM      3  H   UNL     1      45.197  31.930  45.904  0.00  0.00    +0.000 HD
ENDROOT
BRANCH   1   5
ATOM      4  C   UNL     1      47.401  32.255  47.804  0.00  0.00    +0.000 A 
ATOM      5  C   UNL     1      47.067  31.285  46.823  0.00  0.00    +0.000 A 
ATOM      6  C   UNL     1      47.571  30.005  47.009  0.00  0.00    +0.000 A 
ATOM      7  N   UNL     1      48.342  29.751  48.099  0.00  0.00    +0.000 NA
ATOM      8  C   UNL     1      48.629  30.693  48.995  0.00  0.00    +0.000 A 
ATOM      9  N   UNL     1      48.171  31.932  48.860  0.00  0.00    +0.000 NA
ATOM     10  H   UNL     1      47.055  33.280  47.747  0.00  0.00    +0.000 HD
ATOM     11  H   UNL     1      47.324  29.273  46.277  0.00  0.00    +0.000 HD
BRANCH   8  12
ATOM     12  C   UNL     1      49.486  30.323  50.164  0.00  0.00    +0.000 C 
ATOM     13  H   UNL     1      49.178  30.985  50.998  0.00  0.00    +0.000 HD
ATOM     14  H   UNL     1      49.341  29.270  50.456  0.00  0.00    +0.000 HD
BRANCH  12  17
ATOM     15  N   UNL     1      49.920  31.492  47.595  0.00  0.00    +0.000 NA
ATOM     16  C   UNL     1      50.819  31.058  48.400  0.00  0.00    +0.000 C 
ATOM     17  N   UNL     1      50.871  30.569  49.746  0.00  0.00    +0.000 N 
ATOM     18  N   UNL     1      51.866  31.230  47.440  0.00  0.00    +0.000 N 
ATOM     19  H   UNL     1      52.170  30.475  46.760  0.00  0.00    +0.000 HD
ATOM     20  H   UNL     1      48.916  31.592  47.771  0.00  0.00    +0.000 HD
ATOM     21  H   UNL     1      51.841  30.512  50.079  0.00  0.00    +0.000 HD
ATOM     22  H   UNL     1      52.448  32.084  47.284  0.00  0.00    +0.000 HD
ENDBRANCH  12  17
ENDBRANCH   8  12
ENDBRANCH   1   5
BRANCH   1  23
ATOM     23  C   UNL     1      46.998  32.692  44.882  0.00  0.00    +0.000 C 
ATOM     24  H   UNL     1      47.900  33.070  45.448  0.00  0.00    +0.000 HD
ATOM     25  H   UNL     1      47.472  32.245  43.959  0.00  0.00    +0.000 HD
BRANCH  23  27
ATOM     26  C   UNL     1      46.502  34.509  43.301  0.00  0.00    +0.000 A 
ATOM     27  C   UNL     1      46.238  33.885  44.511  0.00  0.00    +0.000 A 
ATOM     28  C   UNL     1      45.293  34.333  45.385  0.00  0.00    +0.000 A 
ATOM     29  C   UNL     1      44.565  35.454  45.055  0.00  0.00    +0.000 A 
ATOM     30  C   UNL     1      44.764  36.128  43.882  0.00  0.00    +0.000 A 
ATOM     31  C   UNL     1      45.744  35.617  43.036  0.00  0.00    +0.000 A 
ATOM     32  H   UNL     1      45.035  33.906  46.333  0.00  0.00    +0.000 HD
ATOM     33  H   UNL     1      43.791  35.868  45.710  0.00  0.00    +0.000 HD
ATOM     34  H   UNL     1      44.212  37.017  43.582  0.00  0.00    +0.000 HD
ATOM     35  H   UNL     1      45.908  36.142  42.106  0.00  0.00    +0.000 HD
BRANCH  26  36
ATOM     36  S   UNL     1      47.700  33.970  42.161  0.00  0.00    +0.000 S 
ATOM     37  O   UNL     1      49.103  34.441  42.522  0.00  0.00    +0.000 OA
ATOM     38  O   UNL     1      47.428  34.629  40.817  0.00  0.00    +0.000 OA
ATOM     39  H   UNL     1      47.673  32.612  41.958  0.00  0.00    +0.000 HD
ENDBRANCH  26  36
ENDBRANCH  23  27
ENDBRANCH   1  23
TORSDOF 6
