
 OpenBabel03252500203D

 21 21  0  0  0  0  0  0  0  0999 V2000
   44.4580   35.7200   44.8620 C   0  0  0  0  0  0  0  0  0  0  0  0
   44.9310   35.0300   43.7610 C   0  0  0  0  0  0  0  0  0  0  0  0
   45.5090   33.7690   44.0120 C   0  0  0  0  0  0  0  0  0  0  0  0
   45.5720   33.3080   45.2810 N   0  0  0  0  0  0  0  0  0  0  0  0
   45.0900   34.0350   46.3000 C   0  0  0  0  0  0  0  0  0  0  0  0
   44.5340   35.2380   46.0940 N   0  0  0  0  0  0  0  0  0  0  0  0
   45.1450   33.5760   47.6340 N   0  0  0  0  0  0  0  0  0  0  0  0
   43.9980   36.6880   44.7400 H   0  0  0  0  0  0  0  0  0  0  0  0
   46.0000   33.8720   48.1570 H   0  0  0  0  0  0  0  0  0  0  0  0
   44.5030   33.0020   48.2060 H   0  0  0  0  0  0  0  0  0  0  0  0
   42.5790   35.5690   42.1400 N   0  0  0  0  0  0  0  0  0  0  0  0
   43.7300   35.3350   41.5510 C   0  0  0  0  0  0  0  0  0  0  0  0
   44.8550   35.5170   42.4280 N   0  0  0  0  0  0  0  0  0  0  0  0
   44.0110   34.9360   40.1940 N   0  0  0  0  0  0  0  0  0  0  0  0
   43.8490   34.0810   39.6130 H   0  0  0  0  0  0  0  0  0  0  0  0
   41.7200   35.4640   41.5930 H   0  0  0  0  0  0  0  0  0  0  0  0
   45.6950   36.0510   42.0560 H   0  0  0  0  0  0  0  0  0  0  0  0
   44.4960   35.7720   39.7710 H   0  0  0  0  0  0  0  0  0  0  0  0
   46.0070   33.0330   42.8930 N   0  0  0  0  0  0  0  0  0  0  0  0
   46.6450   33.4870   42.1930 H   0  0  0  0  0  0  0  0  0  0  0  0
   45.7270   32.0320   42.7800 H   0  0  0  0  0  0  0  0  0  0  0  0
  1  6  1  0  0  0  0
  2  3  1  0  0  0  0
  2  1  2  0  0  0  0
  3  4  2  0  0  0  0
  4  5  1  0  0  0  0
  5  7  1  0  0  0  0
  6  5  2  0  0  0  0
  7  9  1  0  0  0  0
  7 10  1  0  0  0  0
  8  1  1  0  0  0  0
 12 11  2  0  0  0  0
 12 13  1  0  0  0  0
 13  2  1  0  0  0  0
 14 12  1  0  0  0  0
 15 14  1  0  0  0  0
 16 11  1  0  0  0  0
 17 13  1  0  0  0  0
 18 14  1  0  0  0  0
 19  3  1  0  0  0  0
 20 19  1  0  0  0  0
 21 19  1  0  0  0  0
M  END
>  <minimizedAffinity>
-4.56569195

>  <minimizedRMSD>
1.51945961

$$$$
