
     RDKit          3D

 39 40  0  0  0  0  0  0  0  0999 V2000
   46.9980   32.6921   44.8815 C   0  0  0  0  0  0  0  0  0  0  0  0
   46.5025   34.5090   43.3006 C   0  0  0  0  0  0  0  0  0  0  0  0
   46.2377   33.8853   44.5111 C   0  0  0  0  0  0  0  0  0  0  0  0
   45.2926   34.3325   45.3853 C   0  0  0  0  0  0  0  0  0  0  0  0
   44.5651   35.4543   45.0553 C   0  0  0  0  0  0  0  0  0  0  0  0
   44.7637   36.1278   43.8818 C   0  0  0  0  0  0  0  0  0  0  0  0
   45.7436   35.6171   43.0363 C   0  0  0  0  0  0  0  0  0  0  0  0
   47.6996   33.9702   42.1608 S   0  0  0  0  0  0  0  0  0  0  0  0
   49.1027   34.4410   42.5219 O   0  0  0  0  0  0  0  0  0  0  0  0
   47.4283   34.6291   40.8171 O   0  0  0  0  0  0  0  0  0  0  0  0
   46.2302   31.6700   45.6828 C   0  0  0  0  0  0  0  0  0  0  0  0
   47.4007   32.2545   47.8044 C   0  0  0  0  0  0  0  0  0  0  0  0
   47.0670   31.2848   46.8233 C   0  0  0  0  0  0  0  0  0  0  0  0
   47.5705   30.0046   47.0092 C   0  0  0  0  0  0  0  0  0  0  0  0
   48.3418   29.7511   48.0994 N   0  0  0  0  0  0  0  0  0  0  0  0
   48.6294   30.6930   48.9948 C   0  0  0  0  0  0  0  0  0  0  0  0
   48.1710   31.9318   48.8603 N   0  0  0  0  0  0  0  0  0  0  0  0
   49.4864   30.3226   50.1640 C   0  0  0  0  0  0  0  0  0  0  0  0
   47.9003   33.0701   45.4481 H   0  0  0  0  0  0  0  0  0  0  0  0
   47.4722   32.2452   43.9586 H   0  0  0  0  0  0  0  0  0  0  0  0
   45.0354   33.9064   46.3325 H   0  0  0  0  0  0  0  0  0  0  0  0
   43.7909   35.8679   45.7104 H   0  0  0  0  0  0  0  0  0  0  0  0
   44.2120   37.0168   43.5823 H   0  0  0  0  0  0  0  0  0  0  0  0
   45.9085   36.1423   42.1059 H   0  0  0  0  0  0  0  0  0  0  0  0
   47.6726   32.6121   41.9583 H   0  0  0  0  0  0  0  0  0  0  0  0
   46.1667   30.7544   45.0232 H   0  0  0  0  0  0  0  0  0  0  0  0
   45.1972   31.9301   45.9039 H   0  0  0  0  0  0  0  0  0  0  0  0
   47.0553   33.2804   47.7467 H   0  0  0  0  0  0  0  0  0  0  0  0
   47.3236   29.2727   46.2768 H   0  0  0  0  0  0  0  0  0  0  0  0
   49.1777   30.9849   50.9985 H   0  0  0  0  0  0  0  0  0  0  0  0
   49.3409   29.2703   50.4557 H   0  0  0  0  0  0  0  0  0  0  0  0
   51.4045   28.2523   50.6007 N   0  0  0  0  0  0  0  0  0  0  0  0
   51.6401   29.4335   50.1621 C   0  0  0  0  0  0  0  0  0  0  0  0
   50.8711   30.5689   49.7456 N   0  0  0  0  0  0  0  0  0  0  0  0
   53.0583   29.2527   50.2219 N   0  0  0  0  0  0  0  0  0  0  0  0
   53.6471   29.4956   51.0702 H   0  0  0  0  0  0  0  0  0  0  0  0
   50.4933   27.8155   50.7670 H   0  0  0  0  0  0  0  0  0  0  0  0
   51.4630   31.2594   49.2683 H   0  0  0  0  0  0  0  0  0  0  0  0
   53.6805   28.8734   49.4720 H   0  0  0  0  0  0  0  0  0  0  0  0
  1 11  1  0
  2  3  2  0
  3  1  1  0
  3  4  1  0
  5  4  2  0
  6  5  1  0
  7  2  1  0
  7  6  2  0
  8  9  2  0
  8  2  1  0
 10  8  2  0
 11 13  1  0
 12 17  2  0
 13 14  2  0
 13 12  1  0
 14 15  1  0
 15 16  2  0
 16 18  1  0
 17 16  1  0
  1 19  1  0
  1 20  1  0
  4 21  1  0
  5 22  1  0
  6 23  1  0
  7 24  1  0
  8 25  1  0
 11 26  1  0
 11 27  1  0
 12 28  1  0
 14 29  1  0
 18 30  1  0
 18 31  1  0
 32 33  2  3
 33 34  1  0
 33 35  1  0
 35 36  1  0
 32 37  1  0
 34 38  1  0
 35 39  1  0
 18 34  1  0
M  ISO  8  19   8  20   8  21  14  22  14  23  14  24  14  25  11  26   8
M  ISO  6  27   8  28  14  29  14  30   8  31   8  36   5
M  END
>  <DihAtoms>  (1) 
15,17,33,32

>  <DihDeg>  (1) 
179.9966395520093

$$$$
