
 OpenBabel03242518513D

 38 39  0  0  1  0  0  0  0  0999 V2000
   46.0030   31.8850   46.0460 C   0  0  2  0  0  0  0  0  0  0  0  0
   45.3540   30.7560   46.7500 C   0  0  0  0  0  0  0  0  0  0  0  0
   45.8650   29.4810   46.1390 C   0  0  0  0  0  0  0  0  0  0  0  0
   46.5770   29.6230   44.8460 C   0  0  0  0  0  0  0  0  0  0  0  0
   47.6350   30.6790   44.8390 C   0  0  0  0  0  0  0  0  0  0  0  0
   47.4190   31.7270   45.9660 C   0  0  2  0  0  0  0  0  0  0  0  0
   45.5840   31.7700   44.9720 H   0  0  0  0  0  0  0  0  0  0  0  0
   45.4420   30.6910   47.8310 H   0  0  0  0  0  0  0  0  0  0  0  0
   44.2360   30.9000   46.5840 H   0  0  0  0  0  0  0  0  0  0  0  0
   44.9050   28.9140   45.8700 H   0  0  0  0  0  0  0  0  0  0  0  0
   46.3260   28.7860   46.8740 H   0  0  0  0  0  0  0  0  0  0  0  0
   45.8130   29.9050   44.0610 H   0  0  0  0  0  0  0  0  0  0  0  0
   46.9460   28.6300   44.5510 H   0  0  0  0  0  0  0  0  0  0  0  0
   48.6140   30.1930   45.0200 H   0  0  0  0  0  0  0  0  0  0  0  0
   47.7050   31.2210   43.8750 H   0  0  0  0  0  0  0  0  0  0  0  0
   48.3050   32.2370   45.9810 H   0  0  0  0  0  0  0  0  0  0  0  0
   48.1510   32.7620   48.5440 N   0  0  0  0  0  0  0  0  0  0  0  0
   47.9720   31.4870   48.4880 C   0  0  0  0  0  0  0  0  0  0  0  0
   47.8300   30.9050   47.1680 N   0  0  0  0  0  0  0  0  0  0  0  0
   47.9140   30.6760   49.6560 N   0  0  0  0  0  0  0  0  0  0  0  0
   47.2550   29.8640   49.7970 H   0  0  0  0  0  0  0  0  0  0  0  0
   48.2650   33.2720   49.4500 H   0  0  0  0  0  0  0  0  0  0  0  0
   48.0650   29.8630   47.1840 H   0  0  0  0  0  0  0  0  0  0  0  0
   48.5820   30.8990   50.4500 H   0  0  0  0  0  0  0  0  0  0  0  0
   45.4360   33.2080   46.3840 C   0  0  0  0  0  0  0  0  0  0  0  0
   45.0190   33.5490   47.5210 O   0  0  0  0  0  0  0  0  0  0  0  0
   44.6200   36.1560   44.4290 C   0  0  0  0  0  0  0  0  0  0  0  0
   45.3650   36.0020   43.2250 C   0  0  0  0  0  0  0  0  0  0  0  0
   46.1260   34.8320   43.1340 C   0  0  0  0  0  0  0  0  0  0  0  0
   46.0820   33.9710   44.1780 N   0  0  0  0  0  0  0  0  0  0  0  0
   45.3830   34.1440   45.2820 C   0  0  0  0  0  0  0  0  0  0  0  0
   44.6310   35.2650   45.4110 N   0  0  0  0  0  0  0  0  0  0  0  0
   44.0180   37.0570   44.5260 H   0  0  0  0  0  0  0  0  0  0  0  0
   45.3300   36.7510   42.4490 H   0  0  0  0  0  0  0  0  0  0  0  0
   46.9190   34.7030   41.9270 C   0  0  0  0  0  0  0  0  0  0  0  0
   47.7290   33.5670   42.0060 F   0  0  0  0  0  0  0  0  0  0  0  0
   47.8250   35.7750   41.9330 F   0  0  0  0  0  0  0  0  0  0  0  0
   46.1930   34.6330   40.7920 F   0  0  0  0  0  0  0  0  0  0  0  0
  1  7  1  6  0  0  0
  1 25  1  0  0  0  0
  1  2  1  0  0  0  0
  2  8  1  0  0  0  0
  3  2  1  0  0  0  0
  3 11  1  0  0  0  0
  4  3  1  0  0  0  0
  5  4  1  0  0  0  0
  5 14  1  0  0  0  0
  5  6  1  0  0  0  0
  6 16  1  6  0  0  0
  6  1  1  0  0  0  0
  6 19  1  0  0  0  0
  9  2  1  0  0  0  0
 10  3  1  0  0  0  0
 12  4  1  0  0  0  0
 13  4  1  0  0  0  0
 15  5  1  0  0  0  0
 17 22  1  0  0  0  0
 18 17  2  0  0  0  0
 18 20  1  0  0  0  0
 19 23  1  0  0  0  0
 19 18  1  0  0  0  0
 20 21  1  0  0  0  0
 20 24  1  0  0  0  0
 25 26  2  0  0  0  0
 27 33  1  0  0  0  0
 27 32  1  0  0  0  0
 28 27  2  0  0  0  0
 29 28  1  0  0  0  0
 29 30  2  0  0  0  0
 30 31  1  0  0  0  0
 31 32  2  0  0  0  0
 31 25  1  0  0  0  0
 34 28  1  0  0  0  0
 35 37  1  0  0  0  0
 35 36  1  0  0  0  0
 35 29  1  0  0  0  0
 38 35  1  0  0  0  0
M  END
>  <minimizedAffinity>
-5.63596916

>  <minimizedRMSD>
1.24258649

$$$$
