
 OpenBabel03252507283D

 42 44  0  0  1  0  0  0  0  0999 V2000
   47.4250   31.8000   44.7480 C   0  0  2  0  0  0  0  0  0  0  0  0
   47.6860   31.1330   43.4320 C   0  0  0  0  0  0  0  0  0  0  0  0
   48.8350   30.1680   43.6280 C   0  0  0  0  0  0  0  0  0  0  0  0
   48.6010   29.2010   44.7560 C   0  0  0  0  0  0  0  0  0  0  0  0
   48.2310   29.9190   46.0260 C   0  0  0  0  0  0  0  0  0  0  0  0
   47.0490   30.7900   45.7750 C   0  0  2  0  0  0  0  0  0  0  0  0
   48.3810   32.2840   45.0350 H   0  0  0  0  0  0  0  0  0  0  0  0
   48.0390   31.9140   42.7210 H   0  0  0  0  0  0  0  0  0  0  0  0
   46.8060   30.6720   42.9700 H   0  0  0  0  0  0  0  0  0  0  0  0
   49.7720   30.7200   43.7760 H   0  0  0  0  0  0  0  0  0  0  0  0
   48.9500   29.5770   42.7030 H   0  0  0  0  0  0  0  0  0  0  0  0
   47.7450   28.5430   44.4750 H   0  0  0  0  0  0  0  0  0  0  0  0
   49.5060   28.5860   44.8390 H   0  0  0  0  0  0  0  0  0  0  0  0
   49.1340   30.5270   46.3040 H   0  0  0  0  0  0  0  0  0  0  0  0
   48.0900   29.1490   46.8060 H   0  0  0  0  0  0  0  0  0  0  0  0
   46.8100   31.3360   46.7220 H   0  0  0  0  0  0  0  0  0  0  0  0
   46.4170   32.8770   44.6790 C   0  0  0  0  0  0  0  0  0  0  0  0
   46.0960   33.6200   45.8390 C   0  0  0  0  0  0  0  0  0  0  0  0
   45.1140   34.6130   45.7100 C   0  0  0  0  0  0  0  0  0  0  0  0
   44.5290   34.8010   44.4710 N   0  0  0  0  0  0  0  0  0  0  0  0
   44.8890   34.0510   43.4110 C   0  0  0  0  0  0  0  0  0  0  0  0
   45.8210   33.0990   43.5020 N   0  0  0  0  0  0  0  0  0  0  0  0
   46.5250   33.4920   46.7960 H   0  0  0  0  0  0  0  0  0  0  0  0
   44.7770   35.2500   46.5170 H   0  0  0  0  0  0  0  0  0  0  0  0
   44.2170   34.2960   42.1290 C   0  0  0  0  0  0  0  0  0  0  0  0
   44.5720   33.6170   41.0070 C   0  0  0  0  0  0  0  0  0  0  0  0
   43.9770   33.8060   39.7750 C   0  0  0  0  0  0  0  0  0  0  0  0
   42.9730   34.7520   39.7420 C   0  0  0  0  0  0  0  0  0  0  0  0
   42.5940   35.4530   40.8630 C   0  0  0  0  0  0  0  0  0  0  0  0
   43.2180   35.2230   42.0550 N   0  0  0  0  0  0  0  0  0  0  0  0
   45.3700   32.8950   41.1220 H   0  0  0  0  0  0  0  0  0  0  0  0
   44.3230   33.2220   38.9330 H   0  0  0  0  0  0  0  0  0  0  0  0
   42.5070   34.8960   38.7590 H   0  0  0  0  0  0  0  0  0  0  0  0
   41.8050   36.1700   40.7550 H   0  0  0  0  0  0  0  0  0  0  0  0
   44.7340   30.5100   47.4240 N   0  0  0  0  0  0  0  0  0  0  0  0
   44.9620   29.6970   46.4470 C   0  0  0  0  0  0  0  0  0  0  0  0
   45.9390   29.9650   45.4440 N   0  0  0  0  0  0  0  0  0  0  0  0
   44.1440   28.5220   46.4790 N   0  0  0  0  0  0  0  0  0  0  0  0
   44.1990   27.6760   47.0960 H   0  0  0  0  0  0  0  0  0  0  0  0
   45.2480   31.4030   47.5340 H   0  0  0  0  0  0  0  0  0  0  0  0
   45.7090   29.4910   44.5230 H   0  0  0  0  0  0  0  0  0  0  0  0
   43.3600   28.5110   45.7640 H   0  0  0  0  0  0  0  0  0  0  0  0
  1  7  1  1  0  0  0
  1  6  1  0  0  0  0
  2  3  1  0  0  0  0
  2  1  1  0  0  0  0
  3 10  1  0  0  0  0
  3  4  1  0  0  0  0
  4 13  1  0  0  0  0
  4  5  1  0  0  0  0
  5 14  1  0  0  0  0
  5 15  1  0  0  0  0
  6  5  1  0  0  0  0
  6 16  1  1  0  0  0
  8  2  1  0  0  0  0
  9  2  1  0  0  0  0
 11  3  1  0  0  0  0
 12  4  1  0  0  0  0
 17  1  1  0  0  0  0
 17 18  1  0  0  0  0
 18 23  1  0  0  0  0
 19 18  2  0  0  0  0
 19 24  1  0  0  0  0
 20 19  1  0  0  0  0
 21 22  1  0  0  0  0
 21 20  2  0  0  0  0
 22 17  2  0  0  0  0
 25 21  1  0  0  0  0
 26 31  1  0  0  0  0
 26 25  2  0  0  0  0
 27 26  1  0  0  0  0
 28 27  2  0  0  0  0
 28 29  1  0  0  0  0
 29 30  2  0  0  0  0
 30 25  1  0  0  0  0
 32 27  1  0  0  0  0
 33 28  1  0  0  0  0
 34 29  1  0  0  0  0
 35 40  1  0  0  0  0
 36 38  1  0  0  0  0
 36 35  2  0  0  0  0
 37  6  1  0  0  0  0
 37 36  1  0  0  0  0
 38 39  1  0  0  0  0
 41 37  1  0  0  0  0
 42 38  1  0  0  0  0
M  END
>  <minimizedAffinity>
-4.524158

>  <minimizedRMSD>
3.38043451

$$$$
