
 OpenBabel03242518303D

 27 28  0  0  0  0  0  0  0  0999 V2000
   47.0750   33.5960   39.4770 C   0  0  0  0  0  0  0  0  0  0  0  0
   48.1500   33.8900   38.6860 C   0  0  0  0  0  0  0  0  0  0  0  0
   47.7390   33.8970   37.3650 C   0  0  0  0  0  0  0  0  0  0  0  0
   46.3860   33.5970   37.4280 C   0  0  0  0  0  0  0  0  0  0  0  0
   46.0240   33.4240   38.6740 O   0  0  0  0  0  0  0  0  0  0  0  0
   49.1480   34.0820   39.0580 H   0  0  0  0  0  0  0  0  0  0  0  0
   48.3330   34.0940   36.4740 H   0  0  0  0  0  0  0  0  0  0  0  0
   46.4710   31.5220   35.4990 N   0  0  0  0  0  0  0  0  0  0  0  0
   45.6460   32.5100   35.2760 C   0  0  0  0  0  0  0  0  0  0  0  0
   45.5250   33.4900   36.3000 N   0  0  0  0  0  0  0  0  0  0  0  0
   44.8910   32.6100   34.0540 N   0  0  0  0  0  0  0  0  0  0  0  0
   44.7380   33.5960   33.7210 H   0  0  0  0  0  0  0  0  0  0  0  0
   46.5640   30.7900   34.7380 H   0  0  0  0  0  0  0  0  0  0  0  0
   44.7320   34.1550   36.1650 H   0  0  0  0  0  0  0  0  0  0  0  0
   44.5290   31.7770   33.5490 H   0  0  0  0  0  0  0  0  0  0  0  0
   46.9700   33.4690   40.8740 O   0  0  0  0  0  0  0  0  0  0  0  0
   47.2310   34.5520   41.7140 C   0  0  0  0  0  0  0  0  0  0  0  0
   48.1410   35.3350   41.3410 O   0  0  0  0  0  0  0  0  0  0  0  0
   46.4320   34.6380   42.8990 C   0  0  0  0  0  0  0  0  0  0  0  0
   45.5490   35.6940   42.8900 C   0  0  0  0  0  0  0  0  0  0  0  0
   44.7340   35.8340   44.0280 C   0  0  0  0  0  0  0  0  0  0  0  0
   44.8550   34.9520   45.0410 N   0  0  0  0  0  0  0  0  0  0  0  0
   45.7490   33.9290   44.9860 C   0  0  0  0  0  0  0  0  0  0  0  0
   46.5360   33.7780   43.9090 N   0  0  0  0  0  0  0  0  0  0  0  0
   45.4290   36.4190   42.0910 H   0  0  0  0  0  0  0  0  0  0  0  0
   44.0080   36.6370   44.1100 H   0  0  0  0  0  0  0  0  0  0  0  0
   45.7870   33.2590   45.8440 H   0  0  0  0  0  0  0  0  0  0  0  0
  1 16  1  0  0  0  0
  2  6  1  0  0  0  0
  2  1  2  0  0  0  0
  3  4  2  0  0  0  0
  3  2  1  0  0  0  0
  4  5  1  0  0  0  0
  5  1  1  0  0  0  0
  7  3  1  0  0  0  0
  9  8  2  0  0  0  0
  9 10  1  0  0  0  0
 10  4  1  0  0  0  0
 11  9  1  0  0  0  0
 12 11  1  0  0  0  0
 13  8  1  0  0  0  0
 14 10  1  0  0  0  0
 15 11  1  0  0  0  0
 16 17  1  0  0  0  0
 17 19  1  0  0  0  0
 18 17  2  0  0  0  0
 19 24  1  0  0  0  0
 20 19  2  0  0  0  0
 20 21  1  0  0  0  0
 21 26  1  0  0  0  0
 21 22  2  0  0  0  0
 23 22  1  0  0  0  0
 23 27  1  0  0  0  0
 24 23  2  0  0  0  0
 25 20  1  0  0  0  0
M  END
>  <minimizedAffinity>
-5.42271233

>  <minimizedRMSD>
0.727472186

$$$$
