
 OpenBabel03242518423D

 18 18  0  0  0  0  0  0  0  0999 V2000
   44.9240   35.4760   44.4600 C   0  0  0  0  0  0  0  0  0  0  0  0
   45.8810   34.8480   43.6440 C   0  0  0  0  0  0  0  0  0  0  0  0
   46.5350   33.7250   44.1710 C   0  0  0  0  0  0  0  0  0  0  0  0
   46.2120   33.3190   45.4170 N   0  0  0  0  0  0  0  0  0  0  0  0
   45.2850   33.9560   46.1660 C   0  0  0  0  0  0  0  0  0  0  0  0
   44.6490   35.0250   45.6870 N   0  0  0  0  0  0  0  0  0  0  0  0
   46.1620   35.1440   42.6480 H   0  0  0  0  0  0  0  0  0  0  0  0
   47.2850   33.1630   43.6400 H   0  0  0  0  0  0  0  0  0  0  0  0
   47.2230   32.8080   47.7290 N   0  0  0  0  0  0  0  0  0  0  0  0
   46.0260   32.8020   48.2160 C   0  0  0  0  0  0  0  0  0  0  0  0
   45.0040   33.4610   47.4720 N   0  0  0  0  0  0  0  0  0  0  0  0
   45.6710   32.1780   49.4440 N   0  0  0  0  0  0  0  0  0  0  0  0
   44.6970   31.8270   49.5730 H   0  0  0  0  0  0  0  0  0  0  0  0
   48.0470   32.3610   48.1810 H   0  0  0  0  0  0  0  0  0  0  0  0
   44.0390   33.5890   47.8720 H   0  0  0  0  0  0  0  0  0  0  0  0
   46.4090   32.1040   50.1600 H   0  0  0  0  0  0  0  0  0  0  0  0
   44.2900   36.5740   43.9340 O   0  0  0  0  0  0  0  0  0  0  0  0
   43.4700   36.4620   43.3470 H   0  0  0  0  0  0  0  0  0  0  0  0
  1  6  1  0  0  0  0
  2  3  1  0  0  0  0
  2  1  2  0  0  0  0
  3  4  2  0  0  0  0
  4  5  1  0  0  0  0
  5 11  1  0  0  0  0
  6  5  2  0  0  0  0
  7  2  1  0  0  0  0
  8  3  1  0  0  0  0
  9 14  1  0  0  0  0
  9 10  2  0  0  0  0
 10 12  1  0  0  0  0
 11 15  1  0  0  0  0
 11 10  1  0  0  0  0
 12 13  1  0  0  0  0
 12 16  1  0  0  0  0
 17  1  1  0  0  0  0
 18 17  1  0  0  0  0
M  END
>  <minimizedAffinity>
-5.36007261

>  <minimizedRMSD>
0.391375571

$$$$
