
 OpenBabel03252506193D

 22 22  0  0  0  0  0  0  0  0999 V2000
   37.3320   29.0990   42.1630 C   0  0  0  0  0  0  0  0  0  0  0  0
   36.2230   28.4020   41.6450 C   0  0  0  0  0  0  0  0  0  0  0  0
   35.4280   29.0770   40.7050 C   0  0  0  0  0  0  0  0  0  0  0  0
   35.7650   30.3510   40.3480 N   0  0  0  0  0  0  0  0  0  0  0  0
   36.8350   30.9860   40.8660 C   0  0  0  0  0  0  0  0  0  0  0  0
   37.5870   30.3350   41.7600 N   0  0  0  0  0  0  0  0  0  0  0  0
   35.9730   27.4020   41.9380 H   0  0  0  0  0  0  0  0  0  0  0  0
   34.5570   28.6150   40.2590 H   0  0  0  0  0  0  0  0  0  0  0  0
   39.5160   32.0480   40.7490 N   0  0  0  0  0  0  0  0  0  0  0  0
   38.4930   32.8090   40.8260 C   0  0  0  0  0  0  0  0  0  0  0  0
   37.1990   32.3100   40.5050 N   0  0  0  0  0  0  0  0  0  0  0  0
   38.6650   34.1610   41.2350 N   0  0  0  0  0  0  0  0  0  0  0  0
   38.3640   34.8410   41.9710 H   0  0  0  0  0  0  0  0  0  0  0  0
   39.5710   31.0690   40.4750 H   0  0  0  0  0  0  0  0  0  0  0  0
   36.5340   32.9350   40.0060 H   0  0  0  0  0  0  0  0  0  0  0  0
   39.2680   34.8770   40.7570 H   0  0  0  0  0  0  0  0  0  0  0  0
   38.1680   28.4120   43.1370 C   0  0  0  0  0  3  0  0  0  0  0  0
   39.0720   27.5480   42.7230 C   0  0  0  0  0  3  0  0  0  0  0  0
   39.9430   26.8290   43.6780 C   0  0  0  0  0  0  0  0  0  0  0  0
   39.5680   25.8040   43.9120 H   0  0  0  0  0  0  0  0  0  0  0  0
   40.9650   26.7840   43.2300 H   0  0  0  0  0  0  0  0  0  0  0  0
   40.0650   27.4320   44.6090 H   0  0  0  0  0  0  0  0  0  0  0  0
  1 17  1  0  0  0  0
  2  7  1  0  0  0  0
  2  1  2  0  0  0  0
  3  2  1  0  0  0  0
  4  3  2  0  0  0  0
  4  5  1  0  0  0  0
  5  6  2  0  0  0  0
  6  1  1  0  0  0  0
  8  3  1  0  0  0  0
  9 10  2  0  0  0  0
 10 12  1  0  0  0  0
 11 10  1  0  0  0  0
 11  5  1  0  0  0  0
 12 13  1  0  0  0  0
 14  9  1  0  0  0  0
 15 11  1  0  0  0  0
 16 12  1  0  0  0  0
 18 17  2  0  0  0  0
 18 19  1  0  0  0  0
 19 20  1  0  0  0  0
 19 22  1  0  0  0  0
 21 19  1  0  0  0  0
M  END
>  <minimizedAffinity>
-5.11745882

$$$$

 OpenBabel03252506193D

 22 22  0  0  0  0  0  0  0  0999 V2000
   37.3930   26.8450   41.5580 C   0  0  0  0  0  0  0  0  0  0  0  0
   38.0700   26.3590   42.6930 C   0  0  0  0  0  0  0  0  0  0  0  0
   38.5010   27.3080   43.6340 C   0  0  0  0  0  0  0  0  0  0  0  0
   38.2440   28.6290   43.4040 N   0  0  0  0  0  0  0  0  0  0  0  0
   37.5920   29.0570   42.3050 C   0  0  0  0  0  0  0  0  0  0  0  0
   37.1850   28.1450   41.4150 N   0  0  0  0  0  0  0  0  0  0  0  0
   38.2630   25.3180   42.8560 H   0  0  0  0  0  0  0  0  0  0  0  0
   39.0290   27.0200   44.5330 H   0  0  0  0  0  0  0  0  0  0  0  0
   35.2960   30.1080   40.9080 N   0  0  0  0  0  0  0  0  0  0  0  0
   36.3630   30.7930   41.0610 C   0  0  0  0  0  0  0  0  0  0  0  0
   37.3170   30.4260   42.0510 N   0  0  0  0  0  0  0  0  0  0  0  0
   36.5820   31.9280   40.2320 N   0  0  0  0  0  0  0  0  0  0  0  0
   37.2580   32.3190   39.5350 H   0  0  0  0  0  0  0  0  0  0  0  0
   34.9850   29.2790   41.4110 H   0  0  0  0  0  0  0  0  0  0  0  0
   37.8050   31.1800   42.5760 H   0  0  0  0  0  0  0  0  0  0  0  0
   35.9520   32.7670   40.1560 H   0  0  0  0  0  0  0  0  0  0  0  0
   36.9370   25.8730   40.5740 C   0  0  0  0  0  3  0  0  0  0  0  0
   36.7570   24.6190   40.9340 C   0  0  0  0  0  3  0  0  0  0  0  0
   36.2950   23.6000   39.9670 C   0  0  0  0  0  0  0  0  0  0  0  0
   37.1350   22.9980   39.5440 H   0  0  0  0  0  0  0  0  0  0  0  0
   35.5640   22.9420   40.4980 H   0  0  0  0  0  0  0  0  0  0  0  0
   35.7040   24.0870   39.1550 H   0  0  0  0  0  0  0  0  0  0  0  0
  1  2  1  0  0  0  0
  2  7  1  0  0  0  0
  2  3  2  0  0  0  0
  3  8  1  0  0  0  0
  4  3  1  0  0  0  0
  5  4  2  0  0  0  0
  6  1  2  0  0  0  0
  6  5  1  0  0  0  0
  9 10  2  0  0  0  0
  9 14  1  0  0  0  0
 10 11  1  0  0  0  0
 11  5  1  0  0  0  0
 11 15  1  0  0  0  0
 12 10  1  0  0  0  0
 13 12  1  0  0  0  0
 16 12  1  0  0  0  0
 17 18  2  0  0  0  0
 17  1  1  0  0  0  0
 19 21  1  0  0  0  0
 19 18  1  0  0  0  0
 20 19  1  0  0  0  0
 22 19  1  0  0  0  0
M  END
>  <minimizedAffinity>
-4.80034399

$$$$

 OpenBabel03252506193D

 22 22  0  0  0  0  0  0  0  0999 V2000
   36.5160   29.2730   41.2280 C   0  0  0  0  0  0  0  0  0  0  0  0
   36.9060   28.4690   42.3160 C   0  0  0  0  0  0  0  0  0  0  0  0
   38.0570   28.8620   43.0190 C   0  0  0  0  0  0  0  0  0  0  0  0
   38.7240   29.9830   42.6180 N   0  0  0  0  0  0  0  0  0  0  0  0
   38.3200   30.7280   41.5710 C   0  0  0  0  0  0  0  0  0  0  0  0
   37.2230   30.3460   40.9080 N   0  0  0  0  0  0  0  0  0  0  0  0
   36.3700   27.5910   42.6160 H   0  0  0  0  0  0  0  0  0  0  0  0
   38.4260   28.3000   43.8670 H   0  0  0  0  0  0  0  0  0  0  0  0
   37.1210   33.0620   40.3700 N   0  0  0  0  0  0  0  0  0  0  0  0
   38.3680   32.8110   40.2540 C   0  0  0  0  0  0  0  0  0  0  0  0
   39.0020   31.8960   41.1410 N   0  0  0  0  0  0  0  0  0  0  0  0
   39.1120   33.4580   39.2290 N   0  0  0  0  0  0  0  0  0  0  0  0
   39.7010   33.2560   38.3880 H   0  0  0  0  0  0  0  0  0  0  0  0
   36.4490   32.6930   41.0400 H   0  0  0  0  0  0  0  0  0  0  0  0
   39.9700   32.1040   41.4610 H   0  0  0  0  0  0  0  0  0  0  0  0
   39.2240   34.4970   39.1110 H   0  0  0  0  0  0  0  0  0  0  0  0
   35.3230   28.8800   40.4900 C   0  0  0  0  0  3  0  0  0  0  0  0
   35.2090   29.2070   39.2200 C   0  0  0  0  0  3  0  0  0  0  0  0
   34.0150   28.8280   38.4330 C   0  0  0  0  0  0  0  0  0  0  0  0
   33.2700   29.6560   38.3580 H   0  0  0  0  0  0  0  0  0  0  0  0
   34.3670   28.5190   37.4180 H   0  0  0  0  0  0  0  0  0  0  0  0
   33.5510   27.9100   38.8650 H   0  0  0  0  0  0  0  0  0  0  0  0
  1  2  1  0  0  0  0
  2  7  1  0  0  0  0
  2  3  2  0  0  0  0
  3  8  1  0  0  0  0
  4  3  1  0  0  0  0
  5  4  2  0  0  0  0
  6  1  2  0  0  0  0
  6  5  1  0  0  0  0
  9 14  1  0  0  0  0
 10  9  2  0  0  0  0
 10 11  1  0  0  0  0
 11 15  1  0  0  0  0
 11  5  1  0  0  0  0
 12 10  1  0  0  0  0
 13 12  1  0  0  0  0
 16 12  1  0  0  0  0
 17  1  1  0  0  0  0
 18 17  2  0  0  0  0
 19 22  1  0  0  0  0
 19 18  1  0  0  0  0
 20 19  1  0  0  0  0
 21 19  1  0  0  0  0
M  END
>  <minimizedAffinity>
-4.73861408

$$$$

 OpenBabel03252506193D

 22 22  0  0  0  0  0  0  0  0999 V2000
   38.6910   25.0200   42.3950 C   0  0  0  0  0  0  0  0  0  0  0  0
   39.9180   24.5630   42.9130 C   0  0  0  0  0  0  0  0  0  0  0  0
   40.7240   25.5060   43.5720 C   0  0  0  0  0  0  0  0  0  0  0  0
   40.2820   26.7940   43.6740 N   0  0  0  0  0  0  0  0  0  0  0  0
   39.1010   27.1940   43.1660 C   0  0  0  0  0  0  0  0  0  0  0  0
   38.3410   26.2890   42.5410 N   0  0  0  0  0  0  0  0  0  0  0  0
   40.2490   23.5480   42.8220 H   0  0  0  0  0  0  0  0  0  0  0  0
   41.6820   25.2380   43.9980 H   0  0  0  0  0  0  0  0  0  0  0  0
   36.3430   28.0180   43.3760 N   0  0  0  0  0  0  0  0  0  0  0  0
   37.2600   28.8250   43.0040 C   0  0  0  0  0  0  0  0  0  0  0  0
   38.6280   28.5290   43.2640 N   0  0  0  0  0  0  0  0  0  0  0  0
   36.8960   30.0230   42.3280 N   0  0  0  0  0  0  0  0  0  0  0  0
   37.0410   30.5350   41.4270 H   0  0  0  0  0  0  0  0  0  0  0  0
   36.4270   27.1290   43.8660 H   0  0  0  0  0  0  0  0  0  0  0  0
   39.2650   29.3100   43.5240 H   0  0  0  0  0  0  0  0  0  0  0  0
   36.2670   30.7760   42.7050 H   0  0  0  0  0  0  0  0  0  0  0  0
   37.8430   24.0540   41.7110 C   0  0  0  0  0  3  0  0  0  0  0  0
   36.8080   24.4760   41.0150 C   0  0  0  0  0  3  0  0  0  0  0  0
   35.9210   23.5300   40.3040 C   0  0  0  0  0  0  0  0  0  0  0  0
   34.9980   23.2890   40.8840 H   0  0  0  0  0  0  0  0  0  0  0  0
   35.6610   23.9890   39.3200 H   0  0  0  0  0  0  0  0  0  0  0  0
   36.4850   22.6020   40.0470 H   0  0  0  0  0  0  0  0  0  0  0  0
  1  6  2  0  0  0  0
  1  2  1  0  0  0  0
  2  3  2  0  0  0  0
  3  4  1  0  0  0  0
  3  8  1  0  0  0  0
  5 11  1  0  0  0  0
  5  4  2  0  0  0  0
  6  5  1  0  0  0  0
  7  2  1  0  0  0  0
  9 14  1  0  0  0  0
 10 11  1  0  0  0  0
 10  9  2  0  0  0  0
 11 15  1  0  0  0  0
 12 16  1  0  0  0  0
 12 10  1  0  0  0  0
 13 12  1  0  0  0  0
 17  1  1  0  0  0  0
 18 17  2  0  0  0  0
 19 20  1  0  0  0  0
 19 18  1  0  0  0  0
 21 19  1  0  0  0  0
 22 19  1  0  0  0  0
M  END
>  <minimizedAffinity>
-4.64884949

$$$$

 OpenBabel03252506193D

 22 22  0  0  0  0  0  0  0  0999 V2000
   38.3990   29.8170   41.0490 C   0  0  0  0  0  0  0  0  0  0  0  0
   37.1390   29.9860   41.6550 C   0  0  0  0  0  0  0  0  0  0  0  0
   36.2650   30.9110   41.0620 C   0  0  0  0  0  0  0  0  0  0  0  0
   36.6750   31.5860   39.9480 N   0  0  0  0  0  0  0  0  0  0  0  0
   37.8880   31.3970   39.3960 C   0  0  0  0  0  0  0  0  0  0  0  0
   38.7140   30.5140   39.9670 N   0  0  0  0  0  0  0  0  0  0  0  0
   36.8350   29.4480   42.5310 H   0  0  0  0  0  0  0  0  0  0  0  0
   35.2790   31.1030   41.4650 H   0  0  0  0  0  0  0  0  0  0  0  0
   39.6770   30.3790   37.3730 N   0  0  0  0  0  0  0  0  0  0  0  0
   39.4680   31.6300   37.5190 C   0  0  0  0  0  0  0  0  0  0  0  0
   38.3290   32.0900   38.2380 N   0  0  0  0  0  0  0  0  0  0  0  0
   40.3860   32.5570   36.9500 N   0  0  0  0  0  0  0  0  0  0  0  0
   41.0310   33.3390   37.2090 H   0  0  0  0  0  0  0  0  0  0  0  0
   39.1270   29.5910   37.7090 H   0  0  0  0  0  0  0  0  0  0  0  0
   37.8360   32.9400   37.8980 H   0  0  0  0  0  0  0  0  0  0  0  0
   40.6370   32.6300   35.9320 H   0  0  0  0  0  0  0  0  0  0  0  0
   39.3160   28.8600   41.6500 C   0  0  0  0  0  3  0  0  0  0  0  0
   39.0210   28.3210   42.8160 C   0  0  0  0  0  3  0  0  0  0  0  0
   39.9240   27.3440   43.4620 C   0  0  0  0  0  0  0  0  0  0  0  0
   40.5830   27.8130   44.2320 H   0  0  0  0  0  0  0  0  0  0  0  0
   39.2860   26.5490   43.9180 H   0  0  0  0  0  0  0  0  0  0  0  0
   40.5290   26.8160   42.6870 H   0  0  0  0  0  0  0  0  0  0  0  0
  1 17  1  0  0  0  0
  1  2  1  0  0  0  0
  2  7  1  0  0  0  0
  3  8  1  0  0  0  0
  3  2  2  0  0  0  0
  4  3  1  0  0  0  0
  5  4  2  0  0  0  0
  5  6  1  0  0  0  0
  6  1  2  0  0  0  0
  9 10  2  0  0  0  0
  9 14  1  0  0  0  0
 10 11  1  0  0  0  0
 11  5  1  0  0  0  0
 12 13  1  0  0  0  0
 12 10  1  0  0  0  0
 15 11  1  0  0  0  0
 16 12  1  0  0  0  0
 17 18  2  0  0  0  0
 18 19  1  0  0  0  0
 19 21  1  0  0  0  0
 19 20  1  0  0  0  0
 22 19  1  0  0  0  0
M  END
>  <minimizedAffinity>
-4.36798954

$$$$

 OpenBabel03252506193D

 22 22  0  0  0  0  0  0  0  0999 V2000
   36.0850   29.9350   38.4430 C   0  0  0  0  0  0  0  0  0  0  0  0
   35.4250   29.0090   39.2730 C   0  0  0  0  0  0  0  0  0  0  0  0
   35.4340   29.2710   40.6530 C   0  0  0  0  0  0  0  0  0  0  0  0
   36.0700   30.3910   41.1080 N   0  0  0  0  0  0  0  0  0  0  0  0
   36.6910   31.2540   40.2820 C   0  0  0  0  0  0  0  0  0  0  0  0
   36.6770   30.9970   38.9700 N   0  0  0  0  0  0  0  0  0  0  0  0
   34.9320   28.1360   38.8980 H   0  0  0  0  0  0  0  0  0  0  0  0
   34.9510   28.6110   41.3620 H   0  0  0  0  0  0  0  0  0  0  0  0
   36.9260   33.7540   38.8590 N   0  0  0  0  0  0  0  0  0  0  0  0
   37.7100   33.4500   39.8210 C   0  0  0  0  0  0  0  0  0  0  0  0
   37.3560   32.4220   40.7390 N   0  0  0  0  0  0  0  0  0  0  0  0
   38.9380   34.1550   39.9630 N   0  0  0  0  0  0  0  0  0  0  0  0
   39.9730   34.0050   39.9900 H   0  0  0  0  0  0  0  0  0  0  0  0
   36.0210   33.3560   38.6160 H   0  0  0  0  0  0  0  0  0  0  0  0
   37.5980   32.5460   41.7430 H   0  0  0  0  0  0  0  0  0  0  0  0
   39.0410   35.1930   40.0940 H   0  0  0  0  0  0  0  0  0  0  0  0
   36.0830   29.6790   37.0090 C   0  0  0  0  0  3  0  0  0  0  0  0
   35.5400   28.5720   36.5480 C   0  0  0  0  0  3  0  0  0  0  0  0
   35.5150   28.2730   35.1000 C   0  0  0  0  0  0  0  0  0  0  0  0
   36.3420   27.5890   34.7890 H   0  0  0  0  0  0  0  0  0  0  0  0
   34.5200   27.8210   34.8670 H   0  0  0  0  0  0  0  0  0  0  0  0
   35.5410   29.2220   34.5150 H   0  0  0  0  0  0  0  0  0  0  0  0
  1  6  2  0  0  0  0
  1  2  1  0  0  0  0
  2  3  2  0  0  0  0
  3  4  1  0  0  0  0
  3  8  1  0  0  0  0
  5 11  1  0  0  0  0
  5  4  2  0  0  0  0
  6  5  1  0  0  0  0
  7  2  1  0  0  0  0
  9 10  2  0  0  0  0
 10 12  1  0  0  0  0
 10 11  1  0  0  0  0
 11 15  1  0  0  0  0
 12 13  1  0  0  0  0
 12 16  1  0  0  0  0
 14  9  1  0  0  0  0
 17  1  1  0  0  0  0
 18 17  2  0  0  0  0
 19 18  1  0  0  0  0
 20 19  1  0  0  0  0
 21 19  1  0  0  0  0
 22 19  1  0  0  0  0
M  END
>  <minimizedAffinity>
-4.34476519

$$$$

 OpenBabel03252506193D

 22 22  0  0  0  0  0  0  0  0999 V2000
   39.0640   28.3570   42.7970 C   0  0  0  0  0  0  0  0  0  0  0  0
   38.4310   27.2200   43.3350 C   0  0  0  0  0  0  0  0  0  0  0  0
   37.0400   27.1250   43.1670 C   0  0  0  0  0  0  0  0  0  0  0  0
   36.3860   28.1220   42.5010 N   0  0  0  0  0  0  0  0  0  0  0  0
   37.0270   29.1950   41.9990 C   0  0  0  0  0  0  0  0  0  0  0  0
   38.3510   29.2770   42.1640 N   0  0  0  0  0  0  0  0  0  0  0  0
   38.9610   26.4480   43.8560 H   0  0  0  0  0  0  0  0  0  0  0  0
   36.4760   26.2850   43.5500 H   0  0  0  0  0  0  0  0  0  0  0  0
   38.1170   30.7820   39.8500 N   0  0  0  0  0  0  0  0  0  0  0  0
   37.1070   31.1700   40.5280 C   0  0  0  0  0  0  0  0  0  0  0  0
   36.3620   30.2400   41.3050 N   0  0  0  0  0  0  0  0  0  0  0  0
   36.7360   32.5440   40.4930 N   0  0  0  0  0  0  0  0  0  0  0  0
   36.5990   33.3740   41.1150 H   0  0  0  0  0  0  0  0  0  0  0  0
   38.5140   29.8480   39.7620 H   0  0  0  0  0  0  0  0  0  0  0  0
   35.3280   30.3450   41.3520 H   0  0  0  0  0  0  0  0  0  0  0  0
   36.4770   33.0900   39.6330 H   0  0  0  0  0  0  0  0  0  0  0  0
   40.5060   28.4700   42.9610 C   0  0  0  0  0  3  0  0  0  0  0  0
   41.1180   29.5760   42.5930 C   0  0  0  0  0  3  0  0  0  0  0  0
   42.5810   29.7330   42.7420 C   0  0  0  0  0  0  0  0  0  0  0  0
   43.1340   29.5200   41.7960 H   0  0  0  0  0  0  0  0  0  0  0  0
   42.7720   30.7790   43.0850 H   0  0  0  0  0  0  0  0  0  0  0  0
   42.9490   29.0880   43.5750 H   0  0  0  0  0  0  0  0  0  0  0  0
  1 17  1  0  0  0  0
  1  2  1  0  0  0  0
  2  7  1  0  0  0  0
  3  2  2  0  0  0  0
  3  8  1  0  0  0  0
  4  3  1  0  0  0  0
  5  6  1  0  0  0  0
  5  4  2  0  0  0  0
  6  1  2  0  0  0  0
  9 10  2  0  0  0  0
 10 11  1  0  0  0  0
 11 15  1  0  0  0  0
 11  5  1  0  0  0  0
 12 10  1  0  0  0  0
 12 13  1  0  0  0  0
 14  9  1  0  0  0  0
 16 12  1  0  0  0  0
 18 19  1  0  0  0  0
 18 17  2  0  0  0  0
 19 21  1  0  0  0  0
 19 22  1  0  0  0  0
 20 19  1  0  0  0  0
M  END
>  <minimizedAffinity>
-4.33512926

$$$$

 OpenBabel03252506193D

 22 22  0  0  0  0  0  0  0  0999 V2000
   37.0570   26.9630   40.3170 C   0  0  0  0  0  0  0  0  0  0  0  0
   37.7900   26.1040   41.1580 C   0  0  0  0  0  0  0  0  0  0  0  0
   38.4670   26.6940   42.2380 C   0  0  0  0  0  0  0  0  0  0  0  0
   38.3790   28.0450   42.4130 N   0  0  0  0  0  0  0  0  0  0  0  0
   37.6670   28.8350   41.5860 C   0  0  0  0  0  0  0  0  0  0  0  0
   37.0260   28.2640   40.5610 N   0  0  0  0  0  0  0  0  0  0  0  0
   37.8480   25.0450   41.0050 H   0  0  0  0  0  0  0  0  0  0  0  0
   39.0540   26.1070   42.9320 H   0  0  0  0  0  0  0  0  0  0  0  0
   35.3950   30.4780   40.9020 N   0  0  0  0  0  0  0  0  0  0  0  0
   36.5610   30.9740   41.0620 C   0  0  0  0  0  0  0  0  0  0  0  0
   37.5660   30.2410   41.7540 N   0  0  0  0  0  0  0  0  0  0  0  0
   36.8400   32.2690   40.5420 N   0  0  0  0  0  0  0  0  0  0  0  0
   37.4750   32.7680   39.8770 H   0  0  0  0  0  0  0  0  0  0  0  0
   35.0310   29.5780   41.2080 H   0  0  0  0  0  0  0  0  0  0  0  0
   38.2190   30.7580   42.3770 H   0  0  0  0  0  0  0  0  0  0  0  0
   36.3350   33.1560   40.7940 H   0  0  0  0  0  0  0  0  0  0  0  0
   36.3480   26.3660   39.1940 C   0  0  0  0  0  3  0  0  0  0  0  0
   35.6690   27.1380   38.3700 C   0  0  0  0  0  3  0  0  0  0  0  0
   34.9360   26.5740   37.2170 C   0  0  0  0  0  0  0  0  0  0  0  0
   33.8490   26.4300   37.4280 H   0  0  0  0  0  0  0  0  0  0  0  0
   35.0810   27.2680   36.3540 H   0  0  0  0  0  0  0  0  0  0  0  0
   35.4100   25.6160   36.8960 H   0  0  0  0  0  0  0  0  0  0  0  0
  1  6  2  0  0  0  0
  1  2  1  0  0  0  0
  2  3  2  0  0  0  0
  3  4  1  0  0  0  0
  3  8  1  0  0  0  0
  5 11  1  0  0  0  0
  5  4  2  0  0  0  0
  6  5  1  0  0  0  0
  7  2  1  0  0  0  0
  9 10  2  0  0  0  0
  9 14  1  0  0  0  0
 10 11  1  0  0  0  0
 11 15  1  0  0  0  0
 12 16  1  0  0  0  0
 12 10  1  0  0  0  0
 13 12  1  0  0  0  0
 17  1  1  0  0  0  0
 18 17  2  0  0  0  0
 19 20  1  0  0  0  0
 19 18  1  0  0  0  0
 21 19  1  0  0  0  0
 22 19  1  0  0  0  0
M  END
>  <minimizedAffinity>
-4.33208513

$$$$

 OpenBabel03252506193D

 22 22  0  0  0  0  0  0  0  0999 V2000
   39.9860   30.3540   42.1760 C   0  0  0  0  0  0  0  0  0  0  0  0
   41.2830   30.6400   42.6440 C   0  0  0  0  0  0  0  0  0  0  0  0
   41.9270   31.7590   42.0910 C   0  0  0  0  0  0  0  0  0  0  0  0
   41.2730   32.4970   41.1470 N   0  0  0  0  0  0  0  0  0  0  0  0
   40.0320   32.1920   40.7240 C   0  0  0  0  0  0  0  0  0  0  0  0
   39.4260   31.1250   41.2570 N   0  0  0  0  0  0  0  0  0  0  0  0
   41.7800   30.0490   43.3850 H   0  0  0  0  0  0  0  0  0  0  0  0
   42.9250   32.0490   42.3930 H   0  0  0  0  0  0  0  0  0  0  0  0
   37.1780   32.5970   40.5820 N   0  0  0  0  0  0  0  0  0  0  0  0
   37.9360   32.7820   39.5700 C   0  0  0  0  0  0  0  0  0  0  0  0
   39.3380   32.9490   39.7440 N   0  0  0  0  0  0  0  0  0  0  0  0
   37.3580   32.8220   38.2700 N   0  0  0  0  0  0  0  0  0  0  0  0
   37.3960   32.3460   37.3390 H   0  0  0  0  0  0  0  0  0  0  0  0
   37.4220   32.5440   41.5680 H   0  0  0  0  0  0  0  0  0  0  0  0
   39.8370   33.6310   39.1370 H   0  0  0  0  0  0  0  0  0  0  0  0
   36.6170   33.4940   37.9450 H   0  0  0  0  0  0  0  0  0  0  0  0
   39.3030   29.1980   42.7420 C   0  0  0  0  0  3  0  0  0  0  0  0
   38.0410   29.3020   43.1030 C   0  0  0  0  0  3  0  0  0  0  0  0
   37.3090   28.1540   43.6800 C   0  0  0  0  0  0  0  0  0  0  0  0
   37.2730   28.1850   44.7950 H   0  0  0  0  0  0  0  0  0  0  0  0
   36.2770   28.1640   43.2510 H   0  0  0  0  0  0  0  0  0  0  0  0
   37.7580   27.1980   43.3210 H   0  0  0  0  0  0  0  0  0  0  0  0
  1  2  1  0  0  0  0
  1 17  1  0  0  0  0
  2  7  1  0  0  0  0
  3  8  1  0  0  0  0
  3  2  2  0  0  0  0
  4  3  1  0  0  0  0
  5  4  2  0  0  0  0
  5  6  1  0  0  0  0
  6  1  2  0  0  0  0
  9 14  1  0  0  0  0
 10 11  1  0  0  0  0
 10  9  2  0  0  0  0
 11  5  1  0  0  0  0
 12 10  1  0  0  0  0
 13 12  1  0  0  0  0
 15 11  1  0  0  0  0
 16 12  1  0  0  0  0
 17 18  2  0  0  0  0
 18 19  1  0  0  0  0
 19 20  1  0  0  0  0
 21 19  1  0  0  0  0
 22 19  1  0  0  0  0
M  END
>  <minimizedAffinity>
-4.29134417

$$$$
