
     RDKit          3D

 47 48  0  0  0  0  0  0  0  0999 V2000
   47.1610   34.1621   43.0772 N   0  0  0  0  0  0  0  0  0  0  0  0
   46.6544   35.3542   42.5117 C   0  0  0  0  0  0  0  0  0  0  0  0
   45.1620   35.5698   42.7175 C   0  0  0  0  0  0  0  0  0  0  0  0
   44.6375   35.0406   44.0321 C   0  0  0  0  0  0  0  0  0  0  0  0
   45.7556   34.4827   44.8979 C   0  0  0  0  0  0  0  0  0  0  0  0
   46.4186   33.3974   43.9577 C   0  0  2  0  0  0  0  0  0  0  0  0
   48.1569   33.5065   42.2650 C   0  0  0  0  0  0  0  0  0  0  0  0
   47.4525   32.6527   41.2577 C   0  0  0  0  0  0  0  0  0  0  0  0
   49.3338   32.2675   38.0308 C   0  0  0  0  0  0  0  0  0  0  0  0
   48.8029   32.0208   39.3095 C   0  0  0  0  0  0  0  0  0  0  0  0
   47.9951   32.9425   39.9116 C   0  0  0  0  0  0  0  0  0  0  0  0
   47.7430   34.0638   39.2363 N   0  0  0  0  0  0  0  0  0  0  0  0
   48.2384   34.3211   38.0151 C   0  0  0  0  0  0  0  0  0  0  0  0
   49.0395   33.4300   37.3941 N   0  0  0  0  0  0  0  0  0  0  0  0
   47.2177   32.7214   44.8662 O   0  0  0  0  0  0  0  0  0  0  0  0
   46.0398   30.5400   43.8822 O   0  0  0  0  0  0  0  0  0  0  0  0
   46.7013   31.1558   45.1357 P   0  0  2  0  0  0  0  0  0  0  0  0
   45.4043   31.2628   46.2609 O   0  0  0  0  0  0  0  0  0  0  0  0
   47.8441   30.1461   45.7781 O   0  0  0  0  0  0  0  0  0  0  0  0
   47.7438   28.8893   45.2188 C   0  0  0  0  0  0  0  0  0  0  0  0
   46.8435   35.5270   41.4498 H   0  0  0  0  0  0  0  0  0  0  0  0
   47.1491   36.2112   43.0494 H   0  0  0  0  0  0  0  0  0  0  0  0
   44.9232   36.6436   42.6163 H   0  0  0  0  0  0  0  0  0  0  0  0
   44.5846   35.0467   41.9134 H   0  0  0  0  0  0  0  0  0  0  0  0
   44.1211   35.8229   44.6287 H   0  0  0  0  0  0  0  0  0  0  0  0
   43.9023   34.2030   43.8977 H   0  0  0  0  0  0  0  0  0  0  0  0
   45.3240   33.9623   45.7521 H   0  0  0  0  0  0  0  0  0  0  0  0
   46.5126   35.2406   45.1400 H   0  0  0  0  0  0  0  0  0  0  0  0
   45.5839   32.8007   43.5659 H   0  0  0  0  0  0  0  0  0  0  0  0
   48.7542   34.3019   41.7669 H   0  0  0  0  0  0  0  0  0  0  0  0
   48.8792   32.9249   42.8735 H   0  0  0  0  0  0  0  0  0  0  0  0
   47.6108   31.6100   41.5262 H   0  0  0  0  0  0  0  0  0  0  0  0
   46.3459   32.8181   41.2759 H   0  0  0  0  0  0  0  0  0  0  0  0
   49.9816   31.5343   37.5417 H   0  0  0  0  0  0  0  0  0  0  0  0
   49.0891   31.0869   39.7250 H   0  0  0  0  0  0  0  0  0  0  0  0
   47.9451   35.2598   37.6081 H   0  0  0  0  0  0  0  0  0  0  0  0
   45.8176   31.7219   47.0572 H   0  0  0  0  0  0  0  0  0  0  0  0
   46.7887   28.4036   45.5300 H   0  0  0  0  0  0  0  0  0  0  0  0
   48.5357   28.2530   45.6968 H   0  0  0  0  0  0  0  0  0  0  0  0
   46.4991   26.7843   43.7680 N   0  0  0  0  0  0  0  0  0  0  0  0
   47.1536   27.7627   43.2414 C   0  0  0  0  0  0  0  0  0  0  0  0
   47.9284   28.8528   43.7841 N   0  0  0  0  0  0  0  0  0  0  0  0
   46.9528   27.5547   41.8278 N   0  0  0  0  0  0  0  0  0  0  0  0
   46.5644   28.2879   41.1942 H   0  0  0  0  0  0  0  0  0  0  0  0
   46.4154   26.6038   44.7791 H   0  0  0  0  0  0  0  0  0  0  0  0
   48.4336   29.3515   43.0182 H   0  0  0  0  0  0  0  0  0  0  0  0
   47.1454   26.7107   41.2529 H   0  0  0  0  0  0  0  0  0  0  0  0
  1  6  1  0
  2  3  1  0
  2  1  1  0
  3  4  1  0
  4  5  1  0
  6 15  1  0
  6  5  1  0
  7  1  1  0
  8  7  1  0
  9 10  2  0
 10 11  1  0
 11  8  1  0
 12 11  2  0
 13 12  1  0
 14 13  2  0
 14  9  1  0
 17 15  1  6
 17 16  2  0
 17 19  1  0
 17 18  1  0
 20 19  1  0
  2 21  1  0
  2 22  1  0
  3 23  1  0
  3 24  1  0
  4 25  1  0
  4 26  1  0
  5 27  1  0
  5 28  1  0
  6 29  1  6
  7 30  1  0
  7 31  1  0
  8 32  1  0
  8 33  1  0
  9 34  1  0
 10 35  1  0
 13 36  1  0
 18 37  1  0
 20 38  1  0
 20 39  1  0
 40 41  2  3
 41 42  1  0
 41 43  1  0
 43 44  1  0
 40 45  1  0
 42 46  1  0
 43 47  1  0
 20 42  1  0
M  ISO  8  21  13  22  13  23  13  24  13  25  13  26  13  27  13  28  13
M  ISO  8  29  13  30   8  31   8  32   8  33   8  34  14  35  14  36  14
M  ISO  4  37   3  38   8  39   8  44   5
M  END
>  <DihAtoms>  (1) 
18,19,41,40

>  <DihDeg>  (1) 
60.00644776888779

$$$$
