
 OpenBabel03252508343D

 34 35  0  0  1  0  0  0  0  0999 V2000
   45.3270   34.2160   41.7420 N   0  0  0  0  0  0  0  0  0  0  0  0
   46.4920   33.5270   41.2730 C   0  0  1  0  0  0  0  0  0  0  0  0
   46.5510   33.2730   39.8170 C   0  0  0  0  0  0  0  0  0  0  0  0
   45.3430   33.0100   39.1830 N   0  0  0  0  0  0  0  0  0  0  0  0
   44.1560   33.5100   39.7210 C   0  0  0  0  0  0  0  0  0  0  0  0
   44.4460   34.6260   40.6950 C   0  0  0  0  0  0  0  0  0  0  0  0
   46.5490   32.5410   41.8170 H   0  0  0  0  0  0  0  0  0  0  0  0
   47.0210   34.1590   39.3390 H   0  0  0  0  0  0  0  0  0  0  0  0
   47.2830   32.4310   39.6470 H   0  0  0  0  0  0  0  0  0  0  0  0
   45.2920   32.2950   38.4650 H   0  0  0  0  0  0  0  0  0  0  0  0
   43.5450   33.9440   38.8920 H   0  0  0  0  0  0  0  0  0  0  0  0
   43.4860   32.7540   40.2110 H   0  0  0  0  0  0  0  0  0  0  0  0
   44.8710   35.4960   40.1190 H   0  0  0  0  0  0  0  0  0  0  0  0
   43.4880   34.9870   41.1250 H   0  0  0  0  0  0  0  0  0  0  0  0
   44.6410   35.6390   43.5030 C   0  0  0  0  0  0  0  0  0  0  0  0
   45.1830   34.4070   43.1160 C   0  0  0  0  0  0  0  0  0  0  0  0
   45.5240   33.4960   44.1180 C   0  0  0  0  0  0  0  0  0  0  0  0
   45.3330   33.8040   45.4180 N   0  0  0  0  0  0  0  0  0  0  0  0
   44.8060   35.0060   45.7680 C   0  0  0  0  0  0  0  0  0  0  0  0
   44.4620   35.9170   44.8350 N   0  0  0  0  0  0  0  0  0  0  0  0
   44.3590   36.3820   42.7780 H   0  0  0  0  0  0  0  0  0  0  0  0
   45.9390   32.5550   43.7910 H   0  0  0  0  0  0  0  0  0  0  0  0
   44.6240   35.3220   46.7850 H   0  0  0  0  0  0  0  0  0  0  0  0
   47.7210   34.3310   41.6660 C   0  0  0  0  0  0  0  0  0  0  0  0
   47.4100   35.0750   42.4530 H   0  0  0  0  0  0  0  0  0  0  0  0
   48.0260   34.9380   40.7910 H   0  0  0  0  0  0  0  0  0  0  0  0
   50.0410   35.3240   43.0020 N   0  0  0  0  0  0  0  0  0  0  0  0
   50.0310   34.1420   42.4820 C   0  0  0  0  0  0  0  0  0  0  0  0
   48.7940   33.4920   42.1220 N   0  0  0  0  0  0  0  0  0  0  0  0
   51.3090   33.5240   42.2870 N   0  0  0  0  0  0  0  0  0  0  0  0
   51.8720   33.9100   41.4840 H   0  0  0  0  0  0  0  0  0  0  0  0
   49.1800   35.8480   43.1810 H   0  0  0  0  0  0  0  0  0  0  0  0
   48.7920   32.4530   42.2290 H   0  0  0  0  0  0  0  0  0  0  0  0
   51.7330   32.7470   42.8430 H   0  0  0  0  0  0  0  0  0  0  0  0
  1 16  1  0  0  0  0
  2 24  1  0  0  0  0
  2  1  1  0  0  0  0
  2  7  1  1  0  0  0
  3  2  1  0  0  0  0
  4  5  1  0  0  0  0
  4  3  1  0  0  0  0
  5 12  1  0  0  0  0
  5  6  1  0  0  0  0
  6 14  1  0  0  0  0
  6  1  1  0  0  0  0
  8  3  1  0  0  0  0
  9  3  1  0  0  0  0
 10  4  1  0  0  0  0
 11  5  1  0  0  0  0
 13  6  1  0  0  0  0
 15 20  1  0  0  0  0
 16 15  2  0  0  0  0
 16 17  1  0  0  0  0
 17 18  2  0  0  0  0
 18 19  1  0  0  0  0
 19 23  1  0  0  0  0
 20 19  2  0  0  0  0
 21 15  1  0  0  0  0
 22 17  1  0  0  0  0
 24 29  1  0  0  0  0
 24 25  1  0  0  0  0
 26 24  1  0  0  0  0
 27 32  1  0  0  0  0
 28 27  2  0  0  0  0
 29 33  1  0  0  0  0
 29 28  1  0  0  0  0
 30 28  1  0  0  0  0
 30 34  1  0  0  0  0
 31 30  1  0  0  0  0
M  END
>  <minimizedAffinity>
-5.20728207

>  <minimizedRMSD>
1.06865978

$$$$
