REMARK  Name = 
REMARK  9 active torsions:
REMARK  status: ('A' for Active; 'I' for Inactive)
REMARK    1  A    between atoms: N_1  and  C_7
REMARK    2  A    between atoms: C_6  and  O_15
REMARK    3  A    between atoms: C_7  and  C_8
REMARK    4  A    between atoms: C_8  and  C_11
REMARK    5  A    between atoms: O_15  and  P_17
REMARK    6  A    between atoms: P_17  and  O_18
REMARK    7  A    between atoms: P_17  and  O_19
REMARK    8  A    between atoms: O_19  and  C_20
REMARK    9  A    between atoms: C_20  and  N_42
REMARK                            x       y       z     vdW  Elec       q    Type
REMARK                         _______ _______ _______ _____ _____    ______ ____
ROOT
ATOM      1  N   UNL     1      47.161  34.162  43.077  0.00  0.00    +0.000 NA
ATOM      2  C   UNL     1      46.654  35.354  42.512  0.00  0.00    +0.000 C 
ATOM      3  C   UNL     1      45.162  35.570  42.718  0.00  0.00    +0.000 C 
ATOM      4  C   UNL     1      44.638  35.041  44.032  0.00  0.00    +0.000 C 
ATOM      5  C   UNL     1      45.756  34.483  44.898  0.00  0.00    +0.000 C 
ATOM      6  C   UNL     1      46.419  33.397  43.958  0.00  0.00    +0.000 C 
ATOM      7  H   UNL     1      46.843  35.527  41.450  0.00  0.00    +0.000 HD
ATOM      8  H   UNL     1      47.149  36.211  43.049  0.00  0.00    +0.000 HD
ATOM      9  H   UNL     1      44.923  36.644  42.616  0.00  0.00    +0.000 HD
ATOM     10  H   UNL     1      44.585  35.047  41.913  0.00  0.00    +0.000 HD
ATOM     11  H   UNL     1      44.121  35.823  44.629  0.00  0.00    +0.000 HD
ATOM     12  H   UNL     1      43.902  34.203  43.898  0.00  0.00    +0.000 HD
ATOM     13  H   UNL     1      45.324  33.962  45.752  0.00  0.00    +0.000 HD
ATOM     14  H   UNL     1      46.513  35.241  45.140  0.00  0.00    +0.000 HD
ATOM     15  H   UNL     1      45.584  32.801  43.566  0.00  0.00    +0.000 HD
ENDROOT
BRANCH   1  16
ATOM     16  C   UNL     1      48.157  33.507  42.265  0.00  0.00    +0.000 C 
ATOM     17  H   UNL     1      48.754  34.302  41.767  0.00  0.00    +0.000 HD
ATOM     18  H   UNL     1      48.879  32.925  42.873  0.00  0.00    +0.000 HD
BRANCH  16  19
ATOM     19  C   UNL     1      47.453  32.653  41.258  0.00  0.00    +0.000 C 
ATOM     20  H   UNL     1      47.611  31.610  41.526  0.00  0.00    +0.000 HD
ATOM     21  H   UNL     1      46.346  32.818  41.276  0.00  0.00    +0.000 HD
BRANCH  19  24
ATOM     22  C   UNL     1      49.334  32.267  38.031  0.00  0.00    +0.000 A 
ATOM     23  C   UNL     1      48.803  32.021  39.309  0.00  0.00    +0.000 A 
ATOM     24  C   UNL     1      47.995  32.943  39.912  0.00  0.00    +0.000 A 
ATOM     25  N   UNL     1      47.743  34.064  39.236  0.00  0.00    +0.000 NA
ATOM     26  C   UNL     1      48.238  34.321  38.015  0.00  0.00    +0.000 A 
ATOM     27  N   UNL     1      49.039  33.430  37.394  0.00  0.00    +0.000 NA
ATOM     28  H   UNL     1      49.982  31.534  37.542  0.00  0.00    +0.000 HD
ATOM     29  H   UNL     1      49.089  31.087  39.725  0.00  0.00    +0.000 HD
ATOM     30  H   UNL     1      47.945  35.260  37.608  0.00  0.00    +0.000 HD
ENDBRANCH  19  24
ENDBRANCH  16  19
ENDBRANCH   1  16
BRANCH   6  31
ATOM     31  O   UNL     1      47.218  32.721  44.866  0.00  0.00    +0.000 OA
BRANCH  31  33
ATOM     32  O   UNL     1      46.040  30.540  43.882  0.00  0.00    +0.000 OA
ATOM     33  P   UNL     1      46.701  31.156  45.136  0.00  0.00    +0.000 P 
BRANCH  33  34
ATOM     34  O   UNL     1      45.404  31.263  46.261  0.00  0.00    +0.000 OA
ATOM     35  H   UNL     1      45.818  31.722  47.057  0.00  0.00    +0.000 HD
ENDBRANCH  33  34
BRANCH  33  36
ATOM     36  O   UNL     1      47.844  30.146  45.778  0.00  0.00    +0.000 OA
BRANCH  36  37
ATOM     37  C   UNL     1      47.744  28.889  45.219  0.00  0.00    +0.000 C 
ATOM     38  H   UNL     1      46.789  28.404  45.530  0.00  0.00    +0.000 HD
ATOM     39  H   UNL     1      48.536  28.253  45.697  0.00  0.00    +0.000 HD
BRANCH  37  42
ATOM     40  N   UNL     1      46.499  26.784  43.768  0.00  0.00    +0.000 NA
ATOM     41  C   UNL     1      47.154  27.763  43.241  0.00  0.00    +0.000 C 
ATOM     42  N   UNL     1      47.928  28.853  43.784  0.00  0.00    +0.000 N 
ATOM     43  N   UNL     1      46.953  27.555  41.828  0.00  0.00    +0.000 N 
ATOM     44  H   UNL     1      46.564  28.288  41.194  0.00  0.00    +0.000 HD
ATOM     45  H   UNL     1      46.415  26.604  44.779  0.00  0.00    +0.000 HD
ATOM     46  H   UNL     1      48.434  29.352  43.018  0.00  0.00    +0.000 HD
ATOM     47  H   UNL     1      47.145  26.711  41.253  0.00  0.00    +0.000 HD
ENDBRANCH  37  42
ENDBRANCH  36  37
ENDBRANCH  33  36
ENDBRANCH  31  33
ENDBRANCH   6  31
TORSDOF 9
