
     RDKit          3D

 44 45  0  0  0  0  0  0  0  0999 V2000
   43.6592   34.9614   41.8851 C   0  0  0  0  0  0  0  0  0  0  0  0
   43.9039   33.6318   42.1803 C   0  0  0  0  0  0  0  0  0  0  0  0
   44.9714   33.3371   43.0038 C   0  0  0  0  0  0  0  0  0  0  0  0
   45.7527   34.3420   43.5034 C   0  0  0  0  0  0  0  0  0  0  0  0
   45.5311   35.6558   43.2268 C   0  0  0  0  0  0  0  0  0  0  0  0
   44.4455   35.9122   42.3930 C   0  0  0  0  0  0  0  0  0  0  0  0
   40.2273   35.7969   40.5142 C   0  0  0  0  0  0  0  0  0  0  0  0
   41.2541   35.5829   41.4677 C   0  0  0  0  0  0  0  0  0  0  0  0
   42.5110   35.2134   41.0052 C   0  0  0  0  0  0  0  0  0  0  0  0
   42.6775   35.0798   39.6600 N   0  0  0  0  0  0  0  0  0  0  0  0
   41.6895   35.2874   38.7686 C   0  0  0  0  0  0  0  0  0  0  0  0
   40.4702   35.6452   39.2070 N   0  0  0  0  0  0  0  0  0  0  0  0
   43.0464   32.5411   41.6308 C   0  0  0  0  0  0  0  0  0  0  0  0
   42.7140   31.5138   42.5737 N   0  0  0  0  0  0  0  0  0  0  0  0
   41.0323   31.1416   42.5618 S   0  0  0  0  0  0  0  0  0  0  0  0
   40.2011   32.3976   42.4557 O   0  0  0  0  0  0  0  0  0  0  0  0
   40.6512   30.3647   43.7681 O   0  0  0  0  0  0  0  0  0  0  0  0
   40.7585   30.1921   41.2111 O   0  0  0  0  0  0  0  0  0  0  0  0
   40.0786   29.0506   41.5980 C   0  0  0  0  0  0  0  0  0  0  0  0
   40.9196   27.8285   41.2168 C   0  0  0  0  0  0  0  0  0  0  0  0
   45.1747   32.2903   43.2436 H   0  0  0  0  0  0  0  0  0  0  0  0
   46.5975   34.1095   44.1556 H   0  0  0  0  0  0  0  0  0  0  0  0
   46.1011   36.5134   43.5819 H   0  0  0  0  0  0  0  0  0  0  0  0
   44.1844   36.9375   42.1109 H   0  0  0  0  0  0  0  0  0  0  0  0
   39.2374   36.0878   40.8747 H   0  0  0  0  0  0  0  0  0  0  0  0
   41.1117   35.6906   42.5132 H   0  0  0  0  0  0  0  0  0  0  0  0
   41.9148   35.1573   37.7258 H   0  0  0  0  0  0  0  0  0  0  0  0
   43.6071   32.1335   40.7519 H   0  0  0  0  0  0  0  0  0  0  0  0
   42.1334   33.0110   41.2425 H   0  0  0  0  0  0  0  0  0  0  0  0
   42.9853   31.7761   43.5494 H   0  0  0  0  0  0  0  0  0  0  0  0
   39.3199   32.3997   42.0071 H   0  0  0  0  0  0  0  0  0  0  0  0
   41.3146   30.1647   44.4909 H   0  0  0  0  0  0  0  0  0  0  0  0
   39.7854   29.0270   42.6455 H   0  0  0  0  0  0  0  0  0  0  0  0
   39.1627   29.0117   40.9480 H   0  0  0  0  0  0  0  0  0  0  0  0
   41.2455   27.8821   40.1797 H   0  0  0  0  0  0  0  0  0  0  0  0
   41.8486   27.8712   41.8591 H   0  0  0  0  0  0  0  0  0  0  0  0
   39.4398   26.2865   39.3082 N   0  0  0  0  0  0  0  0  0  0  0  0
   39.3965   26.1458   40.5733 C   0  0  0  0  0  0  0  0  0  0  0  0
   40.2573   26.6019   41.5952 N   0  0  0  0  0  0  0  0  0  0  0  0
   38.1923   25.3618   40.7232 N   0  0  0  0  0  0  0  0  0  0  0  0
   37.1901   25.5592   41.0186 H   0  0  0  0  0  0  0  0  0  0  0  0
   40.1776   26.8016   38.7759 H   0  0  0  0  0  0  0  0  0  0  0  0
   40.2565   25.9864   42.4128 H   0  0  0  0  0  0  0  0  0  0  0  0
   38.0487   24.3218   40.5502 H   0  0  0  0  0  0  0  0  0  0  0  0
  1  2  2  0
  1  6  1  0
  2  3  1  0
  3  4  2  0
  5  4  1  0
  6  5  2  0
  7  8  2  0
  9  8  1  0
  9  1  1  0
 10  9  2  0
 11 12  2  0
 11 10  1  0
 12  7  1  0
 13  2  1  0
 13 14  1  0
 15 14  1  0
 15 17  1  0
 16 15  1  0
 18 19  1  0
 18 15  1  0
 20 19  1  0
  3 21  1  0
  4 22  1  0
  5 23  1  0
  6 24  1  0
  7 25  1  0
  8 26  1  0
 11 27  1  0
 13 28  1  0
 13 29  1  0
 14 30  1  0
 16 31  1  0
 17 32  1  0
 19 33  1  0
 19 34  1  0
 20 35  1  0
 20 36  1  0
 37 38  2  3
 38 39  1  0
 38 40  1  0
 40 41  1  0
 37 42  1  0
 39 43  1  0
 40 44  1  0
 20 39  1  0
M  ISO  8  21  14  22  14  23  14  24  14  25  14  26  14  27  14  28   8
M  ISO  8  29   8  30   5  31   3  32   3  33   8  34   8  35   8  36   8
M  ISO  1  41   5
M  END
>  <DihAtoms>  (1) 
18,19,38,37

>  <DihDeg>  (1) 
178.1364590039232

$$$$
