
     RDKit          3D

 42 43  0  0  0  0  0  0  0  0999 V2000
   44.6729   35.2780   45.0723 O   0  0  0  0  0  0  0  0  0  0  0  0
   45.4932   34.2558   44.3370 P   0  0  2  0  0  0  0  0  0  0  0  0
   44.5266   33.0678   43.6526 O   0  0  0  0  0  0  0  0  0  0  0  0
   46.5178   33.4677   45.4087 O   0  0  0  0  0  0  0  0  0  0  0  0
   46.2066   32.1409   45.4226 C   0  0  0  0  0  0  0  0  0  0  0  0
   45.7483   32.0276   49.1096 C   0  0  0  0  0  0  0  0  0  0  0  0
   46.0464   32.5184   47.8285 C   0  0  0  0  0  0  0  0  0  0  0  0
   45.8913   31.6484   46.7725 C   0  0  0  0  0  0  0  0  0  0  0  0
   45.4638   30.3846   47.0343 N   0  0  0  0  0  0  0  0  0  0  0  0
   45.1850   29.9370   48.2665 C   0  0  0  0  0  0  0  0  0  0  0  0
   45.3322   30.7728   49.3002 N   0  0  0  0  0  0  0  0  0  0  0  0
   46.4126   35.0344   43.1641 O   0  0  0  0  0  0  0  0  0  0  0  0
   46.9328   34.0876   42.2846 C   0  0  1  0  0  0  0  0  0  0  0  0
   46.3914   34.2649   40.8777 C   0  0  0  0  0  0  0  0  0  0  0  0
   47.3413   33.3610   40.0934 C   0  0  0  0  0  0  0  0  0  0  0  0
   48.6330   33.3512   40.8724 C   0  0  0  0  0  0  0  0  0  0  0  0
   48.4099   34.2923   42.0410 C   0  0  1  0  0  0  0  0  0  0  0  0
   48.7691   35.7124   41.7169 C   0  0  0  0  0  0  0  0  0  0  0  0
   44.8202   32.6891   42.8201 H   0  0  0  0  0  0  0  0  0  0  0  0
   47.1498   31.5995   45.1307 H   0  0  0  0  0  0  0  0  0  0  0  0
   45.4509   31.7768   44.7374 H   0  0  0  0  0  0  0  0  0  0  0  0
   45.8741   32.7230   49.9572 H   0  0  0  0  0  0  0  0  0  0  0  0
   46.3791   33.5388   47.7267 H   0  0  0  0  0  0  0  0  0  0  0  0
   44.8553   28.9128   48.3227 H   0  0  0  0  0  0  0  0  0  0  0  0
   46.8097   33.0409   42.6279 H   0  0  0  0  0  0  0  0  0  0  0  0
   45.3715   33.8646   40.8179 H   0  0  0  0  0  0  0  0  0  0  0  0
   46.4907   35.3035   40.5780 H   0  0  0  0  0  0  0  0  0  0  0  0
   47.4574   33.6802   39.0571 H   0  0  0  0  0  0  0  0  0  0  0  0
   46.9129   32.3419   40.1248 H   0  0  0  0  0  0  0  0  0  0  0  0
   48.9355   32.3592   41.2056 H   0  0  0  0  0  0  0  0  0  0  0  0
   49.3939   33.8512   40.2270 H   0  0  0  0  0  0  0  0  0  0  0  0
   49.0026   33.9325   42.9269 H   0  0  0  0  0  0  0  0  0  0  0  0
   48.3404   36.0599   40.7821 H   0  0  0  0  0  0  0  0  0  0  0  0
   48.5676   36.4053   42.5549 H   0  0  0  0  0  0  0  0  0  0  0  0
   50.4652   34.6936   43.5893 N   0  0  0  0  0  0  0  0  0  0  0  0
   50.9816   34.8914   42.4043 C   0  0  0  0  0  0  0  0  0  0  0  0
   50.2264   35.7227   41.5221 N   0  0  0  0  0  0  0  0  0  0  0  0
   52.2397   34.3088   42.0067 N   0  0  0  0  0  0  0  0  0  0  0  0
   52.0595   33.3880   41.5165 H   0  0  0  0  0  0  0  0  0  0  0  0
   50.9278   34.1048   44.3153 H   0  0  0  0  0  0  0  0  0  0  0  0
   50.7329   36.2758   40.8093 H   0  0  0  0  0  0  0  0  0  0  0  0
   53.2920   34.4196   42.0001 H   0  0  0  0  0  0  0  0  0  0  0  0
  2  1  2  0
  2  4  1  1
  3  2  1  0
  4  5  1  0
  5  8  1  0
  6 11  2  0
  7  6  1  0
  8  9  1  0
  8  7  2  0
  9 10  2  0
 10 11  1  0
 12  2  1  0
 13 12  1  0
 14 13  1  0
 15 16  1  0
 15 14  1  0
 16 17  1  0
 17 13  1  0
 18 17  1  0
  3 19  1  0
  5 20  1  0
  5 21  1  0
  6 22  1  0
  7 23  1  0
 10 24  1  0
 13 25  1  1
 14 26  1  0
 14 27  1  0
 15 28  1  0
 15 29  1  0
 16 30  1  0
 16 31  1  0
 17 32  1  1
 18 33  1  0
 18 34  1  0
 35 36  2  3
 36 37  1  0
 36 38  1  0
 38 39  1  0
 35 40  1  0
 37 41  1  0
 38 42  1  0
 18 37  1  0
M  ISO  8  19   3  20   8  21   8  22  14  23  14  24  14  25  13  26  13
M  ISO  8  27  13  28  13  29  13  30  13  31  13  32  13  33   8  34   8
M  ISO  1  39   5
M  END
>  <DihAtoms>  (1) 
16,17,36,35

>  <DihDeg>  (1) 
-68.45497611988876

$$$$
