
 OpenBabel03252509043D

 47 48  0  0  1  0  0  0  0  0999 V2000
   46.7470   34.3560   43.6610 N   0  0  0  0  0  0  0  0  0  0  0  0
   46.3550   35.1710   42.5750 C   0  0  0  0  0  0  0  0  0  0  0  0
   44.8500   35.3040   42.3920 C   0  0  0  0  0  0  0  0  0  0  0  0
   44.0690   35.2920   43.6850 C   0  0  0  0  0  0  0  0  0  0  0  0
   44.9870   35.2350   44.8950 C   0  0  0  0  0  0  0  0  0  0  0  0
   45.8470   33.9350   44.6220 C   0  0  2  0  0  0  0  0  0  0  0  0
   46.7600   34.9260   41.5910 H   0  0  0  0  0  0  0  0  0  0  0  0
   46.7150   36.2140   42.7970 H   0  0  0  0  0  0  0  0  0  0  0  0
   44.6240   36.2210   41.8180 H   0  0  0  0  0  0  0  0  0  0  0  0
   44.4620   34.4520   41.7790 H   0  0  0  0  0  0  0  0  0  0  0  0
   43.4280   36.1920   43.8030 H   0  0  0  0  0  0  0  0  0  0  0  0
   43.3880   34.4020   43.7700 H   0  0  0  0  0  0  0  0  0  0  0  0
   44.3920   35.0560   45.7900 H   0  0  0  0  0  0  0  0  0  0  0  0
   45.6670   36.0960   44.9430 H   0  0  0  0  0  0  0  0  0  0  0  0
   45.1200   33.1540   44.3590 H   0  0  0  0  0  0  0  0  0  0  0  0
   47.9000   33.5330   43.3890 C   0  0  0  0  0  0  0  0  0  0  0  0
   48.6080   34.1430   42.7870 H   0  0  0  0  0  0  0  0  0  0  0  0
   48.4490   33.2590   44.3120 H   0  0  0  0  0  0  0  0  0  0  0  0
   47.4460   32.3280   42.6260 C   0  0  0  0  0  0  0  0  0  0  0  0
   47.6200   31.4490   43.2440 H   0  0  0  0  0  0  0  0  0  0  0  0
   46.3450   32.3560   42.4230 H   0  0  0  0  0  0  0  0  0  0  0  0
   50.2240   31.6700   40.1870 C   0  0  0  0  0  0  0  0  0  0  0  0
   49.4800   31.7620   41.3760 C   0  0  0  0  0  0  0  0  0  0  0  0
   48.2010   32.2440   41.3570 C   0  0  0  0  0  0  0  0  0  0  0  0
   47.7090   32.6120   40.1740 N   0  0  0  0  0  0  0  0  0  0  0  0
   48.4000   32.5330   39.0260 C   0  0  0  0  0  0  0  0  0  0  0  0
   49.6650   32.0620   39.0130 N   0  0  0  0  0  0  0  0  0  0  0  0
   51.2480   31.2860   40.1950 H   0  0  0  0  0  0  0  0  0  0  0  0
   50.0000   31.4320   42.2410 H   0  0  0  0  0  0  0  0  0  0  0  0
   47.8690   32.8670   38.1660 H   0  0  0  0  0  0  0  0  0  0  0  0
   46.4460   33.7560   45.8590 O   0  0  0  0  0  0  0  0  0  0  0  0
   45.6840   31.2400   45.4070 O   0  0  0  0  0  0  0  0  0  0  0  0
   46.1850   32.2290   46.4840 P   0  0  2  0  0  0  0  0  0  0  0  0
   44.8450   32.3680   47.5540 O   0  0  0  0  0  0  0  0  0  0  0  0
   45.1470   33.0600   48.2220 H   0  0  0  0  0  0  0  0  0  0  0  0
   47.4530   31.6010   47.3410 O   0  0  0  0  0  0  0  0  0  0  0  0
   47.5190   30.2340   47.1710 C   0  0  0  0  0  0  0  0  0  0  0  0
   46.4970   29.7910   47.2160 H   0  0  0  0  0  0  0  0  0  0  0  0
   48.0330   29.8150   48.0770 H   0  0  0  0  0  0  0  0  0  0  0  0
   50.1530   29.2220   47.5170 N   0  0  0  0  0  0  0  0  0  0  0  0
   49.5150   29.2600   46.3990 C   0  0  0  0  0  0  0  0  0  0  0  0
   48.2430   29.8090   45.9930 N   0  0  0  0  0  0  0  0  0  0  0  0
   50.4060   28.5680   45.5000 N   0  0  0  0  0  0  0  0  0  0  0  0
   50.1130   27.7460   44.9270 H   0  0  0  0  0  0  0  0  0  0  0  0
   49.8190   29.6250   48.4050 H   0  0  0  0  0  0  0  0  0  0  0  0
   48.1500   29.7700   44.9540 H   0  0  0  0  0  0  0  0  0  0  0  0
   51.4070   28.7570   45.2900 H   0  0  0  0  0  0  0  0  0  0  0  0
  1  6  1  0  0  0  0
  2  8  1  0  0  0  0
  2  1  1  0  0  0  0
  3  2  1  0  0  0  0
  3  4  1  0  0  0  0
  4 12  1  0  0  0  0
  4 11  1  0  0  0  0
  4  5  1  0  0  0  0
  5 14  1  0  0  0  0
  5 13  1  0  0  0  0
  6 15  1  6  0  0  0
  6  5  1  0  0  0  0
  6 31  1  0  0  0  0
  7  2  1  0  0  0  0
  9  3  1  0  0  0  0
 10  3  1  0  0  0  0
 16  1  1  0  0  0  0
 16 18  1  0  0  0  0
 17 16  1  0  0  0  0
 19 20  1  0  0  0  0
 19 16  1  0  0  0  0
 21 19  1  0  0  0  0
 22 28  1  0  0  0  0
 22 23  1  0  0  0  0
 23 29  1  0  0  0  0
 24 23  2  0  0  0  0
 24 19  1  0  0  0  0
 25 24  1  0  0  0  0
 26 25  2  0  0  0  0
 27 26  1  0  0  0  0
 27 22  2  0  0  0  0
 30 26  1  0  0  0  0
 31 33  1  0  0  0  0
 33 32  2  6  0  0  0
 33 36  1  0  0  0  0
 33 34  1  0  0  0  0
 34 35  1  0  0  0  0
 37 38  1  0  0  0  0
 37 36  1  0  0  0  0
 37 39  1  0  0  0  0
 40 45  1  0  0  0  0
 41 40  2  0  0  0  0
 42 41  1  0  0  0  0
 42 37  1  0  0  0  0
 43 41  1  0  0  0  0
 44 43  1  0  0  0  0
 46 42  1  0  0  0  0
 47 43  1  0  0  0  0
M  END
>  <minimizedAffinity>
-4.06994772

>  <minimizedRMSD>
2.48224783

$$$$
