
 OpenBabel03252508353D

 34 35  0  0  1  0  0  0  0  0999 V2000
   36.9150   29.2870   39.3240 N   0  0  0  0  0  0  0  0  0  0  0  0
   36.3420   30.4560   39.9210 C   0  0  1  0  0  0  0  0  0  0  0  0
   36.4930   30.5730   41.3880 C   0  0  0  0  0  0  0  0  0  0  0  0
   36.4520   29.3890   42.1130 N   0  0  0  0  0  0  0  0  0  0  0  0
   36.8250   28.1900   41.5020 C   0  0  0  0  0  0  0  0  0  0  0  0
   37.6230   28.4610   40.2490 C   0  0  0  0  0  0  0  0  0  0  0  0
   35.2440   30.4680   39.6660 H   0  0  0  0  0  0  0  0  0  0  0  0
   37.4590   31.0820   41.5870 H   0  0  0  0  0  0  0  0  0  0  0  0
   35.7050   31.2940   41.7550 H   0  0  0  0  0  0  0  0  0  0  0  0
   35.9620   29.3540   43.0000 H   0  0  0  0  0  0  0  0  0  0  0  0
   37.4880   27.6260   42.2010 H   0  0  0  0  0  0  0  0  0  0  0  0
   35.9860   27.4840   41.2620 H   0  0  0  0  0  0  0  0  0  0  0  0
   38.6030   28.9300   40.5500 H   0  0  0  0  0  0  0  0  0  0  0  0
   37.8840   27.4940   39.7720 H   0  0  0  0  0  0  0  0  0  0  0  0
   37.8690   28.7100   37.2370 C   0  0  0  0  0  0  0  0  0  0  0  0
   36.7280   29.0860   37.9550 C   0  0  0  0  0  0  0  0  0  0  0  0
   35.5280   29.2250   37.2550 C   0  0  0  0  0  0  0  0  0  0  0  0
   35.4800   29.0020   35.9260 N   0  0  0  0  0  0  0  0  0  0  0  0
   36.6020   28.6370   35.2510 C   0  0  0  0  0  0  0  0  0  0  0  0
   37.7830   28.4910   35.8850 N   0  0  0  0  0  0  0  0  0  0  0  0
   38.8230   28.5870   37.7210 H   0  0  0  0  0  0  0  0  0  0  0  0
   34.6650   29.5160   37.8350 H   0  0  0  0  0  0  0  0  0  0  0  0
   36.6410   28.4410   34.1890 H   0  0  0  0  0  0  0  0  0  0  0  0
   36.9670   31.6830   39.2780 C   0  0  0  0  0  0  0  0  0  0  0  0
   36.3790   31.9240   38.3470 H   0  0  0  0  0  0  0  0  0  0  0  0
   37.9790   31.4040   38.9230 H   0  0  0  0  0  0  0  0  0  0  0  0
   39.0080   33.6790   39.2050 N   0  0  0  0  0  0  0  0  0  0  0  0
   38.2540   33.5410   40.2440 C   0  0  0  0  0  0  0  0  0  0  0  0
   37.0170   32.8010   40.1780 N   0  0  0  0  0  0  0  0  0  0  0  0
   38.7170   34.1590   41.4500 N   0  0  0  0  0  0  0  0  0  0  0  0
   39.5190   33.6650   41.9230 H   0  0  0  0  0  0  0  0  0  0  0  0
   38.7640   33.2740   38.2960 H   0  0  0  0  0  0  0  0  0  0  0  0
   36.2570   33.1530   40.8030 H   0  0  0  0  0  0  0  0  0  0  0  0
   38.3530   35.0270   41.9030 H   0  0  0  0  0  0  0  0  0  0  0  0
  1  2  1  0  0  0  0
  1  6  1  0  0  0  0
  2  7  1  6  0  0  0
  2  3  1  0  0  0  0
  3  8  1  0  0  0  0
  3  9  1  0  0  0  0
  3  4  1  0  0  0  0
  4 10  1  0  0  0  0
  5  4  1  0  0  0  0
  5 11  1  0  0  0  0
  6 13  1  0  0  0  0
  6  5  1  0  0  0  0
 12  5  1  0  0  0  0
 14  6  1  0  0  0  0
 15 21  1  0  0  0  0
 15 16  1  0  0  0  0
 16  1  1  0  0  0  0
 17 22  1  0  0  0  0
 17 16  2  0  0  0  0
 18 17  1  0  0  0  0
 19 20  1  0  0  0  0
 19 18  2  0  0  0  0
 20 15  2  0  0  0  0
 23 19  1  0  0  0  0
 24  2  1  0  0  0  0
 24 29  1  0  0  0  0
 25 24  1  0  0  0  0
 26 24  1  0  0  0  0
 27 28  2  0  0  0  0
 28 30  1  0  0  0  0
 29 28  1  0  0  0  0
 29 33  1  0  0  0  0
 30 34  1  0  0  0  0
 30 31  1  0  0  0  0
 32 27  1  0  0  0  0
M  END
>  <minimizedAffinity>
-4.99264145

$$$$

 OpenBabel03252508353D

 34 35  0  0  1  0  0  0  0  0999 V2000
   37.5950   29.0180   39.4930 N   0  0  0  0  0  0  0  0  0  0  0  0
   37.7760   30.3920   39.1320 C   0  0  1  0  0  0  0  0  0  0  0  0
   37.9060   30.6690   37.6840 C   0  0  0  0  0  0  0  0  0  0  0  0
   38.5620   29.7070   36.9260 N   0  0  0  0  0  0  0  0  0  0  0  0
   38.5690   28.3770   37.3500 C   0  0  0  0  0  0  0  0  0  0  0  0
   37.4830   28.1420   38.3700 C   0  0  0  0  0  0  0  0  0  0  0  0
   38.6990   30.7670   39.6590 H   0  0  0  0  0  0  0  0  0  0  0  0
   36.8840   30.8120   37.2750 H   0  0  0  0  0  0  0  0  0  0  0  0
   38.4070   31.6740   37.5740 H   0  0  0  0  0  0  0  0  0  0  0  0
   39.2030   29.9900   36.1920 H   0  0  0  0  0  0  0  0  0  0  0  0
   38.3460   27.7230   36.4720 H   0  0  0  0  0  0  0  0  0  0  0  0
   39.5460   27.9990   37.7530 H   0  0  0  0  0  0  0  0  0  0  0  0
   36.4850   28.2600   37.8580 H   0  0  0  0  0  0  0  0  0  0  0  0
   37.5270   27.0850   38.7070 H   0  0  0  0  0  0  0  0  0  0  0  0
   38.6980   29.0100   41.5860 C   0  0  0  0  0  0  0  0  0  0  0  0
   37.5500   28.6930   40.8490 C   0  0  0  0  0  0  0  0  0  0  0  0
   36.4830   28.0930   41.5220 C   0  0  0  0  0  0  0  0  0  0  0  0
   36.5660   27.8300   42.8420 N   0  0  0  0  0  0  0  0  0  0  0  0
   37.6910   28.1480   43.5350 C   0  0  0  0  0  0  0  0  0  0  0  0
   38.7460   28.7280   42.9280 N   0  0  0  0  0  0  0  0  0  0  0  0
   39.5520   29.4730   41.1240 H   0  0  0  0  0  0  0  0  0  0  0  0
   35.6120   27.8610   40.9290 H   0  0  0  0  0  0  0  0  0  0  0  0
   37.8300   27.9680   44.5920 H   0  0  0  0  0  0  0  0  0  0  0  0
   36.5980   31.1910   39.6650 C   0  0  0  0  0  0  0  0  0  0  0  0
   35.8410   30.4620   40.0730 H   0  0  0  0  0  0  0  0  0  0  0  0
   36.0990   31.6810   38.8030 H   0  0  0  0  0  0  0  0  0  0  0  0
   37.0390   33.9540   39.0930 N   0  0  0  0  0  0  0  0  0  0  0  0
   37.4920   33.4220   40.1780 C   0  0  0  0  0  0  0  0  0  0  0  0
   36.9970   32.1530   40.6540 N   0  0  0  0  0  0  0  0  0  0  0  0
   38.5060   34.1600   40.8720 N   0  0  0  0  0  0  0  0  0  0  0  0
   39.4580   34.1380   40.4210 H   0  0  0  0  0  0  0  0  0  0  0  0
   36.3140   33.5040   38.5260 H   0  0  0  0  0  0  0  0  0  0  0  0
   36.9740   32.0480   41.6930 H   0  0  0  0  0  0  0  0  0  0  0  0
   38.4040   34.7050   41.7570 H   0  0  0  0  0  0  0  0  0  0  0  0
  1 16  1  0  0  0  0
  2  1  1  0  0  0  0
  2  7  1  1  0  0  0
  2 24  1  0  0  0  0
  3  2  1  0  0  0  0
  4  5  1  0  0  0  0
  4  3  1  0  0  0  0
  5 12  1  0  0  0  0
  5  6  1  0  0  0  0
  6 14  1  0  0  0  0
  6  1  1  0  0  0  0
  8  3  1  0  0  0  0
  9  3  1  0  0  0  0
 10  4  1  0  0  0  0
 11  5  1  0  0  0  0
 13  6  1  0  0  0  0
 15 20  1  0  0  0  0
 16 17  1  0  0  0  0
 16 15  2  0  0  0  0
 17 18  2  0  0  0  0
 18 19  1  0  0  0  0
 19 23  1  0  0  0  0
 20 19  2  0  0  0  0
 21 15  1  0  0  0  0
 22 17  1  0  0  0  0
 24 25  1  0  0  0  0
 24 29  1  0  0  0  0
 26 24  1  0  0  0  0
 27 28  2  0  0  0  0
 28 29  1  0  0  0  0
 28 30  1  0  0  0  0
 29 33  1  0  0  0  0
 30 34  1  0  0  0  0
 31 30  1  0  0  0  0
 32 27  1  0  0  0  0
M  END
>  <minimizedAffinity>
-4.87322474

$$$$

 OpenBabel03252508353D

 34 35  0  0  1  0  0  0  0  0999 V2000
   38.6020   29.9300   40.4750 N   0  0  0  0  0  0  0  0  0  0  0  0
   37.2150   30.2130   40.2560 C   0  0  1  0  0  0  0  0  0  0  0  0
   36.3840   30.3610   41.4710 C   0  0  0  0  0  0  0  0  0  0  0  0
   36.7180   29.5550   42.5520 N   0  0  0  0  0  0  0  0  0  0  0  0
   38.0290   29.0980   42.6970 C   0  0  0  0  0  0  0  0  0  0  0  0
   38.9720   29.9240   41.8550 C   0  0  0  0  0  0  0  0  0  0  0  0
   36.7910   29.3810   39.6230 H   0  0  0  0  0  0  0  0  0  0  0  0
   36.4360   31.4240   41.7870 H   0  0  0  0  0  0  0  0  0  0  0  0
   35.3090   30.2000   41.1690 H   0  0  0  0  0  0  0  0  0  0  0  0
   35.9870   29.1280   43.1110 H   0  0  0  0  0  0  0  0  0  0  0  0
   38.3360   29.2310   43.7630 H   0  0  0  0  0  0  0  0  0  0  0  0
   38.1930   28.0090   42.4790 H   0  0  0  0  0  0  0  0  0  0  0  0
   38.9990   30.9690   42.2760 H   0  0  0  0  0  0  0  0  0  0  0  0
   40.0010   29.5240   41.9700 H   0  0  0  0  0  0  0  0  0  0  0  0
   40.6260   30.3960   39.3420 C   0  0  0  0  0  0  0  0  0  0  0  0
   39.4120   29.6990   39.3630 C   0  0  0  0  0  0  0  0  0  0  0  0
   39.1240   28.8520   38.2910 C   0  0  0  0  0  0  0  0  0  0  0  0
   39.9960   28.7160   37.2700 N   0  0  0  0  0  0  0  0  0  0  0  0
   41.1680   29.4040   37.2750 C   0  0  0  0  0  0  0  0  0  0  0  0
   41.4890   30.2330   38.2880 N   0  0  0  0  0  0  0  0  0  0  0  0
   40.9040   31.0640   40.1390 H   0  0  0  0  0  0  0  0  0  0  0  0
   38.1810   28.3280   38.3330 H   0  0  0  0  0  0  0  0  0  0  0  0
   41.9140   29.3450   36.4950 H   0  0  0  0  0  0  0  0  0  0  0  0
   37.1060   31.4950   39.4460 C   0  0  0  0  0  0  0  0  0  0  0  0
   36.1650   31.4350   38.8270 H   0  0  0  0  0  0  0  0  0  0  0  0
   37.9380   31.5090   38.7140 H   0  0  0  0  0  0  0  0  0  0  0  0
   39.0670   33.5590   39.2310 N   0  0  0  0  0  0  0  0  0  0  0  0
   38.3280   33.4540   40.2850 C   0  0  0  0  0  0  0  0  0  0  0  0
   37.1210   32.6660   40.2780 N   0  0  0  0  0  0  0  0  0  0  0  0
   38.7790   34.1600   41.4480 N   0  0  0  0  0  0  0  0  0  0  0  0
   39.6030   33.7260   41.9400 H   0  0  0  0  0  0  0  0  0  0  0  0
   38.8300   33.0920   38.3500 H   0  0  0  0  0  0  0  0  0  0  0  0
   36.3530   33.0250   40.8890 H   0  0  0  0  0  0  0  0  0  0  0  0
   38.3840   35.0390   41.8520 H   0  0  0  0  0  0  0  0  0  0  0  0
  1  6  1  0  0  0  0
  2  7  1  6  0  0  0
  2  1  1  0  0  0  0
  2  3  1  0  0  0  0
  3  8  1  0  0  0  0
  3  4  1  0  0  0  0
  4  5  1  0  0  0  0
  4 10  1  0  0  0  0
  5 11  1  0  0  0  0
  6 14  1  0  0  0  0
  6 13  1  0  0  0  0
  6  5  1  0  0  0  0
  9  3  1  0  0  0  0
 12  5  1  0  0  0  0
 15 16  1  0  0  0  0
 15 21  1  0  0  0  0
 16  1  1  0  0  0  0
 17 22  1  0  0  0  0
 17 16  2  0  0  0  0
 18 19  2  0  0  0  0
 18 17  1  0  0  0  0
 19 20  1  0  0  0  0
 20 15  2  0  0  0  0
 23 19  1  0  0  0  0
 24  2  1  0  0  0  0
 24 29  1  0  0  0  0
 25 24  1  0  0  0  0
 26 24  1  0  0  0  0
 27 28  2  0  0  0  0
 28 30  1  0  0  0  0
 29 28  1  0  0  0  0
 29 33  1  0  0  0  0
 30 34  1  0  0  0  0
 30 31  1  0  0  0  0
 32 27  1  0  0  0  0
M  END
>  <minimizedAffinity>
-4.79185629

$$$$

 OpenBabel03252508353D

 34 35  0  0  1  0  0  0  0  0999 V2000
   38.1070   30.4090   39.0330 N   0  0  0  0  0  0  0  0  0  0  0  0
   38.5100   31.7320   38.6600 C   0  0  1  0  0  0  0  0  0  0  0  0
   38.2470   32.7930   39.6570 C   0  0  0  0  0  0  0  0  0  0  0  0
   37.0930   32.6570   40.4180 N   0  0  0  0  0  0  0  0  0  0  0  0
   36.5590   31.3870   40.6450 C   0  0  0  0  0  0  0  0  0  0  0  0
   37.5900   30.3220   40.3610 C   0  0  0  0  0  0  0  0  0  0  0  0
   37.9800   31.9950   37.7000 H   0  0  0  0  0  0  0  0  0  0  0  0
   39.1220   32.8400   40.3380 H   0  0  0  0  0  0  0  0  0  0  0  0
   38.2520   33.7810   39.1120 H   0  0  0  0  0  0  0  0  0  0  0  0
   36.5260   33.4710   40.6300 H   0  0  0  0  0  0  0  0  0  0  0  0
   36.2860   31.3040   41.7250 H   0  0  0  0  0  0  0  0  0  0  0  0
   35.6150   31.1490   40.0870 H   0  0  0  0  0  0  0  0  0  0  0  0
   38.4120   30.4130   41.1270 H   0  0  0  0  0  0  0  0  0  0  0  0
   37.1330   29.3240   40.5260 H   0  0  0  0  0  0  0  0  0  0  0  0
   39.0620   28.3120   38.4940 C   0  0  0  0  0  0  0  0  0  0  0  0
   38.2570   29.3860   38.0950 C   0  0  0  0  0  0  0  0  0  0  0  0
   37.6860   29.3410   36.8220 C   0  0  0  0  0  0  0  0  0  0  0  0
   37.9100   28.2890   36.0070 N   0  0  0  0  0  0  0  0  0  0  0  0
   38.6950   27.2590   36.4180 C   0  0  0  0  0  0  0  0  0  0  0  0
   39.2670   27.2590   37.6380 N   0  0  0  0  0  0  0  0  0  0  0  0
   39.5290   28.2890   39.4630 H   0  0  0  0  0  0  0  0  0  0  0  0
   37.0700   30.1820   36.5410 H   0  0  0  0  0  0  0  0  0  0  0  0
   38.9180   26.3850   35.8220 H   0  0  0  0  0  0  0  0  0  0  0  0
   40.0000   31.7180   38.3620 C   0  0  0  0  0  0  0  0  0  0  0  0
   40.2660   30.6940   37.9730 H   0  0  0  0  0  0  0  0  0  0  0  0
   40.5420   31.8170   39.3240 H   0  0  0  0  0  0  0  0  0  0  0  0
   42.5470   31.8300   37.0730 N   0  0  0  0  0  0  0  0  0  0  0  0
   41.7800   32.8680   37.1170 C   0  0  0  0  0  0  0  0  0  0  0  0
   40.3790   32.7520   37.4390 N   0  0  0  0  0  0  0  0  0  0  0  0
   42.4010   34.1270   36.8300 N   0  0  0  0  0  0  0  0  0  0  0  0
   43.0160   34.5050   37.5990 H   0  0  0  0  0  0  0  0  0  0  0  0
   42.1970   30.8850   37.2630 H   0  0  0  0  0  0  0  0  0  0  0  0
   39.7560   33.4430   36.9620 H   0  0  0  0  0  0  0  0  0  0  0  0
   42.3110   34.6990   35.9610 H   0  0  0  0  0  0  0  0  0  0  0  0
  1  6  1  0  0  0  0
  2  7  1  6  0  0  0
  2  1  1  0  0  0  0
  2  3  1  0  0  0  0
  3  8  1  0  0  0  0
  3  4  1  0  0  0  0
  4 10  1  0  0  0  0
  4  5  1  0  0  0  0
  5 11  1  0  0  0  0
  6 14  1  0  0  0  0
  6  5  1  0  0  0  0
  6 13  1  0  0  0  0
  9  3  1  0  0  0  0
 12  5  1  0  0  0  0
 15 21  1  0  0  0  0
 16 15  1  0  0  0  0
 16  1  1  0  0  0  0
 17 16  2  0  0  0  0
 18 19  2  0  0  0  0
 18 17  1  0  0  0  0
 19 20  1  0  0  0  0
 20 15  2  0  0  0  0
 22 17  1  0  0  0  0
 23 19  1  0  0  0  0
 24  2  1  0  0  0  0
 24 26  1  0  0  0  0
 25 24  1  0  0  0  0
 27 28  2  0  0  0  0
 27 32  1  0  0  0  0
 28 29  1  0  0  0  0
 29 24  1  0  0  0  0
 30 28  1  0  0  0  0
 30 31  1  0  0  0  0
 33 29  1  0  0  0  0
 34 30  1  0  0  0  0
M  END
>  <minimizedAffinity>
-4.78212214

$$$$

 OpenBabel03252508353D

 34 35  0  0  1  0  0  0  0  0999 V2000
   38.8850   30.9010   40.6730 N   0  0  0  0  0  0  0  0  0  0  0  0
   38.1290   32.1160   40.7390 C   0  0  1  0  0  0  0  0  0  0  0  0
   38.8920   33.3650   40.5230 C   0  0  0  0  0  0  0  0  0  0  0  0
   40.1960   33.3860   41.0010 N   0  0  0  0  0  0  0  0  0  0  0  0
   40.9050   32.1910   41.1310 C   0  0  0  0  0  0  0  0  0  0  0  0
   40.2540   31.0990   40.3170 C   0  0  0  0  0  0  0  0  0  0  0  0
   37.6390   32.1590   41.7540 H   0  0  0  0  0  0  0  0  0  0  0  0
   38.9070   33.5660   39.4310 H   0  0  0  0  0  0  0  0  0  0  0  0
   38.2910   34.2120   40.9660 H   0  0  0  0  0  0  0  0  0  0  0  0
   40.5590   34.2210   41.4470 H   0  0  0  0  0  0  0  0  0  0  0  0
   41.9330   32.3410   40.7210 H   0  0  0  0  0  0  0  0  0  0  0  0
   41.0610   31.8280   42.1820 H   0  0  0  0  0  0  0  0  0  0  0  0
   40.3600   31.3610   39.2260 H   0  0  0  0  0  0  0  0  0  0  0  0
   40.8230   30.1560   40.4580 H   0  0  0  0  0  0  0  0  0  0  0  0
   37.6810   29.5950   42.2350 C   0  0  0  0  0  0  0  0  0  0  0  0
   38.2300   29.7010   40.9510 C   0  0  0  0  0  0  0  0  0  0  0  0
   38.0780   28.6200   40.0810 C   0  0  0  0  0  0  0  0  0  0  0  0
   37.4190   27.5100   40.4750 N   0  0  0  0  0  0  0  0  0  0  0  0
   36.8950   27.4320   41.7260 C   0  0  0  0  0  0  0  0  0  0  0  0
   37.0180   28.4510   42.6010 N   0  0  0  0  0  0  0  0  0  0  0  0
   37.7660   30.3940   42.9510 H   0  0  0  0  0  0  0  0  0  0  0  0
   38.5110   28.7300   39.0990 H   0  0  0  0  0  0  0  0  0  0  0  0
   36.3560   26.5780   42.1110 H   0  0  0  0  0  0  0  0  0  0  0  0
   37.0180   32.0520   39.7040 C   0  0  0  0  0  0  0  0  0  0  0  0
   36.0940   32.5110   40.1590 H   0  0  0  0  0  0  0  0  0  0  0  0
   36.7660   30.9850   39.5390 H   0  0  0  0  0  0  0  0  0  0  0  0
   37.3170   30.6730   37.2210 N   0  0  0  0  0  0  0  0  0  0  0  0
   37.8100   31.8550   37.3860 C   0  0  0  0  0  0  0  0  0  0  0  0
   37.3830   32.6990   38.4750 N   0  0  0  0  0  0  0  0  0  0  0  0
   38.7950   32.2700   36.4320 N   0  0  0  0  0  0  0  0  0  0  0  0
   39.7420   31.8210   36.5470 H   0  0  0  0  0  0  0  0  0  0  0  0
   36.6070   30.2850   37.8500 H   0  0  0  0  0  0  0  0  0  0  0  0
   37.3780   33.7230   38.2660 H   0  0  0  0  0  0  0  0  0  0  0  0
   38.6790   32.9550   35.6530 H   0  0  0  0  0  0  0  0  0  0  0  0
  1  2  1  0  0  0  0
  1 16  1  0  0  0  0
  2  7  1  1  0  0  0
  3  2  1  0  0  0  0
  3  9  1  0  0  0  0
  3  4  1  0  0  0  0
  4  5  1  0  0  0  0
  4 10  1  0  0  0  0
  5 12  1  0  0  0  0
  6 14  1  0  0  0  0
  6  1  1  0  0  0  0
  6  5  1  0  0  0  0
  8  3  1  0  0  0  0
 11  5  1  0  0  0  0
 13  6  1  0  0  0  0
 15 20  1  0  0  0  0
 15 21  1  0  0  0  0
 16 15  2  0  0  0  0
 17 18  2  0  0  0  0
 17 16  1  0  0  0  0
 18 19  1  0  0  0  0
 19 23  1  0  0  0  0
 19 20  2  0  0  0  0
 22 17  1  0  0  0  0
 24 25  1  0  0  0  0
 24  2  1  0  0  0  0
 26 24  1  0  0  0  0
 27 28  2  0  0  0  0
 27 32  1  0  0  0  0
 28 29  1  0  0  0  0
 29 24  1  0  0  0  0
 30 31  1  0  0  0  0
 30 28  1  0  0  0  0
 33 29  1  0  0  0  0
 34 30  1  0  0  0  0
M  END
>  <minimizedAffinity>
-4.7546792

$$$$

 OpenBabel03252508353D

 34 35  0  0  1  0  0  0  0  0999 V2000
   38.7190   27.3630   41.3150 N   0  0  0  0  0  0  0  0  0  0  0  0
   38.4230   28.1120   42.5000 C   0  0  1  0  0  0  0  0  0  0  0  0
   39.3190   29.2550   42.7840 C   0  0  0  0  0  0  0  0  0  0  0  0
   40.6540   29.0990   42.4320 N   0  0  0  0  0  0  0  0  0  0  0  0
   41.0000   28.2250   41.4000 C   0  0  0  0  0  0  0  0  0  0  0  0
   39.7950   27.9070   40.5490 C   0  0  0  0  0  0  0  0  0  0  0  0
   38.4540   27.3990   43.3730 H   0  0  0  0  0  0  0  0  0  0  0  0
   38.9110   30.1420   42.2550 H   0  0  0  0  0  0  0  0  0  0  0  0
   39.2210   29.5000   43.8810 H   0  0  0  0  0  0  0  0  0  0  0  0
   41.3840   29.4450   43.0450 H   0  0  0  0  0  0  0  0  0  0  0  0
   41.7460   28.7320   40.7400 H   0  0  0  0  0  0  0  0  0  0  0  0
   41.4950   27.2680   41.7160 H   0  0  0  0  0  0  0  0  0  0  0  0
   39.4810   28.8490   40.0150 H   0  0  0  0  0  0  0  0  0  0  0  0
   40.0930   27.1940   39.7530 H   0  0  0  0  0  0  0  0  0  0  0  0
   38.0450   25.1990   41.9940 C   0  0  0  0  0  0  0  0  0  0  0  0
   37.9560   26.2260   41.0460 C   0  0  0  0  0  0  0  0  0  0  0  0
   37.1300   26.0270   39.9390 C   0  0  0  0  0  0  0  0  0  0  0  0
   36.4420   24.8750   39.7950 N   0  0  0  0  0  0  0  0  0  0  0  0
   36.5450   23.8940   40.7290 C   0  0  0  0  0  0  0  0  0  0  0  0
   37.3300   24.0420   41.8150 N   0  0  0  0  0  0  0  0  0  0  0  0
   38.6650   25.2930   42.8690 H   0  0  0  0  0  0  0  0  0  0  0  0
   37.0810   26.8350   39.2250 H   0  0  0  0  0  0  0  0  0  0  0  0
   36.0250   22.9480   40.6820 H   0  0  0  0  0  0  0  0  0  0  0  0
   37.0000   28.6370   42.3970 C   0  0  0  0  0  0  0  0  0  0  0  0
   36.4180   28.2320   43.2730 H   0  0  0  0  0  0  0  0  0  0  0  0
   36.5330   28.1840   41.4990 H   0  0  0  0  0  0  0  0  0  0  0  0
   35.1870   30.0980   40.7440 N   0  0  0  0  0  0  0  0  0  0  0  0
   36.2300   30.6680   41.2490 C   0  0  0  0  0  0  0  0  0  0  0  0
   36.9530   30.0710   42.3450 N   0  0  0  0  0  0  0  0  0  0  0  0
   36.6190   31.9150   40.6590 N   0  0  0  0  0  0  0  0  0  0  0  0
   37.0770   31.8350   39.7130 H   0  0  0  0  0  0  0  0  0  0  0  0
   34.8300   29.2050   41.0960 H   0  0  0  0  0  0  0  0  0  0  0  0
   37.3850   30.7500   43.0130 H   0  0  0  0  0  0  0  0  0  0  0  0
   36.5010   32.8730   41.0580 H   0  0  0  0  0  0  0  0  0  0  0  0
  1  2  1  0  0  0  0
  2  3  1  0  0  0  0
  2  7  1  1  0  0  0
  3  9  1  0  0  0  0
  4  3  1  0  0  0  0
  4 10  1  0  0  0  0
  5 12  1  0  0  0  0
  5  4  1  0  0  0  0
  6  1  1  0  0  0  0
  6  5  1  0  0  0  0
  8  3  1  0  0  0  0
 11  5  1  0  0  0  0
 13  6  1  0  0  0  0
 14  6  1  0  0  0  0
 15 21  1  0  0  0  0
 16  1  1  0  0  0  0
 16 15  2  0  0  0  0
 17 16  1  0  0  0  0
 18 17  2  0  0  0  0
 18 19  1  0  0  0  0
 19 20  2  0  0  0  0
 20 15  1  0  0  0  0
 22 17  1  0  0  0  0
 23 19  1  0  0  0  0
 24  2  1  0  0  0  0
 24 25  1  0  0  0  0
 26 24  1  0  0  0  0
 27 32  1  0  0  0  0
 27 28  2  0  0  0  0
 28 29  1  0  0  0  0
 29 24  1  0  0  0  0
 29 33  1  0  0  0  0
 30 34  1  0  0  0  0
 30 28  1  0  0  0  0
 31 30  1  0  0  0  0
M  END
>  <minimizedAffinity>
-4.67620564

$$$$

 OpenBabel03252508353D

 34 35  0  0  1  0  0  0  0  0999 V2000
   37.4000   30.6730   39.1720 N   0  0  0  0  0  0  0  0  0  0  0  0
   36.1140   30.3970   39.7390 C   0  0  1  0  0  0  0  0  0  0  0  0
   35.3720   29.2660   39.1390 C   0  0  0  0  0  0  0  0  0  0  0  0
   35.5340   29.0720   37.7740 N   0  0  0  0  0  0  0  0  0  0  0  0
   36.7050   29.5040   37.1470 C   0  0  0  0  0  0  0  0  0  0  0  0
   37.7930   29.7400   38.1660 C   0  0  0  0  0  0  0  0  0  0  0  0
   35.4910   31.3320   39.6450 H   0  0  0  0  0  0  0  0  0  0  0  0
   35.6810   28.3410   39.6710 H   0  0  0  0  0  0  0  0  0  0  0  0
   34.2820   29.3990   39.3980 H   0  0  0  0  0  0  0  0  0  0  0  0
   34.7380   28.8170   37.1990 H   0  0  0  0  0  0  0  0  0  0  0  0
   37.0610   28.6950   36.4630 H   0  0  0  0  0  0  0  0  0  0  0  0
   36.6030   30.4120   36.4950 H   0  0  0  0  0  0  0  0  0  0  0  0
   38.0760   28.7460   38.6170 H   0  0  0  0  0  0  0  0  0  0  0  0
   38.7030   30.1050   37.6440 H   0  0  0  0  0  0  0  0  0  0  0  0
   37.4580   33.0150   39.5050 C   0  0  0  0  0  0  0  0  0  0  0  0
   38.1050   31.7810   39.6450 C   0  0  0  0  0  0  0  0  0  0  0  0
   39.3710   31.7670   40.2330 C   0  0  0  0  0  0  0  0  0  0  0  0
   39.9460   32.9140   40.6500 N   0  0  0  0  0  0  0  0  0  0  0  0
   39.2970   34.0990   40.5030 C   0  0  0  0  0  0  0  0  0  0  0  0
   38.0740   34.1610   39.9420 N   0  0  0  0  0  0  0  0  0  0  0  0
   36.4810   33.0900   39.0600 H   0  0  0  0  0  0  0  0  0  0  0  0
   39.8460   30.8020   40.3280 H   0  0  0  0  0  0  0  0  0  0  0  0
   39.6930   35.0560   40.8130 H   0  0  0  0  0  0  0  0  0  0  0  0
   36.2890   30.1190   41.2230 C   0  0  0  0  0  0  0  0  0  0  0  0
   35.5990   30.8090   41.7880 H   0  0  0  0  0  0  0  0  0  0  0  0
   37.3140   30.4280   41.5100 H   0  0  0  0  0  0  0  0  0  0  0  0
   37.1010   28.9110   43.6800 N   0  0  0  0  0  0  0  0  0  0  0  0
   36.7810   28.1870   42.6600 C   0  0  0  0  0  0  0  0  0  0  0  0
   36.0460   28.7410   41.5490 N   0  0  0  0  0  0  0  0  0  0  0  0
   37.1960   26.8160   42.7000 N   0  0  0  0  0  0  0  0  0  0  0  0
   38.2240   26.6580   42.5330 H   0  0  0  0  0  0  0  0  0  0  0  0
   36.8500   29.9020   43.7450 H   0  0  0  0  0  0  0  0  0  0  0  0
   35.3930   28.0780   41.0750 H   0  0  0  0  0  0  0  0  0  0  0  0
   36.6010   25.9750   42.8710 H   0  0  0  0  0  0  0  0  0  0  0  0
  1 16  1  0  0  0  0
  1  2  1  0  0  0  0
  2  7  1  6  0  0  0
  2 24  1  0  0  0  0
  3  9  1  0  0  0  0
  3  8  1  0  0  0  0
  3  2  1  0  0  0  0
  4  3  1  0  0  0  0
  5  4  1  0  0  0  0
  5  6  1  0  0  0  0
  6 13  1  0  0  0  0
  6  1  1  0  0  0  0
 10  4  1  0  0  0  0
 11  5  1  0  0  0  0
 12  5  1  0  0  0  0
 14  6  1  0  0  0  0
 15 16  2  0  0  0  0
 15 20  1  0  0  0  0
 16 17  1  0  0  0  0
 17 22  1  0  0  0  0
 17 18  2  0  0  0  0
 19 18  1  0  0  0  0
 19 23  1  0  0  0  0
 20 19  2  0  0  0  0
 21 15  1  0  0  0  0
 24 26  1  0  0  0  0
 24 29  1  0  0  0  0
 24 25  1  0  0  0  0
 27 32  1  0  0  0  0
 28 30  1  0  0  0  0
 28 27  2  0  0  0  0
 29 28  1  0  0  0  0
 30 34  1  0  0  0  0
 31 30  1  0  0  0  0
 33 29  1  0  0  0  0
M  END
>  <minimizedAffinity>
-4.61486244

$$$$

 OpenBabel03252508353D

 34 35  0  0  1  0  0  0  0  0999 V2000
   41.1660   30.6960   41.7230 N   0  0  0  0  0  0  0  0  0  0  0  0
   41.1540   32.0270   41.1950 C   0  0  1  0  0  0  0  0  0  0  0  0
   42.3340   32.8600   41.5150 C   0  0  0  0  0  0  0  0  0  0  0  0
   42.9140   32.6620   42.7610 N   0  0  0  0  0  0  0  0  0  0  0  0
   42.7830   31.4270   43.3970 C   0  0  0  0  0  0  0  0  0  0  0  0
   42.3740   30.3630   42.4070 C   0  0  0  0  0  0  0  0  0  0  0  0
   40.2290   32.5420   41.5840 H   0  0  0  0  0  0  0  0  0  0  0  0
   43.0980   32.6760   40.7300 H   0  0  0  0  0  0  0  0  0  0  0  0
   42.0340   33.9400   41.3800 H   0  0  0  0  0  0  0  0  0  0  0  0
   43.2450   33.4560   43.2980 H   0  0  0  0  0  0  0  0  0  0  0  0
   43.7790   31.1310   43.8080 H   0  0  0  0  0  0  0  0  0  0  0  0
   42.0860   31.4030   44.2770 H   0  0  0  0  0  0  0  0  0  0  0  0
   43.2250   30.2090   41.6840 H   0  0  0  0  0  0  0  0  0  0  0  0
   42.2540   29.3990   42.9430 H   0  0  0  0  0  0  0  0  0  0  0  0
   38.8700   30.3250   42.1610 C   0  0  0  0  0  0  0  0  0  0  0  0
   40.0390   29.8960   41.5210 C   0  0  0  0  0  0  0  0  0  0  0  0
   39.9780   28.7310   40.7550 C   0  0  0  0  0  0  0  0  0  0  0  0
   38.8220   28.0460   40.6390 N   0  0  0  0  0  0  0  0  0  0  0  0
   37.7000   28.4840   41.2700 C   0  0  0  0  0  0  0  0  0  0  0  0
   37.7120   29.6030   42.0210 N   0  0  0  0  0  0  0  0  0  0  0  0
   38.8540   31.2160   42.7660 H   0  0  0  0  0  0  0  0  0  0  0  0
   40.8940   28.4250   40.2730 H   0  0  0  0  0  0  0  0  0  0  0  0
   36.7400   27.9900   41.2230 H   0  0  0  0  0  0  0  0  0  0  0  0
   41.0230   31.9470   39.6830 C   0  0  0  0  0  0  0  0  0  0  0  0
   39.9560   31.6760   39.4420 H   0  0  0  0  0  0  0  0  0  0  0  0
   41.6310   31.0880   39.3330 H   0  0  0  0  0  0  0  0  0  0  0  0
   40.5360   32.5060   36.9250 N   0  0  0  0  0  0  0  0  0  0  0  0
   41.4040   33.1870   37.5960 C   0  0  0  0  0  0  0  0  0  0  0  0
   41.4200   33.1670   39.0380 N   0  0  0  0  0  0  0  0  0  0  0  0
   42.3410   33.9520   36.8270 N   0  0  0  0  0  0  0  0  0  0  0  0
   43.0950   33.3870   36.3560 H   0  0  0  0  0  0  0  0  0  0  0  0
   39.8240   31.9280   37.3830 H   0  0  0  0  0  0  0  0  0  0  0  0
   41.7230   34.0590   39.4900 H   0  0  0  0  0  0  0  0  0  0  0  0
   42.3570   34.9870   36.6880 H   0  0  0  0  0  0  0  0  0  0  0  0
  1  6  1  0  0  0  0
  2  3  1  0  0  0  0
  2  7  1  1  0  0  0
  2  1  1  0  0  0  0
  3  4  1  0  0  0  0
  4 10  1  0  0  0  0
  4  5  1  0  0  0  0
  5 11  1  0  0  0  0
  5 12  1  0  0  0  0
  6 14  1  0  0  0  0
  6  5  1  0  0  0  0
  8  3  1  0  0  0  0
  9  3  1  0  0  0  0
 13  6  1  0  0  0  0
 15 21  1  0  0  0  0
 16  1  1  0  0  0  0
 16 15  2  0  0  0  0
 17 16  1  0  0  0  0
 18 17  2  0  0  0  0
 18 19  1  0  0  0  0
 19 20  2  0  0  0  0
 20 15  1  0  0  0  0
 22 17  1  0  0  0  0
 23 19  1  0  0  0  0
 24  2  1  0  0  0  0
 25 24  1  0  0  0  0
 26 24  1  0  0  0  0
 27 32  1  0  0  0  0
 27 28  2  0  0  0  0
 28 29  1  0  0  0  0
 29 33  1  0  0  0  0
 29 24  1  0  0  0  0
 30 28  1  0  0  0  0
 31 30  1  0  0  0  0
 34 30  1  0  0  0  0
M  END
>  <minimizedAffinity>
-4.55798197

$$$$

 OpenBabel03252508353D

 34 35  0  0  1  0  0  0  0  0999 V2000
   37.9060   31.0140   40.3710 N   0  0  0  0  0  0  0  0  0  0  0  0
   37.2680   30.9070   39.0930 C   0  0  1  0  0  0  0  0  0  0  0  0
   37.3750   32.0920   38.2150 C   0  0  0  0  0  0  0  0  0  0  0  0
   37.3650   33.3320   38.8420 N   0  0  0  0  0  0  0  0  0  0  0  0
   37.8030   33.4430   40.1630 C   0  0  0  0  0  0  0  0  0  0  0  0
   38.6220   32.2360   40.5510 C   0  0  0  0  0  0  0  0  0  0  0  0
   36.1780   30.6820   39.2710 H   0  0  0  0  0  0  0  0  0  0  0  0
   38.3140   31.9950   37.6300 H   0  0  0  0  0  0  0  0  0  0  0  0
   36.5490   32.0250   37.4500 H   0  0  0  0  0  0  0  0  0  0  0  0
   36.8530   34.1050   38.4300 H   0  0  0  0  0  0  0  0  0  0  0  0
   38.4710   34.3350   40.2420 H   0  0  0  0  0  0  0  0  0  0  0  0
   37.0010   33.6100   40.9310 H   0  0  0  0  0  0  0  0  0  0  0  0
   39.5740   32.2450   39.9470 H   0  0  0  0  0  0  0  0  0  0  0  0
   38.9370   32.3390   41.6110 H   0  0  0  0  0  0  0  0  0  0  0  0
   38.8970   29.6550   42.0350 C   0  0  0  0  0  0  0  0  0  0  0  0
   37.7640   29.9560   41.2700 C   0  0  0  0  0  0  0  0  0  0  0  0
   36.6150   29.1870   41.4670 C   0  0  0  0  0  0  0  0  0  0  0  0
   36.6080   28.1850   42.3720 N   0  0  0  0  0  0  0  0  0  0  0  0
   37.7210   27.9140   43.1030 C   0  0  0  0  0  0  0  0  0  0  0  0
   38.8520   28.6290   42.9460 N   0  0  0  0  0  0  0  0  0  0  0  0
   39.8120   30.2120   41.9280 H   0  0  0  0  0  0  0  0  0  0  0  0
   35.7570   29.4410   40.8640 H   0  0  0  0  0  0  0  0  0  0  0  0
   37.7890   27.1300   43.8440 H   0  0  0  0  0  0  0  0  0  0  0  0
   37.8590   29.7150   38.3570 C   0  0  0  0  0  0  0  0  0  0  0  0
   37.2460   28.8060   38.6210 H   0  0  0  0  0  0  0  0  0  0  0  0
   38.8670   29.5210   38.7750 H   0  0  0  0  0  0  0  0  0  0  0  0
   35.9060   28.7010   36.5370 N   0  0  0  0  0  0  0  0  0  0  0  0
   37.0590   29.1010   36.1160 C   0  0  0  0  0  0  0  0  0  0  0  0
   37.9120   29.9250   36.9370 N   0  0  0  0  0  0  0  0  0  0  0  0
   37.4340   28.6800   34.7990 N   0  0  0  0  0  0  0  0  0  0  0  0
   37.7180   27.6680   34.7200 H   0  0  0  0  0  0  0  0  0  0  0  0
   35.5470   28.9500   37.4640 H   0  0  0  0  0  0  0  0  0  0  0  0
   38.5000   30.6130   36.4150 H   0  0  0  0  0  0  0  0  0  0  0  0
   37.4590   29.2560   33.9280 H   0  0  0  0  0  0  0  0  0  0  0  0
  1  6  1  0  0  0  0
  1 16  1  0  0  0  0
  2  7  1  1  0  0  0
  2  1  1  0  0  0  0
  3  4  1  0  0  0  0
  3  2  1  0  0  0  0
  4  5  1  0  0  0  0
  5 11  1  0  0  0  0
  5  6  1  0  0  0  0
  5 12  1  0  0  0  0
  6 14  1  0  0  0  0
  8  3  1  0  0  0  0
  9  3  1  0  0  0  0
 10  4  1  0  0  0  0
 13  6  1  0  0  0  0
 15 20  1  0  0  0  0
 16 17  1  0  0  0  0
 16 15  2  0  0  0  0
 17 18  2  0  0  0  0
 18 19  1  0  0  0  0
 19 23  1  0  0  0  0
 20 19  2  0  0  0  0
 21 15  1  0  0  0  0
 22 17  1  0  0  0  0
 24 25  1  0  0  0  0
 24 26  1  0  0  0  0
 24  2  1  0  0  0  0
 27 32  1  0  0  0  0
 28 27  2  0  0  0  0
 28 29  1  0  0  0  0
 29 24  1  0  0  0  0
 30 28  1  0  0  0  0
 31 30  1  0  0  0  0
 33 29  1  0  0  0  0
 34 30  1  0  0  0  0
M  END
>  <minimizedAffinity>
-4.52254391

$$$$
