
 OpenBabel03252509343D

 42 43  0  0  1  0  0  0  0  0999 V2000
   46.0460   33.8090   42.1620 C   0  0  1  0  0  0  0  0  0  0  0  0
   45.2690   34.5840   41.1140 C   0  0  0  0  0  0  0  0  0  0  0  0
   45.3740   33.6330   39.9230 C   0  0  0  0  0  0  0  0  0  0  0  0
   46.6620   32.8710   40.1200 C   0  0  0  0  0  0  0  0  0  0  0  0
   47.2850   33.4470   41.3780 C   0  0  1  0  0  0  0  0  0  0  0  0
   45.5370   32.8560   42.4090 H   0  0  0  0  0  0  0  0  0  0  0  0
   44.2190   34.6750   41.4190 H   0  0  0  0  0  0  0  0  0  0  0  0
   45.7680   35.5270   40.9150 H   0  0  0  0  0  0  0  0  0  0  0  0
   45.3160   34.1550   38.9670 H   0  0  0  0  0  0  0  0  0  0  0  0
   44.5350   32.9170   40.0090 H   0  0  0  0  0  0  0  0  0  0  0  0
   46.5250   31.7930   40.1960 H   0  0  0  0  0  0  0  0  0  0  0  0
   47.3380   33.1740   39.2860 H   0  0  0  0  0  0  0  0  0  0  0  0
   47.8600   32.6400   41.9110 H   0  0  0  0  0  0  0  0  0  0  0  0
   48.1760   34.6210   41.0960 C   0  0  0  0  0  0  0  0  0  0  0  0
   48.0090   35.0600   40.1170 H   0  0  0  0  0  0  0  0  0  0  0  0
   48.1560   35.3750   41.9040 H   0  0  0  0  0  0  0  0  0  0  0  0
   49.9480   35.1490   43.0980 N   0  0  0  0  0  0  0  0  0  0  0  0
   50.2690   34.1620   42.3020 C   0  0  0  0  0  0  0  0  0  0  0  0
   49.5460   34.0880   41.0720 N   0  0  0  0  0  0  0  0  0  0  0  0
   51.2920   33.2040   42.6400 N   0  0  0  0  0  0  0  0  0  0  0  0
   50.8470   32.3680   43.1120 H   0  0  0  0  0  0  0  0  0  0  0  0
   50.4080   35.3030   44.0210 H   0  0  0  0  0  0  0  0  0  0  0  0
   50.0150   33.6730   40.2480 H   0  0  0  0  0  0  0  0  0  0  0  0
   52.3260   32.9820   42.6120 H   0  0  0  0  0  0  0  0  0  0  0  0
   46.3420   34.5940   43.2740 O   0  0  0  0  0  0  0  0  0  0  0  0
   44.7750   34.9730   45.3050 O   0  0  0  0  0  0  0  0  0  0  0  0
   45.6170   33.9240   44.6350 P   0  0  1  0  0  0  0  0  0  0  0  0
   44.7100   32.5730   44.2300 O   0  0  0  0  0  0  0  0  0  0  0  0
   44.9590   32.1010   43.4310 H   0  0  0  0  0  0  0  0  0  0  0  0
   46.8100   33.3910   45.6900 O   0  0  0  0  0  0  0  0  0  0  0  0
   46.7770   32.0290   45.7410 C   0  0  0  0  0  0  0  0  0  0  0  0
   47.8520   31.6940   45.7590 H   0  0  0  0  0  0  0  0  0  0  0  0
   46.3290   31.4880   44.9150 H   0  0  0  0  0  0  0  0  0  0  0  0
   45.7290   31.8320   49.3020 C   0  0  0  0  0  0  0  0  0  0  0  0
   46.2750   32.3330   48.1090 C   0  0  0  0  0  0  0  0  0  0  0  0
   46.2030   31.5240   46.9980 C   0  0  0  0  0  0  0  0  0  0  0  0
   45.6160   30.3050   47.1230 N   0  0  0  0  0  0  0  0  0  0  0  0
   45.1020   29.8450   48.2730 C   0  0  0  0  0  0  0  0  0  0  0  0
   45.1650   30.6220   49.3590 N   0  0  0  0  0  0  0  0  0  0  0  0
   45.7880   32.4780   50.1940 H   0  0  0  0  0  0  0  0  0  0  0  0
   46.7200   33.3160   48.1150 H   0  0  0  0  0  0  0  0  0  0  0  0
   44.6660   28.8610   48.2240 H   0  0  0  0  0  0  0  0  0  0  0  0
  1  6  1  1  0  0  0
  1 25  1  0  0  0  0
  2  7  1  0  0  0  0
  2  1  1  0  0  0  0
  3 10  1  0  0  0  0
  3  4  1  0  0  0  0
  3  2  1  0  0  0  0
  4 11  1  0  0  0  0
  4  5  1  0  0  0  0
  5 13  1  1  0  0  0
  5  1  1  0  0  0  0
  8  2  1  0  0  0  0
  9  3  1  0  0  0  0
 12  4  1  0  0  0  0
 14  5  1  0  0  0  0
 14 16  1  0  0  0  0
 15 14  1  0  0  0  0
 17 22  1  0  0  0  0
 18 20  1  0  0  0  0
 18 17  2  0  0  0  0
 19 14  1  0  0  0  0
 19 18  1  0  0  0  0
 20 21  1  0  0  0  0
 23 19  1  0  0  0  0
 24 20  1  0  0  0  0
 25 27  1  0  0  0  0
 27 26  2  1  0  0  0
 27 30  1  0  0  0  0
 28 27  1  0  0  0  0
 29 28  1  0  0  0  0
 30 31  1  0  0  0  0
 31 32  1  0  0  0  0
 31 36  1  0  0  0  0
 33 31  1  0  0  0  0
 34 39  1  0  0  0  0
 34 40  1  0  0  0  0
 35 41  1  0  0  0  0
 35 34  2  0  0  0  0
 36 37  2  0  0  0  0
 36 35  1  0  0  0  0
 37 38  1  0  0  0  0
 38 39  2  0  0  0  0
 42 38  1  0  0  0  0
M  END
>  <minimizedAffinity>
-5.83848619

>  <minimizedRMSD>
1.67119837

$$$$
