
     RDKit          3D

 40 43  0  0  0  0  0  0  0  0999 V2000
   46.3928   32.6673   45.8649 C   0  0  1  0  0  0  0  0  0  0  0  0
   46.9756   32.8361   47.2029 C   0  0  0  0  0  0  0  0  0  0  0  0
   45.5487   32.2060   46.9518 C   0  0  2  0  0  0  0  0  0  0  0  0
   45.3044   30.8021   47.2994 C   0  0  0  0  0  0  0  0  0  0  0  0
   45.1677   30.2672   48.5422 C   0  0  0  0  0  0  0  0  0  0  0  0
   45.0567   28.9213   48.8393 C   0  0  0  0  0  0  0  0  0  0  0  0
   45.0905   28.0372   47.7483 C   0  0  0  0  0  0  0  0  0  0  0  0
   45.2266   28.5566   46.4614 C   0  0  0  0  0  0  0  0  0  0  0  0
   45.1934   27.6555   45.4154 C   0  0  0  0  0  0  0  0  0  0  0  0
   45.2557   28.1304   44.1119 C   0  0  0  0  0  0  0  0  0  0  0  0
   45.3471   29.4838   43.8608 C   0  0  0  0  0  0  0  0  0  0  0  0
   45.3785   30.3378   44.9390 C   0  0  0  0  0  0  0  0  0  0  0  0
   45.3278   29.9134   46.2532 C   0  0  0  0  0  0  0  0  0  0  0  0
   44.6176   35.7380   44.8426 C   0  0  0  0  0  0  0  0  0  0  0  0
   45.1410   35.9656   43.5196 C   0  0  0  0  0  0  0  0  0  0  0  0
   46.1029   35.0487   43.0348 C   0  0  0  0  0  0  0  0  0  0  0  0
   46.4767   34.0327   43.8088 N   0  0  0  0  0  0  0  0  0  0  0  0
   45.9586   33.8468   45.0597 C   0  0  0  0  0  0  0  0  0  0  0  0
   45.0526   34.6808   45.5600 N   0  0  0  0  0  0  0  0  0  0  0  0
   47.1520   32.0320   45.2896 H   0  0  0  0  0  0  0  0  0  0  0  0
   47.0231   33.8213   47.6952 H   0  0  0  0  0  0  0  0  0  0  0  0
   47.6132   32.0907   47.7005 H   0  0  0  0  0  0  0  0  0  0  0  0
   44.9119   32.8917   47.5826 H   0  0  0  0  0  0  0  0  0  0  0  0
   45.1474   30.9939   49.3551 H   0  0  0  0  0  0  0  0  0  0  0  0
   44.9509   28.5826   49.8537 H   0  0  0  0  0  0  0  0  0  0  0  0
   45.0105   26.9752   47.9270 H   0  0  0  0  0  0  0  0  0  0  0  0
   45.1186   26.5891   45.6407 H   0  0  0  0  0  0  0  0  0  0  0  0
   45.2242   27.3252   43.3626 H   0  0  0  0  0  0  0  0  0  0  0  0
   45.3804   29.6522   42.8065 H   0  0  0  0  0  0  0  0  0  0  0  0
   45.3629   31.2940   44.5005 H   0  0  0  0  0  0  0  0  0  0  0  0
   43.8830   36.4581   45.1846 H   0  0  0  0  0  0  0  0  0  0  0  0
   44.7964   36.7878   42.9591 H   0  0  0  0  0  0  0  0  0  0  0  0
   48.7834   34.4778   42.1474 N   0  0  0  0  0  0  0  0  0  0  0  0
   48.0530   35.3404   41.4785 C   0  0  0  0  0  0  0  0  0  0  0  0
   46.6765   35.1995   41.7452 N   0  0  0  0  0  0  0  0  0  0  0  0
   48.4833   36.3544   40.5530 N   0  0  0  0  0  0  0  0  0  0  0  0
   48.8662   36.4358   39.5745 H   0  0  0  0  0  0  0  0  0  0  0  0
   49.8106   34.5288   41.9952 H   0  0  0  0  0  0  0  0  0  0  0  0
   46.0079   35.2134   40.9146 H   0  0  0  0  0  0  0  0  0  0  0  0
   48.4698   37.3919   40.7837 H   0  0  0  0  0  0  0  0  0  0  0  0
  1  3  1  0
  1  2  1  0
  3  2  1  0
  3  4  1  0
  4  5  2  0
  5  6  1  0
  7  6  2  0
  8  7  1  0
  9  8  2  0
 10  9  1  0
 11 10  2  0
 11 12  1  0
 12 13  2  0
 13  8  1  0
 13  4  1  0
 14 19  2  0
 15 14  1  0
 16 15  2  0
 16 17  1  0
 17 18  2  0
 18 19  1  0
 18  1  1  0
  1 20  1  6
  2 21  1  0
  2 22  1  0
  3 23  1  1
  5 24  1  0
  6 25  1  0
  7 26  1  0
  9 27  1  0
 10 28  1  0
 11 29  1  0
 12 30  1  0
 14 31  1  0
 15 32  1  0
 33 34  2  3
 34 35  1  0
 34 36  1  0
 36 37  1  0
 33 38  1  0
 35 39  1  0
 36 40  1  0
 16 35  1  0
M  ISO  8  20  13  21  13  22  13  23  13  24  14  25  14  26  14  27  14
M  ISO  6  28  14  29  14  30  14  31  14  32  14  37   5
M  END
>  <DihAtoms>  (1) 
14,15,34,33

>  <DihDeg>  (1) 
1.5526093493470874

$$$$
