
     RDKit          3D

 43 44  0  0  0  0  0  0  0  0999 V2000
   46.7290   32.5176   45.8869 C   0  0  0  0  0  0  0  0  0  0  0  0
   46.1453   31.7866   46.9903 C   0  0  0  0  0  0  0  0  0  0  0  0
   45.3851   32.2637   48.0468 C   0  0  0  0  0  0  0  0  0  0  0  0
   44.8831   31.4905   49.0348 C   0  0  0  0  0  0  0  0  0  0  0  0
   45.1418   30.1374   48.9912 C   0  0  0  0  0  0  0  0  0  0  0  0
   45.8936   29.6460   47.9522 C   0  0  0  0  0  0  0  0  0  0  0  0
   46.3971   30.4587   46.9527 C   0  0  0  0  0  0  0  0  0  0  0  0
   48.4891   29.3594   46.4215 C   0  0  0  0  0  0  0  0  0  0  0  0
   49.3125   29.6782   47.3724 O   0  0  0  0  0  0  0  0  0  0  0  0
   47.1289   29.6179   46.0495 N   0  0  0  0  0  0  0  0  0  0  0  0
   45.9537   32.3251   44.6097 C   0  0  0  0  0  0  0  0  0  0  0  0
   44.6177   35.7302   44.7436 C   0  0  0  0  0  0  0  0  0  0  0  0
   44.1866   35.9587   43.4281 C   0  0  0  0  0  0  0  0  0  0  0  0
   44.3771   34.9250   42.5470 C   0  0  0  0  0  0  0  0  0  0  0  0
   44.9477   33.7638   42.9448 N   0  0  0  0  0  0  0  0  0  0  0  0
   45.3395   33.6084   44.2227 C   0  0  0  0  0  0  0  0  0  0  0  0
   45.1868   34.5616   45.1226 N   0  0  0  0  0  0  0  0  0  0  0  0
   43.9271   35.1295   41.1326 C   0  0  0  0  0  0  0  0  0  0  0  0
   42.4243   35.3727   41.0744 C   0  0  0  0  0  0  0  0  0  0  0  0
   47.7989   32.2193   45.7480 H   0  0  0  0  0  0  0  0  0  0  0  0
   46.7735   33.6030   46.1742 H   0  0  0  0  0  0  0  0  0  0  0  0
   45.2128   33.3520   48.0244 H   0  0  0  0  0  0  0  0  0  0  0  0
   44.3119   31.9886   49.7981 H   0  0  0  0  0  0  0  0  0  0  0  0
   44.7106   29.5599   49.8162 H   0  0  0  0  0  0  0  0  0  0  0  0
   46.0062   28.5534   48.0700 H   0  0  0  0  0  0  0  0  0  0  0  0
   49.2894   28.7714   45.9742 H   0  0  0  0  0  0  0  0  0  0  0  0
   46.9057   29.1394   45.1703 H   0  0  0  0  0  0  0  0  0  0  0  0
   45.2480   31.4941   44.6911 H   0  0  0  0  0  0  0  0  0  0  0  0
   46.6772   32.0629   43.7821 H   0  0  0  0  0  0  0  0  0  0  0  0
   44.4949   36.5242   45.4964 H   0  0  0  0  0  0  0  0  0  0  0  0
   43.7407   36.9158   43.2037 H   0  0  0  0  0  0  0  0  0  0  0  0
   44.4653   36.0205   40.7655 H   0  0  0  0  0  0  0  0  0  0  0  0
   44.2175   34.2439   40.5334 H   0  0  0  0  0  0  0  0  0  0  0  0
   41.9116   34.5385   41.5480 H   0  0  0  0  0  0  0  0  0  0  0  0
   42.1920   36.3039   41.6534 H   0  0  0  0  0  0  0  0  0  0  0  0
   40.0937   34.3372   39.8026 N   0  0  0  0  0  0  0  0  0  0  0  0
   41.0883   34.7783   39.0868 C   0  0  0  0  0  0  0  0  0  0  0  0
   42.1255   35.5539   39.6668 N   0  0  0  0  0  0  0  0  0  0  0  0
   41.0460   34.4238   37.7064 N   0  0  0  0  0  0  0  0  0  0  0  0
   41.2225   33.4071   37.4575 H   0  0  0  0  0  0  0  0  0  0  0  0
   40.0057   34.5256   40.8199 H   0  0  0  0  0  0  0  0  0  0  0  0
   42.6065   36.2090   39.0362 H   0  0  0  0  0  0  0  0  0  0  0  0
   40.9092   34.7130   36.7047 H   0  0  0  0  0  0  0  0  0  0  0  0
  1  2  1  0
  2  3  2  0
  3  4  1  0
  5  4  2  0
  6  5  1  0
  7  2  1  0
  7  6  2  0
  8  9  2  0
 10  8  1  0
 10  7  1  0
 11  1  1  0
 12 17  2  0
 13 12  1  0
 14 15  1  0
 14 13  2  0
 15 16  2  0
 16 11  1  0
 16 17  1  0
 18 14  1  0
 19 18  1  0
  1 20  1  0
  1 21  1  0
  3 22  1  0
  4 23  1  0
  5 24  1  0
  6 25  1  0
  8 26  1  0
 10 27  1  0
 11 28  1  0
 11 29  1  0
 12 30  1  0
 13 31  1  0
 18 32  1  0
 18 33  1  0
 19 34  1  0
 19 35  1  0
 36 37  2  3
 37 38  1  0
 37 39  1  0
 39 40  1  0
 36 41  1  0
 38 42  1  0
 39 43  1  0
 19 38  1  0
M  ISO  8  20   8  21   8  22  14  23  14  24  14  25  14  26   6  28   8
M  ISO  8  29   8  30  14  31  14  32   8  33   8  34   8  35   8  40   5
M  END
>  <DihAtoms>  (1) 
17,18,37,36

>  <DihDeg>  (1) 
68.24768158630728

$$$$
