
 OpenBabel03252508253D

 40 43  0  0  1  0  0  0  0  0999 V2000
   46.4640   32.4970   45.9300 C   0  0  1  0  0  0  0  0  0  0  0  0
   46.9890   32.6770   47.2910 C   0  0  0  0  0  0  0  0  0  0  0  0
   45.5680   32.0580   46.9850 C   0  0  2  0  0  0  0  0  0  0  0  0
   47.2400   31.8470   45.3970 H   0  0  0  0  0  0  0  0  0  0  0  0
   47.0250   33.6680   47.7720 H   0  0  0  0  0  0  0  0  0  0  0  0
   47.5960   31.9320   47.8240 H   0  0  0  0  0  0  0  0  0  0  0  0
   44.9110   32.7590   47.5790 H   0  0  0  0  0  0  0  0  0  0  0  0
   45.2940   30.6610   47.3380 C   0  0  0  0  0  0  0  0  0  0  0  0
   45.1570   30.1330   48.5840 C   0  0  0  0  0  0  0  0  0  0  0  0
   45.0170   28.7900   48.8860 C   0  0  0  0  0  0  0  0  0  0  0  0
   45.0190   27.9030   47.7970 C   0  0  0  0  0  0  0  0  0  0  0  0
   45.1560   28.4170   46.5070 C   0  0  0  0  0  0  0  0  0  0  0  0
   45.0900   27.5130   45.4640 C   0  0  0  0  0  0  0  0  0  0  0  0
   45.1520   27.9830   44.1590 C   0  0  0  0  0  0  0  0  0  0  0  0
   45.2720   29.3340   43.9040 C   0  0  0  0  0  0  0  0  0  0  0  0
   45.3350   30.1900   44.9790 C   0  0  0  0  0  0  0  0  0  0  0  0
   45.2860   29.7690   46.2950 C   0  0  0  0  0  0  0  0  0  0  0  0
   45.1610   30.8620   49.3950 H   0  0  0  0  0  0  0  0  0  0  0  0
   44.9130   28.4580   49.9030 H   0  0  0  0  0  0  0  0  0  0  0  0
   44.9170   26.8440   47.9790 H   0  0  0  0  0  0  0  0  0  0  0  0
   44.9930   26.4500   45.6940 H   0  0  0  0  0  0  0  0  0  0  0  0
   45.0930   27.1770   43.4130 H   0  0  0  0  0  0  0  0  0  0  0  0
   45.2990   29.4990   42.8480 H   0  0  0  0  0  0  0  0  0  0  0  0
   45.3370   31.1450   44.5380 H   0  0  0  0  0  0  0  0  0  0  0  0
   44.6940   35.5100   44.7410 C   0  0  0  0  0  0  0  0  0  0  0  0
   45.3570   35.7790   43.4900 C   0  0  0  0  0  0  0  0  0  0  0  0
   46.4050   34.9080   43.1110 C   0  0  0  0  0  0  0  0  0  0  0  0
   46.7290   33.8960   43.9120 N   0  0  0  0  0  0  0  0  0  0  0  0
   46.0770   33.6710   45.0930 C   0  0  0  0  0  0  0  0  0  0  0  0
   45.0860   34.4610   45.4930 N   0  0  0  0  0  0  0  0  0  0  0  0
   43.8950   36.1950   45.0030 H   0  0  0  0  0  0  0  0  0  0  0  0
   45.0450   36.5950   42.9020 H   0  0  0  0  0  0  0  0  0  0  0  0
   45.6740   34.1720   40.4230 N   0  0  0  0  0  0  0  0  0  0  0  0
   46.9410   34.3450   40.7220 C   0  0  0  0  0  0  0  0  0  0  0  0
   47.1170   35.1010   41.8980 N   0  0  0  0  0  0  0  0  0  0  0  0
   48.1030   33.8740   40.0150 N   0  0  0  0  0  0  0  0  0  0  0  0
   48.6360   34.0730   39.1280 H   0  0  0  0  0  0  0  0  0  0  0  0
   45.4740   33.6220   39.5650 H   0  0  0  0  0  0  0  0  0  0  0  0
   47.8490   35.8760   41.8820 H   0  0  0  0  0  0  0  0  0  0  0  0
   48.7170   33.0860   40.3730 H   0  0  0  0  0  0  0  0  0  0  0  0
  1  4  1  6  0  0  0
  1  3  1  0  0  0  0
  1  2  1  0  0  0  0
  2  5  1  0  0  0  0
  2  6  1  0  0  0  0
  3  2  1  0  0  0  0
  3  8  1  0  0  0  0
  3  7  1  1  0  0  0
  8  9  1  0  0  0  0
  9 10  2  0  0  0  0
  9 18  1  0  0  0  0
 10 19  1  0  0  0  0
 11 20  1  0  0  0  0
 11 10  1  0  0  0  0
 12 11  2  0  0  0  0
 13 21  1  0  0  0  0
 13 12  1  0  0  0  0
 14 13  2  0  0  0  0
 15 14  1  0  0  0  0
 15 16  2  0  0  0  0
 16 17  1  0  0  0  0
 17 12  1  0  0  0  0
 17  8  2  0  0  0  0
 22 14  1  0  0  0  0
 23 15  1  0  0  0  0
 24 16  1  0  0  0  0
 25 31  1  0  0  0  0
 25 30  1  0  0  0  0
 26 25  2  0  0  0  0
 27 26  1  0  0  0  0
 27 28  2  0  0  0  0
 28 29  1  0  0  0  0
 29 30  2  0  0  0  0
 29  1  1  0  0  0  0
 32 26  1  0  0  0  0
 33 34  2  0  0  0  0
 34 35  1  0  0  0  0
 35 27  1  0  0  0  0
 36 40  1  0  0  0  0
 36 34  1  0  0  0  0
 37 36  1  0  0  0  0
 38 33  1  0  0  0  0
 39 35  1  0  0  0  0
M  END
>  <minimizedAffinity>
-5.43095541

>  <minimizedRMSD>
0.430747479

$$$$
