
 OpenBabel03242511463D

 43 44  0  0  0  0  0  0  0  0999 V2000
   44.6010   35.6620   44.4520 C   0  0  0  0  0  0  0  0  0  0  0  0
   44.2720   35.7510   43.0910 C   0  0  0  0  0  0  0  0  0  0  0  0
   44.6080   34.6660   42.3210 C   0  0  0  0  0  0  0  0  0  0  0  0
   45.2190   33.5870   42.8640 N   0  0  0  0  0  0  0  0  0  0  0  0
   45.5070   33.5640   44.1790 C   0  0  0  0  0  0  0  0  0  0  0  0
   45.2120   34.5740   44.9770 N   0  0  0  0  0  0  0  0  0  0  0  0
   44.3590   36.5030   45.1200 H   0  0  0  0  0  0  0  0  0  0  0  0
   43.7840   36.6510   42.7480 H   0  0  0  0  0  0  0  0  0  0  0  0
   46.1700   32.3660   44.7240 C   0  0  0  0  0  0  0  0  0  0  0  0
   45.5260   31.4850   44.7900 H   0  0  0  0  0  0  0  0  0  0  0  0
   47.0010   32.1130   44.0020 H   0  0  0  0  0  0  0  0  0  0  0  0
   46.7770   32.7080   46.0600 C   0  0  0  0  0  0  0  0  0  0  0  0
   47.8840   32.5450   46.0440 H   0  0  0  0  0  0  0  0  0  0  0  0
   46.6540   33.7990   46.2930 H   0  0  0  0  0  0  0  0  0  0  0  0
   46.1760   31.9500   47.1360 C   0  0  0  0  0  0  0  0  0  0  0  0
   45.3150   32.3840   48.1330 C   0  0  0  0  0  0  0  0  0  0  0  0
   44.8070   31.5900   49.1010 C   0  0  0  0  0  0  0  0  0  0  0  0
   45.1670   30.2580   49.0980 C   0  0  0  0  0  0  0  0  0  0  0  0
   46.0190   29.8100   48.1200 C   0  0  0  0  0  0  0  0  0  0  0  0
   46.5260   30.6440   47.1400 C   0  0  0  0  0  0  0  0  0  0  0  0
   45.0660   33.4560   48.0790 H   0  0  0  0  0  0  0  0  0  0  0  0
   44.1520   32.0550   49.8160 H   0  0  0  0  0  0  0  0  0  0  0  0
   44.7250   29.6620   49.9040 H   0  0  0  0  0  0  0  0  0  0  0  0
   46.2020   28.7300   48.2650 H   0  0  0  0  0  0  0  0  0  0  0  0
   48.6920   29.6090   46.8170 C   0  0  0  0  0  0  0  0  0  0  0  0
   49.3960   29.9180   47.8610 O   0  0  0  0  0  0  0  0  0  0  0  0
   47.3750   29.8480   46.3020 N   0  0  0  0  0  0  0  0  0  0  0  0
   49.5520   29.0530   46.4450 H   0  0  0  0  0  0  0  0  0  0  0  0
   47.2640   29.3900   45.3900 H   0  0  0  0  0  0  0  0  0  0  0  0
   44.2710   34.7220   40.8630 C   0  0  0  0  0  0  0  0  0  0  0  0
   45.0750   35.3060   40.3840 H   0  0  0  0  0  0  0  0  0  0  0  0
   44.2680   33.6900   40.4570 H   0  0  0  0  0  0  0  0  0  0  0  0
   42.9300   35.4110   40.6440 C   0  0  0  0  0  0  0  0  0  0  0  0
   42.4860   35.6350   41.6120 H   0  0  0  0  0  0  0  0  0  0  0  0
   43.1110   36.3770   40.1060 H   0  0  0  0  0  0  0  0  0  0  0  0
   42.6720   35.6670   37.8170 N   0  0  0  0  0  0  0  0  0  0  0  0
   41.8860   34.8640   38.4760 C   0  0  0  0  0  0  0  0  0  0  0  0
   42.1660   34.4970   39.8180 N   0  0  0  0  0  0  0  0  0  0  0  0
   40.7480   34.4010   37.7530 N   0  0  0  0  0  0  0  0  0  0  0  0
   39.9790   35.1040   37.5480 H   0  0  0  0  0  0  0  0  0  0  0  0
   43.5330   36.0730   38.2300 H   0  0  0  0  0  0  0  0  0  0  0  0
   41.8020   33.5840   40.1220 H   0  0  0  0  0  0  0  0  0  0  0  0
   40.2450   33.6140   37.2700 H   0  0  0  0  0  0  0  0  0  0  0  0
  1  6  1  0  0  0  0
  1  7  1  0  0  0  0
  2  1  2  0  0  0  0
  3  4  2  0  0  0  0
  3  2  1  0  0  0  0
  4  5  1  0  0  0  0
  5  9  1  0  0  0  0
  5  6  2  0  0  0  0
  8  2  1  0  0  0  0
  9 10  1  0  0  0  0
  9 12  1  0  0  0  0
 11  9  1  0  0  0  0
 12 14  1  0  0  0  0
 12 15  1  0  0  0  0
 13 12  1  0  0  0  0
 15 20  2  0  0  0  0
 15 16  1  0  0  0  0
 16 17  2  0  0  0  0
 17 22  1  0  0  0  0
 18 17  1  0  0  0  0
 18 23  1  0  0  0  0
 19 24  1  0  0  0  0
 19 18  2  0  0  0  0
 20 19  1  0  0  0  0
 21 16  1  0  0  0  0
 25 26  2  0  0  0  0
 27 25  1  0  0  0  0
 27 20  1  0  0  0  0
 28 25  1  0  0  0  0
 29 27  1  0  0  0  0
 30  3  1  0  0  0  0
 31 30  1  0  0  0  0
 32 30  1  0  0  0  0
 33 30  1  0  0  0  0
 33 34  1  0  0  0  0
 35 33  1  0  0  0  0
 36 41  1  0  0  0  0
 36 37  2  0  0  0  0
 37 38  1  0  0  0  0
 38 42  1  0  0  0  0
 38 33  1  0  0  0  0
 39 37  1  0  0  0  0
 40 39  1  0  0  0  0
 43 39  1  0  0  0  0
M  END
>  <minimizedAffinity>
-5.51801348

>  <minimizedRMSD>
0.987517297

$$$$
