
 OpenBabel03242514053D

 42 44  0  0  1  0  0  0  0  0999 V2000
   46.3410   30.5020   37.9210 C   0  0  1  0  0  0  0  0  0  0  0  0
   44.8930   30.2160   38.3920 C   0  0  0  0  0  0  0  0  0  0  0  0
   44.7090   28.7230   38.0930 C   0  0  0  0  0  0  0  0  0  0  0  0
   44.6450   28.5850   36.5990 C   0  0  0  0  0  0  0  0  0  0  0  0
   45.8170   29.1570   35.9040 C   0  0  0  0  0  0  0  0  0  0  0  0
   46.3830   30.4200   36.4430 C   0  0  1  0  0  0  0  0  0  0  0  0
   46.9610   29.7010   38.3880 H   0  0  0  0  0  0  0  0  0  0  0  0
   44.7830   30.4250   39.4580 H   0  0  0  0  0  0  0  0  0  0  0  0
   44.1790   30.8110   37.8240 H   0  0  0  0  0  0  0  0  0  0  0  0
   43.7090   28.4420   38.5030 H   0  0  0  0  0  0  0  0  0  0  0  0
   45.5210   28.1480   38.5610 H   0  0  0  0  0  0  0  0  0  0  0  0
   43.6660   28.9940   36.2600 H   0  0  0  0  0  0  0  0  0  0  0  0
   44.6010   27.4890   36.3900 H   0  0  0  0  0  0  0  0  0  0  0  0
   45.5580   29.3070   34.8230 H   0  0  0  0  0  0  0  0  0  0  0  0
   46.6210   28.3660   35.9050 H   0  0  0  0  0  0  0  0  0  0  0  0
   47.4130   30.4730   36.0400 H   0  0  0  0  0  0  0  0  0  0  0  0
   46.6120   33.6140   39.8920 C   0  0  0  0  0  0  0  0  0  0  0  0
   47.7730   34.1360   39.3920 C   0  0  0  0  0  0  0  0  0  0  0  0
   48.5410   33.5450   38.4120 C   0  0  0  0  0  0  0  0  0  0  0  0
   48.0390   32.3320   37.9450 C   0  0  0  0  0  0  0  0  0  0  0  0
   46.8400   31.7730   38.4480 C   0  0  0  0  0  0  0  0  0  0  0  0
   46.1550   32.4320   39.4130 N   0  0  0  0  0  0  0  0  0  0  0  0
   48.1160   35.0830   39.7920 H   0  0  0  0  0  0  0  0  0  0  0  0
   49.4500   33.9380   38.0110 H   0  0  0  0  0  0  0  0  0  0  0  0
   48.6230   31.8410   37.1720 H   0  0  0  0  0  0  0  0  0  0  0  0
   45.7640   35.4750   42.9280 C   0  0  0  0  0  0  0  0  0  0  0  0
   44.3910   35.6490   42.8490 C   0  0  0  0  0  0  0  0  0  0  0  0
   43.7660   35.1130   41.7280 C   0  0  0  0  0  0  0  0  0  0  0  0
   44.5230   34.4570   40.7870 N   0  0  0  0  0  0  0  0  0  0  0  0
   45.8680   34.3200   40.9250 C   0  0  0  0  0  0  0  0  0  0  0  0
   46.4760   34.8230   41.9810 N   0  0  0  0  0  0  0  0  0  0  0  0
   46.2870   35.8830   43.7940 H   0  0  0  0  0  0  0  0  0  0  0  0
   43.8410   36.1690   43.6070 H   0  0  0  0  0  0  0  0  0  0  0  0
   42.6980   35.2060   41.5890 H   0  0  0  0  0  0  0  0  0  0  0  0
   47.2640   32.2630   34.4480 N   0  0  0  0  0  0  0  0  0  0  0  0
   45.9850   32.2580   34.7250 C   0  0  0  0  0  0  0  0  0  0  0  0
   45.6010   31.5240   35.8830 N   0  0  0  0  0  0  0  0  0  0  0  0
   44.9770   32.9180   33.9700 N   0  0  0  0  0  0  0  0  0  0  0  0
   44.8580   33.0720   32.9470 H   0  0  0  0  0  0  0  0  0  0  0  0
   47.5500   32.8040   33.5930 H   0  0  0  0  0  0  0  0  0  0  0  0
   44.6890   31.8260   36.3380 H   0  0  0  0  0  0  0  0  0  0  0  0
   44.1860   33.3460   34.4770 H   0  0  0  0  0  0  0  0  0  0  0  0
  1  7  1  1  0  0  0
  1  2  1  0  0  0  0
  1 21  1  0  0  0  0
  2  8  1  0  0  0  0
  3  2  1  0  0  0  0
  3 10  1  0  0  0  0
  3 11  1  0  0  0  0
  4  3  1  0  0  0  0
  5 15  1  0  0  0  0
  5  6  1  0  0  0  0
  5  4  1  0  0  0  0
  6 16  1  6  0  0  0
  6  1  1  0  0  0  0
  9  2  1  0  0  0  0
 12  4  1  0  0  0  0
 13  4  1  0  0  0  0
 14  5  1  0  0  0  0
 17 30  1  0  0  0  0
 18 23  1  0  0  0  0
 18 17  2  0  0  0  0
 19 18  1  0  0  0  0
 20 19  2  0  0  0  0
 20 21  1  0  0  0  0
 21 22  2  0  0  0  0
 22 17  1  0  0  0  0
 24 19  1  0  0  0  0
 25 20  1  0  0  0  0
 26 32  1  0  0  0  0
 27 26  1  0  0  0  0
 27 33  1  0  0  0  0
 28 27  2  0  0  0  0
 29 30  2  0  0  0  0
 29 28  1  0  0  0  0
 30 31  1  0  0  0  0
 31 26  2  0  0  0  0
 34 28  1  0  0  0  0
 35 36  2  0  0  0  0
 36 37  1  0  0  0  0
 37 41  1  0  0  0  0
 37  6  1  0  0  0  0
 38 42  1  0  0  0  0
 38 36  1  0  0  0  0
 39 38  1  0  0  0  0
 40 35  1  0  0  0  0
M  END
>  <minimizedAffinity>
-5.00556231

>  <minimizedRMSD>
3.10366297

$$$$
