REMARK  Name = 
REMARK  6 active torsions:
REMARK  status: ('A' for Active; 'I' for Inactive)
REMARK    1  A    between atoms: C_1  and  C_7
REMARK    2  A    between atoms: C_5  and  C_13
REMARK    3  A    between atoms: N_16  and  C_18
REMARK    4  A    between atoms: C_18  and  C_19
REMARK    5  A    between atoms: C_20  and  C_21
REMARK    6  A    between atoms: C_21  and  N_44
REMARK                            x       y       z     vdW  Elec       q    Type
REMARK                         _______ _______ _______ _____ _____    ______ ____
ROOT
ATOM      1  C   UNL     1      47.908  33.848  42.863  0.00  0.00    +0.000 A 
ATOM      2  C   UNL     1      48.566  35.093  42.644  0.00  0.00    +0.000 A 
ATOM      3  C   UNL     1      49.928  35.118  42.318  0.00  0.00    +0.000 A 
ATOM      4  N   UNL     1      50.560  33.901  42.230  0.00  0.00    +0.000 NA
ATOM      5  C   UNL     1      49.880  32.725  42.452  0.00  0.00    +0.000 A 
ATOM      6  N   UNL     1      48.599  32.727  42.756  0.00  0.00    +0.000 NA
ATOM      7  H   UNL     1      48.138  36.086  42.695  0.00  0.00    +0.000 HD
ATOM      8  H   UNL     1      50.473  36.013  42.142  0.00  0.00    +0.000 HD
ENDROOT
BRANCH   1   9
ATOM      9  C   UNL     1      46.487  33.965  43.201  0.00  0.00    +0.000 C 
ATOM     10  C   UNL     1      45.759  34.950  42.442  0.00  0.00    +0.000 C 
ATOM     11  C   UNL     1      45.288  36.114  43.225  0.00  0.00    +0.000 C 
ATOM     12  C   UNL     1      44.432  35.650  44.418  0.00  0.00    +0.000 C 
ATOM     13  C   UNL     1      45.008  34.493  45.151  0.00  0.00    +0.000 C 
ATOM     14  C   UNL     1      46.448  34.227  44.743  0.00  0.00    +0.000 C 
ATOM     15  H   UNL     1      46.040  32.929  43.136  0.00  0.00    +0.000 HD
ATOM     16  H   UNL     1      46.337  35.333  41.576  0.00  0.00    +0.000 HD
ATOM     17  H   UNL     1      44.840  34.474  41.994  0.00  0.00    +0.000 HD
ATOM     18  H   UNL     1      46.033  36.818  43.583  0.00  0.00    +0.000 HD
ATOM     19  H   UNL     1      44.586  36.711  42.579  0.00  0.00    +0.000 HD
ATOM     20  H   UNL     1      44.298  36.573  45.041  0.00  0.00    +0.000 HD
ATOM     21  H   UNL     1      43.399  35.424  44.024  0.00  0.00    +0.000 HD
ATOM     22  H   UNL     1      45.017  34.627  46.239  0.00  0.00    +0.000 HD
ATOM     23  H   UNL     1      44.442  33.565  44.884  0.00  0.00    +0.000 HD
ATOM     24  H   UNL     1      46.847  33.367  45.284  0.00  0.00    +0.000 HD
ATOM     25  H   UNL     1      47.066  35.137  44.904  0.00  0.00    +0.000 HD
ENDBRANCH   1   9
BRANCH   5  26
ATOM     26  C   UNL     1      50.717  31.538  42.318  0.00  0.00    +0.000 A 
ATOM     27  N   UNL     1      51.341  31.304  41.153  0.00  0.00    +0.000 NA
ATOM     28  C   UNL     1      52.058  30.153  41.254  0.00  0.00    +0.000 A 
ATOM     29  N   UNL     1      51.863  29.688  42.503  0.00  0.00    +0.000 N 
ATOM     30  N   UNL     1      51.051  30.521  43.156  0.00  0.00    +0.000 NA
ATOM     31  H   UNL     1      52.678  29.680  40.488  0.00  0.00    +0.000 HD
BRANCH  29  32
ATOM     32  C   UNL     1      52.436  28.503  43.095  0.00  0.00    +0.000 C 
ATOM     33  H   UNL     1      51.752  28.159  43.922  0.00  0.00    +0.000 HD
ATOM     34  H   UNL     1      52.528  27.664  42.426  0.00  0.00    +0.000 HD
BRANCH  32  35
ATOM     35  C   UNL     1      53.719  28.837  43.714  0.00  0.00    +0.000 C 
ATOM     36  C   UNL     1      54.081  29.571  44.752  0.00  0.00    +0.000 C 
BRANCH  36  37
ATOM     37  C   UNL     1      55.493  29.751  45.333  0.00  0.00    +0.000 C 
ATOM     38  H   UNL     1      55.498  29.476  46.400  0.00  0.00    +0.000 HD
ATOM     39  H   UNL     1      55.712  30.811  45.149  0.00  0.00    +0.000 HD
BRANCH  37  42
ATOM     40  N   UNL     1      56.257  27.054  45.908  0.00  0.00    +0.000 NA
ATOM     41  C   UNL     1      56.645  27.561  44.803  0.00  0.00    +0.000 C 
ATOM     42  N   UNL     1      56.421  28.960  44.565  0.00  0.00    +0.000 N 
ATOM     43  N   UNL     1      57.290  26.783  43.805  0.00  0.00    +0.000 N 
ATOM     44  H   UNL     1      56.743  26.291  43.045  0.00  0.00    +0.000 HD
ATOM     45  H   UNL     1      55.785  27.642  46.625  0.00  0.00    +0.000 HD
ATOM     46  H   UNL     1      56.988  29.377  43.781  0.00  0.00    +0.000 HD
ATOM     47  H   UNL     1      58.154  26.391  43.374  0.00  0.00    +0.000 HD
ENDBRANCH  37  42
ENDBRANCH  36  37
ENDBRANCH  32  35
ENDBRANCH  29  32
ENDBRANCH   5  26
TORSDOF 6
