REMARK  Name = 
REMARK  3 active torsions:
REMARK  status: ('A' for Active; 'I' for Inactive)
REMARK    1  A    between atoms: C_1  and  C_18
REMARK    2  A    between atoms: C_3  and  C_4
REMARK    3  A    between atoms: C_16  and  N_35
REMARK                            x       y       z     vdW  Elec       q    Type
REMARK                         _______ _______ _______ _____ _____    ______ ____
ROOT
ATOM      1  C   UNL     1      46.393  32.667  45.865  0.00  0.00    +0.000 C 
ATOM      2  C   UNL     1      46.976  32.836  47.203  0.00  0.00    +0.000 C 
ATOM      3  C   UNL     1      45.549  32.206  46.952  0.00  0.00    +0.000 C 
ATOM      4  H   UNL     1      47.152  32.032  45.290  0.00  0.00    +0.000 HD
ATOM      5  H   UNL     1      47.023  33.821  47.695  0.00  0.00    +0.000 HD
ATOM      6  H   UNL     1      47.613  32.091  47.700  0.00  0.00    +0.000 HD
ATOM      7  H   UNL     1      44.912  32.892  47.583  0.00  0.00    +0.000 HD
ENDROOT
BRANCH   3   8
ATOM      8  C   UNL     1      45.304  30.802  47.299  0.00  0.00    +0.000 A 
ATOM      9  C   UNL     1      45.168  30.267  48.542  0.00  0.00    +0.000 A 
ATOM     10  C   UNL     1      45.057  28.921  48.839  0.00  0.00    +0.000 A 
ATOM     11  C   UNL     1      45.090  28.037  47.748  0.00  0.00    +0.000 A 
ATOM     12  C   UNL     1      45.227  28.557  46.461  0.00  0.00    +0.000 A 
ATOM     13  C   UNL     1      45.193  27.655  45.415  0.00  0.00    +0.000 A 
ATOM     14  C   UNL     1      45.256  28.130  44.112  0.00  0.00    +0.000 A 
ATOM     15  C   UNL     1      45.347  29.484  43.861  0.00  0.00    +0.000 A 
ATOM     16  C   UNL     1      45.379  30.338  44.939  0.00  0.00    +0.000 A 
ATOM     17  C   UNL     1      45.328  29.913  46.253  0.00  0.00    +0.000 A 
ATOM     18  H   UNL     1      45.147  30.994  49.355  0.00  0.00    +0.000 HD
ATOM     19  H   UNL     1      44.951  28.583  49.854  0.00  0.00    +0.000 HD
ATOM     20  H   UNL     1      45.011  26.975  47.927  0.00  0.00    +0.000 HD
ATOM     21  H   UNL     1      45.119  26.589  45.641  0.00  0.00    +0.000 HD
ATOM     22  H   UNL     1      45.224  27.325  43.363  0.00  0.00    +0.000 HD
ATOM     23  H   UNL     1      45.380  29.652  42.806  0.00  0.00    +0.000 HD
ATOM     24  H   UNL     1      45.363  31.294  44.501  0.00  0.00    +0.000 HD
ENDBRANCH   3   8
BRANCH   1  29
ATOM     25  C   UNL     1      44.618  35.738  44.843  0.00  0.00    +0.000 A 
ATOM     26  C   UNL     1      45.141  35.966  43.520  0.00  0.00    +0.000 A 
ATOM     27  C   UNL     1      46.103  35.049  43.035  0.00  0.00    +0.000 A 
ATOM     28  N   UNL     1      46.477  34.033  43.809  0.00  0.00    +0.000 NA
ATOM     29  C   UNL     1      45.959  33.847  45.060  0.00  0.00    +0.000 A 
ATOM     30  N   UNL     1      45.053  34.681  45.560  0.00  0.00    +0.000 NA
ATOM     31  H   UNL     1      43.883  36.458  45.185  0.00  0.00    +0.000 HD
ATOM     32  H   UNL     1      44.796  36.788  42.959  0.00  0.00    +0.000 HD
BRANCH  27  35
ATOM     33  N   UNL     1      46.229  33.166  40.858  0.00  0.00    +0.000 NA
ATOM     34  C   UNL     1      47.105  34.143  40.917  0.00  0.00    +0.000 C 
ATOM     35  N   UNL     1      46.676  35.200  41.745  0.00  0.00    +0.000 N 
ATOM     36  N   UNL     1      48.381  34.245  40.261  0.00  0.00    +0.000 N 
ATOM     37  H   UNL     1      48.777  34.405  39.297  0.00  0.00    +0.000 HD
ATOM     38  H   UNL     1      46.485  32.354  40.262  0.00  0.00    +0.000 HD
ATOM     39  H   UNL     1      46.797  36.194  41.380  0.00  0.00    +0.000 HD
ATOM     40  H   UNL     1      49.306  34.153  40.777  0.00  0.00    +0.000 HD
ENDBRANCH  27  35
ENDBRANCH   1  29
TORSDOF 3
