
     RDKit          3D

 49 51  0  0  0  0  0  0  0  0999 V2000
   47.9081   33.8482   42.8634 C   0  0  0  0  0  0  0  0  0  0  0  0
   48.5655   35.0935   42.6436 C   0  0  0  0  0  0  0  0  0  0  0  0
   49.9280   35.1185   42.3180 C   0  0  0  0  0  0  0  0  0  0  0  0
   50.5601   33.9015   42.2300 N   0  0  0  0  0  0  0  0  0  0  0  0
   49.8798   32.7250   42.4521 C   0  0  0  0  0  0  0  0  0  0  0  0
   48.5992   32.7272   42.7563 N   0  0  0  0  0  0  0  0  0  0  0  0
   46.4869   33.9646   43.2012 C   0  0  0  0  0  0  0  0  0  0  0  0
   45.7589   34.9498   42.4421 C   0  0  0  0  0  0  0  0  0  0  0  0
   45.2875   36.1141   43.2249 C   0  0  0  0  0  0  0  0  0  0  0  0
   44.4324   35.6497   44.4184 C   0  0  0  0  0  0  0  0  0  0  0  0
   45.0079   34.4926   45.1510 C   0  0  0  0  0  0  0  0  0  0  0  0
   46.4484   34.2271   44.7430 C   0  0  0  0  0  0  0  0  0  0  0  0
   50.7171   31.5381   42.3184 C   0  0  0  0  0  0  0  0  0  0  0  0
   51.3406   31.3036   41.1532 N   0  0  0  0  0  0  0  0  0  0  0  0
   52.0579   30.1533   41.2542 C   0  0  0  0  0  0  0  0  0  0  0  0
   51.8633   29.6876   42.5032 N   0  0  0  0  0  0  0  0  0  0  0  0
   51.0506   30.5211   43.1563 N   0  0  0  0  0  0  0  0  0  0  0  0
   52.4362   28.5028   43.0952 C   0  0  0  0  0  0  0  0  0  0  0  0
   53.7191   28.8373   43.7136 C   0  0  0  0  0  0  0  0  0  0  0  0
   54.0809   29.5711   44.7525 C   0  0  0  0  0  0  0  0  0  0  0  0
   55.4927   29.7510   45.3333 C   0  0  0  0  0  0  0  0  0  0  0  0
   48.1380   36.0861   42.6946 H   0  0  0  0  0  0  0  0  0  0  0  0
   50.4732   36.0129   42.1420 H   0  0  0  0  0  0  0  0  0  0  0  0
   46.0403   32.9294   43.1356 H   0  0  0  0  0  0  0  0  0  0  0  0
   46.3368   35.3333   41.5761 H   0  0  0  0  0  0  0  0  0  0  0  0
   44.8395   34.4739   41.9938 H   0  0  0  0  0  0  0  0  0  0  0  0
   46.0326   36.8184   43.5832 H   0  0  0  0  0  0  0  0  0  0  0  0
   44.5859   36.7112   42.5790 H   0  0  0  0  0  0  0  0  0  0  0  0
   44.2983   36.5727   45.0408 H   0  0  0  0  0  0  0  0  0  0  0  0
   43.3991   35.4244   44.0242 H   0  0  0  0  0  0  0  0  0  0  0  0
   45.0171   34.6268   46.2385 H   0  0  0  0  0  0  0  0  0  0  0  0
   44.4416   33.5645   44.8836 H   0  0  0  0  0  0  0  0  0  0  0  0
   46.8470   33.3667   45.2842 H   0  0  0  0  0  0  0  0  0  0  0  0
   47.0659   35.1371   44.9038 H   0  0  0  0  0  0  0  0  0  0  0  0
   52.6784   29.6797   40.4876 H   0  0  0  0  0  0  0  0  0  0  0  0
   51.7524   28.1590   43.9222 H   0  0  0  0  0  0  0  0  0  0  0  0
   52.5277   27.6636   42.4264 H   0  0  0  0  0  0  0  0  0  0  0  0
   54.6195   28.4041   43.2310 H   0  0  0  0  0  0  0  0  0  0  0  0
   53.2636   30.0620   45.2979 H   0  0  0  0  0  0  0  0  0  0  0  0
   55.4980   29.4757   46.4003 H   0  0  0  0  0  0  0  0  0  0  0  0
   55.7121   30.8107   45.1486 H   0  0  0  0  0  0  0  0  0  0  0  0
   55.4219   26.9046   45.0530 N   0  0  0  0  0  0  0  0  0  0  0  0
   56.2450   27.5545   44.3265 C   0  0  0  0  0  0  0  0  0  0  0  0
   56.4209   28.9598   44.5654 N   0  0  0  0  0  0  0  0  0  0  0  0
   56.9890   26.9294   43.2903 N   0  0  0  0  0  0  0  0  0  0  0  0
   56.6209   26.8698   42.3007 H   0  0  0  0  0  0  0  0  0  0  0  0
   54.8860   27.3819   45.8061 H   0  0  0  0  0  0  0  0  0  0  0  0
   57.2867   29.3816   44.1361 H   0  0  0  0  0  0  0  0  0  0  0  0
   57.8373   26.4250   42.9565 H   0  0  0  0  0  0  0  0  0  0  0  0
  1  7  1  0
  2  1  2  0
  3  2  1  0
  4  3  2  0
  4  5  1  0
  5  6  2  0
  6  1  1  0
  7 12  1  0
  8  7  1  0
  8  9  1  0
  9 10  1  0
 10 11  1  0
 12 11  1  0
 13  5  1  0
 13 17  2  0
 14 15  2  0
 14 13  1  0
 15 16  1  0
 16 18  1  0
 16 17  1  0
 18 19  1  0
 19 20  2  0
 20 21  1  0
  2 22  1  0
  3 23  1  0
  7 24  1  0
  8 25  1  0
  8 26  1  0
  9 27  1  0
  9 28  1  0
 10 29  1  0
 10 30  1  0
 11 31  1  0
 11 32  1  0
 12 33  1  0
 12 34  1  0
 15 35  1  0
 18 36  1  0
 18 37  1  0
 19 38  1  0
 20 39  1  0
 21 40  1  0
 21 41  1  0
 42 43  2  3
 43 44  1  0
 43 45  1  0
 45 46  1  0
 42 47  1  0
 44 48  1  0
 45 49  1  0
 21 44  1  0
M  ISO  8  22  14  23  14  24  13  25  13  26  13  27  13  28  13  29  13
M  ISO  8  30  13  31  13  32  13  33  13  34  13  35  14  36   8  37   8
M  ISO  3  40   8  41   8  46   5
M  END
>  <DihAtoms>  (1) 
19,20,43,42

>  <DihDeg>  (1) 
-68.74411043871498

$$$$
