
 OpenBabel03252508253D

 40 43  0  0  1  0  0  0  0  0999 V2000
   46.3410   32.4990   45.9920 C   0  0  1  0  0  0  0  0  0  0  0  0
   46.9830   32.6360   47.3060 C   0  0  0  0  0  0  0  0  0  0  0  0
   45.5320   32.0430   47.1070 C   0  0  2  0  0  0  0  0  0  0  0  0
   47.0600   31.8540   45.3780 H   0  0  0  0  0  0  0  0  0  0  0  0
   47.0740   33.6130   47.8080 H   0  0  0  0  0  0  0  0  0  0  0  0
   47.6220   31.8700   47.7670 H   0  0  0  0  0  0  0  0  0  0  0  0
   44.9380   32.7350   47.7720 H   0  0  0  0  0  0  0  0  0  0  0  0
   45.2680   30.6400   47.4460 C   0  0  0  0  0  0  0  0  0  0  0  0
   45.1380   30.0980   48.6870 C   0  0  0  0  0  0  0  0  0  0  0  0
   45.0090   28.7520   48.9750 C   0  0  0  0  0  0  0  0  0  0  0  0
   45.0140   27.8760   47.8770 C   0  0  0  0  0  0  0  0  0  0  0  0
   45.1440   28.4040   46.5920 C   0  0  0  0  0  0  0  0  0  0  0  0
   45.0820   27.5110   45.5400 C   0  0  0  0  0  0  0  0  0  0  0  0
   45.1370   27.9950   44.2400 C   0  0  0  0  0  0  0  0  0  0  0  0
   45.2480   29.3490   43.9980 C   0  0  0  0  0  0  0  0  0  0  0  0
   45.3070   30.1940   45.0820 C   0  0  0  0  0  0  0  0  0  0  0  0
   45.2650   29.7590   46.3930 C   0  0  0  0  0  0  0  0  0  0  0  0
   45.1390   30.8190   49.5050 H   0  0  0  0  0  0  0  0  0  0  0  0
   44.9090   28.4080   49.9880 H   0  0  0  0  0  0  0  0  0  0  0  0
   44.9190   26.8140   48.0480 H   0  0  0  0  0  0  0  0  0  0  0  0
   44.9930   26.4440   45.7580 H   0  0  0  0  0  0  0  0  0  0  0  0
   45.0830   27.1960   43.4850 H   0  0  0  0  0  0  0  0  0  0  0  0
   45.2710   29.5250   42.9440 H   0  0  0  0  0  0  0  0  0  0  0  0
   45.3010   31.1530   44.6510 H   0  0  0  0  0  0  0  0  0  0  0  0
   44.6040   35.6270   45.0860 C   0  0  0  0  0  0  0  0  0  0  0  0
   45.0720   35.8580   43.7430 C   0  0  0  0  0  0  0  0  0  0  0  0
   45.9860   34.9210   43.2040 C   0  0  0  0  0  0  0  0  0  0  0  0
   46.3680   33.8870   43.9490 N   0  0  0  0  0  0  0  0  0  0  0  0
   45.9030   33.6990   45.2200 C   0  0  0  0  0  0  0  0  0  0  0  0
   45.0430   34.5510   45.7700 N   0  0  0  0  0  0  0  0  0  0  0  0
   43.9050   36.3620   45.4690 H   0  0  0  0  0  0  0  0  0  0  0  0
   44.7240   36.6950   43.2070 H   0  0  0  0  0  0  0  0  0  0  0  0
   44.6950   34.4810   40.6660 N   0  0  0  0  0  0  0  0  0  0  0  0
   46.0050   34.4300   40.7410 C   0  0  0  0  0  0  0  0  0  0  0  0
   46.5030   35.0730   41.8910 N   0  0  0  0  0  0  0  0  0  0  0  0
   46.9340   33.8240   39.8230 N   0  0  0  0  0  0  0  0  0  0  0  0
   47.3340   33.9900   38.8620 H   0  0  0  0  0  0  0  0  0  0  0  0
   44.2620   34.0240   39.8390 H   0  0  0  0  0  0  0  0  0  0  0  0
   47.3410   35.7220   41.7710 H   0  0  0  0  0  0  0  0  0  0  0  0
   47.4600   32.9260   40.0390 H   0  0  0  0  0  0  0  0  0  0  0  0
  1  4  1  6  0  0  0
  1  3  1  0  0  0  0
  1  2  1  0  0  0  0
  2  6  1  0  0  0  0
  2  5  1  0  0  0  0
  3  2  1  0  0  0  0
  3  8  1  0  0  0  0
  3  7  1  1  0  0  0
  8  9  1  0  0  0  0
  9 10  2  0  0  0  0
  9 18  1  0  0  0  0
 10 19  1  0  0  0  0
 11 20  1  0  0  0  0
 11 10  1  0  0  0  0
 12 11  2  0  0  0  0
 13 21  1  0  0  0  0
 13 12  1  0  0  0  0
 14 13  2  0  0  0  0
 15 14  1  0  0  0  0
 15 16  2  0  0  0  0
 16 17  1  0  0  0  0
 17 12  1  0  0  0  0
 17  8  2  0  0  0  0
 22 14  1  0  0  0  0
 23 15  1  0  0  0  0
 24 16  1  0  0  0  0
 25 31  1  0  0  0  0
 25 30  1  0  0  0  0
 26 25  2  0  0  0  0
 27 26  1  0  0  0  0
 27 28  2  0  0  0  0
 28 29  1  0  0  0  0
 29 30  2  0  0  0  0
 29  1  1  0  0  0  0
 32 26  1  0  0  0  0
 33 34  2  0  0  0  0
 34 35  1  0  0  0  0
 35 27  1  0  0  0  0
 36 40  1  0  0  0  0
 36 34  1  0  0  0  0
 37 36  1  0  0  0  0
 38 33  1  0  0  0  0
 39 35  1  0  0  0  0
M  END
>  <minimizedAffinity>
-5.32489252

>  <minimizedRMSD>
0.600022733

$$$$
