
 OpenBabel03252508273D

 40 43  0  0  1  0  0  0  0  0999 V2000
   39.1550   29.6500   40.9250 C   0  0  1  0  0  0  0  0  0  0  0  0
   38.7480   30.0960   42.2650 C   0  0  0  0  0  0  0  0  0  0  0  0
   38.3400   28.6960   41.6550 C   0  0  2  0  0  0  0  0  0  0  0  0
   40.2990   29.6990   40.9330 H   0  0  0  0  0  0  0  0  0  0  0  0
   37.9520   30.8440   42.4100 H   0  0  0  0  0  0  0  0  0  0  0  0
   39.3350   29.9310   43.1790 H   0  0  0  0  0  0  0  0  0  0  0  0
   37.2160   28.7640   41.7310 H   0  0  0  0  0  0  0  0  0  0  0  0
   38.8310   27.4630   42.2790 C   0  0  0  0  0  0  0  0  0  0  0  0
   39.8230   27.3380   43.2010 C   0  0  0  0  0  0  0  0  0  0  0  0
   40.3420   26.1490   43.6800 C   0  0  0  0  0  0  0  0  0  0  0  0
   39.7860   24.9700   43.1550 C   0  0  0  0  0  0  0  0  0  0  0  0
   38.7670   25.0670   42.2080 C   0  0  0  0  0  0  0  0  0  0  0  0
   38.2090   23.8830   41.7660 C   0  0  0  0  0  0  0  0  0  0  0  0
   37.1450   23.9290   40.8760 C   0  0  0  0  0  0  0  0  0  0  0  0
   36.6460   25.1390   40.4390 C   0  0  0  0  0  0  0  0  0  0  0  0
   37.2390   26.2880   40.9090 C   0  0  0  0  0  0  0  0  0  0  0  0
   38.3050   26.2930   41.7890 C   0  0  0  0  0  0  0  0  0  0  0  0
   40.2200   28.2810   43.5780 H   0  0  0  0  0  0  0  0  0  0  0  0
   41.1280   26.1410   44.4130 H   0  0  0  0  0  0  0  0  0  0  0  0
   40.1600   24.0150   43.4930 H   0  0  0  0  0  0  0  0  0  0  0  0
   38.6220   22.9390   42.1290 H   0  0  0  0  0  0  0  0  0  0  0  0
   36.7840   22.9300   40.5910 H   0  0  0  0  0  0  0  0  0  0  0  0
   35.8320   24.9700   39.7670 H   0  0  0  0  0  0  0  0  0  0  0  0
   36.6430   27.0580   40.5120 H   0  0  0  0  0  0  0  0  0  0  0  0
   36.7880   30.6660   38.2820 C   0  0  0  0  0  0  0  0  0  0  0  0
   37.6290   31.4320   37.3980 C   0  0  0  0  0  0  0  0  0  0  0  0
   38.9890   31.5790   37.7600 C   0  0  0  0  0  0  0  0  0  0  0  0
   39.4240   31.0120   38.8830 N   0  0  0  0  0  0  0  0  0  0  0  0
   38.5970   30.2910   39.6980 C   0  0  0  0  0  0  0  0  0  0  0  0
   37.3130   30.1250   39.4010 N   0  0  0  0  0  0  0  0  0  0  0  0
   35.7520   30.5720   37.9760 H   0  0  0  0  0  0  0  0  0  0  0  0
   37.2190   31.8480   36.5210 H   0  0  0  0  0  0  0  0  0  0  0  0
   41.6530   30.9060   36.8940 N   0  0  0  0  0  0  0  0  0  0  0  0
   41.2890   32.1670   36.9400 C   0  0  0  0  0  0  0  0  0  0  0  0
   39.8880   32.3220   36.9510 N   0  0  0  0  0  0  0  0  0  0  0  0
   42.1200   33.3410   36.9730 N   0  0  0  0  0  0  0  0  0  0  0  0
   42.7470   33.8980   36.3340 H   0  0  0  0  0  0  0  0  0  0  0  0
   42.6760   30.7230   36.8840 H   0  0  0  0  0  0  0  0  0  0  0  0
   39.4670   33.0600   36.3080 H   0  0  0  0  0  0  0  0  0  0  0  0
   42.2410   33.9400   37.8430 H   0  0  0  0  0  0  0  0  0  0  0  0
  1  4  1  6  0  0  0
  1  3  1  0  0  0  0
  1  2  1  0  0  0  0
  2  5  1  0  0  0  0
  2  6  1  0  0  0  0
  3  7  1  6  0  0  0
  3  2  1  0  0  0  0
  3  8  1  0  0  0  0
  8  9  1  0  0  0  0
  9 18  1  0  0  0  0
  9 10  2  0  0  0  0
 10 19  1  0  0  0  0
 11 20  1  0  0  0  0
 11 10  1  0  0  0  0
 12 11  2  0  0  0  0
 13 21  1  0  0  0  0
 13 12  1  0  0  0  0
 14 13  2  0  0  0  0
 15 14  1  0  0  0  0
 15 16  2  0  0  0  0
 16 17  1  0  0  0  0
 17 12  1  0  0  0  0
 17  8  2  0  0  0  0
 22 14  1  0  0  0  0
 23 15  1  0  0  0  0
 24 16  1  0  0  0  0
 25 30  1  0  0  0  0
 26 27  1  0  0  0  0
 26 25  2  0  0  0  0
 27 28  2  0  0  0  0
 28 29  1  0  0  0  0
 29  1  1  0  0  0  0
 30 29  2  0  0  0  0
 31 25  1  0  0  0  0
 32 26  1  0  0  0  0
 33 34  2  0  0  0  0
 34 35  1  0  0  0  0
 34 36  1  0  0  0  0
 35 27  1  0  0  0  0
 36 40  1  0  0  0  0
 37 36  1  0  0  0  0
 38 33  1  0  0  0  0
 39 35  1  0  0  0  0
M  END
>  <minimizedAffinity>
-6.8914237

$$$$

 OpenBabel03252508273D

 40 43  0  0  1  0  0  0  0  0999 V2000
   34.2040   28.4730   36.5600 C   0  0  1  0  0  0  0  0  0  0  0  0
   33.1800   27.4690   36.2400 C   0  0  0  0  0  0  0  0  0  0  0  0
   32.8480   28.8650   36.9010 C   0  0  2  0  0  0  0  0  0  0  0  0
   34.7320   28.6830   35.5670 H   0  0  0  0  0  0  0  0  0  0  0  0
   33.0430   26.5640   36.8540 H   0  0  0  0  0  0  0  0  0  0  0  0
   32.6610   27.3990   35.2740 H   0  0  0  0  0  0  0  0  0  0  0  0
   32.3160   28.5230   37.8360 H   0  0  0  0  0  0  0  0  0  0  0  0
   32.0370   29.8420   36.1670 C   0  0  0  0  0  0  0  0  0  0  0  0
   32.2570   30.3280   34.9150 C   0  0  0  0  0  0  0  0  0  0  0  0
   31.5400   31.3370   34.2990 C   0  0  0  0  0  0  0  0  0  0  0  0
   30.4930   31.9030   35.0450 C   0  0  0  0  0  0  0  0  0  0  0  0
   30.2430   31.4230   36.3300 C   0  0  0  0  0  0  0  0  0  0  0  0
   29.1660   31.9680   37.0020 C   0  0  0  0  0  0  0  0  0  0  0  0
   28.8340   31.4750   38.2570 C   0  0  0  0  0  0  0  0  0  0  0  0
   29.5660   30.4530   38.8270 C   0  0  0  0  0  0  0  0  0  0  0  0
   30.6300   29.9490   38.1160 C   0  0  0  0  0  0  0  0  0  0  0  0
   31.0040   30.4120   36.8680 C   0  0  0  0  0  0  0  0  0  0  0  0
   33.0800   29.8550   34.3770 H   0  0  0  0  0  0  0  0  0  0  0  0
   31.7810   31.6600   33.3020 H   0  0  0  0  0  0  0  0  0  0  0  0
   29.9050   32.6970   34.6090 H   0  0  0  0  0  0  0  0  0  0  0  0
   28.6020   32.7740   36.5280 H   0  0  0  0  0  0  0  0  0  0  0  0
   27.9640   31.9830   38.6980 H   0  0  0  0  0  0  0  0  0  0  0  0
   29.1590   30.2100   39.7850 H   0  0  0  0  0  0  0  0  0  0  0  0
   30.9660   29.1440   38.7040 H   0  0  0  0  0  0  0  0  0  0  0  0
   36.3150   26.7650   39.0600 C   0  0  0  0  0  0  0  0  0  0  0  0
   36.9600   27.8710   39.7200 C   0  0  0  0  0  0  0  0  0  0  0  0
   36.6470   29.1730   39.2630 C   0  0  0  0  0  0  0  0  0  0  0  0
   35.7840   29.3160   38.2600 N   0  0  0  0  0  0  0  0  0  0  0  0
   35.1900   28.2430   37.6570 C   0  0  0  0  0  0  0  0  0  0  0  0
   35.4520   27.0010   38.0500 N   0  0  0  0  0  0  0  0  0  0  0  0
   36.5760   25.7810   39.4340 H   0  0  0  0  0  0  0  0  0  0  0  0
   37.6290   27.6850   40.5130 H   0  0  0  0  0  0  0  0  0  0  0  0
   35.6400   30.8850   41.3500 N   0  0  0  0  0  0  0  0  0  0  0  0
   36.5390   31.3490   40.5130 C   0  0  0  0  0  0  0  0  0  0  0  0
   37.2400   30.3200   39.8520 N   0  0  0  0  0  0  0  0  0  0  0  0
   36.8700   32.7180   40.2180 N   0  0  0  0  0  0  0  0  0  0  0  0
   37.3560   33.5390   40.6650 H   0  0  0  0  0  0  0  0  0  0  0  0
   35.0870   31.5950   41.8710 H   0  0  0  0  0  0  0  0  0  0  0  0
   38.2990   30.4100   39.7800 H   0  0  0  0  0  0  0  0  0  0  0  0
   36.6080   33.1920   39.3030 H   0  0  0  0  0  0  0  0  0  0  0  0
  1  4  1  6  0  0  0
  1  3  1  0  0  0  0
  1 29  1  0  0  0  0
  2  1  1  0  0  0  0
  2  5  1  0  0  0  0
  2  3  1  0  0  0  0
  3  7  1  1  0  0  0
  6  2  1  0  0  0  0
  8 17  1  0  0  0  0
  8  3  1  0  0  0  0
  9  8  2  0  0  0  0
 10  9  1  0  0  0  0
 10 11  2  0  0  0  0
 11 12  1  0  0  0  0
 12 17  2  0  0  0  0
 12 13  1  0  0  0  0
 13 14  2  0  0  0  0
 14 22  1  0  0  0  0
 14 15  1  0  0  0  0
 15 23  1  0  0  0  0
 16 24  1  0  0  0  0
 16 15  2  0  0  0  0
 17 16  1  0  0  0  0
 18  9  1  0  0  0  0
 19 10  1  0  0  0  0
 20 11  1  0  0  0  0
 21 13  1  0  0  0  0
 25 31  1  0  0  0  0
 25 26  1  0  0  0  0
 26 32  1  0  0  0  0
 27 26  2  0  0  0  0
 27 35  1  0  0  0  0
 28 27  1  0  0  0  0
 29 30  1  0  0  0  0
 29 28  2  0  0  0  0
 30 25  2  0  0  0  0
 33 38  1  0  0  0  0
 34 33  2  0  0  0  0
 35 34  1  0  0  0  0
 36 34  1  0  0  0  0
 36 37  1  0  0  0  0
 39 35  1  0  0  0  0
 40 36  1  0  0  0  0
M  END
>  <minimizedAffinity>
-6.87265873

$$$$

 OpenBabel03252508273D

 40 43  0  0  1  0  0  0  0  0999 V2000
   38.4740   29.3220   41.7170 C   0  0  1  0  0  0  0  0  0  0  0  0
   37.7700   29.2080   43.0010 C   0  0  0  0  0  0  0  0  0  0  0  0
   37.1800   28.6690   41.6380 C   0  0  2  0  0  0  0  0  0  0  0  0
   39.4790   28.8000   41.8840 H   0  0  0  0  0  0  0  0  0  0  0  0
   37.2730   30.0730   43.4690 H   0  0  0  0  0  0  0  0  0  0  0  0
   37.8840   28.3660   43.6980 H   0  0  0  0  0  0  0  0  0  0  0  0
   36.2000   29.2270   41.6080 H   0  0  0  0  0  0  0  0  0  0  0  0
   36.9660   27.2290   41.4580 C   0  0  0  0  0  0  0  0  0  0  0  0
   37.1650   26.2410   42.3710 C   0  0  0  0  0  0  0  0  0  0  0  0
   37.0670   24.8830   42.1320 C   0  0  0  0  0  0  0  0  0  0  0  0
   36.7320   24.5030   40.8220 C   0  0  0  0  0  0  0  0  0  0  0  0
   36.5210   25.4940   39.8640 C   0  0  0  0  0  0  0  0  0  0  0  0
   36.1340   25.0760   38.6060 C   0  0  0  0  0  0  0  0  0  0  0  0
   35.8450   26.0280   37.6370 C   0  0  0  0  0  0  0  0  0  0  0  0
   35.9370   27.3740   37.9250 C   0  0  0  0  0  0  0  0  0  0  0  0
   36.3290   27.7360   39.1940 C   0  0  0  0  0  0  0  0  0  0  0  0
   36.6350   26.8260   40.1880 C   0  0  0  0  0  0  0  0  0  0  0  0
   37.4210   26.5870   43.3740 H   0  0  0  0  0  0  0  0  0  0  0  0
   37.2400   24.1670   42.9160 H   0  0  0  0  0  0  0  0  0  0  0  0
   36.6480   23.4530   40.5830 H   0  0  0  0  0  0  0  0  0  0  0  0
   36.0680   24.0040   38.4040 H   0  0  0  0  0  0  0  0  0  0  0  0
   35.5520   25.5810   36.6760 H   0  0  0  0  0  0  0  0  0  0  0  0
   35.6730   27.9450   37.0610 H   0  0  0  0  0  0  0  0  0  0  0  0
   36.2420   28.7840   39.1930 H   0  0  0  0  0  0  0  0  0  0  0  0
   39.5750   32.7880   41.0850 C   0  0  0  0  0  0  0  0  0  0  0  0
   38.9200   33.0930   39.8380 C   0  0  0  0  0  0  0  0  0  0  0  0
   38.1290   32.0760   39.2550 C   0  0  0  0  0  0  0  0  0  0  0  0
   38.0250   30.9020   39.8720 N   0  0  0  0  0  0  0  0  0  0  0  0
   38.6600   30.6470   41.0560 C   0  0  0  0  0  0  0  0  0  0  0  0
   39.4150   31.5700   41.6430 N   0  0  0  0  0  0  0  0  0  0  0  0
   40.1730   33.5880   41.5060 H   0  0  0  0  0  0  0  0  0  0  0  0
   39.0410   34.0460   39.4070 H   0  0  0  0  0  0  0  0  0  0  0  0
   38.0260   30.3980   36.9140 N   0  0  0  0  0  0  0  0  0  0  0  0
   37.7960   31.6860   36.7950 C   0  0  0  0  0  0  0  0  0  0  0  0
   37.4530   32.2870   38.0240 N   0  0  0  0  0  0  0  0  0  0  0  0
   37.8480   32.5020   35.6110 N   0  0  0  0  0  0  0  0  0  0  0  0
   37.2990   32.6680   34.7270 H   0  0  0  0  0  0  0  0  0  0  0  0
   38.2840   29.8960   36.0420 H   0  0  0  0  0  0  0  0  0  0  0  0
   36.6260   32.9580   38.0320 H   0  0  0  0  0  0  0  0  0  0  0  0
   38.6230   33.2070   35.4290 H   0  0  0  0  0  0  0  0  0  0  0  0
  1  4  1  6  0  0  0
  1  2  1  0  0  0  0
  2  5  1  0  0  0  0
  2  6  1  0  0  0  0
  3  7  1  6  0  0  0
  3  1  1  0  0  0  0
  3  2  1  0  0  0  0
  8  3  1  0  0  0  0
  8  9  1  0  0  0  0
  9 18  1  0  0  0  0
 10  9  2  0  0  0  0
 10 19  1  0  0  0  0
 11 10  1  0  0  0  0
 12 17  1  0  0  0  0
 12 11  2  0  0  0  0
 13 12  1  0  0  0  0
 14 15  1  0  0  0  0
 14 13  2  0  0  0  0
 15 16  2  0  0  0  0
 16 17  1  0  0  0  0
 17  8  2  0  0  0  0
 20 11  1  0  0  0  0
 21 13  1  0  0  0  0
 22 14  1  0  0  0  0
 23 15  1  0  0  0  0
 24 16  1  0  0  0  0
 25 31  1  0  0  0  0
 25 30  1  0  0  0  0
 26 25  2  0  0  0  0
 27 26  1  0  0  0  0
 27 28  2  0  0  0  0
 28 29  1  0  0  0  0
 29 30  2  0  0  0  0
 29  1  1  0  0  0  0
 32 26  1  0  0  0  0
 34 33  2  0  0  0  0
 34 35  1  0  0  0  0
 35 39  1  0  0  0  0
 35 27  1  0  0  0  0
 36 34  1  0  0  0  0
 37 36  1  0  0  0  0
 38 33  1  0  0  0  0
 40 36  1  0  0  0  0
M  END
>  <minimizedAffinity>
-6.64378834

$$$$

 OpenBabel03252508273D

 40 43  0  0  1  0  0  0  0  0999 V2000
   36.7460   29.7210   38.7580 C   0  0  1  0  0  0  0  0  0  0  0  0
   36.5500   30.9130   39.5960 C   0  0  0  0  0  0  0  0  0  0  0  0
   36.0870   29.4650   40.0260 C   0  0  2  0  0  0  0  0  0  0  0  0
   37.8740   29.6760   38.5680 H   0  0  0  0  0  0  0  0  0  0  0  0
   35.7690   31.6570   39.3720 H   0  0  0  0  0  0  0  0  0  0  0  0
   37.2830   31.2850   40.3260 H   0  0  0  0  0  0  0  0  0  0  0  0
   34.9880   29.6500   40.2080 H   0  0  0  0  0  0  0  0  0  0  0  0
   36.7060   28.8200   41.1890 C   0  0  0  0  0  0  0  0  0  0  0  0
   37.1750   29.4180   42.3160 C   0  0  0  0  0  0  0  0  0  0  0  0
   37.8610   28.7930   43.3420 C   0  0  0  0  0  0  0  0  0  0  0  0
   38.0870   27.4150   43.1920 C   0  0  0  0  0  0  0  0  0  0  0  0
   37.6160   26.7740   42.0460 C   0  0  0  0  0  0  0  0  0  0  0  0
   37.8080   25.4080   41.9700 C   0  0  0  0  0  0  0  0  0  0  0  0
   37.2960   24.7140   40.8820 C   0  0  0  0  0  0  0  0  0  0  0  0
   36.6010   25.3750   39.8900 C   0  0  0  0  0  0  0  0  0  0  0  0
   36.4400   26.7360   40.0140 C   0  0  0  0  0  0  0  0  0  0  0  0
   36.9380   27.4710   41.0730 C   0  0  0  0  0  0  0  0  0  0  0  0
   36.9730   30.4880   42.3860 H   0  0  0  0  0  0  0  0  0  0  0  0
   38.1960   29.3440   44.2020 H   0  0  0  0  0  0  0  0  0  0  0  0
   38.6220   26.8810   43.9630 H   0  0  0  0  0  0  0  0  0  0  0  0
   38.3600   24.9090   42.7690 H   0  0  0  0  0  0  0  0  0  0  0  0
   37.5110   23.6360   40.9250 H   0  0  0  0  0  0  0  0  0  0  0  0
   36.2850   24.6760   39.1460 H   0  0  0  0  0  0  0  0  0  0  0  0
   35.8200   26.9890   39.2030 H   0  0  0  0  0  0  0  0  0  0  0  0
   34.0100   28.9130   36.4160 C   0  0  0  0  0  0  0  0  0  0  0  0
   34.6270   29.1480   35.1350 C   0  0  0  0  0  0  0  0  0  0  0  0
   35.9700   29.5920   35.1320 C   0  0  0  0  0  0  0  0  0  0  0  0
   36.5950   29.7700   36.2940 N   0  0  0  0  0  0  0  0  0  0  0  0
   35.9790   29.5370   37.4910 C   0  0  0  0  0  0  0  0  0  0  0  0
   34.7180   29.1190   37.5460 N   0  0  0  0  0  0  0  0  0  0  0  0
   32.9810   28.5740   36.3840 H   0  0  0  0  0  0  0  0  0  0  0  0
   34.0750   28.9810   34.2540 H   0  0  0  0  0  0  0  0  0  0  0  0
   37.1420   32.0480   34.1870 N   0  0  0  0  0  0  0  0  0  0  0  0
   36.7950   31.1240   33.3200 C   0  0  0  0  0  0  0  0  0  0  0  0
   36.6540   29.8540   33.9160 N   0  0  0  0  0  0  0  0  0  0  0  0
   36.5600   31.2600   31.9070 N   0  0  0  0  0  0  0  0  0  0  0  0
   37.1020   31.4110   31.0160 H   0  0  0  0  0  0  0  0  0  0  0  0
   37.2630   33.0090   33.8100 H   0  0  0  0  0  0  0  0  0  0  0  0
   37.0880   29.0210   33.4140 H   0  0  0  0  0  0  0  0  0  0  0  0
   35.5900   31.2170   31.4750 H   0  0  0  0  0  0  0  0  0  0  0  0
  1  4  1  6  0  0  0
  1  2  1  0  0  0  0
  1  3  1  0  0  0  0
  2  3  1  0  0  0  0
  2  6  1  0  0  0  0
  3  7  1  6  0  0  0
  3  8  1  0  0  0  0
  5  2  1  0  0  0  0
  8  9  1  0  0  0  0
  9 18  1  0  0  0  0
  9 10  2  0  0  0  0
 10 19  1  0  0  0  0
 11 10  1  0  0  0  0
 11 20  1  0  0  0  0
 12 11  2  0  0  0  0
 13 12  1  0  0  0  0
 13 21  1  0  0  0  0
 14 22  1  0  0  0  0
 14 13  2  0  0  0  0
 15 16  2  0  0  0  0
 15 14  1  0  0  0  0
 16 17  1  0  0  0  0
 17  8  2  0  0  0  0
 17 12  1  0  0  0  0
 23 15  1  0  0  0  0
 24 16  1  0  0  0  0
 25 30  1  0  0  0  0
 26 25  2  0  0  0  0
 27 26  1  0  0  0  0
 27 28  2  0  0  0  0
 28 29  1  0  0  0  0
 29 30  2  0  0  0  0
 29  1  1  0  0  0  0
 31 25  1  0  0  0  0
 32 26  1  0  0  0  0
 34 35  1  0  0  0  0
 34 33  2  0  0  0  0
 35 27  1  0  0  0  0
 36 34  1  0  0  0  0
 37 36  1  0  0  0  0
 38 33  1  0  0  0  0
 39 35  1  0  0  0  0
 40 36  1  0  0  0  0
M  END
>  <minimizedAffinity>
-6.55097961

$$$$

 OpenBabel03252508273D

 40 43  0  0  1  0  0  0  0  0999 V2000
   39.2530   29.7670   42.3690 C   0  0  1  0  0  0  0  0  0  0  0  0
   37.8610   29.5120   42.7630 C   0  0  0  0  0  0  0  0  0  0  0  0
   38.7070   28.5180   41.8720 C   0  0  2  0  0  0  0  0  0  0  0  0
   39.8190   29.9070   43.3540 H   0  0  0  0  0  0  0  0  0  0  0  0
   37.0180   30.0370   42.2870 H   0  0  0  0  0  0  0  0  0  0  0  0
   37.5640   28.9980   43.6880 H   0  0  0  0  0  0  0  0  0  0  0  0
   38.0400   28.4440   40.9640 H   0  0  0  0  0  0  0  0  0  0  0  0
   39.0370   27.1840   42.3860 C   0  0  0  0  0  0  0  0  0  0  0  0
   39.9860   26.8620   43.3050 C   0  0  0  0  0  0  0  0  0  0  0  0
   40.3530   25.5820   43.6790 C   0  0  0  0  0  0  0  0  0  0  0  0
   39.6760   24.5280   43.0430 C   0  0  0  0  0  0  0  0  0  0  0  0
   38.6960   24.8290   42.0960 C   0  0  0  0  0  0  0  0  0  0  0  0
   38.0140   23.7630   41.5420 C   0  0  0  0  0  0  0  0  0  0  0  0
   36.9830   24.0130   40.6470 C   0  0  0  0  0  0  0  0  0  0  0  0
   36.6380   25.3080   40.3170 C   0  0  0  0  0  0  0  0  0  0  0  0
   37.3500   26.3320   40.8960 C   0  0  0  0  0  0  0  0  0  0  0  0
   38.3900   26.1330   41.7850 C   0  0  0  0  0  0  0  0  0  0  0  0
   40.4820   27.7140   43.7710 H   0  0  0  0  0  0  0  0  0  0  0  0
   41.1160   25.4160   44.4180 H   0  0  0  0  0  0  0  0  0  0  0  0
   39.9280   23.5090   43.2960 H   0  0  0  0  0  0  0  0  0  0  0  0
   38.3070   22.7480   41.8210 H   0  0  0  0  0  0  0  0  0  0  0  0
   36.5150   23.0930   40.2680 H   0  0  0  0  0  0  0  0  0  0  0  0
   35.8250   25.2970   39.6230 H   0  0  0  0  0  0  0  0  0  0  0  0
   36.8570   27.1990   40.5640 H   0  0  0  0  0  0  0  0  0  0  0  0
   40.9950   32.5880   40.7450 C   0  0  0  0  0  0  0  0  0  0  0  0
   40.1390   32.8680   39.6200 C   0  0  0  0  0  0  0  0  0  0  0  0
   38.9920   32.0560   39.4590 C   0  0  0  0  0  0  0  0  0  0  0  0
   38.7570   31.0850   40.3390 N   0  0  0  0  0  0  0  0  0  0  0  0
   39.5910   30.8480   41.3960 C   0  0  0  0  0  0  0  0  0  0  0  0
   40.6810   31.5840   41.5900 N   0  0  0  0  0  0  0  0  0  0  0  0
   41.8650   33.2280   40.8400 H   0  0  0  0  0  0  0  0  0  0  0  0
   40.3820   33.6560   38.9650 H   0  0  0  0  0  0  0  0  0  0  0  0
   38.4280   30.3420   37.2130 N   0  0  0  0  0  0  0  0  0  0  0  0
   38.1930   31.6310   37.1160 C   0  0  0  0  0  0  0  0  0  0  0  0
   38.0970   32.2560   38.3760 N   0  0  0  0  0  0  0  0  0  0  0  0
   38.0280   32.4270   35.9290 N   0  0  0  0  0  0  0  0  0  0  0  0
   37.3230   32.5860   35.1620 H   0  0  0  0  0  0  0  0  0  0  0  0
   38.5100   29.8220   36.3170 H   0  0  0  0  0  0  0  0  0  0  0  0
   37.2940   32.9390   38.5290 H   0  0  0  0  0  0  0  0  0  0  0  0
   38.7610   33.1180   35.5890 H   0  0  0  0  0  0  0  0  0  0  0  0
  1  2  1  0  0  0  0
  1  4  1  1  0  0  0
  2  6  1  0  0  0  0
  3  7  1  6  0  0  0
  3  1  1  0  0  0  0
  3  8  1  0  0  0  0
  3  2  1  0  0  0  0
  5  2  1  0  0  0  0
  8  9  1  0  0  0  0
  9 10  2  0  0  0  0
  9 18  1  0  0  0  0
 10 19  1  0  0  0  0
 11 20  1  0  0  0  0
 11 10  1  0  0  0  0
 12 11  2  0  0  0  0
 13 21  1  0  0  0  0
 13 12  1  0  0  0  0
 14 13  2  0  0  0  0
 15 14  1  0  0  0  0
 15 16  2  0  0  0  0
 16 17  1  0  0  0  0
 17 12  1  0  0  0  0
 17  8  2  0  0  0  0
 22 14  1  0  0  0  0
 23 15  1  0  0  0  0
 24 16  1  0  0  0  0
 25 31  1  0  0  0  0
 25 30  1  0  0  0  0
 26 25  2  0  0  0  0
 27 26  1  0  0  0  0
 27 28  2  0  0  0  0
 28 29  1  0  0  0  0
 29 30  2  0  0  0  0
 29  1  1  0  0  0  0
 32 26  1  0  0  0  0
 34 33  2  0  0  0  0
 34 35  1  0  0  0  0
 35 39  1  0  0  0  0
 35 27  1  0  0  0  0
 36 34  1  0  0  0  0
 37 36  1  0  0  0  0
 38 33  1  0  0  0  0
 40 36  1  0  0  0  0
M  END
>  <minimizedAffinity>
-6.5455904

$$$$

 OpenBabel03252508273D

 40 43  0  0  1  0  0  0  0  0999 V2000
   38.2400   29.2070   41.8610 C   0  0  1  0  0  0  0  0  0  0  0  0
   37.7380   28.9200   43.2110 C   0  0  0  0  0  0  0  0  0  0  0  0
   37.0060   28.4450   41.8940 C   0  0  2  0  0  0  0  0  0  0  0  0
   39.2980   28.7690   41.8400 H   0  0  0  0  0  0  0  0  0  0  0  0
   37.2440   29.6920   43.8230 H   0  0  0  0  0  0  0  0  0  0  0  0
   38.0180   28.0360   43.8020 H   0  0  0  0  0  0  0  0  0  0  0  0
   35.9880   28.9100   42.0500 H   0  0  0  0  0  0  0  0  0  0  0  0
   36.8850   27.0120   41.6060 C   0  0  0  0  0  0  0  0  0  0  0  0
   37.1510   25.9730   42.4430 C   0  0  0  0  0  0  0  0  0  0  0  0
   37.1410   24.6330   42.1030 C   0  0  0  0  0  0  0  0  0  0  0  0
   36.8280   24.3310   40.7670 C   0  0  0  0  0  0  0  0  0  0  0  0
   36.5500   25.3760   39.8860 C   0  0  0  0  0  0  0  0  0  0  0  0
   36.1870   25.0290   38.5990 C   0  0  0  0  0  0  0  0  0  0  0  0
   35.8330   26.0290   37.7040 C   0  0  0  0  0  0  0  0  0  0  0  0
   35.8380   27.3540   38.0920 C   0  0  0  0  0  0  0  0  0  0  0  0
   36.2090   27.6440   39.3850 C   0  0  0  0  0  0  0  0  0  0  0  0
   36.5780   26.6850   40.3090 C   0  0  0  0  0  0  0  0  0  0  0  0
   37.3870   26.2590   43.4690 H   0  0  0  0  0  0  0  0  0  0  0  0
   37.3630   23.8740   42.8310 H   0  0  0  0  0  0  0  0  0  0  0  0
   36.8110   23.2990   40.4500 H   0  0  0  0  0  0  0  0  0  0  0  0
   36.1900   23.9730   38.3170 H   0  0  0  0  0  0  0  0  0  0  0  0
   35.5670   25.6380   36.7110 H   0  0  0  0  0  0  0  0  0  0  0  0
   35.5350   27.9690   37.2730 H   0  0  0  0  0  0  0  0  0  0  0  0
   36.0540   28.6810   39.4620 H   0  0  0  0  0  0  0  0  0  0  0  0
   37.1190   32.2590   40.1140 C   0  0  0  0  0  0  0  0  0  0  0  0
   38.2560   33.1310   40.2630 C   0  0  0  0  0  0  0  0  0  0  0  0
   39.3700   32.6290   40.9770 C   0  0  0  0  0  0  0  0  0  0  0  0
   39.3180   31.3950   41.4730 N   0  0  0  0  0  0  0  0  0  0  0  0
   38.2220   30.5950   41.3120 C   0  0  0  0  0  0  0  0  0  0  0  0
   37.1520   31.0210   40.6490 N   0  0  0  0  0  0  0  0  0  0  0  0
   36.2830   32.6730   39.5620 H   0  0  0  0  0  0  0  0  0  0  0  0
   38.2320   34.0950   39.8400 H   0  0  0  0  0  0  0  0  0  0  0  0
   42.1030   32.0840   40.2460 N   0  0  0  0  0  0  0  0  0  0  0  0
   41.8520   32.9300   41.2180 C   0  0  0  0  0  0  0  0  0  0  0  0
   40.5310   33.4210   41.1770 N   0  0  0  0  0  0  0  0  0  0  0  0
   42.7330   33.3880   42.2600 N   0  0  0  0  0  0  0  0  0  0  0  0
   43.5680   34.0190   42.3840 H   0  0  0  0  0  0  0  0  0  0  0  0
   43.0620   31.6850   40.2200 H   0  0  0  0  0  0  0  0  0  0  0  0
   40.3880   34.4680   41.3130 H   0  0  0  0  0  0  0  0  0  0  0  0
   42.6380   33.0820   43.2740 H   0  0  0  0  0  0  0  0  0  0  0  0
  1  4  1  6  0  0  0
  1  3  1  0  0  0  0
  1  2  1  0  0  0  0
  2  6  1  0  0  0  0
  2  5  1  0  0  0  0
  3  7  1  6  0  0  0
  3  2  1  0  0  0  0
  8  3  1  0  0  0  0
  8  9  1  0  0  0  0
  9 18  1  0  0  0  0
 10  9  2  0  0  0  0
 10 19  1  0  0  0  0
 11 10  1  0  0  0  0
 12 17  1  0  0  0  0
 12 11  2  0  0  0  0
 13 12  1  0  0  0  0
 14 15  1  0  0  0  0
 14 13  2  0  0  0  0
 15 16  2  0  0  0  0
 16 24  1  0  0  0  0
 16 17  1  0  0  0  0
 17  8  2  0  0  0  0
 20 11  1  0  0  0  0
 21 13  1  0  0  0  0
 22 14  1  0  0  0  0
 23 15  1  0  0  0  0
 25 26  2  0  0  0  0
 25 30  1  0  0  0  0
 26 27  1  0  0  0  0
 27 35  1  0  0  0  0
 27 28  2  0  0  0  0
 29 28  1  0  0  0  0
 29  1  1  0  0  0  0
 30 29  2  0  0  0  0
 31 25  1  0  0  0  0
 32 26  1  0  0  0  0
 33 34  2  0  0  0  0
 34 36  1  0  0  0  0
 35 34  1  0  0  0  0
 35 39  1  0  0  0  0
 36 37  1  0  0  0  0
 36 40  1  0  0  0  0
 38 33  1  0  0  0  0
M  END
>  <minimizedAffinity>
-6.48122406

$$$$

 OpenBabel03252508273D

 40 43  0  0  1  0  0  0  0  0999 V2000
   37.4500   30.7750   38.3730 C   0  0  1  0  0  0  0  0  0  0  0  0
   37.0500   32.0970   38.8760 C   0  0  0  0  0  0  0  0  0  0  0  0
   37.0010   30.7830   39.7530 C   0  0  2  0  0  0  0  0  0  0  0  0
   38.5300   30.9080   38.0200 H   0  0  0  0  0  0  0  0  0  0  0  0
   36.0920   32.5600   38.5910 H   0  0  0  0  0  0  0  0  0  0  0  0
   37.7370   32.8140   39.3470 H   0  0  0  0  0  0  0  0  0  0  0  0
   35.9130   30.7850   40.0570 H   0  0  0  0  0  0  0  0  0  0  0  0
   37.8690   30.6620   40.9290 C   0  0  0  0  0  0  0  0  0  0  0  0
   38.9260   31.4500   41.2640 C   0  0  0  0  0  0  0  0  0  0  0  0
   39.7970   31.2360   42.3160 C   0  0  0  0  0  0  0  0  0  0  0  0
   39.5580   30.0980   43.1030 C   0  0  0  0  0  0  0  0  0  0  0  0
   38.4800   29.2710   42.7840 C   0  0  0  0  0  0  0  0  0  0  0  0
   38.2460   28.1970   43.6210 C   0  0  0  0  0  0  0  0  0  0  0  0
   37.1450   27.3860   43.3870 C   0  0  0  0  0  0  0  0  0  0  0  0
   36.2900   27.6470   42.3350 C   0  0  0  0  0  0  0  0  0  0  0  0
   36.5700   28.7280   41.5320 C   0  0  0  0  0  0  0  0  0  0  0  0
   37.6580   29.5590   41.7190 C   0  0  0  0  0  0  0  0  0  0  0  0
   39.0690   32.3220   40.6240 H   0  0  0  0  0  0  0  0  0  0  0  0
   40.6090   31.9130   42.5110 H   0  0  0  0  0  0  0  0  0  0  0  0
   40.2120   29.8840   43.9340 H   0  0  0  0  0  0  0  0  0  0  0  0
   38.9370   28.0130   44.4470 H   0  0  0  0  0  0  0  0  0  0  0  0
   37.0600   26.5630   44.1110 H   0  0  0  0  0  0  0  0  0  0  0  0
   35.5060   26.9210   42.3210 H   0  0  0  0  0  0  0  0  0  0  0  0
   35.7500   28.7690   40.8740 H   0  0  0  0  0  0  0  0  0  0  0  0
   34.6700   28.9480   36.7750 C   0  0  0  0  0  0  0  0  0  0  0  0
   35.1890   28.6990   35.4540 C   0  0  0  0  0  0  0  0  0  0  0  0
   36.4840   29.1880   35.1620 C   0  0  0  0  0  0  0  0  0  0  0  0
   37.1550   29.8450   36.1040 N   0  0  0  0  0  0  0  0  0  0  0  0
   36.6320   30.0620   37.3480 C   0  0  0  0  0  0  0  0  0  0  0  0
   35.4200   29.6230   37.6700 N   0  0  0  0  0  0  0  0  0  0  0  0
   33.6760   28.5600   36.9660 H   0  0  0  0  0  0  0  0  0  0  0  0
   34.6050   28.1660   34.7570 H   0  0  0  0  0  0  0  0  0  0  0  0
   36.8390   31.0690   33.0080 N   0  0  0  0  0  0  0  0  0  0  0  0
   36.8150   29.7820   32.7430 C   0  0  0  0  0  0  0  0  0  0  0  0
   37.0710   28.9940   33.8840 N   0  0  0  0  0  0  0  0  0  0  0  0
   36.5740   29.1280   31.4850 N   0  0  0  0  0  0  0  0  0  0  0  0
   37.0550   28.9640   30.5620 H   0  0  0  0  0  0  0  0  0  0  0  0
   36.6570   31.7060   32.2070 H   0  0  0  0  0  0  0  0  0  0  0  0
   37.7540   28.1830   33.7810 H   0  0  0  0  0  0  0  0  0  0  0  0
   35.6740   28.6060   31.2680 H   0  0  0  0  0  0  0  0  0  0  0  0
  1  4  1  6  0  0  0
  1  2  1  0  0  0  0
  1  3  1  0  0  0  0
  2  6  1  0  0  0  0
  2  3  1  0  0  0  0
  3  7  1  1  0  0  0
  3  8  1  0  0  0  0
  5  2  1  0  0  0  0
  8  9  2  0  0  0  0
  8 17  1  0  0  0  0
  9 10  1  0  0  0  0
 10 19  1  0  0  0  0
 10 11  2  0  0  0  0
 11 20  1  0  0  0  0
 12 11  1  0  0  0  0
 12 13  1  0  0  0  0
 13 21  1  0  0  0  0
 14 13  2  0  0  0  0
 14 22  1  0  0  0  0
 15 14  1  0  0  0  0
 16 17  1  0  0  0  0
 16 15  2  0  0  0  0
 17 12  2  0  0  0  0
 18  9  1  0  0  0  0
 23 15  1  0  0  0  0
 24 16  1  0  0  0  0
 25 31  1  0  0  0  0
 25 30  1  0  0  0  0
 26 25  2  0  0  0  0
 27 26  1  0  0  0  0
 27 28  2  0  0  0  0
 28 29  1  0  0  0  0
 29 30  2  0  0  0  0
 29  1  1  0  0  0  0
 32 26  1  0  0  0  0
 34 33  2  0  0  0  0
 34 35  1  0  0  0  0
 35 27  1  0  0  0  0
 36 34  1  0  0  0  0
 37 36  1  0  0  0  0
 38 33  1  0  0  0  0
 39 35  1  0  0  0  0
 40 36  1  0  0  0  0
M  END
>  <minimizedAffinity>
-6.44868183

$$$$

 OpenBabel03252508273D

 40 43  0  0  1  0  0  0  0  0999 V2000
   38.2610   32.1240   40.5860 C   0  0  1  0  0  0  0  0  0  0  0  0
   37.4780   33.0620   39.7690 C   0  0  0  0  0  0  0  0  0  0  0  0
   37.7170   31.5520   39.3680 C   0  0  2  0  0  0  0  0  0  0  0  0
   37.7510   32.1280   41.6100 H   0  0  0  0  0  0  0  0  0  0  0  0
   37.9610   33.8390   39.1540 H   0  0  0  0  0  0  0  0  0  0  0  0
   36.3990   33.2340   39.8860 H   0  0  0  0  0  0  0  0  0  0  0  0
   38.1870   31.6860   38.3500 H   0  0  0  0  0  0  0  0  0  0  0  0
   36.5780   30.6310   39.2990 C   0  0  0  0  0  0  0  0  0  0  0  0
   35.8180   30.1730   40.3300 C   0  0  0  0  0  0  0  0  0  0  0  0
   34.8280   29.2120   40.2440 C   0  0  0  0  0  0  0  0  0  0  0  0
   34.5950   28.6670   38.9710 C   0  0  0  0  0  0  0  0  0  0  0  0
   35.3580   29.1190   37.8940 C   0  0  0  0  0  0  0  0  0  0  0  0
   35.0530   28.6000   36.6500 C   0  0  0  0  0  0  0  0  0  0  0  0
   35.7370   29.0690   35.5370 C   0  0  0  0  0  0  0  0  0  0  0  0
   36.7060   30.0430   35.6660 C   0  0  0  0  0  0  0  0  0  0  0  0
   36.9710   30.5240   36.9270 C   0  0  0  0  0  0  0  0  0  0  0  0
   36.3240   30.0830   38.0650 C   0  0  0  0  0  0  0  0  0  0  0  0
   36.0360   30.6270   41.2970 H   0  0  0  0  0  0  0  0  0  0  0  0
   34.2720   28.9080   41.1130 H   0  0  0  0  0  0  0  0  0  0  0  0
   33.8350   27.9100   38.8510 H   0  0  0  0  0  0  0  0  0  0  0  0
   34.2810   27.8310   36.5750 H   0  0  0  0  0  0  0  0  0  0  0  0
   35.4150   28.5840   34.6030 H   0  0  0  0  0  0  0  0  0  0  0  0
   37.1130   30.2740   34.7050 H   0  0  0  0  0  0  0  0  0  0  0  0
   37.6650   31.2970   36.7590 H   0  0  0  0  0  0  0  0  0  0  0  0
   41.7090   31.7540   41.8520 C   0  0  0  0  0  0  0  0  0  0  0  0
   42.4510   32.6200   40.9720 C   0  0  0  0  0  0  0  0  0  0  0  0
   41.7270   33.2930   39.9600 C   0  0  0  0  0  0  0  0  0  0  0  0
   40.4130   33.1000   39.8670 N   0  0  0  0  0  0  0  0  0  0  0  0
   39.7410   32.2710   40.7200 C   0  0  0  0  0  0  0  0  0  0  0  0
   40.3770   31.6160   41.6860 N   0  0  0  0  0  0  0  0  0  0  0  0
   42.2920   31.2530   42.6170 H   0  0  0  0  0  0  0  0  0  0  0  0
   43.4900   32.7310   41.1070 H   0  0  0  0  0  0  0  0  0  0  0  0
   41.4810   33.4460   37.0940 N   0  0  0  0  0  0  0  0  0  0  0  0
   42.5680   33.9010   37.6720 C   0  0  0  0  0  0  0  0  0  0  0  0
   42.3780   34.1610   39.0450 N   0  0  0  0  0  0  0  0  0  0  0  0
   43.8590   34.1520   37.0880 N   0  0  0  0  0  0  0  0  0  0  0  0
   44.3250   34.8400   36.4400 H   0  0  0  0  0  0  0  0  0  0  0  0
   41.5550   33.2340   36.0790 H   0  0  0  0  0  0  0  0  0  0  0  0
   42.7580   35.0780   39.4320 H   0  0  0  0  0  0  0  0  0  0  0  0
   44.7070   33.5390   37.2740 H   0  0  0  0  0  0  0  0  0  0  0  0
  1 29  1  0  0  0  0
  1  4  1  1  0  0  0
  2  6  1  0  0  0  0
  2  1  1  0  0  0  0
  3  7  1  6  0  0  0
  3  2  1  0  0  0  0
  3  1  1  0  0  0  0
  5  2  1  0  0  0  0
  8  3  1  0  0  0  0
  8  9  1  0  0  0  0
  9 18  1  0  0  0  0
 10  9  2  0  0  0  0
 10 19  1  0  0  0  0
 11 10  1  0  0  0  0
 12 17  1  0  0  0  0
 12 11  2  0  0  0  0
 13 12  1  0  0  0  0
 14 15  1  0  0  0  0
 14 13  2  0  0  0  0
 15 16  2  0  0  0  0
 16 17  1  0  0  0  0
 17  8  2  0  0  0  0
 20 11  1  0  0  0  0
 21 13  1  0  0  0  0
 22 14  1  0  0  0  0
 23 15  1  0  0  0  0
 24 16  1  0  0  0  0
 25 31  1  0  0  0  0
 26 32  1  0  0  0  0
 26 25  2  0  0  0  0
 27 26  1  0  0  0  0
 28 27  2  0  0  0  0
 28 29  1  0  0  0  0
 29 30  2  0  0  0  0
 30 25  1  0  0  0  0
 33 34  2  0  0  0  0
 34 35  1  0  0  0  0
 35 39  1  0  0  0  0
 35 27  1  0  0  0  0
 36 40  1  0  0  0  0
 36 34  1  0  0  0  0
 37 36  1  0  0  0  0
 38 33  1  0  0  0  0
M  END
>  <minimizedAffinity>
-6.41545773

$$$$

 OpenBabel03252508273D

 40 43  0  0  1  0  0  0  0  0999 V2000
   37.9930   29.0600   42.7980 C   0  0  1  0  0  0  0  0  0  0  0  0
   36.7570   28.4100   43.2540 C   0  0  0  0  0  0  0  0  0  0  0  0
   37.7340   27.7680   42.1910 C   0  0  2  0  0  0  0  0  0  0  0  0
   38.6000   29.2430   43.7520 H   0  0  0  0  0  0  0  0  0  0  0  0
   35.7650   28.7410   42.9050 H   0  0  0  0  0  0  0  0  0  0  0  0
   36.6920   27.7450   44.1260 H   0  0  0  0  0  0  0  0  0  0  0  0
   37.0210   27.6140   41.3290 H   0  0  0  0  0  0  0  0  0  0  0  0
   38.4400   26.5230   42.5120 C   0  0  0  0  0  0  0  0  0  0  0  0
   39.4670   26.3540   43.3870 C   0  0  0  0  0  0  0  0  0  0  0  0
   40.1880   25.1900   43.5780 C   0  0  0  0  0  0  0  0  0  0  0  0
   39.8160   24.0890   42.7900 C   0  0  0  0  0  0  0  0  0  0  0  0
   38.7650   24.2320   41.8840 C   0  0  0  0  0  0  0  0  0  0  0  0
   38.3940   23.1060   41.1740 C   0  0  0  0  0  0  0  0  0  0  0  0
   37.3080   23.1800   40.3110 C   0  0  0  0  0  0  0  0  0  0  0  0
   36.6050   24.3580   40.1660 C   0  0  0  0  0  0  0  0  0  0  0  0
   37.0170   25.4490   40.8950 C   0  0  0  0  0  0  0  0  0  0  0  0
   38.0960   25.4270   41.7590 C   0  0  0  0  0  0  0  0  0  0  0  0
   39.7170   27.2370   43.9770 H   0  0  0  0  0  0  0  0  0  0  0  0
   40.9880   25.1430   44.2960 H   0  0  0  0  0  0  0  0  0  0  0  0
   40.3510   23.1580   42.8980 H   0  0  0  0  0  0  0  0  0  0  0  0
   38.9660   22.1860   41.3090 H   0  0  0  0  0  0  0  0  0  0  0  0
   37.1060   22.2280   39.7990 H   0  0  0  0  0  0  0  0  0  0  0  0
   35.8080   24.2160   39.4670 H   0  0  0  0  0  0  0  0  0  0  0  0
   36.2910   26.1800   40.6840 H   0  0  0  0  0  0  0  0  0  0  0  0
   36.8000   31.6290   40.4320 C   0  0  0  0  0  0  0  0  0  0  0  0
   37.9360   32.5100   40.3390 C   0  0  0  0  0  0  0  0  0  0  0  0
   39.0740   32.1850   41.1140 C   0  0  0  0  0  0  0  0  0  0  0  0
   39.0460   31.0980   41.8820 N   0  0  0  0  0  0  0  0  0  0  0  0
   37.9500   30.2850   41.9450 C   0  0  0  0  0  0  0  0  0  0  0  0
   36.8570   30.5480   41.2360 N   0  0  0  0  0  0  0  0  0  0  0  0
   35.9440   31.9060   39.8260 H   0  0  0  0  0  0  0  0  0  0  0  0
   37.8930   33.3510   39.7060 H   0  0  0  0  0  0  0  0  0  0  0  0
   41.7460   31.5330   40.2560 N   0  0  0  0  0  0  0  0  0  0  0  0
   41.5640   32.5230   41.0990 C   0  0  0  0  0  0  0  0  0  0  0  0
   40.2360   33.0000   41.0890 N   0  0  0  0  0  0  0  0  0  0  0  0
   42.5200   33.1420   41.9780 N   0  0  0  0  0  0  0  0  0  0  0  0
   43.3530   33.7850   41.9310 H   0  0  0  0  0  0  0  0  0  0  0  0
   42.7060   31.1360   40.2150 H   0  0  0  0  0  0  0  0  0  0  0  0
   40.0900   34.0550   41.0690 H   0  0  0  0  0  0  0  0  0  0  0  0
   42.5120   33.0020   43.0320 H   0  0  0  0  0  0  0  0  0  0  0  0
  1  2  1  0  0  0  0
  1  4  1  1  0  0  0
  2  6  1  0  0  0  0
  3  7  1  6  0  0  0
  3  8  1  0  0  0  0
  3  1  1  0  0  0  0
  3  2  1  0  0  0  0
  5  2  1  0  0  0  0
  8  9  1  0  0  0  0
  9 10  2  0  0  0  0
  9 18  1  0  0  0  0
 10 19  1  0  0  0  0
 11 20  1  0  0  0  0
 11 10  1  0  0  0  0
 12 11  2  0  0  0  0
 13 21  1  0  0  0  0
 13 12  1  0  0  0  0
 14 13  2  0  0  0  0
 15 14  1  0  0  0  0
 15 16  2  0  0  0  0
 16 17  1  0  0  0  0
 17 12  1  0  0  0  0
 17  8  2  0  0  0  0
 22 14  1  0  0  0  0
 23 15  1  0  0  0  0
 24 16  1  0  0  0  0
 25 30  1  0  0  0  0
 26 25  2  0  0  0  0
 26 27  1  0  0  0  0
 27 28  2  0  0  0  0
 28 29  1  0  0  0  0
 29  1  1  0  0  0  0
 30 29  2  0  0  0  0
 31 25  1  0  0  0  0
 32 26  1  0  0  0  0
 33 34  2  0  0  0  0
 34 36  1  0  0  0  0
 35 34  1  0  0  0  0
 35 27  1  0  0  0  0
 36 40  1  0  0  0  0
 37 36  1  0  0  0  0
 38 33  1  0  0  0  0
 39 35  1  0  0  0  0
M  END
>  <minimizedAffinity>
-6.29682207

$$$$
