REMARK  Name = 
REMARK  7 active torsions:
REMARK  status: ('A' for Active; 'I' for Inactive)
REMARK    1  A    between atoms: C_1  and  C_2
REMARK    2  A    between atoms: C_1  and  C_11
REMARK    3  A    between atoms: C_7  and  N_10
REMARK    4  A    between atoms: C_11  and  C_16
REMARK    5  A    between atoms: C_14  and  C_18
REMARK    6  A    between atoms: C_18  and  C_19
REMARK    7  A    between atoms: C_19  and  N_38
REMARK                            x       y       z     vdW  Elec       q    Type
REMARK                         _______ _______ _______ _____ _____    ______ ____
ROOT
ATOM      1  C   UNL     1      44.618  35.730  44.744  0.00  0.00    +0.000 A 
ATOM      2  C   UNL     1      44.187  35.959  43.428  0.00  0.00    +0.000 A 
ATOM      3  C   UNL     1      44.377  34.925  42.547  0.00  0.00    +0.000 A 
ATOM      4  N   UNL     1      44.948  33.764  42.945  0.00  0.00    +0.000 NA
ATOM      5  C   UNL     1      45.340  33.608  44.223  0.00  0.00    +0.000 A 
ATOM      6  N   UNL     1      45.187  34.562  45.123  0.00  0.00    +0.000 NA
ATOM      7  H   UNL     1      44.495  36.524  45.496  0.00  0.00    +0.000 HD
ATOM      8  H   UNL     1      43.741  36.916  43.204  0.00  0.00    +0.000 HD
ENDROOT
BRANCH   5   9
ATOM      9  C   UNL     1      45.954  32.325  44.610  0.00  0.00    +0.000 C 
ATOM     10  H   UNL     1      45.248  31.494  44.691  0.00  0.00    +0.000 HD
ATOM     11  H   UNL     1      46.677  32.063  43.782  0.00  0.00    +0.000 HD
BRANCH   9  12
ATOM     12  C   UNL     1      46.729  32.518  45.887  0.00  0.00    +0.000 C 
ATOM     13  H   UNL     1      47.799  32.219  45.748  0.00  0.00    +0.000 HD
ATOM     14  H   UNL     1      46.773  33.603  46.174  0.00  0.00    +0.000 HD
BRANCH  12  15
ATOM     15  C   UNL     1      46.145  31.787  46.990  0.00  0.00    +0.000 A 
ATOM     16  C   UNL     1      45.385  32.264  48.047  0.00  0.00    +0.000 A 
ATOM     17  C   UNL     1      44.883  31.491  49.035  0.00  0.00    +0.000 A 
ATOM     18  C   UNL     1      45.142  30.137  48.991  0.00  0.00    +0.000 A 
ATOM     19  C   UNL     1      45.894  29.646  47.952  0.00  0.00    +0.000 A 
ATOM     20  C   UNL     1      46.397  30.459  46.953  0.00  0.00    +0.000 A 
ATOM     21  H   UNL     1      45.213  33.352  48.024  0.00  0.00    +0.000 HD
ATOM     22  H   UNL     1      44.312  31.989  49.798  0.00  0.00    +0.000 HD
ATOM     23  H   UNL     1      44.711  29.560  49.816  0.00  0.00    +0.000 HD
ATOM     24  H   UNL     1      46.006  28.553  48.070  0.00  0.00    +0.000 HD
BRANCH  20  27
ATOM     25  C   UNL     1      48.489  29.359  46.422  0.00  0.00    +0.000 C 
ATOM     26  O   UNL     1      49.312  29.678  47.372  0.00  0.00    +0.000 OA
ATOM     27  N   UNL     1      47.129  29.618  46.050  0.00  0.00    +0.000 N 
ATOM     28  H   UNL     1      49.289  28.771  45.974  0.00  0.00    +0.000 HD
ATOM     29  H   UNL     1      46.906  29.139  45.170  0.00  0.00    +0.000 HD
ENDBRANCH  20  27
ENDBRANCH  12  15
ENDBRANCH   9  12
ENDBRANCH   5   9
BRANCH   3  30
ATOM     30  C   UNL     1      43.927  35.130  41.133  0.00  0.00    +0.000 C 
ATOM     31  H   UNL     1      44.465  36.020  40.766  0.00  0.00    +0.000 HD
ATOM     32  H   UNL     1      44.218  34.244  40.533  0.00  0.00    +0.000 HD
BRANCH  30  33
ATOM     33  C   UNL     1      42.424  35.373  41.074  0.00  0.00    +0.000 C 
ATOM     34  H   UNL     1      41.912  34.538  41.548  0.00  0.00    +0.000 HD
ATOM     35  H   UNL     1      42.192  36.304  41.653  0.00  0.00    +0.000 HD
BRANCH  33  38
ATOM     36  N   UNL     1      40.094  34.337  39.803  0.00  0.00    +0.000 NA
ATOM     37  C   UNL     1      41.088  34.778  39.087  0.00  0.00    +0.000 C 
ATOM     38  N   UNL     1      42.126  35.554  39.667  0.00  0.00    +0.000 N 
ATOM     39  N   UNL     1      41.046  34.424  37.706  0.00  0.00    +0.000 N 
ATOM     40  H   UNL     1      41.222  33.407  37.458  0.00  0.00    +0.000 HD
ATOM     41  H   UNL     1      40.006  34.526  40.820  0.00  0.00    +0.000 HD
ATOM     42  H   UNL     1      42.606  36.209  39.036  0.00  0.00    +0.000 HD
ATOM     43  H   UNL     1      40.909  34.713  36.705  0.00  0.00    +0.000 HD
ENDBRANCH  33  38
ENDBRANCH  30  33
ENDBRANCH   3  30
TORSDOF 7
