REMARK  Name = 
REMARK  5 active torsions:
REMARK  status: ('A' for Active; 'I' for Inactive)
REMARK    1  A    between atoms: C_1  and  C_14
REMARK    2  A    between atoms: C_3  and  C_8
REMARK    3  A    between atoms: C_7  and  O_12
REMARK    4  A    between atoms: C_11  and  O_13
REMARK    5  A    between atoms: C_14  and  N_26
REMARK                            x       y       z     vdW  Elec       q    Type
REMARK                         _______ _______ _______ _____ _____    ______ ____
ROOT
ATOM      1  C   UNL     1      45.283  35.346  43.673  0.00  0.00    +0.000 A 
ATOM      2  C   UNL     1      46.365  34.613  43.170  0.00  0.00    +0.000 A 
ATOM      3  C   UNL     1      46.956  33.642  43.995  0.00  0.00    +0.000 A 
ATOM      4  N   UNL     1      46.461  33.456  45.228  0.00  0.00    +0.000 NA
ATOM      5  C   UNL     1      45.404  34.188  45.687  0.00  0.00    +0.000 A 
ATOM      6  N   UNL     1      44.822  35.125  44.913  0.00  0.00    +0.000 NA
ATOM      7  H   UNL     1      46.701  34.813  42.191  0.00  0.00    +0.000 HD
ATOM      8  H   UNL     1      45.069  33.964  46.709  0.00  0.00    +0.000 HD
ENDROOT
BRANCH   3  10
ATOM      9  C   UNL     1      49.010  33.715  42.587  0.00  0.00    +0.000 C 
ATOM     10  C   UNL     1      48.083  32.892  43.434  0.00  0.00    +0.000 C 
ATOM     11  O   UNL     1      47.704  31.903  42.505  0.00  0.00    +0.000 OA
ATOM     12  C   UNL     1      48.921  31.465  42.010  0.00  0.00    +0.000 C 
ATOM     13  C   UNL     1      49.921  32.584  42.089  0.00  0.00    +0.000 C 
ATOM     14  H   UNL     1      48.533  34.091  41.661  0.00  0.00    +0.000 HD
ATOM     15  H   UNL     1      48.663  32.365  44.206  0.00  0.00    +0.000 HD
ATOM     16  H   UNL     1      49.285  30.589  42.586  0.00  0.00    +0.000 HD
ATOM     17  H   UNL     1      48.819  31.193  40.930  0.00  0.00    +0.000 HD
ATOM     18  H   UNL     1      50.720  32.364  42.812  0.00  0.00    +0.000 HD
BRANCH   9  19
ATOM     19  O   UNL     1      49.684  34.684  43.287  0.00  0.00    +0.000 OA
ATOM     20  H   UNL     1      49.685  35.516  42.720  0.00  0.00    +0.000 HD
ENDBRANCH   9  19
BRANCH  13  21
ATOM     21  O   UNL     1      50.462  32.928  40.867  0.00  0.00    +0.000 OA
ATOM     22  H   UNL     1      51.242  33.504  41.011  0.00  0.00    +0.000 HD
ENDBRANCH  13  21
ENDBRANCH   3  10
BRANCH   1  23
ATOM     23  C   UNL     1      44.646  36.381  42.803  0.00  0.00    +0.000 C 
ATOM     24  H   UNL     1      43.559  36.443  43.000  0.00  0.00    +0.000 HD
ATOM     25  H   UNL     1      44.833  36.065  41.738  0.00  0.00    +0.000 HD
BRANCH  23  26
ATOM     26  N   UNL     1      45.238  37.678  42.948  0.00  0.00    +0.000 N 
ATOM     27  C   UNL     1      44.424  38.731  42.743  0.00  0.00    +0.000 A 
ATOM     28  C   UNL     1      44.892  40.023  42.857  0.00  0.00    +0.000 A 
ATOM     29  C   UNL     1      46.204  40.291  43.185  0.00  0.00    +0.000 A 
ATOM     30  N   UNL     1      46.663  41.630  43.297  0.00  0.00    +0.000 N 
ATOM     31  N   UNL     1      46.986  39.213  43.382  0.00  0.00    +0.000 NA
ATOM     32  C   UNL     1      46.513  37.964  43.266  0.00  0.00    +0.000 A 
ATOM     33  O   UNL     1      47.266  36.974  43.456  0.00  0.00    +0.000 OA
ATOM     34  H   UNL     1      46.240  42.221  44.047  0.00  0.00    +0.000 HD
ATOM     35  H   UNL     1      47.383  42.085  42.703  0.00  0.00    +0.000 HD
ENDBRANCH  23  26
ENDBRANCH   1  23
TORSDOF 5
