
 OpenBabel03252500573D

 39 41  0  0  0  0  0  0  0  0999 V2000
   43.8560   34.9900   40.2330 O   0  0  0  0  0  0  0  0  0  0  0  0
   43.3920   34.7970   41.6710 P   0  0  1  0  0  0  0  0  0  0  0  0
   43.2800   33.1270   41.9810 O   0  0  0  0  0  0  0  0  0  0  0  0
   43.1830   33.0010   42.9470 H   0  0  0  0  0  0  0  0  0  0  0  0
   44.5590   35.4320   42.7350 O   0  0  0  0  0  0  0  0  0  0  0  0
   46.6010   34.3220   43.0900 C   0  0  0  0  0  0  0  0  0  0  0  0
   45.3790   34.7140   43.5930 C   0  0  0  0  0  0  0  0  0  0  0  0
   45.0600   34.3650   44.9110 C   0  0  0  0  0  0  0  0  0  0  0  0
   45.9710   33.6650   45.6100 N   0  0  0  0  0  0  0  0  0  0  0  0
   47.1520   33.2910   45.1080 C   0  0  0  0  0  0  0  0  0  0  0  0
   47.4580   33.6240   43.8510 N   0  0  0  0  0  0  0  0  0  0  0  0
   44.1130   34.6800   45.2750 H   0  0  0  0  0  0  0  0  0  0  0  0
   47.9000   32.7260   45.6570 H   0  0  0  0  0  0  0  0  0  0  0  0
   46.9940   34.6560   41.7200 C   0  0  0  0  0  0  0  0  0  0  0  0
   46.2380   35.3290   41.2600 H   0  0  0  0  0  0  0  0  0  0  0  0
   47.0730   33.7520   41.0850 H   0  0  0  0  0  0  0  0  0  0  0  0
   48.3250   35.3560   41.7530 C   0  0  0  0  0  0  0  0  0  0  0  0
   49.1190   34.6280   41.9200 H   0  0  0  0  0  0  0  0  0  0  0  0
   48.2870   36.1250   42.5500 H   0  0  0  0  0  0  0  0  0  0  0  0
   48.4820   35.8260   40.7520 H   0  0  0  0  0  0  0  0  0  0  0  0
   41.8550   35.4620   41.9050 O   0  0  0  0  0  0  0  0  0  0  0  0
   40.7680   34.8120   41.3400 C   0  0  0  0  0  0  0  0  0  0  0  0
   39.9710   35.5150   40.4540 C   0  0  0  0  0  0  0  0  0  0  0  0
   38.8630   34.9410   39.8440 C   0  0  0  0  0  0  0  0  0  0  0  0
   38.5690   33.6370   40.1400 N   0  0  0  0  0  0  0  0  0  0  0  0
   39.3440   32.9710   40.9940 C   0  0  0  0  0  0  0  0  0  0  0  0
   40.4040   33.5280   41.5760 N   0  0  0  0  0  0  0  0  0  0  0  0
   40.2170   36.5300   40.2350 H   0  0  0  0  0  0  0  0  0  0  0  0
   38.2580   35.5300   39.1490 H   0  0  0  0  0  0  0  0  0  0  0  0
   38.9790   31.6190   41.2570 N   0  0  0  0  0  0  0  0  0  0  0  0
   37.7420   31.1650   40.9250 C   0  0  0  0  0  3  0  0  0  0  0  0
   37.4930   29.8400   41.2240 C   0  0  0  0  0  3  0  0  0  0  0  0
   38.3890   28.9730   41.8180 C   0  0  0  0  0  0  0  0  0  0  0  0
   38.0650   27.6170   42.0970 N   0  0  0  0  0  0  0  0  0  0  0  0
   39.5870   29.5120   42.1100 N   0  0  0  0  0  0  0  0  0  0  0  0
   39.8780   30.8100   41.8350 C   0  0  0  0  0  0  0  0  0  0  0  0
   41.0170   31.2410   42.1370 O   0  0  0  0  0  0  0  0  0  0  0  0
   37.0970   27.3040   41.8800 H   0  0  0  0  0  0  0  0  0  0  0  0
   38.8260   27.0250   42.5040 H   0  0  0  0  0  0  0  0  0  0  0  0
  2  1  2  6  0  0  0
  2 21  1  0  0  0  0
  2  3  1  0  0  0  0
  2  5  1  0  0  0  0
  3  4  1  0  0  0  0
  5  7  1  0  0  0  0
  6  7  2  0  0  0  0
  6 11  1  0  0  0  0
  7  8  1  0  0  0  0
  8 12  1  0  0  0  0
  8  9  2  0  0  0  0
 10  9  1  0  0  0  0
 10 13  1  0  0  0  0
 11 10  2  0  0  0  0
 14 17  1  0  0  0  0
 14  6  1  0  0  0  0
 15 14  1  0  0  0  0
 16 14  1  0  0  0  0
 17 18  1  0  0  0  0
 17 19  1  0  0  0  0
 20 17  1  0  0  0  0
 22 27  1  0  0  0  0
 22 21  1  0  0  0  0
 23 22  2  0  0  0  0
 24 25  2  0  0  0  0
 24 23  1  0  0  0  0
 25 26  1  0  0  0  0
 26 30  1  0  0  0  0
 26 27  2  0  0  0  0
 28 23  1  0  0  0  0
 29 24  1  0  0  0  0
 30 36  1  0  0  0  0
 31 32  2  0  0  0  0
 31 30  1  0  0  0  0
 32 33  1  0  0  0  0
 33 34  1  0  0  0  0
 33 35  2  0  0  0  0
 34 39  1  0  0  0  0
 36 35  1  0  0  0  0
 36 37  2  0  0  0  0
 38 34  1  0  0  0  0
M  END
>  <minimizedAffinity>
-6.52408504

>  <minimizedRMSD>
0.58510077

$$$$
