
 OpenBabel03252500573D

 39 41  0  0  0  0  0  0  0  0999 V2000
   44.0850   34.5230   39.2580 O   0  0  0  0  0  0  0  0  0  0  0  0
   43.2460   33.3820   39.8160 P   0  0  1  0  0  0  0  0  0  0  0  0
   43.9370   31.9100   39.3110 O   0  0  0  0  0  0  0  0  0  0  0  0
   43.5280   31.1870   39.8280 H   0  0  0  0  0  0  0  0  0  0  0  0
   43.3040   33.4110   41.5160 O   0  0  0  0  0  0  0  0  0  0  0  0
   45.2030   32.7820   42.7530 C   0  0  0  0  0  0  0  0  0  0  0  0
   43.9210   32.4830   42.3430 C   0  0  0  0  0  0  0  0  0  0  0  0
   43.3450   31.2850   42.7820 C   0  0  0  0  0  0  0  0  0  0  0  0
   44.0820   30.4940   43.5830 N   0  0  0  0  0  0  0  0  0  0  0  0
   45.3240   30.7980   43.9730 C   0  0  0  0  0  0  0  0  0  0  0  0
   45.8750   31.9410   43.5540 N   0  0  0  0  0  0  0  0  0  0  0  0
   42.3570   31.0790   42.4530 H   0  0  0  0  0  0  0  0  0  0  0  0
   45.9340   30.1720   44.6190 H   0  0  0  0  0  0  0  0  0  0  0  0
   45.8600   34.0190   42.3280 C   0  0  0  0  0  0  0  0  0  0  0  0
   45.1280   34.6880   41.8260 H   0  0  0  0  0  0  0  0  0  0  0  0
   46.6820   33.8190   41.6110 H   0  0  0  0  0  0  0  0  0  0  0  0
   46.4180   34.7140   43.5390 C   0  0  0  0  0  0  0  0  0  0  0  0
   47.3290   34.2120   43.8640 H   0  0  0  0  0  0  0  0  0  0  0  0
   45.6350   34.7130   44.3250 H   0  0  0  0  0  0  0  0  0  0  0  0
   46.6780   35.7580   43.2370 H   0  0  0  0  0  0  0  0  0  0  0  0
   41.6690   33.4370   39.2090 O   0  0  0  0  0  0  0  0  0  0  0  0
   40.8980   32.2870   39.2840 C   0  0  0  0  0  0  0  0  0  0  0  0
   40.1010   32.1030   40.4000 C   0  0  0  0  0  0  0  0  0  0  0  0
   39.2980   30.9800   40.5560 C   0  0  0  0  0  0  0  0  0  0  0  0
   39.3080   30.0390   39.5610 N   0  0  0  0  0  0  0  0  0  0  0  0
   40.0790   30.2280   38.4920 C   0  0  0  0  0  0  0  0  0  0  0  0
   40.8460   31.3060   38.3500 N   0  0  0  0  0  0  0  0  0  0  0  0
   40.1060   32.8490   41.1640 H   0  0  0  0  0  0  0  0  0  0  0  0
   38.6820   30.8720   41.4530 H   0  0  0  0  0  0  0  0  0  0  0  0
   40.0400   29.2080   37.4970 N   0  0  0  0  0  0  0  0  0  0  0  0
   39.6270   29.4950   36.2360 C   0  0  0  0  0  3  0  0  0  0  0  0
   39.6270   28.4350   35.3510 C   0  0  0  0  0  3  0  0  0  0  0  0
   40.0100   27.1440   35.6540 C   0  0  0  0  0  0  0  0  0  0  0  0
   39.9880   26.0980   34.6910 N   0  0  0  0  0  0  0  0  0  0  0  0
   40.4050   26.9550   36.9260 N   0  0  0  0  0  0  0  0  0  0  0  0
   40.4210   27.9680   37.8320 C   0  0  0  0  0  0  0  0  0  0  0  0
   40.8020   27.7140   39.0010 O   0  0  0  0  0  0  0  0  0  0  0  0
   39.6210   26.3280   33.7460 H   0  0  0  0  0  0  0  0  0  0  0  0
   40.3420   25.1640   35.0030 H   0  0  0  0  0  0  0  0  0  0  0  0
  2  1  2  6  0  0  0
  2  5  1  0  0  0  0
  3  2  1  0  0  0  0
  3  4  1  0  0  0  0
  5  7  1  0  0  0  0
  6 11  1  0  0  0  0
  7  6  2  0  0  0  0
  7  8  1  0  0  0  0
  8  9  2  0  0  0  0
  9 10  1  0  0  0  0
 10 13  1  0  0  0  0
 11 10  2  0  0  0  0
 12  8  1  0  0  0  0
 14  6  1  0  0  0  0
 14 17  1  0  0  0  0
 15 14  1  0  0  0  0
 16 14  1  0  0  0  0
 17 18  1  0  0  0  0
 17 19  1  0  0  0  0
 20 17  1  0  0  0  0
 21 22  1  0  0  0  0
 21  2  1  0  0  0  0
 22 23  1  0  0  0  0
 23 24  2  0  0  0  0
 23 28  1  0  0  0  0
 24 29  1  0  0  0  0
 25 24  1  0  0  0  0
 26 25  2  0  0  0  0
 27 26  1  0  0  0  0
 27 22  2  0  0  0  0
 30 36  1  0  0  0  0
 30 26  1  0  0  0  0
 31 30  1  0  0  0  0
 32 33  1  0  0  0  0
 32 31  2  0  0  0  0
 33 35  2  0  0  0  0
 34 39  1  0  0  0  0
 34 33  1  0  0  0  0
 35 36  1  0  0  0  0
 36 37  2  0  0  0  0
 38 34  1  0  0  0  0
M  END
>  <minimizedAffinity>
-2.47660851

>  <minimizedRMSD>
4.69693851

$$$$
