
 OpenBabel03242511083D

 44 48  0  0  1  0  0  0  0  0999 V2000
   47.2100   32.6930   44.3300 C   0  0  0  0  0  0  0  0  0  0  0  0
   47.2740   31.8280   45.4140 C   0  0  0  0  0  0  0  0  0  0  0  0
   46.5120   31.9930   46.5700 C   0  0  0  0  0  0  0  0  0  0  0  0
   45.6440   33.0590   46.6660 C   0  0  0  0  0  0  0  0  0  0  0  0
   45.5530   33.9240   45.6290 C   0  0  0  0  0  0  0  0  0  0  0  0
   44.6890   34.9990   45.6930 C   0  0  0  0  0  0  0  0  0  0  0  0
   44.5450   35.9070   44.6780 C   0  0  0  0  0  0  0  0  0  0  0  0
   45.3240   35.7050   43.5440 C   0  0  0  0  0  0  0  0  0  0  0  0
   46.1920   34.6220   43.4830 C   0  0  0  0  0  0  0  0  0  0  0  0
   46.3270   33.7250   44.4990 C   0  0  0  0  0  0  0  0  0  0  0  0
   47.9160   30.9600   45.4460 H   0  0  0  0  0  0  0  0  0  0  0  0
   46.5750   31.3110   47.4040 H   0  0  0  0  0  0  0  0  0  0  0  0
   45.0510   33.1890   47.5630 H   0  0  0  0  0  0  0  0  0  0  0  0
   44.1110   35.1040   46.5970 H   0  0  0  0  0  0  0  0  0  0  0  0
   43.8340   36.7150   44.8400 H   0  0  0  0  0  0  0  0  0  0  0  0
   45.1390   36.4760   42.7960 H   0  0  0  0  0  0  0  0  0  0  0  0
   46.8420   34.6710   42.2280 N   0  0  0  0  0  0  0  0  0  0  0  0
   47.9920   35.1500   41.7270 C   0  0  0  0  0  3  0  0  0  0  0  0
   48.3620   34.9900   40.4150 C   0  0  0  0  0  3  0  0  0  0  0  0
   47.5610   34.3180   39.5200 C   0  0  0  0  0  0  0  0  0  0  0  0
   48.0700   34.2310   38.2010 N   0  0  0  0  0  0  0  0  0  0  0  0
   46.3890   33.8140   39.9680 N   0  0  0  0  0  0  0  0  0  0  0  0
   46.0880   34.0120   41.2850 C   0  0  0  0  0  0  0  0  0  0  0  0
   44.9510   33.4600   41.4950 O   0  0  0  0  0  0  0  0  0  0  0  0
   49.0460   33.8600   38.1150 H   0  0  0  0  0  0  0  0  0  0  0  0
   47.3190   34.5740   37.5660 H   0  0  0  0  0  0  0  0  0  0  0  0
   48.0200   32.4340   43.2170 N   0  0  0  0  0  0  0  0  0  0  0  0
   47.7460   33.3150   42.7500 H   0  0  0  0  0  0  0  0  0  0  0  0
   50.0930   31.2000   42.4450 C   0  0  1  0  0  0  0  0  0  0  0  0
   48.9080   30.6010   41.7160 C   0  0  0  0  0  0  0  0  0  0  0  0
   48.7930   31.2300   43.0980 C   0  0  2  0  0  0  0  0  0  0  0  0
   50.5240   32.0290   41.8300 H   0  0  0  0  0  0  0  0  0  0  0  0
   48.9040   29.4800   41.7300 H   0  0  0  0  0  0  0  0  0  0  0  0
   48.4030   31.1280   40.9090 H   0  0  0  0  0  0  0  0  0  0  0  0
   48.6840   30.5660   43.9890 H   0  0  0  0  0  0  0  0  0  0  0  0
   52.0080   28.8560   44.5780 C   0  0  0  0  0  0  0  0  0  0  0  0
   53.1850   28.6510   43.7950 C   0  0  0  0  0  0  0  0  0  0  0  0
   53.2820   29.3180   42.5460 C   0  0  0  0  0  0  0  0  0  0  0  0
   52.2770   30.1050   42.1530 N   0  0  0  0  0  0  0  0  0  0  0  0
   51.1720   30.2810   42.9200 C   0  0  0  0  0  0  0  0  0  0  0  0
   51.0330   29.6560   44.1350 N   0  0  0  0  0  0  0  0  0  0  0  0
   51.9390   28.3450   45.5290 H   0  0  0  0  0  0  0  0  0  0  0  0
   53.9380   27.9980   44.1970 H   0  0  0  0  0  0  0  0  0  0  0  0
   54.1730   29.1510   41.9720 H   0  0  0  0  0  0  0  0  0  0  0  0
  1 10  2  0  0  0  0
  1  2  1  0  0  0  0
  2 11  1  0  0  0  0
  2  3  2  0  0  0  0
  3  4  1  0  0  0  0
  3 12  1  0  0  0  0
  4 13  1  0  0  0  0
  5  6  1  0  0  0  0
  5  4  2  0  0  0  0
  6 14  1  0  0  0  0
  7 15  1  0  0  0  0
  7  6  2  0  0  0  0
  8  7  1  0  0  0  0
  9  8  2  0  0  0  0
  9 10  1  0  0  0  0
 10  5  1  0  0  0  0
 16  8  1  0  0  0  0
 17  9  1  0  0  0  0
 18 17  1  0  0  0  0
 19 18  2  0  0  0  0
 20 22  2  0  0  0  0
 20 19  1  0  0  0  0
 21 20  1  0  0  0  0
 22 23  1  0  0  0  0
 23 24  2  0  0  0  0
 23 17  1  0  0  0  0
 25 21  1  0  0  0  0
 26 21  1  0  0  0  0
 27  1  1  0  0  0  0
 28 27  1  0  0  0  0
 29 32  1  6  0  0  0
 29 40  1  0  0  0  0
 29 31  1  0  0  0  0
 30 33  1  0  0  0  0
 30 29  1  0  0  0  0
 30 31  1  0  0  0  0
 31 27  1  0  0  0  0
 31 35  1  1  0  0  0
 34 30  1  0  0  0  0
 36 42  1  0  0  0  0
 37 43  1  0  0  0  0
 37 36  2  0  0  0  0
 38 37  1  0  0  0  0
 39 38  2  0  0  0  0
 39 40  1  0  0  0  0
 40 41  2  0  0  0  0
 41 36  1  0  0  0  0
 44 38  1  0  0  0  0
M  END
>  <minimizedAffinity>
-6.05467272

>  <minimizedRMSD>
2.62426782

$$$$
