
 OpenBabel03252507093D

 25 26  0  0  0  0  0  0  0  0999 V2000
   35.1040   27.8740   37.8860 C   0  0  0  0  0  0  0  0  0  0  0  0
   35.5650   29.2050   37.9490 C   0  0  0  0  0  0  0  0  0  0  0  0
   36.5720   29.4970   38.8510 C   0  0  0  0  0  0  0  0  0  0  0  0
   37.0670   28.4960   39.6310 N   0  0  0  0  0  0  0  0  0  0  0  0
   36.6090   27.2410   39.5480 C   0  0  0  0  0  0  0  0  0  0  0  0
   35.6240   26.9190   38.6750 N   0  0  0  0  0  0  0  0  0  0  0  0
   34.3300   27.5400   37.2230 H   0  0  0  0  0  0  0  0  0  0  0  0
   35.0830   29.9060   37.2710 H   0  0  0  0  0  0  0  0  0  0  0  0
   37.2430   26.3270   40.4370 N   0  0  0  0  0  0  0  0  0  0  0  0
   36.9640   25.0250   40.2440 C   0  0  0  0  0  3  0  0  0  0  0  0
   37.5780   24.1410   41.1060 C   0  0  0  0  0  3  0  0  0  0  0  0
   38.4120   24.6580   42.0750 C   0  0  0  0  0  0  0  0  0  0  0  0
   39.0970   23.8420   43.0170 N   0  0  0  0  0  0  0  0  0  0  0  0
   38.6500   25.9900   42.2140 N   0  0  0  0  0  0  0  0  0  0  0  0
   38.0480   26.8650   41.3680 C   0  0  0  0  0  0  0  0  0  0  0  0
   38.2200   28.1090   41.4350 O   0  0  0  0  0  0  0  0  0  0  0  0
   38.5510   23.9530   43.9000 H   0  0  0  0  0  0  0  0  0  0  0  0
   39.8680   23.1870   43.2820 H   0  0  0  0  0  0  0  0  0  0  0  0
   37.0060   30.8190   38.8910 O   0  0  0  0  0  0  0  0  0  0  0  0
   38.3150   31.3780   41.1250 O   0  0  0  0  0  0  0  0  0  0  0  0
   37.0040   31.6490   40.3920 P   0  0  0  0  0  0  0  0  0  0  0  0
   36.7840   33.2810   40.0940 O   0  0  0  0  0  0  0  0  0  0  0  0
   35.8310   33.5070   40.1240 H   0  0  0  0  0  0  0  0  0  0  0  0
   35.7520   31.0000   41.3300 O   0  0  0  0  0  0  0  0  0  0  0  0
   36.1230   30.1460   41.7070 H   0  0  0  0  0  0  0  0  0  0  0  0
  1  2  2  0  0  0  0
  1  6  1  0  0  0  0
  2  3  1  0  0  0  0
  3 19  1  0  0  0  0
  3  4  2  0  0  0  0
  5  4  1  0  0  0  0
  5  9  1  0  0  0  0
  6  5  2  0  0  0  0
  7  1  1  0  0  0  0
  8  2  1  0  0  0  0
  9 15  1  0  0  0  0
 10  9  1  0  0  0  0
 10 11  2  0  0  0  0
 11 12  1  0  0  0  0
 12 14  2  0  0  0  0
 12 13  1  0  0  0  0
 13 18  1  0  0  0  0
 13 17  1  0  0  0  0
 15 16  2  0  0  0  0
 15 14  1  0  0  0  0
 19 21  1  0  0  0  0
 21 20  2  0  0  0  0
 21 24  1  0  0  0  0
 22 23  1  0  0  0  0
 22 21  1  0  0  0  0
 24 25  1  0  0  0  0
M  END
>  <minimizedAffinity>
-5.66023111

$$$$

 OpenBabel03252507093D

 25 26  0  0  0  0  0  0  0  0999 V2000
   39.4010   28.2130   43.1850 C   0  0  0  0  0  0  0  0  0  0  0  0
   39.2810   29.4880   42.5970 C   0  0  0  0  0  0  0  0  0  0  0  0
   38.5050   29.6020   41.4570 C   0  0  0  0  0  0  0  0  0  0  0  0
   37.8990   28.4880   40.9590 N   0  0  0  0  0  0  0  0  0  0  0  0
   38.0320   27.2910   41.5420 C   0  0  0  0  0  0  0  0  0  0  0  0
   38.7830   27.1420   42.6590 N   0  0  0  0  0  0  0  0  0  0  0  0
   39.9760   28.0140   44.0680 H   0  0  0  0  0  0  0  0  0  0  0  0
   39.8160   30.2930   43.0940 H   0  0  0  0  0  0  0  0  0  0  0  0
   37.3270   26.2400   40.8870 N   0  0  0  0  0  0  0  0  0  0  0  0
   37.2620   25.0700   41.5470 C   0  0  0  0  0  3  0  0  0  0  0  0
   36.5810   24.0540   40.9110 C   0  0  0  0  0  3  0  0  0  0  0  0
   36.0340   24.3190   39.6730 C   0  0  0  0  0  0  0  0  0  0  0  0
   35.3100   23.3490   38.9260 N   0  0  0  0  0  0  0  0  0  0  0  0
   36.1380   25.5290   39.0610 N   0  0  0  0  0  0  0  0  0  0  0  0
   36.8080   26.5340   39.6820 C   0  0  0  0  0  0  0  0  0  0  0  0
   36.9460   27.6780   39.1800 O   0  0  0  0  0  0  0  0  0  0  0  0
   35.9830   23.0350   38.1920 H   0  0  0  0  0  0  0  0  0  0  0  0
   34.4500   22.7870   38.7330 H   0  0  0  0  0  0  0  0  0  0  0  0
   38.4050   30.8730   40.8980 O   0  0  0  0  0  0  0  0  0  0  0  0
   36.6480   30.9580   38.9170 O   0  0  0  0  0  0  0  0  0  0  0  0
   36.8740   31.4230   40.3530 P   0  0  0  0  0  0  0  0  0  0  0  0
   35.7000   30.8320   41.3900 O   0  0  0  0  0  0  0  0  0  0  0  0
   35.5230   31.4770   42.1060 H   0  0  0  0  0  0  0  0  0  0  0  0
   36.9170   33.1160   40.3400 O   0  0  0  0  0  0  0  0  0  0  0  0
   37.3990   33.3590   39.4930 H   0  0  0  0  0  0  0  0  0  0  0  0
  1  7  1  0  0  0  0
  2  8  1  0  0  0  0
  2  1  2  0  0  0  0
  3  2  1  0  0  0  0
  4  3  2  0  0  0  0
  4  5  1  0  0  0  0
  5  6  2  0  0  0  0
  6  1  1  0  0  0  0
  9  5  1  0  0  0  0
  9 10  1  0  0  0  0
 11 10  2  0  0  0  0
 12 11  1  0  0  0  0
 13 12  1  0  0  0  0
 14 12  2  0  0  0  0
 14 15  1  0  0  0  0
 15  9  1  0  0  0  0
 16 15  2  0  0  0  0
 17 13  1  0  0  0  0
 18 13  1  0  0  0  0
 19  3  1  0  0  0  0
 20 21  2  0  0  0  0
 21 19  1  0  0  0  0
 21 22  1  0  0  0  0
 22 23  1  0  0  0  0
 24 21  1  0  0  0  0
 25 24  1  0  0  0  0
M  END
>  <minimizedAffinity>
-5.59087181

$$$$

 OpenBabel03252507093D

 25 26  0  0  0  0  0  0  0  0999 V2000
   40.2370   27.8220   43.3250 C   0  0  0  0  0  0  0  0  0  0  0  0
   39.3490   26.7300   43.2340 C   0  0  0  0  0  0  0  0  0  0  0  0
   38.1570   26.9230   42.5590 C   0  0  0  0  0  0  0  0  0  0  0  0
   37.8970   28.1460   42.0180 N   0  0  0  0  0  0  0  0  0  0  0  0
   38.7610   29.1630   42.1210 C   0  0  0  0  0  0  0  0  0  0  0  0
   39.9370   29.0100   42.7740 N   0  0  0  0  0  0  0  0  0  0  0  0
   41.1850   27.7810   43.8240 H   0  0  0  0  0  0  0  0  0  0  0  0
   39.6780   25.8100   43.7100 H   0  0  0  0  0  0  0  0  0  0  0  0
   38.3250   30.3650   41.4950 N   0  0  0  0  0  0  0  0  0  0  0  0
   39.2410   31.3440   41.3920 C   0  0  0  0  0  3  0  0  0  0  0  0
   38.8180   32.5090   40.7870 C   0  0  0  0  0  3  0  0  0  0  0  0
   37.5120   32.5690   40.3460 C   0  0  0  0  0  0  0  0  0  0  0  0
   36.9670   33.7180   39.7070 N   0  0  0  0  0  0  0  0  0  0  0  0
   36.6360   31.5380   40.4820 N   0  0  0  0  0  0  0  0  0  0  0  0
   37.0470   30.3890   41.0770 C   0  0  0  0  0  0  0  0  0  0  0  0
   36.2950   29.3950   41.2390 O   0  0  0  0  0  0  0  0  0  0  0  0
   36.3870   34.1720   40.4470 H   0  0  0  0  0  0  0  0  0  0  0  0
   36.8460   34.3420   38.8780 H   0  0  0  0  0  0  0  0  0  0  0  0
   37.3000   25.8280   42.4860 O   0  0  0  0  0  0  0  0  0  0  0  0
   38.3820   25.1310   40.1700 O   0  0  0  0  0  0  0  0  0  0  0  0
   37.6660   24.5590   41.3920 P   0  0  0  0  0  0  0  0  0  0  0  0
   38.6060   23.4260   42.1890 O   0  0  0  0  0  0  0  0  0  0  0  0
   38.0380   22.7330   42.5870 H   0  0  0  0  0  0  0  0  0  0  0  0
   36.1960   23.9060   40.8610 O   0  0  0  0  0  0  0  0  0  0  0  0
   35.8700   24.5370   40.1510 H   0  0  0  0  0  0  0  0  0  0  0  0
  1  7  1  0  0  0  0
  2  1  1  0  0  0  0
  2  8  1  0  0  0  0
  3  2  2  0  0  0  0
  4  5  2  0  0  0  0
  4  3  1  0  0  0  0
  5  6  1  0  0  0  0
  6  1  2  0  0  0  0
  9  5  1  0  0  0  0
 10  9  1  0  0  0  0
 11 10  2  0  0  0  0
 12 14  2  0  0  0  0
 12 11  1  0  0  0  0
 13 12  1  0  0  0  0
 13 17  1  0  0  0  0
 14 15  1  0  0  0  0
 15 16  2  0  0  0  0
 15  9  1  0  0  0  0
 18 13  1  0  0  0  0
 19  3  1  0  0  0  0
 20 21  2  0  0  0  0
 21 22  1  0  0  0  0
 21 19  1  0  0  0  0
 22 23  1  0  0  0  0
 24 21  1  0  0  0  0
 25 24  1  0  0  0  0
M  END
>  <minimizedAffinity>
-5.56827116

$$$$

 OpenBabel03252507093D

 25 26  0  0  0  0  0  0  0  0999 V2000
   37.3150   24.2470   41.2150 C   0  0  0  0  0  0  0  0  0  0  0  0
   38.4800   24.0060   41.9710 C   0  0  0  0  0  0  0  0  0  0  0  0
   39.1720   25.1010   42.4560 C   0  0  0  0  0  0  0  0  0  0  0  0
   38.7030   26.3500   42.1830 N   0  0  0  0  0  0  0  0  0  0  0  0
   37.5920   26.5470   41.4620 C   0  0  0  0  0  0  0  0  0  0  0  0
   36.8890   25.4980   40.9720 N   0  0  0  0  0  0  0  0  0  0  0  0
   36.7050   23.4730   40.7930 H   0  0  0  0  0  0  0  0  0  0  0  0
   38.7450   22.9610   42.1140 H   0  0  0  0  0  0  0  0  0  0  0  0
   37.2500   27.9170   41.2790 N   0  0  0  0  0  0  0  0  0  0  0  0
   36.0400   28.1570   40.7430 C   0  0  0  0  0  3  0  0  0  0  0  0
   35.7090   29.4840   40.5640 C   0  0  0  0  0  3  0  0  0  0  0  0
   36.6330   30.4360   40.9440 C   0  0  0  0  0  0  0  0  0  0  0  0
   36.4010   31.8330   40.8070 N   0  0  0  0  0  0  0  0  0  0  0  0
   37.8430   30.1220   41.4810 N   0  0  0  0  0  0  0  0  0  0  0  0
   38.1730   28.8170   41.6590 C   0  0  0  0  0  0  0  0  0  0  0  0
   39.2710   28.4490   42.1490 O   0  0  0  0  0  0  0  0  0  0  0  0
   36.9600   32.1050   39.9680 H   0  0  0  0  0  0  0  0  0  0  0  0
   35.9580   32.7280   41.1140 H   0  0  0  0  0  0  0  0  0  0  0  0
   40.3190   24.8310   43.1990 O   0  0  0  0  0  0  0  0  0  0  0  0
   42.0210   25.1840   41.1990 O   0  0  0  0  0  0  0  0  0  0  0  0
   41.8170   25.4880   42.6820 P   0  0  0  0  0  0  0  0  0  0  0  0
   41.8050   27.1340   42.9830 O   0  0  0  0  0  0  0  0  0  0  0  0
   42.1860   27.3210   43.8660 H   0  0  0  0  0  0  0  0  0  0  0  0
   43.0430   24.6930   43.5380 O   0  0  0  0  0  0  0  0  0  0  0  0
   43.1670   23.8160   43.0640 H   0  0  0  0  0  0  0  0  0  0  0  0
  1  2  1  0  0  0  0
  2  8  1  0  0  0  0
  2  3  2  0  0  0  0
  3 19  1  0  0  0  0
  4  3  1  0  0  0  0
  5  4  2  0  0  0  0
  6  1  2  0  0  0  0
  6  5  1  0  0  0  0
  7  1  1  0  0  0  0
  9  5  1  0  0  0  0
  9 15  1  0  0  0  0
 10  9  1  0  0  0  0
 11 10  2  0  0  0  0
 11 12  1  0  0  0  0
 12 14  2  0  0  0  0
 13 12  1  0  0  0  0
 13 18  1  0  0  0  0
 14 15  1  0  0  0  0
 15 16  2  0  0  0  0
 17 13  1  0  0  0  0
 20 21  2  0  0  0  0
 21 22  1  0  0  0  0
 21 19  1  0  0  0  0
 21 24  1  0  0  0  0
 22 23  1  0  0  0  0
 25 24  1  0  0  0  0
M  END
>  <minimizedAffinity>
-5.50780582

$$$$

 OpenBabel03252507093D

 25 26  0  0  0  0  0  0  0  0999 V2000
   36.3900   29.0820   38.5110 C   0  0  0  0  0  0  0  0  0  0  0  0
   36.4760   30.3430   39.1360 C   0  0  0  0  0  0  0  0  0  0  0  0
   37.0980   30.4110   40.3690 C   0  0  0  0  0  0  0  0  0  0  0  0
   37.5950   29.2680   40.9200 N   0  0  0  0  0  0  0  0  0  0  0  0
   37.4980   28.0850   40.3020 C   0  0  0  0  0  0  0  0  0  0  0  0
   36.8960   27.9810   39.0930 N   0  0  0  0  0  0  0  0  0  0  0  0
   35.9300   28.9180   37.5570 H   0  0  0  0  0  0  0  0  0  0  0  0
   36.0390   31.1750   38.5880 H   0  0  0  0  0  0  0  0  0  0  0  0
   38.0730   27.0000   41.0230 N   0  0  0  0  0  0  0  0  0  0  0  0
   38.1850   25.8380   40.3540 C   0  0  0  0  0  3  0  0  0  0  0  0
   38.7410   24.7880   41.0530 C   0  0  0  0  0  3  0  0  0  0  0  0
   39.1290   25.0150   42.3580 C   0  0  0  0  0  0  0  0  0  0  0  0
   39.7130   24.0070   43.1740 N   0  0  0  0  0  0  0  0  0  0  0  0
   38.9860   26.2180   42.9740 N   0  0  0  0  0  0  0  0  0  0  0  0
   38.4400   27.2560   42.2900 C   0  0  0  0  0  0  0  0  0  0  0  0
   38.2760   28.3970   42.7930 O   0  0  0  0  0  0  0  0  0  0  0  0
   38.9390   23.7070   43.8070 H   0  0  0  0  0  0  0  0  0  0  0  0
   40.5200   23.4110   43.4670 H   0  0  0  0  0  0  0  0  0  0  0  0
   37.1680   31.6690   40.9620 O   0  0  0  0  0  0  0  0  0  0  0  0
   39.1870   32.2960   39.3650 O   0  0  0  0  0  0  0  0  0  0  0  0
   38.0460   32.9120   40.1700 P   0  0  0  0  0  0  0  0  0  0  0  0
   36.9890   33.7680   39.1950 O   0  0  0  0  0  0  0  0  0  0  0  0
   36.6170   34.5320   39.6840 H   0  0  0  0  0  0  0  0  0  0  0  0
   38.7370   33.8880   41.3690 O   0  0  0  0  0  0  0  0  0  0  0  0
   39.5540   33.3900   41.6740 H   0  0  0  0  0  0  0  0  0  0  0  0
  1  6  2  0  0  0  0
  1  2  1  0  0  0  0
  2  3  2  0  0  0  0
  3  4  1  0  0  0  0
  3 19  1  0  0  0  0
  5  4  2  0  0  0  0
  5  9  1  0  0  0  0
  6  5  1  0  0  0  0
  7  1  1  0  0  0  0
  8  2  1  0  0  0  0
  9 15  1  0  0  0  0
 10  9  1  0  0  0  0
 10 11  2  0  0  0  0
 11 12  1  0  0  0  0
 12 14  2  0  0  0  0
 12 13  1  0  0  0  0
 13 18  1  0  0  0  0
 13 17  1  0  0  0  0
 15 16  2  0  0  0  0
 15 14  1  0  0  0  0
 20 21  2  0  0  0  0
 21 19  1  0  0  0  0
 21 24  1  0  0  0  0
 22 23  1  0  0  0  0
 22 21  1  0  0  0  0
 24 25  1  0  0  0  0
M  END
>  <minimizedAffinity>
-5.40688801

$$$$

 OpenBabel03252507093D

 25 26  0  0  0  0  0  0  0  0999 V2000
   38.6140   25.8510   42.5620 C   0  0  0  0  0  0  0  0  0  0  0  0
   37.3260   26.2360   42.1390 C   0  0  0  0  0  0  0  0  0  0  0  0
   37.0940   27.5810   41.9180 C   0  0  0  0  0  0  0  0  0  0  0  0
   38.1110   28.4660   42.1160 N   0  0  0  0  0  0  0  0  0  0  0  0
   39.3250   28.0690   42.5180 C   0  0  0  0  0  0  0  0  0  0  0  0
   39.5870   26.7600   42.7430 N   0  0  0  0  0  0  0  0  0  0  0  0
   38.9000   24.8370   42.7610 H   0  0  0  0  0  0  0  0  0  0  0  0
   36.6060   25.4290   42.0190 H   0  0  0  0  0  0  0  0  0  0  0  0
   40.2640   29.1290   42.6720 N   0  0  0  0  0  0  0  0  0  0  0  0
   41.5430   28.7610   42.8700 C   0  0  0  0  0  3  0  0  0  0  0  0
   42.4520   29.7870   43.0210 C   0  0  0  0  0  3  0  0  0  0  0  0
   41.9790   31.0820   42.9560 C   0  0  0  0  0  0  0  0  0  0  0  0
   42.8240   32.2180   43.0970 N   0  0  0  0  0  0  0  0  0  0  0  0
   40.6690   31.3830   42.7530 N   0  0  0  0  0  0  0  0  0  0  0  0
   39.7700   30.3770   42.6030 C   0  0  0  0  0  0  0  0  0  0  0  0
   38.5430   30.5770   42.4120 O   0  0  0  0  0  0  0  0  0  0  0  0
   42.6430   32.5540   44.0690 H   0  0  0  0  0  0  0  0  0  0  0  0
   43.5330   32.8910   42.7280 H   0  0  0  0  0  0  0  0  0  0  0  0
   35.8120   27.9310   41.5010 O   0  0  0  0  0  0  0  0  0  0  0  0
   36.6630   29.3280   39.4170 O   0  0  0  0  0  0  0  0  0  0  0  0
   35.6080   29.3230   40.5210 P   0  0  0  0  0  0  0  0  0  0  0  0
   34.0550   29.3090   39.8970 O   0  0  0  0  0  0  0  0  0  0  0  0
   33.4480   29.8030   40.4860 H   0  0  0  0  0  0  0  0  0  0  0  0
   35.8890   30.6780   41.4980 O   0  0  0  0  0  0  0  0  0  0  0  0
   36.8880   30.7600   41.5520 H   0  0  0  0  0  0  0  0  0  0  0  0
  1  6  1  0  0  0  0
  1  7  1  0  0  0  0
  2  1  2  0  0  0  0
  3  4  2  0  0  0  0
  3  2  1  0  0  0  0
  4  5  1  0  0  0  0
  5  9  1  0  0  0  0
  5  6  2  0  0  0  0
  8  2  1  0  0  0  0
  9 10  1  0  0  0  0
 10 11  2  0  0  0  0
 12 11  1  0  0  0  0
 12 13  1  0  0  0  0
 13 17  1  0  0  0  0
 14 12  2  0  0  0  0
 15  9  1  0  0  0  0
 15 14  1  0  0  0  0
 16 15  2  0  0  0  0
 18 13  1  0  0  0  0
 19  3  1  0  0  0  0
 20 21  2  0  0  0  0
 21 24  1  0  0  0  0
 21 19  1  0  0  0  0
 22 23  1  0  0  0  0
 22 21  1  0  0  0  0
 24 25  1  0  0  0  0
M  END
>  <minimizedAffinity>
-5.31919909

$$$$

 OpenBabel03252507093D

 25 26  0  0  0  0  0  0  0  0999 V2000
   35.4190   29.6070   40.5300 C   0  0  0  0  0  0  0  0  0  0  0  0
   36.2210   30.7660   40.5360 C   0  0  0  0  0  0  0  0  0  0  0  0
   37.5250   30.6450   40.9840 C   0  0  0  0  0  0  0  0  0  0  0  0
   37.9690   29.4250   41.3960 N   0  0  0  0  0  0  0  0  0  0  0  0
   37.1820   28.3430   41.3780 C   0  0  0  0  0  0  0  0  0  0  0  0
   35.9020   28.4240   40.9450 N   0  0  0  0  0  0  0  0  0  0  0  0
   34.3970   29.5890   40.2040 H   0  0  0  0  0  0  0  0  0  0  0  0
   35.7430   31.6760   40.1820 H   0  0  0  0  0  0  0  0  0  0  0  0
   37.8140   27.1530   41.8410 N   0  0  0  0  0  0  0  0  0  0  0  0
   37.1340   26.0090   41.6470 C   0  0  0  0  0  3  0  0  0  0  0  0
   37.7450   24.8580   42.0980 C   0  0  0  0  0  3  0  0  0  0  0  0
   38.9820   24.9760   42.6980 C   0  0  0  0  0  0  0  0  0  0  0  0
   39.7050   23.8590   43.1990 N   0  0  0  0  0  0  0  0  0  0  0  0
   39.6140   26.1690   42.8630 N   0  0  0  0  0  0  0  0  0  0  0  0
   39.0170   27.3060   42.4210 C   0  0  0  0  0  0  0  0  0  0  0  0
   39.5390   28.4440   42.5370 O   0  0  0  0  0  0  0  0  0  0  0  0
   39.5680   23.9070   44.2340 H   0  0  0  0  0  0  0  0  0  0  0  0
   40.3050   23.0130   43.0660 H   0  0  0  0  0  0  0  0  0  0  0  0
   38.2930   31.8060   40.9790 O   0  0  0  0  0  0  0  0  0  0  0  0
   40.6680   32.9750   40.8580 O   0  0  0  0  0  0  0  0  0  0  0  0
   39.9730   31.6920   41.3070 P   0  0  0  0  0  0  0  0  0  0  0  0
   40.1740   31.4170   42.9460 O   0  0  0  0  0  0  0  0  0  0  0  0
   40.2140   30.4540   43.1260 H   0  0  0  0  0  0  0  0  0  0  0  0
   40.5890   30.4240   40.3680 O   0  0  0  0  0  0  0  0  0  0  0  0
   40.7100   30.8120   39.4500 H   0  0  0  0  0  0  0  0  0  0  0  0
  1  2  2  0  0  0  0
  1  6  1  0  0  0  0
  2  3  1  0  0  0  0
  3  4  2  0  0  0  0
  5  4  1  0  0  0  0
  5  9  1  0  0  0  0
  6  5  2  0  0  0  0
  7  1  1  0  0  0  0
  8  2  1  0  0  0  0
  9 15  1  0  0  0  0
 10  9  1  0  0  0  0
 10 11  2  0  0  0  0
 11 12  1  0  0  0  0
 12 14  2  0  0  0  0
 12 13  1  0  0  0  0
 13 17  1  0  0  0  0
 15 16  2  0  0  0  0
 15 14  1  0  0  0  0
 18 13  1  0  0  0  0
 19  3  1  0  0  0  0
 19 21  1  0  0  0  0
 20 21  2  0  0  0  0
 21 22  1  0  0  0  0
 22 23  1  0  0  0  0
 24 21  1  0  0  0  0
 25 24  1  0  0  0  0
M  END
>  <minimizedAffinity>
-5.26888323

$$$$

 OpenBabel03252507093D

 25 26  0  0  0  0  0  0  0  0999 V2000
   41.5750   29.2190   42.9010 C   0  0  0  0  0  0  0  0  0  0  0  0
   40.8340   28.0430   43.1390 C   0  0  0  0  0  0  0  0  0  0  0  0
   39.5230   28.0070   42.7010 C   0  0  0  0  0  0  0  0  0  0  0  0
   39.0110   29.0980   42.0650 N   0  0  0  0  0  0  0  0  0  0  0  0
   39.7400   30.2000   41.8540 C   0  0  0  0  0  0  0  0  0  0  0  0
   41.0270   30.2700   42.2690 N   0  0  0  0  0  0  0  0  0  0  0  0
   42.5960   29.3520   43.1990 H   0  0  0  0  0  0  0  0  0  0  0  0
   41.3630   27.2460   43.6570 H   0  0  0  0  0  0  0  0  0  0  0  0
   39.0430   31.2400   41.1750 N   0  0  0  0  0  0  0  0  0  0  0  0
   39.7910   32.2780   40.7590 C   0  0  0  0  0  3  0  0  0  0  0  0
   39.1150   33.2850   40.1020 C   0  0  0  0  0  3  0  0  0  0  0  0
   37.7540   33.1440   39.9310 C   0  0  0  0  0  0  0  0  0  0  0  0
   36.9550   34.1180   39.2690 N   0  0  0  0  0  0  0  0  0  0  0  0
   37.0590   32.0640   40.3790 N   0  0  0  0  0  0  0  0  0  0  0  0
   37.7190   31.0700   41.0260 C   0  0  0  0  0  0  0  0  0  0  0  0
   37.1450   30.0420   41.4680 O   0  0  0  0  0  0  0  0  0  0  0  0
   36.4700   34.6220   40.0440 H   0  0  0  0  0  0  0  0  0  0  0  0
   36.6030   34.5900   38.4050 H   0  0  0  0  0  0  0  0  0  0  0  0
   38.8170   26.8330   42.9500 O   0  0  0  0  0  0  0  0  0  0  0  0
   36.7690   25.2250   42.4570 O   0  0  0  0  0  0  0  0  0  0  0  0
   37.2210   26.6790   42.3400 P   0  0  0  0  0  0  0  0  0  0  0  0
   36.2230   27.7110   43.2010 O   0  0  0  0  0  0  0  0  0  0  0  0
   36.1630   28.5790   42.7520 H   0  0  0  0  0  0  0  0  0  0  0  0
   37.2670   27.0660   40.6920 O   0  0  0  0  0  0  0  0  0  0  0  0
   37.6100   26.2390   40.2380 H   0  0  0  0  0  0  0  0  0  0  0  0
  1  2  1  0  0  0  0
  1  7  1  0  0  0  0
  2  8  1  0  0  0  0
  3 19  1  0  0  0  0
  3  2  2  0  0  0  0
  4  3  1  0  0  0  0
  5  4  2  0  0  0  0
  5  6  1  0  0  0  0
  6  1  2  0  0  0  0
  9  5  1  0  0  0  0
 10  9  1  0  0  0  0
 11 10  2  0  0  0  0
 12 11  1  0  0  0  0
 12 14  2  0  0  0  0
 13 12  1  0  0  0  0
 13 17  1  0  0  0  0
 14 15  1  0  0  0  0
 15  9  1  0  0  0  0
 15 16  2  0  0  0  0
 18 13  1  0  0  0  0
 21 20  2  0  0  0  0
 21 19  1  0  0  0  0
 21 22  1  0  0  0  0
 23 22  1  0  0  0  0
 24 21  1  0  0  0  0
 25 24  1  0  0  0  0
M  END
>  <minimizedAffinity>
-5.2537632

$$$$

 OpenBabel03252507093D

 25 26  0  0  0  0  0  0  0  0999 V2000
   36.2890   30.9390   40.7950 C   0  0  0  0  0  0  0  0  0  0  0  0
   37.3420   31.6550   40.1920 C   0  0  0  0  0  0  0  0  0  0  0  0
   38.5650   31.0200   40.0670 C   0  0  0  0  0  0  0  0  0  0  0  0
   38.6950   29.7450   40.5290 N   0  0  0  0  0  0  0  0  0  0  0  0
   37.6750   29.0910   41.0960 C   0  0  0  0  0  0  0  0  0  0  0  0
   36.4640   29.6810   41.2340 N   0  0  0  0  0  0  0  0  0  0  0  0
   35.3030   31.3350   40.9400 H   0  0  0  0  0  0  0  0  0  0  0  0
   37.1050   32.6660   39.8680 H   0  0  0  0  0  0  0  0  0  0  0  0
   37.9910   27.7680   41.5180 N   0  0  0  0  0  0  0  0  0  0  0  0
   36.9520   27.0050   41.9010 C   0  0  0  0  0  3  0  0  0  0  0  0
   37.2590   25.7240   42.3100 C   0  0  0  0  0  3  0  0  0  0  0  0
   38.5840   25.3410   42.2910 C   0  0  0  0  0  0  0  0  0  0  0  0
   39.0180   24.0470   42.6900 N   0  0  0  0  0  0  0  0  0  0  0  0
   39.5880   26.1670   41.8910 N   0  0  0  0  0  0  0  0  0  0  0  0
   39.2920   27.4290   41.4870 C   0  0  0  0  0  0  0  0  0  0  0  0
   40.1650   28.2480   41.1040 O   0  0  0  0  0  0  0  0  0  0  0  0
   39.4180   24.1920   43.6440 H   0  0  0  0  0  0  0  0  0  0  0  0
   39.1430   23.0230   42.5210 H   0  0  0  0  0  0  0  0  0  0  0  0
   39.5870   31.7530   39.4680 O   0  0  0  0  0  0  0  0  0  0  0  0
   41.7310   31.2100   38.0090 O   0  0  0  0  0  0  0  0  0  0  0  0
   40.2050   31.2320   37.9560 P   0  0  0  0  0  0  0  0  0  0  0  0
   39.5730   29.7190   37.6180 O   0  0  0  0  0  0  0  0  0  0  0  0
   38.7480   29.8040   37.0960 H   0  0  0  0  0  0  0  0  0  0  0  0
   39.7530   32.3830   36.7980 O   0  0  0  0  0  0  0  0  0  0  0  0
   40.4110   33.1330   36.9040 H   0  0  0  0  0  0  0  0  0  0  0  0
  1  7  1  0  0  0  0
  1  6  1  0  0  0  0
  2  1  2  0  0  0  0
  3  2  1  0  0  0  0
  3  4  2  0  0  0  0
  4  5  1  0  0  0  0
  5  6  2  0  0  0  0
  5  9  1  0  0  0  0
  8  2  1  0  0  0  0
  9 10  1  0  0  0  0
 10 11  2  0  0  0  0
 12 11  1  0  0  0  0
 12 13  1  0  0  0  0
 13 17  1  0  0  0  0
 14 12  2  0  0  0  0
 15  9  1  0  0  0  0
 15 14  1  0  0  0  0
 16 15  2  0  0  0  0
 18 13  1  0  0  0  0
 19  3  1  0  0  0  0
 21 20  2  0  0  0  0
 21 19  1  0  0  0  0
 22 21  1  0  0  0  0
 23 22  1  0  0  0  0
 24 25  1  0  0  0  0
 24 21  1  0  0  0  0
M  END
>  <minimizedAffinity>
-5.15559816

$$$$
