REMARK  Name = 
REMARK  7 active torsions:
REMARK  status: ('A' for Active; 'I' for Inactive)
REMARK    1  A    between atoms: C_1  and  C_7
REMARK    2  A    between atoms: C_2  and  O_9
REMARK    3  A    between atoms: C_7  and  C_8
REMARK    4  A    between atoms: O_9  and  P_11
REMARK    5  A    between atoms: P_11  and  O_12
REMARK    6  A    between atoms: P_11  and  O_13
REMARK    7  A    between atoms: O_13  and  C_14
REMARK                            x       y       z     vdW  Elec       q    Type
REMARK                         _______ _______ _______ _____ _____    ______ ____
ROOT
ATOM      1  O   UNL     1      43.690  34.857  40.134  0.00  0.00    +0.000 OA
ATOM      2  P   UNL     1      43.261  34.739  41.590  0.00  0.00    +0.000 P 
ENDROOT
BRANCH   2   3
ATOM      3  O   UNL     1      43.148  33.087  41.986  0.00  0.00    +0.000 OA
ATOM      4  H   UNL     1      43.074  33.010  42.959  0.00  0.00    +0.000 HD
ENDBRANCH   2   3
BRANCH   2   5
ATOM      5  O   UNL     1      44.456  35.419  42.593  0.00  0.00    +0.000 OA
BRANCH   5   7
ATOM      6  C   UNL     1      46.521  34.368  42.996  0.00  0.00    +0.000 A 
ATOM      7  C   UNL     1      45.284  34.741  43.476  0.00  0.00    +0.000 A 
ATOM      8  C   UNL     1      44.958  34.414  44.798  0.00  0.00    +0.000 A 
ATOM      9  N   UNL     1      45.878  33.752  45.523  0.00  0.00    +0.000 NA
ATOM     10  C   UNL     1      47.074  33.397  45.043  0.00  0.00    +0.000 A 
ATOM     11  N   UNL     1      47.386  33.709  43.782  0.00  0.00    +0.000 NA
ATOM     12  H   UNL     1      44.000  34.713  45.144  0.00  0.00    +0.000 HD
ATOM     13  H   UNL     1      47.829  32.863  45.613  0.00  0.00    +0.000 HD
BRANCH   6  14
ATOM     14  C   UNL     1      46.921  34.681  41.623  0.00  0.00    +0.000 C 
ATOM     15  H   UNL     1      46.190  35.380  41.162  0.00  0.00    +0.000 HD
ATOM     16  H   UNL     1      46.963  33.771  40.992  0.00  0.00    +0.000 HD
BRANCH  14  17
ATOM     17  C   UNL     1      48.278  35.329  41.648  0.00  0.00    +0.000 C 
ATOM     18  H   UNL     1      49.044  34.572  41.815  0.00  0.00    +0.000 HD
ATOM     19  H   UNL     1      48.273  36.103  42.442  0.00  0.00    +0.000 HD
ATOM     20  H   UNL     1      48.449  35.789  40.644  0.00  0.00    +0.000 HD
ENDBRANCH  14  17
ENDBRANCH   6  14
ENDBRANCH   5   7
ENDBRANCH   2   5
BRANCH   2  21
ATOM     21  O   UNL     1      41.733  35.424  41.828  0.00  0.00    +0.000 OA
BRANCH  21  22
ATOM     22  C   UNL     1      40.632  34.769  41.297  0.00  0.00    +0.000 A 
ATOM     23  C   UNL     1      39.986  35.342  40.216  0.00  0.00    +0.000 A 
ATOM     24  C   UNL     1      38.876  34.753  39.623  0.00  0.00    +0.000 A 
ATOM     25  N   UNL     1      38.425  33.568  40.139  0.00  0.00    +0.000 NA
ATOM     26  C   UNL     1      39.055  33.026  41.179  0.00  0.00    +0.000 A 
ATOM     27  N   UNL     1      40.118  33.597  41.742  0.00  0.00    +0.000 NA
ATOM     28  H   UNL     1      40.354  36.266  39.828  0.00  0.00    +0.000 HD
ATOM     29  H   UNL     1      38.394  35.238  38.770  0.00  0.00    +0.000 HD
ATOM     30  N   UNL     1      38.531  31.793  41.664  0.00  0.00    +0.000 N 
ATOM     31  C   UNL     1      39.354  30.872  42.227  0.00  0.00    +0.000 A 
ATOM     32  C   UNL     1      38.744  29.713  42.664  0.00  0.00    +0.000 A 
ATOM     33  C   UNL     1      37.394  29.437  42.569  0.00  0.00    +0.000 A 
ATOM     34  N   UNL     1      36.831  28.220  43.040  0.00  0.00    +0.000 N 
ATOM     35  N   UNL     1      36.659  30.408  41.997  0.00  0.00    +0.000 NA
ATOM     36  C   UNL     1      37.215  31.564  41.553  0.00  0.00    +0.000 A 
ATOM     37  O   UNL     1      36.464  32.424  41.031  0.00  0.00    +0.000 OA
ATOM     38  H   UNL     1      37.485  27.509  43.423  0.00  0.00    +0.000 HD
ATOM     39  H   UNL     1      35.791  28.124  42.969  0.00  0.00    +0.000 HD
ENDBRANCH  21  22
ENDBRANCH   2  21
TORSDOF 7
