
 OpenBabel03242511333D

 36 38  0  0  1  0  0  0  0  0999 V2000
   48.5580   32.0450   42.8670 C   0  0  0  0  0  3  0  0  0  0  0  0
   47.8940   33.1710   43.0390 C   0  0  0  0  0  3  0  0  0  0  0  0
   49.2880   31.8400   41.6220 C   0  0  0  0  0  0  0  0  0  0  0  0
   50.6900   31.9460   41.6690 C   0  0  0  0  0  0  0  0  0  0  0  0
   51.4210   31.7560   40.4950 C   0  0  0  0  0  0  0  0  0  0  0  0
   50.7400   31.4750   39.3530 N   0  0  0  0  0  0  0  0  0  0  0  0
   49.3990   31.3810   39.3390 C   0  0  0  0  0  0  0  0  0  0  0  0
   48.6970   31.5640   40.4660 N   0  0  0  0  0  0  0  0  0  0  0  0
   51.2120   32.1710   42.6010 H   0  0  0  0  0  0  0  0  0  0  0  0
   52.4920   31.8410   40.5530 H   0  0  0  0  0  0  0  0  0  0  0  0
   48.7680   31.0850   38.0970 N   0  0  0  0  0  0  0  0  0  0  0  0
   48.0700   29.9440   37.9470 C   0  0  0  0  0  3  0  0  0  0  0  0
   47.4720   29.7040   36.7040 C   0  0  0  0  0  3  0  0  0  0  0  0
   47.6580   30.6700   35.7490 C   0  0  0  0  0  0  0  0  0  0  0  0
   47.0450   30.4110   34.4960 N   0  0  0  0  0  0  0  0  0  0  0  0
   48.3620   31.8060   35.9200 N   0  0  0  0  0  0  0  0  0  0  0  0
   48.9310   32.0200   37.1240 C   0  0  0  0  0  0  0  0  0  0  0  0
   49.5940   33.0700   37.3180 O   0  0  0  0  0  0  0  0  0  0  0  0
   47.0820   30.3820   33.4670 H   0  0  0  0  0  0  0  0  0  0  0  0
   46.0530   30.0660   34.3280 H   0  0  0  0  0  0  0  0  0  0  0  0
   47.1350   33.4460   44.2700 C   0  0  0  0  0  0  0  0  0  0  0  0
   47.6810   34.1600   44.9120 H   0  0  0  0  0  0  0  0  0  0  0  0
   46.9810   32.4730   44.7940 H   0  0  0  0  0  0  0  0  0  0  0  0
   44.5960   35.9820   43.8540 C   0  0  1  0  0  0  0  0  0  0  0  0
   45.7340   35.2260   43.1640 C   0  0  0  0  0  0  0  0  0  0  0  0
   45.7340   33.9670   43.9580 C   0  0  2  0  0  0  0  0  0  0  0  0
   44.9620   34.1200   45.0690 O   0  0  0  0  0  0  0  0  0  0  0  0
   44.7310   35.4690   45.2670 C   0  0  0  0  0  0  0  0  0  0  0  0
   43.6170   35.7230   43.4380 H   0  0  0  0  0  0  0  0  0  0  0  0
   46.6390   35.8400   43.2700 H   0  0  0  0  0  0  0  0  0  0  0  0
   45.4290   35.0790   42.0870 H   0  0  0  0  0  0  0  0  0  0  0  0
   45.2470   33.1660   43.3310 H   0  0  0  0  0  0  0  0  0  0  0  0
   43.8180   35.5950   45.8760 H   0  0  0  0  0  0  0  0  0  0  0  0
   45.5470   35.9720   45.8090 H   0  0  0  0  0  0  0  0  0  0  0  0
   44.8120   37.3510   43.7560 O   0  0  0  0  0  0  0  0  0  0  0  0
   45.4010   37.7140   44.4620 H   0  0  0  0  0  0  0  0  0  0  0  0
  1  2  2  0  0  0  0
  2 21  1  0  0  0  0
  3  4  1  0  0  0  0
  3  1  1  0  0  0  0
  4  9  1  0  0  0  0
  5 10  1  0  0  0  0
  5  4  2  0  0  0  0
  6  5  1  0  0  0  0
  7  6  2  0  0  0  0
  7  8  1  0  0  0  0
  8  3  2  0  0  0  0
 11  7  1  0  0  0  0
 12 11  1  0  0  0  0
 13 12  2  0  0  0  0
 14 16  2  0  0  0  0
 14 13  1  0  0  0  0
 15 14  1  0  0  0  0
 16 17  1  0  0  0  0
 17 18  2  0  0  0  0
 17 11  1  0  0  0  0
 19 15  1  0  0  0  0
 20 15  1  0  0  0  0
 21 23  1  0  0  0  0
 21 22  1  0  0  0  0
 24 29  1  6  0  0  0
 24 28  1  0  0  0  0
 25 30  1  0  0  0  0
 25 24  1  0  0  0  0
 25 26  1  0  0  0  0
 26 32  1  6  0  0  0
 26 21  1  0  0  0  0
 26 27  1  0  0  0  0
 27 28  1  0  0  0  0
 28 34  1  0  0  0  0
 28 33  1  0  0  0  0
 31 25  1  0  0  0  0
 35 24  1  0  0  0  0
 35 36  1  0  0  0  0
M  END
>  <minimizedAffinity>
-4.84307194

>  <minimizedRMSD>
0.730743051

$$$$
