
 OpenBabel03252503253D

 48 53  0  0  1  0  0  0  0  0999 V2000
   35.0150   29.2560   40.0910 C   0  0  0  0  0  0  0  0  0  0  0  0
   35.1400   28.6520   38.7960 C   0  0  0  0  0  0  0  0  0  0  0  0
   35.9700   27.5680   38.6690 C   0  0  0  0  0  0  0  0  0  0  0  0
   36.6230   27.1360   39.7820 N   0  0  0  0  0  0  0  0  0  0  0  0
   36.4950   27.7190   41.0000 C   0  0  0  0  0  0  0  0  0  0  0  0
   35.6870   28.7810   41.1490 N   0  0  0  0  0  0  0  0  0  0  0  0
   34.3710   30.1170   40.2490 H   0  0  0  0  0  0  0  0  0  0  0  0
   36.0900   27.0890   37.7200 H   0  0  0  0  0  0  0  0  0  0  0  0
   34.3790   29.2390   37.6520 C   0  0  1  0  0  0  0  0  0  0  0  0
   34.2100   28.4860   36.4150 C   0  0  0  0  0  0  0  0  0  0  0  0
   33.0420   28.5900   37.3250 C   0  0  2  0  0  0  0  0  0  0  0  0
   34.3930   30.3380   37.6330 H   0  0  0  0  0  0  0  0  0  0  0  0
   34.7260   27.4780   36.4120 H   0  0  0  0  0  0  0  0  0  0  0  0
   34.3600   29.0190   35.4910 H   0  0  0  0  0  0  0  0  0  0  0  0
   32.6980   27.7960   37.9990 H   0  0  0  0  0  0  0  0  0  0  0  0
   31.9750   29.5550   36.9480 C   0  0  0  0  0  0  0  0  0  0  0  0
   31.0210   30.0370   37.8200 C   0  0  0  0  0  0  0  0  0  0  0  0
   30.0570   30.9370   37.3970 C   0  0  0  0  0  0  0  0  0  0  0  0
   30.0340   31.3690   36.0930 C   0  0  0  0  0  0  0  0  0  0  0  0
   29.1070   32.2610   35.6440 N   0  0  0  0  0  0  0  0  0  0  0  0
   29.1140   32.6700   34.3660 C   0  0  0  0  0  0  0  0  0  0  0  0
   30.0500   32.2320   33.3970 C   0  0  0  0  0  0  0  0  0  0  0  0
   30.9960   31.3310   33.8290 C   0  0  0  0  0  0  0  0  0  0  0  0
   30.9770   30.9120   35.1670 C   0  0  0  0  0  0  0  0  0  0  0  0
   31.9190   30.0150   35.6320 C   0  0  0  0  0  0  0  0  0  0  0  0
   31.0520   29.6870   38.8420 H   0  0  0  0  0  0  0  0  0  0  0  0
   29.3400   31.2840   38.1030 H   0  0  0  0  0  0  0  0  0  0  0  0
   28.3580   33.3810   34.0520 H   0  0  0  0  0  0  0  0  0  0  0  0
   29.9960   32.6040   32.3840 H   0  0  0  0  0  0  0  0  0  0  0  0
   31.7330   30.9620   33.1370 H   0  0  0  0  0  0  0  0  0  0  0  0
   32.6070   29.7030   34.8590 H   0  0  0  0  0  0  0  0  0  0  0  0
   37.2610   27.1490   42.1410 C   0  0  2  0  0  0  0  0  0  0  0  0
   37.4930   27.9110   43.3580 C   0  0  0  0  0  0  0  0  0  0  0  0
   38.6340   27.8310   42.3740 C   0  0  1  0  0  0  0  0  0  0  0  0
   37.3240   26.0320   42.0470 H   0  0  0  0  0  0  0  0  0  0  0  0
   36.9490   28.8900   43.4790 H   0  0  0  0  0  0  0  0  0  0  0  0
   37.5860   27.4190   44.3490 H   0  0  0  0  0  0  0  0  0  0  0  0
   38.7950   28.7910   41.8220 H   0  0  0  0  0  0  0  0  0  0  0  0
   39.7860   27.0310   42.6110 N   0  0  0  0  0  0  0  0  0  0  0  0
   40.3250   26.9460   43.8630 C   0  0  0  0  0  3  0  0  0  0  0  0
   41.4400   26.1920   44.1730 C   0  0  0  0  0  3  0  0  0  0  0  0
   42.0560   25.4790   43.1630 C   0  0  0  0  0  0  0  0  0  0  0  0
   43.2090   24.6770   43.3930 N   0  0  0  0  0  0  0  0  0  0  0  0
   41.5200   25.5650   41.9210 N   0  0  0  0  0  0  0  0  0  0  0  0
   40.4280   26.3170   41.6740 C   0  0  0  0  0  0  0  0  0  0  0  0
   40.0150   26.3260   40.4910 O   0  0  0  0  0  0  0  0  0  0  0  0
   43.4530   24.3560   44.3550 H   0  0  0  0  0  0  0  0  0  0  0  0
   43.8030   24.4220   42.5540 H   0  0  0  0  0  0  0  0  0  0  0  0
  1  7  1  0  0  0  0
  1  6  1  0  0  0  0
  2  1  2  0  0  0  0
  3  2  1  0  0  0  0
  3  4  2  0  0  0  0
  4  5  1  0  0  0  0
  5  6  2  0  0  0  0
  5 32  1  0  0  0  0
  8  3  1  0  0  0  0
  9 12  1  6  0  0  0
  9  2  1  0  0  0  0
 10 11  1  0  0  0  0
 10  9  1  0  0  0  0
 11  9  1  0  0  0  0
 11 15  1  1  0  0  0
 13 10  1  0  0  0  0
 14 10  1  0  0  0  0
 16 11  1  0  0  0  0
 16 17  1  0  0  0  0
 17 26  1  0  0  0  0
 18 17  2  0  0  0  0
 18 27  1  0  0  0  0
 19 18  1  0  0  0  0
 20 19  1  0  0  0  0
 21 20  2  0  0  0  0
 22 23  2  0  0  0  0
 22 21  1  0  0  0  0
 23 24  1  0  0  0  0
 24 25  1  0  0  0  0
 24 19  2  0  0  0  0
 25 16  2  0  0  0  0
 28 21  1  0  0  0  0
 29 22  1  0  0  0  0
 30 23  1  0  0  0  0
 31 25  1  0  0  0  0
 32 35  1  1  0  0  0
 32 34  1  0  0  0  0
 32 33  1  0  0  0  0
 33 36  1  0  0  0  0
 33 37  1  0  0  0  0
 34 38  1  6  0  0  0
 34 39  1  0  0  0  0
 34 33  1  0  0  0  0
 39 40  1  0  0  0  0
 40 41  2  0  0  0  0
 42 43  1  0  0  0  0
 42 41  1  0  0  0  0
 43 47  1  0  0  0  0
 44 42  2  0  0  0  0
 45 44  1  0  0  0  0
 45 39  1  0  0  0  0
 46 45  2  0  0  0  0
 48 43  1  0  0  0  0
M  END
>  <minimizedAffinity>
-7.59622288

$$$$

 OpenBabel03252503253D

 48 53  0  0  1  0  0  0  0  0999 V2000
   38.3080   31.5790   40.6730 C   0  0  0  0  0  0  0  0  0  0  0  0
   37.3260   31.6800   39.6310 C   0  0  0  0  0  0  0  0  0  0  0  0
   37.0780   32.9200   39.1010 C   0  0  0  0  0  0  0  0  0  0  0  0
   37.7790   33.9750   39.5980 N   0  0  0  0  0  0  0  0  0  0  0  0
   38.7040   33.8620   40.5850 C   0  0  0  0  0  0  0  0  0  0  0  0
   38.9650   32.6580   41.1190 N   0  0  0  0  0  0  0  0  0  0  0  0
   38.5450   30.6210   41.1290 H   0  0  0  0  0  0  0  0  0  0  0  0
   36.3550   33.0380   38.3220 H   0  0  0  0  0  0  0  0  0  0  0  0
   36.6150   30.4440   39.1900 C   0  0  1  0  0  0  0  0  0  0  0  0
   36.3880   30.1890   37.7720 C   0  0  0  0  0  0  0  0  0  0  0  0
   37.4520   29.4080   38.4510 C   0  0  2  0  0  0  0  0  0  0  0  0
   35.9190   30.0450   39.9410 H   0  0  0  0  0  0  0  0  0  0  0  0
   36.7610   31.0110   37.0890 H   0  0  0  0  0  0  0  0  0  0  0  0
   35.4100   29.8390   37.4860 H   0  0  0  0  0  0  0  0  0  0  0  0
   38.5280   29.6080   38.3690 H   0  0  0  0  0  0  0  0  0  0  0  0
   37.1320   28.0010   38.8110 C   0  0  0  0  0  0  0  0  0  0  0  0
   36.2420   27.2060   38.1200 C   0  0  0  0  0  0  0  0  0  0  0  0
   35.9950   25.9020   38.5150 C   0  0  0  0  0  0  0  0  0  0  0  0
   36.6360   25.3730   39.6100 C   0  0  0  0  0  0  0  0  0  0  0  0
   36.4250   24.0920   40.0210 N   0  0  0  0  0  0  0  0  0  0  0  0
   37.0710   23.6010   41.0900 C   0  0  0  0  0  0  0  0  0  0  0  0
   38.0000   24.3390   41.8640 C   0  0  0  0  0  0  0  0  0  0  0  0
   38.2290   25.6360   41.4660 C   0  0  0  0  0  0  0  0  0  0  0  0
   37.5470   26.1360   40.3470 C   0  0  0  0  0  0  0  0  0  0  0  0
   37.7630   27.4310   39.9180 C   0  0  0  0  0  0  0  0  0  0  0  0
   35.7460   27.6360   37.2630 H   0  0  0  0  0  0  0  0  0  0  0  0
   35.3010   25.3230   37.9540 H   0  0  0  0  0  0  0  0  0  0  0  0
   36.8730   22.5760   41.3820 H   0  0  0  0  0  0  0  0  0  0  0  0
   38.4840   23.8800   42.7140 H   0  0  0  0  0  0  0  0  0  0  0  0
   38.9250   26.2470   42.0160 H   0  0  0  0  0  0  0  0  0  0  0  0
   38.4720   27.9580   40.5400 H   0  0  0  0  0  0  0  0  0  0  0  0
   39.4050   35.0920   41.0400 C   0  0  2  0  0  0  0  0  0  0  0  0
   39.7830   36.1420   40.1060 C   0  0  0  0  0  0  0  0  0  0  0  0
   40.8720   35.1940   40.5460 C   0  0  1  0  0  0  0  0  0  0  0  0
   39.2950   35.2140   42.1510 H   0  0  0  0  0  0  0  0  0  0  0  0
   39.3970   36.0730   39.0500 H   0  0  0  0  0  0  0  0  0  0  0  0
   39.8260   37.2100   40.4100 H   0  0  0  0  0  0  0  0  0  0  0  0
   41.1610   34.4700   39.7440 H   0  0  0  0  0  0  0  0  0  0  0  0
   41.8950   35.5830   41.4540 N   0  0  0  0  0  0  0  0  0  0  0  0
   41.7920   36.7500   42.1570 C   0  0  0  0  0  3  0  0  0  0  0  0
   42.7420   37.1950   43.0560 C   0  0  0  0  0  3  0  0  0  0  0  0
   43.8670   36.4220   43.2640 C   0  0  0  0  0  0  0  0  0  0  0  0
   44.8950   36.8040   44.1710 N   0  0  0  0  0  0  0  0  0  0  0  0
   43.9670   35.2640   42.5660 N   0  0  0  0  0  0  0  0  0  0  0  0
   43.0090   34.8760   41.7000 C   0  0  0  0  0  0  0  0  0  0  0  0
   43.2010   33.7890   41.1070 O   0  0  0  0  0  0  0  0  0  0  0  0
   44.7110   37.5050   44.9210 H   0  0  0  0  0  0  0  0  0  0  0  0
   45.8450   36.3510   44.0530 H   0  0  0  0  0  0  0  0  0  0  0  0
  1  6  1  0  0  0  0
  1  7  1  0  0  0  0
  2  1  2  0  0  0  0
  3  4  2  0  0  0  0
  3  2  1  0  0  0  0
  4  5  1  0  0  0  0
  5 32  1  0  0  0  0
  5  6  2  0  0  0  0
  8  3  1  0  0  0  0
  9  2  1  0  0  0  0
  9 12  1  1  0  0  0
 10 11  1  0  0  0  0
 10  9  1  0  0  0  0
 11 15  1  6  0  0  0
 11 16  1  0  0  0  0
 11  9  1  0  0  0  0
 13 10  1  0  0  0  0
 14 10  1  0  0  0  0
 16 25  1  0  0  0  0
 17 18  1  0  0  0  0
 17 16  2  0  0  0  0
 18 19  2  0  0  0  0
 19 20  1  0  0  0  0
 19 24  1  0  0  0  0
 20 21  2  0  0  0  0
 21 28  1  0  0  0  0
 21 22  1  0  0  0  0
 22 29  1  0  0  0  0
 23 22  2  0  0  0  0
 23 30  1  0  0  0  0
 24 23  1  0  0  0  0
 25 24  2  0  0  0  0
 25 31  1  0  0  0  0
 26 17  1  0  0  0  0
 27 18  1  0  0  0  0
 32 35  1  1  0  0  0
 33 37  1  0  0  0  0
 33 34  1  0  0  0  0
 33 32  1  0  0  0  0
 34 38  1  6  0  0  0
 34 32  1  0  0  0  0
 34 39  1  0  0  0  0
 36 33  1  0  0  0  0
 39 45  1  0  0  0  0
 39 40  1  0  0  0  0
 40 41  2  0  0  0  0
 41 42  1  0  0  0  0
 42 43  1  0  0  0  0
 43 47  1  0  0  0  0
 44 42  2  0  0  0  0
 45 44  1  0  0  0  0
 46 45  2  0  0  0  0
 48 43  1  0  0  0  0
M  END
>  <minimizedAffinity>
-7.48364353

$$$$

 OpenBabel03252503253D

 48 53  0  0  1  0  0  0  0  0999 V2000
   37.1370   32.7750   39.2490 C   0  0  0  0  0  0  0  0  0  0  0  0
   37.4090   31.5560   39.9550 C   0  0  0  0  0  0  0  0  0  0  0  0
   38.3490   31.5880   40.9540 C   0  0  0  0  0  0  0  0  0  0  0  0
   38.9630   32.7750   41.2090 N   0  0  0  0  0  0  0  0  0  0  0  0
   38.6940   33.9190   40.5310 C   0  0  0  0  0  0  0  0  0  0  0  0
   37.7780   33.9130   39.5500 N   0  0  0  0  0  0  0  0  0  0  0  0
   36.4020   32.8070   38.4490 H   0  0  0  0  0  0  0  0  0  0  0  0
   38.5800   30.7010   41.5050 H   0  0  0  0  0  0  0  0  0  0  0  0
   36.6750   30.3170   39.5620 C   0  0  1  0  0  0  0  0  0  0  0  0
   36.4230   30.0230   38.1560 C   0  0  0  0  0  0  0  0  0  0  0  0
   37.4860   29.2480   38.8420 C   0  0  2  0  0  0  0  0  0  0  0  0
   35.9850   29.9500   40.3350 H   0  0  0  0  0  0  0  0  0  0  0  0
   36.7960   30.8190   37.4430 H   0  0  0  0  0  0  0  0  0  0  0  0
   35.4360   29.6780   37.8960 H   0  0  0  0  0  0  0  0  0  0  0  0
   38.5630   29.4300   38.7380 H   0  0  0  0  0  0  0  0  0  0  0  0
   37.1540   27.8570   39.2500 C   0  0  0  0  0  0  0  0  0  0  0  0
   37.5430   27.2840   40.4420 C   0  0  0  0  0  0  0  0  0  0  0  0
   37.1940   25.9800   40.7550 C   0  0  0  0  0  0  0  0  0  0  0  0
   36.4500   25.2300   39.8760 C   0  0  0  0  0  0  0  0  0  0  0  0
   36.0800   23.9480   40.1540 N   0  0  0  0  0  0  0  0  0  0  0  0
   35.3460   23.2430   39.2790 C   0  0  0  0  0  0  0  0  0  0  0  0
   34.9020   23.7430   38.0310 C   0  0  0  0  0  0  0  0  0  0  0  0
   35.2630   25.0370   37.7300 C   0  0  0  0  0  0  0  0  0  0  0  0
   36.0300   25.7620   38.6530 C   0  0  0  0  0  0  0  0  0  0  0  0
   36.4000   27.0650   38.3820 C   0  0  0  0  0  0  0  0  0  0  0  0
   38.1280   27.8860   41.1220 H   0  0  0  0  0  0  0  0  0  0  0  0
   37.5140   25.5770   41.6860 H   0  0  0  0  0  0  0  0  0  0  0  0
   35.0740   22.2270   39.5410 H   0  0  0  0  0  0  0  0  0  0  0  0
   34.3130   23.1180   37.3750 H   0  0  0  0  0  0  0  0  0  0  0  0
   34.9550   25.4710   36.7950 H   0  0  0  0  0  0  0  0  0  0  0  0
   36.0460   27.4020   37.4190 H   0  0  0  0  0  0  0  0  0  0  0  0
   39.4330   35.1540   40.9080 C   0  0  2  0  0  0  0  0  0  0  0  0
   39.9130   36.0900   39.9020 C   0  0  0  0  0  0  0  0  0  0  0  0
   40.9270   35.1400   40.4930 C   0  0  1  0  0  0  0  0  0  0  0  0
   39.2700   35.3880   41.9940 H   0  0  0  0  0  0  0  0  0  0  0  0
   39.5810   35.9360   38.8370 H   0  0  0  0  0  0  0  0  0  0  0  0
   39.9960   37.1790   40.1060 H   0  0  0  0  0  0  0  0  0  0  0  0
   41.2210   34.3290   39.7810 H   0  0  0  0  0  0  0  0  0  0  0  0
   41.9190   35.5670   41.4180 N   0  0  0  0  0  0  0  0  0  0  0  0
   41.7210   36.6830   42.1810 C   0  0  0  0  0  3  0  0  0  0  0  0
   42.6340   37.1610   43.1000 C   0  0  0  0  0  3  0  0  0  0  0  0
   43.8230   36.4780   43.2650 C   0  0  0  0  0  0  0  0  0  0  0  0
   44.8200   36.8990   44.1890 N   0  0  0  0  0  0  0  0  0  0  0  0
   44.0180   35.3710   42.5070 N   0  0  0  0  0  0  0  0  0  0  0  0
   43.0910   34.9480   41.6230 C   0  0  0  0  0  0  0  0  0  0  0  0
   43.3720   33.9140   40.9740 O   0  0  0  0  0  0  0  0  0  0  0  0
   44.5810   37.5420   44.9750 H   0  0  0  0  0  0  0  0  0  0  0  0
   45.8050   36.5370   44.0460 H   0  0  0  0  0  0  0  0  0  0  0  0
  1  6  2  0  0  0  0
  1  2  1  0  0  0  0
  2  3  2  0  0  0  0
  3  4  1  0  0  0  0
  3  8  1  0  0  0  0
  5 32  1  0  0  0  0
  5  4  2  0  0  0  0
  6  5  1  0  0  0  0
  7  1  1  0  0  0  0
  9  2  1  0  0  0  0
  9 12  1  1  0  0  0
 10 11  1  0  0  0  0
 10  9  1  0  0  0  0
 11 15  1  6  0  0  0
 11 16  1  0  0  0  0
 11  9  1  0  0  0  0
 13 10  1  0  0  0  0
 14 10  1  0  0  0  0
 16 17  1  0  0  0  0
 17 18  2  0  0  0  0
 17 26  1  0  0  0  0
 18 27  1  0  0  0  0
 19 20  1  0  0  0  0
 19 18  1  0  0  0  0
 21 28  1  0  0  0  0
 21 20  2  0  0  0  0
 22 21  1  0  0  0  0
 23 22  2  0  0  0  0
 23 24  1  0  0  0  0
 24 19  2  0  0  0  0
 25 24  1  0  0  0  0
 25 16  2  0  0  0  0
 29 22  1  0  0  0  0
 30 23  1  0  0  0  0
 31 25  1  0  0  0  0
 32 35  1  1  0  0  0
 33 37  1  0  0  0  0
 33 34  1  0  0  0  0
 33 32  1  0  0  0  0
 34 38  1  6  0  0  0
 34 32  1  0  0  0  0
 34 39  1  0  0  0  0
 36 33  1  0  0  0  0
 39 45  1  0  0  0  0
 39 40  1  0  0  0  0
 40 41  2  0  0  0  0
 41 42  1  0  0  0  0
 42 43  1  0  0  0  0
 43 47  1  0  0  0  0
 44 42  2  0  0  0  0
 45 44  1  0  0  0  0
 46 45  2  0  0  0  0
 48 43  1  0  0  0  0
M  END
>  <minimizedAffinity>
-7.42198849

$$$$

 OpenBabel03252503253D

 48 53  0  0  1  0  0  0  0  0999 V2000
   36.4450   27.7570   38.6960 C   0  0  0  0  0  0  0  0  0  0  0  0
   35.4360   28.7600   38.8830 C   0  0  0  0  0  0  0  0  0  0  0  0
   35.2100   29.2140   40.1570 C   0  0  0  0  0  0  0  0  0  0  0  0
   35.9580   28.6820   41.1620 N   0  0  0  0  0  0  0  0  0  0  0  0
   36.9080   27.7330   40.9680 C   0  0  0  0  0  0  0  0  0  0  0  0
   37.1470   27.2730   39.7300 N   0  0  0  0  0  0  0  0  0  0  0  0
   36.6660   27.3620   37.7080 H   0  0  0  0  0  0  0  0  0  0  0  0
   34.4670   29.9610   40.3390 H   0  0  0  0  0  0  0  0  0  0  0  0
   34.6740   29.2460   37.6940 C   0  0  1  0  0  0  0  0  0  0  0  0
   34.6430   28.4600   36.4670 C   0  0  0  0  0  0  0  0  0  0  0  0
   33.4280   28.4560   37.3190 C   0  0  2  0  0  0  0  0  0  0  0  0
   34.5750   30.3400   37.6530 H   0  0  0  0  0  0  0  0  0  0  0  0
   35.2590   27.5120   36.5080 H   0  0  0  0  0  0  0  0  0  0  0  0
   34.7810   28.9920   35.5390 H   0  0  0  0  0  0  0  0  0  0  0  0
   33.1360   27.6410   37.9930 H   0  0  0  0  0  0  0  0  0  0  0  0
   32.2870   29.3000   36.8750 C   0  0  0  0  0  0  0  0  0  0  0  0
   32.1130   29.7510   35.5830 C   0  0  0  0  0  0  0  0  0  0  0  0
   31.0220   30.5340   35.2410 C   0  0  0  0  0  0  0  0  0  0  0  0
   30.0890   30.8780   36.1900 C   0  0  0  0  0  0  0  0  0  0  0  0
   28.9990   31.6390   35.8880 N   0  0  0  0  0  0  0  0  0  0  0  0
   28.1010   31.9520   36.8350 C   0  0  0  0  0  0  0  0  0  0  0  0
   28.1950   31.5390   38.1870 C   0  0  0  0  0  0  0  0  0  0  0  0
   29.2880   30.7690   38.5130 C   0  0  0  0  0  0  0  0  0  0  0  0
   30.2180   30.4490   37.5150 C   0  0  0  0  0  0  0  0  0  0  0  0
   31.3200   29.6710   37.8100 C   0  0  0  0  0  0  0  0  0  0  0  0
   32.8550   29.4730   34.8490 H   0  0  0  0  0  0  0  0  0  0  0  0
   30.9250   30.8600   34.2330 H   0  0  0  0  0  0  0  0  0  0  0  0
   27.2490   32.5590   36.5510 H   0  0  0  0  0  0  0  0  0  0  0  0
   27.4330   31.8290   38.8960 H   0  0  0  0  0  0  0  0  0  0  0  0
   29.4130   30.4260   39.5260 H   0  0  0  0  0  0  0  0  0  0  0  0
   31.3550   29.3840   38.8520 H   0  0  0  0  0  0  0  0  0  0  0  0
   37.6600   27.2330   42.1500 C   0  0  2  0  0  0  0  0  0  0  0  0
   37.9180   28.0840   43.3020 C   0  0  0  0  0  0  0  0  0  0  0  0
   39.0540   27.8910   42.3270 C   0  0  1  0  0  0  0  0  0  0  0  0
   37.6900   26.1110   42.1470 H   0  0  0  0  0  0  0  0  0  0  0  0
   37.4030   29.0850   43.3450 H   0  0  0  0  0  0  0  0  0  0  0  0
   37.9990   27.6700   44.3300 H   0  0  0  0  0  0  0  0  0  0  0  0
   39.2410   28.7980   41.7010 H   0  0  0  0  0  0  0  0  0  0  0  0
   40.1820   27.0790   42.6270 N   0  0  0  0  0  0  0  0  0  0  0  0
   40.6490   26.9870   43.9080 C   0  0  0  0  0  3  0  0  0  0  0  0
   41.7370   26.2210   44.2780 C   0  0  0  0  0  3  0  0  0  0  0  0
   42.4000   25.5010   43.3040 C   0  0  0  0  0  0  0  0  0  0  0  0
   43.5300   24.6870   43.5970 N   0  0  0  0  0  0  0  0  0  0  0  0
   41.9350   25.5940   42.0340 N   0  0  0  0  0  0  0  0  0  0  0  0
   40.8670   26.3570   41.7270 C   0  0  0  0  0  0  0  0  0  0  0  0
   40.5200   26.3720   40.5230 O   0  0  0  0  0  0  0  0  0  0  0  0
   43.7170   24.3640   44.5710 H   0  0  0  0  0  0  0  0  0  0  0  0
   44.1670   24.4260   42.7920 H   0  0  0  0  0  0  0  0  0  0  0  0
  1  2  2  0  0  0  0
  1  6  1  0  0  0  0
  2  3  1  0  0  0  0
  3  8  1  0  0  0  0
  3  4  2  0  0  0  0
  5  4  1  0  0  0  0
  5 32  1  0  0  0  0
  6  5  2  0  0  0  0
  7  1  1  0  0  0  0
  9 12  1  6  0  0  0
  9  2  1  0  0  0  0
 10 13  1  0  0  0  0
 10 11  1  0  0  0  0
 10  9  1  0  0  0  0
 11  9  1  0  0  0  0
 11 15  1  1  0  0  0
 14 10  1  0  0  0  0
 16 11  1  0  0  0  0
 16 25  1  0  0  0  0
 17 16  2  0  0  0  0
 18 17  1  0  0  0  0
 18 19  2  0  0  0  0
 19 24  1  0  0  0  0
 20 19  1  0  0  0  0
 20 21  2  0  0  0  0
 21 22  1  0  0  0  0
 22 23  2  0  0  0  0
 22 29  1  0  0  0  0
 23 30  1  0  0  0  0
 24 25  2  0  0  0  0
 24 23  1  0  0  0  0
 25 31  1  0  0  0  0
 26 17  1  0  0  0  0
 27 18  1  0  0  0  0
 28 21  1  0  0  0  0
 32 35  1  1  0  0  0
 32 34  1  0  0  0  0
 32 33  1  0  0  0  0
 33 36  1  0  0  0  0
 33 37  1  0  0  0  0
 34 38  1  6  0  0  0
 34 39  1  0  0  0  0
 34 33  1  0  0  0  0
 39 40  1  0  0  0  0
 40 41  2  0  0  0  0
 42 43  1  0  0  0  0
 42 41  1  0  0  0  0
 43 47  1  0  0  0  0
 44 42  2  0  0  0  0
 45 44  1  0  0  0  0
 45 39  1  0  0  0  0
 46 45  2  0  0  0  0
 48 43  1  0  0  0  0
M  END
>  <minimizedAffinity>
-7.18425465

$$$$

 OpenBabel03252503253D

 48 53  0  0  1  0  0  0  0  0999 V2000
   37.7710   28.3590   39.9120 C   0  0  0  0  0  0  0  0  0  0  0  0
   38.3750   27.7950   41.0840 C   0  0  0  0  0  0  0  0  0  0  0  0
   38.7670   28.6520   42.0800 C   0  0  0  0  0  0  0  0  0  0  0  0
   38.5590   29.9830   41.8900 N   0  0  0  0  0  0  0  0  0  0  0  0
   37.9870   30.5010   40.7740 C   0  0  0  0  0  0  0  0  0  0  0  0
   37.5940   29.6820   39.7860 N   0  0  0  0  0  0  0  0  0  0  0  0
   37.4410   27.7270   39.0910 H   0  0  0  0  0  0  0  0  0  0  0  0
   39.2200   28.2710   42.9710 H   0  0  0  0  0  0  0  0  0  0  0  0
   38.5610   26.3150   41.1570 C   0  0  1  0  0  0  0  0  0  0  0  0
   38.5670   25.6350   42.4470 C   0  0  0  0  0  0  0  0  0  0  0  0
   37.3530   25.5020   41.6020 C   0  0  2  0  0  0  0  0  0  0  0  0
   39.1290   25.9010   40.3120 H   0  0  0  0  0  0  0  0  0  0  0  0
   38.4560   26.3270   43.3360 H   0  0  0  0  0  0  0  0  0  0  0  0
   39.3290   24.8900   42.6070 H   0  0  0  0  0  0  0  0  0  0  0  0
   36.4160   26.0510   41.7570 H   0  0  0  0  0  0  0  0  0  0  0  0
   37.1800   24.2220   40.8650 C   0  0  0  0  0  0  0  0  0  0  0  0
   38.0920   23.1880   40.8800 C   0  0  0  0  0  0  0  0  0  0  0  0
   37.8620   22.0220   40.1680 C   0  0  0  0  0  0  0  0  0  0  0  0
   36.7130   21.8750   39.4280 C   0  0  0  0  0  0  0  0  0  0  0  0
   36.4490   20.7390   38.7240 N   0  0  0  0  0  0  0  0  0  0  0  0
   35.3140   20.6220   38.0160 C   0  0  0  0  0  0  0  0  0  0  0  0
   34.3200   21.6270   37.9370 C   0  0  0  0  0  0  0  0  0  0  0  0
   34.5660   22.7830   38.6420 C   0  0  0  0  0  0  0  0  0  0  0  0
   35.7550   22.8930   39.3770 C   0  0  0  0  0  0  0  0  0  0  0  0
   36.0260   24.0370   40.1020 C   0  0  0  0  0  0  0  0  0  0  0  0
   38.9910   23.3190   41.4660 H   0  0  0  0  0  0  0  0  0  0  0  0
   38.5920   21.2490   40.2080 H   0  0  0  0  0  0  0  0  0  0  0  0
   35.1440   19.7000   37.4710 H   0  0  0  0  0  0  0  0  0  0  0  0
   33.4290   21.4640   37.3470 H   0  0  0  0  0  0  0  0  0  0  0  0
   33.8470   23.5840   38.6200 H   0  0  0  0  0  0  0  0  0  0  0  0
   35.2460   24.7790   40.0080 H   0  0  0  0  0  0  0  0  0  0  0  0
   37.8130   31.9760   40.6880 C   0  0  2  0  0  0  0  0  0  0  0  0
   37.2700   32.6090   39.4960 C   0  0  0  0  0  0  0  0  0  0  0  0
   38.7670   32.6600   39.6760 C   0  0  1  0  0  0  0  0  0  0  0  0
   37.8430   32.4310   41.7140 H   0  0  0  0  0  0  0  0  0  0  0  0
   36.8420   31.9440   38.6940 H   0  0  0  0  0  0  0  0  0  0  0  0
   36.6770   33.5470   39.5490 H   0  0  0  0  0  0  0  0  0  0  0  0
   39.3070   31.9700   38.9810 H   0  0  0  0  0  0  0  0  0  0  0  0
   39.4470   33.8530   40.0460 N   0  0  0  0  0  0  0  0  0  0  0  0
   38.7970   35.0550   40.0320 C   0  0  0  0  0  3  0  0  0  0  0  0
   39.3870   36.2550   40.3770 C   0  0  0  0  0  3  0  0  0  0  0  0
   40.7130   36.2520   40.7600 C   0  0  0  0  0  0  0  0  0  0  0  0
   41.4000   37.4420   41.1310 N   0  0  0  0  0  0  0  0  0  0  0  0
   41.3570   35.0590   40.7740 N   0  0  0  0  0  0  0  0  0  0  0  0
   40.7320   33.9150   40.4270 C   0  0  0  0  0  0  0  0  0  0  0  0
   41.4190   32.8690   40.4750 O   0  0  0  0  0  0  0  0  0  0  0  0
   40.8730   38.2950   41.4170 H   0  0  0  0  0  0  0  0  0  0  0  0
   42.4590   37.4240   41.1060 H   0  0  0  0  0  0  0  0  0  0  0  0
  1  2  1  0  0  0  0
  2  9  1  0  0  0  0
  2  3  2  0  0  0  0
  3  8  1  0  0  0  0
  4  3  1  0  0  0  0
  5  4  2  0  0  0  0
  6  1  2  0  0  0  0
  6  5  1  0  0  0  0
  7  1  1  0  0  0  0
  9 12  1  6  0  0  0
  9 11  1  0  0  0  0
  9 10  1  0  0  0  0
 10 14  1  0  0  0  0
 10 13  1  0  0  0  0
 11 15  1  1  0  0  0
 11 10  1  0  0  0  0
 16 17  1  0  0  0  0
 16 11  1  0  0  0  0
 17 26  1  0  0  0  0
 18 27  1  0  0  0  0
 18 17  2  0  0  0  0
 19 18  1  0  0  0  0
 20 19  2  0  0  0  0
 21 20  1  0  0  0  0
 22 21  2  0  0  0  0
 22 23  1  0  0  0  0
 23 24  2  0  0  0  0
 24 19  1  0  0  0  0
 24 25  1  0  0  0  0
 25 16  2  0  0  0  0
 28 21  1  0  0  0  0
 29 22  1  0  0  0  0
 30 23  1  0  0  0  0
 31 25  1  0  0  0  0
 32  5  1  0  0  0  0
 32 35  1  1  0  0  0
 33 37  1  0  0  0  0
 33 34  1  0  0  0  0
 33 32  1  0  0  0  0
 34 38  1  6  0  0  0
 34 39  1  0  0  0  0
 34 32  1  0  0  0  0
 36 33  1  0  0  0  0
 39 45  1  0  0  0  0
 40 39  1  0  0  0  0
 40 41  2  0  0  0  0
 41 42  1  0  0  0  0
 42 44  2  0  0  0  0
 42 43  1  0  0  0  0
 43 47  1  0  0  0  0
 45 46  2  0  0  0  0
 45 44  1  0  0  0  0
 48 43  1  0  0  0  0
M  END
>  <minimizedAffinity>
-7.05096483

$$$$

 OpenBabel03252503253D

 48 53  0  0  1  0  0  0  0  0999 V2000
   38.9960   31.0120   39.6340 C   0  0  0  0  0  0  0  0  0  0  0  0
   37.7970   31.0550   38.8460 C   0  0  0  0  0  0  0  0  0  0  0  0
   37.1390   32.2530   38.7440 C   0  0  0  0  0  0  0  0  0  0  0  0
   37.6640   33.3240   39.3990 N   0  0  0  0  0  0  0  0  0  0  0  0
   38.7980   33.2660   40.1420 C   0  0  0  0  0  0  0  0  0  0  0  0
   39.4610   32.1040   40.2560 N   0  0  0  0  0  0  0  0  0  0  0  0
   39.5580   30.0890   39.7480 H   0  0  0  0  0  0  0  0  0  0  0  0
   36.2420   32.3280   38.1650 H   0  0  0  0  0  0  0  0  0  0  0  0
   37.3200   29.8010   38.1920 C   0  0  1  0  0  0  0  0  0  0  0  0
   37.7060   28.4990   38.7230 C   0  0  0  0  0  0  0  0  0  0  0  0
   36.3200   28.9650   38.9800 C   0  0  2  0  0  0  0  0  0  0  0  0
   37.1030   29.9180   37.1210 H   0  0  0  0  0  0  0  0  0  0  0  0
   38.4000   28.5500   39.6160 H   0  0  0  0  0  0  0  0  0  0  0  0
   38.0160   27.7500   38.0130 H   0  0  0  0  0  0  0  0  0  0  0  0
   35.9630   29.3840   39.9290 H   0  0  0  0  0  0  0  0  0  0  0  0
   35.2410   28.3680   38.1490 C   0  0  0  0  0  0  0  0  0  0  0  0
   35.2870   27.0980   37.6120 C   0  0  0  0  0  0  0  0  0  0  0  0
   34.2420   26.6080   36.8470 C   0  0  0  0  0  0  0  0  0  0  0  0
   33.1330   27.3840   36.6060 C   0  0  0  0  0  0  0  0  0  0  0  0
   32.0820   26.9320   35.8670 N   0  0  0  0  0  0  0  0  0  0  0  0
   31.0090   27.7100   35.6550 C   0  0  0  0  0  0  0  0  0  0  0  0
   30.8710   29.0260   36.1600 C   0  0  0  0  0  0  0  0  0  0  0  0
   31.9210   29.5030   36.9110 C   0  0  0  0  0  0  0  0  0  0  0  0
   33.0350   28.6790   37.1250 C   0  0  0  0  0  0  0  0  0  0  0  0
   34.1000   29.1270   37.8820 C   0  0  0  0  0  0  0  0  0  0  0  0
   36.1660   26.5010   37.8100 H   0  0  0  0  0  0  0  0  0  0  0  0
   34.3180   25.6230   36.4530 H   0  0  0  0  0  0  0  0  0  0  0  0
   30.1960   27.3100   35.0610 H   0  0  0  0  0  0  0  0  0  0  0  0
   29.9780   29.5970   35.9500 H   0  0  0  0  0  0  0  0  0  0  0  0
   31.8730   30.4970   37.3220 H   0  0  0  0  0  0  0  0  0  0  0  0
   33.9550   30.1360   38.2410 H   0  0  0  0  0  0  0  0  0  0  0  0
   39.2720   34.5090   40.8080 C   0  0  2  0  0  0  0  0  0  0  0  0
   39.3540   35.7720   40.0900 C   0  0  0  0  0  0  0  0  0  0  0  0
   40.6440   35.0120   40.2890 C   0  0  1  0  0  0  0  0  0  0  0  0
   39.2290   34.3930   41.9240 H   0  0  0  0  0  0  0  0  0  0  0  0
   38.9070   35.8220   39.0580 H   0  0  0  0  0  0  0  0  0  0  0  0
   39.2070   36.7470   40.6010 H   0  0  0  0  0  0  0  0  0  0  0  0
   41.0070   34.5310   39.3470 H   0  0  0  0  0  0  0  0  0  0  0  0
   41.6370   35.4310   41.2160 N   0  0  0  0  0  0  0  0  0  0  0  0
   41.4870   36.5960   41.9130 C   0  0  0  0  0  3  0  0  0  0  0  0
   42.4050   37.0700   42.8300 C   0  0  0  0  0  3  0  0  0  0  0  0
   43.5480   36.3300   43.0620 C   0  0  0  0  0  0  0  0  0  0  0  0
   44.5460   36.7430   43.9880 N   0  0  0  0  0  0  0  0  0  0  0  0
   43.6950   35.1740   42.3690 N   0  0  0  0  0  0  0  0  0  0  0  0
   42.7660   34.7580   41.4850 C   0  0  0  0  0  0  0  0  0  0  0  0
   43.0000   33.6750   40.8980 O   0  0  0  0  0  0  0  0  0  0  0  0
   44.3270   37.4400   44.7330 H   0  0  0  0  0  0  0  0  0  0  0  0
   45.5110   36.3170   43.8910 H   0  0  0  0  0  0  0  0  0  0  0  0
  1  7  1  0  0  0  0
  1  6  1  0  0  0  0
  2  1  2  0  0  0  0
  3  2  1  0  0  0  0
  3  4  2  0  0  0  0
  4  5  1  0  0  0  0
  5  6  2  0  0  0  0
  5 32  1  0  0  0  0
  8  3  1  0  0  0  0
  9 12  1  6  0  0  0
  9 10  1  0  0  0  0
  9  2  1  0  0  0  0
  9 11  1  0  0  0  0
 10 11  1  0  0  0  0
 10 13  1  0  0  0  0
 11 15  1  1  0  0  0
 14 10  1  0  0  0  0
 16 11  1  0  0  0  0
 17 26  1  0  0  0  0
 17 16  2  0  0  0  0
 18 17  1  0  0  0  0
 19 18  2  0  0  0  0
 19 24  1  0  0  0  0
 20 19  1  0  0  0  0
 21 20  2  0  0  0  0
 21 22  1  0  0  0  0
 22 23  2  0  0  0  0
 23 24  1  0  0  0  0
 23 30  1  0  0  0  0
 24 25  2  0  0  0  0
 25 16  1  0  0  0  0
 25 31  1  0  0  0  0
 27 18  1  0  0  0  0
 28 21  1  0  0  0  0
 29 22  1  0  0  0  0
 32 35  1  1  0  0  0
 33 34  1  0  0  0  0
 33 37  1  0  0  0  0
 33 32  1  0  0  0  0
 34 38  1  6  0  0  0
 34 32  1  0  0  0  0
 34 39  1  0  0  0  0
 36 33  1  0  0  0  0
 39 45  1  0  0  0  0
 39 40  1  0  0  0  0
 40 41  2  0  0  0  0
 41 42  1  0  0  0  0
 42 43  1  0  0  0  0
 43 47  1  0  0  0  0
 44 42  2  0  0  0  0
 45 44  1  0  0  0  0
 46 45  2  0  0  0  0
 48 43  1  0  0  0  0
M  END
>  <minimizedAffinity>
-7.02893066

$$$$

 OpenBabel03252503253D

 48 53  0  0  1  0  0  0  0  0999 V2000
   39.3740   31.9720   38.7200 C   0  0  0  0  0  0  0  0  0  0  0  0
   38.3080   31.4800   39.5450 C   0  0  0  0  0  0  0  0  0  0  0  0
   37.9790   32.1990   40.6650 C   0  0  0  0  0  0  0  0  0  0  0  0
   38.6850   33.3330   40.9220 N   0  0  0  0  0  0  0  0  0  0  0  0
   39.6910   33.7840   40.1310 C   0  0  0  0  0  0  0  0  0  0  0  0
   40.0320   33.0980   39.0290 N   0  0  0  0  0  0  0  0  0  0  0  0
   39.6760   31.4420   37.8200 H   0  0  0  0  0  0  0  0  0  0  0  0
   37.1900   31.8660   41.3060 H   0  0  0  0  0  0  0  0  0  0  0  0
   37.6260   30.2090   39.1580 C   0  0  1  0  0  0  0  0  0  0  0  0
   36.3850   29.8100   39.8100 C   0  0  0  0  0  0  0  0  0  0  0  0
   36.2960   30.3500   38.4310 C   0  0  2  0  0  0  0  0  0  0  0  0
   38.3090   29.4470   38.7580 H   0  0  0  0  0  0  0  0  0  0  0  0
   36.0400   30.5180   40.6240 H   0  0  0  0  0  0  0  0  0  0  0  0
   36.2960   28.7780   40.1090 H   0  0  0  0  0  0  0  0  0  0  0  0
   35.9770   31.3670   38.1730 H   0  0  0  0  0  0  0  0  0  0  0  0
   36.0990   29.3670   37.3320 C   0  0  0  0  0  0  0  0  0  0  0  0
   36.6440   29.4940   36.0710 C   0  0  0  0  0  0  0  0  0  0  0  0
   36.4180   28.5360   35.0960 C   0  0  0  0  0  0  0  0  0  0  0  0
   35.6410   27.4350   35.3690 C   0  0  0  0  0  0  0  0  0  0  0  0
   35.4050   26.4690   34.4390 N   0  0  0  0  0  0  0  0  0  0  0  0
   34.6480   25.4020   34.7380 C   0  0  0  0  0  0  0  0  0  0  0  0
   34.0440   25.1850   36.0010 C   0  0  0  0  0  0  0  0  0  0  0  0
   34.2710   26.1490   36.9560 C   0  0  0  0  0  0  0  0  0  0  0  0
   35.0630   27.2590   36.6310 C   0  0  0  0  0  0  0  0  0  0  0  0
   35.3150   28.2380   37.5720 C   0  0  0  0  0  0  0  0  0  0  0  0
   37.2520   30.3640   35.8710 H   0  0  0  0  0  0  0  0  0  0  0  0
   36.8580   28.6720   34.1370 H   0  0  0  0  0  0  0  0  0  0  0  0
   34.4870   24.6560   33.9670 H   0  0  0  0  0  0  0  0  0  0  0  0
   33.4460   24.3020   36.1710 H   0  0  0  0  0  0  0  0  0  0  0  0
   33.8370   26.0390   37.9350 H   0  0  0  0  0  0  0  0  0  0  0  0
   34.8310   28.0360   38.5160 H   0  0  0  0  0  0  0  0  0  0  0  0
   40.3860   35.0410   40.5190 C   0  0  2  0  0  0  0  0  0  0  0  0
   41.2640   35.7410   39.5940 C   0  0  0  0  0  0  0  0  0  0  0  0
   41.9230   34.8900   40.6530 C   0  0  1  0  0  0  0  0  0  0  0  0
   39.8980   35.4910   41.4250 H   0  0  0  0  0  0  0  0  0  0  0  0
   41.2900   35.3920   38.5240 H   0  0  0  0  0  0  0  0  0  0  0  0
   41.3850   36.8450   39.6230 H   0  0  0  0  0  0  0  0  0  0  0  0
   42.3520   33.9440   40.2380 H   0  0  0  0  0  0  0  0  0  0  0  0
   42.5910   35.4550   41.7740 N   0  0  0  0  0  0  0  0  0  0  0  0
   42.1540   36.6260   42.3240 C   0  0  0  0  0  3  0  0  0  0  0  0
   42.7480   37.2370   43.4110 C   0  0  0  0  0  3  0  0  0  0  0  0
   43.8510   36.6360   43.9840 C   0  0  0  0  0  0  0  0  0  0  0  0
   44.5250   37.1950   45.1060 N   0  0  0  0  0  0  0  0  0  0  0  0
   44.2840   35.4740   43.4380 N   0  0  0  0  0  0  0  0  0  0  0  0
   43.6650   34.9200   42.3740 C   0  0  0  0  0  0  0  0  0  0  0  0
   44.1470   33.8440   41.9480 O   0  0  0  0  0  0  0  0  0  0  0  0
   44.0520   37.8970   45.7170 H   0  0  0  0  0  0  0  0  0  0  0  0
   45.5160   36.8720   45.2930 H   0  0  0  0  0  0  0  0  0  0  0  0
  1  6  2  0  0  0  0
  1  2  1  0  0  0  0
  2  3  2  0  0  0  0
  3  4  1  0  0  0  0
  3  8  1  0  0  0  0
  5 32  1  0  0  0  0
  5  4  2  0  0  0  0
  6  5  1  0  0  0  0
  7  1  1  0  0  0  0
  9 12  1  6  0  0  0
  9  2  1  0  0  0  0
  9 10  1  0  0  0  0
 10 14  1  0  0  0  0
 10 13  1  0  0  0  0
 11 15  1  6  0  0  0
 11  9  1  0  0  0  0
 11 10  1  0  0  0  0
 16 25  1  0  0  0  0
 16 11  1  0  0  0  0
 17 16  2  0  0  0  0
 18 19  2  0  0  0  0
 18 17  1  0  0  0  0
 19 24  1  0  0  0  0
 20 21  2  0  0  0  0
 20 19  1  0  0  0  0
 21 22  1  0  0  0  0
 22 29  1  0  0  0  0
 22 23  2  0  0  0  0
 23 30  1  0  0  0  0
 24 23  1  0  0  0  0
 24 25  2  0  0  0  0
 25 31  1  0  0  0  0
 26 17  1  0  0  0  0
 27 18  1  0  0  0  0
 28 21  1  0  0  0  0
 32 34  1  0  0  0  0
 32 35  1  1  0  0  0
 33 37  1  0  0  0  0
 33 32  1  0  0  0  0
 33 34  1  0  0  0  0
 34 38  1  6  0  0  0
 34 39  1  0  0  0  0
 36 33  1  0  0  0  0
 39 40  1  0  0  0  0
 39 45  1  0  0  0  0
 40 41  2  0  0  0  0
 41 42  1  0  0  0  0
 42 43  1  0  0  0  0
 43 48  1  0  0  0  0
 43 47  1  0  0  0  0
 44 42  2  0  0  0  0
 45 44  1  0  0  0  0
 46 45  2  0  0  0  0
M  END
>  <minimizedAffinity>
-6.95960045

$$$$

 OpenBabel03252503253D

 48 53  0  0  1  0  0  0  0  0999 V2000
   37.7200   28.3630   39.4860 C   0  0  0  0  0  0  0  0  0  0  0  0
   38.1720   27.7050   40.6790 C   0  0  0  0  0  0  0  0  0  0  0  0
   38.4590   28.4820   41.7720 C   0  0  0  0  0  0  0  0  0  0  0  0
   38.2980   29.8280   41.6530 N   0  0  0  0  0  0  0  0  0  0  0  0
   37.8710   30.4350   40.5170 C   0  0  0  0  0  0  0  0  0  0  0  0
   37.5830   29.6950   39.4340 N   0  0  0  0  0  0  0  0  0  0  0  0
   37.4780   27.7960   38.5910 H   0  0  0  0  0  0  0  0  0  0  0  0
   38.7970   28.0310   42.6800 H   0  0  0  0  0  0  0  0  0  0  0  0
   38.3220   26.2200   40.6690 C   0  0  1  0  0  0  0  0  0  0  0  0
   38.4550   25.4830   41.9200 C   0  0  0  0  0  0  0  0  0  0  0  0
   37.1510   25.4160   41.2160 C   0  0  2  0  0  0  0  0  0  0  0  0
   38.7780   25.8300   39.7480 H   0  0  0  0  0  0  0  0  0  0  0  0
   38.4670   26.1370   42.8440 H   0  0  0  0  0  0  0  0  0  0  0  0
   39.2090   24.7140   41.9600 H   0  0  0  0  0  0  0  0  0  0  0  0
   36.2530   25.9800   41.5000 H   0  0  0  0  0  0  0  0  0  0  0  0
   36.8580   24.1750   40.4510 C   0  0  0  0  0  0  0  0  0  0  0  0
   35.7820   24.0220   39.6020 C   0  0  0  0  0  0  0  0  0  0  0  0
   35.5730   22.8340   38.9210 C   0  0  0  0  0  0  0  0  0  0  0  0
   36.4390   21.7790   39.0810 C   0  0  0  0  0  0  0  0  0  0  0  0
   36.2700   20.5990   38.4210 N   0  0  0  0  0  0  0  0  0  0  0  0
   37.1380   19.5900   38.5920 C   0  0  0  0  0  0  0  0  0  0  0  0
   38.2680   19.6500   39.4430 C   0  0  0  0  0  0  0  0  0  0  0  0
   38.4580   20.8330   40.1200 C   0  0  0  0  0  0  0  0  0  0  0  0
   37.5450   21.8800   39.9320 C   0  0  0  0  0  0  0  0  0  0  0  0
   37.7140   23.0820   40.5900 C   0  0  0  0  0  0  0  0  0  0  0  0
   35.1090   24.8600   39.4870 H   0  0  0  0  0  0  0  0  0  0  0  0
   34.7310   22.7590   38.2750 H   0  0  0  0  0  0  0  0  0  0  0  0
   36.9660   18.6690   38.0460 H   0  0  0  0  0  0  0  0  0  0  0  0
   38.9250   18.7970   39.5330 H   0  0  0  0  0  0  0  0  0  0  0  0
   39.3010   20.9380   40.7820 H   0  0  0  0  0  0  0  0  0  0  0  0
   38.5840   23.0810   41.2320 H   0  0  0  0  0  0  0  0  0  0  0  0
   37.7320   31.9160   40.5150 C   0  0  2  0  0  0  0  0  0  0  0  0
   37.1890   32.6280   39.3680 C   0  0  0  0  0  0  0  0  0  0  0  0
   38.6900   32.6320   39.5280 C   0  0  1  0  0  0  0  0  0  0  0  0
   37.7890   32.3130   41.5640 H   0  0  0  0  0  0  0  0  0  0  0  0
   36.7340   32.0190   38.5370 H   0  0  0  0  0  0  0  0  0  0  0  0
   36.6220   33.5760   39.4810 H   0  0  0  0  0  0  0  0  0  0  0  0
   39.2030   31.9680   38.7880 H   0  0  0  0  0  0  0  0  0  0  0  0
   39.4060   33.7850   39.9520 N   0  0  0  0  0  0  0  0  0  0  0  0
   38.7950   35.0060   39.9850 C   0  0  0  0  0  3  0  0  0  0  0  0
   39.4210   36.1710   40.3850 C   0  0  0  0  0  3  0  0  0  0  0  0
   40.7430   36.1090   40.7760 C   0  0  0  0  0  0  0  0  0  0  0  0
   41.4660   37.2590   41.2020 N   0  0  0  0  0  0  0  0  0  0  0  0
   41.3480   34.8960   40.7430 N   0  0  0  0  0  0  0  0  0  0  0  0
   40.6890   33.7890   40.3440 C   0  0  0  0  0  0  0  0  0  0  0  0
   41.3420   32.7190   40.3510 O   0  0  0  0  0  0  0  0  0  0  0  0
   40.9640   38.1160   41.5210 H   0  0  0  0  0  0  0  0  0  0  0  0
   42.5230   37.2080   41.1820 H   0  0  0  0  0  0  0  0  0  0  0  0
  1  2  1  0  0  0  0
  2  3  2  0  0  0  0
  3  8  1  0  0  0  0
  4  3  1  0  0  0  0
  5  4  2  0  0  0  0
  6  1  2  0  0  0  0
  6  5  1  0  0  0  0
  7  1  1  0  0  0  0
  9 12  1  6  0  0  0
  9  2  1  0  0  0  0
  9 11  1  0  0  0  0
  9 10  1  0  0  0  0
 10 14  1  0  0  0  0
 10 13  1  0  0  0  0
 11 15  1  1  0  0  0
 11 10  1  0  0  0  0
 16 25  1  0  0  0  0
 16 11  1  0  0  0  0
 17 16  2  0  0  0  0
 18 19  2  0  0  0  0
 18 17  1  0  0  0  0
 19 24  1  0  0  0  0
 20 21  2  0  0  0  0
 20 19  1  0  0  0  0
 21 22  1  0  0  0  0
 22 29  1  0  0  0  0
 22 23  2  0  0  0  0
 23 30  1  0  0  0  0
 24 23  1  0  0  0  0
 24 25  2  0  0  0  0
 25 31  1  0  0  0  0
 26 17  1  0  0  0  0
 27 18  1  0  0  0  0
 28 21  1  0  0  0  0
 32  5  1  0  0  0  0
 32 35  1  1  0  0  0
 33 37  1  0  0  0  0
 33 34  1  0  0  0  0
 33 32  1  0  0  0  0
 34 38  1  6  0  0  0
 34 39  1  0  0  0  0
 34 32  1  0  0  0  0
 36 33  1  0  0  0  0
 39 40  1  0  0  0  0
 39 45  1  0  0  0  0
 40 41  2  0  0  0  0
 41 42  1  0  0  0  0
 42 43  1  0  0  0  0
 43 47  1  0  0  0  0
 44 42  2  0  0  0  0
 45 46  2  0  0  0  0
 45 44  1  0  0  0  0
 48 43  1  0  0  0  0
M  END
>  <minimizedAffinity>
-6.94115114

$$$$

 OpenBabel03252503253D

 48 53  0  0  1  0  0  0  0  0999 V2000
   38.5070   30.8450   40.2280 C   0  0  0  0  0  0  0  0  0  0  0  0
   37.5320   30.8870   39.1760 C   0  0  0  0  0  0  0  0  0  0  0  0
   37.1150   32.1170   38.7360 C   0  0  0  0  0  0  0  0  0  0  0  0
   37.6520   33.2180   39.3270 N   0  0  0  0  0  0  0  0  0  0  0  0
   38.5720   33.1610   40.3220 C   0  0  0  0  0  0  0  0  0  0  0  0
   38.9970   31.9680   40.7700 N   0  0  0  0  0  0  0  0  0  0  0  0
   38.8730   29.8980   40.6150 H   0  0  0  0  0  0  0  0  0  0  0  0
   36.3900   32.1910   37.9530 H   0  0  0  0  0  0  0  0  0  0  0  0
   37.0100   29.6010   38.6260 C   0  0  1  0  0  0  0  0  0  0  0  0
   37.0340   28.3880   39.4360 C   0  0  0  0  0  0  0  0  0  0  0  0
   35.7280   29.0680   39.2500 C   0  0  2  0  0  0  0  0  0  0  0  0
   37.0710   29.5340   37.5310 H   0  0  0  0  0  0  0  0  0  0  0  0
   37.5010   28.5230   40.4580 H   0  0  0  0  0  0  0  0  0  0  0  0
   37.3670   27.4830   38.9560 H   0  0  0  0  0  0  0  0  0  0  0  0
   35.2380   29.7050   39.9970 H   0  0  0  0  0  0  0  0  0  0  0  0
   34.7840   28.4630   38.2720 C   0  0  0  0  0  0  0  0  0  0  0  0
   33.7390   29.1410   37.6810 C   0  0  0  0  0  0  0  0  0  0  0  0
   32.9000   28.5110   36.7760 C   0  0  0  0  0  0  0  0  0  0  0  0
   33.0950   27.1910   36.4500 C   0  0  0  0  0  0  0  0  0  0  0  0
   32.2960   26.5410   35.5580 N   0  0  0  0  0  0  0  0  0  0  0  0
   32.5160   25.2530   35.2540 C   0  0  0  0  0  0  0  0  0  0  0  0
   33.5600   24.4730   35.8100 C   0  0  0  0  0  0  0  0  0  0  0  0
   34.3800   25.1100   36.7130 C   0  0  0  0  0  0  0  0  0  0  0  0
   34.1390   26.4560   37.0220 C   0  0  0  0  0  0  0  0  0  0  0  0
   34.9500   27.1230   37.9180 C   0  0  0  0  0  0  0  0  0  0  0  0
   33.5980   30.1790   37.9480 H   0  0  0  0  0  0  0  0  0  0  0  0
   32.1060   29.0720   36.3430 H   0  0  0  0  0  0  0  0  0  0  0  0
   31.8560   24.7750   34.5390 H   0  0  0  0  0  0  0  0  0  0  0  0
   33.6790   23.4390   35.5190 H   0  0  0  0  0  0  0  0  0  0  0  0
   35.1910   24.5680   37.1690 H   0  0  0  0  0  0  0  0  0  0  0  0
   35.7280   26.4900   38.3210 H   0  0  0  0  0  0  0  0  0  0  0  0
   39.0860   34.4390   40.8850 C   0  0  2  0  0  0  0  0  0  0  0  0
   39.1710   35.6460   40.0760 C   0  0  0  0  0  0  0  0  0  0  0  0
   40.4520   34.8770   40.2960 C   0  0  1  0  0  0  0  0  0  0  0  0
   39.0700   34.4040   42.0070 H   0  0  0  0  0  0  0  0  0  0  0  0
   38.6980   35.6310   39.0550 H   0  0  0  0  0  0  0  0  0  0  0  0
   39.0540   36.6580   40.5200 H   0  0  0  0  0  0  0  0  0  0  0  0
   40.7820   34.3230   39.3830 H   0  0  0  0  0  0  0  0  0  0  0  0
   41.4770   35.3420   41.1660 N   0  0  0  0  0  0  0  0  0  0  0  0
   41.3450   36.5360   41.8160 C   0  0  0  0  0  3  0  0  0  0  0  0
   42.2950   37.0540   42.6750 C   0  0  0  0  0  3  0  0  0  0  0  0
   43.4500   36.3310   42.8970 C   0  0  0  0  0  0  0  0  0  0  0  0
   44.4800   36.7900   43.7650 N   0  0  0  0  0  0  0  0  0  0  0  0
   43.5780   35.1460   42.2500 N   0  0  0  0  0  0  0  0  0  0  0  0
   42.6190   34.6860   41.4210 C   0  0  0  0  0  0  0  0  0  0  0  0
   42.8380   33.5800   40.8750 O   0  0  0  0  0  0  0  0  0  0  0  0
   44.2850   37.5180   44.4860 H   0  0  0  0  0  0  0  0  0  0  0  0
   45.4430   36.3650   43.6500 H   0  0  0  0  0  0  0  0  0  0  0  0
  1  7  1  0  0  0  0
  1  6  1  0  0  0  0
  2  1  2  0  0  0  0
  3  2  1  0  0  0  0
  3  4  2  0  0  0  0
  4  5  1  0  0  0  0
  5  6  2  0  0  0  0
  5 32  1  0  0  0  0
  8  3  1  0  0  0  0
  9 12  1  6  0  0  0
  9  2  1  0  0  0  0
  9 11  1  0  0  0  0
  9 10  1  0  0  0  0
 10 13  1  0  0  0  0
 11 10  1  0  0  0  0
 11 15  1  1  0  0  0
 14 10  1  0  0  0  0
 16 11  1  0  0  0  0
 17 26  1  0  0  0  0
 17 16  2  0  0  0  0
 18 17  1  0  0  0  0
 19 18  2  0  0  0  0
 19 24  1  0  0  0  0
 20 19  1  0  0  0  0
 21 20  2  0  0  0  0
 21 22  1  0  0  0  0
 22 23  2  0  0  0  0
 23 24  1  0  0  0  0
 23 30  1  0  0  0  0
 24 25  2  0  0  0  0
 25 16  1  0  0  0  0
 25 31  1  0  0  0  0
 27 18  1  0  0  0  0
 28 21  1  0  0  0  0
 29 22  1  0  0  0  0
 32 35  1  1  0  0  0
 33 34  1  0  0  0  0
 33 37  1  0  0  0  0
 33 32  1  0  0  0  0
 34 38  1  6  0  0  0
 34 32  1  0  0  0  0
 34 39  1  0  0  0  0
 36 33  1  0  0  0  0
 39 45  1  0  0  0  0
 39 40  1  0  0  0  0
 40 41  2  0  0  0  0
 41 42  1  0  0  0  0
 42 43  1  0  0  0  0
 43 47  1  0  0  0  0
 44 42  2  0  0  0  0
 45 44  1  0  0  0  0
 46 45  2  0  0  0  0
 48 43  1  0  0  0  0
M  END
>  <minimizedAffinity>
-6.7351222

$$$$
