REMARK  Name = 
REMARK  4 active torsions:
REMARK  status: ('A' for Active; 'I' for Inactive)
REMARK    1  A    between atoms: C_1  and  C_13
REMARK    2  A    between atoms: C_3  and  C_7
REMARK    3  A    between atoms: C_5  and  C_17
REMARK    4  A    between atoms: C_12  and  N_32
REMARK                            x       y       z     vdW  Elec       q    Type
REMARK                         _______ _______ _______ _____ _____    ______ ____
ROOT
ATOM      1  C   UNL     1      46.963  32.323  45.341  0.00  0.00    +0.000 C 
ATOM      2  C   UNL     1      45.905  31.290  44.925  0.00  0.00    +0.000 C 
ATOM      3  C   UNL     1      46.201  30.097  45.848  0.00  0.00    +0.000 C 
ATOM      4  C   UNL     1      45.662  30.548  47.189  0.00  0.00    +0.000 C 
ATOM      5  C   UNL     1      46.418  31.719  47.697  0.00  0.00    +0.000 C 
ATOM      6  C   UNL     1      46.666  32.821  46.714  0.00  0.00    +0.000 C 
ATOM      7  H   UNL     1      47.911  31.738  45.269  0.00  0.00    +0.000 HD
ATOM      8  H   UNL     1      44.893  31.654  45.107  0.00  0.00    +0.000 HD
ATOM      9  H   UNL     1      46.112  30.968  43.890  0.00  0.00    +0.000 HD
ATOM     10  H   UNL     1      47.315  30.010  45.995  0.00  0.00    +0.000 HD
ATOM     11  H   UNL     1      45.729  29.175  45.507  0.00  0.00    +0.000 HD
ATOM     12  H   UNL     1      45.713  29.755  47.949  0.00  0.00    +0.000 HD
ATOM     13  H   UNL     1      44.582  30.773  47.022  0.00  0.00    +0.000 HD
ATOM     14  H   UNL     1      47.334  31.390  48.229  0.00  0.00    +0.000 HD
ATOM     15  H   UNL     1      45.782  32.166  48.517  0.00  0.00    +0.000 HD
ATOM     16  H   UNL     1      45.736  33.424  46.641  0.00  0.00    +0.000 HD
ENDROOT
BRANCH   6  17
ATOM     17  N   UNL     1      47.678  33.673  47.233  0.00  0.00    +0.000 N 
ATOM     18  C   UNL     1      47.553  34.970  47.526  0.00  0.00    +0.000 A 
ATOM     19  C   UNL     1      48.559  35.769  48.029  0.00  0.00    +0.000 A 
ATOM     20  C   UNL     1      49.801  35.171  48.248  0.00  0.00    +0.000 A 
ATOM     21  N   UNL     1      50.895  35.931  48.767  0.00  0.00    +0.000 N 
ATOM     22  N   UNL     1      49.920  33.866  47.951  0.00  0.00    +0.000 NA
ATOM     23  C   UNL     1      48.913  33.136  47.465  0.00  0.00    +0.000 A 
ATOM     24  O   UNL     1      49.177  31.916  47.233  0.00  0.00    +0.000 OA
ATOM     25  H   UNL     1      51.189  36.142  49.747  0.00  0.00    +0.000 HD
ATOM     26  H   UNL     1      51.443  36.302  47.943  0.00  0.00    +0.000 HD
ENDBRANCH   6  17
BRANCH   1  29
ATOM     27  C   UNL     1      47.931  34.512  42.451  0.00  0.00    +0.000 A 
ATOM     28  C   UNL     1      48.026  33.483  43.406  0.00  0.00    +0.000 A 
ATOM     29  C   UNL     1      46.959  33.353  44.317  0.00  0.00    +0.000 A 
ATOM     30  N   UNL     1      45.922  34.228  44.207  0.00  0.00    +0.000 NA
ATOM     31  C   UNL     1      45.868  35.192  43.287  0.00  0.00    +0.000 A 
ATOM     32  N   UNL     1      46.878  35.335  42.404  0.00  0.00    +0.000 NA
ATOM     33  H   UNL     1      48.863  32.801  43.470  0.00  0.00    +0.000 HD
BRANCH  27  34
ATOM     34  C   UNL     1      49.079  34.626  41.496  0.00  0.00    +0.000 C 
ATOM     35  F   UNL     1      49.169  33.514  40.681  0.00  0.00    +0.000 F 
ATOM     36  F   UNL     1      48.901  35.788  40.744  0.00  0.00    +0.000 F 
ATOM     37  F   UNL     1      50.261  34.815  42.202  0.00  0.00    +0.000 F 
ENDBRANCH  27  34
BRANCH  31  38
ATOM     38  C   UNL     1      44.705  36.124  43.214  0.00  0.00    +0.000 C 
ATOM     39  F   UNL     1      44.027  35.991  42.042  0.00  0.00    +0.000 F 
ATOM     40  F   UNL     1      45.158  37.451  43.388  0.00  0.00    +0.000 F 
ATOM     41  F   UNL     1      43.852  35.936  44.273  0.00  0.00    +0.000 F 
ENDBRANCH  31  38
ENDBRANCH   1  29
TORSDOF 4
