
 OpenBabel03252500573D

 39 41  0  0  0  0  0  0  0  0999 V2000
   43.6360   34.9860   40.1700 O   0  0  0  0  0  0  0  0  0  0  0  0
   43.1940   34.7360   41.6050 P   0  0  1  0  0  0  0  0  0  0  0  0
   43.2210   33.0590   41.8930 O   0  0  0  0  0  0  0  0  0  0  0  0
   43.1380   32.9120   42.8570 H   0  0  0  0  0  0  0  0  0  0  0  0
   44.3070   35.4510   42.6760 O   0  0  0  0  0  0  0  0  0  0  0  0
   46.3630   34.3820   43.0750 C   0  0  0  0  0  0  0  0  0  0  0  0
   45.1430   34.7940   43.5670 C   0  0  0  0  0  0  0  0  0  0  0  0
   44.8420   34.5230   44.9070 C   0  0  0  0  0  0  0  0  0  0  0  0
   45.7670   33.8740   45.6370 N   0  0  0  0  0  0  0  0  0  0  0  0
   46.9460   33.4810   45.1450 C   0  0  0  0  0  0  0  0  0  0  0  0
   47.2350   33.7390   43.8670 N   0  0  0  0  0  0  0  0  0  0  0  0
   43.8960   34.8510   45.2620 H   0  0  0  0  0  0  0  0  0  0  0  0
   47.7050   32.9560   45.7190 H   0  0  0  0  0  0  0  0  0  0  0  0
   46.7380   34.6360   41.6830 C   0  0  0  0  0  0  0  0  0  0  0  0
   46.0380   35.3690   41.2260 H   0  0  0  0  0  0  0  0  0  0  0  0
   46.7030   33.7100   41.0740 H   0  0  0  0  0  0  0  0  0  0  0  0
   48.1330   35.1970   41.6490 C   0  0  0  0  0  0  0  0  0  0  0  0
   48.8550   34.3980   41.8120 H   0  0  0  0  0  0  0  0  0  0  0  0
   48.2020   35.9890   42.4230 H   0  0  0  0  0  0  0  0  0  0  0  0
   48.3000   35.6210   40.6290 H   0  0  0  0  0  0  0  0  0  0  0  0
   41.6080   35.2690   41.8510 O   0  0  0  0  0  0  0  0  0  0  0  0
   40.5830   34.5940   41.2040 C   0  0  0  0  0  0  0  0  0  0  0  0
   39.8480   35.2760   40.2510 C   0  0  0  0  0  0  0  0  0  0  0  0
   38.8050   34.6760   39.5560 C   0  0  0  0  0  0  0  0  0  0  0  0
   38.5140   33.3680   39.8360 N   0  0  0  0  0  0  0  0  0  0  0  0
   39.2300   32.7220   40.7550 C   0  0  0  0  0  0  0  0  0  0  0  0
   40.2270   33.3040   41.4170 N   0  0  0  0  0  0  0  0  0  0  0  0
   40.0910   36.2950   40.0470 H   0  0  0  0  0  0  0  0  0  0  0  0
   38.2470   35.2500   38.8100 H   0  0  0  0  0  0  0  0  0  0  0  0
   38.8720   31.3640   40.9950 N   0  0  0  0  0  0  0  0  0  0  0  0
   37.6300   31.0520   41.4470 C   0  0  0  0  0  3  0  0  0  0  0  0
   37.3870   29.7080   41.6470 C   0  0  0  0  0  3  0  0  0  0  0  0
   38.2950   28.6910   41.4260 C   0  0  0  0  0  0  0  0  0  0  0  0
   37.9790   27.3240   41.6530 N   0  0  0  0  0  0  0  0  0  0  0  0
   39.4990   29.0970   40.9790 N   0  0  0  0  0  0  0  0  0  0  0  0
   39.7820   30.4070   40.7680 C   0  0  0  0  0  0  0  0  0  0  0  0
   40.9270   30.7080   40.3500 O   0  0  0  0  0  0  0  0  0  0  0  0
   37.0400   27.1110   42.0440 H   0  0  0  0  0  0  0  0  0  0  0  0
   38.7170   26.6230   41.4100 H   0  0  0  0  0  0  0  0  0  0  0  0
  2  1  2  6  0  0  0
  2 21  1  0  0  0  0
  2  3  1  0  0  0  0
  2  5  1  0  0  0  0
  3  4  1  0  0  0  0
  5  7  1  0  0  0  0
  6  7  2  0  0  0  0
  6 11  1  0  0  0  0
  7  8  1  0  0  0  0
  8 12  1  0  0  0  0
  8  9  2  0  0  0  0
 10  9  1  0  0  0  0
 10 13  1  0  0  0  0
 11 10  2  0  0  0  0
 14  6  1  0  0  0  0
 15 14  1  0  0  0  0
 16 14  1  0  0  0  0
 17 14  1  0  0  0  0
 17 18  1  0  0  0  0
 17 19  1  0  0  0  0
 20 17  1  0  0  0  0
 22 27  1  0  0  0  0
 22 21  1  0  0  0  0
 23 22  2  0  0  0  0
 24 25  2  0  0  0  0
 24 23  1  0  0  0  0
 25 26  1  0  0  0  0
 26 30  1  0  0  0  0
 26 27  2  0  0  0  0
 28 23  1  0  0  0  0
 29 24  1  0  0  0  0
 30 31  1  0  0  0  0
 31 32  2  0  0  0  0
 33 32  1  0  0  0  0
 33 34  1  0  0  0  0
 34 38  1  0  0  0  0
 35 33  2  0  0  0  0
 36 35  1  0  0  0  0
 36 30  1  0  0  0  0
 37 36  2  0  0  0  0
 39 34  1  0  0  0  0
M  END
>  <minimizedAffinity>
-6.12017918

>  <minimizedRMSD>
0.71883297

$$$$
