
 OpenBabel03242511083D

 44 48  0  0  1  0  0  0  0  0999 V2000
   46.2510   32.1450   43.9850 C   0  0  0  0  0  0  0  0  0  0  0  0
   46.4570   31.4160   45.1470 C   0  0  0  0  0  0  0  0  0  0  0  0
   46.1430   31.8970   46.4180 C   0  0  0  0  0  0  0  0  0  0  0  0
   45.5980   33.1550   46.5540 C   0  0  0  0  0  0  0  0  0  0  0  0
   45.3800   33.8970   45.4430 C   0  0  0  0  0  0  0  0  0  0  0  0
   44.8310   35.1590   45.5440 C   0  0  0  0  0  0  0  0  0  0  0  0
   44.5810   35.9590   44.4610 C   0  0  0  0  0  0  0  0  0  0  0  0
   44.9110   35.4400   43.2140 C   0  0  0  0  0  0  0  0  0  0  0  0
   45.4630   34.1700   43.1140 C   0  0  0  0  0  0  0  0  0  0  0  0
   45.7070   33.3830   44.1990 C   0  0  0  0  0  0  0  0  0  0  0  0
   46.8750   30.4190   45.1590 H   0  0  0  0  0  0  0  0  0  0  0  0
   46.3100   31.3150   47.3120 H   0  0  0  0  0  0  0  0  0  0  0  0
   45.3520   33.5300   47.5400 H   0  0  0  0  0  0  0  0  0  0  0  0
   44.5970   35.5070   46.5380 H   0  0  0  0  0  0  0  0  0  0  0  0
   44.1460   36.9360   44.6630 H   0  0  0  0  0  0  0  0  0  0  0  0
   44.6750   36.1480   42.4190 H   0  0  0  0  0  0  0  0  0  0  0  0
   45.6890   33.9130   41.7420 N   0  0  0  0  0  0  0  0  0  0  0  0
   45.0140   33.3780   40.7110 C   0  0  0  0  0  3  0  0  0  0  0  0
   45.5230   33.3100   39.4380 C   0  0  0  0  0  3  0  0  0  0  0  0
   46.7770   33.7940   39.1390 C   0  0  0  0  0  0  0  0  0  0  0  0
   47.1700   33.6560   37.7840 N   0  0  0  0  0  0  0  0  0  0  0  0
   47.5020   34.3430   40.1380 N   0  0  0  0  0  0  0  0  0  0  0  0
   46.9310   34.3760   41.3780 C   0  0  0  0  0  0  0  0  0  0  0  0
   47.7790   34.9320   42.1640 O   0  0  0  0  0  0  0  0  0  0  0  0
   46.4920   34.0270   37.0770 H   0  0  0  0  0  0  0  0  0  0  0  0
   48.1000   33.1890   37.7890 H   0  0  0  0  0  0  0  0  0  0  0  0
   46.6020   31.5670   42.7590 N   0  0  0  0  0  0  0  0  0  0  0  0
   45.7920   31.9850   42.2710 H   0  0  0  0  0  0  0  0  0  0  0  0
   49.1090   31.2170   42.6440 C   0  0  1  0  0  0  0  0  0  0  0  0
   48.5260   30.7840   41.3140 C   0  0  0  0  0  0  0  0  0  0  0  0
   47.7450   30.7090   42.6200 C   0  0  2  0  0  0  0  0  0  0  0  0
   49.3950   32.2970   42.5870 H   0  0  0  0  0  0  0  0  0  0  0  0
   48.9160   29.7920   40.9660 H   0  0  0  0  0  0  0  0  0  0  0  0
   48.1650   31.5030   40.5820 H   0  0  0  0  0  0  0  0  0  0  0  0
   47.5920   29.7150   43.1040 H   0  0  0  0  0  0  0  0  0  0  0  0
   50.9590   28.8810   44.8400 C   0  0  0  0  0  0  0  0  0  0  0  0
   52.2860   28.9840   44.3180 C   0  0  0  0  0  0  0  0  0  0  0  0
   52.5040   29.8490   43.2150 C   0  0  0  0  0  0  0  0  0  0  0  0
   51.4700   30.5270   42.7090 N   0  0  0  0  0  0  0  0  0  0  0  0
   50.2220   30.4080   43.2280 C   0  0  0  0  0  0  0  0  0  0  0  0
   49.9620   29.5830   44.2950 N   0  0  0  0  0  0  0  0  0  0  0  0
   50.7990   28.2190   45.6810 H   0  0  0  0  0  0  0  0  0  0  0  0
   53.0500   28.3970   44.7930 H   0  0  0  0  0  0  0  0  0  0  0  0
   53.5050   29.9130   42.8360 H   0  0  0  0  0  0  0  0  0  0  0  0
  1 10  2  0  0  0  0
  1  2  1  0  0  0  0
  2 11  1  0  0  0  0
  2  3  2  0  0  0  0
  3  4  1  0  0  0  0
  3 12  1  0  0  0  0
  4 13  1  0  0  0  0
  5  6  1  0  0  0  0
  5  4  2  0  0  0  0
  6 14  1  0  0  0  0
  7 15  1  0  0  0  0
  7  6  2  0  0  0  0
  8  7  1  0  0  0  0
  9  8  2  0  0  0  0
  9 10  1  0  0  0  0
 10  5  1  0  0  0  0
 16  8  1  0  0  0  0
 17  9  1  0  0  0  0
 18 17  1  0  0  0  0
 19 18  2  0  0  0  0
 20 19  1  0  0  0  0
 20 22  2  0  0  0  0
 21 26  1  0  0  0  0
 21 20  1  0  0  0  0
 22 23  1  0  0  0  0
 23 17  1  0  0  0  0
 23 24  2  0  0  0  0
 25 21  1  0  0  0  0
 27  1  1  0  0  0  0
 28 27  1  0  0  0  0
 29 32  1  1  0  0  0
 29 40  1  0  0  0  0
 30 31  1  0  0  0  0
 30 29  1  0  0  0  0
 31 29  1  0  0  0  0
 31 27  1  0  0  0  0
 31 35  1  1  0  0  0
 33 30  1  0  0  0  0
 34 30  1  0  0  0  0
 36 42  1  0  0  0  0
 37 43  1  0  0  0  0
 37 36  1  0  0  0  0
 38 37  2  0  0  0  0
 39 38  1  0  0  0  0
 39 40  2  0  0  0  0
 40 41  1  0  0  0  0
 41 36  2  0  0  0  0
 44 38  1  0  0  0  0
M  END
>  <minimizedAffinity>
-5.28934145

>  <minimizedRMSD>
2.18716717

$$$$
