REMARK  Name = 
REMARK  3 active torsions:
REMARK  status: ('A' for Active; 'I' for Inactive)
REMARK    1  A    between atoms: C_1  and  C_18
REMARK    2  A    between atoms: C_3  and  C_4
REMARK    3  A    between atoms: C_16  and  N_33
REMARK                            x       y       z     vdW  Elec       q    Type
REMARK                         _______ _______ _______ _____ _____    ______ ____
ROOT
ATOM      1  C   UNL     1      46.394  32.669  45.862  0.00  0.00    +0.000 C 
ATOM      2  C   UNL     1      46.983  32.834  47.200  0.00  0.00    +0.000 C 
ATOM      3  C   UNL     1      45.559  32.203  46.947  0.00  0.00    +0.000 C 
ATOM      4  H   UNL     1      47.160  32.042  45.279  0.00  0.00    +0.000 HD
ATOM      5  H   UNL     1      47.638  32.090  47.684  0.00  0.00    +0.000 HD
ATOM      6  H   UNL     1      46.984  33.796  47.732  0.00  0.00    +0.000 HD
ATOM      7  H   UNL     1      44.861  32.881  47.543  0.00  0.00    +0.000 HD
ENDROOT
BRANCH   3   8
ATOM      8  C   UNL     1      45.316  30.802  47.303  0.00  0.00    +0.000 A 
ATOM      9  C   UNL     1      45.174  30.270  48.544  0.00  0.00    +0.000 A 
ATOM     10  C   UNL     1      45.051  28.925  48.837  0.00  0.00    +0.000 A 
ATOM     11  C   UNL     1      45.078  28.040  47.748  0.00  0.00    +0.000 A 
ATOM     12  C   UNL     1      45.221  28.558  46.461  0.00  0.00    +0.000 A 
ATOM     13  C   UNL     1      45.181  27.658  45.414  0.00  0.00    +0.000 A 
ATOM     14  C   UNL     1      45.249  28.131  44.113  0.00  0.00    +0.000 A 
ATOM     15  C   UNL     1      45.352  29.483  43.862  0.00  0.00    +0.000 A 
ATOM     16  C   UNL     1      45.389  30.334  44.941  0.00  0.00    +0.000 A 
ATOM     17  C   UNL     1      45.333  29.913  46.257  0.00  0.00    +0.000 A 
ATOM     18  H   UNL     1      45.160  30.996  49.356  0.00  0.00    +0.000 HD
ATOM     19  H   UNL     1      44.939  28.566  49.852  0.00  0.00    +0.000 HD
ATOM     20  H   UNL     1      44.988  26.976  47.929  0.00  0.00    +0.000 HD
ATOM     21  H   UNL     1      45.098  26.601  45.637  0.00  0.00    +0.000 HD
ATOM     22  H   UNL     1      45.212  27.328  43.360  0.00  0.00    +0.000 HD
ATOM     23  H   UNL     1      45.388  29.658  42.800  0.00  0.00    +0.000 HD
ATOM     24  H   UNL     1      45.381  31.289  44.501  0.00  0.00    +0.000 HD
ENDBRANCH   3   8
BRANCH   1  29
ATOM     25  C   UNL     1      44.594  35.728  44.844  0.00  0.00    +0.000 A 
ATOM     26  C   UNL     1      45.125  35.970  43.532  0.00  0.00    +0.000 A 
ATOM     27  C   UNL     1      46.114  35.063  43.034  0.00  0.00    +0.000 A 
ATOM     28  N   UNL     1      46.510  34.024  43.805  0.00  0.00    +0.000 NA
ATOM     29  C   UNL     1      45.956  33.850  45.058  0.00  0.00    +0.000 A 
ATOM     30  N   UNL     1      45.036  34.673  45.554  0.00  0.00    +0.000 NA
ATOM     31  H   UNL     1      43.855  36.384  45.245  0.00  0.00    +0.000 HD
ATOM     32  H   UNL     1      44.774  36.813  42.960  0.00  0.00    +0.000 HD
BRANCH  27  33
ATOM     33  N   UNL     1      46.649  35.290  41.736  0.00  0.00    +0.000 N 
ATOM     34  C   UNL     1      47.651  36.125  41.500  0.00  0.00    +0.000 A 
ATOM     35  C   UNL     1      48.094  36.272  40.200  0.00  0.00    +0.000 A 
ATOM     36  C   UNL     1      47.509  35.562  39.160  0.00  0.00    +0.000 A 
ATOM     37  N   UNL     1      47.873  35.626  37.792  0.00  0.00    +0.000 N 
ATOM     38  N   UNL     1      46.494  34.725  39.450  0.00  0.00    +0.000 NA
ATOM     39  C   UNL     1      46.072  34.592  40.721  0.00  0.00    +0.000 A 
ATOM     40  O   UNL     1      45.121  33.800  40.953  0.00  0.00    +0.000 OA
ATOM     41  H   UNL     1      48.538  35.114  37.158  0.00  0.00    +0.000 HD
ATOM     42  H   UNL     1      47.277  36.408  37.404  0.00  0.00    +0.000 HD
ENDBRANCH  27  33
ENDBRANCH   1  29
TORSDOF 3
