
 OpenBabel03252507083D

 25 26  0  0  0  0  0  0  0  0999 V2000
   44.5200   36.1150   44.5220 C   0  0  0  0  0  0  0  0  0  0  0  0
   45.1400   35.9890   43.2620 C   0  0  0  0  0  0  0  0  0  0  0  0
   45.9860   34.9130   43.0640 C   0  0  0  0  0  0  0  0  0  0  0  0
   46.1810   34.0320   44.0840 N   0  0  0  0  0  0  0  0  0  0  0  0
   45.5780   34.1790   45.2700 C   0  0  0  0  0  0  0  0  0  0  0  0
   44.7430   35.2200   45.5000 N   0  0  0  0  0  0  0  0  0  0  0  0
   43.8480   36.9090   44.7810 H   0  0  0  0  0  0  0  0  0  0  0  0
   44.8980   36.7610   42.5360 H   0  0  0  0  0  0  0  0  0  0  0  0
   45.8970   33.1640   46.2170 N   0  0  0  0  0  0  0  0  0  0  0  0
   45.1600   33.1530   47.3430 C   0  0  0  0  0  3  0  0  0  0  0  0
   45.4700   32.1710   48.2600 C   0  0  0  0  0  3  0  0  0  0  0  0
   46.4930   31.2980   47.9500 C   0  0  0  0  0  0  0  0  0  0  0  0
   46.8990   30.2480   48.8190 N   0  0  0  0  0  0  0  0  0  0  0  0
   47.1990   31.3670   46.7900 N   0  0  0  0  0  0  0  0  0  0  0  0
   46.8980   32.3320   45.8830 C   0  0  0  0  0  0  0  0  0  0  0  0
   47.5060   32.4580   44.7900 O   0  0  0  0  0  0  0  0  0  0  0  0
   47.7800   30.6000   49.2550 H   0  0  0  0  0  0  0  0  0  0  0  0
   46.7700   29.3020   49.2460 H   0  0  0  0  0  0  0  0  0  0  0  0
   46.5830   34.8150   41.8100 O   0  0  0  0  0  0  0  0  0  0  0  0
   48.4990   33.1040   41.1610 O   0  0  0  0  0  0  0  0  0  0  0  0
   48.2670   34.5080   41.7140 P   0  0  0  0  0  0  0  0  0  0  0  0
   48.9650   35.6810   40.7440 O   0  0  0  0  0  0  0  0  0  0  0  0
   49.2730   36.4340   41.2900 H   0  0  0  0  0  0  0  0  0  0  0  0
   48.8800   34.5400   43.2920 O   0  0  0  0  0  0  0  0  0  0  0  0
   48.6540   33.6420   43.6800 H   0  0  0  0  0  0  0  0  0  0  0  0
  1  7  1  0  0  0  0
  1  6  1  0  0  0  0
  2  1  2  0  0  0  0
  3  2  1  0  0  0  0
  3  4  2  0  0  0  0
  4  5  1  0  0  0  0
  5  6  2  0  0  0  0
  5  9  1  0  0  0  0
  8  2  1  0  0  0  0
  9 10  1  0  0  0  0
 10 11  2  0  0  0  0
 12 11  1  0  0  0  0
 12 13  1  0  0  0  0
 13 18  1  0  0  0  0
 13 17  1  0  0  0  0
 14 12  2  0  0  0  0
 15  9  1  0  0  0  0
 15 14  1  0  0  0  0
 16 15  2  0  0  0  0
 19  3  1  0  0  0  0
 20 21  2  0  0  0  0
 21 19  1  0  0  0  0
 21 24  1  0  0  0  0
 22 23  1  0  0  0  0
 22 21  1  0  0  0  0
 24 25  1  0  0  0  0
M  END
>  <minimizedAffinity>
-6.4417181

>  <minimizedRMSD>
0.370384693

$$$$
