
 OpenBabel03242510123D

 43 46  0  0  1  0  0  0  0  0999 V2000
   47.0100   32.9020   38.8390 N   0  0  0  0  0  0  0  0  0  0  0  0
   46.1470   33.1330   37.7000 C   0  0  0  0  0  0  0  0  0  0  0  0
   45.4280   31.8670   37.2840 C   0  0  0  0  0  0  0  0  0  0  0  0
   46.3520   30.8430   36.8260 N   0  0  0  0  0  0  0  0  0  0  0  0
   47.6880   31.1970   37.3240 C   0  0  0  0  0  0  0  0  0  0  0  0
   47.5710   31.5580   38.7860 C   0  0  1  0  0  0  0  0  0  0  0  0
   45.3330   33.8080   38.0840 H   0  0  0  0  0  0  0  0  0  0  0  0
   46.6260   33.6050   36.8420 H   0  0  0  0  0  0  0  0  0  0  0  0
   44.9150   31.4350   38.1910 H   0  0  0  0  0  0  0  0  0  0  0  0
   44.7110   32.1300   36.5070 H   0  0  0  0  0  0  0  0  0  0  0  0
   46.4320   30.8670   35.7790 H   0  0  0  0  0  0  0  0  0  0  0  0
   48.4330   30.4230   37.1460 H   0  0  0  0  0  0  0  0  0  0  0  0
   47.9780   32.0800   36.7140 H   0  0  0  0  0  0  0  0  0  0  0  0
   46.7500   30.8990   39.1850 H   0  0  0  0  0  0  0  0  0  0  0  0
   45.1350   32.7350   41.3340 Br  0  0  0  0  0  0  0  0  0  0  0  0
   46.6330   33.8730   41.0760 C   0  0  0  0  0  0  0  0  0  0  0  0
   47.0120   34.7670   42.0570 C   0  0  0  0  0  0  0  0  0  0  0  0
   48.1120   35.6130   41.8880 C   0  0  0  0  0  0  0  0  0  0  0  0
   48.8150   35.5370   40.7100 C   0  0  0  0  0  0  0  0  0  0  0  0
   48.4050   34.6290   39.7530 C   0  0  0  0  0  0  0  0  0  0  0  0
   47.3300   33.7940   39.9050 C   0  0  0  0  0  0  0  0  0  0  0  0
   48.3690   36.2980   42.6870 H   0  0  0  0  0  0  0  0  0  0  0  0
   49.6630   36.1870   40.5750 H   0  0  0  0  0  0  0  0  0  0  0  0
   49.0170   34.6380   38.8580 H   0  0  0  0  0  0  0  0  0  0  0  0
   45.7610   33.9510   45.3960 C   0  0  0  0  0  0  0  0  0  0  0  0
   44.7540   34.9110   45.6260 C   0  0  0  0  0  0  0  0  0  0  0  0
   44.5280   35.8300   44.6050 C   0  0  0  0  0  0  0  0  0  0  0  0
   45.2630   35.7630   43.4760 N   0  0  0  0  0  0  0  0  0  0  0  0
   46.2370   34.8130   43.2870 C   0  0  0  0  0  0  0  0  0  0  0  0
   46.4590   33.9210   44.2720 N   0  0  0  0  0  0  0  0  0  0  0  0
   45.9400   33.2240   46.2020 H   0  0  0  0  0  0  0  0  0  0  0  0
   44.1760   34.9590   46.5200 H   0  0  0  0  0  0  0  0  0  0  0  0
   43.7700   36.6120   44.6870 H   0  0  0  0  0  0  0  0  0  0  0  0
   48.7940   31.4170   39.5290 N   0  0  0  0  0  0  0  0  0  0  0  0
   48.6720   30.9560   40.7880 C   0  0  0  0  0  3  0  0  0  0  0  0
   49.8020   30.7990   41.5470 C   0  0  0  0  0  3  0  0  0  0  0  0
   50.9940   31.1300   40.9520 C   0  0  0  0  0  0  0  0  0  0  0  0
   52.2370   31.0130   41.6330 N   0  0  0  0  0  0  0  0  0  0  0  0
   51.0630   31.5880   39.6900 N   0  0  0  0  0  0  0  0  0  0  0  0
   49.9350   31.7430   38.9360 C   0  0  0  0  0  0  0  0  0  0  0  0
   50.0680   32.1690   37.7770 O   0  0  0  0  0  0  0  0  0  0  0  0
   52.6020   30.1220   41.2630 H   0  0  0  0  0  0  0  0  0  0  0  0
   52.9320   31.3920   42.3080 H   0  0  0  0  0  0  0  0  0  0  0  0
  1 21  1  0  0  0  0
  2  7  1  0  0  0  0
  2  1  1  0  0  0  0
  3  2  1  0  0  0  0
  3  9  1  0  0  0  0
  4  3  1  0  0  0  0
  4  5  1  0  0  0  0
  5  6  1  0  0  0  0
  6  1  1  0  0  0  0
  6 14  1  1  0  0  0
  6 34  1  0  0  0  0
  8  2  1  0  0  0  0
 10  3  1  0  0  0  0
 11  4  1  0  0  0  0
 12  5  1  0  0  0  0
 13  5  1  0  0  0  0
 16 15  1  0  0  0  0
 16 17  1  0  0  0  0
 17 29  1  0  0  0  0
 18 17  2  0  0  0  0
 18 22  1  0  0  0  0
 19 18  1  0  0  0  0
 20 21  1  0  0  0  0
 20 19  2  0  0  0  0
 21 16  2  0  0  0  0
 23 19  1  0  0  0  0
 24 20  1  0  0  0  0
 25 26  1  0  0  0  0
 25 31  1  0  0  0  0
 26 32  1  0  0  0  0
 27 33  1  0  0  0  0
 27 26  2  0  0  0  0
 28 27  1  0  0  0  0
 29 28  2  0  0  0  0
 29 30  1  0  0  0  0
 30 25  2  0  0  0  0
 34 35  1  0  0  0  0
 35 36  2  0  0  0  0
 37 36  1  0  0  0  0
 37 38  1  0  0  0  0
 38 43  1  0  0  0  0
 39 37  2  0  0  0  0
 40 34  1  0  0  0  0
 40 39  1  0  0  0  0
 41 40  2  0  0  0  0
 42 38  1  0  0  0  0
M  END
>  <minimizedAffinity>
-6.2015295

>  <minimizedRMSD>
0.571914315

$$$$
