
 OpenBabel03252508263D

 42 46  0  0  1  0  0  0  0  0999 V2000
   46.5700   32.4100   45.6960 C   0  0  1  0  0  0  0  0  0  0  0  0
   46.9790   32.7260   47.0730 C   0  0  0  0  0  0  0  0  0  0  0  0
   45.6070   32.0370   46.7080 C   0  0  2  0  0  0  0  0  0  0  0  0
   47.4120   31.7450   45.2840 H   0  0  0  0  0  0  0  0  0  0  0  0
   47.5740   32.0520   47.7120 H   0  0  0  0  0  0  0  0  0  0  0  0
   46.9000   33.7370   47.4970 H   0  0  0  0  0  0  0  0  0  0  0  0
   44.8300   32.7550   47.1350 H   0  0  0  0  0  0  0  0  0  0  0  0
   45.3350   30.6740   47.1750 C   0  0  0  0  0  0  0  0  0  0  0  0
   45.2210   30.2400   48.4560 C   0  0  0  0  0  0  0  0  0  0  0  0
   45.0690   28.9240   48.8520 C   0  0  0  0  0  0  0  0  0  0  0  0
   45.0320   27.9610   47.8320 C   0  0  0  0  0  0  0  0  0  0  0  0
   45.1460   28.3790   46.5060 C   0  0  0  0  0  0  0  0  0  0  0  0
   45.0440   27.4060   45.5310 C   0  0  0  0  0  0  0  0  0  0  0  0
   45.0810   27.7790   44.1970 C   0  0  0  0  0  0  0  0  0  0  0  0
   45.2150   29.1050   43.8420 C   0  0  0  0  0  0  0  0  0  0  0  0
   45.3140   30.0320   44.8530 C   0  0  0  0  0  0  0  0  0  0  0  0
   45.2910   29.7110   46.1980 C   0  0  0  0  0  0  0  0  0  0  0  0
   45.2560   31.0240   49.2120 H   0  0  0  0  0  0  0  0  0  0  0  0
   44.9810   28.6450   49.8940 H   0  0  0  0  0  0  0  0  0  0  0  0
   44.9180   26.9170   48.0940 H   0  0  0  0  0  0  0  0  0  0  0  0
   44.9380   26.3710   45.8340 H   0  0  0  0  0  0  0  0  0  0  0  0
   44.9950   26.9250   43.5070 H   0  0  0  0  0  0  0  0  0  0  0  0
   45.2200   29.2010   42.7700 H   0  0  0  0  0  0  0  0  0  0  0  0
   45.3190   30.9520   44.3440 H   0  0  0  0  0  0  0  0  0  0  0  0
   45.0140   35.4150   44.2190 C   0  0  0  0  0  0  0  0  0  0  0  0
   45.5670   35.4230   42.8940 C   0  0  0  0  0  0  0  0  0  0  0  0
   46.4850   34.3810   42.5470 C   0  0  0  0  0  0  0  0  0  0  0  0
   46.7980   33.4390   43.4660 N   0  0  0  0  0  0  0  0  0  0  0  0
   46.2270   33.4910   44.7230 C   0  0  0  0  0  0  0  0  0  0  0  0
   45.3710   34.4440   45.0810 N   0  0  0  0  0  0  0  0  0  0  0  0
   44.3250   36.1760   44.5100 H   0  0  0  0  0  0  0  0  0  0  0  0
   45.2830   36.1980   42.2010 H   0  0  0  0  0  0  0  0  0  0  0  0
   47.0410   34.3760   41.2380 N   0  0  0  0  0  0  0  0  0  0  0  0
   46.5330   33.6730   40.2360 C   0  0  0  0  0  3  0  0  0  0  0  0
   47.1520   33.7400   39.0040 C   0  0  0  0  0  3  0  0  0  0  0  0
   48.2810   34.5230   38.8110 C   0  0  0  0  0  0  0  0  0  0  0  0
   49.0030   34.6730   37.6000 N   0  0  0  0  0  0  0  0  0  0  0  0
   48.7610   35.2200   39.8600 N   0  0  0  0  0  0  0  0  0  0  0  0
   48.1490   35.1460   41.0560 C   0  0  0  0  0  0  0  0  0  0  0  0
   48.6260   35.8100   42.0120 O   0  0  0  0  0  0  0  0  0  0  0  0
   48.9710   35.3230   36.7730 H   0  0  0  0  0  0  0  0  0  0  0  0
   49.7200   33.8990   37.6320 H   0  0  0  0  0  0  0  0  0  0  0  0
  1  4  1  6  0  0  0
  1  3  1  0  0  0  0
  1  2  1  0  0  0  0
  2  6  1  0  0  0  0
  2  5  1  0  0  0  0
  3  2  1  0  0  0  0
  3  7  1  1  0  0  0
  3  8  1  0  0  0  0
  8  9  1  0  0  0  0
  9 10  2  0  0  0  0
  9 18  1  0  0  0  0
 10 19  1  0  0  0  0
 11 20  1  0  0  0  0
 11 10  1  0  0  0  0
 12 11  2  0  0  0  0
 13 21  1  0  0  0  0
 13 12  1  0  0  0  0
 14 13  2  0  0  0  0
 15 14  1  0  0  0  0
 15 16  2  0  0  0  0
 16 17  1  0  0  0  0
 17 12  1  0  0  0  0
 17  8  2  0  0  0  0
 22 14  1  0  0  0  0
 23 15  1  0  0  0  0
 24 16  1  0  0  0  0
 25 31  1  0  0  0  0
 25 30  1  0  0  0  0
 26 25  2  0  0  0  0
 27 26  1  0  0  0  0
 27 28  2  0  0  0  0
 28 29  1  0  0  0  0
 29 30  2  0  0  0  0
 29  1  1  0  0  0  0
 32 26  1  0  0  0  0
 33 27  1  0  0  0  0
 34 33  1  0  0  0  0
 35 34  2  0  0  0  0
 36 35  1  0  0  0  0
 36 38  2  0  0  0  0
 37 42  1  0  0  0  0
 37 36  1  0  0  0  0
 38 39  1  0  0  0  0
 39 33  1  0  0  0  0
 39 40  2  0  0  0  0
 41 37  1  0  0  0  0
M  END
>  <minimizedAffinity>
-6.04419565

>  <minimizedRMSD>
0.982806087

$$$$
