
 OpenBabel03252506283D

 48 52  0  0  0  0  0  0  0  0999 V2000
   47.1610   31.9130   44.5130 C   0  0  0  0  0  0  0  0  0  0  0  0
   47.9550   30.8490   44.0120 C   0  0  0  0  0  0  0  0  0  0  0  0
   48.1990   29.9870   45.0210 C   0  0  0  0  0  0  0  0  0  0  0  0
   47.5890   30.4860   46.1010 N   0  0  0  0  0  0  0  0  0  0  0  0
   46.9690   31.6350   45.8040 N   0  0  0  0  0  0  0  0  0  0  0  0
   48.2880   30.7830   42.9740 H   0  0  0  0  0  0  0  0  0  0  0  0
   48.7750   29.0720   44.9720 H   0  0  0  0  0  0  0  0  0  0  0  0
   45.6360   35.0930   43.5920 C   0  0  0  0  0  0  0  0  0  0  0  0
   45.8160   35.1680   42.2220 C   0  0  0  0  0  0  0  0  0  0  0  0
   46.4750   34.1040   41.6130 C   0  0  0  0  0  0  0  0  0  0  0  0
   46.8930   33.0710   42.3910 N   0  0  0  0  0  0  0  0  0  0  0  0
   46.7060   33.0250   43.7050 C   0  0  0  0  0  0  0  0  0  0  0  0
   46.0690   34.0500   44.3050 N   0  0  0  0  0  0  0  0  0  0  0  0
   45.1170   35.9510   44.0050 H   0  0  0  0  0  0  0  0  0  0  0  0
   45.5260   35.9330   41.5330 H   0  0  0  0  0  0  0  0  0  0  0  0
   46.7910   33.9300   40.2230 N   0  0  0  0  0  0  0  0  0  0  0  0
   46.0570   33.2170   39.3500 C   0  0  0  0  0  3  0  0  0  0  0  0
   46.4710   33.1240   38.0220 C   0  0  0  0  0  3  0  0  0  0  0  0
   47.6330   33.7800   37.6710 C   0  0  0  0  0  0  0  0  0  0  0  0
   48.0460   33.6760   36.3090 N   0  0  0  0  0  0  0  0  0  0  0  0
   48.3360   34.4820   38.5780 N   0  0  0  0  0  0  0  0  0  0  0  0
   47.9230   34.5690   39.8780 C   0  0  0  0  0  0  0  0  0  0  0  0
   48.6410   35.2460   40.6580 O   0  0  0  0  0  0  0  0  0  0  0  0
   48.7590   33.1860   35.7040 H   0  0  0  0  0  0  0  0  0  0  0  0
   47.4020   34.3130   35.7550 H   0  0  0  0  0  0  0  0  0  0  0  0
   47.5890   29.8810   47.4240 C   0  0  0  0  0  0  0  0  0  0  0  0
   47.9750   28.8640   47.3830 H   0  0  0  0  0  0  0  0  0  0  0  0
   48.2330   30.4750   48.1220 H   0  0  0  0  0  0  0  0  0  0  0  0
   46.2100   29.8840   47.9950 C   0  0  0  0  0  0  0  0  0  0  0  0
   45.8030   30.9110   47.8820 H   0  0  0  0  0  0  0  0  0  0  0  0
   46.3020   29.7260   49.1080 H   0  0  0  0  0  0  0  0  0  0  0  0
   45.1780   27.5430   47.8240 C   0  0  0  0  0  0  0  0  0  0  0  0
   45.2890   28.8820   47.4970 C   0  0  0  0  0  0  0  0  0  0  0  0
   44.3820   29.3540   46.5440 C   0  0  0  0  0  0  0  0  0  0  0  0
   43.4450   28.5400   45.9740 C   0  0  0  0  0  0  0  0  0  0  0  0
   42.4670   28.7070   45.0550 N   0  0  0  0  0  0  0  0  0  0  0  0
   41.8080   27.5680   44.8340 C   0  0  0  0  0  0  0  0  0  0  0  0
   42.3510   26.5760   45.6280 C   0  0  0  0  0  0  0  0  0  0  0  0
   43.3490   27.2110   46.3100 C   0  0  0  0  0  0  0  0  0  0  0  0
   44.2350   26.7320   47.2460 C   0  0  0  0  0  0  0  0  0  0  0  0
   45.9000   27.2190   48.5650 H   0  0  0  0  0  0  0  0  0  0  0  0
   44.3590   30.3830   46.1970 H   0  0  0  0  0  0  0  0  0  0  0  0
   42.2690   29.6230   44.5890 H   0  0  0  0  0  0  0  0  0  0  0  0
   40.9820   27.4870   44.1280 H   0  0  0  0  0  0  0  0  0  0  0  0
   41.9920   25.5550   45.6350 H   0  0  0  0  0  0  0  0  0  0  0  0
   44.1820   25.3280   47.6440 C   0  0  0  0  0  0  0  0  0  0  0  0
   44.9900   24.8570   48.4920 O   0  0  0  0  0  0  0  0  0  0  0  0
   43.4510   24.6390   47.2300 H   0  0  0  0  0  0  0  0  0  0  0  0
  1  5  2  0  0  0  0
  2  1  1  0  0  0  0
  2  3  2  0  0  0  0
  3  4  1  0  0  0  0
  4 26  1  0  0  0  0
  5  4  1  0  0  0  0
  6  2  1  0  0  0  0
  7  3  1  0  0  0  0
  8 14  1  0  0  0  0
  8 13  1  0  0  0  0
  9  8  2  0  0  0  0
 10  9  1  0  0  0  0
 10 11  2  0  0  0  0
 11 12  1  0  0  0  0
 12 13  2  0  0  0  0
 12  1  1  0  0  0  0
 15  9  1  0  0  0  0
 16 10  1  0  0  0  0
 17 16  1  0  0  0  0
 18 17  2  0  0  0  0
 19 18  1  0  0  0  0
 19 21  2  0  0  0  0
 20 19  1  0  0  0  0
 21 22  1  0  0  0  0
 22 16  1  0  0  0  0
 22 23  2  0  0  0  0
 24 20  1  0  0  0  0
 25 20  1  0  0  0  0
 26 29  1  0  0  0  0
 26 28  1  0  0  0  0
 27 26  1  0  0  0  0
 29 31  1  0  0  0  0
 30 29  1  0  0  0  0
 32 41  1  0  0  0  0
 33 32  1  0  0  0  0
 33 29  1  0  0  0  0
 34 33  2  0  0  0  0
 35 39  2  0  0  0  0
 35 34  1  0  0  0  0
 36 35  1  0  0  0  0
 37 36  1  0  0  0  0
 37 38  2  0  0  0  0
 38 45  1  0  0  0  0
 38 39  1  0  0  0  0
 39 40  1  0  0  0  0
 40 46  1  0  0  0  0
 40 32  2  0  0  0  0
 42 34  1  0  0  0  0
 43 36  1  0  0  0  0
 44 37  1  0  0  0  0
 46 47  2  0  0  0  0
 48 46  1  0  0  0  0
M  END
>  <minimizedAffinity>
-6.06337118

>  <minimizedRMSD>
1.70917308

$$$$
