
 OpenBabel03252500573D

 39 41  0  0  0  0  0  0  0  0999 V2000
   43.8800   34.3520   40.0450 O   0  0  0  0  0  0  0  0  0  0  0  0
   43.4010   34.4620   41.4860 P   0  0  1  0  0  0  0  0  0  0  0  0
   43.1370   32.8910   42.0860 O   0  0  0  0  0  0  0  0  0  0  0  0
   43.0280   32.9490   43.0580 H   0  0  0  0  0  0  0  0  0  0  0  0
   44.6210   35.1690   42.4400 O   0  0  0  0  0  0  0  0  0  0  0  0
   46.7260   34.2150   42.8790 C   0  0  0  0  0  0  0  0  0  0  0  0
   45.4600   34.5180   43.3330 C   0  0  0  0  0  0  0  0  0  0  0  0
   45.1170   34.1520   44.6400 C   0  0  0  0  0  0  0  0  0  0  0  0
   46.0510   33.5240   45.3780 N   0  0  0  0  0  0  0  0  0  0  0  0
   47.2750   33.2380   44.9240 C   0  0  0  0  0  0  0  0  0  0  0  0
   47.6020   33.5870   43.6770 N   0  0  0  0  0  0  0  0  0  0  0  0
   44.1370   34.3960   44.9660 H   0  0  0  0  0  0  0  0  0  0  0  0
   48.0410   32.7320   45.5050 H   0  0  0  0  0  0  0  0  0  0  0  0
   47.1440   34.5720   41.5230 C   0  0  0  0  0  0  0  0  0  0  0  0
   46.3660   35.1990   41.0350 H   0  0  0  0  0  0  0  0  0  0  0  0
   47.2980   33.6730   40.8930 H   0  0  0  0  0  0  0  0  0  0  0  0
   48.4290   35.3490   41.5990 C   0  0  0  0  0  0  0  0  0  0  0  0
   49.2590   34.6690   41.7940 H   0  0  0  0  0  0  0  0  0  0  0  0
   48.3200   36.1150   42.3930 H   0  0  0  0  0  0  0  0  0  0  0  0
   48.5920   35.8280   40.6020 H   0  0  0  0  0  0  0  0  0  0  0  0
   41.9310   35.2940   41.5730 O   0  0  0  0  0  0  0  0  0  0  0  0
   40.7910   34.6570   41.1070 C   0  0  0  0  0  0  0  0  0  0  0  0
   39.9070   35.3830   40.3280 C   0  0  0  0  0  0  0  0  0  0  0  0
   38.7410   34.8230   39.8200 C   0  0  0  0  0  0  0  0  0  0  0  0
   38.4780   33.5120   40.1100 N   0  0  0  0  0  0  0  0  0  0  0  0
   39.3360   32.8240   40.8610 C   0  0  0  0  0  0  0  0  0  0  0  0
   40.4510   33.3670   41.3440 N   0  0  0  0  0  0  0  0  0  0  0  0
   40.1310   36.4040   40.1120 H   0  0  0  0  0  0  0  0  0  0  0  0
   38.0690   35.4310   39.2080 H   0  0  0  0  0  0  0  0  0  0  0  0
   38.9990   31.4650   41.1230 N   0  0  0  0  0  0  0  0  0  0  0  0
   38.0250   30.8480   40.4060 C   0  0  0  0  0  3  0  0  0  0  0  0
   37.7770   29.5320   40.7400 C   0  0  0  0  0  3  0  0  0  0  0  0
   38.4330   28.8230   41.7270 C   0  0  0  0  0  0  0  0  0  0  0  0
   38.1280   27.4660   42.0200 N   0  0  0  0  0  0  0  0  0  0  0  0
   39.3820   29.5160   42.3850 N   0  0  0  0  0  0  0  0  0  0  0  0
   39.6600   30.8120   42.0900 C   0  0  0  0  0  0  0  0  0  0  0  0
   40.5580   31.3920   42.7470 O   0  0  0  0  0  0  0  0  0  0  0  0
   37.3470   27.0290   41.4930 H   0  0  0  0  0  0  0  0  0  0  0  0
   38.7130   27.0000   42.7510 H   0  0  0  0  0  0  0  0  0  0  0  0
  2  1  2  6  0  0  0
  2 21  1  0  0  0  0
  2  3  1  0  0  0  0
  2  5  1  0  0  0  0
  3  4  1  0  0  0  0
  5  7  1  0  0  0  0
  6  7  2  0  0  0  0
  6 11  1  0  0  0  0
  7  8  1  0  0  0  0
  8 12  1  0  0  0  0
  8  9  2  0  0  0  0
 10  9  1  0  0  0  0
 10 13  1  0  0  0  0
 11 10  2  0  0  0  0
 14 17  1  0  0  0  0
 14  6  1  0  0  0  0
 15 14  1  0  0  0  0
 16 14  1  0  0  0  0
 17 18  1  0  0  0  0
 17 19  1  0  0  0  0
 20 17  1  0  0  0  0
 22 27  1  0  0  0  0
 22 21  1  0  0  0  0
 23 22  2  0  0  0  0
 24 25  2  0  0  0  0
 24 23  1  0  0  0  0
 25 26  1  0  0  0  0
 26 30  1  0  0  0  0
 26 27  2  0  0  0  0
 28 23  1  0  0  0  0
 29 24  1  0  0  0  0
 30 36  1  0  0  0  0
 31 32  2  0  0  0  0
 31 30  1  0  0  0  0
 32 33  1  0  0  0  0
 33 34  1  0  0  0  0
 33 35  2  0  0  0  0
 34 39  1  0  0  0  0
 36 35  1  0  0  0  0
 36 37  2  0  0  0  0
 38 34  1  0  0  0  0
M  END
>  <minimizedAffinity>
-6.35598803

>  <minimizedRMSD>
0.735871077

$$$$
