
 OpenBabel03252502343D

 41 43  0  0  1  0  0  0  0  0999 V2000
   46.1250   31.0210   43.9070 C   0  0  2  0  0  0  0  0  0  0  0  0
   45.2270   30.5230   42.7650 C   0  0  0  0  0  0  0  0  0  0  0  0
   45.2950   28.9940   42.9100 C   0  0  0  0  0  0  0  0  0  0  0  0
   44.4210   28.7160   44.1150 C   0  0  0  0  0  0  0  0  0  0  0  0
   45.0010   29.3190   45.3400 C   0  0  0  0  0  0  0  0  0  0  0  0
   45.4760   30.7340   45.2180 C   0  0  1  0  0  0  0  0  0  0  0  0
   47.0690   30.4500   43.7370 H   0  0  0  0  0  0  0  0  0  0  0  0
   44.1970   30.8590   42.8860 H   0  0  0  0  0  0  0  0  0  0  0  0
   45.7000   30.7860   41.8030 H   0  0  0  0  0  0  0  0  0  0  0  0
   46.3340   28.6980   43.2290 H   0  0  0  0  0  0  0  0  0  0  0  0
   44.9420   28.4720   42.0200 H   0  0  0  0  0  0  0  0  0  0  0  0
   44.2870   27.6400   44.2960 H   0  0  0  0  0  0  0  0  0  0  0  0
   43.4170   29.1340   43.8640 H   0  0  0  0  0  0  0  0  0  0  0  0
   45.7540   28.6400   45.7890 H   0  0  0  0  0  0  0  0  0  0  0  0
   44.1670   29.3320   46.1030 H   0  0  0  0  0  0  0  0  0  0  0  0
   44.5860   31.3960   45.2850 H   0  0  0  0  0  0  0  0  0  0  0  0
   46.3050   31.0320   46.3320 N   0  0  0  0  0  0  0  0  0  0  0  0
   46.0680   31.9430   47.2800 C   0  0  0  0  0  3  0  0  0  0  0  0
   46.8980   32.2070   48.3500 C   0  0  0  0  0  3  0  0  0  0  0  0
   48.0740   31.4610   48.4460 C   0  0  0  0  0  0  0  0  0  0  0  0
   48.9860   31.6750   49.5260 N   0  0  0  0  0  0  0  0  0  0  0  0
   48.3060   30.5470   47.4900 N   0  0  0  0  0  0  0  0  0  0  0  0
   47.4690   30.3300   46.4720 C   0  0  0  0  0  0  0  0  0  0  0  0
   47.8240   29.4330   45.6470 O   0  0  0  0  0  0  0  0  0  0  0  0
   49.0330   31.2650   50.4850 H   0  0  0  0  0  0  0  0  0  0  0  0
   49.7000   32.3850   49.2030 H   0  0  0  0  0  0  0  0  0  0  0  0
   47.6900   34.2520   42.8160 C   0  0  0  0  0  0  0  0  0  0  0  0
   47.5440   32.8670   43.0140 C   0  0  0  0  0  0  0  0  0  0  0  0
   46.3690   32.4300   43.6560 C   0  0  0  0  0  0  0  0  0  0  0  0
   45.4660   33.3760   44.0360 N   0  0  0  0  0  0  0  0  0  0  0  0
   45.6400   34.6820   43.8310 C   0  0  0  0  0  0  0  0  0  0  0  0
   46.7580   35.1230   43.2180 N   0  0  0  0  0  0  0  0  0  0  0  0
   48.2790   32.1370   42.7010 H   0  0  0  0  0  0  0  0  0  0  0  0
   48.9490   34.6860   42.1320 C   0  0  0  0  0  0  0  0  0  0  0  0
   49.5010   33.6580   41.3910 F   0  0  0  0  0  0  0  0  0  0  0  0
   48.6440   35.7820   41.3220 F   0  0  0  0  0  0  0  0  0  0  0  0
   49.8570   35.1570   43.0720 F   0  0  0  0  0  0  0  0  0  0  0  0
   44.6160   35.6750   44.2700 C   0  0  0  0  0  0  0  0  0  0  0  0
   43.4590   35.5490   43.5650 F   0  0  0  0  0  0  0  0  0  0  0  0
   45.1450   36.9790   44.1450 F   0  0  0  0  0  0  0  0  0  0  0  0
   44.3600   35.5610   45.6140 F   0  0  0  0  0  0  0  0  0  0  0  0
  1  7  1  6  0  0  0
  1  6  1  0  0  0  0
  2  8  1  0  0  0  0
  2  3  1  0  0  0  0
  2  1  1  0  0  0  0
  3 10  1  0  0  0  0
  3  4  1  0  0  0  0
  4 12  1  0  0  0  0
  4  5  1  0  0  0  0
  5 14  1  0  0  0  0
  5 15  1  0  0  0  0
  6 16  1  1  0  0  0
  6  5  1  0  0  0  0
  6 17  1  0  0  0  0
  9  2  1  0  0  0  0
 11  3  1  0  0  0  0
 13  4  1  0  0  0  0
 17 23  1  0  0  0  0
 17 18  1  0  0  0  0
 18 19  2  0  0  0  0
 19 20  1  0  0  0  0
 20 21  1  0  0  0  0
 21 25  1  0  0  0  0
 22 20  2  0  0  0  0
 23 22  1  0  0  0  0
 24 23  2  0  0  0  0
 26 21  1  0  0  0  0
 27 28  2  0  0  0  0
 27 32  1  0  0  0  0
 28 29  1  0  0  0  0
 29  1  1  0  0  0  0
 29 30  2  0  0  0  0
 31 30  1  0  0  0  0
 31 38  1  0  0  0  0
 32 31  2  0  0  0  0
 33 28  1  0  0  0  0
 34 27  1  0  0  0  0
 34 37  1  0  0  0  0
 35 34  1  0  0  0  0
 36 34  1  0  0  0  0
 38 41  1  0  0  0  0
 39 38  1  0  0  0  0
 40 38  1  0  0  0  0
M  END
>  <minimizedAffinity>
-6.17069149

>  <minimizedRMSD>
2.5507524

$$$$
