
     RDKit          3D

 37 39  0  0  0  0  0  0  0  0999 V2000
   45.2827   35.3459   43.6733 C   0  0  0  0  0  0  0  0  0  0  0  0
   46.3646   34.6134   43.1703 C   0  0  0  0  0  0  0  0  0  0  0  0
   46.9557   33.6423   43.9948 C   0  0  0  0  0  0  0  0  0  0  0  0
   46.4608   33.4559   45.2281 N   0  0  0  0  0  0  0  0  0  0  0  0
   45.4042   34.1879   45.6865 C   0  0  0  0  0  0  0  0  0  0  0  0
   44.8217   35.1249   44.9132 N   0  0  0  0  0  0  0  0  0  0  0  0
   49.0099   33.7146   42.5874 C   0  0  2  0  0  0  0  0  0  0  0  0
   48.0831   32.8916   43.4340 C   0  0  2  0  0  0  0  0  0  0  0  0
   47.7044   31.9030   42.5054 O   0  0  0  0  0  0  0  0  0  0  0  0
   48.9213   31.4651   42.0102 C   0  0  0  0  0  0  0  0  0  0  0  0
   49.9211   32.5841   42.0892 C   0  0  1  0  0  0  0  0  0  0  0  0
   49.6845   34.6844   43.2869 O   0  0  0  0  0  0  0  0  0  0  0  0
   50.4620   32.9275   40.8668 O   0  0  0  0  0  0  0  0  0  0  0  0
   44.6460   36.3813   42.8028 C   0  0  0  0  0  0  0  0  0  0  0  0
   46.7012   34.8129   42.1908 H   0  0  0  0  0  0  0  0  0  0  0  0
   45.0692   33.9640   46.7089 H   0  0  0  0  0  0  0  0  0  0  0  0
   48.5335   34.0914   41.6606 H   0  0  0  0  0  0  0  0  0  0  0  0
   48.6635   32.3652   44.2062 H   0  0  0  0  0  0  0  0  0  0  0  0
   49.2852   30.5889   42.5863 H   0  0  0  0  0  0  0  0  0  0  0  0
   48.8187   31.1932   40.9301 H   0  0  0  0  0  0  0  0  0  0  0  0
   50.7203   32.3645   42.8121 H   0  0  0  0  0  0  0  0  0  0  0  0
   49.6855   35.5158   42.7200 H   0  0  0  0  0  0  0  0  0  0  0  0
   51.2423   33.5044   41.0109 H   0  0  0  0  0  0  0  0  0  0  0  0
   43.5590   36.4431   43.0002 H   0  0  0  0  0  0  0  0  0  0  0  0
   44.8333   36.0648   41.7377 H   0  0  0  0  0  0  0  0  0  0  0  0
   45.2383   37.6778   42.9481 N   0  0  0  0  0  0  0  0  0  0  0  0
   44.4240   38.7307   42.7429 C   0  0  0  0  0  0  0  0  0  0  0  0
   44.8915   40.0231   42.8572 C   0  0  0  0  0  0  0  0  0  0  0  0
   46.2044   40.2908   43.1846 C   0  0  0  0  0  0  0  0  0  0  0  0
   46.6635   41.6305   43.2968 N   0  0  0  0  0  0  0  0  0  0  0  0
   46.9862   39.2133   43.3817 N   0  0  0  0  0  0  0  0  0  0  0  0
   46.5134   37.9641   43.2659 C   0  0  0  0  0  0  0  0  0  0  0  0
   47.2664   36.9744   43.4557 O   0  0  0  0  0  0  0  0  0  0  0  0
   43.3892   38.6142   42.4847 H   0  0  0  0  0  0  0  0  0  0  0  0
   44.2325   40.8524   42.6912 H   0  0  0  0  0  0  0  0  0  0  0  0
   46.2401   42.2206   44.0467 H   0  0  0  0  0  0  0  0  0  0  0  0
   47.3835   42.0852   42.7032 H   0  0  0  0  0  0  0  0  0  0  0  0
  1  6  1  0
  2  1  2  0
  2  3  1  0
  3  4  2  0
  4  5  1  0
  6  5  2  0
  7 12  1  0
  7  8  1  0
  8  3  1  0
  9  8  1  0
 10 11  1  0
 10  9  1  0
 11 13  1  0
 11  7  1  0
 14  1  1  0
  2 15  1  0
  5 16  1  0
  7 17  1  6
  8 18  1  1
 10 19  1  0
 10 20  1  0
 11 21  1  1
 12 22  1  0
 13 23  1  0
 14 24  1  0
 14 25  1  0
 26 27  1  0
 27 28  2  0
 28 29  1  0
 29 30  1  0
 29 31  2  0
 31 32  1  0
 32 33  2  0
 32 26  1  0
 27 34  1  0
 28 35  1  0
 30 36  1  0
 30 37  1  0
 14 26  1  0
M  ISO  8  15  14  16  14  17  13  18  13  19  13  20  13  21  13  22   3
M  ISO  3  23   3  24   8  25   8
M  END
>  <DihAtoms>  (1) 
0,13,25,26

>  <DihDeg>  (1) 
-89.96656498424323

$$$$
