
 OpenBabel03242511083D

 44 48  0  0  1  0  0  0  0  0999 V2000
   46.3040   32.1530   43.9590 C   0  0  0  0  0  0  0  0  0  0  0  0
   46.6320   31.4510   45.1110 C   0  0  0  0  0  0  0  0  0  0  0  0
   46.3790   31.9300   46.3960 C   0  0  0  0  0  0  0  0  0  0  0  0
   45.7740   33.1580   46.5580 C   0  0  0  0  0  0  0  0  0  0  0  0
   45.4380   33.8720   45.4580 C   0  0  0  0  0  0  0  0  0  0  0  0
   44.8260   35.1010   45.5870 C   0  0  0  0  0  0  0  0  0  0  0  0
   44.4570   35.8720   44.5160 C   0  0  0  0  0  0  0  0  0  0  0  0
   44.7280   35.3560   43.2540 C   0  0  0  0  0  0  0  0  0  0  0  0
   45.3440   34.1180   43.1280 C   0  0  0  0  0  0  0  0  0  0  0  0
   45.7060   33.3600   44.2000 C   0  0  0  0  0  0  0  0  0  0  0  0
   47.1060   30.4800   45.1030 H   0  0  0  0  0  0  0  0  0  0  0  0
   46.6410   31.3710   47.2820 H   0  0  0  0  0  0  0  0  0  0  0  0
   45.5760   33.5310   47.5560 H   0  0  0  0  0  0  0  0  0  0  0  0
   44.6410   35.4490   46.5910 H   0  0  0  0  0  0  0  0  0  0  0  0
   43.9810   36.8250   44.7390 H   0  0  0  0  0  0  0  0  0  0  0  0
   44.3980   36.0390   42.4700 H   0  0  0  0  0  0  0  0  0  0  0  0
   45.4880   33.8560   41.7450 N   0  0  0  0  0  0  0  0  0  0  0  0
   46.3690   34.1390   40.7720 C   0  0  0  0  0  3  0  0  0  0  0  0
   46.2360   33.6800   39.4840 C   0  0  0  0  0  3  0  0  0  0  0  0
   45.1730   32.8890   39.1110 C   0  0  0  0  0  0  0  0  0  0  0  0
   45.1660   32.4910   37.7510 N   0  0  0  0  0  0  0  0  0  0  0  0
   44.2540   32.5720   40.0500 N   0  0  0  0  0  0  0  0  0  0  0  0
   44.4530   33.0640   41.3090 C   0  0  0  0  0  0  0  0  0  0  0  0
   43.4790   32.6450   42.0300 O   0  0  0  0  0  0  0  0  0  0  0  0
   46.0490   32.0460   37.4060 H   0  0  0  0  0  0  0  0  0  0  0  0
   44.2290   32.7400   37.3700 H   0  0  0  0  0  0  0  0  0  0  0  0
   46.6030   31.5800   42.7170 N   0  0  0  0  0  0  0  0  0  0  0  0
   45.6080   31.3910   42.5070 H   0  0  0  0  0  0  0  0  0  0  0  0
   49.0610   31.1420   43.1430 C   0  0  1  0  0  0  0  0  0  0  0  0
   48.9370   32.5460   42.5860 C   0  0  0  0  0  0  0  0  0  0  0  0
   47.9520   31.4350   42.2480 C   0  0  2  0  0  0  0  0  0  0  0  0
   49.0150   31.1830   44.2610 H   0  0  0  0  0  0  0  0  0  0  0  0
   49.6730   32.7590   41.7670 H   0  0  0  0  0  0  0  0  0  0  0  0
   48.5440   33.3680   43.1810 H   0  0  0  0  0  0  0  0  0  0  0  0
   48.0030   30.9520   41.2430 H   0  0  0  0  0  0  0  0  0  0  0  0
   51.0390   28.6150   41.2980 C   0  0  0  0  0  0  0  0  0  0  0  0
   52.3150   28.7280   41.9320 C   0  0  0  0  0  0  0  0  0  0  0  0
   52.4610   29.6810   42.9730 C   0  0  0  0  0  0  0  0  0  0  0  0
   51.4110   30.4320   43.3170 N   0  0  0  0  0  0  0  0  0  0  0  0
   50.2120   30.3000   42.6950 C   0  0  0  0  0  0  0  0  0  0  0  0
   50.0220   29.3920   41.6820 N   0  0  0  0  0  0  0  0  0  0  0  0
   50.9340   27.8860   40.5050 H   0  0  0  0  0  0  0  0  0  0  0  0
   53.0980   28.0800   41.5850 H   0  0  0  0  0  0  0  0  0  0  0  0
   53.4260   29.7520   43.4370 H   0  0  0  0  0  0  0  0  0  0  0  0
  1 10  2  0  0  0  0
  1  2  1  0  0  0  0
  2  3  2  0  0  0  0
  3  4  1  0  0  0  0
  3 12  1  0  0  0  0
  4 13  1  0  0  0  0
  5  6  1  0  0  0  0
  5  4  2  0  0  0  0
  6 14  1  0  0  0  0
  7 15  1  0  0  0  0
  7  6  2  0  0  0  0
  8  7  1  0  0  0  0
  9  8  2  0  0  0  0
  9 10  1  0  0  0  0
 10  5  1  0  0  0  0
 11  2  1  0  0  0  0
 16  8  1  0  0  0  0
 17  9  1  0  0  0  0
 18 17  1  0  0  0  0
 19 18  2  0  0  0  0
 20 19  1  0  0  0  0
 20 22  2  0  0  0  0
 21 20  1  0  0  0  0
 22 23  1  0  0  0  0
 23 17  1  0  0  0  0
 23 24  2  0  0  0  0
 25 21  1  0  0  0  0
 26 21  1  0  0  0  0
 27  1  1  0  0  0  0
 28 27  1  0  0  0  0
 29 32  1  1  0  0  0
 30 29  1  0  0  0  0
 30 34  1  0  0  0  0
 31 35  1  6  0  0  0
 31 30  1  0  0  0  0
 31 27  1  0  0  0  0
 31 29  1  0  0  0  0
 33 30  1  0  0  0  0
 36 41  2  0  0  0  0
 36 37  1  0  0  0  0
 37 38  2  0  0  0  0
 38 39  1  0  0  0  0
 38 44  1  0  0  0  0
 40 29  1  0  0  0  0
 40 39  2  0  0  0  0
 41 40  1  0  0  0  0
 42 36  1  0  0  0  0
 43 37  1  0  0  0  0
M  END
>  <minimizedAffinity>
-4.95881605

>  <minimizedRMSD>
1.09378624

$$$$
