REMARK  Name = 
REMARK  4 active torsions:
REMARK  status: ('A' for Active; 'I' for Inactive)
REMARK    1  A    between atoms: C_1  and  C_5
REMARK    2  A    between atoms: C_3  and  N_10
REMARK    3  A    between atoms: C_11  and  C_13
REMARK    4  A    between atoms: C_15  and  N_28
REMARK                            x       y       z     vdW  Elec       q    Type
REMARK                         _______ _______ _______ _____ _____    ______ ____
ROOT
ATOM      1  N   UNL     1      48.188  33.386  43.509  0.00  0.00    +0.000 N 
ATOM      2  C   UNL     1      49.244  33.480  42.620  0.00  0.00    +0.000 C 
ATOM      3  O   UNL     1      50.368  32.909  42.625  0.00  0.00    +0.000 OA
ATOM      4  H   UNL     1      47.737  34.289  43.801  0.00  0.00    +0.000 HD
ENDROOT
BRANCH   1   7
ATOM      5  C   UNL     1      46.269  32.120  44.435  0.00  0.00    +0.000 C 
ATOM      6  C   UNL     1      46.578  31.506  43.197  0.00  0.00    +0.000 C 
ATOM      7  C   UNL     1      47.705  32.145  44.027  0.00  0.00    +0.000 C 
ATOM      8  H   UNL     1      46.066  31.526  45.356  0.00  0.00    +0.000 HD
ATOM      9  H   UNL     1      46.537  30.390  43.121  0.00  0.00    +0.000 HD
ATOM     10  H   UNL     1      46.439  31.965  42.202  0.00  0.00    +0.000 HD
ATOM     11  H   UNL     1      48.429  31.355  44.282  0.00  0.00    +0.000 HD
BRANCH   5  13
ATOM     12  C   UNL     1      45.028  34.031  43.207  0.00  0.00    +0.000 A 
ATOM     13  C   UNL     1      45.530  33.462  44.405  0.00  0.00    +0.000 A 
ATOM     14  C   UNL     1      45.350  34.165  45.570  0.00  0.00    +0.000 A 
ATOM     15  N   UNL     1      44.711  35.357  45.530  0.00  0.00    +0.000 NA
ATOM     16  C   UNL     1      44.236  35.894  44.387  0.00  0.00    +0.000 A 
ATOM     17  N   UNL     1      44.403  35.203  43.183  0.00  0.00    +0.000 NA
ATOM     18  H   UNL     1      45.156  33.497  42.288  0.00  0.00    +0.000 HD
ATOM     19  H   UNL     1      45.740  33.713  46.472  0.00  0.00    +0.000 HD
ATOM     20  H   UNL     1      43.772  36.834  44.589  0.00  0.00    +0.000 HD
ENDBRANCH   5  13
ENDBRANCH   1   7
BRANCH   2  21
ATOM     21  C   UNL     1      49.127  34.386  41.402  0.00  0.00    +0.000 C 
ATOM     22  C   UNL     1      49.126  35.923  41.678  0.00  0.00    +0.000 C 
ATOM     23  C   UNL     1      47.929  35.172  41.146  0.00  0.00    +0.000 C 
ATOM     24  H   UNL     1      49.876  34.197  40.590  0.00  0.00    +0.000 HD
ATOM     25  H   UNL     1      49.200  36.254  42.707  0.00  0.00    +0.000 HD
ATOM     26  H   UNL     1      49.624  36.579  40.943  0.00  0.00    +0.000 HD
ATOM     27  H   UNL     1      47.083  35.358  41.778  0.00  0.00    +0.000 HD
BRANCH  23  28
ATOM     28  N   UNL     1      47.589  35.346  39.726  0.00  0.00    +0.000 N 
ATOM     29  C   UNL     1      46.614  34.704  39.069  0.00  0.00    +0.000 A 
ATOM     30  C   UNL     1      46.404  34.967  37.726  0.00  0.00    +0.000 A 
ATOM     31  C   UNL     1      47.197  35.890  37.066  0.00  0.00    +0.000 A 
ATOM     32  N   UNL     1      47.018  36.197  35.674  0.00  0.00    +0.000 N 
ATOM     33  N   UNL     1      48.182  36.529  37.762  0.00  0.00    +0.000 NA
ATOM     34  C   UNL     1      48.373  36.255  39.086  0.00  0.00    +0.000 A 
ATOM     35  O   UNL     1      49.318  36.916  39.607  0.00  0.00    +0.000 OA
ATOM     36  H   UNL     1      47.464  35.682  34.884  0.00  0.00    +0.000 HD
ATOM     37  H   UNL     1      46.366  37.028  35.558  0.00  0.00    +0.000 HD
ENDBRANCH  23  28
ENDBRANCH   2  21
TORSDOF 4
