
     RDKit          3D

 46 50  0  0  0  0  0  0  0  0999 V2000
   48.3182   30.9204   42.2275 C   0  0  1  0  0  0  0  0  0  0  0  0
   48.2274   32.3978   41.9080 C   0  0  0  0  0  0  0  0  0  0  0  0
   47.1098   31.4146   41.5836 C   0  0  2  0  0  0  0  0  0  0  0  0
   49.7955   28.7311   39.6321 C   0  0  0  0  0  0  0  0  0  0  0  0
   51.1147   28.5297   40.1421 C   0  0  0  0  0  0  0  0  0  0  0  0
   51.4634   29.1644   41.3626 C   0  0  0  0  0  0  0  0  0  0  0  0
   50.5525   29.9198   41.9835 N   0  0  0  0  0  0  0  0  0  0  0  0
   49.3071   30.0915   41.4732 C   0  0  0  0  0  0  0  0  0  0  0  0
   48.9242   29.4980   40.2953 N   0  0  0  0  0  0  0  0  0  0  0  0
   45.8692   31.5653   42.2908 N   0  0  0  0  0  0  0  0  0  0  0  0
   45.7906   32.2173   43.5277 C   0  0  0  0  0  0  0  0  0  0  0  0
   46.1574   31.5195   44.6709 C   0  0  0  0  0  0  0  0  0  0  0  0
   46.1167   32.0740   45.9496 C   0  0  0  0  0  0  0  0  0  0  0  0
   45.6957   33.3762   46.1154 C   0  0  0  0  0  0  0  0  0  0  0  0
   45.3296   34.0882   45.0237 C   0  0  0  0  0  0  0  0  0  0  0  0
   44.8989   35.3915   45.1559 C   0  0  0  0  0  0  0  0  0  0  0  0
   44.5098   36.1665   44.0950 C   0  0  0  0  0  0  0  0  0  0  0  0
   44.5659   35.5737   42.8384 C   0  0  0  0  0  0  0  0  0  0  0  0
   45.0000   34.2608   42.7083 C   0  0  0  0  0  0  0  0  0  0  0  0
   45.3844   33.5009   43.7713 C   0  0  0  0  0  0  0  0  0  0  0  0
   48.4525   30.7884   43.3304 H   0  0  0  0  0  0  0  0  0  0  0  0
   48.8386   32.6934   41.0158 H   0  0  0  0  0  0  0  0  0  0  0  0
   48.0042   33.1394   42.6731 H   0  0  0  0  0  0  0  0  0  0  0  0
   46.9600   31.0941   40.5262 H   0  0  0  0  0  0  0  0  0  0  0  0
   49.5350   28.2446   38.7010 H   0  0  0  0  0  0  0  0  0  0  0  0
   51.7751   27.9047   39.5704 H   0  0  0  0  0  0  0  0  0  0  0  0
   52.4575   29.0020   41.7297 H   0  0  0  0  0  0  0  0  0  0  0  0
   44.8590   31.3433   42.2870 H   0  0  0  0  0  0  0  0  0  0  0  0
   46.4987   30.4947   44.6597 H   0  0  0  0  0  0  0  0  0  0  0  0
   46.4059   31.5165   46.8293 H   0  0  0  0  0  0  0  0  0  0  0  0
   45.6640   33.8076   47.1079 H   0  0  0  0  0  0  0  0  0  0  0  0
   44.8765   35.7968   46.1563 H   0  0  0  0  0  0  0  0  0  0  0  0
   44.1891   37.1805   44.3198 H   0  0  0  0  0  0  0  0  0  0  0  0
   44.2380   36.2664   42.0615 H   0  0  0  0  0  0  0  0  0  0  0  0
   44.9504   33.9329   41.3330 N   0  0  0  0  0  0  0  0  0  0  0  0
   44.0306   33.9048   40.3553 C   0  0  0  0  0  0  0  0  0  0  0  0
   44.3264   33.5641   39.0584 C   0  0  0  0  0  0  0  0  0  0  0  0
   45.6056   33.2254   38.6785 C   0  0  0  0  0  0  0  0  0  0  0  0
   45.7622   32.8967   37.3096 N   0  0  0  0  0  0  0  0  0  0  0  0
   46.5737   33.2366   39.6221 N   0  0  0  0  0  0  0  0  0  0  0  0
   46.2055   33.5857   40.8898 C   0  0  0  0  0  0  0  0  0  0  0  0
   47.2625   33.5329   41.6132 O   0  0  0  0  0  0  0  0  0  0  0  0
   43.0717   34.1960   40.8098 H   0  0  0  0  0  0  0  0  0  0  0  0
   43.4205   33.6111   38.4394 H   0  0  0  0  0  0  0  0  0  0  0  0
   45.3890   33.6005   36.6299 H   0  0  0  0  0  0  0  0  0  0  0  0
   46.2424   31.9733   37.2762 H   0  0  0  0  0  0  0  0  0  0  0  0
  2  1  1  0
  3  2  1  0
  3  1  1  0
  3 10  1  0
  4  5  2  0
  4  9  1  0
  5  6  1  0
  6  7  2  0
  8  7  1  0
  8  1  1  0
  9  8  2  0
 10 11  1  0
 11 20  1  0
 11 12  2  0
 12 13  1  0
 13 14  2  0
 15 16  2  0
 15 14  1  0
 17 16  1  0
 18 17  2  0
 19 18  1  0
 19 20  2  0
 20 15  1  0
  1 21  1  1
  2 22  1  0
  2 23  1  0
  3 24  1  6
  4 25  1  0
  5 26  1  0
  6 27  1  0
 10 28  1  0
 12 29  1  0
 13 30  1  0
 14 31  1  0
 16 32  1  0
 17 33  1  0
 18 34  1  0
 35 36  1  0
 36 37  2  0
 37 38  1  0
 38 39  1  0
 38 40  2  0
 40 41  1  0
 41 42  2  0
 41 35  1  0
 36 43  1  0
 37 44  1  0
 39 45  1  0
 39 46  1  0
 19 35  1  0
M  ISO  8  21  13  22  13  23  13  24  13  25  14  26  14  27  14  29  14
M  ISO  5  30  14  31  14  32  14  33  14  34  14
M  END
>  <DihAtoms>  (1) 
17,18,34,35

>  <DihDeg>  (1) 
-102.51041750169732

$$$$
