
     RDKit          3D

 27 28  0  0  0  0  0  0  0  0999 V2000
   44.5828   35.9847   44.5094 C   0  0  0  0  0  0  0  0  0  0  0  0
   45.2271   35.9889   43.2549 C   0  0  0  0  0  0  0  0  0  0  0  0
   46.1003   34.9532   42.9749 C   0  0  0  0  0  0  0  0  0  0  0  0
   46.2965   33.9856   43.9141 N   0  0  0  0  0  0  0  0  0  0  0  0
   45.6697   34.0101   45.0955 C   0  0  0  0  0  0  0  0  0  0  0  0
   44.8081   35.0085   45.4039 N   0  0  0  0  0  0  0  0  0  0  0  0
   46.7215   34.9838   41.7291 O   0  0  0  0  0  0  0  0  0  0  0  0
   48.6462   33.3302   40.9681 O   0  0  0  0  0  0  0  0  0  0  0  0
   48.4072   34.6829   41.6344 P   0  0  0  0  0  0  0  0  0  0  0  0
   49.1205   35.9319   40.7779 O   0  0  0  0  0  0  0  0  0  0  0  0
   48.9953   34.5812   43.2188 O   0  0  0  0  0  0  0  0  0  0  0  0
   43.8894   36.7376   44.8267 H   0  0  0  0  0  0  0  0  0  0  0  0
   44.9812   36.8199   42.5983 H   0  0  0  0  0  0  0  0  0  0  0  0
   49.4203   36.6360   41.3903 H   0  0  0  0  0  0  0  0  0  0  0  0
   48.7620   33.6536   43.5263 H   0  0  0  0  0  0  0  0  0  0  0  0
   45.9951   32.9195   45.9520 N   0  0  0  0  0  0  0  0  0  0  0  0
   44.9741   32.3925   46.6526 C   0  0  0  0  0  0  0  0  0  0  0  0
   45.2903   31.3363   47.4819 C   0  0  0  0  0  0  0  0  0  0  0  0
   46.6048   30.9181   47.5209 C   0  0  0  0  0  0  0  0  0  0  0  0
   47.0460   29.8404   48.3384 N   0  0  0  0  0  0  0  0  0  0  0  0
   47.5894   31.4981   46.7838 N   0  0  0  0  0  0  0  0  0  0  0  0
   47.2841   32.5380   45.9658 C   0  0  0  0  0  0  0  0  0  0  0  0
   48.1395   33.1238   45.2552 O   0  0  0  0  0  0  0  0  0  0  0  0
   43.9768   32.7734   46.5682 H   0  0  0  0  0  0  0  0  0  0  0  0
   44.5440   30.8436   48.0861 H   0  0  0  0  0  0  0  0  0  0  0  0
   47.5176   30.3058   49.1452 H   0  0  0  0  0  0  0  0  0  0  0  0
   47.1413   28.8214   48.5475 H   0  0  0  0  0  0  0  0  0  0  0  0
  1  6  2  0
  2  1  1  0
  3  2  2  0
  3  4  1  0
  4  5  2  0
  5  6  1  0
  7  3  1  0
  8  9  2  0
  9  7  1  0
  9 11  1  0
 10  9  1  0
  1 12  1  0
  2 13  1  0
 10 14  1  0
 11 15  1  0
 16 17  1  0
 17 18  2  0
 18 19  1  0
 19 20  1  0
 19 21  2  0
 21 22  1  0
 22 23  2  0
 22 16  1  0
 17 24  1  0
 18 25  1  0
 20 26  1  0
 20 27  1  0
  5 16  1  0
M  ISO  4  12  14  13  14  14   3  15   3
M  END
>  <DihAtoms>  (1) 
3,4,15,16

>  <DihDeg>  (1) 
-110.03845431301008

$$$$
