
 OpenBabel03252503433D

 35 37  0  0  1  0  0  0  0  0999 V2000
   45.2320   34.7910   44.9110 C   0  0  0  0  0  0  0  0  0  0  0  0
   45.6430   34.3240   43.6550 C   0  0  0  0  0  0  0  0  0  0  0  0
   46.1320   33.0050   43.6080 C   0  0  0  0  0  0  0  0  0  0  0  0
   46.1810   32.2710   44.7350 N   0  0  0  0  0  0  0  0  0  0  0  0
   45.7760   32.7540   45.9210 C   0  0  0  0  0  0  0  0  0  0  0  0
   45.2950   34.0210   46.0280 N   0  0  0  0  0  0  0  0  0  0  0  0
   44.8380   35.7860   45.0750 H   0  0  0  0  0  0  0  0  0  0  0  0
   46.4480   32.6520   42.6340 H   0  0  0  0  0  0  0  0  0  0  0  0
   47.3050   31.7240   47.5950 C   0  0  2  0  0  0  0  0  0  0  0  0
   45.8600   31.8630   47.0670 C   0  0  1  0  0  0  0  0  0  0  0  0
   45.2380   32.3020   48.2030 O   0  0  0  0  0  0  0  0  0  0  0  0
   45.6820   31.5420   49.2410 C   0  0  0  0  0  0  0  0  0  0  0  0
   46.9830   30.8820   48.8340 C   0  0  2  0  0  0  0  0  0  0  0  0
   47.9520   31.1970   46.8940 H   0  0  0  0  0  0  0  0  0  0  0  0
   45.4930   30.8450   46.7770 H   0  0  0  0  0  0  0  0  0  0  0  0
   44.9490   30.7730   49.5610 H   0  0  0  0  0  0  0  0  0  0  0  0
   45.8910   32.1750   50.1340 H   0  0  0  0  0  0  0  0  0  0  0  0
   46.7980   29.8550   48.4830 H   0  0  0  0  0  0  0  0  0  0  0  0
   47.7320   32.9280   48.0480 O   0  0  0  0  0  0  0  0  0  0  0  0
   47.8450   33.6310   47.3650 H   0  0  0  0  0  0  0  0  0  0  0  0
   47.9590   30.9450   49.7940 O   0  0  0  0  0  0  0  0  0  0  0  0
   48.8460   30.9650   49.3730 H   0  0  0  0  0  0  0  0  0  0  0  0
   45.5270   35.2380   42.5210 C   0  0  0  0  0  0  0  0  0  0  0  0
   46.4950   35.1700   41.9420 H   0  0  0  0  0  0  0  0  0  0  0  0
   45.5090   36.2930   42.8670 H   0  0  0  0  0  0  0  0  0  0  0  0
   44.3970   34.9830   41.6550 N   0  0  0  0  0  0  0  0  0  0  0  0
   43.1820   35.4520   41.9970 C   0  0  0  0  0  3  0  0  0  0  0  0
   42.1020   35.1970   41.1540 C   0  0  0  0  0  3  0  0  0  0  0  0
   42.3700   34.4710   40.0110 C   0  0  0  0  0  0  0  0  0  0  0  0
   41.3030   34.1850   39.1170 N   0  0  0  0  0  0  0  0  0  0  0  0
   43.6090   34.0150   39.6990 N   0  0  0  0  0  0  0  0  0  0  0  0
   44.6350   34.2740   40.5320 C   0  0  0  0  0  0  0  0  0  0  0  0
   45.7410   33.8310   40.1930 O   0  0  0  0  0  0  0  0  0  0  0  0
   41.4770   34.8190   38.2850 H   0  0  0  0  0  0  0  0  0  0  0  0
   40.4460   33.6300   38.9420 H   0  0  0  0  0  0  0  0  0  0  0  0
  1  7  1  0  0  0  0
  1  6  1  0  0  0  0
  2  1  2  0  0  0  0
  3  2  1  0  0  0  0
  3  4  2  0  0  0  0
  4  5  1  0  0  0  0
  5  6  2  0  0  0  0
  5 10  1  0  0  0  0
  8  3  1  0  0  0  0
  9 14  1  6  0  0  0
  9 19  1  0  0  0  0
  9 13  1  0  0  0  0
 10 15  1  6  0  0  0
 10  9  1  0  0  0  0
 10 11  1  0  0  0  0
 11 12  1  0  0  0  0
 12 16  1  0  0  0  0
 12 17  1  0  0  0  0
 13 18  1  6  0  0  0
 13 12  1  0  0  0  0
 13 21  1  0  0  0  0
 20 19  1  0  0  0  0
 22 21  1  0  0  0  0
 23 25  1  0  0  0  0
 23  2  1  0  0  0  0
 24 23  1  0  0  0  0
 26 27  1  0  0  0  0
 26 23  1  0  0  0  0
 28 27  2  0  0  0  0
 29 28  1  0  0  0  0
 30 29  1  0  0  0  0
 31 29  2  0  0  0  0
 31 32  1  0  0  0  0
 32 26  1  0  0  0  0
 33 32  2  0  0  0  0
 34 30  1  0  0  0  0
 35 30  1  0  0  0  0
M  END
>  <minimizedAffinity>
-6.1669817

>  <minimizedRMSD>
1.45323038

$$$$
