
 OpenBabel03252500573D

 39 41  0  0  0  0  0  0  0  0999 V2000
   43.6990   35.0490   40.2020 O   0  0  0  0  0  0  0  0  0  0  0  0
   43.2380   34.7970   41.6310 P   0  0  1  0  0  0  0  0  0  0  0  0
   43.2310   33.1170   41.9060 O   0  0  0  0  0  0  0  0  0  0  0  0
   43.1340   32.9640   42.8680 H   0  0  0  0  0  0  0  0  0  0  0  0
   44.3530   35.4820   42.7190 O   0  0  0  0  0  0  0  0  0  0  0  0
   46.3990   34.3930   43.1170 C   0  0  0  0  0  0  0  0  0  0  0  0
   45.1760   34.8010   43.6040 C   0  0  0  0  0  0  0  0  0  0  0  0
   44.8590   34.5040   44.9350 C   0  0  0  0  0  0  0  0  0  0  0  0
   45.7730   33.8350   45.6610 N   0  0  0  0  0  0  0  0  0  0  0  0
   46.9550   33.4450   45.1740 C   0  0  0  0  0  0  0  0  0  0  0  0
   47.2590   33.7280   43.9040 N   0  0  0  0  0  0  0  0  0  0  0  0
   43.9120   34.8310   45.2870 H   0  0  0  0  0  0  0  0  0  0  0  0
   47.7040   32.9040   45.7450 H   0  0  0  0  0  0  0  0  0  0  0  0
   46.7900   34.6730   41.7340 C   0  0  0  0  0  0  0  0  0  0  0  0
   46.0650   35.3740   41.2670 H   0  0  0  0  0  0  0  0  0  0  0  0
   46.8110   33.7500   41.1200 H   0  0  0  0  0  0  0  0  0  0  0  0
   48.1570   35.3000   41.7330 C   0  0  0  0  0  0  0  0  0  0  0  0
   48.9130   34.5340   41.9070 H   0  0  0  0  0  0  0  0  0  0  0  0
   48.1720   36.0890   42.5120 H   0  0  0  0  0  0  0  0  0  0  0  0
   48.3250   35.7380   40.7190 H   0  0  0  0  0  0  0  0  0  0  0  0
   41.6600   35.3570   41.8650 O   0  0  0  0  0  0  0  0  0  0  0  0
   40.6230   34.6650   41.2580 C   0  0  0  0  0  0  0  0  0  0  0  0
   39.8530   35.3290   40.3190 C   0  0  0  0  0  0  0  0  0  0  0  0
   38.7960   34.7110   39.6620 C   0  0  0  0  0  0  0  0  0  0  0  0
   38.5250   33.4040   39.9680 N   0  0  0  0  0  0  0  0  0  0  0  0
   39.2730   32.7760   40.8730 C   0  0  0  0  0  0  0  0  0  0  0  0
   40.2840   33.3760   41.4980 N   0  0  0  0  0  0  0  0  0  0  0  0
   40.0810   36.3470   40.0940 H   0  0  0  0  0  0  0  0  0  0  0  0
   38.2120   35.2700   38.9260 H   0  0  0  0  0  0  0  0  0  0  0  0
   38.9340   31.4190   41.1420 N   0  0  0  0  0  0  0  0  0  0  0  0
   37.6390   31.0610   41.3390 C   0  0  0  0  0  3  0  0  0  0  0  0
   37.4210   29.7220   41.5920 C   0  0  0  0  0  3  0  0  0  0  0  0
   38.4020   28.7510   41.6560 C   0  0  0  0  0  0  0  0  0  0  0  0
   38.1070   27.3870   41.9220 N   0  0  0  0  0  0  0  0  0  0  0  0
   39.6540   29.2000   41.4480 N   0  0  0  0  0  0  0  0  0  0  0  0
   39.9160   30.5080   41.1960 C   0  0  0  0  0  0  0  0  0  0  0  0
   41.1090   30.8510   41.0120 O   0  0  0  0  0  0  0  0  0  0  0  0
   37.1160   27.1430   42.1170 H   0  0  0  0  0  0  0  0  0  0  0  0
   38.9110   26.7180   41.9020 H   0  0  0  0  0  0  0  0  0  0  0  0
  2  1  2  6  0  0  0
  2 21  1  0  0  0  0
  2  3  1  0  0  0  0
  2  5  1  0  0  0  0
  3  4  1  0  0  0  0
  5  7  1  0  0  0  0
  6  7  2  0  0  0  0
  6 11  1  0  0  0  0
  7  8  1  0  0  0  0
  8 12  1  0  0  0  0
  8  9  2  0  0  0  0
 10  9  1  0  0  0  0
 10 13  1  0  0  0  0
 11 10  2  0  0  0  0
 14  6  1  0  0  0  0
 15 14  1  0  0  0  0
 16 14  1  0  0  0  0
 17 14  1  0  0  0  0
 17 18  1  0  0  0  0
 17 19  1  0  0  0  0
 20 17  1  0  0  0  0
 22 27  1  0  0  0  0
 22 21  1  0  0  0  0
 23 22  2  0  0  0  0
 24 25  2  0  0  0  0
 24 23  1  0  0  0  0
 25 26  1  0  0  0  0
 26 30  1  0  0  0  0
 26 27  2  0  0  0  0
 28 23  1  0  0  0  0
 29 24  1  0  0  0  0
 30 36  1  0  0  0  0
 30 31  1  0  0  0  0
 31 32  2  0  0  0  0
 32 33  1  0  0  0  0
 33 34  1  0  0  0  0
 34 38  1  0  0  0  0
 35 33  2  0  0  0  0
 36 35  1  0  0  0  0
 37 36  2  0  0  0  0
 39 34  1  0  0  0  0
M  END
>  <minimizedAffinity>
-6.34495258

>  <minimizedRMSD>
0.653322041

$$$$
