
 OpenBabel03252508253D

 42 46  0  0  1  0  0  0  0  0999 V2000
   46.4070   32.3110   46.3210 C   0  0  1  0  0  0  0  0  0  0  0  0
   46.6700   32.5360   47.7510 C   0  0  0  0  0  0  0  0  0  0  0  0
   45.3830   31.8030   47.2070 C   0  0  2  0  0  0  0  0  0  0  0  0
   47.3230   31.7310   45.9420 H   0  0  0  0  0  0  0  0  0  0  0  0
   47.2470   31.8470   48.3900 H   0  0  0  0  0  0  0  0  0  0  0  0
   46.4880   33.5030   48.2410 H   0  0  0  0  0  0  0  0  0  0  0  0
   44.5260   32.4380   47.6130 H   0  0  0  0  0  0  0  0  0  0  0  0
   45.1590   30.3930   47.5410 C   0  0  0  0  0  0  0  0  0  0  0  0
   45.0520   29.8360   48.7750 C   0  0  0  0  0  0  0  0  0  0  0  0
   44.9470   28.4850   49.0450 C   0  0  0  0  0  0  0  0  0  0  0  0
   44.9520   27.6210   47.9380 C   0  0  0  0  0  0  0  0  0  0  0  0
   45.0580   28.1650   46.6580 C   0  0  0  0  0  0  0  0  0  0  0  0
   44.9980   27.2850   45.5950 C   0  0  0  0  0  0  0  0  0  0  0  0
   45.0290   27.7840   44.3030 C   0  0  0  0  0  0  0  0  0  0  0  0
   45.1160   29.1410   44.0760 C   0  0  0  0  0  0  0  0  0  0  0  0
   45.1750   29.9720   45.1700 C   0  0  0  0  0  0  0  0  0  0  0  0
   45.1560   29.5250   46.4780 C   0  0  0  0  0  0  0  0  0  0  0  0
   45.0540   30.5460   49.6010 H   0  0  0  0  0  0  0  0  0  0  0  0
   44.8630   28.1050   50.0550 H   0  0  0  0  0  0  0  0  0  0  0  0
   44.8740   26.5530   48.1010 H   0  0  0  0  0  0  0  0  0  0  0  0
   44.9280   26.2240   45.8000 H   0  0  0  0  0  0  0  0  0  0  0  0
   44.9790   26.9960   43.5350 H   0  0  0  0  0  0  0  0  0  0  0  0
   45.1240   29.3370   43.0170 H   0  0  0  0  0  0  0  0  0  0  0  0
   45.1490   30.9350   44.7490 H   0  0  0  0  0  0  0  0  0  0  0  0
   44.7900   35.3250   44.9310 C   0  0  0  0  0  0  0  0  0  0  0  0
   45.4670   35.4800   43.6740 C   0  0  0  0  0  0  0  0  0  0  0  0
   46.4870   34.5320   43.3430 C   0  0  0  0  0  0  0  0  0  0  0  0
   46.7750   33.5370   44.2130 N   0  0  0  0  0  0  0  0  0  0  0  0
   46.0830   33.4460   45.4050 C   0  0  0  0  0  0  0  0  0  0  0  0
   45.1300   34.3100   45.7460 N   0  0  0  0  0  0  0  0  0  0  0  0
   44.0240   36.0140   45.2080 H   0  0  0  0  0  0  0  0  0  0  0  0
   45.1970   36.2910   43.0180 H   0  0  0  0  0  0  0  0  0  0  0  0
   47.1660   34.6730   42.1020 N   0  0  0  0  0  0  0  0  0  0  0  0
   48.2500   35.4180   41.9490 C   0  0  0  0  0  3  0  0  0  0  0  0
   48.8320   35.4860   40.6980 C   0  0  0  0  0  3  0  0  0  0  0  0
   48.2980   34.7910   39.6210 C   0  0  0  0  0  0  0  0  0  0  0  0
   48.8020   34.7800   38.2960 N   0  0  0  0  0  0  0  0  0  0  0  0
   47.1950   34.0460   39.8270 N   0  0  0  0  0  0  0  0  0  0  0  0
   46.6380   33.9900   41.0510 C   0  0  0  0  0  0  0  0  0  0  0  0
   45.6080   33.2830   41.2040 O   0  0  0  0  0  0  0  0  0  0  0  0
   49.4830   34.1970   37.7480 H   0  0  0  0  0  0  0  0  0  0  0  0
   48.3140   35.5930   37.8300 H   0  0  0  0  0  0  0  0  0  0  0  0
  1  4  1  6  0  0  0
  1  3  1  0  0  0  0
  1  2  1  0  0  0  0
  2  6  1  0  0  0  0
  2  5  1  0  0  0  0
  3  8  1  0  0  0  0
  3  7  1  1  0  0  0
  3  2  1  0  0  0  0
  8  9  1  0  0  0  0
  9 10  2  0  0  0  0
  9 18  1  0  0  0  0
 10 19  1  0  0  0  0
 11 20  1  0  0  0  0
 11 10  1  0  0  0  0
 12 11  2  0  0  0  0
 13 21  1  0  0  0  0
 13 12  1  0  0  0  0
 14 13  2  0  0  0  0
 15 14  1  0  0  0  0
 15 16  2  0  0  0  0
 16 17  1  0  0  0  0
 17 12  1  0  0  0  0
 17  8  2  0  0  0  0
 22 14  1  0  0  0  0
 23 15  1  0  0  0  0
 24 16  1  0  0  0  0
 25 31  1  0  0  0  0
 25 30  1  0  0  0  0
 26 25  2  0  0  0  0
 27 26  1  0  0  0  0
 27 28  2  0  0  0  0
 28 29  1  0  0  0  0
 29 30  2  0  0  0  0
 29  1  1  0  0  0  0
 32 26  1  0  0  0  0
 33 27  1  0  0  0  0
 34 33  1  0  0  0  0
 35 34  2  0  0  0  0
 36 38  2  0  0  0  0
 36 35  1  0  0  0  0
 37 36  1  0  0  0  0
 38 39  1  0  0  0  0
 39 40  2  0  0  0  0
 39 33  1  0  0  0  0
 41 37  1  0  0  0  0
 42 37  1  0  0  0  0
M  END
>  <minimizedAffinity>
-6.29105949

>  <minimizedRMSD>
0.783542693

$$$$
