
 OpenBabel03252500573D

 39 41  0  0  0  0  0  0  0  0999 V2000
   43.6280   34.2370   39.2990 O   0  0  0  0  0  0  0  0  0  0  0  0
   43.4300   34.2680   40.8090 P   0  0  1  0  0  0  0  0  0  0  0  0
   43.3300   32.6640   41.3720 O   0  0  0  0  0  0  0  0  0  0  0  0
   43.4080   32.6770   42.3480 H   0  0  0  0  0  0  0  0  0  0  0  0
   44.7890   34.9790   41.5470 O   0  0  0  0  0  0  0  0  0  0  0  0
   46.8580   34.2560   42.3980 C   0  0  0  0  0  0  0  0  0  0  0  0
   45.5150   34.4720   42.6150 C   0  0  0  0  0  0  0  0  0  0  0  0
   44.9880   34.1700   43.8770 C   0  0  0  0  0  0  0  0  0  0  0  0
   45.8320   33.6840   44.8060 N   0  0  0  0  0  0  0  0  0  0  0  0
   47.1330   33.4800   44.5800 C   0  0  0  0  0  0  0  0  0  0  0  0
   47.6360   33.7690   43.3760 N   0  0  0  0  0  0  0  0  0  0  0  0
   43.9510   34.3460   44.0190 H   0  0  0  0  0  0  0  0  0  0  0  0
   47.8290   33.0890   45.3170 H   0  0  0  0  0  0  0  0  0  0  0  0
   47.4680   34.5530   41.1000 C   0  0  0  0  0  0  0  0  0  0  0  0
   46.7350   35.0670   40.4420 H   0  0  0  0  0  0  0  0  0  0  0  0
   47.7980   33.6300   40.5830 H   0  0  0  0  0  0  0  0  0  0  0  0
   48.6550   35.4510   41.3160 C   0  0  0  0  0  0  0  0  0  0  0  0
   49.4930   34.8680   41.6990 H   0  0  0  0  0  0  0  0  0  0  0  0
   48.3520   36.2580   42.0130 H   0  0  0  0  0  0  0  0  0  0  0  0
   48.9440   35.8710   40.3210 H   0  0  0  0  0  0  0  0  0  0  0  0
   41.9800   35.0400   41.2130 O   0  0  0  0  0  0  0  0  0  0  0  0
   40.7900   34.4150   40.8740 C   0  0  0  0  0  0  0  0  0  0  0  0
   39.8120   35.1650   40.2440 C   0  0  0  0  0  0  0  0  0  0  0  0
   38.5900   34.6180   39.8700 C   0  0  0  0  0  0  0  0  0  0  0  0
   38.3680   33.2950   40.1410 N   0  0  0  0  0  0  0  0  0  0  0  0
   39.3170   32.5840   40.7470 C   0  0  0  0  0  0  0  0  0  0  0  0
   40.4850   33.1150   41.1030 N   0  0  0  0  0  0  0  0  0  0  0  0
   40.0050   36.1950   40.0410 H   0  0  0  0  0  0  0  0  0  0  0  0
   37.8440   35.2450   39.3740 H   0  0  0  0  0  0  0  0  0  0  0  0
   39.0170   31.2140   40.9980 N   0  0  0  0  0  0  0  0  0  0  0  0
   38.1690   30.5360   40.1830 C   0  0  0  0  0  3  0  0  0  0  0  0
   37.9480   29.2150   40.5160 C   0  0  0  0  0  3  0  0  0  0  0  0
   38.5140   28.5570   41.5900 C   0  0  0  0  0  0  0  0  0  0  0  0
   38.2420   27.1920   41.8760 N   0  0  0  0  0  0  0  0  0  0  0  0
   39.3400   29.3090   42.3410 N   0  0  0  0  0  0  0  0  0  0  0  0
   39.5870   30.6120   42.0520 C   0  0  0  0  0  0  0  0  0  0  0  0
   40.3700   31.2490   42.7980 O   0  0  0  0  0  0  0  0  0  0  0  0
   37.5530   26.7060   41.2680 H   0  0  0  0  0  0  0  0  0  0  0  0
   38.7570   26.7680   42.6820 H   0  0  0  0  0  0  0  0  0  0  0  0
  2  1  2  6  0  0  0
  2 21  1  0  0  0  0
  2  3  1  0  0  0  0
  2  5  1  0  0  0  0
  3  4  1  0  0  0  0
  5  7  1  0  0  0  0
  6  7  2  0  0  0  0
  6 11  1  0  0  0  0
  7  8  1  0  0  0  0
  8 12  1  0  0  0  0
  8  9  2  0  0  0  0
 10  9  1  0  0  0  0
 10 13  1  0  0  0  0
 11 10  2  0  0  0  0
 14 17  1  0  0  0  0
 14  6  1  0  0  0  0
 15 14  1  0  0  0  0
 16 14  1  0  0  0  0
 17 18  1  0  0  0  0
 17 19  1  0  0  0  0
 20 17  1  0  0  0  0
 22 27  1  0  0  0  0
 22 21  1  0  0  0  0
 23 22  2  0  0  0  0
 24 25  2  0  0  0  0
 24 23  1  0  0  0  0
 25 26  1  0  0  0  0
 26 30  1  0  0  0  0
 26 27  2  0  0  0  0
 28 23  1  0  0  0  0
 29 24  1  0  0  0  0
 30 36  1  0  0  0  0
 31 32  2  0  0  0  0
 31 30  1  0  0  0  0
 32 33  1  0  0  0  0
 33 34  1  0  0  0  0
 33 35  2  0  0  0  0
 34 39  1  0  0  0  0
 36 35  1  0  0  0  0
 36 37  2  0  0  0  0
 38 34  1  0  0  0  0
M  END
>  <minimizedAffinity>
-6.11424732

>  <minimizedRMSD>
1.05455399

$$$$
