
 OpenBabel03252500573D

 39 41  0  0  0  0  0  0  0  0999 V2000
   43.7040   34.7900   40.1740 O   0  0  0  0  0  0  0  0  0  0  0  0
   43.2650   34.6150   41.6210 P   0  0  1  0  0  0  0  0  0  0  0  0
   43.2350   32.9510   41.9770 O   0  0  0  0  0  0  0  0  0  0  0  0
   43.1540   32.8470   42.9470 H   0  0  0  0  0  0  0  0  0  0  0  0
   44.4120   35.3330   42.6540 O   0  0  0  0  0  0  0  0  0  0  0  0
   46.5030   34.3310   43.0450 C   0  0  0  0  0  0  0  0  0  0  0  0
   45.2620   34.6780   43.5340 C   0  0  0  0  0  0  0  0  0  0  0  0
   44.9550   34.3510   44.8600 C   0  0  0  0  0  0  0  0  0  0  0  0
   45.8960   33.7140   45.5810 N   0  0  0  0  0  0  0  0  0  0  0  0
   47.0950   33.3830   45.0920 C   0  0  0  0  0  0  0  0  0  0  0  0
   47.3890   33.6950   43.8270 N   0  0  0  0  0  0  0  0  0  0  0  0
   43.9930   34.6300   45.2130 H   0  0  0  0  0  0  0  0  0  0  0  0
   47.8670   32.8690   45.6580 H   0  0  0  0  0  0  0  0  0  0  0  0
   46.8840   34.6450   41.6670 C   0  0  0  0  0  0  0  0  0  0  0  0
   46.1380   35.3320   41.2120 H   0  0  0  0  0  0  0  0  0  0  0  0
   46.9340   33.7340   41.0380 H   0  0  0  0  0  0  0  0  0  0  0  0
   48.2320   35.3140   41.6760 C   0  0  0  0  0  0  0  0  0  0  0  0
   49.0110   34.5690   41.8380 H   0  0  0  0  0  0  0  0  0  0  0  0
   48.2230   36.0900   42.4680 H   0  0  0  0  0  0  0  0  0  0  0  0
   48.3860   35.7730   40.6690 H   0  0  0  0  0  0  0  0  0  0  0  0
   41.7010   35.2130   41.8560 O   0  0  0  0  0  0  0  0  0  0  0  0
   40.6600   34.6140   41.1630 C   0  0  0  0  0  0  0  0  0  0  0  0
   39.9360   35.3850   40.2700 C   0  0  0  0  0  0  0  0  0  0  0  0
   38.8780   34.8640   39.5350 C   0  0  0  0  0  0  0  0  0  0  0  0
   38.5600   33.5450   39.7130 N   0  0  0  0  0  0  0  0  0  0  0  0
   39.2640   32.8130   40.5740 C   0  0  0  0  0  0  0  0  0  0  0  0
   40.2760   33.3200   41.2760 N   0  0  0  0  0  0  0  0  0  0  0  0
   40.2010   36.4110   40.1450 H   0  0  0  0  0  0  0  0  0  0  0  0
   38.3320   35.5070   38.8400 H   0  0  0  0  0  0  0  0  0  0  0  0
   38.8770   31.4490   40.7090 N   0  0  0  0  0  0  0  0  0  0  0  0
   37.7650   31.1180   41.4150 C   0  0  0  0  0  3  0  0  0  0  0  0
   37.4800   29.7690   41.4840 C   0  0  0  0  0  3  0  0  0  0  0  0
   38.2270   28.7650   40.9010 C   0  0  0  0  0  0  0  0  0  0  0  0
   37.8770   27.3920   41.0110 N   0  0  0  0  0  0  0  0  0  0  0  0
   39.3110   29.1880   40.2220 N   0  0  0  0  0  0  0  0  0  0  0  0
   39.6300   30.5040   40.1280 C   0  0  0  0  0  0  0  0  0  0  0  0
   40.6560   30.8230   39.4780 O   0  0  0  0  0  0  0  0  0  0  0  0
   37.0500   27.1560   41.5960 H   0  0  0  0  0  0  0  0  0  0  0  0
   38.4780   26.7090   40.4930 H   0  0  0  0  0  0  0  0  0  0  0  0
  2  1  2  6  0  0  0
  2 21  1  0  0  0  0
  2  3  1  0  0  0  0
  2  5  1  0  0  0  0
  3  4  1  0  0  0  0
  5  7  1  0  0  0  0
  6  7  2  0  0  0  0
  6 11  1  0  0  0  0
  7  8  1  0  0  0  0
  8 12  1  0  0  0  0
  8  9  2  0  0  0  0
 10  9  1  0  0  0  0
 10 13  1  0  0  0  0
 11 10  2  0  0  0  0
 14 17  1  0  0  0  0
 14  6  1  0  0  0  0
 15 14  1  0  0  0  0
 16 14  1  0  0  0  0
 17 18  1  0  0  0  0
 17 19  1  0  0  0  0
 20 17  1  0  0  0  0
 22 27  1  0  0  0  0
 22 21  1  0  0  0  0
 23 22  2  0  0  0  0
 24 25  2  0  0  0  0
 24 23  1  0  0  0  0
 25 26  1  0  0  0  0
 26 30  1  0  0  0  0
 26 27  2  0  0  0  0
 28 23  1  0  0  0  0
 29 24  1  0  0  0  0
 30 31  1  0  0  0  0
 31 32  2  0  0  0  0
 33 34  1  0  0  0  0
 33 32  1  0  0  0  0
 34 38  1  0  0  0  0
 35 33  2  0  0  0  0
 36 35  1  0  0  0  0
 36 30  1  0  0  0  0
 37 36  2  0  0  0  0
 39 34  1  0  0  0  0
M  END
>  <minimizedAffinity>
-5.79971075

>  <minimizedRMSD>
0.889407575

$$$$
