
 OpenBabel03252502353D

 41 43  0  0  1  0  0  0  0  0999 V2000
   36.0140   28.6240   38.7720 C   0  0  2  0  0  0  0  0  0  0  0  0
   35.1890   27.4830   38.1590 C   0  0  0  0  0  0  0  0  0  0  0  0
   34.2110   28.2190   37.2300 C   0  0  0  0  0  0  0  0  0  0  0  0
   35.0780   28.6220   36.0550 C   0  0  0  0  0  0  0  0  0  0  0  0
   36.1240   29.5860   36.4760 C   0  0  0  0  0  0  0  0  0  0  0  0
   36.8750   29.2410   37.7240 C   0  0  1  0  0  0  0  0  0  0  0  0
   35.2230   29.3070   39.1650 H   0  0  0  0  0  0  0  0  0  0  0  0
   35.8130   26.8050   37.5740 H   0  0  0  0  0  0  0  0  0  0  0  0
   34.5940   27.0070   38.9570 H   0  0  0  0  0  0  0  0  0  0  0  0
   33.9020   29.1900   37.7120 H   0  0  0  0  0  0  0  0  0  0  0  0
   33.3720   27.5940   36.9230 H   0  0  0  0  0  0  0  0  0  0  0  0
   34.4960   29.0850   35.2450 H   0  0  0  0  0  0  0  0  0  0  0  0
   35.5040   27.6730   35.6530 H   0  0  0  0  0  0  0  0  0  0  0  0
   35.7240   30.6210   36.4750 H   0  0  0  0  0  0  0  0  0  0  0  0
   36.8870   29.5970   35.6420 H   0  0  0  0  0  0  0  0  0  0  0  0
   37.6450   28.4860   37.4580 H   0  0  0  0  0  0  0  0  0  0  0  0
   37.5640   30.4000   38.1750 N   0  0  0  0  0  0  0  0  0  0  0  0
   37.0140   31.5030   38.6900 C   0  0  0  0  0  3  0  0  0  0  0  0
   37.7150   32.6110   39.1180 C   0  0  0  0  0  3  0  0  0  0  0  0
   39.1050   32.5730   39.0010 C   0  0  0  0  0  0  0  0  0  0  0  0
   39.9040   33.6820   39.4220 N   0  0  0  0  0  0  0  0  0  0  0  0
   39.6520   31.4600   38.4810 N   0  0  0  0  0  0  0  0  0  0  0  0
   38.9270   30.4120   38.0820 C   0  0  0  0  0  0  0  0  0  0  0  0
   39.5840   29.4340   37.6120 O   0  0  0  0  0  0  0  0  0  0  0  0
   40.3150   33.9270   40.3490 H   0  0  0  0  0  0  0  0  0  0  0  0
   40.0510   34.3050   38.5790 H   0  0  0  0  0  0  0  0  0  0  0  0
   37.4120   26.2150   41.2870 C   0  0  0  0  0  0  0  0  0  0  0  0
   36.6670   26.6760   40.1860 C   0  0  0  0  0  0  0  0  0  0  0  0
   36.7460   28.0510   39.8880 C   0  0  0  0  0  0  0  0  0  0  0  0
   37.5320   28.8270   40.6830 N   0  0  0  0  0  0  0  0  0  0  0  0
   38.2240   28.3530   41.7200 C   0  0  0  0  0  0  0  0  0  0  0  0
   38.1640   27.0400   42.0240 N   0  0  0  0  0  0  0  0  0  0  0  0
   36.0500   26.0360   39.5700 H   0  0  0  0  0  0  0  0  0  0  0  0
   37.3090   24.7500   41.5790 C   0  0  0  0  0  0  0  0  0  0  0  0
   36.4720   24.5080   42.6510 F   0  0  0  0  0  0  0  0  0  0  0  0
   36.8490   24.1120   40.4270 F   0  0  0  0  0  0  0  0  0  0  0  0
   38.5750   24.2280   41.8160 F   0  0  0  0  0  0  0  0  0  0  0  0
   39.0700   29.2520   42.5580 C   0  0  0  0  0  0  0  0  0  0  0  0
   39.5830   30.2820   41.8320 F   0  0  0  0  0  0  0  0  0  0  0  0
   40.1010   28.4960   43.1600 F   0  0  0  0  0  0  0  0  0  0  0  0
   38.3640   29.7400   43.6300 F   0  0  0  0  0  0  0  0  0  0  0  0
  1  7  1  1  0  0  0
  1 29  1  0  0  0  0
  2  1  1  0  0  0  0
  2  9  1  0  0  0  0
  3 10  1  0  0  0  0
  3  2  1  0  0  0  0
  4  5  1  0  0  0  0
  4  3  1  0  0  0  0
  5  6  1  0  0  0  0
  6 16  1  6  0  0  0
  6 17  1  0  0  0  0
  6  1  1  0  0  0  0
  8  2  1  0  0  0  0
 11  3  1  0  0  0  0
 12  4  1  0  0  0  0
 13  4  1  0  0  0  0
 14  5  1  0  0  0  0
 15  5  1  0  0  0  0
 17 18  1  0  0  0  0
 18 19  2  0  0  0  0
 20 19  1  0  0  0  0
 20 21  1  0  0  0  0
 21 25  1  0  0  0  0
 22 20  2  0  0  0  0
 23 17  1  0  0  0  0
 23 22  1  0  0  0  0
 24 23  2  0  0  0  0
 26 21  1  0  0  0  0
 27 34  1  0  0  0  0
 27 32  1  0  0  0  0
 28 27  2  0  0  0  0
 29 28  1  0  0  0  0
 29 30  2  0  0  0  0
 30 31  1  0  0  0  0
 31 32  2  0  0  0  0
 31 38  1  0  0  0  0
 33 28  1  0  0  0  0
 34 37  1  0  0  0  0
 34 35  1  0  0  0  0
 36 34  1  0  0  0  0
 38 40  1  0  0  0  0
 38 41  1  0  0  0  0
 39 38  1  0  0  0  0
M  END
>  <minimizedAffinity>
-6.1768384

$$$$

 OpenBabel03252502353D

 41 43  0  0  1  0  0  0  0  0999 V2000
   36.0490   28.4510   38.2440 C   0  0  2  0  0  0  0  0  0  0  0  0
   35.4890   27.5630   37.1220 C   0  0  0  0  0  0  0  0  0  0  0  0
   34.7540   28.5650   36.2180 C   0  0  0  0  0  0  0  0  0  0  0  0
   35.8790   29.2770   35.4960 C   0  0  0  0  0  0  0  0  0  0  0  0
   36.7150   30.0470   36.4490 C   0  0  0  0  0  0  0  0  0  0  0  0
   37.1220   29.3300   37.6990 C   0  0  1  0  0  0  0  0  0  0  0  0
   35.1420   29.0050   38.5860 H   0  0  0  0  0  0  0  0  0  0  0  0
   36.2850   27.0740   36.5600 H   0  0  0  0  0  0  0  0  0  0  0  0
   34.7300   26.8860   37.5520 H   0  0  0  0  0  0  0  0  0  0  0  0
   34.2710   29.3560   36.8580 H   0  0  0  0  0  0  0  0  0  0  0  0
   34.0670   28.0790   35.5240 H   0  0  0  0  0  0  0  0  0  0  0  0
   35.5100   29.9730   34.7290 H   0  0  0  0  0  0  0  0  0  0  0  0
   36.4530   28.4800   34.9670 H   0  0  0  0  0  0  0  0  0  0  0  0
   36.2700   31.0450   36.6400 H   0  0  0  0  0  0  0  0  0  0  0  0
   37.6720   30.2860   35.8980 H   0  0  0  0  0  0  0  0  0  0  0  0
   37.9780   28.6690   37.4460 H   0  0  0  0  0  0  0  0  0  0  0  0
   37.5940   30.2860   38.6380 N   0  0  0  0  0  0  0  0  0  0  0  0
   36.8850   31.2680   39.2000 C   0  0  0  0  0  3  0  0  0  0  0  0
   37.3780   32.1800   40.1110 C   0  0  0  0  0  3  0  0  0  0  0  0
   38.7220   32.0640   40.4680 C   0  0  0  0  0  0  0  0  0  0  0  0
   39.3080   32.9710   41.4050 N   0  0  0  0  0  0  0  0  0  0  0  0
   39.4310   31.0740   39.8990 N   0  0  0  0  0  0  0  0  0  0  0  0
   38.9040   30.2150   39.0210 C   0  0  0  0  0  0  0  0  0  0  0  0
   39.6970   29.3340   38.5690 O   0  0  0  0  0  0  0  0  0  0  0  0
   39.3660   32.9490   42.4470 H   0  0  0  0  0  0  0  0  0  0  0  0
   39.7310   33.7680   40.8530 H   0  0  0  0  0  0  0  0  0  0  0  0
   37.2750   25.4360   40.1120 C   0  0  0  0  0  0  0  0  0  0  0  0
   36.8660   26.2270   39.0220 C   0  0  0  0  0  0  0  0  0  0  0  0
   36.4870   27.5550   39.3000 C   0  0  0  0  0  0  0  0  0  0  0  0
   36.5430   27.9720   40.5940 N   0  0  0  0  0  0  0  0  0  0  0  0
   36.9370   27.1920   41.6020 C   0  0  0  0  0  0  0  0  0  0  0  0
   37.3050   25.9170   41.3590 N   0  0  0  0  0  0  0  0  0  0  0  0
   36.8310   25.8680   38.0020 H   0  0  0  0  0  0  0  0  0  0  0  0
   37.6720   24.0290   39.7860 C   0  0  0  0  0  0  0  0  0  0  0  0
   37.1970   23.6450   38.5470 F   0  0  0  0  0  0  0  0  0  0  0  0
   39.0640   23.9510   39.8380 F   0  0  0  0  0  0  0  0  0  0  0  0
   37.2120   23.1700   40.7770 F   0  0  0  0  0  0  0  0  0  0  0  0
   36.9780   27.7040   43.0030 C   0  0  0  0  0  0  0  0  0  0  0  0
   35.8360   27.4080   43.6800 F   0  0  0  0  0  0  0  0  0  0  0  0
   37.2080   29.0980   42.9840 F   0  0  0  0  0  0  0  0  0  0  0  0
   38.0660   27.2090   43.6790 F   0  0  0  0  0  0  0  0  0  0  0  0
  1  7  1  1  0  0  0
  1 29  1  0  0  0  0
  2  9  1  0  0  0  0
  2  1  1  0  0  0  0
  3 10  1  0  0  0  0
  3  2  1  0  0  0  0
  4  3  1  0  0  0  0
  4  5  1  0  0  0  0
  5 14  1  0  0  0  0
  5  6  1  0  0  0  0
  6 16  1  6  0  0  0
  6  1  1  0  0  0  0
  6 17  1  0  0  0  0
  8  2  1  0  0  0  0
 11  3  1  0  0  0  0
 12  4  1  0  0  0  0
 13  4  1  0  0  0  0
 15  5  1  0  0  0  0
 17 23  1  0  0  0  0
 17 18  1  0  0  0  0
 18 19  2  0  0  0  0
 19 20  1  0  0  0  0
 20 21  1  0  0  0  0
 21 25  1  0  0  0  0
 22 20  2  0  0  0  0
 23 22  1  0  0  0  0
 24 23  2  0  0  0  0
 26 21  1  0  0  0  0
 27 32  1  0  0  0  0
 28 29  1  0  0  0  0
 28 27  2  0  0  0  0
 29 30  2  0  0  0  0
 30 31  1  0  0  0  0
 31 38  1  0  0  0  0
 32 31  2  0  0  0  0
 33 28  1  0  0  0  0
 34 36  1  0  0  0  0
 34 27  1  0  0  0  0
 34 37  1  0  0  0  0
 35 34  1  0  0  0  0
 38 41  1  0  0  0  0
 38 39  1  0  0  0  0
 40 38  1  0  0  0  0
M  END
>  <minimizedAffinity>
-6.15851212

$$$$

 OpenBabel03252502353D

 41 43  0  0  1  0  0  0  0  0999 V2000
   36.2170   28.7410   38.2080 C   0  0  2  0  0  0  0  0  0  0  0  0
   35.7060   27.8310   37.0810 C   0  0  0  0  0  0  0  0  0  0  0  0
   34.9850   28.8120   36.1410 C   0  0  0  0  0  0  0  0  0  0  0  0
   36.1210   29.5320   35.4470 C   0  0  0  0  0  0  0  0  0  0  0  0
   36.9160   30.3260   36.4160 C   0  0  0  0  0  0  0  0  0  0  0  0
   37.2940   29.6300   37.6860 C   0  0  1  0  0  0  0  0  0  0  0  0
   35.2920   29.2860   38.5150 H   0  0  0  0  0  0  0  0  0  0  0  0
   36.5260   27.3480   36.5490 H   0  0  0  0  0  0  0  0  0  0  0  0
   34.9440   27.1480   37.4950 H   0  0  0  0  0  0  0  0  0  0  0  0
   34.4700   29.6030   36.7560 H   0  0  0  0  0  0  0  0  0  0  0  0
   34.3270   28.3070   35.4330 H   0  0  0  0  0  0  0  0  0  0  0  0
   35.7670   30.2130   34.6600 H   0  0  0  0  0  0  0  0  0  0  0  0
   36.7240   28.7370   34.9460 H   0  0  0  0  0  0  0  0  0  0  0  0
   36.4500   31.3190   36.5800 H   0  0  0  0  0  0  0  0  0  0  0  0
   37.8860   30.5730   35.8920 H   0  0  0  0  0  0  0  0  0  0  0  0
   38.1670   28.9790   37.4680 H   0  0  0  0  0  0  0  0  0  0  0  0
   37.7220   30.6040   38.6280 N   0  0  0  0  0  0  0  0  0  0  0  0
   36.9730   31.5640   39.1770 C   0  0  0  0  0  3  0  0  0  0  0  0
   37.4230   32.4950   40.0910 C   0  0  0  0  0  3  0  0  0  0  0  0
   38.7660   32.4250   40.4660 C   0  0  0  0  0  0  0  0  0  0  0  0
   39.3100   33.3530   41.4070 N   0  0  0  0  0  0  0  0  0  0  0  0
   39.5140   31.4560   39.9090 N   0  0  0  0  0  0  0  0  0  0  0  0
   39.0280   30.5780   39.0280 C   0  0  0  0  0  0  0  0  0  0  0  0
   39.8560   29.7220   38.5890 O   0  0  0  0  0  0  0  0  0  0  0  0
   39.3550   33.3360   42.4500 H   0  0  0  0  0  0  0  0  0  0  0  0
   39.7130   34.1620   40.8570 H   0  0  0  0  0  0  0  0  0  0  0  0
   37.0350   27.3740   41.6050 C   0  0  0  0  0  0  0  0  0  0  0  0
   36.6110   28.2950   40.6300 C   0  0  0  0  0  0  0  0  0  0  0  0
   36.6350   27.8650   39.2880 C   0  0  0  0  0  0  0  0  0  0  0  0
   37.0650   26.5980   39.0360 N   0  0  0  0  0  0  0  0  0  0  0  0
   37.4610   25.7530   39.9890 C   0  0  0  0  0  0  0  0  0  0  0  0
   37.4460   26.1430   41.2810 N   0  0  0  0  0  0  0  0  0  0  0  0
   36.2730   29.2960   40.8590 H   0  0  0  0  0  0  0  0  0  0  0  0
   36.9990   27.8580   43.0220 C   0  0  0  0  0  0  0  0  0  0  0  0
   35.8710   27.4060   43.6800 F   0  0  0  0  0  0  0  0  0  0  0  0
   38.1610   27.4200   43.6570 F   0  0  0  0  0  0  0  0  0  0  0  0
   37.0590   29.2460   43.0460 F   0  0  0  0  0  0  0  0  0  0  0  0
   37.9240   24.3750   39.6540 C   0  0  0  0  0  0  0  0  0  0  0  0
   38.0150   24.1880   38.3090 F   0  0  0  0  0  0  0  0  0  0  0  0
   37.0480   23.4320   40.2380 F   0  0  0  0  0  0  0  0  0  0  0  0
   39.1310   24.1000   40.2470 F   0  0  0  0  0  0  0  0  0  0  0  0
  1  7  1  1  0  0  0
  1 29  1  0  0  0  0
  2  9  1  0  0  0  0
  2  1  1  0  0  0  0
  3 10  1  0  0  0  0
  3  2  1  0  0  0  0
  4  3  1  0  0  0  0
  4  5  1  0  0  0  0
  5 14  1  0  0  0  0
  5  6  1  0  0  0  0
  6 16  1  6  0  0  0
  6  1  1  0  0  0  0
  6 17  1  0  0  0  0
  8  2  1  0  0  0  0
 11  3  1  0  0  0  0
 12  4  1  0  0  0  0
 13  4  1  0  0  0  0
 15  5  1  0  0  0  0
 17 23  1  0  0  0  0
 17 18  1  0  0  0  0
 18 19  2  0  0  0  0
 19 20  1  0  0  0  0
 20 21  1  0  0  0  0
 21 25  1  0  0  0  0
 22 20  2  0  0  0  0
 23 22  1  0  0  0  0
 24 23  2  0  0  0  0
 26 21  1  0  0  0  0
 27 34  1  0  0  0  0
 28 33  1  0  0  0  0
 28 27  2  0  0  0  0
 29 28  1  0  0  0  0
 30 29  2  0  0  0  0
 30 31  1  0  0  0  0
 31 32  2  0  0  0  0
 32 27  1  0  0  0  0
 34 37  1  0  0  0  0
 34 36  1  0  0  0  0
 34 35  1  0  0  0  0
 38 31  1  0  0  0  0
 38 40  1  0  0  0  0
 38 41  1  0  0  0  0
 39 38  1  0  0  0  0
M  END
>  <minimizedAffinity>
-6.15634012

$$$$

 OpenBabel03252502353D

 41 43  0  0  1  0  0  0  0  0999 V2000
   37.8620   26.8180   40.2470 C   0  0  2  0  0  0  0  0  0  0  0  0
   36.9980   25.5640   40.0480 C   0  0  0  0  0  0  0  0  0  0  0  0
   37.9140   24.4300   40.5350 C   0  0  0  0  0  0  0  0  0  0  0  0
   37.8820   24.5750   42.0420 C   0  0  0  0  0  0  0  0  0  0  0  0
   38.4840   25.8630   42.4630 C   0  0  0  0  0  0  0  0  0  0  0  0
   38.0450   27.0760   41.7030 C   0  0  1  0  0  0  0  0  0  0  0  0
   38.8050   26.5470   39.7150 H   0  0  0  0  0  0  0  0  0  0  0  0
   36.0950   25.5960   40.6580 H   0  0  0  0  0  0  0  0  0  0  0  0
   36.8330   25.4150   38.9670 H   0  0  0  0  0  0  0  0  0  0  0  0
   38.9770   24.6600   40.2420 H   0  0  0  0  0  0  0  0  0  0  0  0
   37.5720   23.4460   40.2120 H   0  0  0  0  0  0  0  0  0  0  0  0
   38.4220   23.7640   42.5520 H   0  0  0  0  0  0  0  0  0  0  0  0
   36.8080   24.4870   42.3320 H   0  0  0  0  0  0  0  0  0  0  0  0
   39.5870   25.7690   42.5430 H   0  0  0  0  0  0  0  0  0  0  0  0
   38.1550   26.0240   43.5320 H   0  0  0  0  0  0  0  0  0  0  0  0
   37.0550   27.3830   42.1010 H   0  0  0  0  0  0  0  0  0  0  0  0
   38.9530   28.1350   41.9760 N   0  0  0  0  0  0  0  0  0  0  0  0
   40.2630   28.1480   41.7170 C   0  0  0  0  0  3  0  0  0  0  0  0
   41.1150   29.1970   41.9950 C   0  0  0  0  0  3  0  0  0  0  0  0
   40.5610   30.3290   42.5950 C   0  0  0  0  0  0  0  0  0  0  0  0
   41.3770   31.4580   42.9150 N   0  0  0  0  0  0  0  0  0  0  0  0
   39.2410   30.3100   42.8520 N   0  0  0  0  0  0  0  0  0  0  0  0
   38.4590   29.2670   42.5610 C   0  0  0  0  0  0  0  0  0  0  0  0
   37.2340   29.3960   42.8640 O   0  0  0  0  0  0  0  0  0  0  0  0
   41.6570   32.2920   42.3540 H   0  0  0  0  0  0  0  0  0  0  0  0
   41.7070   31.3380   43.9130 H   0  0  0  0  0  0  0  0  0  0  0  0
   35.3220   28.8530   38.3790 C   0  0  0  0  0  0  0  0  0  0  0  0
   35.8760   27.7580   39.0660 C   0  0  0  0  0  0  0  0  0  0  0  0
   37.2000   27.8930   39.5280 C   0  0  0  0  0  0  0  0  0  0  0  0
   37.8420   29.0670   39.2750 N   0  0  0  0  0  0  0  0  0  0  0  0
   37.2830   30.0840   38.6190 C   0  0  0  0  0  0  0  0  0  0  0  0
   36.0160   29.9770   38.1680 N   0  0  0  0  0  0  0  0  0  0  0  0
   35.3420   26.8360   39.2520 H   0  0  0  0  0  0  0  0  0  0  0  0
   33.9140   28.6810   37.9000 C   0  0  0  0  0  0  0  0  0  0  0  0
   33.6460   27.3620   37.5870 F   0  0  0  0  0  0  0  0  0  0  0  0
   33.0580   29.1450   38.9000 F   0  0  0  0  0  0  0  0  0  0  0  0
   33.6860   29.5030   36.8030 F   0  0  0  0  0  0  0  0  0  0  0  0
   38.0360   31.3490   38.3710 C   0  0  0  0  0  0  0  0  0  0  0  0
   38.6940   31.3160   37.1810 F   0  0  0  0  0  0  0  0  0  0  0  0
   38.9330   31.5760   39.4380 F   0  0  0  0  0  0  0  0  0  0  0  0
   37.2020   32.4380   38.4160 F   0  0  0  0  0  0  0  0  0  0  0  0
  1  7  1  6  0  0  0
  1  6  1  0  0  0  0
  2  1  1  0  0  0  0
  2  3  1  0  0  0  0
  2  8  1  0  0  0  0
  3  4  1  0  0  0  0
  4 13  1  0  0  0  0
  4  5  1  0  0  0  0
  4 12  1  0  0  0  0
  5 14  1  0  0  0  0
  5 15  1  0  0  0  0
  6 17  1  0  0  0  0
  6 16  1  1  0  0  0
  6  5  1  0  0  0  0
  9  2  1  0  0  0  0
 10  3  1  0  0  0  0
 11  3  1  0  0  0  0
 17 23  1  0  0  0  0
 18 17  1  0  0  0  0
 18 19  2  0  0  0  0
 19 20  1  0  0  0  0
 20 22  2  0  0  0  0
 20 21  1  0  0  0  0
 21 26  1  0  0  0  0
 23 22  1  0  0  0  0
 23 24  2  0  0  0  0
 25 21  1  0  0  0  0
 27 28  1  0  0  0  0
 28 33  1  0  0  0  0
 28 29  2  0  0  0  0
 29  1  1  0  0  0  0
 30 29  1  0  0  0  0
 31 30  2  0  0  0  0
 32 27  2  0  0  0  0
 32 31  1  0  0  0  0
 34 27  1  0  0  0  0
 34 36  1  0  0  0  0
 35 34  1  0  0  0  0
 37 34  1  0  0  0  0
 38 41  1  0  0  0  0
 38 31  1  0  0  0  0
 38 40  1  0  0  0  0
 39 38  1  0  0  0  0
M  END
>  <minimizedAffinity>
-6.07725763

$$$$

 OpenBabel03252502353D

 41 43  0  0  1  0  0  0  0  0999 V2000
   37.6090   27.8190   40.8570 C   0  0  2  0  0  0  0  0  0  0  0  0
   37.0170   27.1420   42.1030 C   0  0  0  0  0  0  0  0  0  0  0  0
   38.0860   27.3960   43.1780 C   0  0  0  0  0  0  0  0  0  0  0  0
   37.8990   28.8580   43.5210 C   0  0  0  0  0  0  0  0  0  0  0  0
   38.2100   29.7200   42.3540 C   0  0  0  0  0  0  0  0  0  0  0  0
   37.6160   29.2980   41.0460 C   0  0  1  0  0  0  0  0  0  0  0  0
   38.6280   27.3670   40.7990 H   0  0  0  0  0  0  0  0  0  0  0  0
   36.0760   27.6030   42.4040 H   0  0  0  0  0  0  0  0  0  0  0  0
   36.9750   26.0530   41.9280 H   0  0  0  0  0  0  0  0  0  0  0  0
   39.1080   27.3340   42.7060 H   0  0  0  0  0  0  0  0  0  0  0  0
   37.9650   26.7530   44.0510 H   0  0  0  0  0  0  0  0  0  0  0  0
   38.5370   29.1770   44.3580 H   0  0  0  0  0  0  0  0  0  0  0  0
   36.8400   28.9580   43.8590 H   0  0  0  0  0  0  0  0  0  0  0  0
   39.2990   29.9210   42.2970 H   0  0  0  0  0  0  0  0  0  0  0  0
   37.7650   30.7320   42.5890 H   0  0  0  0  0  0  0  0  0  0  0  0
   36.5550   29.6260   41.0350 H   0  0  0  0  0  0  0  0  0  0  0  0
   38.2800   29.9930   40.0000 N   0  0  0  0  0  0  0  0  0  0  0  0
   39.4820   29.7090   39.4920 C   0  0  0  0  0  3  0  0  0  0  0  0
   40.0970   30.4080   38.4740 C   0  0  0  0  0  3  0  0  0  0  0  0
   39.4070   31.4950   37.9370 C   0  0  0  0  0  0  0  0  0  0  0  0
   39.9760   32.2700   36.8790 N   0  0  0  0  0  0  0  0  0  0  0  0
   38.1970   31.7760   38.4520 N   0  0  0  0  0  0  0  0  0  0  0  0
   37.6450   31.0660   39.4400 C   0  0  0  0  0  0  0  0  0  0  0  0
   36.4980   31.4520   39.8210 O   0  0  0  0  0  0  0  0  0  0  0  0
   39.9460   32.1560   35.8420 H   0  0  0  0  0  0  0  0  0  0  0  0
   40.4980   33.0770   37.3230 H   0  0  0  0  0  0  0  0  0  0  0  0
   36.3020   25.8040   37.9750 C   0  0  0  0  0  0  0  0  0  0  0  0
   37.1240   26.1600   39.0600 C   0  0  0  0  0  0  0  0  0  0  0  0
   36.8200   27.3640   39.7260 C   0  0  0  0  0  0  0  0  0  0  0  0
   35.7610   28.0890   39.2730 N   0  0  0  0  0  0  0  0  0  0  0  0
   35.0040   27.7180   38.2390 C   0  0  0  0  0  0  0  0  0  0  0  0
   35.2760   26.5690   37.5860 N   0  0  0  0  0  0  0  0  0  0  0  0
   37.9600   25.5630   39.3990 H   0  0  0  0  0  0  0  0  0  0  0  0
   36.6480   24.5200   37.2860 C   0  0  0  0  0  0  0  0  0  0  0  0
   37.6550   23.8460   37.9510 F   0  0  0  0  0  0  0  0  0  0  0  0
   35.4900   23.7450   37.2090 F   0  0  0  0  0  0  0  0  0  0  0  0
   37.0150   24.7760   35.9700 F   0  0  0  0  0  0  0  0  0  0  0  0
   33.8550   28.5540   37.7850 C   0  0  0  0  0  0  0  0  0  0  0  0
   33.1900   29.1070   38.8350 F   0  0  0  0  0  0  0  0  0  0  0  0
   32.9870   27.7660   36.9960 F   0  0  0  0  0  0  0  0  0  0  0  0
   34.2680   29.5370   36.9210 F   0  0  0  0  0  0  0  0  0  0  0  0
  1  7  1  6  0  0  0
  1  6  1  0  0  0  0
  1  2  1  0  0  0  0
  2  8  1  0  0  0  0
  2  3  1  0  0  0  0
  3  4  1  0  0  0  0
  3 11  1  0  0  0  0
  4 13  1  0  0  0  0
  4 12  1  0  0  0  0
  5 15  1  0  0  0  0
  5  4  1  0  0  0  0
  6 16  1  6  0  0  0
  6  5  1  0  0  0  0
  9  2  1  0  0  0  0
 10  3  1  0  0  0  0
 14  5  1  0  0  0  0
 17  6  1  0  0  0  0
 18 17  1  0  0  0  0
 19 18  2  0  0  0  0
 20 22  2  0  0  0  0
 20 19  1  0  0  0  0
 21 26  1  0  0  0  0
 21 20  1  0  0  0  0
 22 23  1  0  0  0  0
 23 24  2  0  0  0  0
 23 17  1  0  0  0  0
 25 21  1  0  0  0  0
 27 28  1  0  0  0  0
 28 33  1  0  0  0  0
 28 29  2  0  0  0  0
 29  1  1  0  0  0  0
 30 29  1  0  0  0  0
 31 30  2  0  0  0  0
 32 27  2  0  0  0  0
 32 31  1  0  0  0  0
 34 35  1  0  0  0  0
 34 27  1  0  0  0  0
 36 34  1  0  0  0  0
 37 34  1  0  0  0  0
 38 31  1  0  0  0  0
 38 39  1  0  0  0  0
 40 38  1  0  0  0  0
 41 38  1  0  0  0  0
M  END
>  <minimizedAffinity>
-5.93338776

$$$$

 OpenBabel03252502353D

 41 43  0  0  1  0  0  0  0  0999 V2000
   37.3220   27.4740   38.8320 C   0  0  2  0  0  0  0  0  0  0  0  0
   36.0810   27.7720   37.9780 C   0  0  0  0  0  0  0  0  0  0  0  0
   35.9690   26.5290   37.0810 C   0  0  0  0  0  0  0  0  0  0  0  0
   35.4340   25.4670   38.0180 C   0  0  0  0  0  0  0  0  0  0  0  0
   36.4110   25.1690   39.0950 C   0  0  0  0  0  0  0  0  0  0  0  0
   37.0290   26.3540   39.7710 C   0  0  1  0  0  0  0  0  0  0  0  0
   38.0910   27.2270   38.0620 H   0  0  0  0  0  0  0  0  0  0  0  0
   35.1840   27.8670   38.5900 H   0  0  0  0  0  0  0  0  0  0  0  0
   36.3000   28.6340   37.3240 H   0  0  0  0  0  0  0  0  0  0  0  0
   37.0040   26.1780   36.8030 H   0  0  0  0  0  0  0  0  0  0  0  0
   35.3130   26.6860   36.2250 H   0  0  0  0  0  0  0  0  0  0  0  0
   35.2050   24.5260   37.4980 H   0  0  0  0  0  0  0  0  0  0  0  0
   34.4700   25.8670   38.4120 H   0  0  0  0  0  0  0  0  0  0  0  0
   37.1550   24.4230   38.7490 H   0  0  0  0  0  0  0  0  0  0  0  0
   35.8330   24.6170   39.8930 H   0  0  0  0  0  0  0  0  0  0  0  0
   36.2960   26.7410   40.5110 H   0  0  0  0  0  0  0  0  0  0  0  0
   38.1690   25.9180   40.4980 N   0  0  0  0  0  0  0  0  0  0  0  0
   39.3680   25.6150   39.9930 C   0  0  0  0  0  3  0  0  0  0  0  0
   40.4550   25.1950   40.7320 C   0  0  0  0  0  3  0  0  0  0  0  0
   40.2840   25.0770   42.1120 C   0  0  0  0  0  0  0  0  0  0  0  0
   41.3610   24.6480   42.9470 N   0  0  0  0  0  0  0  0  0  0  0  0
   39.0740   25.3840   42.6140 N   0  0  0  0  0  0  0  0  0  0  0  0
   38.0530   25.7880   41.8530 C   0  0  0  0  0  0  0  0  0  0  0  0
   36.9730   26.0400   42.4700 O   0  0  0  0  0  0  0  0  0  0  0  0
   42.1290   25.1780   43.4150 H   0  0  0  0  0  0  0  0  0  0  0  0
   41.2830   23.5980   43.0500 H   0  0  0  0  0  0  0  0  0  0  0  0
   37.9480   31.1090   39.5280 C   0  0  0  0  0  0  0  0  0  0  0  0
   37.5730   29.9560   38.8130 C   0  0  0  0  0  0  0  0  0  0  0  0
   37.6830   28.7210   39.4840 C   0  0  0  0  0  0  0  0  0  0  0  0
   38.1430   28.7350   40.7650 N   0  0  0  0  0  0  0  0  0  0  0  0
   38.4890   29.8500   41.4100 C   0  0  0  0  0  0  0  0  0  0  0  0
   38.3910   31.0440   40.7880 N   0  0  0  0  0  0  0  0  0  0  0  0
   37.2100   29.9740   37.7950 H   0  0  0  0  0  0  0  0  0  0  0  0
   37.8190   32.4060   38.7910 C   0  0  0  0  0  0  0  0  0  0  0  0
   38.9980   33.1250   38.8280 F   0  0  0  0  0  0  0  0  0  0  0  0
   37.4460   32.1200   37.4770 F   0  0  0  0  0  0  0  0  0  0  0  0
   36.7730   33.1480   39.3240 F   0  0  0  0  0  0  0  0  0  0  0  0
   38.9870   29.8050   42.8160 C   0  0  0  0  0  0  0  0  0  0  0  0
   39.4740   31.0110   43.2150 F   0  0  0  0  0  0  0  0  0  0  0  0
   39.9720   28.7990   42.9300 F   0  0  0  0  0  0  0  0  0  0  0  0
   38.0030   29.3880   43.6770 F   0  0  0  0  0  0  0  0  0  0  0  0
  1  7  1  6  0  0  0
  1 29  1  0  0  0  0
  1  6  1  0  0  0  0
  2  8  1  0  0  0  0
  2  1  1  0  0  0  0
  3  2  1  0  0  0  0
  3  4  1  0  0  0  0
  4 13  1  0  0  0  0
  4  5  1  0  0  0  0
  5  6  1  0  0  0  0
  5 15  1  0  0  0  0
  6 17  1  0  0  0  0
  6 16  1  1  0  0  0
  9  2  1  0  0  0  0
 10  3  1  0  0  0  0
 11  3  1  0  0  0  0
 12  4  1  0  0  0  0
 14  5  1  0  0  0  0
 17 23  1  0  0  0  0
 18 17  1  0  0  0  0
 18 19  2  0  0  0  0
 19 20  1  0  0  0  0
 20 22  2  0  0  0  0
 20 21  1  0  0  0  0
 21 26  1  0  0  0  0
 21 25  1  0  0  0  0
 23 24  2  0  0  0  0
 23 22  1  0  0  0  0
 27 32  1  0  0  0  0
 28 29  1  0  0  0  0
 28 27  2  0  0  0  0
 29 30  2  0  0  0  0
 30 31  1  0  0  0  0
 31 38  1  0  0  0  0
 32 31  2  0  0  0  0
 33 28  1  0  0  0  0
 34 35  1  0  0  0  0
 34 37  1  0  0  0  0
 34 27  1  0  0  0  0
 36 34  1  0  0  0  0
 38 40  1  0  0  0  0
 38 39  1  0  0  0  0
 38 41  1  0  0  0  0
M  END
>  <minimizedAffinity>
-5.91491652

$$$$

 OpenBabel03252502353D

 41 43  0  0  1  0  0  0  0  0999 V2000
   37.5930   27.8490   40.7860 C   0  0  2  0  0  0  0  0  0  0  0  0
   36.9770   27.1640   42.0150 C   0  0  0  0  0  0  0  0  0  0  0  0
   38.0360   27.3890   43.1060 C   0  0  0  0  0  0  0  0  0  0  0  0
   37.8640   28.8500   43.4660 C   0  0  0  0  0  0  0  0  0  0  0  0
   38.2010   29.7220   42.3140 C   0  0  0  0  0  0  0  0  0  0  0  0
   37.6180   29.3250   40.9930 C   0  0  1  0  0  0  0  0  0  0  0  0
   38.6070   27.3840   40.7340 H   0  0  0  0  0  0  0  0  0  0  0  0
   36.0380   27.6340   42.3100 H   0  0  0  0  0  0  0  0  0  0  0  0
   36.9230   26.0780   41.8250 H   0  0  0  0  0  0  0  0  0  0  0  0
   39.0630   27.3200   42.6460 H   0  0  0  0  0  0  0  0  0  0  0  0
   37.8950   26.7370   43.9690 H   0  0  0  0  0  0  0  0  0  0  0  0
   38.4960   29.1490   44.3150 H   0  0  0  0  0  0  0  0  0  0  0  0
   36.8030   28.9590   43.7920 H   0  0  0  0  0  0  0  0  0  0  0  0
   39.2940   29.9090   42.2740 H   0  0  0  0  0  0  0  0  0  0  0  0
   37.7680   30.7370   42.5570 H   0  0  0  0  0  0  0  0  0  0  0  0
   36.5610   29.6680   40.9740 H   0  0  0  0  0  0  0  0  0  0  0  0
   38.3040   30.0250   39.9650 N   0  0  0  0  0  0  0  0  0  0  0  0
   39.4920   29.7090   39.4420 C   0  0  0  0  0  3  0  0  0  0  0  0
   40.1290   30.4120   38.4410 C   0  0  0  0  0  3  0  0  0  0  0  0
   39.4810   31.5420   37.9410 C   0  0  0  0  0  0  0  0  0  0  0  0
   40.0760   32.3260   36.9040 N   0  0  0  0  0  0  0  0  0  0  0  0
   38.2860   31.8550   38.4720 N   0  0  0  0  0  0  0  0  0  0  0  0
   37.7100   31.1380   39.4410 C   0  0  0  0  0  0  0  0  0  0  0  0
   36.5820   31.5580   39.8410 O   0  0  0  0  0  0  0  0  0  0  0  0
   40.0360   32.2440   35.8640 H   0  0  0  0  0  0  0  0  0  0  0  0
   40.6310   33.0980   37.3690 H   0  0  0  0  0  0  0  0  0  0  0  0
   35.0170   27.6710   38.0630 C   0  0  0  0  0  0  0  0  0  0  0  0
   35.7110   28.1700   39.1810 C   0  0  0  0  0  0  0  0  0  0  0  0
   36.8120   27.4190   39.6390 C   0  0  0  0  0  0  0  0  0  0  0  0
   37.1200   26.2740   38.9710 N   0  0  0  0  0  0  0  0  0  0  0  0
   36.4360   25.8330   37.9140 C   0  0  0  0  0  0  0  0  0  0  0  0
   35.3790   26.5350   37.4570 N   0  0  0  0  0  0  0  0  0  0  0  0
   35.4440   29.0840   39.6920 H   0  0  0  0  0  0  0  0  0  0  0  0
   33.8520   28.4890   37.5990 C   0  0  0  0  0  0  0  0  0  0  0  0
   34.2460   29.4660   36.7040 F   0  0  0  0  0  0  0  0  0  0  0  0
   32.9200   27.6250   37.0220 F   0  0  0  0  0  0  0  0  0  0  0  0
   33.2090   29.0560   38.6930 F   0  0  0  0  0  0  0  0  0  0  0  0
   36.8190   24.5680   37.2210 C   0  0  0  0  0  0  0  0  0  0  0  0
   36.2290   23.4830   37.7920 F   0  0  0  0  0  0  0  0  0  0  0  0
   38.2260   24.4400   37.2270 F   0  0  0  0  0  0  0  0  0  0  0  0
   36.5090   24.6210   35.8850 F   0  0  0  0  0  0  0  0  0  0  0  0
  1  7  1  6  0  0  0
  1  6  1  0  0  0  0
  1  2  1  0  0  0  0
  2  8  1  0  0  0  0
  2  3  1  0  0  0  0
  3  4  1  0  0  0  0
  3 11  1  0  0  0  0
  4 13  1  0  0  0  0
  4 12  1  0  0  0  0
  5 15  1  0  0  0  0
  5  4  1  0  0  0  0
  6 16  1  6  0  0  0
  6  5  1  0  0  0  0
  9  2  1  0  0  0  0
 10  3  1  0  0  0  0
 14  5  1  0  0  0  0
 17  6  1  0  0  0  0
 18 17  1  0  0  0  0
 19 18  2  0  0  0  0
 20 19  1  0  0  0  0
 20 22  2  0  0  0  0
 21 26  1  0  0  0  0
 21 20  1  0  0  0  0
 22 23  1  0  0  0  0
 23 24  2  0  0  0  0
 23 17  1  0  0  0  0
 25 21  1  0  0  0  0
 27 28  1  0  0  0  0
 28 29  2  0  0  0  0
 28 33  1  0  0  0  0
 29  1  1  0  0  0  0
 30 29  1  0  0  0  0
 31 30  2  0  0  0  0
 32 31  1  0  0  0  0
 32 27  2  0  0  0  0
 34 27  1  0  0  0  0
 34 37  1  0  0  0  0
 35 34  1  0  0  0  0
 36 34  1  0  0  0  0
 38 40  1  0  0  0  0
 38 39  1  0  0  0  0
 38 31  1  0  0  0  0
 41 38  1  0  0  0  0
M  END
>  <minimizedAffinity>
-5.8766942

$$$$

 OpenBabel03252502353D

 41 43  0  0  1  0  0  0  0  0999 V2000
   37.7360   28.5570   41.7370 C   0  0  2  0  0  0  0  0  0  0  0  0
   37.7590   28.0960   43.2020 C   0  0  0  0  0  0  0  0  0  0  0  0
   36.5280   27.1800   43.2990 C   0  0  0  0  0  0  0  0  0  0  0  0
   36.9700   25.9200   42.5860 C   0  0  0  0  0  0  0  0  0  0  0  0
   37.2310   26.1870   41.1500 C   0  0  0  0  0  0  0  0  0  0  0  0
   38.0470   27.4050   40.8430 C   0  0  1  0  0  0  0  0  0  0  0  0
   36.6960   28.9470   41.6250 H   0  0  0  0  0  0  0  0  0  0  0  0
   38.6600   27.5260   43.4310 H   0  0  0  0  0  0  0  0  0  0  0  0
   37.5750   28.9690   43.8510 H   0  0  0  0  0  0  0  0  0  0  0  0
   35.7010   27.6030   42.6600 H   0  0  0  0  0  0  0  0  0  0  0  0
   36.2310   26.9840   44.3290 H   0  0  0  0  0  0  0  0  0  0  0  0
   36.2220   25.1170   42.6510 H   0  0  0  0  0  0  0  0  0  0  0  0
   37.8780   25.5670   43.1290 H   0  0  0  0  0  0  0  0  0  0  0  0
   36.2890   26.1310   40.5660 H   0  0  0  0  0  0  0  0  0  0  0  0
   37.8280   25.3050   40.7740 H   0  0  0  0  0  0  0  0  0  0  0  0
   39.1140   27.1480   41.0130 H   0  0  0  0  0  0  0  0  0  0  0  0
   37.9040   27.7110   39.4630 N   0  0  0  0  0  0  0  0  0  0  0  0
   36.7840   28.0930   38.8440 C   0  0  0  0  0  3  0  0  0  0  0  0
   36.6820   28.3840   37.4990 C   0  0  0  0  0  3  0  0  0  0  0  0
   37.8410   28.2670   36.7300 C   0  0  0  0  0  0  0  0  0  0  0  0
   37.8180   28.5500   35.3290 N   0  0  0  0  0  0  0  0  0  0  0  0
   38.9650   27.8820   37.3590 N   0  0  0  0  0  0  0  0  0  0  0  0
   39.0100   27.6120   38.6670 C   0  0  0  0  0  0  0  0  0  0  0  0
   40.1420   27.2600   39.1180 O   0  0  0  0  0  0  0  0  0  0  0  0
   37.9480   29.4400   34.8000 H   0  0  0  0  0  0  0  0  0  0  0  0
   37.6320   27.6390   34.8250 H   0  0  0  0  0  0  0  0  0  0  0  0
   40.7840   30.7180   42.0860 C   0  0  0  0  0  0  0  0  0  0  0  0
   39.9470   29.5970   42.2380 C   0  0  0  0  0  0  0  0  0  0  0  0
   38.6740   29.6610   41.6370 C   0  0  0  0  0  0  0  0  0  0  0  0
   38.3500   30.7970   40.9600 N   0  0  0  0  0  0  0  0  0  0  0  0
   39.1710   31.8400   40.8390 C   0  0  0  0  0  0  0  0  0  0  0  0
   40.3950   31.8010   41.4050 N   0  0  0  0  0  0  0  0  0  0  0  0
   40.2310   28.7060   42.7820 H   0  0  0  0  0  0  0  0  0  0  0  0
   42.1300   30.6200   42.7350 C   0  0  0  0  0  0  0  0  0  0  0  0
   42.3090   31.6140   43.6780 F   0  0  0  0  0  0  0  0  0  0  0  0
   42.2420   29.3540   43.3110 F   0  0  0  0  0  0  0  0  0  0  0  0
   43.1240   30.6790   41.7650 F   0  0  0  0  0  0  0  0  0  0  0  0
   38.7620   33.0610   40.0840 C   0  0  0  0  0  0  0  0  0  0  0  0
   37.4300   33.3070   40.2130 F   0  0  0  0  0  0  0  0  0  0  0  0
   39.1190   32.9120   38.7260 F   0  0  0  0  0  0  0  0  0  0  0  0
   39.4830   34.1570   40.4870 F   0  0  0  0  0  0  0  0  0  0  0  0
  1  7  1  6  0  0  0
  1  2  1  0  0  0  0
  2  3  1  0  0  0  0
  2  8  1  0  0  0  0
  2  9  1  0  0  0  0
  3 11  1  0  0  0  0
  4 12  1  0  0  0  0
  4 13  1  0  0  0  0
  4  3  1  0  0  0  0
  5  4  1  0  0  0  0
  6 16  1  1  0  0  0
  6  5  1  0  0  0  0
  6  1  1  0  0  0  0
 10  3  1  0  0  0  0
 14  5  1  0  0  0  0
 15  5  1  0  0  0  0
 17  6  1  0  0  0  0
 18 17  1  0  0  0  0
 19 18  2  0  0  0  0
 20 22  2  0  0  0  0
 20 19  1  0  0  0  0
 21 20  1  0  0  0  0
 22 23  1  0  0  0  0
 23 24  2  0  0  0  0
 23 17  1  0  0  0  0
 25 21  1  0  0  0  0
 26 21  1  0  0  0  0
 27 28  1  0  0  0  0
 27 34  1  0  0  0  0
 28 33  1  0  0  0  0
 29  1  1  0  0  0  0
 29 28  2  0  0  0  0
 30 29  1  0  0  0  0
 31 30  2  0  0  0  0
 31 32  1  0  0  0  0
 32 27  2  0  0  0  0
 34 36  1  0  0  0  0
 34 35  1  0  0  0  0
 37 34  1  0  0  0  0
 38 39  1  0  0  0  0
 38 41  1  0  0  0  0
 38 31  1  0  0  0  0
 40 38  1  0  0  0  0
M  END
>  <minimizedAffinity>
-5.83600807

$$$$

 OpenBabel03252502353D

 41 43  0  0  1  0  0  0  0  0999 V2000
   35.5730   28.4350   38.2940 C   0  0  2  0  0  0  0  0  0  0  0  0
   34.6060   27.4880   37.5680 C   0  0  0  0  0  0  0  0  0  0  0  0
   33.7380   28.4470   36.7370 C   0  0  0  0  0  0  0  0  0  0  0  0
   34.6540   28.8590   35.6050 C   0  0  0  0  0  0  0  0  0  0  0  0
   35.8190   29.6220   36.1170 C   0  0  0  0  0  0  0  0  0  0  0  0
   36.5130   29.0440   37.3110 C   0  0  1  0  0  0  0  0  0  0  0  0
   34.8790   29.1690   38.7690 H   0  0  0  0  0  0  0  0  0  0  0  0
   35.1350   26.8030   36.9040 H   0  0  0  0  0  0  0  0  0  0  0  0
   33.9500   27.0100   38.3150 H   0  0  0  0  0  0  0  0  0  0  0  0
   33.5600   29.3910   37.3270 H   0  0  0  0  0  0  0  0  0  0  0  0
   32.8230   27.9780   36.3730 H   0  0  0  0  0  0  0  0  0  0  0  0
   34.1420   29.4820   34.8570 H   0  0  0  0  0  0  0  0  0  0  0  0
   34.9510   27.9120   35.0950 H   0  0  0  0  0  0  0  0  0  0  0  0
   35.5600   30.6940   36.2350 H   0  0  0  0  0  0  0  0  0  0  0  0
   36.5790   29.6240   35.2810 H   0  0  0  0  0  0  0  0  0  0  0  0
   37.1750   28.2270   36.9540 H   0  0  0  0  0  0  0  0  0  0  0  0
   37.3480   30.0440   37.8780 N   0  0  0  0  0  0  0  0  0  0  0  0
   36.9510   31.1750   38.4650 C   0  0  0  0  0  3  0  0  0  0  0  0
   37.7920   32.1250   39.0070 C   0  0  0  0  0  3  0  0  0  0  0  0
   39.1640   31.8800   38.9330 C   0  0  0  0  0  0  0  0  0  0  0  0
   40.1020   32.8150   39.4710 N   0  0  0  0  0  0  0  0  0  0  0  0
   39.5580   30.7390   38.3410 N   0  0  0  0  0  0  0  0  0  0  0  0
   38.7000   29.8500   37.8320 C   0  0  0  0  0  0  0  0  0  0  0  0
   39.2220   28.8210   37.3040 O   0  0  0  0  0  0  0  0  0  0  0  0
   40.5030   32.9220   40.4280 H   0  0  0  0  0  0  0  0  0  0  0  0
   40.3800   33.4710   38.6880 H   0  0  0  0  0  0  0  0  0  0  0  0
   36.9280   27.2730   41.5950 C   0  0  0  0  0  0  0  0  0  0  0  0
   36.2810   28.1050   40.6630 C   0  0  0  0  0  0  0  0  0  0  0  0
   36.2180   27.6490   39.3310 C   0  0  0  0  0  0  0  0  0  0  0  0
   36.7860   26.4440   39.0470 N   0  0  0  0  0  0  0  0  0  0  0  0
   37.3910   25.6830   39.9590 C   0  0  0  0  0  0  0  0  0  0  0  0
   37.4630   26.1000   41.2410 N   0  0  0  0  0  0  0  0  0  0  0  0
   35.8380   29.0580   40.9170 H   0  0  0  0  0  0  0  0  0  0  0  0
   36.9790   27.7830   43.0020 C   0  0  0  0  0  0  0  0  0  0  0  0
   38.1030   27.3260   43.6640 F   0  0  0  0  0  0  0  0  0  0  0  0
   36.9550   29.1780   42.9560 F   0  0  0  0  0  0  0  0  0  0  0  0
   35.8240   27.4110   43.6790 F   0  0  0  0  0  0  0  0  0  0  0  0
   37.9970   24.3710   39.5890 C   0  0  0  0  0  0  0  0  0  0  0  0
   37.7480   24.0500   38.2910 F   0  0  0  0  0  0  0  0  0  0  0  0
   37.5100   23.3700   40.4600 F   0  0  0  0  0  0  0  0  0  0  0  0
   39.3500   24.3660   39.8220 F   0  0  0  0  0  0  0  0  0  0  0  0
  1  7  1  1  0  0  0
  1 29  1  0  0  0  0
  2  1  1  0  0  0  0
  2  9  1  0  0  0  0
  3 10  1  0  0  0  0
  3  2  1  0  0  0  0
  4  5  1  0  0  0  0
  4  3  1  0  0  0  0
  5 14  1  0  0  0  0
  5  6  1  0  0  0  0
  6 16  1  6  0  0  0
  6 17  1  0  0  0  0
  6  1  1  0  0  0  0
  8  2  1  0  0  0  0
 11  3  1  0  0  0  0
 12  4  1  0  0  0  0
 13  4  1  0  0  0  0
 15  5  1  0  0  0  0
 17 18  1  0  0  0  0
 18 19  2  0  0  0  0
 20 19  1  0  0  0  0
 20 21  1  0  0  0  0
 21 25  1  0  0  0  0
 22 20  2  0  0  0  0
 23 17  1  0  0  0  0
 23 22  1  0  0  0  0
 24 23  2  0  0  0  0
 26 21  1  0  0  0  0
 27 34  1  0  0  0  0
 28 33  1  0  0  0  0
 28 27  2  0  0  0  0
 29 28  1  0  0  0  0
 30 29  2  0  0  0  0
 30 31  1  0  0  0  0
 31 32  2  0  0  0  0
 32 27  1  0  0  0  0
 34 35  1  0  0  0  0
 34 37  1  0  0  0  0
 36 34  1  0  0  0  0
 38 41  1  0  0  0  0
 38 31  1  0  0  0  0
 38 40  1  0  0  0  0
 39 38  1  0  0  0  0
M  END
>  <minimizedAffinity>
-5.83059788

$$$$
