
 OpenBabel03252500573D

 39 41  0  0  0  0  0  0  0  0999 V2000
   43.8540   34.9860   40.2870 O   0  0  0  0  0  0  0  0  0  0  0  0
   43.3730   34.7850   41.7180 P   0  0  1  0  0  0  0  0  0  0  0  0
   43.2810   33.1130   42.0250 O   0  0  0  0  0  0  0  0  0  0  0  0
   43.1720   32.9850   42.9890 H   0  0  0  0  0  0  0  0  0  0  0  0
   44.5140   35.4370   42.8000 O   0  0  0  0  0  0  0  0  0  0  0  0
   46.4560   34.2030   43.2850 C   0  0  0  0  0  0  0  0  0  0  0  0
   45.2670   34.7390   43.7320 C   0  0  0  0  0  0  0  0  0  0  0  0
   44.9120   34.5430   45.0730 C   0  0  0  0  0  0  0  0  0  0  0  0
   45.7590   33.8400   45.8470 N   0  0  0  0  0  0  0  0  0  0  0  0
   46.9090   33.3260   45.3990 C   0  0  0  0  0  0  0  0  0  0  0  0
   47.2480   33.5130   44.1200 N   0  0  0  0  0  0  0  0  0  0  0  0
   43.9930   34.9660   45.3920 H   0  0  0  0  0  0  0  0  0  0  0  0
   47.6040   32.7560   46.0080 H   0  0  0  0  0  0  0  0  0  0  0  0
   46.8830   34.3730   41.8960 C   0  0  0  0  0  0  0  0  0  0  0  0
   46.0730   34.8510   41.3030 H   0  0  0  0  0  0  0  0  0  0  0  0
   47.1230   33.4020   41.4200 H   0  0  0  0  0  0  0  0  0  0  0  0
   48.1030   35.2530   41.8660 C   0  0  0  0  0  0  0  0  0  0  0  0
   48.9760   34.6820   42.1800 H   0  0  0  0  0  0  0  0  0  0  0  0
   47.9120   36.1240   42.5260 H   0  0  0  0  0  0  0  0  0  0  0  0
   48.2550   35.5800   40.8090 H   0  0  0  0  0  0  0  0  0  0  0  0
   41.8220   35.4270   41.9300 O   0  0  0  0  0  0  0  0  0  0  0  0
   40.7550   34.7680   41.3390 C   0  0  0  0  0  0  0  0  0  0  0  0
   39.9850   35.4580   40.4200 C   0  0  0  0  0  0  0  0  0  0  0  0
   38.8980   34.8740   39.7820 C   0  0  0  0  0  0  0  0  0  0  0  0
   38.5980   33.5730   40.0850 N   0  0  0  0  0  0  0  0  0  0  0  0
   39.3460   32.9190   40.9710 C   0  0  0  0  0  0  0  0  0  0  0  0
   40.3860   33.4860   41.5780 N   0  0  0  0  0  0  0  0  0  0  0  0
   40.2360   36.4720   40.1970 H   0  0  0  0  0  0  0  0  0  0  0  0
   38.3150   35.4540   39.0610 H   0  0  0  0  0  0  0  0  0  0  0  0
   38.9750   31.5700   41.2380 N   0  0  0  0  0  0  0  0  0  0  0  0
   37.6750   31.1870   41.1590 C   0  0  0  0  0  3  0  0  0  0  0  0
   37.4260   29.8580   41.4380 C   0  0  0  0  0  3  0  0  0  0  0  0
   38.3810   28.9210   41.7800 C   0  0  0  0  0  0  0  0  0  0  0  0
   38.0540   27.5660   42.0540 N   0  0  0  0  0  0  0  0  0  0  0  0
   39.6400   29.3930   41.8320 N   0  0  0  0  0  0  0  0  0  0  0  0
   39.9330   30.6920   41.5670 C   0  0  0  0  0  0  0  0  0  0  0  0
   41.1320   31.0580   41.6370 O   0  0  0  0  0  0  0  0  0  0  0  0
   37.0480   27.3040   42.0350 H   0  0  0  0  0  0  0  0  0  0  0  0
   38.8520   26.9200   42.2570 H   0  0  0  0  0  0  0  0  0  0  0  0
  2  1  2  6  0  0  0
  2 21  1  0  0  0  0
  2  3  1  0  0  0  0
  2  5  1  0  0  0  0
  3  4  1  0  0  0  0
  5  7  1  0  0  0  0
  6  7  2  0  0  0  0
  6 11  1  0  0  0  0
  7  8  1  0  0  0  0
  8 12  1  0  0  0  0
  8  9  2  0  0  0  0
 10  9  1  0  0  0  0
 10 13  1  0  0  0  0
 11 10  2  0  0  0  0
 14  6  1  0  0  0  0
 15 14  1  0  0  0  0
 16 14  1  0  0  0  0
 17 14  1  0  0  0  0
 17 18  1  0  0  0  0
 17 19  1  0  0  0  0
 20 17  1  0  0  0  0
 22 27  1  0  0  0  0
 22 21  1  0  0  0  0
 23 22  2  0  0  0  0
 24 25  2  0  0  0  0
 24 23  1  0  0  0  0
 25 26  1  0  0  0  0
 26 30  1  0  0  0  0
 26 27  2  0  0  0  0
 28 23  1  0  0  0  0
 29 24  1  0  0  0  0
 30 36  1  0  0  0  0
 31 30  1  0  0  0  0
 31 32  2  0  0  0  0
 32 33  1  0  0  0  0
 33 35  2  0  0  0  0
 33 34  1  0  0  0  0
 34 39  1  0  0  0  0
 36 37  2  0  0  0  0
 36 35  1  0  0  0  0
 38 34  1  0  0  0  0
M  END
>  <minimizedAffinity>
-6.48531914

>  <minimizedRMSD>
0.613053441

$$$$
