
 OpenBabel03252508253D

 42 46  0  0  1  0  0  0  0  0999 V2000
   46.2780   32.2840   46.3820 C   0  0  1  0  0  0  0  0  0  0  0  0
   46.1760   32.4270   47.8420 C   0  0  0  0  0  0  0  0  0  0  0  0
   45.1780   31.5600   46.9810 C   0  0  2  0  0  0  0  0  0  0  0  0
   47.3370   31.8790   46.1990 H   0  0  0  0  0  0  0  0  0  0  0  0
   46.7010   31.7800   48.5660 H   0  0  0  0  0  0  0  0  0  0  0  0
   45.7360   33.3140   48.3210 H   0  0  0  0  0  0  0  0  0  0  0  0
   44.1620   32.0270   47.2050 H   0  0  0  0  0  0  0  0  0  0  0  0
   45.1170   30.1100   47.1880 C   0  0  0  0  0  0  0  0  0  0  0  0
   45.0570   29.4390   48.3660 C   0  0  0  0  0  0  0  0  0  0  0  0
   45.1070   28.0660   48.5170 C   0  0  0  0  0  0  0  0  0  0  0  0
   45.2310   27.3090   47.3420 C   0  0  0  0  0  0  0  0  0  0  0  0
   45.2930   27.9720   46.1160 C   0  0  0  0  0  0  0  0  0  0  0  0
   45.3530   27.1870   44.9810 C   0  0  0  0  0  0  0  0  0  0  0  0
   45.3450   27.7970   43.7360 C   0  0  0  0  0  0  0  0  0  0  0  0
   45.2750   29.1700   43.6280 C   0  0  0  0  0  0  0  0  0  0  0  0
   45.2190   29.9030   44.7900 C   0  0  0  0  0  0  0  0  0  0  0  0
   45.2320   29.3440   46.0550 C   0  0  0  0  0  0  0  0  0  0  0  0
   44.9630   30.0690   49.2500 H   0  0  0  0  0  0  0  0  0  0  0  0
   45.0530   27.5920   49.4890 H   0  0  0  0  0  0  0  0  0  0  0  0
   45.2770   26.2290   47.4110 H   0  0  0  0  0  0  0  0  0  0  0  0
   45.4050   26.1110   45.0920 H   0  0  0  0  0  0  0  0  0  0  0  0
   45.4000   27.0790   42.9040 H   0  0  0  0  0  0  0  0  0  0  0  0
   45.2760   29.4580   42.5900 H   0  0  0  0  0  0  0  0  0  0  0  0
   45.0860   30.8900   44.4520 H   0  0  0  0  0  0  0  0  0  0  0  0
   44.7640   35.3610   45.0130 C   0  0  0  0  0  0  0  0  0  0  0  0
   45.4260   35.4880   43.7450 C   0  0  0  0  0  0  0  0  0  0  0  0
   46.4010   34.4980   43.4000 C   0  0  0  0  0  0  0  0  0  0  0  0
   46.6620   33.4920   44.2670 N   0  0  0  0  0  0  0  0  0  0  0  0
   45.9860   33.4310   45.4690 C   0  0  0  0  0  0  0  0  0  0  0  0
   45.0750   34.3330   45.8250 N   0  0  0  0  0  0  0  0  0  0  0  0
   44.0320   36.0810   45.3010 H   0  0  0  0  0  0  0  0  0  0  0  0
   45.1800   36.3090   43.0930 H   0  0  0  0  0  0  0  0  0  0  0  0
   47.0660   34.6100   42.1480 N   0  0  0  0  0  0  0  0  0  0  0  0
   48.1580   35.3380   41.9680 C   0  0  0  0  0  3  0  0  0  0  0  0
   48.7240   35.3780   40.7090 C   0  0  0  0  0  3  0  0  0  0  0  0
   48.1670   34.6730   39.6500 C   0  0  0  0  0  0  0  0  0  0  0  0
   48.6530   34.6350   38.3200 N   0  0  0  0  0  0  0  0  0  0  0  0
   47.0570   33.9460   39.8830 N   0  0  0  0  0  0  0  0  0  0  0  0
   46.5150   33.9160   41.1150 C   0  0  0  0  0  0  0  0  0  0  0  0
   45.4770   33.2260   41.2920 O   0  0  0  0  0  0  0  0  0  0  0  0
   49.3190   34.0330   37.7720 H   0  0  0  0  0  0  0  0  0  0  0  0
   48.1690   35.4450   37.8470 H   0  0  0  0  0  0  0  0  0  0  0  0
  1  4  1  6  0  0  0
  1  3  1  0  0  0  0
  1  2  1  0  0  0  0
  2  6  1  0  0  0  0
  2  5  1  0  0  0  0
  3  8  1  0  0  0  0
  3  7  1  6  0  0  0
  3  2  1  0  0  0  0
  8  9  1  0  0  0  0
  9 10  2  0  0  0  0
  9 18  1  0  0  0  0
 10 19  1  0  0  0  0
 11 20  1  0  0  0  0
 11 10  1  0  0  0  0
 12 11  2  0  0  0  0
 13 21  1  0  0  0  0
 13 12  1  0  0  0  0
 14 13  2  0  0  0  0
 15 14  1  0  0  0  0
 15 16  2  0  0  0  0
 16 17  1  0  0  0  0
 17 12  1  0  0  0  0
 17  8  2  0  0  0  0
 22 14  1  0  0  0  0
 23 15  1  0  0  0  0
 24 16  1  0  0  0  0
 25 31  1  0  0  0  0
 25 30  1  0  0  0  0
 26 25  2  0  0  0  0
 27 26  1  0  0  0  0
 27 28  2  0  0  0  0
 28 29  1  0  0  0  0
 29 30  2  0  0  0  0
 29  1  1  0  0  0  0
 32 26  1  0  0  0  0
 33 27  1  0  0  0  0
 34 33  1  0  0  0  0
 35 34  2  0  0  0  0
 36 38  2  0  0  0  0
 36 35  1  0  0  0  0
 37 36  1  0  0  0  0
 38 39  1  0  0  0  0
 39 40  2  0  0  0  0
 39 33  1  0  0  0  0
 41 37  1  0  0  0  0
 42 37  1  0  0  0  0
M  END
>  <minimizedAffinity>
-6.11865044

>  <minimizedRMSD>
0.880241871

$$$$
