REMARK  Name = 
REMARK  4 active torsions:
REMARK  status: ('A' for Active; 'I' for Inactive)
REMARK    1  A    between atoms: C_3  and  O_7
REMARK    2  A    between atoms: O_7  and  P_9
REMARK    3  A    between atoms: P_9  and  O_10
REMARK    4  A    between atoms: P_9  and  O_11
REMARK                            x       y       z     vdW  Elec       q    Type
REMARK                         _______ _______ _______ _____ _____    ______ ____
ROOT
ATOM      1  C   UNL     1      44.583  35.985  44.509  0.00  0.00    +0.000 A 
ATOM      2  C   UNL     1      45.227  35.989  43.255  0.00  0.00    +0.000 A 
ATOM      3  C   UNL     1      46.100  34.953  42.975  0.00  0.00    +0.000 A 
ATOM      4  N   UNL     1      46.297  33.986  43.914  0.00  0.00    +0.000 NA
ATOM      5  C   UNL     1      45.670  34.010  45.096  0.00  0.00    +0.000 A 
ATOM      6  N   UNL     1      44.808  35.008  45.404  0.00  0.00    +0.000 NA
ATOM      7  H   UNL     1      43.889  36.738  44.827  0.00  0.00    +0.000 HD
ATOM      8  H   UNL     1      44.981  36.820  42.598  0.00  0.00    +0.000 HD
ATOM      9  N   UNL     1      45.995  32.919  45.952  0.00  0.00    +0.000 N 
ATOM     10  C   UNL     1      45.239  32.789  47.057  0.00  0.00    +0.000 A 
ATOM     11  C   UNL     1      45.555  31.733  47.886  0.00  0.00    +0.000 A 
ATOM     12  C   UNL     1      46.602  30.914  47.517  0.00  0.00    +0.000 A 
ATOM     13  N   UNL     1      47.016  29.796  48.293  0.00  0.00    +0.000 N 
ATOM     14  N   UNL     1      47.327  31.104  46.382  0.00  0.00    +0.000 NA
ATOM     15  C   UNL     1      47.020  32.142  45.562  0.00  0.00    +0.000 A 
ATOM     16  O   UNL     1      47.644  32.381  44.497  0.00  0.00    +0.000 OA
ATOM     17  H   UNL     1      47.881  30.125  48.777  0.00  0.00    +0.000 HD
ATOM     18  H   UNL     1      46.901  28.813  48.629  0.00  0.00    +0.000 HD
ENDROOT
BRANCH   3  19
ATOM     19  O   UNL     1      46.721  34.984  41.729  0.00  0.00    +0.000 OA
BRANCH  19  21
ATOM     20  O   UNL     1      48.646  33.330  40.968  0.00  0.00    +0.000 OA
ATOM     21  P   UNL     1      48.407  34.683  41.634  0.00  0.00    +0.000 P 
BRANCH  21  22
ATOM     22  O   UNL     1      49.120  35.932  40.778  0.00  0.00    +0.000 OA
ATOM     23  H   UNL     1      49.420  36.636  41.390  0.00  0.00    +0.000 HD
ENDBRANCH  21  22
BRANCH  21  24
ATOM     24  O   UNL     1      48.995  34.581  43.219  0.00  0.00    +0.000 OA
ATOM     25  H   UNL     1      48.762  33.654  43.526  0.00  0.00    +0.000 HD
ENDBRANCH  21  24
ENDBRANCH  19  21
ENDBRANCH   3  19
TORSDOF 4
