REMARK  Name = 
REMARK  3 active torsions:
REMARK  status: ('A' for Active; 'I' for Inactive)
REMARK    1  A    between atoms: C_1  and  C_5
REMARK    2  A    between atoms: C_2  and  C_10
REMARK    3  A    between atoms: C_14  and  N_26
REMARK                            x       y       z     vdW  Elec       q    Type
REMARK                         _______ _______ _______ _____ _____    ______ ____
ROOT
ATOM      1  C   UNL     1      47.837  34.353  40.840  0.00  0.00    +0.000 C 
ATOM      2  O   UNL     1      48.461  35.349  40.426  0.00  0.00    +0.000 OA
ATOM      3  C   UNL     1      48.822  34.929  41.757  0.00  0.00    +0.000 C 
ATOM      4  C   UNL     1      49.936  33.932  42.095  0.00  0.00    +0.000 C 
ATOM      5  C   UNL     1      49.150  34.555  43.114  0.00  0.00    +0.000 C 
ATOM      6  H   UNL     1      48.366  33.473  40.252  0.00  0.00    +0.000 HD
ATOM      7  H   UNL     1      50.926  34.294  41.755  0.00  0.00    +0.000 HD
ATOM      8  H   UNL     1      49.811  32.855  41.883  0.00  0.00    +0.000 HD
ATOM      9  H   UNL     1      48.332  33.923  43.573  0.00  0.00    +0.000 HD
ENDROOT
BRANCH   5  10
ATOM     10  N   UNL     1      49.742  35.597  43.945  0.00  0.00    +0.000 N 
ATOM     11  C   UNL     1      49.424  36.896  43.787  0.00  0.00    +0.000 A 
ATOM     12  C   UNL     1      50.044  37.777  44.624  0.00  0.00    +0.000 A 
ATOM     13  C   UNL     1      50.952  37.410  45.595  0.00  0.00    +0.000 A 
ATOM     14  N   UNL     1      51.568  38.372  46.441  0.00  0.00    +0.000 N 
ATOM     15  N   UNL     1      51.233  36.088  45.707  0.00  0.00    +0.000 NA
ATOM     16  C   UNL     1      50.637  35.204  44.897  0.00  0.00    +0.000 A 
ATOM     17  O   UNL     1      50.917  33.989  45.024  0.00  0.00    +0.000 OA
ATOM     18  H   UNL     1      52.619  38.403  46.585  0.00  0.00    +0.000 HD
ATOM     19  H   UNL     1      51.161  39.146  47.020  0.00  0.00    +0.000 HD
ENDBRANCH   5  10
BRANCH   1  21
ATOM     20  C   UNL     1      45.285  33.994  40.946  0.00  0.00    +0.000 C 
ATOM     21  C   UNL     1      46.514  34.150  40.222  0.00  0.00    +0.000 C 
ATOM     22  C   UNL     1      45.958  32.798  40.478  0.00  0.00    +0.000 C 
ATOM     23  H   UNL     1      44.340  34.316  40.413  0.00  0.00    +0.000 HD
ATOM     24  H   UNL     1      46.410  34.457  39.138  0.00  0.00    +0.000 HD
ATOM     25  H   UNL     1      45.508  32.200  39.649  0.00  0.00    +0.000 HD
ATOM     26  H   UNL     1      46.419  32.103  41.228  0.00  0.00    +0.000 HD
BRANCH  20  28
ATOM     27  C   UNL     1      44.954  35.698  42.661  0.00  0.00    +0.000 A 
ATOM     28  C   UNL     1      45.234  34.372  42.363  0.00  0.00    +0.000 A 
ATOM     29  C   UNL     1      45.394  33.442  43.383  0.00  0.00    +0.000 A 
ATOM     30  N   UNL     1      45.259  33.904  44.659  0.00  0.00    +0.000 NA
ATOM     31  C   UNL     1      44.983  35.199  44.949  0.00  0.00    +0.000 A 
ATOM     32  N   UNL     1      44.833  36.090  43.929  0.00  0.00    +0.000 NA
ATOM     33  H   UNL     1      44.828  36.434  41.878  0.00  0.00    +0.000 HD
ATOM     34  H   UNL     1      45.612  32.420  43.171  0.00  0.00    +0.000 HD
ATOM     35  H   UNL     1      44.914  35.362  46.011  0.00  0.00    +0.000 HD
ENDBRANCH  20  28
ENDBRANCH   1  21
TORSDOF 3
