
 OpenBabel03252508223D

 28 29  0  0  0  0  0  0  0  0999 V2000
   38.5870   27.4130   43.6170 C   0  0  0  0  0  0  0  0  0  0  0  0
   38.9470   27.2720   44.6360 H   0  0  0  0  0  0  0  0  0  0  0  0
   39.3960   27.9490   43.0610 H   0  0  0  0  0  0  0  0  0  0  0  0
   38.3250   26.1750   42.8550 C   0  0  0  0  0  0  0  0  0  0  0  0
   37.1320   25.8250   42.2830 C   0  0  0  0  0  0  0  0  0  0  0  0
   36.8900   24.6730   41.5750 C   0  0  0  0  0  0  0  0  0  0  0  0
   37.9710   23.8090   41.4460 C   0  0  0  0  0  0  0  0  0  0  0  0
   39.1900   24.1250   42.0060 C   0  0  0  0  0  0  0  0  0  0  0  0
   39.3810   25.2880   42.7060 C   0  0  0  0  0  0  0  0  0  0  0  0
   36.3360   26.5630   42.4340 H   0  0  0  0  0  0  0  0  0  0  0  0
   35.9280   24.4710   41.1590 H   0  0  0  0  0  0  0  0  0  0  0  0
   37.7880   22.8940   40.8870 H   0  0  0  0  0  0  0  0  0  0  0  0
   39.9700   23.3960   41.8560 H   0  0  0  0  0  0  0  0  0  0  0  0
   40.7280   25.4820   43.2400 C   0  0  0  0  0  0  0  0  0  0  0  0
   40.9750   26.1450   44.0670 H   0  0  0  0  0  0  0  0  0  0  0  0
   41.7690   24.9040   42.8090 O   0  0  0  0  0  0  0  0  0  0  0  0
   37.3860   28.3620   43.5200 C   0  0  0  0  0  0  0  0  0  0  0  0
   36.5720   27.8220   43.0380 H   0  0  0  0  0  0  0  0  0  0  0  0
   37.0810   28.7310   44.5020 H   0  0  0  0  0  0  0  0  0  0  0  0
   39.3500   31.0740   41.7720 C   0  0  0  0  0  0  0  0  0  0  0  0
   39.0440   30.0150   42.6580 C   0  0  0  0  0  0  0  0  0  0  0  0
   37.7690   29.4780   42.6120 C   0  0  0  0  0  0  0  0  0  0  0  0
   36.8850   30.0050   41.7130 N   0  0  0  0  0  0  0  0  0  0  0  0
   37.2100   31.0050   40.8920 C   0  0  0  0  0  0  0  0  0  0  0  0
   38.4400   31.5490   40.9100 N   0  0  0  0  0  0  0  0  0  0  0  0
   40.3900   31.4060   41.9110 H   0  0  0  0  0  0  0  0  0  0  0  0
   39.7310   29.6000   43.3620 H   0  0  0  0  0  0  0  0  0  0  0  0
   36.4850   31.3980   40.1910 H   0  0  0  0  0  0  0  0  0  0  0  0
  1  2  1  0  0  0  0
  3  1  1  0  0  0  0
  4  1  1  0  0  0  0
  5 10  1  0  0  0  0
  5  4  2  0  0  0  0
  6  5  1  0  0  0  0
  7  6  2  0  0  0  0
  7  8  1  0  0  0  0
  8  9  2  0  0  0  0
  9  4  1  0  0  0  0
  9 14  1  0  0  0  0
 11  6  1  0  0  0  0
 12  7  1  0  0  0  0
 13  8  1  0  0  0  0
 14 15  1  0  0  0  0
 16 14  2  0  0  0  0
 17  1  1  0  0  0  0
 17 19  1  0  0  0  0
 18 17  1  0  0  0  0
 20 26  1  0  0  0  0
 20 21  1  0  0  0  0
 21 27  1  0  0  0  0
 22 21  2  0  0  0  0
 22 17  1  0  0  0  0
 23 22  1  0  0  0  0
 24 25  1  0  0  0  0
 24 23  2  0  0  0  0
 25 20  2  0  0  0  0
 28 24  1  0  0  0  0
M  END
>  <minimizedAffinity>
-4.8026166

$$$$

 OpenBabel03252508223D

 28 29  0  0  0  0  0  0  0  0999 V2000
   35.7870   30.2880   40.6040 C   0  0  0  0  0  0  0  0  0  0  0  0
   36.2990   30.8070   41.4150 H   0  0  0  0  0  0  0  0  0  0  0  0
   34.7480   30.7000   40.5640 H   0  0  0  0  0  0  0  0  0  0  0  0
   36.3550   30.4920   39.2560 C   0  0  0  0  0  0  0  0  0  0  0  0
   36.2010   29.6520   38.1870 C   0  0  0  0  0  0  0  0  0  0  0  0
   36.7310   29.8430   36.9340 C   0  0  0  0  0  0  0  0  0  0  0  0
   37.4850   31.0000   36.7710 C   0  0  0  0  0  0  0  0  0  0  0  0
   37.6630   31.8730   37.8230 C   0  0  0  0  0  0  0  0  0  0  0  0
   37.1140   31.6370   39.0560 C   0  0  0  0  0  0  0  0  0  0  0  0
   35.5940   28.7670   38.4050 H   0  0  0  0  0  0  0  0  0  0  0  0
   36.5650   29.1380   36.1500 H   0  0  0  0  0  0  0  0  0  0  0  0
   37.9080   31.1590   35.7810 H   0  0  0  0  0  0  0  0  0  0  0  0
   38.2620   32.7420   37.6030 H   0  0  0  0  0  0  0  0  0  0  0  0
   37.3920   32.6530   40.0690 C   0  0  0  0  0  0  0  0  0  0  0  0
   37.4440   32.4600   41.1390 H   0  0  0  0  0  0  0  0  0  0  0  0
   37.6080   33.8770   39.8270 O   0  0  0  0  0  0  0  0  0  0  0  0
   35.5790   28.7930   40.8730 C   0  0  0  0  0  0  0  0  0  0  0  0
   34.6510   28.6790   41.4330 H   0  0  0  0  0  0  0  0  0  0  0  0
   35.5480   28.2150   39.9470 H   0  0  0  0  0  0  0  0  0  0  0  0
   38.0500   26.6230   42.7330 C   0  0  0  0  0  0  0  0  0  0  0  0
   36.9900   26.9940   41.8740 C   0  0  0  0  0  0  0  0  0  0  0  0
   36.6850   28.3400   41.7620 C   0  0  0  0  0  0  0  0  0  0  0  0
   37.4270   29.2270   42.4900 N   0  0  0  0  0  0  0  0  0  0  0  0
   38.4210   28.8390   43.2920 C   0  0  0  0  0  0  0  0  0  0  0  0
   38.7440   27.5400   43.4220 N   0  0  0  0  0  0  0  0  0  0  0  0
   38.1870   25.5320   42.7290 H   0  0  0  0  0  0  0  0  0  0  0  0
   36.4070   26.3060   41.3020 H   0  0  0  0  0  0  0  0  0  0  0  0
   38.9890   29.5690   43.8530 H   0  0  0  0  0  0  0  0  0  0  0  0
  1 17  1  0  0  0  0
  1  2  1  0  0  0  0
  3  1  1  0  0  0  0
  4  1  1  0  0  0  0
  5 10  1  0  0  0  0
  5  4  2  0  0  0  0
  6  5  1  0  0  0  0
  7  6  2  0  0  0  0
  7  8  1  0  0  0  0
  8  9  2  0  0  0  0
  9  4  1  0  0  0  0
  9 14  1  0  0  0  0
 11  6  1  0  0  0  0
 12  7  1  0  0  0  0
 13  8  1  0  0  0  0
 14 15  1  0  0  0  0
 16 14  2  0  0  0  0
 17 18  1  0  0  0  0
 17 22  1  0  0  0  0
 19 17  1  0  0  0  0
 20 25  1  0  0  0  0
 21 20  2  0  0  0  0
 22 21  1  0  0  0  0
 22 23  2  0  0  0  0
 23 24  1  0  0  0  0
 24 25  2  0  0  0  0
 24 28  1  0  0  0  0
 26 20  1  0  0  0  0
 27 21  1  0  0  0  0
M  END
>  <minimizedAffinity>
-4.73860264

$$$$

 OpenBabel03252508223D

 28 29  0  0  0  0  0  0  0  0999 V2000
   37.0020   27.3630   42.4210 C   0  0  0  0  0  0  0  0  0  0  0  0
   36.7770   27.5550   41.3720 H   0  0  0  0  0  0  0  0  0  0  0  0
   36.0840   26.9080   42.8690 H   0  0  0  0  0  0  0  0  0  0  0  0
   38.0950   26.4020   42.6750 C   0  0  0  0  0  0  0  0  0  0  0  0
   39.2020   26.6340   43.4450 C   0  0  0  0  0  0  0  0  0  0  0  0
   40.2180   25.7390   43.6800 C   0  0  0  0  0  0  0  0  0  0  0  0
   40.0790   24.4990   43.0660 C   0  0  0  0  0  0  0  0  0  0  0  0
   38.9780   24.2260   42.2830 C   0  0  0  0  0  0  0  0  0  0  0  0
   37.9900   25.1540   42.0790 C   0  0  0  0  0  0  0  0  0  0  0  0
   39.2300   27.6350   43.8890 H   0  0  0  0  0  0  0  0  0  0  0  0
   41.0510   25.9970   44.2940 H   0  0  0  0  0  0  0  0  0  0  0  0
   40.8790   23.7840   43.2470 H   0  0  0  0  0  0  0  0  0  0  0  0
   38.9560   23.2390   41.8480 H   0  0  0  0  0  0  0  0  0  0  0  0
   36.8880   24.7160   41.2240 C   0  0  0  0  0  0  0  0  0  0  0  0
   36.0480   25.3430   40.9300 H   0  0  0  0  0  0  0  0  0  0  0  0
   36.7760   23.5590   40.7210 O   0  0  0  0  0  0  0  0  0  0  0  0
   37.2160   28.6410   43.2420 C   0  0  0  0  0  0  0  0  0  0  0  0
   36.2700   28.8930   43.7210 H   0  0  0  0  0  0  0  0  0  0  0  0
   38.0070   28.5170   43.9850 H   0  0  0  0  0  0  0  0  0  0  0  0
   39.0640   31.2560   41.2380 C   0  0  0  0  0  0  0  0  0  0  0  0
   38.8260   30.2110   42.1600 C   0  0  0  0  0  0  0  0  0  0  0  0
   37.5310   29.7400   42.2870 C   0  0  0  0  0  0  0  0  0  0  0  0
   36.5620   30.3140   41.5130 N   0  0  0  0  0  0  0  0  0  0  0  0
   36.8250   31.2990   40.6520 C   0  0  0  0  0  0  0  0  0  0  0  0
   38.0720   31.7790   40.5040 N   0  0  0  0  0  0  0  0  0  0  0  0
   40.1280   31.5340   41.2350 H   0  0  0  0  0  0  0  0  0  0  0  0
   39.5780   29.7590   42.7670 H   0  0  0  0  0  0  0  0  0  0  0  0
   36.0330   31.7300   40.0540 H   0  0  0  0  0  0  0  0  0  0  0  0
  1  4  1  0  0  0  0
  1  3  1  0  0  0  0
  1 17  1  0  0  0  0
  2  1  1  0  0  0  0
  4  5  1  0  0  0  0
  5  6  2  0  0  0  0
  5 10  1  0  0  0  0
  6 11  1  0  0  0  0
  7 12  1  0  0  0  0
  7  6  1  0  0  0  0
  8  7  2  0  0  0  0
  9  8  1  0  0  0  0
  9  4  2  0  0  0  0
 13  8  1  0  0  0  0
 14  9  1  0  0  0  0
 15 14  1  0  0  0  0
 16 14  2  0  0  0  0
 17 18  1  0  0  0  0
 17 19  1  0  0  0  0
 20 21  1  0  0  0  0
 21 22  2  0  0  0  0
 21 27  1  0  0  0  0
 22 17  1  0  0  0  0
 23 22  1  0  0  0  0
 24 23  2  0  0  0  0
 25 24  1  0  0  0  0
 25 20  2  0  0  0  0
 26 20  1  0  0  0  0
 28 24  1  0  0  0  0
M  END
>  <minimizedAffinity>
-4.67509794

$$$$

 OpenBabel03252508223D

 28 29  0  0  0  0  0  0  0  0999 V2000
   38.7710   29.3590   42.9350 C   0  0  0  0  0  0  0  0  0  0  0  0
   39.7110   28.9000   42.6280 H   0  0  0  0  0  0  0  0  0  0  0  0
   39.0140   30.0650   43.7680 H   0  0  0  0  0  0  0  0  0  0  0  0
   38.0900   30.1690   41.9050 C   0  0  0  0  0  0  0  0  0  0  0  0
   36.7950   30.0130   41.4900 C   0  0  0  0  0  0  0  0  0  0  0  0
   36.1630   30.7670   40.5310 C   0  0  0  0  0  0  0  0  0  0  0  0
   36.9340   31.7680   39.9500 C   0  0  0  0  0  0  0  0  0  0  0  0
   38.2420   31.9590   40.3400 C   0  0  0  0  0  0  0  0  0  0  0  0
   38.8280   31.1780   41.3020 C   0  0  0  0  0  0  0  0  0  0  0  0
   36.2630   29.2030   42.0000 H   0  0  0  0  0  0  0  0  0  0  0  0
   35.1470   30.5820   40.2630 H   0  0  0  0  0  0  0  0  0  0  0  0
   36.4410   32.3700   39.1900 H   0  0  0  0  0  0  0  0  0  0  0  0
   38.7620   32.7570   39.8350 H   0  0  0  0  0  0  0  0  0  0  0  0
   40.2210   31.5020   41.6070 C   0  0  0  0  0  0  0  0  0  0  0  0
   40.8570   30.9240   42.2750 H   0  0  0  0  0  0  0  0  0  0  0  0
   40.8560   32.4880   41.1310 O   0  0  0  0  0  0  0  0  0  0  0  0
   37.7870   28.3690   43.5680 C   0  0  0  0  0  0  0  0  0  0  0  0
   37.8590   28.4720   44.6510 H   0  0  0  0  0  0  0  0  0  0  0  0
   36.7630   28.5400   43.2290 H   0  0  0  0  0  0  0  0  0  0  0  0
   37.9690   24.8730   42.1480 C   0  0  0  0  0  0  0  0  0  0  0  0
   37.4760   26.1660   42.4380 C   0  0  0  0  0  0  0  0  0  0  0  0
   38.2530   26.9950   43.2280 C   0  0  0  0  0  0  0  0  0  0  0  0
   39.4490   26.5130   43.6800 N   0  0  0  0  0  0  0  0  0  0  0  0
   39.8820   25.2860   43.3850 C   0  0  0  0  0  0  0  0  0  0  0  0
   39.1520   24.4550   42.6190 N   0  0  0  0  0  0  0  0  0  0  0  0
   37.2590   24.3210   41.5140 H   0  0  0  0  0  0  0  0  0  0  0  0
   36.5430   26.5480   42.0880 H   0  0  0  0  0  0  0  0  0  0  0  0
   40.8350   24.9360   43.7590 H   0  0  0  0  0  0  0  0  0  0  0  0
  1 17  1  0  0  0  0
  1  3  1  0  0  0  0
  2  1  1  0  0  0  0
  4  1  1  0  0  0  0
  5  4  1  0  0  0  0
  5 10  1  0  0  0  0
  6  5  2  0  0  0  0
  7  8  2  0  0  0  0
  7  6  1  0  0  0  0
  8  9  1  0  0  0  0
  9 14  1  0  0  0  0
  9  4  2  0  0  0  0
 11  6  1  0  0  0  0
 12  7  1  0  0  0  0
 13  8  1  0  0  0  0
 14 15  1  0  0  0  0
 16 14  2  0  0  0  0
 17 18  1  0  0  0  0
 19 17  1  0  0  0  0
 20 21  2  0  0  0  0
 20 25  1  0  0  0  0
 21 22  1  0  0  0  0
 22 17  1  0  0  0  0
 22 23  2  0  0  0  0
 24 23  1  0  0  0  0
 24 28  1  0  0  0  0
 25 24  2  0  0  0  0
 26 20  1  0  0  0  0
 27 21  1  0  0  0  0
M  END
>  <minimizedAffinity>
-4.46160889

$$$$

 OpenBabel03252508223D

 28 29  0  0  0  0  0  0  0  0999 V2000
   38.4740   28.9930   43.1090 C   0  0  0  0  0  0  0  0  0  0  0  0
   37.4950   29.0690   42.6360 H   0  0  0  0  0  0  0  0  0  0  0  0
   38.3410   29.3000   44.1760 H   0  0  0  0  0  0  0  0  0  0  0  0
   39.0620   27.6390   43.1480 C   0  0  0  0  0  0  0  0  0  0  0  0
   40.2970   27.3160   43.6410 C   0  0  0  0  0  0  0  0  0  0  0  0
   40.8420   26.0550   43.6770 C   0  0  0  0  0  0  0  0  0  0  0  0
   40.0440   25.0410   43.1580 C   0  0  0  0  0  0  0  0  0  0  0  0
   38.7940   25.3250   42.6520 C   0  0  0  0  0  0  0  0  0  0  0  0
   38.2940   26.6010   42.6390 C   0  0  0  0  0  0  0  0  0  0  0  0
   40.8560   28.1740   44.0290 H   0  0  0  0  0  0  0  0  0  0  0  0
   41.8160   25.8850   44.0790 H   0  0  0  0  0  0  0  0  0  0  0  0
   40.4680   24.0400   43.1820 H   0  0  0  0  0  0  0  0  0  0  0  0
   38.2480   24.4760   42.2710 H   0  0  0  0  0  0  0  0  0  0  0  0
   36.9550   26.7420   42.0700 C   0  0  0  0  0  0  0  0  0  0  0  0
   36.0310   26.5400   42.6080 H   0  0  0  0  0  0  0  0  0  0  0  0
   36.7060   27.1170   40.8860 O   0  0  0  0  0  0  0  0  0  0  0  0
   39.4940   29.9990   42.5620 C   0  0  0  0  0  0  0  0  0  0  0  0
   39.8780   30.5760   43.4030 H   0  0  0  0  0  0  0  0  0  0  0  0
   40.3070   29.5030   42.0270 H   0  0  0  0  0  0  0  0  0  0  0  0
   36.8740   31.5480   40.3240 C   0  0  0  0  0  0  0  0  0  0  0  0
   37.5240   30.6070   41.1550 C   0  0  0  0  0  0  0  0  0  0  0  0
   38.7590   30.9480   41.6800 C   0  0  0  0  0  0  0  0  0  0  0  0
   39.2730   32.1750   41.3630 N   0  0  0  0  0  0  0  0  0  0  0  0
   38.6280   33.0370   40.5750 C   0  0  0  0  0  0  0  0  0  0  0  0
   37.4280   32.7370   40.0490 N   0  0  0  0  0  0  0  0  0  0  0  0
   35.9080   31.1530   39.9770 H   0  0  0  0  0  0  0  0  0  0  0  0
   37.1290   29.6480   41.4070 H   0  0  0  0  0  0  0  0  0  0  0  0
   39.0640   34.0000   40.3440 H   0  0  0  0  0  0  0  0  0  0  0  0
  1  4  1  0  0  0  0
  1  3  1  0  0  0  0
  2  1  1  0  0  0  0
  4  5  1  0  0  0  0
  5  6  2  0  0  0  0
  5 10  1  0  0  0  0
  6 11  1  0  0  0  0
  7 12  1  0  0  0  0
  7  6  1  0  0  0  0
  8  7  2  0  0  0  0
  9  8  1  0  0  0  0
  9  4  2  0  0  0  0
 13  8  1  0  0  0  0
 14 15  1  0  0  0  0
 14  9  1  0  0  0  0
 16 14  2  0  0  0  0
 17  1  1  0  0  0  0
 17 18  1  0  0  0  0
 19 17  1  0  0  0  0
 20 21  1  0  0  0  0
 21 27  1  0  0  0  0
 21 22  2  0  0  0  0
 22 17  1  0  0  0  0
 23 22  1  0  0  0  0
 24 23  2  0  0  0  0
 25 20  2  0  0  0  0
 25 24  1  0  0  0  0
 26 20  1  0  0  0  0
 28 24  1  0  0  0  0
M  END
>  <minimizedAffinity>
-4.45102453

$$$$

 OpenBabel03252508223D

 28 29  0  0  0  0  0  0  0  0999 V2000
   36.4260   30.3250   41.4120 C   0  0  0  0  0  0  0  0  0  0  0  0
   35.8350   30.9660   42.0650 H   0  0  0  0  0  0  0  0  0  0  0  0
   37.2150   30.9720   40.9530 H   0  0  0  0  0  0  0  0  0  0  0  0
   37.1470   29.2230   42.0810 C   0  0  0  0  0  0  0  0  0  0  0  0
   36.6210   28.0010   42.4030 C   0  0  0  0  0  0  0  0  0  0  0  0
   37.2930   26.9770   43.0250 C   0  0  0  0  0  0  0  0  0  0  0  0
   38.6210   27.2370   43.3430 C   0  0  0  0  0  0  0  0  0  0  0  0
   39.1890   28.4540   43.0360 C   0  0  0  0  0  0  0  0  0  0  0  0
   38.4760   29.4460   42.4140 C   0  0  0  0  0  0  0  0  0  0  0  0
   35.5700   27.8840   42.1160 H   0  0  0  0  0  0  0  0  0  0  0  0
   36.8100   26.0510   43.2430 H   0  0  0  0  0  0  0  0  0  0  0  0
   39.1600   26.4310   43.8370 H   0  0  0  0  0  0  0  0  0  0  0  0
   40.2230   28.5660   43.3200 H   0  0  0  0  0  0  0  0  0  0  0  0
   39.2150   30.6800   42.1550 C   0  0  0  0  0  0  0  0  0  0  0  0
   39.2700   31.5220   42.8410 H   0  0  0  0  0  0  0  0  0  0  0  0
   39.8810   30.9180   41.1040 O   0  0  0  0  0  0  0  0  0  0  0  0
   35.6420   29.7930   40.2070 C   0  0  0  0  0  0  0  0  0  0  0  0
   35.7230   28.7060   40.2080 H   0  0  0  0  0  0  0  0  0  0  0  0
   34.5950   30.1050   40.2340 H   0  0  0  0  0  0  0  0  0  0  0  0
   36.9300   30.0640   36.6650 C   0  0  0  0  0  0  0  0  0  0  0  0
   36.2620   29.5510   37.8010 C   0  0  0  0  0  0  0  0  0  0  0  0
   36.3250   30.2800   38.9760 C   0  0  0  0  0  0  0  0  0  0  0  0
   37.0310   31.4510   38.9660 N   0  0  0  0  0  0  0  0  0  0  0  0
   37.6490   31.9030   37.8740 C   0  0  0  0  0  0  0  0  0  0  0  0
   37.6070   31.2190   36.7160 N   0  0  0  0  0  0  0  0  0  0  0  0
   36.8000   29.3910   35.8040 H   0  0  0  0  0  0  0  0  0  0  0  0
   35.7090   28.6380   37.8160 H   0  0  0  0  0  0  0  0  0  0  0  0
   38.1990   32.8350   37.9000 H   0  0  0  0  0  0  0  0  0  0  0  0
  1  2  1  0  0  0  0
  1  4  1  0  0  0  0
  3  1  1  0  0  0  0
  4  5  2  0  0  0  0
  4  9  1  0  0  0  0
  5  6  1  0  0  0  0
  6 11  1  0  0  0  0
  6  7  2  0  0  0  0
  7 12  1  0  0  0  0
  8 13  1  0  0  0  0
  8  7  1  0  0  0  0
  9  8  2  0  0  0  0
 10  5  1  0  0  0  0
 14  9  1  0  0  0  0
 14 15  1  0  0  0  0
 16 14  2  0  0  0  0
 17 18  1  0  0  0  0
 17 19  1  0  0  0  0
 17  1  1  0  0  0  0
 20 25  2  0  0  0  0
 20 21  1  0  0  0  0
 21 27  1  0  0  0  0
 21 22  2  0  0  0  0
 22 17  1  0  0  0  0
 23 22  1  0  0  0  0
 24 28  1  0  0  0  0
 24 23  2  0  0  0  0
 25 24  1  0  0  0  0
 26 20  1  0  0  0  0
M  END
>  <minimizedAffinity>
-4.42398357

$$$$

 OpenBabel03252508223D

 28 29  0  0  0  0  0  0  0  0999 V2000
   36.3240   28.8330   39.9310 C   0  0  0  0  0  0  0  0  0  0  0  0
   35.3970   28.9180   39.3650 H   0  0  0  0  0  0  0  0  0  0  0  0
   36.2380   29.5330   40.7990 H   0  0  0  0  0  0  0  0  0  0  0  0
   36.5980   27.5020   40.5100 C   0  0  0  0  0  0  0  0  0  0  0  0
   36.5470   26.3110   39.8390 C   0  0  0  0  0  0  0  0  0  0  0  0
   36.8020   25.0730   40.3790 C   0  0  0  0  0  0  0  0  0  0  0  0
   37.1380   25.0650   41.7280 C   0  0  0  0  0  0  0  0  0  0  0  0
   37.2010   26.2440   42.4400 C   0  0  0  0  0  0  0  0  0  0  0  0
   36.9370   27.4540   41.8550 C   0  0  0  0  0  0  0  0  0  0  0  0
   36.2750   26.4100   38.7820 H   0  0  0  0  0  0  0  0  0  0  0  0
   36.7400   24.1880   39.7870 H   0  0  0  0  0  0  0  0  0  0  0  0
   37.3410   24.0900   42.1640 H   0  0  0  0  0  0  0  0  0  0  0  0
   37.4690   26.1400   43.4800 H   0  0  0  0  0  0  0  0  0  0  0  0
   37.0450   28.6130   42.7400 C   0  0  0  0  0  0  0  0  0  0  0  0
   36.2120   29.2580   43.0160 H   0  0  0  0  0  0  0  0  0  0  0  0
   38.1140   29.0060   43.2920 O   0  0  0  0  0  0  0  0  0  0  0  0
   37.5530   29.3440   39.1690 C   0  0  0  0  0  0  0  0  0  0  0  0
   38.4170   28.7740   39.5080 H   0  0  0  0  0  0  0  0  0  0  0  0
   37.4260   29.2530   38.0880 H   0  0  0  0  0  0  0  0  0  0  0  0
   37.3410   33.1100   39.3790 C   0  0  0  0  0  0  0  0  0  0  0  0
   37.0890   31.7860   38.9500 C   0  0  0  0  0  0  0  0  0  0  0  0
   37.7750   30.7590   39.5760 C   0  0  0  0  0  0  0  0  0  0  0  0
   38.6540   31.0890   40.5690 N   0  0  0  0  0  0  0  0  0  0  0  0
   38.8660   32.3510   40.9470 C   0  0  0  0  0  0  0  0  0  0  0  0
   38.2150   33.3720   40.3600 N   0  0  0  0  0  0  0  0  0  0  0  0
   36.7340   33.8250   38.8030 H   0  0  0  0  0  0  0  0  0  0  0  0
   36.4030   31.5230   38.1750 H   0  0  0  0  0  0  0  0  0  0  0  0
   39.5690   32.5770   41.7370 H   0  0  0  0  0  0  0  0  0  0  0  0
  1  4  1  0  0  0  0
  1  3  1  0  0  0  0
  2  1  1  0  0  0  0
  4  9  1  0  0  0  0
  5  6  1  0  0  0  0
  5  4  2  0  0  0  0
  6  7  2  0  0  0  0
  7 12  1  0  0  0  0
  7  8  1  0  0  0  0
  8 13  1  0  0  0  0
  9  8  2  0  0  0  0
  9 14  1  0  0  0  0
 10  5  1  0  0  0  0
 11  6  1  0  0  0  0
 14 15  1  0  0  0  0
 14 16  2  0  0  0  0
 17 18  1  0  0  0  0
 17 22  1  0  0  0  0
 17  1  1  0  0  0  0
 19 17  1  0  0  0  0
 20 25  1  0  0  0  0
 21 20  2  0  0  0  0
 21 22  1  0  0  0  0
 22 23  2  0  0  0  0
 23 24  1  0  0  0  0
 24 28  1  0  0  0  0
 25 24  2  0  0  0  0
 26 20  1  0  0  0  0
 27 21  1  0  0  0  0
M  END
>  <minimizedAffinity>
-4.37408066

$$$$

 OpenBabel03252508223D

 28 29  0  0  0  0  0  0  0  0999 V2000
   36.1050   28.0450   41.7120 C   0  0  0  0  0  0  0  0  0  0  0  0
   35.1070   27.7590   42.0430 H   0  0  0  0  0  0  0  0  0  0  0  0
   36.3180   29.0480   42.1590 H   0  0  0  0  0  0  0  0  0  0  0  0
   37.2020   27.1620   42.1570 C   0  0  0  0  0  0  0  0  0  0  0  0
   37.3270   25.8310   41.8670 C   0  0  0  0  0  0  0  0  0  0  0  0
   38.3480   25.0110   42.2820 C   0  0  0  0  0  0  0  0  0  0  0  0
   39.3240   25.6180   43.0650 C   0  0  0  0  0  0  0  0  0  0  0  0
   39.2360   26.9570   43.3800 C   0  0  0  0  0  0  0  0  0  0  0  0
   38.1950   27.7330   42.9410 C   0  0  0  0  0  0  0  0  0  0  0  0
   36.5150   25.4360   41.2460 H   0  0  0  0  0  0  0  0  0  0  0  0
   38.3730   23.9790   42.0130 H   0  0  0  0  0  0  0  0  0  0  0  0
   40.1360   24.9750   43.3980 H   0  0  0  0  0  0  0  0  0  0  0  0
   40.0370   27.3400   43.9910 H   0  0  0  0  0  0  0  0  0  0  0  0
   38.2410   29.1340   43.3570 C   0  0  0  0  0  0  0  0  0  0  0  0
   37.6510   29.5560   44.1690 H   0  0  0  0  0  0  0  0  0  0  0  0
   38.9710   30.0230   42.8280 O   0  0  0  0  0  0  0  0  0  0  0  0
   36.2000   28.2900   40.2010 C   0  0  0  0  0  0  0  0  0  0  0  0
   36.8200   27.5030   39.7730 H   0  0  0  0  0  0  0  0  0  0  0  0
   35.2140   28.3090   39.7310 H   0  0  0  0  0  0  0  0  0  0  0  0
   37.1120   31.9560   40.2250 C   0  0  0  0  0  0  0  0  0  0  0  0
   36.3770   30.7680   40.4440 C   0  0  0  0  0  0  0  0  0  0  0  0
   36.9250   29.5760   40.0010 C   0  0  0  0  0  0  0  0  0  0  0  0
   38.1420   29.6220   39.3800 N   0  0  0  0  0  0  0  0  0  0  0  0
   38.8060   30.7640   39.1920 C   0  0  0  0  0  0  0  0  0  0  0  0
   38.3020   31.9390   39.6100 N   0  0  0  0  0  0  0  0  0  0  0  0
   36.5670   32.8250   40.6230 H   0  0  0  0  0  0  0  0  0  0  0  0
   35.4270   30.7250   40.9280 H   0  0  0  0  0  0  0  0  0  0  0  0
   39.7680   30.7640   38.6960 H   0  0  0  0  0  0  0  0  0  0  0  0
  1  2  1  0  0  0  0
  1  4  1  0  0  0  0
  1  3  1  0  0  0  0
  4  9  1  0  0  0  0
  5  4  2  0  0  0  0
  5  6  1  0  0  0  0
  6  7  2  0  0  0  0
  7  8  1  0  0  0  0
  7 12  1  0  0  0  0
  8 13  1  0  0  0  0
  9 14  1  0  0  0  0
  9  8  2  0  0  0  0
 10  5  1  0  0  0  0
 11  6  1  0  0  0  0
 14 15  1  0  0  0  0
 16 14  2  0  0  0  0
 17  1  1  0  0  0  0
 18 17  1  0  0  0  0
 19 17  1  0  0  0  0
 20 21  1  0  0  0  0
 20 26  1  0  0  0  0
 21 27  1  0  0  0  0
 22 17  1  0  0  0  0
 22 21  2  0  0  0  0
 23 22  1  0  0  0  0
 24 23  2  0  0  0  0
 24 25  1  0  0  0  0
 25 20  2  0  0  0  0
 28 24  1  0  0  0  0
M  END
>  <minimizedAffinity>
-4.34250164

$$$$

 OpenBabel03252508223D

 28 29  0  0  0  0  0  0  0  0999 V2000
   36.3200   27.9400   39.9910 C   0  0  0  0  0  0  0  0  0  0  0  0
   36.9180   27.8760   39.0820 H   0  0  0  0  0  0  0  0  0  0  0  0
   35.6110   27.0750   39.9720 H   0  0  0  0  0  0  0  0  0  0  0  0
   37.0700   27.8200   41.2580 C   0  0  0  0  0  0  0  0  0  0  0  0
   36.5210   27.6290   42.4970 C   0  0  0  0  0  0  0  0  0  0  0  0
   37.2200   27.5180   43.6750 C   0  0  0  0  0  0  0  0  0  0  0  0
   38.6020   27.6140   43.5650 C   0  0  0  0  0  0  0  0  0  0  0  0
   39.1940   27.8070   42.3350 C   0  0  0  0  0  0  0  0  0  0  0  0
   38.4520   27.9120   41.1870 C   0  0  0  0  0  0  0  0  0  0  0  0
   35.4280   27.5650   42.4920 H   0  0  0  0  0  0  0  0  0  0  0  0
   36.7160   27.3690   44.6050 H   0  0  0  0  0  0  0  0  0  0  0  0
   39.1630   27.5280   44.4930 H   0  0  0  0  0  0  0  0  0  0  0  0
   40.2700   27.8700   42.3460 H   0  0  0  0  0  0  0  0  0  0  0  0
   39.2230   28.1150   39.9610 C   0  0  0  0  0  0  0  0  0  0  0  0
   39.5360   27.3170   39.2900 H   0  0  0  0  0  0  0  0  0  0  0  0
   39.6180   29.2380   39.5310 O   0  0  0  0  0  0  0  0  0  0  0  0
   35.4010   29.1660   40.0310 C   0  0  0  0  0  0  0  0  0  0  0  0
   34.6380   29.0370   39.2640 H   0  0  0  0  0  0  0  0  0  0  0  0
   34.9460   29.3010   41.0140 H   0  0  0  0  0  0  0  0  0  0  0  0
   37.3870   32.3780   40.1630 C   0  0  0  0  0  0  0  0  0  0  0  0
   36.6140   31.2740   40.5920 C   0  0  0  0  0  0  0  0  0  0  0  0
   36.2170   30.3500   39.6410 C   0  0  0  0  0  0  0  0  0  0  0  0
   36.5960   30.5630   38.3450 N   0  0  0  0  0  0  0  0  0  0  0  0
   37.3260   31.6170   37.9770 C   0  0  0  0  0  0  0  0  0  0  0  0
   37.7290   32.5320   38.8760 N   0  0  0  0  0  0  0  0  0  0  0  0
   37.6340   33.0310   41.0130 H   0  0  0  0  0  0  0  0  0  0  0  0
   36.3150   31.1030   41.6030 H   0  0  0  0  0  0  0  0  0  0  0  0
   37.6100   31.7540   36.9420 H   0  0  0  0  0  0  0  0  0  0  0  0
  1 17  1  0  0  0  0
  1  4  1  0  0  0  0
  2  1  1  0  0  0  0
  3  1  1  0  0  0  0
  4  5  1  0  0  0  0
  5  6  2  0  0  0  0
  6 11  1  0  0  0  0
  7  6  1  0  0  0  0
  7 12  1  0  0  0  0
  8 13  1  0  0  0  0
  8  7  2  0  0  0  0
  9  4  2  0  0  0  0
  9  8  1  0  0  0  0
 10  5  1  0  0  0  0
 14  9  1  0  0  0  0
 15 14  1  0  0  0  0
 16 14  2  0  0  0  0
 17 19  1  0  0  0  0
 18 17  1  0  0  0  0
 20 21  1  0  0  0  0
 20 26  1  0  0  0  0
 21 27  1  0  0  0  0
 22 17  1  0  0  0  0
 22 21  2  0  0  0  0
 23 22  1  0  0  0  0
 24 23  2  0  0  0  0
 24 25  1  0  0  0  0
 25 20  2  0  0  0  0
 28 24  1  0  0  0  0
M  END
>  <minimizedAffinity>
-4.33352757

$$$$
