
 OpenBabel03252508273D

 35 38  0  0  1  0  0  0  0  0999 V2000
   38.4380   29.2930   42.6270 C   0  0  1  0  0  0  0  0  0  0  0  0
   37.4910   28.8930   43.6790 C   0  0  0  0  0  0  0  0  0  0  0  0
   37.8530   27.9800   42.4400 C   0  0  2  0  0  0  0  0  0  0  0  0
   39.4190   29.5190   43.1790 H   0  0  0  0  0  0  0  0  0  0  0  0
   36.5300   29.4080   43.6820 H   0  0  0  0  0  0  0  0  0  0  0  0
   37.7530   28.4440   44.6390 H   0  0  0  0  0  0  0  0  0  0  0  0
   36.8260   27.8060   42.0120 H   0  0  0  0  0  0  0  0  0  0  0  0
   38.5430   26.7060   42.6620 C   0  0  0  0  0  0  0  0  0  0  0  0
   39.6010   26.4690   43.4840 C   0  0  0  0  0  0  0  0  0  0  0  0
   40.3050   25.2770   43.5750 C   0  0  0  0  0  0  0  0  0  0  0  0
   39.8800   24.2340   42.7400 C   0  0  0  0  0  0  0  0  0  0  0  0
   38.7930   24.4500   41.8890 C   0  0  0  0  0  0  0  0  0  0  0  0
   38.3730   23.3710   41.1320 C   0  0  0  0  0  0  0  0  0  0  0  0
   37.2520   23.5220   40.3230 C   0  0  0  0  0  0  0  0  0  0  0  0
   36.5680   24.7190   40.2740 C   0  0  0  0  0  0  0  0  0  0  0  0
   37.0350   25.7540   41.0490 C   0  0  0  0  0  0  0  0  0  0  0  0
   38.1500   25.6610   41.8640 C   0  0  0  0  0  0  0  0  0  0  0  0
   39.8970   27.3070   44.1120 H   0  0  0  0  0  0  0  0  0  0  0  0
   41.1400   25.1610   44.2570 H   0  0  0  0  0  0  0  0  0  0  0  0
   40.4370   23.3230   42.8240 H   0  0  0  0  0  0  0  0  0  0  0  0
   38.9290   22.4360   41.1890 H   0  0  0  0  0  0  0  0  0  0  0  0
   37.0120   22.6030   39.7640 H   0  0  0  0  0  0  0  0  0  0  0  0
   35.7400   24.6310   39.6010 H   0  0  0  0  0  0  0  0  0  0  0  0
   36.3180   26.5110   40.9100 H   0  0  0  0  0  0  0  0  0  0  0  0
   36.6440   31.2780   40.0800 C   0  0  0  0  0  0  0  0  0  0  0  0
   37.5510   32.3690   39.8470 C   0  0  0  0  0  0  0  0  0  0  0  0
   38.7680   32.3910   40.6000 C   0  0  0  0  0  0  0  0  0  0  0  0
   39.0170   31.4030   41.4890 N   0  0  0  0  0  0  0  0  0  0  0  0
   38.1010   30.3840   41.6630 C   0  0  0  0  0  0  0  0  0  0  0  0
   36.9580   30.3300   40.9810 N   0  0  0  0  0  0  0  0  0  0  0  0
   35.7480   31.3060   39.4910 H   0  0  0  0  0  0  0  0  0  0  0  0
   37.3650   33.1560   39.1460 H   0  0  0  0  0  0  0  0  0  0  0  0
   39.6860   33.4740   40.3820 C   0  0  0  0  0  0  0  0  0  0  0  0
   39.3240   34.3700   39.9120 H   0  0  0  0  0  0  0  0  0  0  0  0
   40.8780   33.4000   40.7180 O   0  0  0  0  0  0  0  0  0  0  0  0
  1  4  1  1  0  0  0
  1  2  1  0  0  0  0
  2  5  1  0  0  0  0
  2  6  1  0  0  0  0
  3  7  1  6  0  0  0
  3  1  1  0  0  0  0
  3  8  1  0  0  0  0
  3  2  1  0  0  0  0
  8  9  1  0  0  0  0
  9 10  2  0  0  0  0
  9 18  1  0  0  0  0
 10 19  1  0  0  0  0
 11 20  1  0  0  0  0
 11 10  1  0  0  0  0
 12 11  2  0  0  0  0
 13 21  1  0  0  0  0
 13 12  1  0  0  0  0
 14 13  2  0  0  0  0
 15 14  1  0  0  0  0
 15 16  2  0  0  0  0
 16 17  1  0  0  0  0
 17 12  1  0  0  0  0
 17  8  2  0  0  0  0
 22 14  1  0  0  0  0
 23 15  1  0  0  0  0
 24 16  1  0  0  0  0
 25 30  1  0  0  0  0
 26 25  2  0  0  0  0
 26 27  1  0  0  0  0
 27 28  2  0  0  0  0
 28 29  1  0  0  0  0
 29  1  1  0  0  0  0
 30 29  2  0  0  0  0
 31 25  1  0  0  0  0
 32 26  1  0  0  0  0
 33 27  1  0  0  0  0
 33 35  2  0  0  0  0
 34 33  1  0  0  0  0
M  END
>  <minimizedAffinity>
-5.96643114

$$$$

 OpenBabel03252508273D

 35 38  0  0  1  0  0  0  0  0999 V2000
   38.4890   29.3450   42.0800 C   0  0  1  0  0  0  0  0  0  0  0  0
   37.7240   29.2140   43.3300 C   0  0  0  0  0  0  0  0  0  0  0  0
   37.8220   28.0680   42.2460 C   0  0  2  0  0  0  0  0  0  0  0  0
   39.5600   29.5910   42.4110 H   0  0  0  0  0  0  0  0  0  0  0  0
   36.8010   29.7930   43.3920 H   0  0  0  0  0  0  0  0  0  0  0  0
   38.1300   28.9270   44.3020 H   0  0  0  0  0  0  0  0  0  0  0  0
   36.7290   27.8990   42.0330 H   0  0  0  0  0  0  0  0  0  0  0  0
   38.4830   26.8060   42.5900 C   0  0  0  0  0  0  0  0  0  0  0  0
   39.5030   26.6180   43.4710 C   0  0  0  0  0  0  0  0  0  0  0  0
   40.1850   25.4280   43.6800 C   0  0  0  0  0  0  0  0  0  0  0  0
   39.7770   24.3310   42.9080 C   0  0  0  0  0  0  0  0  0  0  0  0
   38.7300   24.4950   41.9990 C   0  0  0  0  0  0  0  0  0  0  0  0
   38.3240   23.3680   41.3070 C   0  0  0  0  0  0  0  0  0  0  0  0
   37.2390   23.4710   40.4430 C   0  0  0  0  0  0  0  0  0  0  0  0
   36.5760   24.6700   40.2770 C   0  0  0  0  0  0  0  0  0  0  0  0
   37.0280   25.7540   40.9920 C   0  0  0  0  0  0  0  0  0  0  0  0
   38.1060   25.7090   41.8570 C   0  0  0  0  0  0  0  0  0  0  0  0
   39.7870   27.4970   44.0470 H   0  0  0  0  0  0  0  0  0  0  0  0
   40.9900   25.3540   44.4020 H   0  0  0  0  0  0  0  0  0  0  0  0
   40.3170   23.4220   43.0820 H   0  0  0  0  0  0  0  0  0  0  0  0
   38.8630   22.4330   41.4580 H   0  0  0  0  0  0  0  0  0  0  0  0
   37.0080   22.5160   39.9460 H   0  0  0  0  0  0  0  0  0  0  0  0
   35.7750   24.5420   39.5790 H   0  0  0  0  0  0  0  0  0  0  0  0
   36.3280   26.5070   40.7680 H   0  0  0  0  0  0  0  0  0  0  0  0
   37.7800   32.4370   40.1880 C   0  0  0  0  0  0  0  0  0  0  0  0
   37.1240   31.9330   39.0120 C   0  0  0  0  0  0  0  0  0  0  0  0
   36.9580   30.5160   38.9030 C   0  0  0  0  0  0  0  0  0  0  0  0
   37.4150   29.7150   39.8920 N   0  0  0  0  0  0  0  0  0  0  0  0
   38.0360   30.2670   40.9950 C   0  0  0  0  0  0  0  0  0  0  0  0
   38.2100   31.5800   41.1320 N   0  0  0  0  0  0  0  0  0  0  0  0
   37.8800   33.5050   40.2240 H   0  0  0  0  0  0  0  0  0  0  0  0
   36.7580   32.5580   38.2240 H   0  0  0  0  0  0  0  0  0  0  0  0
   36.3060   29.9940   37.7350 C   0  0  0  0  0  0  0  0  0  0  0  0
   36.8020   30.0800   36.7860 H   0  0  0  0  0  0  0  0  0  0  0  0
   35.1910   29.4520   37.7940 O   0  0  0  0  0  0  0  0  0  0  0  0
  1  3  1  0  0  0  0
  1  4  1  1  0  0  0
  1  2  1  0  0  0  0
  2  5  1  0  0  0  0
  2  6  1  0  0  0  0
  3  7  1  6  0  0  0
  3  8  1  0  0  0  0
  3  2  1  0  0  0  0
  8  9  1  0  0  0  0
  9 10  2  0  0  0  0
  9 18  1  0  0  0  0
 10 19  1  0  0  0  0
 11 20  1  0  0  0  0
 11 10  1  0  0  0  0
 12 11  2  0  0  0  0
 13 21  1  0  0  0  0
 13 12  1  0  0  0  0
 14 13  2  0  0  0  0
 15 14  1  0  0  0  0
 15 16  2  0  0  0  0
 16 17  1  0  0  0  0
 17 12  1  0  0  0  0
 17  8  2  0  0  0  0
 22 14  1  0  0  0  0
 23 15  1  0  0  0  0
 24 16  1  0  0  0  0
 25 31  1  0  0  0  0
 25 30  1  0  0  0  0
 26 25  2  0  0  0  0
 27 26  1  0  0  0  0
 27 28  2  0  0  0  0
 28 29  1  0  0  0  0
 29 30  2  0  0  0  0
 29  1  1  0  0  0  0
 32 26  1  0  0  0  0
 33 35  2  0  0  0  0
 33 27  1  0  0  0  0
 34 33  1  0  0  0  0
M  END
>  <minimizedAffinity>
-5.7919178

$$$$

 OpenBabel03252508273D

 35 38  0  0  1  0  0  0  0  0999 V2000
   38.2920   29.4960   41.6420 C   0  0  1  0  0  0  0  0  0  0  0  0
   37.9060   29.2550   43.0410 C   0  0  0  0  0  0  0  0  0  0  0  0
   37.0700   28.7320   41.8060 C   0  0  2  0  0  0  0  0  0  0  0  0
   39.3490   29.0590   41.5450 H   0  0  0  0  0  0  0  0  0  0  0  0
   37.5330   30.1200   43.5920 H   0  0  0  0  0  0  0  0  0  0  0  0
   38.2820   28.4550   43.6800 H   0  0  0  0  0  0  0  0  0  0  0  0
   36.0680   29.1930   42.0310 H   0  0  0  0  0  0  0  0  0  0  0  0
   36.9380   27.2890   41.5860 C   0  0  0  0  0  0  0  0  0  0  0  0
   37.2120   26.2880   42.4660 C   0  0  0  0  0  0  0  0  0  0  0  0
   37.1920   24.9300   42.1810 C   0  0  0  0  0  0  0  0  0  0  0  0
   36.8580   24.5720   40.8670 C   0  0  0  0  0  0  0  0  0  0  0  0
   36.5680   25.5800   39.9450 C   0  0  0  0  0  0  0  0  0  0  0  0
   36.1850   25.1730   38.6790 C   0  0  0  0  0  0  0  0  0  0  0  0
   35.8200   26.1420   37.7500 C   0  0  0  0  0  0  0  0  0  0  0  0
   35.8370   27.4820   38.0790 C   0  0  0  0  0  0  0  0  0  0  0  0
   36.2280   27.8230   39.3520 C   0  0  0  0  0  0  0  0  0  0  0  0
   36.6090   26.9010   40.3110 C   0  0  0  0  0  0  0  0  0  0  0  0
   37.4670   26.6130   43.4730 H   0  0  0  0  0  0  0  0  0  0  0  0
   37.4210   24.1880   42.9370 H   0  0  0  0  0  0  0  0  0  0  0  0
   36.8500   23.5200   40.6670 H   0  0  0  0  0  0  0  0  0  0  0  0
   36.1780   24.1090   38.4460 H   0  0  0  0  0  0  0  0  0  0  0  0
   35.5370   25.7050   36.7790 H   0  0  0  0  0  0  0  0  0  0  0  0
   35.5220   28.0610   37.2350 H   0  0  0  0  0  0  0  0  0  0  0  0
   36.0800   28.8640   39.3860 H   0  0  0  0  0  0  0  0  0  0  0  0
   36.9940   32.5050   39.9400 C   0  0  0  0  0  0  0  0  0  0  0  0
   38.1500   33.3590   39.9010 C   0  0  0  0  0  0  0  0  0  0  0  0
   39.3580   32.8640   40.4880 C   0  0  0  0  0  0  0  0  0  0  0  0
   39.3690   31.6330   41.0470 N   0  0  0  0  0  0  0  0  0  0  0  0
   38.2210   30.8650   41.0490 C   0  0  0  0  0  0  0  0  0  0  0  0
   37.0780   31.2920   40.5140 N   0  0  0  0  0  0  0  0  0  0  0  0
   36.1140   32.9210   39.4880 H   0  0  0  0  0  0  0  0  0  0  0  0
   38.1530   34.3350   39.4610 H   0  0  0  0  0  0  0  0  0  0  0  0
   40.5230   33.7030   40.4600 C   0  0  0  0  0  0  0  0  0  0  0  0
   40.8900   34.1060   41.3850 H   0  0  0  0  0  0  0  0  0  0  0  0
   41.1110   33.9710   39.4000 O   0  0  0  0  0  0  0  0  0  0  0  0
  1  4  1  6  0  0  0
  1  3  1  0  0  0  0
  1  2  1  0  0  0  0
  2  5  1  0  0  0  0
  2  6  1  0  0  0  0
  3  7  1  6  0  0  0
  3  2  1  0  0  0  0
  8  3  1  0  0  0  0
  8  9  1  0  0  0  0
  9 18  1  0  0  0  0
 10  9  2  0  0  0  0
 10 19  1  0  0  0  0
 11 10  1  0  0  0  0
 12 17  1  0  0  0  0
 12 11  2  0  0  0  0
 13 12  1  0  0  0  0
 14 15  1  0  0  0  0
 14 13  2  0  0  0  0
 15 16  2  0  0  0  0
 16 24  1  0  0  0  0
 16 17  1  0  0  0  0
 17  8  2  0  0  0  0
 20 11  1  0  0  0  0
 21 13  1  0  0  0  0
 22 14  1  0  0  0  0
 23 15  1  0  0  0  0
 25 30  1  0  0  0  0
 26 25  2  0  0  0  0
 26 27  1  0  0  0  0
 27 28  2  0  0  0  0
 28 29  1  0  0  0  0
 29  1  1  0  0  0  0
 30 29  2  0  0  0  0
 31 25  1  0  0  0  0
 32 26  1  0  0  0  0
 33 27  1  0  0  0  0
 33 34  1  0  0  0  0
 35 33  2  0  0  0  0
M  END
>  <minimizedAffinity>
-5.65464354

$$$$

 OpenBabel03252508273D

 35 38  0  0  1  0  0  0  0  0999 V2000
   38.6330   28.9510   42.0790 C   0  0  1  0  0  0  0  0  0  0  0  0
   37.7500   28.8550   43.2520 C   0  0  0  0  0  0  0  0  0  0  0  0
   37.3310   28.3730   41.8060 C   0  0  2  0  0  0  0  0  0  0  0  0
   39.5780   28.3690   42.3700 H   0  0  0  0  0  0  0  0  0  0  0  0
   37.3420   29.7960   43.6250 H   0  0  0  0  0  0  0  0  0  0  0  0
   37.7540   28.0530   43.9920 H   0  0  0  0  0  0  0  0  0  0  0  0
   36.3950   28.9800   41.6560 H   0  0  0  0  0  0  0  0  0  0  0  0
   37.0690   26.9510   41.5700 C   0  0  0  0  0  0  0  0  0  0  0  0
   37.2840   25.9150   42.4260 C   0  0  0  0  0  0  0  0  0  0  0  0
   37.1380   24.5690   42.1220 C   0  0  0  0  0  0  0  0  0  0  0  0
   36.7350   24.2630   40.8150 C   0  0  0  0  0  0  0  0  0  0  0  0
   36.5040   25.3080   39.9160 C   0  0  0  0  0  0  0  0  0  0  0  0
   36.0480   24.9570   38.6580 C   0  0  0  0  0  0  0  0  0  0  0  0
   35.7390   25.9690   37.7560 C   0  0  0  0  0  0  0  0  0  0  0  0
   35.8800   27.2970   38.1030 C   0  0  0  0  0  0  0  0  0  0  0  0
   36.3390   27.5810   39.3680 C   0  0  0  0  0  0  0  0  0  0  0  0
   36.6690   26.6140   40.3010 C   0  0  0  0  0  0  0  0  0  0  0  0
   37.5970   26.1990   43.4290 H   0  0  0  0  0  0  0  0  0  0  0  0
   37.3270   23.7960   42.8590 H   0  0  0  0  0  0  0  0  0  0  0  0
   36.6300   23.2190   40.5990 H   0  0  0  0  0  0  0  0  0  0  0  0
   35.9430   23.9010   38.4090 H   0  0  0  0  0  0  0  0  0  0  0  0
   35.3900   25.5750   36.7880 H   0  0  0  0  0  0  0  0  0  0  0  0
   35.5900   27.9150   37.2790 H   0  0  0  0  0  0  0  0  0  0  0  0
   36.2810   28.6300   39.4220 H   0  0  0  0  0  0  0  0  0  0  0  0
   40.4980   32.0270   41.2420 C   0  0  0  0  0  0  0  0  0  0  0  0
   39.5520   32.7480   40.4340 C   0  0  0  0  0  0  0  0  0  0  0  0
   38.2840   32.1310   40.1890 C   0  0  0  0  0  0  0  0  0  0  0  0
   38.0250   30.9140   40.7170 N   0  0  0  0  0  0  0  0  0  0  0  0
   38.9800   30.2760   41.4840 C   0  0  0  0  0  0  0  0  0  0  0  0
   40.1710   30.8190   41.7330 N   0  0  0  0  0  0  0  0  0  0  0  0
   41.4320   32.5310   41.3970 H   0  0  0  0  0  0  0  0  0  0  0  0
   39.7460   33.7130   40.0120 H   0  0  0  0  0  0  0  0  0  0  0  0
   37.3270   32.8360   39.3830 C   0  0  0  0  0  0  0  0  0  0  0  0
   36.7710   32.2890   38.6450 H   0  0  0  0  0  0  0  0  0  0  0  0
   37.1290   34.0540   39.5170 O   0  0  0  0  0  0  0  0  0  0  0  0
  1  4  1  6  0  0  0
  1  2  1  0  0  0  0
  2  5  1  0  0  0  0
  2  6  1  0  0  0  0
  3  7  1  6  0  0  0
  3  1  1  0  0  0  0
  3  2  1  0  0  0  0
  8  3  1  0  0  0  0
  8  9  1  0  0  0  0
  9 18  1  0  0  0  0
 10  9  2  0  0  0  0
 10 19  1  0  0  0  0
 11 10  1  0  0  0  0
 12 17  1  0  0  0  0
 12 11  2  0  0  0  0
 13 12  1  0  0  0  0
 14 15  1  0  0  0  0
 14 13  2  0  0  0  0
 15 16  2  0  0  0  0
 16 24  1  0  0  0  0
 16 17  1  0  0  0  0
 17  8  2  0  0  0  0
 20 11  1  0  0  0  0
 21 13  1  0  0  0  0
 22 14  1  0  0  0  0
 23 15  1  0  0  0  0
 25 31  1  0  0  0  0
 25 30  1  0  0  0  0
 26 25  2  0  0  0  0
 27 26  1  0  0  0  0
 27 28  2  0  0  0  0
 28 29  1  0  0  0  0
 29 30  2  0  0  0  0
 29  1  1  0  0  0  0
 32 26  1  0  0  0  0
 33 35  2  0  0  0  0
 33 27  1  0  0  0  0
 34 33  1  0  0  0  0
M  END
>  <minimizedAffinity>
-5.59587336

$$$$

 OpenBabel03252508273D

 35 38  0  0  1  0  0  0  0  0999 V2000
   37.4140   30.7270   38.2540 C   0  0  1  0  0  0  0  0  0  0  0  0
   37.2270   32.1380   38.6250 C   0  0  0  0  0  0  0  0  0  0  0  0
   37.0030   30.9370   39.6280 C   0  0  2  0  0  0  0  0  0  0  0  0
   38.4960   30.6580   37.8800 H   0  0  0  0  0  0  0  0  0  0  0  0
   36.3510   32.6340   38.2040 H   0  0  0  0  0  0  0  0  0  0  0  0
   38.0120   32.8260   38.9410 H   0  0  0  0  0  0  0  0  0  0  0  0
   35.9390   31.1330   39.9420 H   0  0  0  0  0  0  0  0  0  0  0  0
   37.8720   30.8080   40.8010 C   0  0  0  0  0  0  0  0  0  0  0  0
   38.9360   31.5890   41.1350 C   0  0  0  0  0  0  0  0  0  0  0  0
   39.8090   31.3610   42.1880 C   0  0  0  0  0  0  0  0  0  0  0  0
   39.5640   30.2230   42.9690 C   0  0  0  0  0  0  0  0  0  0  0  0
   38.4760   29.4060   42.6510 C   0  0  0  0  0  0  0  0  0  0  0  0
   38.2390   28.3310   43.4890 C   0  0  0  0  0  0  0  0  0  0  0  0
   37.1260   27.5330   43.2500 C   0  0  0  0  0  0  0  0  0  0  0  0
   36.2710   27.8040   42.2020 C   0  0  0  0  0  0  0  0  0  0  0  0
   36.5600   28.8860   41.4040 C   0  0  0  0  0  0  0  0  0  0  0  0
   37.6580   29.7070   41.5920 C   0  0  0  0  0  0  0  0  0  0  0  0
   39.0890   32.4600   40.5000 H   0  0  0  0  0  0  0  0  0  0  0  0
   40.6370   32.0300   42.3940 H   0  0  0  0  0  0  0  0  0  0  0  0
   40.2500   30.0630   43.7760 H   0  0  0  0  0  0  0  0  0  0  0  0
   38.9290   28.1400   44.3110 H   0  0  0  0  0  0  0  0  0  0  0  0
   37.0390   26.7080   43.9740 H   0  0  0  0  0  0  0  0  0  0  0  0
   35.4800   27.0820   42.1890 H   0  0  0  0  0  0  0  0  0  0  0  0
   35.7400   28.9350   40.7470 H   0  0  0  0  0  0  0  0  0  0  0  0
   34.5250   28.8250   36.9580 C   0  0  0  0  0  0  0  0  0  0  0  0
   34.8140   28.7490   35.5510 C   0  0  0  0  0  0  0  0  0  0  0  0
   36.0120   29.3800   35.0870 C   0  0  0  0  0  0  0  0  0  0  0  0
   36.8140   30.0140   35.9710 N   0  0  0  0  0  0  0  0  0  0  0  0
   36.4750   30.0490   37.3090 C   0  0  0  0  0  0  0  0  0  0  0  0
   35.3700   29.4740   37.7790 N   0  0  0  0  0  0  0  0  0  0  0  0
   33.6180   28.3360   37.2570 H   0  0  0  0  0  0  0  0  0  0  0  0
   34.1870   28.2490   34.8430 H   0  0  0  0  0  0  0  0  0  0  0  0
   36.3160   29.3150   33.6850 C   0  0  0  0  0  0  0  0  0  0  0  0
   36.2540   28.3650   33.1870 H   0  0  0  0  0  0  0  0  0  0  0  0
   36.6490   30.3220   33.0400 O   0  0  0  0  0  0  0  0  0  0  0  0
  1  4  1  6  0  0  0
  1  2  1  0  0  0  0
  1  3  1  0  0  0  0
  2  6  1  0  0  0  0
  2  3  1  0  0  0  0
  3  7  1  1  0  0  0
  3  8  1  0  0  0  0
  5  2  1  0  0  0  0
  8  9  2  0  0  0  0
  8 17  1  0  0  0  0
  9 10  1  0  0  0  0
 10 19  1  0  0  0  0
 10 11  2  0  0  0  0
 11 20  1  0  0  0  0
 12 11  1  0  0  0  0
 12 13  1  0  0  0  0
 13 21  1  0  0  0  0
 14 13  2  0  0  0  0
 14 22  1  0  0  0  0
 15 14  1  0  0  0  0
 16 17  1  0  0  0  0
 16 15  2  0  0  0  0
 17 12  2  0  0  0  0
 18  9  1  0  0  0  0
 23 15  1  0  0  0  0
 24 16  1  0  0  0  0
 25 31  1  0  0  0  0
 25 30  1  0  0  0  0
 26 25  2  0  0  0  0
 27 26  1  0  0  0  0
 27 28  2  0  0  0  0
 28 29  1  0  0  0  0
 29 30  2  0  0  0  0
 29  1  1  0  0  0  0
 32 26  1  0  0  0  0
 33 27  1  0  0  0  0
 34 33  1  0  0  0  0
 35 33  2  0  0  0  0
M  END
>  <minimizedAffinity>
-5.581141

$$$$

 OpenBabel03252508273D

 35 38  0  0  1  0  0  0  0  0999 V2000
   37.7040   31.2640   41.0620 C   0  0  1  0  0  0  0  0  0  0  0  0
   36.4160   30.9940   40.4060 C   0  0  0  0  0  0  0  0  0  0  0  0
   37.5360   29.8970   40.6070 C   0  0  2  0  0  0  0  0  0  0  0  0
   37.4310   31.6640   42.1020 H   0  0  0  0  0  0  0  0  0  0  0  0
   36.2830   31.4240   39.4120 H   0  0  0  0  0  0  0  0  0  0  0  0
   35.4780   30.7540   40.9100 H   0  0  0  0  0  0  0  0  0  0  0  0
   37.6880   29.5680   39.5410 H   0  0  0  0  0  0  0  0  0  0  0  0
   37.2670   28.7440   41.4710 C   0  0  0  0  0  0  0  0  0  0  0  0
   37.2660   28.7100   42.8320 C   0  0  0  0  0  0  0  0  0  0  0  0
   37.1270   27.5730   43.6140 C   0  0  0  0  0  0  0  0  0  0  0  0
   36.9780   26.3580   42.9290 C   0  0  0  0  0  0  0  0  0  0  0  0
   36.9720   26.3650   41.5330 C   0  0  0  0  0  0  0  0  0  0  0  0
   36.7590   25.1500   40.9060 C   0  0  0  0  0  0  0  0  0  0  0  0
   36.6760   25.1230   39.5170 C   0  0  0  0  0  0  0  0  0  0  0  0
   36.8010   26.2800   38.7760 C   0  0  0  0  0  0  0  0  0  0  0  0
   37.0120   27.4550   39.4580 C   0  0  0  0  0  0  0  0  0  0  0  0
   37.1120   27.5380   40.8350 C   0  0  0  0  0  0  0  0  0  0  0  0
   37.3860   29.6760   43.3200 H   0  0  0  0  0  0  0  0  0  0  0  0
   37.1350   27.6240   44.6960 H   0  0  0  0  0  0  0  0  0  0  0  0
   36.8750   25.4920   43.5510 H   0  0  0  0  0  0  0  0  0  0  0  0
   36.6620   24.2510   41.5140 H   0  0  0  0  0  0  0  0  0  0  0  0
   36.5100   24.1060   39.1280 H   0  0  0  0  0  0  0  0  0  0  0  0
   36.7050   26.0500   37.7350 H   0  0  0  0  0  0  0  0  0  0  0  0
   36.9890   28.1870   38.7020 H   0  0  0  0  0  0  0  0  0  0  0  0
   39.8630   34.1610   40.2950 C   0  0  0  0  0  0  0  0  0  0  0  0
   40.5820   33.7100   39.1350 C   0  0  0  0  0  0  0  0  0  0  0  0
   40.3020   32.3900   38.6550 C   0  0  0  0  0  0  0  0  0  0  0  0
   39.3880   31.6290   39.2990 N   0  0  0  0  0  0  0  0  0  0  0  0
   38.7340   32.1260   40.4090 C   0  0  0  0  0  0  0  0  0  0  0  0
   38.9680   33.3480   40.8850 N   0  0  0  0  0  0  0  0  0  0  0  0
   40.1070   35.1560   40.6160 H   0  0  0  0  0  0  0  0  0  0  0  0
   41.3060   34.3040   38.6180 H   0  0  0  0  0  0  0  0  0  0  0  0
   41.0110   31.9220   37.4980 C   0  0  0  0  0  0  0  0  0  0  0  0
   40.7890   30.9410   37.1190 H   0  0  0  0  0  0  0  0  0  0  0  0
   41.8690   32.6160   36.9300 O   0  0  0  0  0  0  0  0  0  0  0  0
  1  4  1  1  0  0  0
  2  3  1  0  0  0  0
  2  6  1  0  0  0  0
  2  1  1  0  0  0  0
  3  7  1  6  0  0  0
  3  1  1  0  0  0  0
  3  8  1  0  0  0  0
  5  2  1  0  0  0  0
  8  9  1  0  0  0  0
  9 18  1  0  0  0  0
  9 10  2  0  0  0  0
 10 19  1  0  0  0  0
 11 20  1  0  0  0  0
 11 10  1  0  0  0  0
 12 11  2  0  0  0  0
 13 21  1  0  0  0  0
 13 12  1  0  0  0  0
 14 13  2  0  0  0  0
 15 16  2  0  0  0  0
 15 14  1  0  0  0  0
 16 17  1  0  0  0  0
 17  8  2  0  0  0  0
 17 12  1  0  0  0  0
 22 14  1  0  0  0  0
 23 15  1  0  0  0  0
 24 16  1  0  0  0  0
 25 31  1  0  0  0  0
 25 30  1  0  0  0  0
 26 25  2  0  0  0  0
 27 26  1  0  0  0  0
 27 28  2  0  0  0  0
 28 29  1  0  0  0  0
 29 30  2  0  0  0  0
 29  1  1  0  0  0  0
 32 26  1  0  0  0  0
 33 27  1  0  0  0  0
 34 33  1  0  0  0  0
 35 33  2  0  0  0  0
M  END
>  <minimizedAffinity>
-5.52039623

$$$$

 OpenBabel03252508273D

 35 38  0  0  1  0  0  0  0  0999 V2000
   36.5560   29.1900   39.8430 C   0  0  1  0  0  0  0  0  0  0  0  0
   36.0920   29.9560   41.0100 C   0  0  0  0  0  0  0  0  0  0  0  0
   36.1980   28.3790   40.9910 C   0  0  2  0  0  0  0  0  0  0  0  0
   37.6020   29.6030   39.6130 H   0  0  0  0  0  0  0  0  0  0  0  0
   35.1040   30.4120   40.9240 H   0  0  0  0  0  0  0  0  0  0  0  0
   36.7290   30.4240   41.7630 H   0  0  0  0  0  0  0  0  0  0  0  0
   35.1400   28.1040   41.2580 H   0  0  0  0  0  0  0  0  0  0  0  0
   37.1480   27.7110   41.8850 C   0  0  0  0  0  0  0  0  0  0  0  0
   37.8850   28.2740   42.8810 C   0  0  0  0  0  0  0  0  0  0  0  0
   38.8650   27.6320   43.6260 C   0  0  0  0  0  0  0  0  0  0  0  0
   39.1070   26.2870   43.3130 C   0  0  0  0  0  0  0  0  0  0  0  0
   38.3610   25.6840   42.2980 C   0  0  0  0  0  0  0  0  0  0  0  0
   38.5940   24.3390   42.0700 C   0  0  0  0  0  0  0  0  0  0  0  0
   37.8250   23.6820   41.1150 C   0  0  0  0  0  0  0  0  0  0  0  0
   36.8480   24.3520   40.4080 C   0  0  0  0  0  0  0  0  0  0  0  0
   36.6650   25.6880   40.6800 C   0  0  0  0  0  0  0  0  0  0  0  0
   37.4070   26.3910   41.6110 C   0  0  0  0  0  0  0  0  0  0  0  0
   37.6640   29.3190   43.0880 H   0  0  0  0  0  0  0  0  0  0  0  0
   39.4120   28.1470   44.4070 H   0  0  0  0  0  0  0  0  0  0  0  0
   39.8680   25.8110   43.8970 H   0  0  0  0  0  0  0  0  0  0  0  0
   39.3710   23.8330   42.6430 H   0  0  0  0  0  0  0  0  0  0  0  0
   38.0990   22.6200   41.0160 H   0  0  0  0  0  0  0  0  0  0  0  0
   36.3700   23.6760   39.7300 H   0  0  0  0  0  0  0  0  0  0  0  0
   35.8310   25.9470   40.0930 H   0  0  0  0  0  0  0  0  0  0  0  0
   33.6630   28.7210   37.5970 C   0  0  0  0  0  0  0  0  0  0  0  0
   34.2560   28.8720   36.2960 C   0  0  0  0  0  0  0  0  0  0  0  0
   35.6590   29.1490   36.2370 C   0  0  0  0  0  0  0  0  0  0  0  0
   36.3640   29.2580   37.3860 N   0  0  0  0  0  0  0  0  0  0  0  0
   35.7290   29.1010   38.6030 C   0  0  0  0  0  0  0  0  0  0  0  0
   34.4260   28.8430   38.6970 N   0  0  0  0  0  0  0  0  0  0  0  0
   32.6100   28.5140   37.5880 H   0  0  0  0  0  0  0  0  0  0  0  0
   33.7090   28.7870   35.3800 H   0  0  0  0  0  0  0  0  0  0  0  0
   36.2700   29.3040   34.9470 C   0  0  0  0  0  0  0  0  0  0  0  0
   36.8380   28.4860   34.5430 H   0  0  0  0  0  0  0  0  0  0  0  0
   36.1590   30.3520   34.2920 O   0  0  0  0  0  0  0  0  0  0  0  0
  1  4  1  6  0  0  0
  1  3  1  0  0  0  0
  1  2  1  0  0  0  0
  2  6  1  0  0  0  0
  3  2  1  0  0  0  0
  3  7  1  6  0  0  0
  3  8  1  0  0  0  0
  5  2  1  0  0  0  0
  8  9  1  0  0  0  0
  9 18  1  0  0  0  0
  9 10  2  0  0  0  0
 10 19  1  0  0  0  0
 11 10  1  0  0  0  0
 11 20  1  0  0  0  0
 12 11  2  0  0  0  0
 13 12  1  0  0  0  0
 13 21  1  0  0  0  0
 14 13  2  0  0  0  0
 15 16  2  0  0  0  0
 15 14  1  0  0  0  0
 16 17  1  0  0  0  0
 17  8  2  0  0  0  0
 17 12  1  0  0  0  0
 22 14  1  0  0  0  0
 23 15  1  0  0  0  0
 24 16  1  0  0  0  0
 25 30  1  0  0  0  0
 26 25  2  0  0  0  0
 27 26  1  0  0  0  0
 27 28  2  0  0  0  0
 28 29  1  0  0  0  0
 29 30  2  0  0  0  0
 29  1  1  0  0  0  0
 31 25  1  0  0  0  0
 32 26  1  0  0  0  0
 33 27  1  0  0  0  0
 34 33  1  0  0  0  0
 35 33  2  0  0  0  0
M  END
>  <minimizedAffinity>
-5.47681761

$$$$

 OpenBabel03252508273D

 35 38  0  0  1  0  0  0  0  0999 V2000
   38.0460   31.1390   40.1810 C   0  0  1  0  0  0  0  0  0  0  0  0
   36.9110   30.5710   39.4390 C   0  0  0  0  0  0  0  0  0  0  0  0
   38.0000   29.6900   40.1710 C   0  0  2  0  0  0  0  0  0  0  0  0
   37.5730   31.8200   40.9740 H   0  0  0  0  0  0  0  0  0  0  0  0
   36.9560   30.6560   38.3520 H   0  0  0  0  0  0  0  0  0  0  0  0
   35.9010   30.4230   39.8270 H   0  0  0  0  0  0  0  0  0  0  0  0
   38.3580   29.0580   39.3100 H   0  0  0  0  0  0  0  0  0  0  0  0
   37.6020   28.8470   41.3010 C   0  0  0  0  0  0  0  0  0  0  0  0
   37.5170   29.2040   42.6120 C   0  0  0  0  0  0  0  0  0  0  0  0
   37.2560   28.3460   43.6710 C   0  0  0  0  0  0  0  0  0  0  0  0
   37.0650   26.9950   43.3480 C   0  0  0  0  0  0  0  0  0  0  0  0
   37.1430   26.6020   42.0100 C   0  0  0  0  0  0  0  0  0  0  0  0
   36.8860   25.2700   41.7370 C   0  0  0  0  0  0  0  0  0  0  0  0
   36.8850   24.8510   40.4110 C   0  0  0  0  0  0  0  0  0  0  0  0
   37.1320   25.7400   39.3850 C   0  0  0  0  0  0  0  0  0  0  0  0
   37.3810   27.0490   39.7210 C   0  0  0  0  0  0  0  0  0  0  0  0
   37.4030   27.5180   41.0220 C   0  0  0  0  0  0  0  0  0  0  0  0
   37.6740   30.2620   42.8150 H   0  0  0  0  0  0  0  0  0  0  0  0
   37.2020   28.7050   44.6920 H   0  0  0  0  0  0  0  0  0  0  0  0
   36.8670   26.3490   44.1790 H   0  0  0  0  0  0  0  0  0  0  0  0
   36.6920   24.5890   42.5650 H   0  0  0  0  0  0  0  0  0  0  0  0
   36.6720   23.7740   40.3130 H   0  0  0  0  0  0  0  0  0  0  0  0
   37.0830   25.2260   38.4470 H   0  0  0  0  0  0  0  0  0  0  0  0
   37.4520   27.5340   38.7890 H   0  0  0  0  0  0  0  0  0  0  0  0
   40.3610   32.2080   37.5090 C   0  0  0  0  0  0  0  0  0  0  0  0
   41.2610   33.0800   38.2130 C   0  0  0  0  0  0  0  0  0  0  0  0
   41.0260   33.2850   39.6100 C   0  0  0  0  0  0  0  0  0  0  0  0
   39.9850   32.6630   40.2070 N   0  0  0  0  0  0  0  0  0  0  0  0
   39.1590   31.8370   39.4690 C   0  0  0  0  0  0  0  0  0  0  0  0
   39.3460   31.6220   38.1680 N   0  0  0  0  0  0  0  0  0  0  0  0
   40.5790   32.0860   36.4650 H   0  0  0  0  0  0  0  0  0  0  0  0
   42.0880   33.5780   37.7510 H   0  0  0  0  0  0  0  0  0  0  0  0
   41.9140   34.1540   40.3300 C   0  0  0  0  0  0  0  0  0  0  0  0
   41.9620   35.1900   40.0500 H   0  0  0  0  0  0  0  0  0  0  0  0
   42.6230   33.7400   41.2610 O   0  0  0  0  0  0  0  0  0  0  0  0
  1  4  1  1  0  0  0
  2  6  1  0  0  0  0
  2  3  1  0  0  0  0
  2  1  1  0  0  0  0
  3  7  1  6  0  0  0
  3  1  1  0  0  0  0
  3  8  1  0  0  0  0
  5  2  1  0  0  0  0
  8  9  1  0  0  0  0
  9 18  1  0  0  0  0
  9 10  2  0  0  0  0
 10 19  1  0  0  0  0
 11 10  1  0  0  0  0
 11 20  1  0  0  0  0
 12 11  2  0  0  0  0
 13 12  1  0  0  0  0
 13 21  1  0  0  0  0
 14 13  2  0  0  0  0
 15 16  2  0  0  0  0
 15 14  1  0  0  0  0
 16 17  1  0  0  0  0
 17  8  2  0  0  0  0
 17 12  1  0  0  0  0
 22 14  1  0  0  0  0
 23 15  1  0  0  0  0
 24 16  1  0  0  0  0
 25 30  2  0  0  0  0
 25 26  1  0  0  0  0
 26 27  2  0  0  0  0
 27 28  1  0  0  0  0
 27 33  1  0  0  0  0
 29  1  1  0  0  0  0
 29 28  2  0  0  0  0
 30 29  1  0  0  0  0
 31 25  1  0  0  0  0
 32 26  1  0  0  0  0
 33 35  2  0  0  0  0
 34 33  1  0  0  0  0
M  END
>  <minimizedAffinity>
-5.39889479

$$$$

 OpenBabel03252508273D

 35 38  0  0  1  0  0  0  0  0999 V2000
   35.8550   29.5020   39.3610 C   0  0  1  0  0  0  0  0  0  0  0  0
   34.6970   29.2440   40.2300 C   0  0  0  0  0  0  0  0  0  0  0  0
   35.9480   28.2830   40.1410 C   0  0  2  0  0  0  0  0  0  0  0  0
   36.2430   30.5340   39.6790 H   0  0  0  0  0  0  0  0  0  0  0  0
   33.7750   28.9460   39.7270 H   0  0  0  0  0  0  0  0  0  0  0  0
   34.5390   29.6600   41.2270 H   0  0  0  0  0  0  0  0  0  0  0  0
   35.4400   27.3180   39.8590 H   0  0  0  0  0  0  0  0  0  0  0  0
   36.7960   28.0950   41.3210 C   0  0  0  0  0  0  0  0  0  0  0  0
   37.2310   29.0480   42.1890 C   0  0  0  0  0  0  0  0  0  0  0  0
   38.1330   28.8500   43.2240 C   0  0  0  0  0  0  0  0  0  0  0  0
   38.6340   27.5500   43.3770 C   0  0  0  0  0  0  0  0  0  0  0  0
   38.2010   26.5510   42.5010 C   0  0  0  0  0  0  0  0  0  0  0  0
   38.6760   25.2730   42.7330 C   0  0  0  0  0  0  0  0  0  0  0  0
   38.2160   24.2360   41.9280 C   0  0  0  0  0  0  0  0  0  0  0  0
   37.3040   24.4710   40.9190 C   0  0  0  0  0  0  0  0  0  0  0  0
   36.8710   25.7640   40.7390 C   0  0  0  0  0  0  0  0  0  0  0  0
   37.3020   26.8320   41.5050 C   0  0  0  0  0  0  0  0  0  0  0  0
   36.8170   30.0430   42.0320 H   0  0  0  0  0  0  0  0  0  0  0  0
   38.4330   29.6610   43.8790 H   0  0  0  0  0  0  0  0  0  0  0  0
   39.3310   27.4180   44.1800 H   0  0  0  0  0  0  0  0  0  0  0  0
   39.3950   25.1130   43.5370 H   0  0  0  0  0  0  0  0  0  0  0  0
   38.6630   23.2660   42.1990 H   0  0  0  0  0  0  0  0  0  0  0  0
   37.0760   23.5510   40.4210 H   0  0  0  0  0  0  0  0  0  0  0  0
   36.1370   25.6760   39.9900 H   0  0  0  0  0  0  0  0  0  0  0  0
   36.6190   29.8500   35.7640 C   0  0  0  0  0  0  0  0  0  0  0  0
   35.4510   29.2840   35.1460 C   0  0  0  0  0  0  0  0  0  0  0  0
   34.4260   28.7790   36.0070 C   0  0  0  0  0  0  0  0  0  0  0  0
   34.5890   28.8510   37.3480 N   0  0  0  0  0  0  0  0  0  0  0  0
   35.7380   29.4080   37.8750 C   0  0  0  0  0  0  0  0  0  0  0  0
   36.7130   29.8880   37.1050 N   0  0  0  0  0  0  0  0  0  0  0  0
   37.3590   30.2150   35.0770 H   0  0  0  0  0  0  0  0  0  0  0  0
   35.3110   29.2220   34.0870 H   0  0  0  0  0  0  0  0  0  0  0  0
   33.2520   28.2080   35.4080 C   0  0  0  0  0  0  0  0  0  0  0  0
   32.3250   28.2490   35.9500 H   0  0  0  0  0  0  0  0  0  0  0  0
   33.2830   27.6730   34.2890 O   0  0  0  0  0  0  0  0  0  0  0  0
  1  4  1  1  0  0  0
  1  3  1  0  0  0  0
  1  2  1  0  0  0  0
  2  6  1  0  0  0  0
  3  7  1  6  0  0  0
  3  2  1  0  0  0  0
  3  8  1  0  0  0  0
  5  2  1  0  0  0  0
  8 17  2  0  0  0  0
  8  9  1  0  0  0  0
  9 10  2  0  0  0  0
 10 11  1  0  0  0  0
 10 19  1  0  0  0  0
 11 20  1  0  0  0  0
 12 13  1  0  0  0  0
 12 11  2  0  0  0  0
 13 21  1  0  0  0  0
 14 22  1  0  0  0  0
 14 13  2  0  0  0  0
 15 14  1  0  0  0  0
 16 15  2  0  0  0  0
 16 17  1  0  0  0  0
 17 12  1  0  0  0  0
 18  9  1  0  0  0  0
 23 15  1  0  0  0  0
 24 16  1  0  0  0  0
 25 30  1  0  0  0  0
 26 25  2  0  0  0  0
 26 27  1  0  0  0  0
 27 28  2  0  0  0  0
 28 29  1  0  0  0  0
 29  1  1  0  0  0  0
 30 29  2  0  0  0  0
 31 25  1  0  0  0  0
 32 26  1  0  0  0  0
 33 34  1  0  0  0  0
 33 27  1  0  0  0  0
 35 33  2  0  0  0  0
M  END
>  <minimizedAffinity>
-5.39672279

$$$$
