
 OpenBabel03242511493D

 19 20  0  0  1  0  0  0  0  0999 V2000
   46.2610   34.3790   41.3420 C   0  0  1  0  0  0  0  0  0  0  0  0
   47.6300   34.7080   40.9490 C   0  0  2  0  0  0  0  0  0  0  0  0
   47.2850   33.2750   41.1940 C   0  0  0  0  0  0  0  0  0  0  0  0
   45.4160   34.2340   40.6120 H   0  0  0  0  0  0  0  0  0  0  0  0
   47.7550   35.1130   39.9170 H   0  0  0  0  0  0  0  0  0  0  0  0
   47.2850   32.6630   40.2790 H   0  0  0  0  0  0  0  0  0  0  0  0
   47.6860   32.7770   42.0770 H   0  0  0  0  0  0  0  0  0  0  0  0
   45.2130   35.9470   42.9580 C   0  0  0  0  0  0  0  0  0  0  0  0
   45.7410   34.6810   42.6970 C   0  0  0  0  0  0  0  0  0  0  0  0
   45.7600   33.7710   43.7520 C   0  0  0  0  0  0  0  0  0  0  0  0
   45.2640   34.1670   44.9760 N   0  0  0  0  0  0  0  0  0  0  0  0
   44.7700   35.3920   45.1770 C   0  0  0  0  0  0  0  0  0  0  0  0
   44.7370   36.3050   44.1620 N   0  0  0  0  0  0  0  0  0  0  0  0
   45.1070   36.7620   42.2690 H   0  0  0  0  0  0  0  0  0  0  0  0
   46.1640   32.7850   43.5740 H   0  0  0  0  0  0  0  0  0  0  0  0
   44.4030   35.6130   46.1710 H   0  0  0  0  0  0  0  0  0  0  0  0
   48.5310   35.2980   41.9700 C   0  0  0  0  0  0  0  0  0  0  0  0
   48.5330   34.8760   42.9890 H   0  0  0  0  0  0  0  0  0  0  0  0
   49.2160   36.2200   41.5990 O   0  0  0  0  0  0  0  0  0  0  0  0
  1  4  1  6  0  0  0
  1  9  1  0  0  0  0
  2  5  1  6  0  0  0
  2  3  1  0  0  0  0
  2  1  1  0  0  0  0
  2 17  1  0  0  0  0
  3  1  1  0  0  0  0
  3  7  1  0  0  0  0
  6  3  1  0  0  0  0
  8 13  1  0  0  0  0
  9  8  2  0  0  0  0
  9 10  1  0  0  0  0
 10 11  2  0  0  0  0
 11 12  1  0  0  0  0
 12 16  1  0  0  0  0
 13 12  2  0  0  0  0
 14  8  1  0  0  0  0
 15 10  1  0  0  0  0
 17 18  1  0  0  0  0
 19 17  2  0  0  0  0
M  END
>  <minimizedAffinity>
-3.83765364

>  <minimizedRMSD>
1.77045357

$$$$
