
 OpenBabel03242520153D

 19 20  0  0  0  0  0  0  0  0999 V2000
   45.3030   34.4820   44.4810 C   0  0  0  0  0  0  0  0  0  0  0  0
   46.2490   33.8330   43.6270 C   0  0  0  0  0  0  0  0  0  0  0  0
   47.1110   32.8800   44.1730 C   0  0  0  0  0  0  0  0  0  0  0  0
   46.9810   32.6410   45.5090 N   0  0  0  0  0  0  0  0  0  0  0  0
   46.0840   33.2670   46.2880 C   0  0  0  0  0  0  0  0  0  0  0  0
   45.2560   34.1750   45.7780 N   0  0  0  0  0  0  0  0  0  0  0  0
   46.2800   34.0860   42.5770 H   0  0  0  0  0  0  0  0  0  0  0  0
   46.0400   33.0210   47.3500 H   0  0  0  0  0  0  0  0  0  0  0  0
   44.4130   35.4960   43.8720 C   0  0  0  0  0  0  0  0  0  0  0  0
   45.1920   36.7420   43.3750 C   0  0  0  0  0  0  0  0  0  0  0  0
   44.4360   35.8260   42.4640 C   0  0  0  0  0  0  0  0  0  0  0  0
   43.5120   35.7030   44.4730 H   0  0  0  0  0  0  0  0  0  0  0  0
   44.6810   37.6840   43.6210 H   0  0  0  0  0  0  0  0  0  0  0  0
   46.2920   36.7060   43.3960 H   0  0  0  0  0  0  0  0  0  0  0  0
   45.1010   35.2380   41.7800 H   0  0  0  0  0  0  0  0  0  0  0  0
   43.5130   36.2150   41.9900 H   0  0  0  0  0  0  0  0  0  0  0  0
   48.0890   32.1930   43.3370 C   0  0  0  0  0  0  0  0  0  0  0  0
   47.9650   31.1160   43.2420 H   0  0  0  0  0  0  0  0  0  0  0  0
   49.0250   32.8130   42.7590 O   0  0  0  0  0  0  0  0  0  0  0  0
  1  6  1  0  0  0  0
  2  3  1  0  0  0  0
  2  1  2  0  0  0  0
  3  4  2  0  0  0  0
  4  5  1  0  0  0  0
  5  8  1  0  0  0  0
  6  5  2  0  0  0  0
  7  2  1  0  0  0  0
  9 12  1  0  0  0  0
  9  1  1  0  0  0  0
 10 14  1  0  0  0  0
 10 13  1  0  0  0  0
 10  9  1  0  0  0  0
 11 10  1  0  0  0  0
 11  9  1  0  0  0  0
 15 11  1  0  0  0  0
 16 11  1  0  0  0  0
 17  3  1  0  0  0  0
 18 17  1  0  0  0  0
 19 17  2  0  0  0  0
M  END
>  <minimizedAffinity>
-3.27093315

>  <minimizedRMSD>
0.831762254

$$$$
