
 OpenBabel03252508143D

 31 33  0  0  1  0  0  0  0  0999 V2000
   46.1760   30.8920   46.8030 C   0  0  0  0  0  0  0  0  0  0  0  0
   47.1620   30.3990   46.7820 H   0  0  0  0  0  0  0  0  0  0  0  0
   45.3270   30.1990   46.5880 H   0  0  0  0  0  0  0  0  0  0  0  0
   45.9470   31.5390   48.1470 C   0  0  1  0  0  0  0  0  0  0  0  0
   45.7210   30.6150   49.2960 C   0  0  0  0  0  0  0  0  0  0  0  0
   46.9580   31.3680   49.2160 C   0  0  1  0  0  0  0  0  0  0  0  0
   45.4420   32.5270   48.1300 H   0  0  0  0  0  0  0  0  0  0  0  0
   44.9170   30.9200   50.0210 H   0  0  0  0  0  0  0  0  0  0  0  0
   45.6890   29.5310   49.0980 H   0  0  0  0  0  0  0  0  0  0  0  0
   47.0440   32.2080   49.9730 H   0  0  0  0  0  0  0  0  0  0  0  0
   48.2640   30.7810   48.8500 C   0  0  0  0  0  0  0  0  0  0  0  0
   49.1730   30.4300   50.0560 C   0  0  0  0  0  0  0  0  0  0  0  0
   49.5170   31.6080   49.2110 C   0  0  0  0  0  0  0  0  0  0  0  0
   48.3400   30.0840   48.0080 H   0  0  0  0  0  0  0  0  0  0  0  0
   49.8410   29.5620   49.9300 H   0  0  0  0  0  0  0  0  0  0  0  0
   48.7690   30.5750   51.0700 H   0  0  0  0  0  0  0  0  0  0  0  0
   49.3120   32.6080   49.6190 H   0  0  0  0  0  0  0  0  0  0  0  0
   50.3380   31.5260   48.4680 H   0  0  0  0  0  0  0  0  0  0  0  0
   45.7570   33.1130   46.0890 C   0  0  0  0  0  0  0  0  0  0  0  0
   46.0600   31.9340   45.7010 C   0  0  0  0  0  0  0  0  0  0  0  0
   44.5710   36.1140   44.3300 C   0  0  0  0  0  0  0  0  0  0  0  0
   45.2840   36.0840   43.1400 C   0  0  0  0  0  0  0  0  0  0  0  0
   46.1770   35.0380   42.9780 C   0  0  0  0  0  0  0  0  0  0  0  0
   46.3100   34.1160   43.9590 N   0  0  0  0  0  0  0  0  0  0  0  0
   45.6030   34.1700   45.1030 C   0  0  0  0  0  0  0  0  0  0  0  0
   44.7490   35.1690   45.2650 N   0  0  0  0  0  0  0  0  0  0  0  0
   43.8440   36.8690   44.5920 H   0  0  0  0  0  0  0  0  0  0  0  0
   45.1100   36.8640   42.4100 H   0  0  0  0  0  0  0  0  0  0  0  0
   46.9510   34.9550   41.7570 C   0  0  0  0  0  0  0  0  0  0  0  0
   46.5460   34.4940   40.8670 H   0  0  0  0  0  0  0  0  0  0  0  0
   48.1190   35.4150   41.6920 O   0  0  0  0  0  0  0  0  0  0  0  0
  1  4  1  0  0  0  0
  2  1  1  0  0  0  0
  3  1  1  0  0  0  0
  4  7  1  1  0  0  0
  4  6  1  0  0  0  0
  4  5  1  0  0  0  0
  5  8  1  0  0  0  0
  6  5  1  0  0  0  0
  6 10  1  1  0  0  0
  9  5  1  0  0  0  0
 11 13  1  0  0  0  0
 11  6  1  0  0  0  0
 11 12  1  0  0  0  0
 12 16  1  0  0  0  0
 13 17  1  0  0  0  0
 13 12  1  0  0  0  0
 14 11  1  0  0  0  0
 15 12  1  0  0  0  0
 18 13  1  0  0  0  0
 20 19  2  0  0  0  0
 20  1  1  0  0  0  0
 21 27  1  0  0  0  0
 21 26  1  0  0  0  0
 22 21  2  0  0  0  0
 23 22  1  0  0  0  0
 23 24  2  0  0  0  0
 24 25  1  0  0  0  0
 25 26  2  0  0  0  0
 25 19  1  0  0  0  0
 28 22  1  0  0  0  0
 29 23  1  0  0  0  0
 30 29  1  0  0  0  0
 31 29  2  0  0  0  0
M  END
>  <minimizedAffinity>
-4.85756826

>  <minimizedRMSD>
0.683796823

$$$$
