
 OpenBabel03252508403D

 35 37  0  0  0  0  0  0  0  0999 V2000
   37.8750   29.0430   40.3200 C   0  0  0  0  0  0  0  0  0  0  0  0
   37.7200   30.3850   40.0920 C   0  0  0  0  0  0  0  0  0  0  0  0
   36.4580   30.8890   40.1960 C   0  0  0  0  0  0  0  0  0  0  0  0
   35.3580   30.1350   40.5100 C   0  0  0  0  0  0  0  0  0  0  0  0
   35.5370   28.7940   40.7340 C   0  0  0  0  0  0  0  0  0  0  0  0
   36.7970   28.2270   40.6420 C   0  0  0  0  0  0  0  0  0  0  0  0
   36.3160   31.9470   40.0190 H   0  0  0  0  0  0  0  0  0  0  0  0
   34.3670   30.6000   40.5780 H   0  0  0  0  0  0  0  0  0  0  0  0
   34.6690   28.1890   40.9840 H   0  0  0  0  0  0  0  0  0  0  0  0
   40.3870   32.2300   38.1560 C   0  0  0  0  0  0  0  0  0  0  0  0
   39.2250   31.4940   38.4400 C   0  0  0  0  0  0  0  0  0  0  0  0
   38.9110   31.1450   39.7630 C   0  0  0  0  0  0  0  0  0  0  0  0
   39.7910   31.5640   40.6940 N   0  0  0  0  0  0  0  0  0  0  0  0
   40.8900   32.2620   40.4170 C   0  0  0  0  0  0  0  0  0  0  0  0
   41.1880   32.5950   39.1440 N   0  0  0  0  0  0  0  0  0  0  0  0
   40.6540   32.5520   36.8170 N   0  0  0  0  0  0  0  0  0  0  0  0
   38.5730   31.1970   37.6320 H   0  0  0  0  0  0  0  0  0  0  0  0
   41.4970   32.5250   41.2750 H   0  0  0  0  0  0  0  0  0  0  0  0
   41.2210   31.8520   36.2610 H   0  0  0  0  0  0  0  0  0  0  0  0
   40.3200   33.4450   36.3540 H   0  0  0  0  0  0  0  0  0  0  0  0
   36.8940   26.7960   40.8960 C   0  0  0  0  0  0  0  0  0  0  0  0
   36.6540   25.9830   39.7980 C   0  0  0  0  0  0  0  0  0  0  0  0
   36.7070   24.5910   39.8680 C   0  0  0  0  0  0  0  0  0  0  0  0
   37.0120   24.0140   41.0900 C   0  0  0  0  0  0  0  0  0  0  0  0
   37.2500   24.8140   42.1790 C   0  0  0  0  0  0  0  0  0  0  0  0
   37.1920   26.1870   42.0860 C   0  0  0  0  0  0  0  0  0  0  0  0
   36.4120   26.3880   38.8250 H   0  0  0  0  0  0  0  0  0  0  0  0
   36.5120   23.9950   38.9870 H   0  0  0  0  0  0  0  0  0  0  0  0
   37.0590   22.9440   41.1720 H   0  0  0  0  0  0  0  0  0  0  0  0
   37.4870   24.3540   43.1290 H   0  0  0  0  0  0  0  0  0  0  0  0
   37.4380   27.0540   43.2130 C   0  0  0  0  0  0  0  0  0  0  0  0
   36.5930   27.4990   43.7200 H   0  0  0  0  0  0  0  0  0  0  0  0
   38.6060   27.2810   43.5890 O   0  0  0  0  0  0  0  0  0  0  0  0
   40.2320   27.9130   40.1790 N   0  0  0  0  0  0  0  0  0  0  0  0
   39.1760   28.4230   40.2320 C   0  0  0  0  0  0  0  0  0  0  0  0
  1  6  1  0  0  0  0
  2  3  1  0  0  0  0
  2  1  2  0  0  0  0
  3  4  2  0  0  0  0
  4  8  1  0  0  0  0
  4  5  1  0  0  0  0
  5  9  1  0  0  0  0
  6  5  2  0  0  0  0
  6 21  1  0  0  0  0
  7  3  1  0  0  0  0
 10 11  2  0  0  0  0
 10 15  1  0  0  0  0
 11 12  1  0  0  0  0
 12  2  1  0  0  0  0
 12 13  2  0  0  0  0
 14 13  1  0  0  0  0
 14 18  1  0  0  0  0
 15 14  2  0  0  0  0
 16 10  1  0  0  0  0
 17 11  1  0  0  0  0
 19 16  1  0  0  0  0
 20 16  1  0  0  0  0
 21 26  1  0  0  0  0
 22 23  1  0  0  0  0
 22 21  2  0  0  0  0
 23 24  2  0  0  0  0
 24 29  1  0  0  0  0
 24 25  1  0  0  0  0
 25 30  1  0  0  0  0
 26 25  2  0  0  0  0
 26 31  1  0  0  0  0
 27 22  1  0  0  0  0
 28 23  1  0  0  0  0
 31 33  2  0  0  0  0
 31 32  1  0  0  0  0
 34 35  3  0  0  0  0
 35  1  1  0  0  0  0
M  END
>  <minimizedAffinity>
-5.79628897

$$$$

 OpenBabel03252508403D

 35 37  0  0  0  0  0  0  0  0999 V2000
   37.9440   27.9910   41.1930 C   0  0  0  0  0  0  0  0  0  0  0  0
   37.8080   29.0710   42.0250 C   0  0  0  0  0  0  0  0  0  0  0  0
   37.2530   28.8450   43.2480 C   0  0  0  0  0  0  0  0  0  0  0  0
   36.8320   27.6150   43.6790 C   0  0  0  0  0  0  0  0  0  0  0  0
   36.9770   26.5480   42.8300 C   0  0  0  0  0  0  0  0  0  0  0  0
   37.5350   26.7200   41.5740 C   0  0  0  0  0  0  0  0  0  0  0  0
   37.1370   29.6860   43.9190 H   0  0  0  0  0  0  0  0  0  0  0  0
   36.3910   27.4970   44.6770 H   0  0  0  0  0  0  0  0  0  0  0  0
   36.6460   25.5680   43.1650 H   0  0  0  0  0  0  0  0  0  0  0  0
   37.8700   32.5090   40.4590 C   0  0  0  0  0  0  0  0  0  0  0  0
   37.3920   31.2750   40.9310 C   0  0  0  0  0  0  0  0  0  0  0  0
   38.2670   30.3550   41.5270 C   0  0  0  0  0  0  0  0  0  0  0  0
   39.5550   30.7490   41.6020 N   0  0  0  0  0  0  0  0  0  0  0  0
   40.0000   31.9210   41.1530 C   0  0  0  0  0  0  0  0  0  0  0  0
   39.1540   32.8020   40.5800 N   0  0  0  0  0  0  0  0  0  0  0  0
   36.9520   33.3920   39.8720 N   0  0  0  0  0  0  0  0  0  0  0  0
   36.3420   31.0370   40.8300 H   0  0  0  0  0  0  0  0  0  0  0  0
   41.0610   32.0910   41.2860 H   0  0  0  0  0  0  0  0  0  0  0  0
   36.7990   33.2970   38.8270 H   0  0  0  0  0  0  0  0  0  0  0  0
   36.4210   34.1300   40.4160 H   0  0  0  0  0  0  0  0  0  0  0  0
   37.6520   25.5320   40.7390 C   0  0  0  0  0  0  0  0  0  0  0  0
   36.5650   25.2780   39.9150 C   0  0  0  0  0  0  0  0  0  0  0  0
   36.5140   24.1830   39.0530 C   0  0  0  0  0  0  0  0  0  0  0  0
   37.6000   23.3240   39.0300 C   0  0  0  0  0  0  0  0  0  0  0  0
   38.6780   23.5710   39.8430 C   0  0  0  0  0  0  0  0  0  0  0  0
   38.7060   24.6580   40.6870 C   0  0  0  0  0  0  0  0  0  0  0  0
   35.6940   25.9200   39.8990 H   0  0  0  0  0  0  0  0  0  0  0  0
   35.6460   24.0230   38.4290 H   0  0  0  0  0  0  0  0  0  0  0  0
   37.5870   22.4730   38.3760 H   0  0  0  0  0  0  0  0  0  0  0  0
   39.5220   22.8950   39.8190 H   0  0  0  0  0  0  0  0  0  0  0  0
   39.8250   24.9440   41.5520 C   0  0  0  0  0  0  0  0  0  0  0  0
   40.5490   25.6830   41.2380 H   0  0  0  0  0  0  0  0  0  0  0  0
   39.9460   24.3470   42.6420 O   0  0  0  0  0  0  0  0  0  0  0  0
   39.0030   28.2730   38.8150 N   0  0  0  0  0  0  0  0  0  0  0  0
   38.5220   28.1390   39.8770 C   0  0  0  0  0  0  0  0  0  0  0  0
  1  6  2  0  0  0  0
  1  2  1  0  0  0  0
  2  3  2  0  0  0  0
  3  4  1  0  0  0  0
  3  7  1  0  0  0  0
  4  8  1  0  0  0  0
  5  9  1  0  0  0  0
  5  4  2  0  0  0  0
  6  5  1  0  0  0  0
 10 15  2  0  0  0  0
 10 11  1  0  0  0  0
 11 12  2  0  0  0  0
 12 13  1  0  0  0  0
 12  2  1  0  0  0  0
 14 18  1  0  0  0  0
 14 13  2  0  0  0  0
 15 14  1  0  0  0  0
 16 20  1  0  0  0  0
 16 10  1  0  0  0  0
 17 11  1  0  0  0  0
 19 16  1  0  0  0  0
 21  6  1  0  0  0  0
 22 21  2  0  0  0  0
 23 22  1  0  0  0  0
 24 23  2  0  0  0  0
 24 25  1  0  0  0  0
 25 26  2  0  0  0  0
 26 21  1  0  0  0  0
 26 31  1  0  0  0  0
 27 22  1  0  0  0  0
 28 23  1  0  0  0  0
 29 24  1  0  0  0  0
 30 25  1  0  0  0  0
 31 33  2  0  0  0  0
 32 31  1  0  0  0  0
 34 35  3  0  0  0  0
 35  1  1  0  0  0  0
M  END
>  <minimizedAffinity>
-5.71923733

$$$$

 OpenBabel03252508403D

 35 37  0  0  0  0  0  0  0  0999 V2000
   39.1090   29.9420   39.3770 C   0  0  0  0  0  0  0  0  0  0  0  0
   39.1390   30.6800   38.2220 C   0  0  0  0  0  0  0  0  0  0  0  0
   37.9390   31.0070   37.6660 C   0  0  0  0  0  0  0  0  0  0  0  0
   36.7280   30.6430   38.1930 C   0  0  0  0  0  0  0  0  0  0  0  0
   36.7230   29.9050   39.3490 C   0  0  0  0  0  0  0  0  0  0  0  0
   37.9130   29.5440   39.9590 C   0  0  0  0  0  0  0  0  0  0  0  0
   37.9420   31.5890   36.7530 H   0  0  0  0  0  0  0  0  0  0  0  0
   35.7950   30.9370   37.6970 H   0  0  0  0  0  0  0  0  0  0  0  0
   35.7660   29.6130   39.7750 H   0  0  0  0  0  0  0  0  0  0  0  0
   42.1020   32.6990   37.0350 C   0  0  0  0  0  0  0  0  0  0  0  0
   40.8320   32.3820   37.5440 C   0  0  0  0  0  0  0  0  0  0  0  0
   40.4420   31.0430   37.6990 C   0  0  0  0  0  0  0  0  0  0  0  0
   41.3620   30.1290   37.3280 N   0  0  0  0  0  0  0  0  0  0  0  0
   42.5640   30.4380   36.8460 C   0  0  0  0  0  0  0  0  0  0  0  0
   42.9340   31.7260   36.6990 N   0  0  0  0  0  0  0  0  0  0  0  0
   42.4410   34.0540   36.9000 N   0  0  0  0  0  0  0  0  0  0  0  0
   40.1540   33.1780   37.8170 H   0  0  0  0  0  0  0  0  0  0  0  0
   43.1890   29.5890   36.5940 H   0  0  0  0  0  0  0  0  0  0  0  0
   42.1930   34.5200   35.9810 H   0  0  0  0  0  0  0  0  0  0  0  0
   42.9220   34.6130   37.6610 H   0  0  0  0  0  0  0  0  0  0  0  0
   37.8130   28.7610   41.1830 C   0  0  0  0  0  0  0  0  0  0  0  0
   37.7850   29.5000   42.3570 C   0  0  0  0  0  0  0  0  0  0  0  0
   37.6910   28.9070   43.6160 C   0  0  0  0  0  0  0  0  0  0  0  0
   37.6240   27.5250   43.6800 C   0  0  0  0  0  0  0  0  0  0  0  0
   37.6530   26.7900   42.5220 C   0  0  0  0  0  0  0  0  0  0  0  0
   37.7460   27.3970   41.2890 C   0  0  0  0  0  0  0  0  0  0  0  0
   37.8340   30.5810   42.3570 H   0  0  0  0  0  0  0  0  0  0  0  0
   37.6730   29.5220   44.5060 H   0  0  0  0  0  0  0  0  0  0  0  0
   37.5520   27.0440   44.6360 H   0  0  0  0  0  0  0  0  0  0  0  0
   37.6000   25.7120   42.5810 H   0  0  0  0  0  0  0  0  0  0  0  0
   37.7760   26.6510   40.0540 C   0  0  0  0  0  0  0  0  0  0  0  0
   38.7210   26.5340   39.5420 H   0  0  0  0  0  0  0  0  0  0  0  0
   36.7290   26.1530   39.5940 O   0  0  0  0  0  0  0  0  0  0  0  0
   41.3300   29.2500   40.5770 N   0  0  0  0  0  0  0  0  0  0  0  0
   40.3340   29.5500   40.0350 C   0  0  0  0  0  0  0  0  0  0  0  0
  1  6  1  0  0  0  0
  1 35  1  0  0  0  0
  2  1  2  0  0  0  0
  3  4  2  0  0  0  0
  3  2  1  0  0  0  0
  4  5  1  0  0  0  0
  5  9  1  0  0  0  0
  5  6  2  0  0  0  0
  6 21  1  0  0  0  0
  7  3  1  0  0  0  0
  8  4  1  0  0  0  0
 10 11  1  0  0  0  0
 11 12  2  0  0  0  0
 11 17  1  0  0  0  0
 12  2  1  0  0  0  0
 13 12  1  0  0  0  0
 14 13  2  0  0  0  0
 15 14  1  0  0  0  0
 15 10  2  0  0  0  0
 16 10  1  0  0  0  0
 16 20  1  0  0  0  0
 18 14  1  0  0  0  0
 19 16  1  0  0  0  0
 21 26  2  0  0  0  0
 21 22  1  0  0  0  0
 22 23  2  0  0  0  0
 23 24  1  0  0  0  0
 23 28  1  0  0  0  0
 24 29  1  0  0  0  0
 25 30  1  0  0  0  0
 25 24  2  0  0  0  0
 26 25  1  0  0  0  0
 27 22  1  0  0  0  0
 31 26  1  0  0  0  0
 32 31  1  0  0  0  0
 33 31  2  0  0  0  0
 35 34  3  0  0  0  0
M  END
>  <minimizedAffinity>
-5.65139532

$$$$

 OpenBabel03252508403D

 35 37  0  0  0  0  0  0  0  0999 V2000
   39.0090   31.1220   40.6320 C   0  0  0  0  0  0  0  0  0  0  0  0
   38.9870   32.3710   40.0690 C   0  0  0  0  0  0  0  0  0  0  0  0
   37.7640   32.9270   39.8410 C   0  0  0  0  0  0  0  0  0  0  0  0
   36.5780   32.3100   40.1420 C   0  0  0  0  0  0  0  0  0  0  0  0
   36.6230   31.0610   40.7050 C   0  0  0  0  0  0  0  0  0  0  0  0
   37.8390   30.4480   40.9580 C   0  0  0  0  0  0  0  0  0  0  0  0
   37.7260   33.9130   39.3970 H   0  0  0  0  0  0  0  0  0  0  0  0
   35.6240   32.8110   39.9350 H   0  0  0  0  0  0  0  0  0  0  0  0
   35.6870   30.5660   40.9470 H   0  0  0  0  0  0  0  0  0  0  0  0
   41.9580   33.7550   38.1910 C   0  0  0  0  0  0  0  0  0  0  0  0
   40.7140   33.1560   38.4480 C   0  0  0  0  0  0  0  0  0  0  0  0
   40.2660   32.9860   39.7670 C   0  0  0  0  0  0  0  0  0  0  0  0
   41.1060   33.4320   40.7230 N   0  0  0  0  0  0  0  0  0  0  0  0
   42.2840   34.0000   40.4700 C   0  0  0  0  0  0  0  0  0  0  0  0
   42.7100   34.1600   39.2010 N   0  0  0  0  0  0  0  0  0  0  0  0
   42.3570   33.9000   36.8540 N   0  0  0  0  0  0  0  0  0  0  0  0
   40.1020   32.8250   37.6210 H   0  0  0  0  0  0  0  0  0  0  0  0
   42.8430   34.3050   41.3460 H   0  0  0  0  0  0  0  0  0  0  0  0
   42.8990   33.0960   36.4260 H   0  0  0  0  0  0  0  0  0  0  0  0
   42.1450   34.7600   36.2720 H   0  0  0  0  0  0  0  0  0  0  0  0
   37.7940   29.1210   41.5580 C   0  0  0  0  0  0  0  0  0  0  0  0
   37.7780   29.0990   42.9450 C   0  0  0  0  0  0  0  0  0  0  0  0
   37.7340   27.9130   43.6780 C   0  0  0  0  0  0  0  0  0  0  0  0
   37.7060   26.7180   42.9780 C   0  0  0  0  0  0  0  0  0  0  0  0
   37.7220   26.7350   41.6060 C   0  0  0  0  0  0  0  0  0  0  0  0
   37.7660   27.9180   40.9030 C   0  0  0  0  0  0  0  0  0  0  0  0
   37.7990   30.0060   43.5350 H   0  0  0  0  0  0  0  0  0  0  0  0
   37.7240   27.9430   44.7590 H   0  0  0  0  0  0  0  0  0  0  0  0
   37.6730   25.7910   43.5170 H   0  0  0  0  0  0  0  0  0  0  0  0
   37.7000   25.7970   41.0680 H   0  0  0  0  0  0  0  0  0  0  0  0
   37.7820   27.9670   39.4610 C   0  0  0  0  0  0  0  0  0  0  0  0
   38.7220   28.1520   38.9590 H   0  0  0  0  0  0  0  0  0  0  0  0
   36.7290   27.7980   38.8130 O   0  0  0  0  0  0  0  0  0  0  0  0
   41.2730   29.9160   41.1510 N   0  0  0  0  0  0  0  0  0  0  0  0
   40.2610   30.4570   40.9070 C   0  0  0  0  0  0  0  0  0  0  0  0
  1 35  1  0  0  0  0
  1  6  1  0  0  0  0
  2  1  2  0  0  0  0
  3  2  1  0  0  0  0
  3  4  2  0  0  0  0
  4  5  1  0  0  0  0
  5  9  1  0  0  0  0
  5  6  2  0  0  0  0
  6 21  1  0  0  0  0
  7  3  1  0  0  0  0
  8  4  1  0  0  0  0
 10 11  2  0  0  0  0
 10 15  1  0  0  0  0
 11 12  1  0  0  0  0
 12  2  1  0  0  0  0
 12 13  2  0  0  0  0
 14 13  1  0  0  0  0
 14 18  1  0  0  0  0
 15 14  2  0  0  0  0
 16 10  1  0  0  0  0
 17 11  1  0  0  0  0
 19 16  1  0  0  0  0
 20 16  1  0  0  0  0
 21 22  1  0  0  0  0
 22 27  1  0  0  0  0
 22 23  2  0  0  0  0
 23 28  1  0  0  0  0
 24 29  1  0  0  0  0
 24 23  1  0  0  0  0
 25 24  2  0  0  0  0
 26 21  2  0  0  0  0
 26 25  1  0  0  0  0
 30 25  1  0  0  0  0
 31 26  1  0  0  0  0
 32 31  1  0  0  0  0
 33 31  2  0  0  0  0
 35 34  3  0  0  0  0
M  END
>  <minimizedAffinity>
-5.570086

$$$$

 OpenBabel03252508403D

 35 37  0  0  0  0  0  0  0  0999 V2000
   37.4770   29.3280   39.7140 C   0  0  0  0  0  0  0  0  0  0  0  0
   36.8470   30.2330   38.9000 C   0  0  0  0  0  0  0  0  0  0  0  0
   36.8470   31.5340   39.3040 C   0  0  0  0  0  0  0  0  0  0  0  0
   37.4340   31.9740   40.4610 C   0  0  0  0  0  0  0  0  0  0  0  0
   38.0580   31.0520   41.2600 C   0  0  0  0  0  0  0  0  0  0  0  0
   38.0890   29.7150   40.8990 C   0  0  0  0  0  0  0  0  0  0  0  0
   36.3540   32.2630   38.6740 H   0  0  0  0  0  0  0  0  0  0  0  0
   37.3990   33.0370   40.7320 H   0  0  0  0  0  0  0  0  0  0  0  0
   38.5270   31.3930   42.1800 H   0  0  0  0  0  0  0  0  0  0  0  0
   36.3270   29.1580   35.3160 C   0  0  0  0  0  0  0  0  0  0  0  0
   36.9450   29.6570   36.4740 C   0  0  0  0  0  0  0  0  0  0  0  0
   36.2400   29.7230   37.6850 C   0  0  0  0  0  0  0  0  0  0  0  0
   34.9660   29.2810   37.6350 N   0  0  0  0  0  0  0  0  0  0  0  0
   34.3870   28.8090   36.5330 C   0  0  0  0  0  0  0  0  0  0  0  0
   35.0700   28.7480   35.3710 N   0  0  0  0  0  0  0  0  0  0  0  0
   37.0780   29.1150   34.1320 N   0  0  0  0  0  0  0  0  0  0  0  0
   37.9720   29.9920   36.4270 H   0  0  0  0  0  0  0  0  0  0  0  0
   33.3580   28.4930   36.6540 H   0  0  0  0  0  0  0  0  0  0  0  0
   37.0490   29.9760   33.5160 H   0  0  0  0  0  0  0  0  0  0  0  0
   37.6560   28.2770   33.8380 H   0  0  0  0  0  0  0  0  0  0  0  0
   38.7750   28.8050   41.8070 C   0  0  0  0  0  0  0  0  0  0  0  0
   40.1580   28.7920   41.7000 C   0  0  0  0  0  0  0  0  0  0  0  0
   40.9660   27.9790   42.4940 C   0  0  0  0  0  0  0  0  0  0  0  0
   40.3480   27.1580   43.4220 C   0  0  0  0  0  0  0  0  0  0  0  0
   38.9800   27.1660   43.5320 C   0  0  0  0  0  0  0  0  0  0  0  0
   38.2020   27.9770   42.7370 C   0  0  0  0  0  0  0  0  0  0  0  0
   40.6850   29.4150   40.9900 H   0  0  0  0  0  0  0  0  0  0  0  0
   42.0410   28.0010   42.3760 H   0  0  0  0  0  0  0  0  0  0  0  0
   40.9460   26.5220   44.0460 H   0  0  0  0  0  0  0  0  0  0  0  0
   38.5060   26.5220   44.2590 H   0  0  0  0  0  0  0  0  0  0  0  0
   36.7620   28.0090   42.8300 C   0  0  0  0  0  0  0  0  0  0  0  0
   36.2120   28.6460   42.1510 H   0  0  0  0  0  0  0  0  0  0  0  0
   36.1710   27.3110   43.6780 O   0  0  0  0  0  0  0  0  0  0  0  0
   37.5660   26.7950   39.0610 N   0  0  0  0  0  0  0  0  0  0  0  0
   37.5260   27.9280   39.3650 C   0  0  0  0  0  0  0  0  0  0  0  0
  1  6  1  0  0  0  0
  2  3  1  0  0  0  0
  2  1  2  0  0  0  0
  3  4  2  0  0  0  0
  4  8  1  0  0  0  0
  4  5  1  0  0  0  0
  5  9  1  0  0  0  0
  6  5  2  0  0  0  0
  6 21  1  0  0  0  0
  7  3  1  0  0  0  0
 10 15  2  0  0  0  0
 10 11  1  0  0  0  0
 11 12  2  0  0  0  0
 12  2  1  0  0  0  0
 13 12  1  0  0  0  0
 14 18  1  0  0  0  0
 14 13  2  0  0  0  0
 15 14  1  0  0  0  0
 16 10  1  0  0  0  0
 17 11  1  0  0  0  0
 19 16  1  0  0  0  0
 20 16  1  0  0  0  0
 21 26  1  0  0  0  0
 22 21  2  0  0  0  0
 22 23  1  0  0  0  0
 23 24  2  0  0  0  0
 24 25  1  0  0  0  0
 24 29  1  0  0  0  0
 25 30  1  0  0  0  0
 26 31  1  0  0  0  0
 26 25  2  0  0  0  0
 27 22  1  0  0  0  0
 28 23  1  0  0  0  0
 31 33  2  0  0  0  0
 32 31  1  0  0  0  0
 34 35  3  0  0  0  0
 35  1  1  0  0  0  0
M  END
>  <minimizedAffinity>
-5.5196104

$$$$

 OpenBabel03252508403D

 35 37  0  0  0  0  0  0  0  0999 V2000
   39.6600   28.5360   41.4420 C   0  0  0  0  0  0  0  0  0  0  0  0
   40.5110   29.5760   41.7140 C   0  0  0  0  0  0  0  0  0  0  0  0
   41.4540   29.3690   42.6760 C   0  0  0  0  0  0  0  0  0  0  0  0
   41.5900   28.1960   43.3700 C   0  0  0  0  0  0  0  0  0  0  0  0
   40.7290   27.1700   43.0810 C   0  0  0  0  0  0  0  0  0  0  0  0
   39.7500   27.3240   42.1130 C   0  0  0  0  0  0  0  0  0  0  0  0
   42.1340   30.1780   42.9050 H   0  0  0  0  0  0  0  0  0  0  0  0
   42.3710   28.0910   44.1340 H   0  0  0  0  0  0  0  0  0  0  0  0
   40.8310   26.2350   43.6270 H   0  0  0  0  0  0  0  0  0  0  0  0
   39.4460   33.0560   40.7010 C   0  0  0  0  0  0  0  0  0  0  0  0
   39.6020   31.8860   41.4630 C   0  0  0  0  0  0  0  0  0  0  0  0
   40.3290   30.7990   40.9550 C   0  0  0  0  0  0  0  0  0  0  0  0
   40.8410   30.9750   39.7190 N   0  0  0  0  0  0  0  0  0  0  0  0
   40.6880   32.0870   39.0040 C   0  0  0  0  0  0  0  0  0  0  0  0
   39.9890   33.1290   39.4970 N   0  0  0  0  0  0  0  0  0  0  0  0
   38.7100   34.1120   41.2570 N   0  0  0  0  0  0  0  0  0  0  0  0
   39.1580   31.8280   42.4460 H   0  0  0  0  0  0  0  0  0  0  0  0
   41.1600   32.0740   38.0290 H   0  0  0  0  0  0  0  0  0  0  0  0
   37.6650   34.1140   41.0780 H   0  0  0  0  0  0  0  0  0  0  0  0
   39.1460   34.8880   41.8330 H   0  0  0  0  0  0  0  0  0  0  0  0
   38.8790   26.1820   41.8710 C   0  0  0  0  0  0  0  0  0  0  0  0
   39.4030   25.2040   41.0370 C   0  0  0  0  0  0  0  0  0  0  0  0
   38.7010   24.0460   40.7030 C   0  0  0  0  0  0  0  0  0  0  0  0
   37.4320   23.8810   41.2330 C   0  0  0  0  0  0  0  0  0  0  0  0
   36.9090   24.8450   42.0570 C   0  0  0  0  0  0  0  0  0  0  0  0
   37.6210   25.9810   42.3740 C   0  0  0  0  0  0  0  0  0  0  0  0
   40.3890   25.2900   40.6000 H   0  0  0  0  0  0  0  0  0  0  0  0
   39.1480   23.3100   40.0490 H   0  0  0  0  0  0  0  0  0  0  0  0
   36.8700   22.9990   40.9920 H   0  0  0  0  0  0  0  0  0  0  0  0
   35.9170   24.7080   42.4660 H   0  0  0  0  0  0  0  0  0  0  0  0
   37.0980   27.0120   43.2380 C   0  0  0  0  0  0  0  0  0  0  0  0
   37.4830   27.0880   44.2460 H   0  0  0  0  0  0  0  0  0  0  0  0
   36.2220   27.7970   42.8230 O   0  0  0  0  0  0  0  0  0  0  0  0
   37.7870   28.7550   39.6260 N   0  0  0  0  0  0  0  0  0  0  0  0
   38.6300   28.6670   40.4380 C   0  0  0  0  0  0  0  0  0  0  0  0
  1  2  2  0  0  0  0
  1  6  1  0  0  0  0
  2  3  1  0  0  0  0
  3  7  1  0  0  0  0
  3  4  2  0  0  0  0
  4  8  1  0  0  0  0
  5  4  1  0  0  0  0
  5  9  1  0  0  0  0
  6  5  2  0  0  0  0
 10 16  1  0  0  0  0
 10 11  1  0  0  0  0
 11 17  1  0  0  0  0
 12 11  2  0  0  0  0
 12  2  1  0  0  0  0
 13 12  1  0  0  0  0
 14 15  1  0  0  0  0
 14 13  2  0  0  0  0
 15 10  2  0  0  0  0
 16 20  1  0  0  0  0
 18 14  1  0  0  0  0
 19 16  1  0  0  0  0
 21  6  1  0  0  0  0
 21 26  1  0  0  0  0
 22 21  2  0  0  0  0
 23 22  1  0  0  0  0
 23 24  2  0  0  0  0
 24 25  1  0  0  0  0
 25 26  2  0  0  0  0
 25 30  1  0  0  0  0
 26 31  1  0  0  0  0
 27 22  1  0  0  0  0
 28 23  1  0  0  0  0
 29 24  1  0  0  0  0
 31 32  1  0  0  0  0
 33 31  2  0  0  0  0
 34 35  3  0  0  0  0
 35  1  1  0  0  0  0
M  END
>  <minimizedAffinity>
-5.40189123

$$$$

 OpenBabel03252508403D

 35 37  0  0  0  0  0  0  0  0999 V2000
   38.4350   29.0660   39.0610 C   0  0  0  0  0  0  0  0  0  0  0  0
   38.4710   29.9680   38.0300 C   0  0  0  0  0  0  0  0  0  0  0  0
   37.2820   30.2880   37.4460 C   0  0  0  0  0  0  0  0  0  0  0  0
   36.0770   29.7640   37.8320 C   0  0  0  0  0  0  0  0  0  0  0  0
   36.0650   28.8640   38.8660 C   0  0  0  0  0  0  0  0  0  0  0  0
   37.2440   28.5010   39.4960 C   0  0  0  0  0  0  0  0  0  0  0  0
   37.2900   30.9980   36.6300 H   0  0  0  0  0  0  0  0  0  0  0  0
   35.1520   30.0620   37.3220 H   0  0  0  0  0  0  0  0  0  0  0  0
   35.1120   28.4440   39.1790 H   0  0  0  0  0  0  0  0  0  0  0  0
   41.3250   32.3470   37.3490 C   0  0  0  0  0  0  0  0  0  0  0  0
   40.0580   31.8680   37.7200 C   0  0  0  0  0  0  0  0  0  0  0  0
   39.7680   30.4970   37.6540 C   0  0  0  0  0  0  0  0  0  0  0  0
   40.7780   29.7160   37.2190 N   0  0  0  0  0  0  0  0  0  0  0  0
   41.9770   30.1780   36.8690 C   0  0  0  0  0  0  0  0  0  0  0  0
   42.2490   31.4970   36.9340 N   0  0  0  0  0  0  0  0  0  0  0  0
   41.5600   33.7270   37.4340 N   0  0  0  0  0  0  0  0  0  0  0  0
   39.3030   32.5650   38.0580 H   0  0  0  0  0  0  0  0  0  0  0  0
   42.6810   29.4230   36.5400 H   0  0  0  0  0  0  0  0  0  0  0  0
   41.3290   34.3060   36.5780 H   0  0  0  0  0  0  0  0  0  0  0  0
   41.9510   34.2000   38.2990 H   0  0  0  0  0  0  0  0  0  0  0  0
   37.1380   27.5390   40.5850 C   0  0  0  0  0  0  0  0  0  0  0  0
   37.0910   26.2080   40.1960 C   0  0  0  0  0  0  0  0  0  0  0  0
   36.9900   25.1610   41.1120 C   0  0  0  0  0  0  0  0  0  0  0  0
   36.9350   25.4790   42.4590 C   0  0  0  0  0  0  0  0  0  0  0  0
   36.9810   26.7940   42.8480 C   0  0  0  0  0  0  0  0  0  0  0  0
   37.0810   27.8120   41.9260 C   0  0  0  0  0  0  0  0  0  0  0  0
   37.1300   25.9110   39.1570 H   0  0  0  0  0  0  0  0  0  0  0  0
   36.9560   24.1370   40.7650 H   0  0  0  0  0  0  0  0  0  0  0  0
   36.8570   24.6920   43.1850 H   0  0  0  0  0  0  0  0  0  0  0  0
   36.9370   27.0330   43.9020 H   0  0  0  0  0  0  0  0  0  0  0  0
   37.1320   29.2030   42.3050 C   0  0  0  0  0  0  0  0  0  0  0  0
   36.2610   29.8210   42.1330 H   0  0  0  0  0  0  0  0  0  0  0  0
   38.1640   29.6780   42.8220 O   0  0  0  0  0  0  0  0  0  0  0  0
   40.6430   28.3600   40.2780 N   0  0  0  0  0  0  0  0  0  0  0  0
   39.6480   28.6680   39.7370 C   0  0  0  0  0  0  0  0  0  0  0  0
  1  6  1  0  0  0  0
  1 35  1  0  0  0  0
  2  1  2  0  0  0  0
  3  4  2  0  0  0  0
  3  2  1  0  0  0  0
  4  5  1  0  0  0  0
  5  9  1  0  0  0  0
  5  6  2  0  0  0  0
  6 21  1  0  0  0  0
  7  3  1  0  0  0  0
  8  4  1  0  0  0  0
 10 16  1  0  0  0  0
 10 11  1  0  0  0  0
 11 17  1  0  0  0  0
 12 11  2  0  0  0  0
 12  2  1  0  0  0  0
 13 12  1  0  0  0  0
 14 15  1  0  0  0  0
 14 13  2  0  0  0  0
 15 10  2  0  0  0  0
 16 20  1  0  0  0  0
 18 14  1  0  0  0  0
 19 16  1  0  0  0  0
 21 26  1  0  0  0  0
 22 21  2  0  0  0  0
 22 23  1  0  0  0  0
 23 24  2  0  0  0  0
 24 25  1  0  0  0  0
 24 29  1  0  0  0  0
 25 30  1  0  0  0  0
 26 31  1  0  0  0  0
 26 25  2  0  0  0  0
 27 22  1  0  0  0  0
 28 23  1  0  0  0  0
 31 33  2  0  0  0  0
 32 31  1  0  0  0  0
 35 34  3  0  0  0  0
M  END
>  <minimizedAffinity>
-5.37450314

$$$$

 OpenBabel03252508403D

 35 37  0  0  0  0  0  0  0  0999 V2000
   38.1210   29.2350   40.2950 C   0  0  0  0  0  0  0  0  0  0  0  0
   38.1340   30.6050   40.2590 C   0  0  0  0  0  0  0  0  0  0  0  0
   36.9640   31.2420   40.5460 C   0  0  0  0  0  0  0  0  0  0  0  0
   35.7990   30.5940   40.8610 C   0  0  0  0  0  0  0  0  0  0  0  0
   35.8100   29.2230   40.8900 C   0  0  0  0  0  0  0  0  0  0  0  0
   36.9710   28.5230   40.6070 C   0  0  0  0  0  0  0  0  0  0  0  0
   36.9540   32.3240   40.5230 H   0  0  0  0  0  0  0  0  0  0  0  0
   34.8890   31.1650   41.0820 H   0  0  0  0  0  0  0  0  0  0  0  0
   34.8900   28.7010   41.1410 H   0  0  0  0  0  0  0  0  0  0  0  0
   40.8520   32.4070   38.3530 C   0  0  0  0  0  0  0  0  0  0  0  0
   39.6250   31.7900   38.6470 C   0  0  0  0  0  0  0  0  0  0  0  0
   39.3890   31.2490   39.9200 C   0  0  0  0  0  0  0  0  0  0  0  0
   40.4070   31.3720   40.7960 N   0  0  0  0  0  0  0  0  0  0  0  0
   41.5670   31.9590   40.5090 C   0  0  0  0  0  0  0  0  0  0  0  0
   41.7890   32.4770   39.2840 N   0  0  0  0  0  0  0  0  0  0  0  0
   41.0350   32.9310   37.0640 N   0  0  0  0  0  0  0  0  0  0  0  0
   38.8610   31.7340   37.8850 H   0  0  0  0  0  0  0  0  0  0  0  0
   42.2850   31.9780   41.3200 H   0  0  0  0  0  0  0  0  0  0  0  0
   41.4350   32.2760   36.3340 H   0  0  0  0  0  0  0  0  0  0  0  0
   40.7960   33.9290   36.8010 H   0  0  0  0  0  0  0  0  0  0  0  0
   36.8910   27.0690   40.6630 C   0  0  0  0  0  0  0  0  0  0  0  0
   37.1190   26.5110   41.9120 C   0  0  0  0  0  0  0  0  0  0  0  0
   37.0800   25.1360   42.1400 C   0  0  0  0  0  0  0  0  0  0  0  0
   36.8020   24.3080   41.0650 C   0  0  0  0  0  0  0  0  0  0  0  0
   36.5760   24.8550   39.8270 C   0  0  0  0  0  0  0  0  0  0  0  0
   36.6200   26.2160   39.6260 C   0  0  0  0  0  0  0  0  0  0  0  0
   37.3400   27.1170   42.7810 H   0  0  0  0  0  0  0  0  0  0  0  0
   37.2650   24.7440   43.1310 H   0  0  0  0  0  0  0  0  0  0  0  0
   36.7660   23.2450   41.2120 H   0  0  0  0  0  0  0  0  0  0  0  0
   36.3600   24.2010   38.9940 H   0  0  0  0  0  0  0  0  0  0  0  0
   36.3860   26.8210   38.3370 C   0  0  0  0  0  0  0  0  0  0  0  0
   35.4070   27.2270   38.1230 H   0  0  0  0  0  0  0  0  0  0  0  0
   37.3020   26.8720   37.4900 O   0  0  0  0  0  0  0  0  0  0  0  0
   40.2750   27.8450   39.7640 N   0  0  0  0  0  0  0  0  0  0  0  0
   39.3160   28.4770   40.0040 C   0  0  0  0  0  0  0  0  0  0  0  0
  1  6  1  0  0  0  0
  2  1  2  0  0  0  0
  2  3  1  0  0  0  0
  3  4  2  0  0  0  0
  4  5  1  0  0  0  0
  4  8  1  0  0  0  0
  5  9  1  0  0  0  0
  6 21  1  0  0  0  0
  6  5  2  0  0  0  0
  7  3  1  0  0  0  0
 10 11  2  0  0  0  0
 10 15  1  0  0  0  0
 11 12  1  0  0  0  0
 12  2  1  0  0  0  0
 12 13  2  0  0  0  0
 14 13  1  0  0  0  0
 14 18  1  0  0  0  0
 15 14  2  0  0  0  0
 16 10  1  0  0  0  0
 17 11  1  0  0  0  0
 19 16  1  0  0  0  0
 20 16  1  0  0  0  0
 21 22  1  0  0  0  0
 22 23  2  0  0  0  0
 22 27  1  0  0  0  0
 23 28  1  0  0  0  0
 24 29  1  0  0  0  0
 24 23  1  0  0  0  0
 25 24  2  0  0  0  0
 26 25  1  0  0  0  0
 26 21  2  0  0  0  0
 30 25  1  0  0  0  0
 31 26  1  0  0  0  0
 32 31  1  0  0  0  0
 33 31  2  0  0  0  0
 34 35  3  0  0  0  0
 35  1  1  0  0  0  0
M  END
>  <minimizedAffinity>
-5.35848856

$$$$

 OpenBabel03252508403D

 35 37  0  0  0  0  0  0  0  0999 V2000
   38.6480   27.3530   41.8010 C   0  0  0  0  0  0  0  0  0  0  0  0
   38.7490   28.3980   42.6820 C   0  0  0  0  0  0  0  0  0  0  0  0
   37.7490   28.5340   43.5980 C   0  0  0  0  0  0  0  0  0  0  0  0
   36.6700   27.6950   43.6800 C   0  0  0  0  0  0  0  0  0  0  0  0
   36.5890   26.6570   42.7880 C   0  0  0  0  0  0  0  0  0  0  0  0
   37.5770   26.4700   41.8340 C   0  0  0  0  0  0  0  0  0  0  0  0
   37.8120   29.3530   44.3030 H   0  0  0  0  0  0  0  0  0  0  0  0
   35.8960   27.8580   44.4410 H   0  0  0  0  0  0  0  0  0  0  0  0
   35.7350   25.9870   42.8460 H   0  0  0  0  0  0  0  0  0  0  0  0
   40.9570   31.3720   41.9410 C   0  0  0  0  0  0  0  0  0  0  0  0
   39.8140   30.5630   42.0470 C   0  0  0  0  0  0  0  0  0  0  0  0
   39.9090   29.2600   42.5600 C   0  0  0  0  0  0  0  0  0  0  0  0
   41.1490   28.8750   42.9260 N   0  0  0  0  0  0  0  0  0  0  0  0
   42.2280   29.6480   42.8230 C   0  0  0  0  0  0  0  0  0  0  0  0
   42.1300   30.8990   42.3290 N   0  0  0  0  0  0  0  0  0  0  0  0
   40.8050   32.6660   41.4210 N   0  0  0  0  0  0  0  0  0  0  0  0
   38.8560   30.9510   41.7290 H   0  0  0  0  0  0  0  0  0  0  0  0
   43.1520   29.1940   43.1600 H   0  0  0  0  0  0  0  0  0  0  0  0
   40.8970   32.7730   40.3710 H   0  0  0  0  0  0  0  0  0  0  0  0
   40.6090   33.5170   42.0220 H   0  0  0  0  0  0  0  0  0  0  0  0
   37.4100   25.3420   40.9280 C   0  0  0  0  0  0  0  0  0  0  0  0
   37.8570   24.1220   41.4140 C   0  0  0  0  0  0  0  0  0  0  0  0
   37.7720   22.9420   40.6750 C   0  0  0  0  0  0  0  0  0  0  0  0
   37.2160   23.0090   39.4080 C   0  0  0  0  0  0  0  0  0  0  0  0
   36.7740   24.2130   38.9230 C   0  0  0  0  0  0  0  0  0  0  0  0
   36.8680   25.3660   39.6700 C   0  0  0  0  0  0  0  0  0  0  0  0
   38.2980   24.0210   42.3970 H   0  0  0  0  0  0  0  0  0  0  0  0
   38.1340   22.0130   41.0930 H   0  0  0  0  0  0  0  0  0  0  0  0
   37.1390   22.1150   38.8180 H   0  0  0  0  0  0  0  0  0  0  0  0
   36.3410   24.2550   37.9320 H   0  0  0  0  0  0  0  0  0  0  0  0
   36.4100   26.6460   39.1880 C   0  0  0  0  0  0  0  0  0  0  0  0
   36.8510   27.5440   39.5990 H   0  0  0  0  0  0  0  0  0  0  0  0
   35.5230   26.7090   38.3120 O   0  0  0  0  0  0  0  0  0  0  0  0
   40.4920   26.9380   39.9890 N   0  0  0  0  0  0  0  0  0  0  0  0
   39.6620   27.1330   40.7960 C   0  0  0  0  0  0  0  0  0  0  0  0
  1  6  2  0  0  0  0
  1  2  1  0  0  0  0
  2  3  2  0  0  0  0
  3  4  1  0  0  0  0
  3  7  1  0  0  0  0
  4  8  1  0  0  0  0
  5  9  1  0  0  0  0
  5  4  2  0  0  0  0
  6  5  1  0  0  0  0
 10 11  2  0  0  0  0
 10 15  1  0  0  0  0
 11 12  1  0  0  0  0
 12  2  1  0  0  0  0
 12 13  2  0  0  0  0
 14 13  1  0  0  0  0
 14 18  1  0  0  0  0
 15 14  2  0  0  0  0
 16 10  1  0  0  0  0
 16 20  1  0  0  0  0
 17 11  1  0  0  0  0
 19 16  1  0  0  0  0
 21 22  1  0  0  0  0
 21  6  1  0  0  0  0
 22 27  1  0  0  0  0
 23 28  1  0  0  0  0
 23 22  2  0  0  0  0
 24 23  1  0  0  0  0
 25 24  2  0  0  0  0
 25 26  1  0  0  0  0
 26 21  2  0  0  0  0
 29 24  1  0  0  0  0
 30 25  1  0  0  0  0
 31 32  1  0  0  0  0
 31 26  1  0  0  0  0
 33 31  2  0  0  0  0
 34 35  3  0  0  0  0
 35  1  1  0  0  0  0
M  END
>  <minimizedAffinity>
-5.25540924

$$$$
