
 OpenBabel03252504563D

 25 26  0  0  1  0  0  0  0  0999 V2000
   37.0340   30.5340   39.5790 N   0  0  0  0  0  0  0  0  0  0  0  0
   36.8580   29.6660   38.4700 C   0  0  0  0  0  0  0  0  0  0  0  0
   37.1650   30.5540   37.3090 C   0  0  0  0  0  0  0  0  0  0  0  0
   37.5910   31.9050   37.8300 C   0  0  0  0  0  0  0  0  0  0  0  0
   37.8990   31.5830   39.3140 C   0  0  1  0  0  0  0  0  0  0  0  0
   36.5960   28.6660   38.2640 H   0  0  0  0  0  0  0  0  0  0  0  0
   37.1520   30.3070   36.2410 H   0  0  0  0  0  0  0  0  0  0  0  0
   38.5050   32.2370   37.3120 H   0  0  0  0  0  0  0  0  0  0  0  0
   36.8010   32.6510   37.7270 H   0  0  0  0  0  0  0  0  0  0  0  0
   38.9540   31.2480   39.3360 H   0  0  0  0  0  0  0  0  0  0  0  0
   36.3020   30.3280   40.7040 C   0  0  0  0  0  0  0  0  0  0  0  0
   35.2870   29.9010   40.4010 H   0  0  0  0  0  0  0  0  0  0  0  0
   35.9690   31.2200   41.3040 H   0  0  0  0  0  0  0  0  0  0  0  0
   36.9140   27.2250   42.7640 C   0  0  0  0  0  0  0  0  0  0  0  0
   36.2740   28.0780   41.8310 C   0  0  0  0  0  0  0  0  0  0  0  0
   36.8120   29.3490   41.6510 C   0  0  0  0  0  0  0  0  0  0  0  0
   37.9050   29.6880   42.3740 N   0  0  0  0  0  0  0  0  0  0  0  0
   38.5090   28.8530   43.2690 C   0  0  0  0  0  0  0  0  0  0  0  0
   38.0080   27.6160   43.4630 N   0  0  0  0  0  0  0  0  0  0  0  0
   36.4590   26.2500   42.8660 H   0  0  0  0  0  0  0  0  0  0  0  0
   35.4060   27.7890   41.2680 H   0  0  0  0  0  0  0  0  0  0  0  0
   39.3730   29.2520   43.7790 H   0  0  0  0  0  0  0  0  0  0  0  0
   37.7520   32.8520   40.0150 C   0  0  0  0  0  0  0  0  0  0  0  0
   37.7410   33.7610   40.5950 H   0  0  0  0  0  0  0  0  0  0  0  0
   36.8800   33.7140   39.8550 O   0  0  0  0  0  0  0  0  0  0  0  0
  1 11  1  0  0  0  0
  2  1  1  0  0  0  0
  3  4  1  0  0  0  0
  3  2  2  0  0  0  0
  4  5  1  0  0  0  0
  5 10  1  1  0  0  0
  5  1  1  0  0  0  0
  5 23  1  0  0  0  0
  6  2  1  0  0  0  0
  7  3  1  0  0  0  0
  8  4  1  0  0  0  0
  9  4  1  0  0  0  0
 11 13  1  0  0  0  0
 11 16  1  0  0  0  0
 12 11  1  0  0  0  0
 14 20  1  0  0  0  0
 14 19  1  0  0  0  0
 15 14  2  0  0  0  0
 16 15  1  0  0  0  0
 16 17  2  0  0  0  0
 17 18  1  0  0  0  0
 18 19  2  0  0  0  0
 18 22  1  0  0  0  0
 21 15  1  0  0  0  0
 23 24  1  0  0  0  0
 25 23  2  0  0  0  0
M  END
>  <minimizedAffinity>
-4.35023403

$$$$

 OpenBabel03252504563D

 25 26  0  0  1  0  0  0  0  0999 V2000
   36.6680   28.0410   40.6940 N   0  0  0  0  0  0  0  0  0  0  0  0
   36.3320   27.1990   39.6010 C   0  0  0  0  0  0  0  0  0  0  0  0
   35.7590   28.1610   38.6120 C   0  0  0  0  0  0  0  0  0  0  0  0
   35.8700   29.5580   39.1730 C   0  0  0  0  0  0  0  0  0  0  0  0
   36.8970   29.3540   40.3150 C   0  0  1  0  0  0  0  0  0  0  0  0
   36.3740   26.1830   39.3260 H   0  0  0  0  0  0  0  0  0  0  0  0
   35.3590   27.9530   37.6130 H   0  0  0  0  0  0  0  0  0  0  0  0
   36.2780   30.2390   38.4080 H   0  0  0  0  0  0  0  0  0  0  0  0
   34.9120   29.9280   39.5420 H   0  0  0  0  0  0  0  0  0  0  0  0
   37.8940   29.4680   39.8470 H   0  0  0  0  0  0  0  0  0  0  0  0
   36.6360   27.5350   41.9530 C   0  0  0  0  0  0  0  0  0  0  0  0
   35.8940   26.6680   41.9750 H   0  0  0  0  0  0  0  0  0  0  0  0
   36.2180   28.1720   42.7810 H   0  0  0  0  0  0  0  0  0  0  0  0
   39.9340   26.8940   43.6730 C   0  0  0  0  0  0  0  0  0  0  0  0
   38.8080   27.6260   43.2210 C   0  0  0  0  0  0  0  0  0  0  0  0
   37.8660   26.9430   42.4560 C   0  0  0  0  0  0  0  0  0  0  0  0
   38.0840   25.6340   42.1920 N   0  0  0  0  0  0  0  0  0  0  0  0
   39.1760   24.9450   42.6350 C   0  0  0  0  0  0  0  0  0  0  0  0
   40.1040   25.5810   43.3790 N   0  0  0  0  0  0  0  0  0  0  0  0
   40.6340   27.4680   44.2630 H   0  0  0  0  0  0  0  0  0  0  0  0
   38.6540   28.6660   43.4410 H   0  0  0  0  0  0  0  0  0  0  0  0
   39.2260   23.9050   42.3510 H   0  0  0  0  0  0  0  0  0  0  0  0
   36.6440   30.4420   41.2500 C   0  0  0  0  0  0  0  0  0  0  0  0
   36.5700   31.2340   41.9790 H   0  0  0  0  0  0  0  0  0  0  0  0
   35.6010   31.0880   41.4030 O   0  0  0  0  0  0  0  0  0  0  0  0
  1 11  1  0  0  0  0
  2  1  1  0  0  0  0
  3  4  1  0  0  0  0
  3  2  2  0  0  0  0
  4  9  1  0  0  0  0
  4  5  1  0  0  0  0
  5 10  1  6  0  0  0
  5  1  1  0  0  0  0
  5 23  1  0  0  0  0
  6  2  1  0  0  0  0
  7  3  1  0  0  0  0
  8  4  1  0  0  0  0
 11 12  1  0  0  0  0
 11 16  1  0  0  0  0
 11 13  1  0  0  0  0
 14 20  1  0  0  0  0
 15 21  1  0  0  0  0
 15 14  2  0  0  0  0
 16 15  1  0  0  0  0
 17 16  2  0  0  0  0
 17 18  1  0  0  0  0
 18 19  2  0  0  0  0
 19 14  1  0  0  0  0
 22 18  1  0  0  0  0
 23 25  2  0  0  0  0
 23 24  1  0  0  0  0
M  END
>  <minimizedAffinity>
-4.23349094

$$$$

 OpenBabel03252504563D

 25 26  0  0  1  0  0  0  0  0999 V2000
   37.7060   28.3370   42.7730 N   0  0  0  0  0  0  0  0  0  0  0  0
   39.0330   28.0600   43.1970 C   0  0  0  0  0  0  0  0  0  0  0  0
   39.8290   29.0970   42.4750 C   0  0  0  0  0  0  0  0  0  0  0  0
   38.8820   29.9920   41.7120 C   0  0  0  0  0  0  0  0  0  0  0  0
   37.5260   29.6540   42.3820 C   0  0  1  0  0  0  0  0  0  0  0  0
   39.5540   27.3890   43.8200 H   0  0  0  0  0  0  0  0  0  0  0  0
   40.9120   29.2620   42.4980 H   0  0  0  0  0  0  0  0  0  0  0  0
   39.1410   31.0500   41.8870 H   0  0  0  0  0  0  0  0  0  0  0  0
   38.8800   29.7700   40.6440 H   0  0  0  0  0  0  0  0  0  0  0  0
   37.4470   30.3260   43.2580 H   0  0  0  0  0  0  0  0  0  0  0  0
   36.8100   27.3200   42.6980 C   0  0  0  0  0  0  0  0  0  0  0  0
   35.8140   27.7430   42.3330 H   0  0  0  0  0  0  0  0  0  0  0  0
   36.4750   26.8230   43.6510 H   0  0  0  0  0  0  0  0  0  0  0  0
   37.5800   25.3220   39.5900 C   0  0  0  0  0  0  0  0  0  0  0  0
   37.2580   26.4550   40.3780 C   0  0  0  0  0  0  0  0  0  0  0  0
   37.0970   26.2580   41.7470 C   0  0  0  0  0  0  0  0  0  0  0  0
   37.2550   25.0060   42.2350 N   0  0  0  0  0  0  0  0  0  0  0  0
   37.5650   23.9260   41.4600 C   0  0  0  0  0  0  0  0  0  0  0  0
   37.7270   24.0870   40.1320 N   0  0  0  0  0  0  0  0  0  0  0  0
   37.6960   25.5270   38.5350 H   0  0  0  0  0  0  0  0  0  0  0  0
   37.1360   27.4410   39.9690 H   0  0  0  0  0  0  0  0  0  0  0  0
   37.6600   22.9840   41.9800 H   0  0  0  0  0  0  0  0  0  0  0  0
   36.5180   29.9930   41.3860 C   0  0  0  0  0  0  0  0  0  0  0  0
   35.8120   30.1500   40.5870 H   0  0  0  0  0  0  0  0  0  0  0  0
   35.7040   30.9220   41.4130 O   0  0  0  0  0  0  0  0  0  0  0  0
  1  2  1  0  0  0  0
  2  6  1  0  0  0  0
  3  7  1  0  0  0  0
  3  2  2  0  0  0  0
  4  8  1  0  0  0  0
  4  5  1  0  0  0  0
  4  3  1  0  0  0  0
  5  1  1  0  0  0  0
  5 10  1  1  0  0  0
  9  4  1  0  0  0  0
 11  1  1  0  0  0  0
 11 13  1  0  0  0  0
 12 11  1  0  0  0  0
 14 19  2  0  0  0  0
 14 15  1  0  0  0  0
 15 16  2  0  0  0  0
 16 17  1  0  0  0  0
 16 11  1  0  0  0  0
 18 22  1  0  0  0  0
 18 17  2  0  0  0  0
 19 18  1  0  0  0  0
 20 14  1  0  0  0  0
 21 15  1  0  0  0  0
 23 25  2  0  0  0  0
 23  5  1  0  0  0  0
 24 23  1  0  0  0  0
M  END
>  <minimizedAffinity>
-4.14909124

$$$$

 OpenBabel03252504563D

 25 26  0  0  1  0  0  0  0  0999 V2000
   38.4420   29.4370   40.6820 N   0  0  0  0  0  0  0  0  0  0  0  0
   39.5730   29.0980   41.4700 C   0  0  0  0  0  0  0  0  0  0  0  0
   39.0010   29.0350   42.8490 C   0  0  0  0  0  0  0  0  0  0  0  0
   37.5120   29.2720   42.7690 C   0  0  0  0  0  0  0  0  0  0  0  0
   37.2430   29.0520   41.2590 C   0  0  1  0  0  0  0  0  0  0  0  0
   40.6010   28.8990   41.3580 H   0  0  0  0  0  0  0  0  0  0  0  0
   39.5160   28.8100   43.7900 H   0  0  0  0  0  0  0  0  0  0  0  0
   36.9790   28.5150   43.3670 H   0  0  0  0  0  0  0  0  0  0  0  0
   37.2390   30.2770   43.0930 H   0  0  0  0  0  0  0  0  0  0  0  0
   37.0720   27.9640   41.1400 H   0  0  0  0  0  0  0  0  0  0  0  0
   38.6200   30.1580   39.5450 C   0  0  0  0  0  0  0  0  0  0  0  0
   37.6020   30.3170   39.0540 H   0  0  0  0  0  0  0  0  0  0  0  0
   39.1800   29.6890   38.6890 H   0  0  0  0  0  0  0  0  0  0  0  0
   40.6380   33.3380   39.2880 C   0  0  0  0  0  0  0  0  0  0  0  0
   40.2900   31.9810   39.0730 C   0  0  0  0  0  0  0  0  0  0  0  0
   39.1380   31.5090   39.6970 C   0  0  0  0  0  0  0  0  0  0  0  0
   38.4290   32.3690   40.4650 N   0  0  0  0  0  0  0  0  0  0  0  0
   38.7800   33.6740   40.6610 C   0  0  0  0  0  0  0  0  0  0  0  0
   39.8900   34.1570   40.0680 N   0  0  0  0  0  0  0  0  0  0  0  0
   41.5380   33.6560   38.7810 H   0  0  0  0  0  0  0  0  0  0  0  0
   40.8680   31.3150   38.4600 H   0  0  0  0  0  0  0  0  0  0  0  0
   38.1250   34.2480   41.2980 H   0  0  0  0  0  0  0  0  0  0  0  0
   36.0210   29.7940   40.9810 C   0  0  0  0  0  0  0  0  0  0  0  0
   35.0790   30.2460   40.7160 H   0  0  0  0  0  0  0  0  0  0  0  0
   35.7350   30.9470   41.3240 O   0  0  0  0  0  0  0  0  0  0  0  0
  1  5  1  0  0  0  0
  1  2  1  0  0  0  0
  2  3  2  0  0  0  0
  3  7  1  0  0  0  0
  4  3  1  0  0  0  0
  4  9  1  0  0  0  0
  4  8  1  0  0  0  0
  5 10  1  6  0  0  0
  5  4  1  0  0  0  0
  6  2  1  0  0  0  0
 11 16  1  0  0  0  0
 11  1  1  0  0  0  0
 12 11  1  0  0  0  0
 13 11  1  0  0  0  0
 14 19  1  0  0  0  0
 15 14  2  0  0  0  0
 15 16  1  0  0  0  0
 16 17  2  0  0  0  0
 17 18  1  0  0  0  0
 18 22  1  0  0  0  0
 19 18  2  0  0  0  0
 20 14  1  0  0  0  0
 21 15  1  0  0  0  0
 23  5  1  0  0  0  0
 23 25  2  0  0  0  0
 24 23  1  0  0  0  0
M  END
>  <minimizedAffinity>
-3.99770045

$$$$

 OpenBabel03252504563D

 25 26  0  0  1  0  0  0  0  0999 V2000
   36.7110   29.5260   39.3650 N   0  0  0  0  0  0  0  0  0  0  0  0
   36.7230   29.0110   38.0420 C   0  0  0  0  0  0  0  0  0  0  0  0
   36.9670   30.2330   37.2190 C   0  0  0  0  0  0  0  0  0  0  0  0
   37.1670   31.4100   38.1440 C   0  0  0  0  0  0  0  0  0  0  0  0
   37.4330   30.7010   39.4960 C   0  0  1  0  0  0  0  0  0  0  0  0
   36.6160   28.0940   37.5350 H   0  0  0  0  0  0  0  0  0  0  0  0
   37.0490   30.3150   36.1290 H   0  0  0  0  0  0  0  0  0  0  0  0
   38.0530   31.9860   37.8320 H   0  0  0  0  0  0  0  0  0  0  0  0
   36.2870   32.0540   38.1830 H   0  0  0  0  0  0  0  0  0  0  0  0
   38.5220   30.5020   39.5210 H   0  0  0  0  0  0  0  0  0  0  0  0
   35.9530   28.9110   40.3080 C   0  0  0  0  0  0  0  0  0  0  0  0
   35.2360   28.1940   39.7830 H   0  0  0  0  0  0  0  0  0  0  0  0
   35.2180   29.5260   40.8980 H   0  0  0  0  0  0  0  0  0  0  0  0
   37.7820   26.0800   42.0070 C   0  0  0  0  0  0  0  0  0  0  0  0
   37.0780   26.7640   40.9850 C   0  0  0  0  0  0  0  0  0  0  0  0
   36.6480   28.0590   41.2600 C   0  0  0  0  0  0  0  0  0  0  0  0
   36.9280   28.5790   42.4780 N   0  0  0  0  0  0  0  0  0  0  0  0
   37.6080   27.9050   43.4510 C   0  0  0  0  0  0  0  0  0  0  0  0
   38.0350   26.6490   43.2110 N   0  0  0  0  0  0  0  0  0  0  0  0
   38.0950   25.0790   41.7430 H   0  0  0  0  0  0  0  0  0  0  0  0
   36.8660   26.3310   40.0250 H   0  0  0  0  0  0  0  0  0  0  0  0
   37.7610   28.4390   44.3770 H   0  0  0  0  0  0  0  0  0  0  0  0
   37.0690   31.6780   40.5130 C   0  0  0  0  0  0  0  0  0  0  0  0
   36.8050   32.3120   41.3450 H   0  0  0  0  0  0  0  0  0  0  0  0
   36.8380   32.8840   40.3640 O   0  0  0  0  0  0  0  0  0  0  0  0
  1  5  1  0  0  0  0
  1 11  1  0  0  0  0
  2  1  1  0  0  0  0
  3  2  2  0  0  0  0
  3  4  1  0  0  0  0
  4  9  1  0  0  0  0
  4  5  1  0  0  0  0
  5 10  1  1  0  0  0
  5 23  1  0  0  0  0
  6  2  1  0  0  0  0
  7  3  1  0  0  0  0
  8  4  1  0  0  0  0
 11 13  1  0  0  0  0
 11 16  1  0  0  0  0
 12 11  1  0  0  0  0
 14 19  1  0  0  0  0
 15 16  1  0  0  0  0
 15 14  2  0  0  0  0
 16 17  2  0  0  0  0
 17 18  1  0  0  0  0
 18 22  1  0  0  0  0
 19 18  2  0  0  0  0
 20 14  1  0  0  0  0
 21 15  1  0  0  0  0
 23 24  1  0  0  0  0
 25 23  2  0  0  0  0
M  END
>  <minimizedAffinity>
-3.96380281

$$$$

 OpenBabel03252504563D

 25 26  0  0  1  0  0  0  0  0999 V2000
   36.8020   28.5880   41.7590 N   0  0  0  0  0  0  0  0  0  0  0  0
   35.6660   28.6750   40.9110 C   0  0  0  0  0  0  0  0  0  0  0  0
   35.7400   30.0810   40.4110 C   0  0  0  0  0  0  0  0  0  0  0  0
   36.9940   30.7240   40.9520 C   0  0  0  0  0  0  0  0  0  0  0  0
   37.8000   29.4870   41.4210 C   0  0  1  0  0  0  0  0  0  0  0  0
   34.8670   28.0780   40.5730 H   0  0  0  0  0  0  0  0  0  0  0  0
   35.0570   30.5960   39.7260 H   0  0  0  0  0  0  0  0  0  0  0  0
   37.5290   31.2450   40.1410 H   0  0  0  0  0  0  0  0  0  0  0  0
   36.7800   31.4110   41.7730 H   0  0  0  0  0  0  0  0  0  0  0  0
   38.3660   29.1420   40.5330 H   0  0  0  0  0  0  0  0  0  0  0  0
   36.7670   27.7510   42.8270 C   0  0  0  0  0  0  0  0  0  0  0  0
   35.6980   27.3690   42.9520 H   0  0  0  0  0  0  0  0  0  0  0  0
   36.9450   28.1760   43.8540 H   0  0  0  0  0  0  0  0  0  0  0  0
   38.0240   24.2730   42.0690 C   0  0  0  0  0  0  0  0  0  0  0  0
   37.1190   25.3630   42.1150 C   0  0  0  0  0  0  0  0  0  0  0  0
   37.5550   26.5320   42.7340 C   0  0  0  0  0  0  0  0  0  0  0  0
   38.8060   26.5530   43.2490 N   0  0  0  0  0  0  0  0  0  0  0  0
   39.6640   25.4940   43.1960 C   0  0  0  0  0  0  0  0  0  0  0  0
   39.2690   24.3490   42.6020 N   0  0  0  0  0  0  0  0  0  0  0  0
   37.6390   23.3910   41.5780 H   0  0  0  0  0  0  0  0  0  0  0  0
   36.1290   25.3240   41.7000 H   0  0  0  0  0  0  0  0  0  0  0  0
   40.6330   25.6470   43.6480 H   0  0  0  0  0  0  0  0  0  0  0  0
   38.7090   29.9920   42.4400 C   0  0  0  0  0  0  0  0  0  0  0  0
   39.3080   30.4590   43.2070 H   0  0  0  0  0  0  0  0  0  0  0  0
   39.7610   29.4820   42.8450 O   0  0  0  0  0  0  0  0  0  0  0  0
  1 11  1  0  0  0  0
  2  1  1  0  0  0  0
  3  2  2  0  0  0  0
  3  4  1  0  0  0  0
  4  5  1  0  0  0  0
  4  9  1  0  0  0  0
  5 10  1  6  0  0  0
  5  1  1  0  0  0  0
  5 23  1  0  0  0  0
  6  2  1  0  0  0  0
  7  3  1  0  0  0  0
  8  4  1  0  0  0  0
 11 12  1  0  0  0  0
 11 13  1  0  0  0  0
 14 15  2  0  0  0  0
 14 19  1  0  0  0  0
 15 16  1  0  0  0  0
 16 11  1  0  0  0  0
 16 17  2  0  0  0  0
 18 17  1  0  0  0  0
 18 22  1  0  0  0  0
 19 18  2  0  0  0  0
 20 14  1  0  0  0  0
 21 15  1  0  0  0  0
 23 25  2  0  0  0  0
 23 24  1  0  0  0  0
M  END
>  <minimizedAffinity>
-3.92061758

$$$$

 OpenBabel03252504563D

 25 26  0  0  1  0  0  0  0  0999 V2000
   39.0300   30.6120   41.4380 N   0  0  0  0  0  0  0  0  0  0  0  0
   39.7960   29.7760   42.2930 C   0  0  0  0  0  0  0  0  0  0  0  0
   38.7440   29.0070   43.0240 C   0  0  0  0  0  0  0  0  0  0  0  0
   37.3910   29.3970   42.4780 C   0  0  0  0  0  0  0  0  0  0  0  0
   37.7790   30.0920   41.1490 C   0  0  1  0  0  0  0  0  0  0  0  0
   40.8020   29.5710   42.5290 H   0  0  0  0  0  0  0  0  0  0  0  0
   38.8730   28.2410   43.7970 H   0  0  0  0  0  0  0  0  0  0  0  0
   36.7920   28.4930   42.2770 H   0  0  0  0  0  0  0  0  0  0  0  0
   36.8560   30.0680   43.1520 H   0  0  0  0  0  0  0  0  0  0  0  0
   37.8450   29.2840   40.3950 H   0  0  0  0  0  0  0  0  0  0  0  0
   39.5270   31.8240   41.0820 C   0  0  0  0  0  0  0  0  0  0  0  0
   40.3100   32.1350   41.8520 H   0  0  0  0  0  0  0  0  0  0  0  0
   38.8460   32.7200   41.1220 H   0  0  0  0  0  0  0  0  0  0  0  0
   40.4820   32.1940   37.4490 C   0  0  0  0  0  0  0  0  0  0  0  0
   39.6370   32.1030   38.5830 C   0  0  0  0  0  0  0  0  0  0  0  0
   40.2450   31.8970   39.8190 C   0  0  0  0  0  0  0  0  0  0  0  0
   41.5930   31.7960   39.8590 N   0  0  0  0  0  0  0  0  0  0  0  0
   42.3920   31.8850   38.7550 C   0  0  0  0  0  0  0  0  0  0  0  0
   41.8300   32.0850   37.5450 N   0  0  0  0  0  0  0  0  0  0  0  0
   39.9630   32.3550   36.5150 H   0  0  0  0  0  0  0  0  0  0  0  0
   38.5680   32.1860   38.5290 H   0  0  0  0  0  0  0  0  0  0  0  0
   43.4520   31.7850   38.9300 H   0  0  0  0  0  0  0  0  0  0  0  0
   36.6660   30.9810   40.8480 C   0  0  0  0  0  0  0  0  0  0  0  0
   35.9110   31.6870   40.5400 H   0  0  0  0  0  0  0  0  0  0  0  0
   35.5610   31.0320   41.4000 O   0  0  0  0  0  0  0  0  0  0  0  0
  1  2  1  0  0  0  0
  2  6  1  0  0  0  0
  2  3  2  0  0  0  0
  3  7  1  0  0  0  0
  4  3  1  0  0  0  0
  4  9  1  0  0  0  0
  5 10  1  6  0  0  0
  5  1  1  0  0  0  0
  5  4  1  0  0  0  0
  8  4  1  0  0  0  0
 11 13  1  0  0  0  0
 11  1  1  0  0  0  0
 11 12  1  0  0  0  0
 14 19  2  0  0  0  0
 14 15  1  0  0  0  0
 15 16  2  0  0  0  0
 16 17  1  0  0  0  0
 16 11  1  0  0  0  0
 18 22  1  0  0  0  0
 18 17  2  0  0  0  0
 19 18  1  0  0  0  0
 20 14  1  0  0  0  0
 21 15  1  0  0  0  0
 23  5  1  0  0  0  0
 23 25  2  0  0  0  0
 24 23  1  0  0  0  0
M  END
>  <minimizedAffinity>
-3.91832137

$$$$

 OpenBabel03252504563D

 25 26  0  0  1  0  0  0  0  0999 V2000
   37.6520   27.5320   40.9420 N   0  0  0  0  0  0  0  0  0  0  0  0
   37.4900   26.4050   40.0940 C   0  0  0  0  0  0  0  0  0  0  0  0
   37.0970   25.3290   41.0530 C   0  0  0  0  0  0  0  0  0  0  0  0
   36.9730   25.9300   42.4330 C   0  0  0  0  0  0  0  0  0  0  0  0
   36.9100   27.4440   42.1080 C   0  0  1  0  0  0  0  0  0  0  0  0
   37.5650   26.1480   39.0750 H   0  0  0  0  0  0  0  0  0  0  0  0
   36.8730   24.2780   40.8420 H   0  0  0  0  0  0  0  0  0  0  0  0
   36.0330   25.6000   42.9040 H   0  0  0  0  0  0  0  0  0  0  0  0
   37.8260   25.6810   43.0650 H   0  0  0  0  0  0  0  0  0  0  0  0
   35.8410   27.6670   41.9210 H   0  0  0  0  0  0  0  0  0  0  0  0
   38.5480   28.4930   40.6010 C   0  0  0  0  0  0  0  0  0  0  0  0
   39.2030   28.0930   39.7560 H   0  0  0  0  0  0  0  0  0  0  0  0
   39.3420   28.7820   41.3450 H   0  0  0  0  0  0  0  0  0  0  0  0
   37.0730   31.1560   38.3690 C   0  0  0  0  0  0  0  0  0  0  0  0
   37.6190   29.9000   38.7320 C   0  0  0  0  0  0  0  0  0  0  0  0
   38.0110   29.7310   40.0580 C   0  0  0  0  0  0  0  0  0  0  0  0
   37.8470   30.7700   40.9090 N   0  0  0  0  0  0  0  0  0  0  0  0
   37.3190   31.9740   40.5420 C   0  0  0  0  0  0  0  0  0  0  0  0
   36.9310   32.1650   39.2650 N   0  0  0  0  0  0  0  0  0  0  0  0
   36.7830   31.2360   37.3310 H   0  0  0  0  0  0  0  0  0  0  0  0
   37.7410   29.0890   38.0390 H   0  0  0  0  0  0  0  0  0  0  0  0
   37.2470   32.7160   41.3220 H   0  0  0  0  0  0  0  0  0  0  0  0
   37.3650   28.1100   43.3210 C   0  0  0  0  0  0  0  0  0  0  0  0
   37.7550   28.5000   44.2480 H   0  0  0  0  0  0  0  0  0  0  0  0
   37.1560   29.2760   43.6740 O   0  0  0  0  0  0  0  0  0  0  0  0
  1  5  1  0  0  0  0
  2  1  1  0  0  0  0
  2  3  2  0  0  0  0
  3  4  1  0  0  0  0
  4  8  1  0  0  0  0
  4  9  1  0  0  0  0
  5 10  1  6  0  0  0
  5  4  1  0  0  0  0
  5 23  1  0  0  0  0
  6  2  1  0  0  0  0
  7  3  1  0  0  0  0
 11  1  1  0  0  0  0
 11 13  1  0  0  0  0
 12 11  1  0  0  0  0
 14 15  2  0  0  0  0
 14 19  1  0  0  0  0
 15 16  1  0  0  0  0
 16 11  1  0  0  0  0
 16 17  2  0  0  0  0
 18 17  1  0  0  0  0
 18 22  1  0  0  0  0
 19 18  2  0  0  0  0
 20 14  1  0  0  0  0
 21 15  1  0  0  0  0
 23 25  2  0  0  0  0
 23 24  1  0  0  0  0
M  END
>  <minimizedAffinity>
-3.88885379

$$$$

 OpenBabel03252504563D

 25 26  0  0  1  0  0  0  0  0999 V2000
   37.5570   28.2590   40.8530 N   0  0  0  0  0  0  0  0  0  0  0  0
   38.3170   27.2220   41.4570 C   0  0  0  0  0  0  0  0  0  0  0  0
   38.6720   27.8090   42.7830 C   0  0  0  0  0  0  0  0  0  0  0  0
   38.0130   29.1620   42.9080 C   0  0  0  0  0  0  0  0  0  0  0  0
   36.9570   29.0990   41.7760 C   0  0  1  0  0  0  0  0  0  0  0  0
   38.6630   26.2500   41.2440 H   0  0  0  0  0  0  0  0  0  0  0  0
   39.2640   27.3610   43.5890 H   0  0  0  0  0  0  0  0  0  0  0  0
   37.5190   29.2500   43.8890 H   0  0  0  0  0  0  0  0  0  0  0  0
   38.7230   29.9780   42.7630 H   0  0  0  0  0  0  0  0  0  0  0  0
   36.0620   28.6270   42.2260 H   0  0  0  0  0  0  0  0  0  0  0  0
   37.5690   28.3860   39.5010 C   0  0  0  0  0  0  0  0  0  0  0  0
   38.4020   27.7270   39.0840 H   0  0  0  0  0  0  0  0  0  0  0  0
   37.8600   29.3770   39.0540 H   0  0  0  0  0  0  0  0  0  0  0  0
   34.2560   28.1670   37.7060 C   0  0  0  0  0  0  0  0  0  0  0  0
   35.3160   28.7530   38.4420 C   0  0  0  0  0  0  0  0  0  0  0  0
   36.3860   27.9320   38.7870 C   0  0  0  0  0  0  0  0  0  0  0  0
   36.3470   26.6360   38.4000 N   0  0  0  0  0  0  0  0  0  0  0  0
   35.3170   26.0890   37.6910 C   0  0  0  0  0  0  0  0  0  0  0  0
   34.2680   26.8610   37.3440 N   0  0  0  0  0  0  0  0  0  0  0  0
   33.4510   28.8460   37.4630 H   0  0  0  0  0  0  0  0  0  0  0  0
   35.3260   29.7850   38.7400 H   0  0  0  0  0  0  0  0  0  0  0  0
   35.4140   25.0410   37.4490 H   0  0  0  0  0  0  0  0  0  0  0  0
   36.6840   30.4890   41.4360 C   0  0  0  0  0  0  0  0  0  0  0  0
   36.6010   31.5320   41.1740 H   0  0  0  0  0  0  0  0  0  0  0  0
   35.5870   31.0520   41.3530 O   0  0  0  0  0  0  0  0  0  0  0  0
  1  2  1  0  0  0  0
  1  5  1  0  0  0  0
  2  3  2  0  0  0  0
  3  4  1  0  0  0  0
  3  7  1  0  0  0  0
  4  8  1  0  0  0  0
  5 10  1  1  0  0  0
  5  4  1  0  0  0  0
  6  2  1  0  0  0  0
  9  4  1  0  0  0  0
 11  1  1  0  0  0  0
 12 11  1  0  0  0  0
 13 11  1  0  0  0  0
 14 15  1  0  0  0  0
 15 21  1  0  0  0  0
 15 16  2  0  0  0  0
 16 11  1  0  0  0  0
 17 16  1  0  0  0  0
 18 17  2  0  0  0  0
 19 18  1  0  0  0  0
 19 14  2  0  0  0  0
 20 14  1  0  0  0  0
 22 18  1  0  0  0  0
 23  5  1  0  0  0  0
 24 23  1  0  0  0  0
 25 23  2  0  0  0  0
M  END
>  <minimizedAffinity>
-3.81931329

$$$$
