
 OpenBabel03252509183D

 35 37  0  0  1  0  0  0  0  0999 V2000
   50.2650   30.6910   41.8670 C   0  0  1  0  0  0  0  0  0  0  0  0
   50.6680   31.4950   40.6800 C   0  0  0  0  0  0  0  0  0  0  0  0
   52.1430   31.6720   40.5100 C   0  0  0  0  0  0  0  0  0  0  0  0
   52.9250   30.4040   40.7630 C   0  0  0  0  0  0  0  0  0  0  0  0
   52.4600   29.6700   41.9970 C   0  0  0  0  0  0  0  0  0  0  0  0
   51.5000   30.5660   42.7920 C   0  0  2  0  0  0  0  0  0  0  0  0
   50.0580   29.6560   41.5650 H   0  0  0  0  0  0  0  0  0  0  0  0
   50.2400   32.5300   40.7890 H   0  0  0  0  0  0  0  0  0  0  0  0
   50.2630   31.1160   39.7080 H   0  0  0  0  0  0  0  0  0  0  0  0
   52.5000   32.4100   41.2720 H   0  0  0  0  0  0  0  0  0  0  0  0
   52.3800   32.0110   39.5020 H   0  0  0  0  0  0  0  0  0  0  0  0
   53.9870   30.7130   40.8380 H   0  0  0  0  0  0  0  0  0  0  0  0
   52.8490   29.7290   39.9080 H   0  0  0  0  0  0  0  0  0  0  0  0
   51.8750   28.7790   41.7270 H   0  0  0  0  0  0  0  0  0  0  0  0
   53.3000   29.4430   42.6740 H   0  0  0  0  0  0  0  0  0  0  0  0
   51.9360   31.5370   43.0300 H   0  0  0  0  0  0  0  0  0  0  0  0
   47.2360   32.8900   43.5460 C   0  0  0  0  0  0  0  0  0  0  0  0
   47.1030   31.5160   43.8000 C   0  0  0  0  0  0  0  0  0  0  0  0
   48.0460   30.6950   43.2990 C   0  0  0  0  0  0  0  0  0  0  0  0
   49.1200   31.2130   42.5500 C   0  0  0  0  0  0  0  0  0  0  0  0
   48.7730   33.0050   42.5520 S   0  0  0  0  0  0  0  0  0  0  0  0
   46.2800   31.1180   44.3730 H   0  0  0  0  0  0  0  0  0  0  0  0
   48.1180   29.6220   43.3860 H   0  0  0  0  0  0  0  0  0  0  0  0
   44.8470   34.9810   45.4870 C   0  0  0  0  0  0  0  0  0  0  0  0
   44.6030   36.0050   44.5570 C   0  0  0  0  0  0  0  0  0  0  0  0
   45.2610   35.9390   43.3120 C   0  0  0  0  0  0  0  0  0  0  0  0
   46.0990   34.8820   43.0830 N   0  0  0  0  0  0  0  0  0  0  0  0
   46.2970   33.9220   44.0170 C   0  0  0  0  0  0  0  0  0  0  0  0
   45.6700   33.9720   45.2200 N   0  0  0  0  0  0  0  0  0  0  0  0
   44.3510   35.0240   46.4370 H   0  0  0  0  0  0  0  0  0  0  0  0
   43.9380   36.8100   44.7860 H   0  0  0  0  0  0  0  0  0  0  0  0
   45.1110   36.6910   42.5700 H   0  0  0  0  0  0  0  0  0  0  0  0
   51.0620   29.8040   43.9960 C   0  0  0  0  0  0  0  0  0  0  0  0
   50.0070   29.5060   44.0170 H   0  0  0  0  0  0  0  0  0  0  0  0
   51.8090   29.5120   44.9250 O   0  0  0  0  0  0  0  0  0  0  0  0
  1  7  1  6  0  0  0
  1 20  1  0  0  0  0
  1  6  1  0  0  0  0
  2  8  1  0  0  0  0
  2  1  1  0  0  0  0
  3  2  1  0  0  0  0
  3  4  1  0  0  0  0
  3 10  1  0  0  0  0
  4 12  1  0  0  0  0
  4  5  1  0  0  0  0
  5 15  1  0  0  0  0
  5  6  1  0  0  0  0
  6 16  1  1  0  0  0
  6 33  1  0  0  0  0
  9  2  1  0  0  0  0
 11  3  1  0  0  0  0
 13  4  1  0  0  0  0
 14  5  1  0  0  0  0
 17 18  2  0  0  0  0
 17 28  1  0  0  0  0
 18 22  1  0  0  0  0
 19 23  1  0  0  0  0
 19 18  1  0  0  0  0
 20 21  1  0  0  0  0
 20 19  2  0  0  0  0
 21 17  1  0  0  0  0
 24 30  1  0  0  0  0
 25 31  1  0  0  0  0
 25 24  2  0  0  0  0
 26 25  1  0  0  0  0
 27 26  2  0  0  0  0
 27 28  1  0  0  0  0
 28 29  2  0  0  0  0
 29 24  1  0  0  0  0
 32 26  1  0  0  0  0
 33 34  1  0  0  0  0
 33 35  2  0  0  0  0
M  END
>  <minimizedAffinity>
-3.99074626

>  <minimizedRMSD>
5.88667488

$$$$
