
 OpenBabel03252509173D

 35 37  0  0  1  0  0  0  0  0999 V2000
   47.5800   30.0000   48.2510 C   0  0  1  0  0  0  0  0  0  0  0  0
   47.4720   28.8070   47.3670 C   0  0  0  0  0  0  0  0  0  0  0  0
   48.7440   28.0420   47.1820 C   0  0  0  0  0  0  0  0  0  0  0  0
   49.5180   27.8620   48.4680 C   0  0  0  0  0  0  0  0  0  0  0  0
   49.5910   29.1290   49.2850 C   0  0  0  0  0  0  0  0  0  0  0  0
   49.0840   30.3090   48.4440 C   0  0  2  0  0  0  0  0  0  0  0  0
   47.2310   29.7490   49.2610 H   0  0  0  0  0  0  0  0  0  0  0  0
   47.1630   29.1500   46.3410 H   0  0  0  0  0  0  0  0  0  0  0  0
   46.6850   28.0740   47.6750 H   0  0  0  0  0  0  0  0  0  0  0  0
   49.4120   28.6270   46.5010 H   0  0  0  0  0  0  0  0  0  0  0  0
   48.5470   27.0520   46.7740 H   0  0  0  0  0  0  0  0  0  0  0  0
   50.5230   27.5020   48.1680 H   0  0  0  0  0  0  0  0  0  0  0  0
   49.0680   27.0790   49.0810 H   0  0  0  0  0  0  0  0  0  0  0  0
   48.9180   29.0750   50.1540 H   0  0  0  0  0  0  0  0  0  0  0  0
   50.6300   29.3730   49.5610 H   0  0  0  0  0  0  0  0  0  0  0  0
   49.6100   30.4010   47.4940 H   0  0  0  0  0  0  0  0  0  0  0  0
   45.9210   33.1640   46.2330 C   0  0  0  0  0  0  0  0  0  0  0  0
   45.3270   32.9600   47.4880 C   0  0  0  0  0  0  0  0  0  0  0  0
   45.7960   31.9480   48.2430 C   0  0  0  0  0  0  0  0  0  0  0  0
   46.8440   31.1330   47.7750 C   0  0  0  0  0  0  0  0  0  0  0  0
   47.2010   31.8530   46.1360 S   0  0  0  0  0  0  0  0  0  0  0  0
   44.5240   33.5830   47.8470 H   0  0  0  0  0  0  0  0  0  0  0  0
   45.4740   31.6370   49.2240 H   0  0  0  0  0  0  0  0  0  0  0  0
   44.4160   36.1110   44.5320 C   0  0  0  0  0  0  0  0  0  0  0  0
   45.0390   36.0180   43.2780 C   0  0  0  0  0  0  0  0  0  0  0  0
   45.9450   34.9580   43.0660 C   0  0  0  0  0  0  0  0  0  0  0  0
   46.1620   34.0830   44.0940 N   0  0  0  0  0  0  0  0  0  0  0  0
   45.5310   34.2210   45.2840 C   0  0  0  0  0  0  0  0  0  0  0  0
   44.6570   35.2360   45.5030 N   0  0  0  0  0  0  0  0  0  0  0  0
   43.7250   36.9150   44.7020 H   0  0  0  0  0  0  0  0  0  0  0  0
   44.8350   36.7300   42.5060 H   0  0  0  0  0  0  0  0  0  0  0  0
   46.4460   34.8420   42.1310 H   0  0  0  0  0  0  0  0  0  0  0  0
   49.1680   31.5350   49.2880 C   0  0  0  0  0  0  0  0  0  0  0  0
   48.2310   32.0850   49.4290 H   0  0  0  0  0  0  0  0  0  0  0  0
   50.2060   31.9330   49.8080 O   0  0  0  0  0  0  0  0  0  0  0  0
  1  6  1  0  0  0  0
  1  7  1  1  0  0  0
  2  9  1  0  0  0  0
  2  1  1  0  0  0  0
  3  2  1  0  0  0  0
  3  4  1  0  0  0  0
  4 13  1  0  0  0  0
  4  5  1  0  0  0  0
  5 15  1  0  0  0  0
  5 14  1  0  0  0  0
  6 16  1  6  0  0  0
  6  5  1  0  0  0  0
  6 33  1  0  0  0  0
  8  2  1  0  0  0  0
 10  3  1  0  0  0  0
 11  3  1  0  0  0  0
 12  4  1  0  0  0  0
 17 18  2  0  0  0  0
 18 22  1  0  0  0  0
 18 19  1  0  0  0  0
 19 23  1  0  0  0  0
 20 19  2  0  0  0  0
 20  1  1  0  0  0  0
 21 17  1  0  0  0  0
 21 20  1  0  0  0  0
 24 30  1  0  0  0  0
 24 29  1  0  0  0  0
 25 24  2  0  0  0  0
 26 25  1  0  0  0  0
 26 27  2  0  0  0  0
 27 28  1  0  0  0  0
 28 29  2  0  0  0  0
 28 17  1  0  0  0  0
 31 25  1  0  0  0  0
 32 26  1  0  0  0  0
 33 34  1  0  0  0  0
 33 35  2  0  0  0  0
M  END
>  <minimizedAffinity>
-4.96760464

>  <minimizedRMSD>
1.06651425

$$$$
