
 OpenBabel03252508163D

 31 33  0  0  1  0  0  0  0  0999 V2000
   39.1580   26.8290   43.6370 C   0  0  0  0  0  0  0  0  0  0  0  0
   38.1570   26.5030   43.9630 H   0  0  0  0  0  0  0  0  0  0  0  0
   39.8440   27.0760   44.4840 H   0  0  0  0  0  0  0  0  0  0  0  0
   39.8010   25.7620   42.7860 C   0  0  1  0  0  0  0  0  0  0  0  0
   39.7250   24.3660   43.3070 C   0  0  0  0  0  0  0  0  0  0  0  0
   38.9480   24.7380   42.1390 C   0  0  1  0  0  0  0  0  0  0  0  0
   40.6850   26.0790   42.1950 H   0  0  0  0  0  0  0  0  0  0  0  0
   40.6580   23.7480   43.1940 H   0  0  0  0  0  0  0  0  0  0  0  0
   39.2520   24.1980   44.2880 H   0  0  0  0  0  0  0  0  0  0  0  0
   39.3290   24.3000   41.1650 H   0  0  0  0  0  0  0  0  0  0  0  0
   37.4850   24.9460   42.1500 C   0  0  0  0  0  0  0  0  0  0  0  0
   36.7060   24.0900   41.1180 C   0  0  0  0  0  0  0  0  0  0  0  0
   36.8660   25.5510   40.8710 C   0  0  0  0  0  0  0  0  0  0  0  0
   36.9560   25.1060   43.0950 H   0  0  0  0  0  0  0  0  0  0  0  0
   35.6870   23.7810   41.4060 H   0  0  0  0  0  0  0  0  0  0  0  0
   37.2700   23.3620   40.5150 H   0  0  0  0  0  0  0  0  0  0  0  0
   37.5910   25.8650   40.1070 H   0  0  0  0  0  0  0  0  0  0  0  0
   36.0130   26.2340   41.0660 H   0  0  0  0  0  0  0  0  0  0  0  0
   37.9120   28.6130   42.6990 C   0  0  0  0  0  3  0  0  0  0  0  0
   39.0850   28.1350   42.8610 C   0  0  0  0  0  3  0  0  0  0  0  0
   36.4450   31.3040   40.6700 C   0  0  0  0  0  0  0  0  0  0  0  0
   37.5190   32.1540   40.4490 C   0  0  0  0  0  0  0  0  0  0  0  0
   38.7260   31.7900   41.0240 C   0  0  0  0  0  0  0  0  0  0  0  0
   38.8020   30.6540   41.7540 N   0  0  0  0  0  0  0  0  0  0  0  0
   37.7410   29.8480   41.9500 C   0  0  0  0  0  0  0  0  0  0  0  0
   36.5850   30.1910   41.4050 N   0  0  0  0  0  0  0  0  0  0  0  0
   35.4470   31.4620   40.2860 H   0  0  0  0  0  0  0  0  0  0  0  0
   37.3660   33.0410   39.8490 H   0  0  0  0  0  0  0  0  0  0  0  0
   39.8830   32.6380   40.8290 C   0  0  0  0  0  0  0  0  0  0  0  0
   40.8790   32.2920   41.0680 H   0  0  0  0  0  0  0  0  0  0  0  0
   39.7690   33.8050   40.3740 O   0  0  0  0  0  0  0  0  0  0  0  0
  1  2  1  0  0  0  0
  1  3  1  0  0  0  0
  4  7  1  6  0  0  0
  4  5  1  0  0  0  0
  4  1  1  0  0  0  0
  5  9  1  0  0  0  0
  6 10  1  6  0  0  0
  6 11  1  0  0  0  0
  6  4  1  0  0  0  0
  6  5  1  0  0  0  0
  8  5  1  0  0  0  0
 11 14  1  0  0  0  0
 12 15  1  0  0  0  0
 12 11  1  0  0  0  0
 13 18  1  0  0  0  0
 13 12  1  0  0  0  0
 13 11  1  0  0  0  0
 16 12  1  0  0  0  0
 17 13  1  0  0  0  0
 19 20  2  0  0  0  0
 20  1  1  0  0  0  0
 21 26  1  0  0  0  0
 22 21  2  0  0  0  0
 22 23  1  0  0  0  0
 23 24  2  0  0  0  0
 24 25  1  0  0  0  0
 25 19  1  0  0  0  0
 26 25  2  0  0  0  0
 27 21  1  0  0  0  0
 28 22  1  0  0  0  0
 29 23  1  0  0  0  0
 29 30  1  0  0  0  0
 31 29  2  0  0  0  0
M  END
>  <minimizedAffinity>
-4.70070124

$$$$

 OpenBabel03252508163D

 31 33  0  0  1  0  0  0  0  0999 V2000
   36.2890   28.4690   41.3770 C   0  0  0  0  0  0  0  0  0  0  0  0
   36.5690   27.7910   40.5530 H   0  0  0  0  0  0  0  0  0  0  0  0
   35.1950   28.4750   41.5970 H   0  0  0  0  0  0  0  0  0  0  0  0
   37.0370   28.0950   42.6330 C   0  0  1  0  0  0  0  0  0  0  0  0
   36.2570   27.3670   43.6750 C   0  0  0  0  0  0  0  0  0  0  0  0
   37.2870   26.6660   42.9310 C   0  0  1  0  0  0  0  0  0  0  0  0
   37.8480   28.7890   42.9400 H   0  0  0  0  0  0  0  0  0  0  0  0
   36.4410   27.6840   44.7380 H   0  0  0  0  0  0  0  0  0  0  0  0
   35.1850   27.1830   43.4940 H   0  0  0  0  0  0  0  0  0  0  0  0
   38.2170   26.4280   43.5330 H   0  0  0  0  0  0  0  0  0  0  0  0
   37.0130   25.6770   41.8680 C   0  0  0  0  0  0  0  0  0  0  0  0
   37.6180   24.2730   42.1240 C   0  0  0  0  0  0  0  0  0  0  0  0
   38.2360   25.1470   41.0880 C   0  0  0  0  0  0  0  0  0  0  0  0
   36.0430   25.6660   41.3600 H   0  0  0  0  0  0  0  0  0  0  0  0
   37.0530   23.4150   41.7240 H   0  0  0  0  0  0  0  0  0  0  0  0
   38.1350   24.0960   43.0800 H   0  0  0  0  0  0  0  0  0  0  0  0
   39.1900   25.6350   41.3330 H   0  0  0  0  0  0  0  0  0  0  0  0
   38.0330   24.9500   40.0150 H   0  0  0  0  0  0  0  0  0  0  0  0
   37.8120   30.2370   40.9600 C   0  0  0  0  0  3  0  0  0  0  0  0
   36.5760   29.9180   41.0160 C   0  0  0  0  0  3  0  0  0  0  0  0
   37.6590   33.7420   39.8630 C   0  0  0  0  0  0  0  0  0  0  0  0
   38.9780   34.1600   39.9600 C   0  0  0  0  0  0  0  0  0  0  0  0
   39.8920   33.2280   40.4240 C   0  0  0  0  0  0  0  0  0  0  0  0
   39.4690   31.9850   40.7510 N   0  0  0  0  0  0  0  0  0  0  0  0
   38.1820   31.6070   40.6440 C   0  0  0  0  0  0  0  0  0  0  0  0
   37.3040   32.4940   40.2040 N   0  0  0  0  0  0  0  0  0  0  0  0
   36.8420   34.3600   39.5200 H   0  0  0  0  0  0  0  0  0  0  0  0
   39.2250   35.1740   39.6740 H   0  0  0  0  0  0  0  0  0  0  0  0
   41.2830   33.6070   40.5480 C   0  0  0  0  0  0  0  0  0  0  0  0
   41.6630   34.5080   40.0880 H   0  0  0  0  0  0  0  0  0  0  0  0
   42.0980   32.9000   41.1960 O   0  0  0  0  0  0  0  0  0  0  0  0
  1  3  1  0  0  0  0
  1  4  1  0  0  0  0
  2  1  1  0  0  0  0
  4  6  1  0  0  0  0
  4  7  1  1  0  0  0
  4  5  1  0  0  0  0
  5  8  1  0  0  0  0
  6 10  1  1  0  0  0
  6  5  1  0  0  0  0
  9  5  1  0  0  0  0
 11 12  1  0  0  0  0
 11  6  1  0  0  0  0
 12 16  1  0  0  0  0
 13 17  1  0  0  0  0
 13 11  1  0  0  0  0
 13 12  1  0  0  0  0
 14 11  1  0  0  0  0
 15 12  1  0  0  0  0
 18 13  1  0  0  0  0
 19 20  2  0  0  0  0
 20  1  1  0  0  0  0
 21 22  2  0  0  0  0
 21 26  1  0  0  0  0
 22 23  1  0  0  0  0
 23 29  1  0  0  0  0
 23 24  2  0  0  0  0
 25 24  1  0  0  0  0
 25 19  1  0  0  0  0
 26 25  2  0  0  0  0
 27 21  1  0  0  0  0
 28 22  1  0  0  0  0
 29 31  2  0  0  0  0
 30 29  1  0  0  0  0
M  END
>  <minimizedAffinity>
-4.61490917

$$$$

 OpenBabel03252508163D

 31 33  0  0  1  0  0  0  0  0999 V2000
   37.0320   28.8920   41.6310 C   0  0  0  0  0  0  0  0  0  0  0  0
   37.6510   28.1450   41.1060 H   0  0  0  0  0  0  0  0  0  0  0  0
   35.9920   28.9700   41.2300 H   0  0  0  0  0  0  0  0  0  0  0  0
   36.9620   28.5670   43.1020 C   0  0  1  0  0  0  0  0  0  0  0  0
   36.5590   27.1740   43.4540 C   0  0  0  0  0  0  0  0  0  0  0  0
   37.9270   27.6020   43.6790 C   0  0  1  0  0  0  0  0  0  0  0  0
   36.6780   29.4050   43.7720 H   0  0  0  0  0  0  0  0  0  0  0  0
   35.8470   27.0720   44.3180 H   0  0  0  0  0  0  0  0  0  0  0  0
   36.2960   26.4830   42.6360 H   0  0  0  0  0  0  0  0  0  0  0  0
   38.1980   27.7450   44.7710 H   0  0  0  0  0  0  0  0  0  0  0  0
   39.0730   27.1840   42.8460 C   0  0  0  0  0  0  0  0  0  0  0  0
   40.3010   26.6790   43.6470 C   0  0  0  0  0  0  0  0  0  0  0  0
   40.3680   28.0140   42.9900 C   0  0  0  0  0  0  0  0  0  0  0  0
   38.9070   26.6640   41.8970 H   0  0  0  0  0  0  0  0  0  0  0  0
   40.9130   25.8980   43.1650 H   0  0  0  0  0  0  0  0  0  0  0  0
   40.2120   26.6050   44.7420 H   0  0  0  0  0  0  0  0  0  0  0  0
   40.2800   28.9040   43.6290 H   0  0  0  0  0  0  0  0  0  0  0  0
   40.9350   28.1290   42.0430 H   0  0  0  0  0  0  0  0  0  0  0  0
   38.5080   30.4080   40.5640 C   0  0  0  0  0  3  0  0  0  0  0  0
   37.5830   30.2960   41.4370 C   0  0  0  0  0  3  0  0  0  0  0  0
   39.1790   34.0210   40.6280 C   0  0  0  0  0  0  0  0  0  0  0  0
   40.2380   34.1610   39.7420 C   0  0  0  0  0  0  0  0  0  0  0  0
   40.7140   32.9990   39.1560 C   0  0  0  0  0  0  0  0  0  0  0  0
   40.1400   31.8130   39.4640 N   0  0  0  0  0  0  0  0  0  0  0  0
   39.1110   31.7100   40.3260 C   0  0  0  0  0  0  0  0  0  0  0  0
   38.6530   32.8150   40.8910 N   0  0  0  0  0  0  0  0  0  0  0  0
   38.7090   34.8380   41.1570 H   0  0  0  0  0  0  0  0  0  0  0  0
   40.6330   35.1510   39.5550 H   0  0  0  0  0  0  0  0  0  0  0  0
   41.8180   33.0810   38.2250 C   0  0  0  0  0  0  0  0  0  0  0  0
   42.7870   33.4480   38.5330 H   0  0  0  0  0  0  0  0  0  0  0  0
   41.6880   32.7280   37.0240 O   0  0  0  0  0  0  0  0  0  0  0  0
  1  4  1  0  0  0  0
  2  1  1  0  0  0  0
  3  1  1  0  0  0  0
  4  5  1  0  0  0  0
  4  6  1  0  0  0  0
  4  7  1  1  0  0  0
  5  6  1  0  0  0  0
  5  8  1  0  0  0  0
  6 10  1  1  0  0  0
  9  5  1  0  0  0  0
 11 13  1  0  0  0  0
 11 12  1  0  0  0  0
 11  6  1  0  0  0  0
 12 16  1  0  0  0  0
 13 17  1  0  0  0  0
 13 12  1  0  0  0  0
 14 11  1  0  0  0  0
 15 12  1  0  0  0  0
 18 13  1  0  0  0  0
 19 20  2  0  0  0  0
 20  1  1  0  0  0  0
 21 26  1  0  0  0  0
 21 27  1  0  0  0  0
 22 21  2  0  0  0  0
 23 24  2  0  0  0  0
 23 22  1  0  0  0  0
 24 25  1  0  0  0  0
 25 19  1  0  0  0  0
 25 26  2  0  0  0  0
 28 22  1  0  0  0  0
 29 30  1  0  0  0  0
 29 23  1  0  0  0  0
 31 29  2  0  0  0  0
M  END
>  <minimizedAffinity>
-4.36309671

$$$$

 OpenBabel03252508163D

 31 33  0  0  1  0  0  0  0  0999 V2000
   37.8000   27.3460   43.2490 C   0  0  0  0  0  0  0  0  0  0  0  0
   37.0370   26.5780   43.4570 H   0  0  0  0  0  0  0  0  0  0  0  0
   38.0740   27.9550   44.1440 H   0  0  0  0  0  0  0  0  0  0  0  0
   39.0480   26.7020   42.6980 C   0  0  1  0  0  0  0  0  0  0  0  0
   39.6680   25.6350   43.5370 C   0  0  0  0  0  0  0  0  0  0  0  0
   39.0110   25.2770   42.2930 C   0  0  1  0  0  0  0  0  0  0  0  0
   39.6940   27.3520   42.0720 H   0  0  0  0  0  0  0  0  0  0  0  0
   40.7900   25.6510   43.6010 H   0  0  0  0  0  0  0  0  0  0  0  0
   39.2150   25.4090   44.5160 H   0  0  0  0  0  0  0  0  0  0  0  0
   39.7190   24.9660   41.4640 H   0  0  0  0  0  0  0  0  0  0  0  0
   37.6940   24.6120   42.2130 C   0  0  0  0  0  0  0  0  0  0  0  0
   37.6060   23.4840   41.1530 C   0  0  0  0  0  0  0  0  0  0  0  0
   36.9170   24.7790   40.8890 C   0  0  0  0  0  0  0  0  0  0  0  0
   37.1140   24.4230   43.1230 H   0  0  0  0  0  0  0  0  0  0  0  0
   36.9320   22.6430   41.3860 H   0  0  0  0  0  0  0  0  0  0  0  0
   38.5200   23.2210   40.5980 H   0  0  0  0  0  0  0  0  0  0  0  0
   37.3770   25.4650   40.1640 H   0  0  0  0  0  0  0  0  0  0  0  0
   35.8170   24.8480   41.0200 H   0  0  0  0  0  0  0  0  0  0  0  0
   38.1410   28.8460   41.4460 C   0  0  0  0  0  3  0  0  0  0  0  0
   37.2790   28.3860   42.2700 C   0  0  0  0  0  3  0  0  0  0  0  0
   36.7680   30.4970   38.4630 C   0  0  0  0  0  0  0  0  0  0  0  0
   37.1060   31.8290   38.6570 C   0  0  0  0  0  0  0  0  0  0  0  0
   37.7840   32.1340   39.8260 C   0  0  0  0  0  0  0  0  0  0  0  0
   38.0790   31.1460   40.7030 N   0  0  0  0  0  0  0  0  0  0  0  0
   37.7390   29.8620   40.4860 C   0  0  0  0  0  0  0  0  0  0  0  0
   37.0900   29.5650   39.3720 N   0  0  0  0  0  0  0  0  0  0  0  0
   36.2390   30.1170   37.6010 H   0  0  0  0  0  0  0  0  0  0  0  0
   36.8300   32.5510   37.9000 H   0  0  0  0  0  0  0  0  0  0  0  0
   38.1620   33.5070   40.0840 C   0  0  0  0  0  0  0  0  0  0  0  0
   37.8660   34.3050   39.4180 H   0  0  0  0  0  0  0  0  0  0  0  0
   38.8480   33.8180   41.0920 O   0  0  0  0  0  0  0  0  0  0  0  0
  1  2  1  0  0  0  0
  1  3  1  0  0  0  0
  4  7  1  6  0  0  0
  4  1  1  0  0  0  0
  4  5  1  0  0  0  0
  5  8  1  0  0  0  0
  5  9  1  0  0  0  0
  6 10  1  6  0  0  0
  6  4  1  0  0  0  0
  6  5  1  0  0  0  0
 11  6  1  0  0  0  0
 11 14  1  0  0  0  0
 12 15  1  0  0  0  0
 12 11  1  0  0  0  0
 13 18  1  0  0  0  0
 13 12  1  0  0  0  0
 13 11  1  0  0  0  0
 16 12  1  0  0  0  0
 17 13  1  0  0  0  0
 19 20  2  0  0  0  0
 20  1  1  0  0  0  0
 21 22  2  0  0  0  0
 21 26  1  0  0  0  0
 22 23  1  0  0  0  0
 23 29  1  0  0  0  0
 23 24  2  0  0  0  0
 25 24  1  0  0  0  0
 25 19  1  0  0  0  0
 26 25  2  0  0  0  0
 27 21  1  0  0  0  0
 28 22  1  0  0  0  0
 29 31  2  0  0  0  0
 30 29  1  0  0  0  0
M  END
>  <minimizedAffinity>
-4.32871819

$$$$

 OpenBabel03252508163D

 31 33  0  0  1  0  0  0  0  0999 V2000
   36.6740   31.2460   40.8640 C   0  0  0  0  0  0  0  0  0  0  0  0
   37.0200   31.9310   41.6550 H   0  0  0  0  0  0  0  0  0  0  0  0
   35.5620   31.1770   40.7890 H   0  0  0  0  0  0  0  0  0  0  0  0
   37.2260   31.6750   39.5270 C   0  0  1  0  0  0  0  0  0  0  0  0
   37.0930   33.1230   39.1900 C   0  0  0  0  0  0  0  0  0  0  0  0
   38.4030   32.5730   39.4820 C   0  0  1  0  0  0  0  0  0  0  0  0
   37.1810   30.9180   38.7170 H   0  0  0  0  0  0  0  0  0  0  0  0
   36.7980   33.3550   38.1300 H   0  0  0  0  0  0  0  0  0  0  0  0
   36.5680   33.7800   39.9030 H   0  0  0  0  0  0  0  0  0  0  0  0
   39.0820   32.4770   38.5790 H   0  0  0  0  0  0  0  0  0  0  0  0
   39.1410   32.8140   40.7400 C   0  0  0  0  0  0  0  0  0  0  0  0
   40.5600   33.4080   40.5500 C   0  0  0  0  0  0  0  0  0  0  0  0
   40.4230   31.9810   40.9560 C   0  0  0  0  0  0  0  0  0  0  0  0
   38.6150   33.1760   41.6290 H   0  0  0  0  0  0  0  0  0  0  0  0
   40.9210   34.0800   41.3460 H   0  0  0  0  0  0  0  0  0  0  0  0
   40.8840   33.6640   39.5290 H   0  0  0  0  0  0  0  0  0  0  0  0
   40.6120   31.2110   40.1940 H   0  0  0  0  0  0  0  0  0  0  0  0
   40.6000   31.6960   42.0140 H   0  0  0  0  0  0  0  0  0  0  0  0
   37.7910   29.6490   42.2120 C   0  0  0  0  0  3  0  0  0  0  0  0
   37.0890   29.8130   41.1580 C   0  0  0  0  0  3  0  0  0  0  0  0
   39.8470   26.8720   43.4660 C   0  0  0  0  0  0  0  0  0  0  0  0
   39.1180   25.7490   43.0990 C   0  0  0  0  0  0  0  0  0  0  0  0
   37.9190   25.9760   42.4430 C   0  0  0  0  0  0  0  0  0  0  0  0
   37.5230   27.2460   42.1960 N   0  0  0  0  0  0  0  0  0  0  0  0
   38.2530   28.3160   42.5630 C   0  0  0  0  0  0  0  0  0  0  0  0
   39.3990   28.1060   43.1910 N   0  0  0  0  0  0  0  0  0  0  0  0
   40.7960   26.8460   43.9820 H   0  0  0  0  0  0  0  0  0  0  0  0
   39.5140   24.7710   43.3370 H   0  0  0  0  0  0  0  0  0  0  0  0
   37.1140   24.8440   42.0360 C   0  0  0  0  0  0  0  0  0  0  0  0
   36.0340   24.9000   42.0200 H   0  0  0  0  0  0  0  0  0  0  0  0
   37.6430   23.7570   41.6880 O   0  0  0  0  0  0  0  0  0  0  0  0
  1 20  1  0  0  0  0
  1  2  1  0  0  0  0
  3  1  1  0  0  0  0
  4  7  1  6  0  0  0
  4  1  1  0  0  0  0
  5  6  1  0  0  0  0
  5  4  1  0  0  0  0
  5  9  1  0  0  0  0
  6 10  1  6  0  0  0
  6  4  1  0  0  0  0
  6 11  1  0  0  0  0
  8  5  1  0  0  0  0
 11 13  1  0  0  0  0
 11 14  1  0  0  0  0
 12 11  1  0  0  0  0
 12 13  1  0  0  0  0
 12 15  1  0  0  0  0
 13 18  1  0  0  0  0
 16 12  1  0  0  0  0
 17 13  1  0  0  0  0
 19 25  1  0  0  0  0
 20 19  2  0  0  0  0
 21 27  1  0  0  0  0
 22 28  1  0  0  0  0
 22 21  2  0  0  0  0
 23 22  1  0  0  0  0
 24 23  2  0  0  0  0
 24 25  1  0  0  0  0
 25 26  2  0  0  0  0
 26 21  1  0  0  0  0
 29 23  1  0  0  0  0
 30 29  1  0  0  0  0
 31 29  2  0  0  0  0
M  END
>  <minimizedAffinity>
-4.26517868

$$$$

 OpenBabel03252508163D

 31 33  0  0  1  0  0  0  0  0999 V2000
   33.9480   29.1580   39.3190 C   0  0  0  0  0  0  0  0  0  0  0  0
   33.4310   30.1230   39.4480 H   0  0  0  0  0  0  0  0  0  0  0  0
   33.3390   28.2800   39.6460 H   0  0  0  0  0  0  0  0  0  0  0  0
   34.3410   28.9680   37.8750 C   0  0  1  0  0  0  0  0  0  0  0  0
   33.8770   27.7070   37.2240 C   0  0  0  0  0  0  0  0  0  0  0  0
   33.2910   28.9750   36.8300 C   0  0  1  0  0  0  0  0  0  0  0  0
   35.3090   29.4170   37.5720 H   0  0  0  0  0  0  0  0  0  0  0  0
   34.6240   27.1960   36.5570 H   0  0  0  0  0  0  0  0  0  0  0  0
   33.3210   26.9770   37.8340 H   0  0  0  0  0  0  0  0  0  0  0  0
   33.6010   29.3330   35.8010 H   0  0  0  0  0  0  0  0  0  0  0  0
   31.9330   29.4140   37.2140 C   0  0  0  0  0  0  0  0  0  0  0  0
   30.8390   29.1190   36.1550 C   0  0  0  0  0  0  0  0  0  0  0  0
   31.2980   30.5230   36.3480 C   0  0  0  0  0  0  0  0  0  0  0  0
   31.5940   29.3230   38.2510 H   0  0  0  0  0  0  0  0  0  0  0  0
   29.8270   28.9090   36.5410 H   0  0  0  0  0  0  0  0  0  0  0  0
   31.1270   28.5620   35.2510 H   0  0  0  0  0  0  0  0  0  0  0  0
   31.9610   30.9540   35.5850 H   0  0  0  0  0  0  0  0  0  0  0  0
   30.6630   31.2310   36.9210 H   0  0  0  0  0  0  0  0  0  0  0  0
   35.8580   30.1490   40.3130 C   0  0  0  0  0  3  0  0  0  0  0  0
   35.1800   29.0720   40.2060 C   0  0  0  0  0  3  0  0  0  0  0  0
   38.2990   29.4360   42.9660 C   0  0  0  0  0  0  0  0  0  0  0  0
   39.3420   30.3030   42.6760 C   0  0  0  0  0  0  0  0  0  0  0  0
   39.1900   31.1030   41.5550 C   0  0  0  0  0  0  0  0  0  0  0  0
   38.0620   31.0070   40.8150 N   0  0  0  0  0  0  0  0  0  0  0  0
   37.0650   30.1560   41.1230 C   0  0  0  0  0  0  0  0  0  0  0  0
   37.2050   29.3880   42.1910 N   0  0  0  0  0  0  0  0  0  0  0  0
   38.2820   28.7550   43.8050 H   0  0  0  0  0  0  0  0  0  0  0  0
   40.2070   30.3130   43.3260 H   0  0  0  0  0  0  0  0  0  0  0  0
   40.2470   32.0270   41.2010 C   0  0  0  0  0  0  0  0  0  0  0  0
   41.2870   31.7660   41.3300 H   0  0  0  0  0  0  0  0  0  0  0  0
   39.9890   33.1650   40.7300 O   0  0  0  0  0  0  0  0  0  0  0  0
  1  2  1  0  0  0  0
  1  3  1  0  0  0  0
  1 20  1  0  0  0  0
  4  7  1  6  0  0  0
  4  1  1  0  0  0  0
  5  9  1  0  0  0  0
  5  4  1  0  0  0  0
  6 10  1  6  0  0  0
  6 11  1  0  0  0  0
  6  5  1  0  0  0  0
  6  4  1  0  0  0  0
  8  5  1  0  0  0  0
 11 14  1  0  0  0  0
 12 13  1  0  0  0  0
 12 15  1  0  0  0  0
 12 11  1  0  0  0  0
 13 18  1  0  0  0  0
 13 11  1  0  0  0  0
 16 12  1  0  0  0  0
 17 13  1  0  0  0  0
 19 25  1  0  0  0  0
 20 19  2  0  0  0  0
 21 27  1  0  0  0  0
 22 21  1  0  0  0  0
 22 28  1  0  0  0  0
 23 22  2  0  0  0  0
 24 25  2  0  0  0  0
 24 23  1  0  0  0  0
 25 26  1  0  0  0  0
 26 21  2  0  0  0  0
 29 30  1  0  0  0  0
 29 23  1  0  0  0  0
 31 29  2  0  0  0  0
M  END
>  <minimizedAffinity>
-4.2581377

$$$$

 OpenBabel03252508163D

 31 33  0  0  1  0  0  0  0  0999 V2000
   36.2820   28.4030   41.7460 C   0  0  0  0  0  0  0  0  0  0  0  0
   35.6190   27.7130   42.2930 H   0  0  0  0  0  0  0  0  0  0  0  0
   36.1230   29.4760   42.0100 H   0  0  0  0  0  0  0  0  0  0  0  0
   37.7260   28.0480   42.0010 C   0  0  1  0  0  0  0  0  0  0  0  0
   38.0870   27.7170   43.4100 C   0  0  0  0  0  0  0  0  0  0  0  0
   38.0730   26.6670   42.4100 C   0  0  1  0  0  0  0  0  0  0  0  0
   38.4720   28.5460   41.3460 H   0  0  0  0  0  0  0  0  0  0  0  0
   39.0630   28.1360   43.7790 H   0  0  0  0  0  0  0  0  0  0  0  0
   37.3040   27.7920   44.1830 H   0  0  0  0  0  0  0  0  0  0  0  0
   39.1000   26.2910   42.1120 H   0  0  0  0  0  0  0  0  0  0  0  0
   37.0240   25.6300   42.3120 C   0  0  0  0  0  0  0  0  0  0  0  0
   37.5610   24.1870   42.1310 C   0  0  0  0  0  0  0  0  0  0  0  0
   36.9280   24.8720   40.9700 C   0  0  0  0  0  0  0  0  0  0  0  0
   36.1170   25.7020   42.9210 H   0  0  0  0  0  0  0  0  0  0  0  0
   36.9550   23.3790   42.5750 H   0  0  0  0  0  0  0  0  0  0  0  0
   38.6500   24.0310   42.1550 H   0  0  0  0  0  0  0  0  0  0  0  0
   37.5870   25.2490   40.1750 H   0  0  0  0  0  0  0  0  0  0  0  0
   35.8900   24.6070   40.6780 H   0  0  0  0  0  0  0  0  0  0  0  0
   34.9840   29.0450   39.8700 C   0  0  0  0  0  3  0  0  0  0  0  0
   35.9970   28.3690   40.2530 C   0  0  0  0  0  3  0  0  0  0  0  0
   33.0430   28.8870   36.7530 C   0  0  0  0  0  0  0  0  0  0  0  0
   34.0190   28.9690   35.7690 C   0  0  0  0  0  0  0  0  0  0  0  0
   35.3280   29.1000   36.2040 C   0  0  0  0  0  0  0  0  0  0  0  0
   35.5900   29.1380   37.5310 N   0  0  0  0  0  0  0  0  0  0  0  0
   34.6210   29.0540   38.4620 C   0  0  0  0  0  0  0  0  0  0  0  0
   33.3690   28.9310   38.0530 N   0  0  0  0  0  0  0  0  0  0  0  0
   31.9850   28.7850   36.5600 H   0  0  0  0  0  0  0  0  0  0  0  0
   33.7170   28.9280   34.7310 H   0  0  0  0  0  0  0  0  0  0  0  0
   36.3900   29.1920   35.2250 C   0  0  0  0  0  0  0  0  0  0  0  0
   37.1930   28.4690   35.1970 H   0  0  0  0  0  0  0  0  0  0  0  0
   36.4140   30.1170   34.3720 O   0  0  0  0  0  0  0  0  0  0  0  0
  1  4  1  0  0  0  0
  1  3  1  0  0  0  0
  1  2  1  0  0  0  0
  4  7  1  6  0  0  0
  4  6  1  0  0  0  0
  4  5  1  0  0  0  0
  5  8  1  0  0  0  0
  5  9  1  0  0  0  0
  6 10  1  6  0  0  0
  6  5  1  0  0  0  0
 11  6  1  0  0  0  0
 11 14  1  0  0  0  0
 12 16  1  0  0  0  0
 12 11  1  0  0  0  0
 12 15  1  0  0  0  0
 13 12  1  0  0  0  0
 13 11  1  0  0  0  0
 17 13  1  0  0  0  0
 18 13  1  0  0  0  0
 19 20  2  0  0  0  0
 20  1  1  0  0  0  0
 21 26  1  0  0  0  0
 22 23  1  0  0  0  0
 22 21  2  0  0  0  0
 23 24  2  0  0  0  0
 24 25  1  0  0  0  0
 25 19  1  0  0  0  0
 26 25  2  0  0  0  0
 27 21  1  0  0  0  0
 28 22  1  0  0  0  0
 29 23  1  0  0  0  0
 30 29  1  0  0  0  0
 31 29  2  0  0  0  0
M  END
>  <minimizedAffinity>
-4.19411612

$$$$

 OpenBabel03252508163D

 31 33  0  0  1  0  0  0  0  0999 V2000
   33.8760   29.1660   39.3130 C   0  0  0  0  0  0  0  0  0  0  0  0
   33.3320   30.1180   39.4250 H   0  0  0  0  0  0  0  0  0  0  0  0
   33.2740   28.2720   39.6080 H   0  0  0  0  0  0  0  0  0  0  0  0
   34.3360   28.9940   37.8870 C   0  0  1  0  0  0  0  0  0  0  0  0
   33.9260   27.7310   37.2070 C   0  0  0  0  0  0  0  0  0  0  0  0
   33.3350   28.9910   36.7960 C   0  0  1  0  0  0  0  0  0  0  0  0
   35.3090   29.4640   37.6310 H   0  0  0  0  0  0  0  0  0  0  0  0
   34.7110   27.2390   36.5700 H   0  0  0  0  0  0  0  0  0  0  0  0
   33.3570   26.9860   37.7860 H   0  0  0  0  0  0  0  0  0  0  0  0
   33.6850   29.3630   35.7840 H   0  0  0  0  0  0  0  0  0  0  0  0
   31.9530   29.4030   37.1210 C   0  0  0  0  0  0  0  0  0  0  0  0
   30.9230   29.1440   35.9920 C   0  0  0  0  0  0  0  0  0  0  0  0
   31.3560   30.5420   36.2670 C   0  0  0  0  0  0  0  0  0  0  0  0
   31.5590   29.2660   38.1330 H   0  0  0  0  0  0  0  0  0  0  0  0
   29.8930   28.9090   36.3120 H   0  0  0  0  0  0  0  0  0  0  0  0
   31.2670   28.6270   35.0830 H   0  0  0  0  0  0  0  0  0  0  0  0
   32.0560   31.0100   35.5610 H   0  0  0  0  0  0  0  0  0  0  0  0
   30.6830   31.2210   36.8330 H   0  0  0  0  0  0  0  0  0  0  0  0
   35.8780   30.0880   40.1840 C   0  0  0  0  0  3  0  0  0  0  0  0
   35.0690   29.1020   40.2540 C   0  0  0  0  0  3  0  0  0  0  0  0
   39.0620   31.0710   41.7340 C   0  0  0  0  0  0  0  0  0  0  0  0
   39.3380   30.0120   42.5860 C   0  0  0  0  0  0  0  0  0  0  0  0
   38.4060   28.9870   42.6240 C   0  0  0  0  0  0  0  0  0  0  0  0
   37.3000   29.0630   41.8490 N   0  0  0  0  0  0  0  0  0  0  0  0
   37.0600   30.1030   41.0300 C   0  0  0  0  0  0  0  0  0  0  0  0
   37.9460   31.0860   40.9900 N   0  0  0  0  0  0  0  0  0  0  0  0
   39.6970   31.9360   41.6040 H   0  0  0  0  0  0  0  0  0  0  0  0
   40.2500   30.0360   43.1680 H   0  0  0  0  0  0  0  0  0  0  0  0
   38.6390   27.8560   43.4960 C   0  0  0  0  0  0  0  0  0  0  0  0
   39.1060   27.9790   44.4630 H   0  0  0  0  0  0  0  0  0  0  0  0
   38.3050   26.6910   43.1570 O   0  0  0  0  0  0  0  0  0  0  0  0
  1  2  1  0  0  0  0
  1  3  1  0  0  0  0
  1 20  1  0  0  0  0
  4  7  1  6  0  0  0
  4  1  1  0  0  0  0
  5  9  1  0  0  0  0
  5  4  1  0  0  0  0
  6 10  1  6  0  0  0
  6 11  1  0  0  0  0
  6  5  1  0  0  0  0
  6  4  1  0  0  0  0
  8  5  1  0  0  0  0
 11 14  1  0  0  0  0
 12 13  1  0  0  0  0
 12 15  1  0  0  0  0
 12 11  1  0  0  0  0
 13 18  1  0  0  0  0
 13 11  1  0  0  0  0
 16 12  1  0  0  0  0
 17 13  1  0  0  0  0
 19 20  2  0  0  0  0
 19 25  1  0  0  0  0
 21 22  1  0  0  0  0
 22 23  2  0  0  0  0
 22 28  1  0  0  0  0
 23 29  1  0  0  0  0
 24 23  1  0  0  0  0
 25 24  2  0  0  0  0
 26 25  1  0  0  0  0
 26 21  2  0  0  0  0
 27 21  1  0  0  0  0
 29 30  1  0  0  0  0
 31 29  2  0  0  0  0
M  END
>  <minimizedAffinity>
-4.16607857

$$$$

 OpenBabel03252508163D

 31 33  0  0  1  0  0  0  0  0999 V2000
   33.2720   28.4200   37.0190 C   0  0  0  0  0  0  0  0  0  0  0  0
   32.3930   28.1050   37.6050 H   0  0  0  0  0  0  0  0  0  0  0  0
   33.6760   27.6180   36.3550 H   0  0  0  0  0  0  0  0  0  0  0  0
   32.9300   29.6240   36.1770 C   0  0  1  0  0  0  0  0  0  0  0  0
   32.0600   29.3760   34.9910 C   0  0  0  0  0  0  0  0  0  0  0  0
   31.5290   30.1030   36.1290 C   0  0  1  0  0  0  0  0  0  0  0  0
   33.7010   30.4210   36.1340 H   0  0  0  0  0  0  0  0  0  0  0  0
   32.3430   29.9230   34.0500 H   0  0  0  0  0  0  0  0  0  0  0  0
   31.7550   28.3390   34.7730 H   0  0  0  0  0  0  0  0  0  0  0  0
   31.3770   31.2110   35.9460 H   0  0  0  0  0  0  0  0  0  0  0  0
   30.5690   29.5370   37.0990 C   0  0  0  0  0  0  0  0  0  0  0  0
   29.3260   30.4240   37.3670 C   0  0  0  0  0  0  0  0  0  0  0  0
   30.3780   30.3190   38.4160 C   0  0  0  0  0  0  0  0  0  0  0  0
   30.3680   28.4600   37.1140 H   0  0  0  0  0  0  0  0  0  0  0  0
   28.3880   29.8950   37.6020 H   0  0  0  0  0  0  0  0  0  0  0  0
   29.2150   31.3520   36.7850 H   0  0  0  0  0  0  0  0  0  0  0  0
   31.0550   31.1750   38.5510 H   0  0  0  0  0  0  0  0  0  0  0  0
   30.2040   29.6720   39.3010 H   0  0  0  0  0  0  0  0  0  0  0  0
   34.1500   29.0330   39.1340 C   0  0  0  0  0  3  0  0  0  0  0  0
   34.4490   28.7420   37.9270 C   0  0  0  0  0  3  0  0  0  0  0  0
   36.8370   30.8410   40.8720 C   0  0  0  0  0  0  0  0  0  0  0  0
   37.2860   29.9160   41.8050 C   0  0  0  0  0  0  0  0  0  0  0  0
   36.6370   28.6930   41.8290 C   0  0  0  0  0  0  0  0  0  0  0  0
   35.6220   28.4600   40.9640 N   0  0  0  0  0  0  0  0  0  0  0  0
   35.2090   29.3760   40.0690 C   0  0  0  0  0  0  0  0  0  0  0  0
   35.8250   30.5470   40.0430 N   0  0  0  0  0  0  0  0  0  0  0  0
   37.2480   31.8320   40.7430 H   0  0  0  0  0  0  0  0  0  0  0  0
   38.1060   30.1900   42.4550 H   0  0  0  0  0  0  0  0  0  0  0  0
   37.0600   27.6890   42.7810 C   0  0  0  0  0  0  0  0  0  0  0  0
   38.0650   27.2900   42.7660 H   0  0  0  0  0  0  0  0  0  0  0  0
   36.2740   27.2470   43.6580 O   0  0  0  0  0  0  0  0  0  0  0  0
  1  2  1  0  0  0  0
  1 20  1  0  0  0  0
  3  1  1  0  0  0  0
  4  7  1  6  0  0  0
  4  1  1  0  0  0  0
  5  6  1  0  0  0  0
  5  4  1  0  0  0  0
  6 10  1  6  0  0  0
  6  4  1  0  0  0  0
  6 11  1  0  0  0  0
  8  5  1  0  0  0  0
  9  5  1  0  0  0  0
 11 14  1  0  0  0  0
 11 12  1  0  0  0  0
 11 13  1  0  0  0  0
 12 15  1  0  0  0  0
 12 13  1  0  0  0  0
 13 17  1  0  0  0  0
 13 18  1  0  0  0  0
 16 12  1  0  0  0  0
 19 25  1  0  0  0  0
 20 19  2  0  0  0  0
 21 22  1  0  0  0  0
 22 23  2  0  0  0  0
 22 28  1  0  0  0  0
 23 29  1  0  0  0  0
 24 23  1  0  0  0  0
 25 24  2  0  0  0  0
 26 25  1  0  0  0  0
 26 21  2  0  0  0  0
 27 21  1  0  0  0  0
 29 31  2  0  0  0  0
 30 29  1  0  0  0  0
M  END
>  <minimizedAffinity>
-4.15314579

$$$$
