
 OpenBabel03252509173D

 35 37  0  0  1  0  0  0  0  0999 V2000
   47.5800   29.9810   48.2490 C   0  0  1  0  0  0  0  0  0  0  0  0
   47.4510   28.7840   47.3720 C   0  0  0  0  0  0  0  0  0  0  0  0
   48.7150   28.0080   47.1750 C   0  0  0  0  0  0  0  0  0  0  0  0
   49.5030   27.8280   48.4520 C   0  0  0  0  0  0  0  0  0  0  0  0
   49.5970   29.0980   49.2630 C   0  0  0  0  0  0  0  0  0  0  0  0
   49.0890   30.2780   48.4230 C   0  0  2  0  0  0  0  0  0  0  0  0
   47.2420   29.7370   49.2650 H   0  0  0  0  0  0  0  0  0  0  0  0
   47.1330   29.1260   46.3480 H   0  0  0  0  0  0  0  0  0  0  0  0
   46.6620   28.0600   47.6930 H   0  0  0  0  0  0  0  0  0  0  0  0
   49.3790   28.5850   46.4830 H   0  0  0  0  0  0  0  0  0  0  0  0
   48.5050   27.0180   46.7730 H   0  0  0  0  0  0  0  0  0  0  0  0
   50.5010   27.4580   48.1410 H   0  0  0  0  0  0  0  0  0  0  0  0
   49.0540   27.0510   49.0740 H   0  0  0  0  0  0  0  0  0  0  0  0
   48.9340   29.0530   50.1400 H   0  0  0  0  0  0  0  0  0  0  0  0
   50.6410   29.3340   49.5250 H   0  0  0  0  0  0  0  0  0  0  0  0
   49.6040   30.3620   47.4660 H   0  0  0  0  0  0  0  0  0  0  0  0
   45.9270   33.1530   46.2400 C   0  0  0  0  0  0  0  0  0  0  0  0
   45.3400   32.9530   47.4990 C   0  0  0  0  0  0  0  0  0  0  0  0
   45.8070   31.9390   48.2520 C   0  0  0  0  0  0  0  0  0  0  0  0
   46.8480   31.1180   47.7770 C   0  0  0  0  0  0  0  0  0  0  0  0
   47.1980   31.8340   46.1350 S   0  0  0  0  0  0  0  0  0  0  0  0
   44.5420   33.5810   47.8630 H   0  0  0  0  0  0  0  0  0  0  0  0
   45.4900   31.6300   49.2360 H   0  0  0  0  0  0  0  0  0  0  0  0
   44.4200   36.1020   44.5440 C   0  0  0  0  0  0  0  0  0  0  0  0
   45.0440   36.0120   43.2900 C   0  0  0  0  0  0  0  0  0  0  0  0
   45.9500   34.9530   43.0760 C   0  0  0  0  0  0  0  0  0  0  0  0
   46.1670   34.0760   44.1040 N   0  0  0  0  0  0  0  0  0  0  0  0
   45.5360   34.2110   45.2940 C   0  0  0  0  0  0  0  0  0  0  0  0
   44.6620   35.2260   45.5140 N   0  0  0  0  0  0  0  0  0  0  0  0
   43.7300   36.9060   44.7160 H   0  0  0  0  0  0  0  0  0  0  0  0
   44.8400   36.7250   42.5200 H   0  0  0  0  0  0  0  0  0  0  0  0
   46.4510   34.8380   42.1410 H   0  0  0  0  0  0  0  0  0  0  0  0
   49.1930   31.5070   49.2610 C   0  0  0  0  0  0  0  0  0  0  0  0
   48.5600   32.3480   48.9570 H   0  0  0  0  0  0  0  0  0  0  0  0
   49.9320   31.6050   50.2350 O   0  0  0  0  0  0  0  0  0  0  0  0
  1  6  1  0  0  0  0
  1  7  1  1  0  0  0
  2  9  1  0  0  0  0
  2  1  1  0  0  0  0
  3  2  1  0  0  0  0
  3  4  1  0  0  0  0
  4 13  1  0  0  0  0
  4  5  1  0  0  0  0
  5 15  1  0  0  0  0
  5 14  1  0  0  0  0
  6 16  1  6  0  0  0
  6 33  1  0  0  0  0
  6  5  1  0  0  0  0
  8  2  1  0  0  0  0
 10  3  1  0  0  0  0
 11  3  1  0  0  0  0
 12  4  1  0  0  0  0
 17 18  2  0  0  0  0
 18 22  1  0  0  0  0
 18 19  1  0  0  0  0
 19 23  1  0  0  0  0
 20  1  1  0  0  0  0
 20 19  2  0  0  0  0
 21 17  1  0  0  0  0
 21 20  1  0  0  0  0
 24 30  1  0  0  0  0
 24 29  1  0  0  0  0
 25 24  2  0  0  0  0
 26 25  1  0  0  0  0
 26 27  2  0  0  0  0
 27 28  1  0  0  0  0
 28 29  2  0  0  0  0
 28 17  1  0  0  0  0
 31 25  1  0  0  0  0
 32 26  1  0  0  0  0
 33 35  2  0  0  0  0
 34 33  1  0  0  0  0
M  END
>  <minimizedAffinity>
-4.99851131

>  <minimizedRMSD>
1.07968318

$$$$
