
 OpenBabel03252509183D

 35 37  0  0  1  0  0  0  0  0999 V2000
   50.3450   28.5860   45.0070 C   0  0  1  0  0  0  0  0  0  0  0  0
   49.8380   29.0410   46.3310 C   0  0  0  0  0  0  0  0  0  0  0  0
   48.9180   28.0810   47.0170 C   0  0  0  0  0  0  0  0  0  0  0  0
   49.3880   26.6470   46.9300 C   0  0  0  0  0  0  0  0  0  0  0  0
   49.8630   26.2730   45.5470 C   0  0  0  0  0  0  0  0  0  0  0  0
   49.4810   27.3830   44.5590 C   0  0  2  0  0  0  0  0  0  0  0  0
   51.3510   28.1600   45.1190 H   0  0  0  0  0  0  0  0  0  0  0  0
   49.2460   29.9860   46.1800 H   0  0  0  0  0  0  0  0  0  0  0  0
   50.6380   29.3160   47.0620 H   0  0  0  0  0  0  0  0  0  0  0  0
   47.9260   28.1110   46.5000 H   0  0  0  0  0  0  0  0  0  0  0  0
   48.8120   28.3310   48.0720 H   0  0  0  0  0  0  0  0  0  0  0  0
   48.5290   26.0270   47.2570 H   0  0  0  0  0  0  0  0  0  0  0  0
   50.2000   26.4650   47.6370 H   0  0  0  0  0  0  0  0  0  0  0  0
   50.9610   26.2130   45.5120 H   0  0  0  0  0  0  0  0  0  0  0  0
   49.3710   25.3560   45.1840 H   0  0  0  0  0  0  0  0  0  0  0  0
   48.4150   27.6120   44.5800 H   0  0  0  0  0  0  0  0  0  0  0  0
   49.6880   31.6160   42.3200 C   0  0  0  0  0  0  0  0  0  0  0  0
   51.0420   31.2580   42.4010 C   0  0  0  0  0  0  0  0  0  0  0  0
   51.3760   30.2680   43.2510 C   0  0  0  0  0  0  0  0  0  0  0  0
   50.3890   29.6260   44.0230 C   0  0  0  0  0  0  0  0  0  0  0  0
   48.8640   30.4870   43.5090 S   0  0  0  0  0  0  0  0  0  0  0  0
   51.7990   31.7500   41.8100 H   0  0  0  0  0  0  0  0  0  0  0  0
   52.3530   29.8550   43.4510 H   0  0  0  0  0  0  0  0  0  0  0  0
   48.2040   33.5910   39.5370 C   0  0  0  0  0  0  0  0  0  0  0  0
   48.2400   34.8770   40.1000 C   0  0  0  0  0  0  0  0  0  0  0  0
   48.7660   35.0150   41.4010 C   0  0  0  0  0  0  0  0  0  0  0  0
   49.2110   33.8890   42.0370 N   0  0  0  0  0  0  0  0  0  0  0  0
   49.1530   32.6730   41.4450 C   0  0  0  0  0  0  0  0  0  0  0  0
   48.6480   32.5240   40.1940 N   0  0  0  0  0  0  0  0  0  0  0  0
   47.8050   33.4770   38.5480 H   0  0  0  0  0  0  0  0  0  0  0  0
   47.8780   35.7250   39.5590 H   0  0  0  0  0  0  0  0  0  0  0  0
   48.8170   35.9700   41.8750 H   0  0  0  0  0  0  0  0  0  0  0  0
   49.9710   26.9780   43.2110 C   0  0  0  0  0  0  0  0  0  0  0  0
   51.0560   26.8530   43.1130 H   0  0  0  0  0  0  0  0  0  0  0  0
   49.2350   26.7870   42.2480 O   0  0  0  0  0  0  0  0  0  0  0  0
  1  7  1  1  0  0  0
  1  2  1  0  0  0  0
  2  3  1  0  0  0  0
  2  9  1  0  0  0  0
  3 11  1  0  0  0  0
  4  3  1  0  0  0  0
  4 12  1  0  0  0  0
  4 13  1  0  0  0  0
  5  4  1  0  0  0  0
  6 16  1  1  0  0  0
  6  1  1  0  0  0  0
  6  5  1  0  0  0  0
  8  2  1  0  0  0  0
 10  3  1  0  0  0  0
 14  5  1  0  0  0  0
 15  5  1  0  0  0  0
 17 18  2  0  0  0  0
 17 21  1  0  0  0  0
 18 19  1  0  0  0  0
 19 23  1  0  0  0  0
 19 20  2  0  0  0  0
 20  1  1  0  0  0  0
 21 20  1  0  0  0  0
 22 18  1  0  0  0  0
 24 25  2  0  0  0  0
 24 29  1  0  0  0  0
 25 26  1  0  0  0  0
 26 32  1  0  0  0  0
 26 27  2  0  0  0  0
 28 27  1  0  0  0  0
 28 17  1  0  0  0  0
 29 28  2  0  0  0  0
 30 24  1  0  0  0  0
 31 25  1  0  0  0  0
 33  6  1  0  0  0  0
 34 33  1  0  0  0  0
 35 33  2  0  0  0  0
M  END
>  <minimizedAffinity>
-2.60602069

>  <minimizedRMSD>
6.10722494

$$$$
