REMARK  Name = 
REMARK  3 active torsions:
REMARK  status: ('A' for Active; 'I' for Inactive)
REMARK    1  A    between atoms: C_1  and  C_10
REMARK    2  A    between atoms: C_4  and  C_12
REMARK    3  A    between atoms: C_17  and  C_33
REMARK                            x       y       z     vdW  Elec       q    Type
REMARK                         _______ _______ _______ _____ _____    ______ ____
ROOT
ATOM      1  C   UNL     1      47.784  30.649  48.863  0.00  0.00    +0.000 C 
ATOM      2  C   UNL     1      48.170  29.497  48.002  0.00  0.00    +0.000 C 
ATOM      3  C   UNL     1      49.597  29.066  48.129  0.00  0.00    +0.000 C 
ATOM      4  C   UNL     1      50.079  29.030  49.561  0.00  0.00    +0.000 C 
ATOM      5  C   UNL     1      49.657  30.247  50.348  0.00  0.00    +0.000 C 
ATOM      6  C   UNL     1      49.085  31.301  49.390  0.00  0.00    +0.000 C 
ATOM      7  H   UNL     1      47.286  30.285  49.772  0.00  0.00    +0.000 HD
ATOM      8  H   UNL     1      48.029  29.794  46.926  0.00  0.00    +0.000 HD
ATOM      9  H   UNL     1      47.534  28.587  48.136  0.00  0.00    +0.000 HD
ATOM     10  H   UNL     1      50.241  29.818  47.607  0.00  0.00    +0.000 HD
ATOM     11  H   UNL     1      49.742  28.073  47.706  0.00  0.00    +0.000 HD
ATOM     12  H   UNL     1      51.182  28.931  49.506  0.00  0.00    +0.000 HD
ATOM     13  H   UNL     1      49.704  28.140  50.070  0.00  0.00    +0.000 HD
ATOM     14  H   UNL     1      48.838  30.002  51.040  0.00  0.00    +0.000 HD
ATOM     15  H   UNL     1      50.516  30.722  50.850  0.00  0.00    +0.000 HD
ATOM     16  H   UNL     1      49.775  31.551  48.584  0.00  0.00    +0.000 HD
ENDROOT
BRANCH   1  20
ATOM     17  C   UNL     1      45.799  33.224  46.361  0.00  0.00    +0.000 A 
ATOM     18  C   UNL     1      45.196  33.136  47.625  0.00  0.00    +0.000 A 
ATOM     19  C   UNL     1      45.766  32.321  48.533  0.00  0.00    +0.000 A 
ATOM     20  C   UNL     1      46.925  31.590  48.209  0.00  0.00    +0.000 A 
ATOM     21  S   UNL     1      47.239  32.093  46.483  0.00  0.00    +0.000 S 
ATOM     22  H   UNL     1      44.308  33.695  47.874  0.00  0.00    +0.000 HD
ATOM     23  H   UNL     1      45.455  32.122  49.547  0.00  0.00    +0.000 HD
BRANCH  17  28
ATOM     24  C   UNL     1      44.347  35.919  44.246  0.00  0.00    +0.000 A 
ATOM     25  C   UNL     1      44.502  35.346  42.974  0.00  0.00    +0.000 A 
ATOM     26  C   UNL     1      45.094  34.069  42.891  0.00  0.00    +0.000 A 
ATOM     27  N   UNL     1      45.482  33.464  44.055  0.00  0.00    +0.000 NA
ATOM     28  C   UNL     1      45.307  34.064  45.256  0.00  0.00    +0.000 A 
ATOM     29  N   UNL     1      44.739  35.293  45.351  0.00  0.00    +0.000 NA
ATOM     30  H   UNL     1      43.898  36.891  44.318  0.00  0.00    +0.000 HD
ATOM     31  H   UNL     1      44.182  35.862  42.094  0.00  0.00    +0.000 HD
ATOM     32  H   UNL     1      45.235  33.588  41.949  0.00  0.00    +0.000 HD
ENDBRANCH  17  28
ENDBRANCH   1  20
BRANCH   6  33
ATOM     33  C   UNL     1      48.677  32.480  50.206  0.00  0.00    +0.000 C 
ATOM     34  H   UNL     1      48.039  32.266  51.070  0.00  0.00    +0.000 HD
ATOM     35  O   UNL     1      49.018  33.632  49.955  0.00  0.00    +0.000 OA
ENDBRANCH   6  33
TORSDOF 3
