
 OpenBabel03252505363D

 27 28  0  0  0  0  0  0  0  0999 V2000
   47.0390   34.4950   42.2330 C   0  0  0  0  0  0  0  0  0  0  0  0
   48.1520   35.3320   42.1170 C   0  0  0  0  0  0  0  0  0  0  0  0
   48.8230   35.4990   40.8980 C   0  0  0  0  0  0  0  0  0  0  0  0
   48.3890   34.8320   39.7770 C   0  0  0  0  0  0  0  0  0  0  0  0
   47.2960   34.0150   39.9020 C   0  0  0  0  0  0  0  0  0  0  0  0
   46.6270   33.8430   41.1030 C   0  0  0  0  0  0  0  0  0  0  0  0
   48.5220   35.8730   42.9810 H   0  0  0  0  0  0  0  0  0  0  0  0
   49.6770   36.1360   40.7930 H   0  0  0  0  0  0  0  0  0  0  0  0
   48.8190   34.8780   38.7850 H   0  0  0  0  0  0  0  0  0  0  0  0
   46.8960   33.4580   39.0640 H   0  0  0  0  0  0  0  0  0  0  0  0
   44.8690   34.9610   45.2470 C   0  0  0  0  0  0  0  0  0  0  0  0
   45.3860   35.1880   43.9390 C   0  0  0  0  0  0  0  0  0  0  0  0
   46.4240   34.3850   43.5210 C   0  0  0  0  0  0  0  0  0  0  0  0
   46.9090   33.4260   44.3610 N   0  0  0  0  0  0  0  0  0  0  0  0
   46.3740   33.2540   45.6070 C   0  0  0  0  0  0  0  0  0  0  0  0
   45.3590   34.0200   46.0410 N   0  0  0  0  0  0  0  0  0  0  0  0
   46.9050   32.2570   46.4810 N   0  0  0  0  0  0  0  0  0  0  0  0
   44.0510   35.5970   45.5640 H   0  0  0  0  0  0  0  0  0  0  0  0
   47.0650   32.3750   47.5200 H   0  0  0  0  0  0  0  0  0  0  0  0
   47.2140   31.2730   46.2350 H   0  0  0  0  0  0  0  0  0  0  0  0
   44.8450   36.2560   43.1290 C   0  0  0  0  0  0  0  0  0  0  0  0
   44.1200   35.9860   42.3730 H   0  0  0  0  0  0  0  0  0  0  0  0
   45.2230   37.4350   43.3230 O   0  0  0  0  0  0  0  0  0  0  0  0
   45.4550   32.9460   41.2020 C   0  0  0  0  0  0  0  0  0  0  0  0
   45.4090   32.1610   40.0560 F   0  0  0  0  0  0  0  0  0  0  0  0
   44.3030   33.7000   41.3070 F   0  0  0  0  0  0  0  0  0  0  0  0
   45.4790   32.1210   42.3000 F   0  0  0  0  0  0  0  0  0  0  0  0
  1 13  1  0  0  0  0
  2  1  1  0  0  0  0
  2  7  1  0  0  0  0
  3  2  2  0  0  0  0
  4  5  2  0  0  0  0
  4  3  1  0  0  0  0
  5  6  1  0  0  0  0
  6 24  1  0  0  0  0
  6  1  2  0  0  0  0
  8  3  1  0  0  0  0
  9  4  1  0  0  0  0
 10  5  1  0  0  0  0
 11 18  1  0  0  0  0
 11 16  1  0  0  0  0
 12 11  2  0  0  0  0
 13 12  1  0  0  0  0
 13 14  2  0  0  0  0
 14 15  1  0  0  0  0
 15 16  2  0  0  0  0
 15 17  1  0  0  0  0
 17 19  1  0  0  0  0
 20 17  1  0  0  0  0
 21 23  2  0  0  0  0
 21 12  1  0  0  0  0
 22 21  1  0  0  0  0
 24 26  1  0  0  0  0
 24 27  1  0  0  0  0
 25 24  1  0  0  0  0
M  END
>  <minimizedAffinity>
-5.37408781

>  <minimizedRMSD>
1.14722407

$$$$
