
 OpenBabel03252507403D

 13 13  0  0  0  0  0  0  0  0999 V2000
   45.5850   34.1060   45.2980 C   0  0  0  0  0  0  0  0  0  0  0  0
   46.2650   33.9900   44.0830 C   0  0  0  0  0  0  0  0  0  0  0  0
   46.0440   34.9510   43.1020 C   0  0  0  0  0  0  0  0  0  0  0  0
   45.1730   35.9550   43.3820 N   0  0  0  0  0  0  0  0  0  0  0  0
   44.5340   36.0320   44.5700 C   0  0  0  0  0  0  0  0  0  0  0  0
   44.7270   35.1160   45.5430 N   0  0  0  0  0  0  0  0  0  0  0  0
   46.5770   34.8490   42.1690 H   0  0  0  0  0  0  0  0  0  0  0  0
   43.8600   36.8790   44.6810 H   0  0  0  0  0  0  0  0  0  0  0  0
   45.8330   33.0940   46.3000 C   0  0  0  0  0  0  0  0  0  0  0  0
   46.5570   32.3160   46.2180 H   0  0  0  0  0  0  0  0  0  0  0  0
   45.2010   33.0350   47.3840 O   0  0  0  0  0  0  0  0  0  0  0  0
   47.4060   32.6240   43.7940 S   0  0  0  0  0  0  0  0  0  0  0  0
   46.5530   31.5570   43.3800 H   0  0  0  0  0  0  0  0  0  0  0  0
  1  6  1  0  0  0  0
  1  9  1  0  0  0  0
  2  1  2  0  0  0  0
  3  4  2  0  0  0  0
  3  2  1  0  0  0  0
  4  5  1  0  0  0  0
  5  8  1  0  0  0  0
  5  6  2  0  0  0  0
  7  3  1  0  0  0  0
  9 11  2  0  0  0  0
 10  9  1  0  0  0  0
 12  2  1  0  0  0  0
 13 12  1  0  0  0  0
M  END
>  <minimizedAffinity>
-3.3170054

>  <minimizedRMSD>
3.65867019

$$$$
