
 OpenBabel03252508373D

 35 37  0  0  0  0  0  0  0  0999 V2000
   45.1380   33.9470   40.6990 C   0  0  0  0  0  0  0  0  0  0  0  0
   44.0860   33.6370   39.8770 C   0  0  0  0  0  0  0  0  0  0  0  0
   44.3890   33.1510   38.6400 C   0  0  0  0  0  0  0  0  0  0  0  0
   45.6680   32.9600   38.1880 C   0  0  0  0  0  0  0  0  0  0  0  0
   46.7050   33.2770   39.0270 C   0  0  0  0  0  0  0  0  0  0  0  0
   46.4560   33.7750   40.2960 C   0  0  0  0  0  0  0  0  0  0  0  0
   43.5720   32.9010   37.9770 H   0  0  0  0  0  0  0  0  0  0  0  0
   45.8470   32.5650   37.1800 H   0  0  0  0  0  0  0  0  0  0  0  0
   47.7220   33.1270   38.6760 H   0  0  0  0  0  0  0  0  0  0  0  0
   40.8040   35.2700   40.7900 C   0  0  0  0  0  0  0  0  0  0  0  0
   42.0990   35.0930   40.2740 C   0  0  0  0  0  0  0  0  0  0  0  0
   42.7500   33.8550   40.3970 C   0  0  0  0  0  0  0  0  0  0  0  0
   42.0460   32.8940   41.0300 N   0  0  0  0  0  0  0  0  0  0  0  0
   40.8190   33.0700   41.5150 C   0  0  0  0  0  0  0  0  0  0  0  0
   40.1980   34.2620   41.3950 N   0  0  0  0  0  0  0  0  0  0  0  0
   40.2000   36.5270   40.6400 N   0  0  0  0  0  0  0  0  0  0  0  0
   42.5930   35.9170   39.7810 H   0  0  0  0  0  0  0  0  0  0  0  0
   40.3870   32.2020   41.9970 H   0  0  0  0  0  0  0  0  0  0  0  0
   40.3700   37.2340   41.4100 H   0  0  0  0  0  0  0  0  0  0  0  0
   39.5960   36.7880   39.8100 H   0  0  0  0  0  0  0  0  0  0  0  0
   47.6160   34.0830   41.1200 C   0  0  0  0  0  0  0  0  0  0  0  0
   48.1430   35.3550   40.9480 C   0  0  0  0  0  0  0  0  0  0  0  0
   49.2530   35.8120   41.6590 C   0  0  0  0  0  0  0  0  0  0  0  0
   49.8410   34.9480   42.5680 C   0  0  0  0  0  0  0  0  0  0  0  0
   49.3240   33.6890   42.7410 C   0  0  0  0  0  0  0  0  0  0  0  0
   48.2280   33.2590   42.0280 C   0  0  0  0  0  0  0  0  0  0  0  0
   47.7180   36.0640   40.2500 H   0  0  0  0  0  0  0  0  0  0  0  0
   49.6310   36.8110   41.4920 H   0  0  0  0  0  0  0  0  0  0  0  0
   50.6970   35.2740   43.1280 H   0  0  0  0  0  0  0  0  0  0  0  0
   49.7900   33.0210   43.4530 H   0  0  0  0  0  0  0  0  0  0  0  0
   47.6610   31.9420   42.1890 C   0  0  0  0  0  0  0  0  0  0  0  0
   46.9700   31.5790   41.4400 H   0  0  0  0  0  0  0  0  0  0  0  0
   47.9680   31.2410   43.1750 O   0  0  0  0  0  0  0  0  0  0  0  0
   44.7390   34.8800   43.1120 N   0  0  0  0  0  0  0  0  0  0  0  0
   44.9100   34.4680   42.0270 C   0  0  0  0  0  0  0  0  0  0  0  0
  1 35  1  0  0  0  0
  2 12  1  0  0  0  0
  2  1  2  0  0  0  0
  3  2  1  0  0  0  0
  4  3  2  0  0  0  0
  4  5  1  0  0  0  0
  5  6  2  0  0  0  0
  6  1  1  0  0  0  0
  6 21  1  0  0  0  0
  7  3  1  0  0  0  0
  8  4  1  0  0  0  0
  9  5  1  0  0  0  0
 10 15  1  0  0  0  0
 11 12  1  0  0  0  0
 11 10  2  0  0  0  0
 12 13  2  0  0  0  0
 13 14  1  0  0  0  0
 14 18  1  0  0  0  0
 15 14  2  0  0  0  0
 16 10  1  0  0  0  0
 16 19  1  0  0  0  0
 17 11  1  0  0  0  0
 20 16  1  0  0  0  0
 21 26  1  0  0  0  0
 22 21  2  0  0  0  0
 22 23  1  0  0  0  0
 23 24  2  0  0  0  0
 24 25  1  0  0  0  0
 24 29  1  0  0  0  0
 25 30  1  0  0  0  0
 26 31  1  0  0  0  0
 26 25  2  0  0  0  0
 27 22  1  0  0  0  0
 28 23  1  0  0  0  0
 31 33  2  0  0  0  0
 32 31  1  0  0  0  0
 35 34  3  0  0  0  0
M  END
>  <minimizedAffinity>
-5.75854015

>  <minimizedRMSD>
0.0168376323

$$$$
