
 OpenBabel03252505263D

 37 39  0  0  1  0  0  0  0  0999 V2000
   39.4190   30.1220   41.3300 F   0  0  0  0  0  0  0  0  0  0  0  0
   38.3020   30.0680   40.5310 C   0  0  0  0  0  0  0  0  0  0  0  0
   38.1350   31.0540   39.6010 C   0  0  0  0  0  0  0  0  0  0  0  0
   37.0140   30.9940   38.8030 C   0  0  0  0  0  0  0  0  0  0  0  0
   36.1140   29.9570   38.9690 C   0  0  0  0  0  0  0  0  0  0  0  0
   36.2900   28.9730   39.9040 C   0  0  0  0  0  0  0  0  0  0  0  0
   37.4350   29.0430   40.7120 C   0  0  0  0  0  0  0  0  0  0  0  0
   36.8160   31.7420   38.0430 H   0  0  0  0  0  0  0  0  0  0  0  0
   35.2210   29.8880   38.3510 H   0  0  0  0  0  0  0  0  0  0  0  0
   35.5750   28.1680   40.0200 H   0  0  0  0  0  0  0  0  0  0  0  0
   37.5690   27.9980   41.6660 N   0  0  0  0  0  0  0  0  0  0  0  0
   37.8200   26.5940   41.4950 C   0  0  0  0  0  0  0  0  0  0  0  0
   38.9500   26.3280   42.5010 C   0  0  0  0  0  0  0  0  0  0  0  0
   38.8350   27.4580   43.4800 C   0  0  0  0  0  0  0  0  0  0  0  0
   37.4880   28.0450   43.1130 C   0  0  2  0  0  0  0  0  0  0  0  0
   38.2660   26.4450   40.4820 H   0  0  0  0  0  0  0  0  0  0  0  0
   36.9440   25.9460   41.6840 H   0  0  0  0  0  0  0  0  0  0  0  0
   39.9270   26.2500   42.0060 H   0  0  0  0  0  0  0  0  0  0  0  0
   38.6650   25.3990   43.0590 H   0  0  0  0  0  0  0  0  0  0  0  0
   38.9050   27.1510   44.5420 H   0  0  0  0  0  0  0  0  0  0  0  0
   39.5980   28.2340   43.2960 H   0  0  0  0  0  0  0  0  0  0  0  0
   37.4860   29.1040   43.4550 H   0  0  0  0  0  0  0  0  0  0  0  0
   36.3170   27.3200   43.6790 C   0  0  0  0  0  0  0  0  0  0  0  0
   35.4320   27.5060   43.0630 H   0  0  0  0  0  0  0  0  0  0  0  0
   36.4830   26.2330   43.7740 H   0  0  0  0  0  0  0  0  0  0  0  0
   36.1060   27.7450   44.6870 H   0  0  0  0  0  0  0  0  0  0  0  0
   39.9800   34.1600   40.1720 C   0  0  0  0  0  0  0  0  0  0  0  0
   40.9710   34.1450   39.1820 C   0  0  0  0  0  0  0  0  0  0  0  0
   40.9600   33.0370   38.3410 C   0  0  0  0  0  0  0  0  0  0  0  0
   40.0250   32.0720   38.5210 N   0  0  0  0  0  0  0  0  0  0  0  0
   39.1070   32.1220   39.4630 C   0  0  0  0  0  0  0  0  0  0  0  0
   39.0670   33.1650   40.3060 N   0  0  0  0  0  0  0  0  0  0  0  0
   39.9430   35.0110   40.8640 H   0  0  0  0  0  0  0  0  0  0  0  0
   41.6980   34.9130   39.0580 H   0  0  0  0  0  0  0  0  0  0  0  0
   41.9530   32.9280   37.2790 C   0  0  0  0  0  0  0  0  0  0  0  0
   42.3770   33.8310   36.8630 H   0  0  0  0  0  0  0  0  0  0  0  0
   42.3060   31.8010   36.8600 O   0  0  0  0  0  0  0  0  0  0  0  0
  2  7  1  0  0  0  0
  2  1  1  0  0  0  0
  3  2  2  0  0  0  0
  4  5  2  0  0  0  0
  4  3  1  0  0  0  0
  5  6  1  0  0  0  0
  6 10  1  0  0  0  0
  6  7  2  0  0  0  0
  7 11  1  0  0  0  0
  8  4  1  0  0  0  0
  9  5  1  0  0  0  0
 11 15  1  0  0  0  0
 12 11  1  0  0  0  0
 12 17  1  0  0  0  0
 12 13  1  0  0  0  0
 13 19  1  0  0  0  0
 13 14  1  0  0  0  0
 14 20  1  0  0  0  0
 15 22  1  1  0  0  0
 15 14  1  0  0  0  0
 15 23  1  0  0  0  0
 16 12  1  0  0  0  0
 18 13  1  0  0  0  0
 21 14  1  0  0  0  0
 23 25  1  0  0  0  0
 23 26  1  0  0  0  0
 24 23  1  0  0  0  0
 27 32  1  0  0  0  0
 27 33  1  0  0  0  0
 28 27  2  0  0  0  0
 29 30  2  0  0  0  0
 29 28  1  0  0  0  0
 30 31  1  0  0  0  0
 31  3  1  0  0  0  0
 31 32  2  0  0  0  0
 34 28  1  0  0  0  0
 35 29  1  0  0  0  0
 36 35  1  0  0  0  0
 37 35  2  0  0  0  0
M  END
>  <minimizedAffinity>
-5.32632971

$$$$

 OpenBabel03252505263D

 37 39  0  0  1  0  0  0  0  0999 V2000
   38.8270   28.0660   40.0530 F   0  0  0  0  0  0  0  0  0  0  0  0
   38.2150   27.9680   41.2790 C   0  0  0  0  0  0  0  0  0  0  0  0
   38.2420   29.0650   42.0940 C   0  0  0  0  0  0  0  0  0  0  0  0
   37.6260   28.9620   43.3220 C   0  0  0  0  0  0  0  0  0  0  0  0
   37.0150   27.7730   43.6800 C   0  0  0  0  0  0  0  0  0  0  0  0
   36.9940   26.6800   42.8570 C   0  0  0  0  0  0  0  0  0  0  0  0
   37.6230   26.7950   41.6090 C   0  0  0  0  0  0  0  0  0  0  0  0
   37.6070   29.7910   44.0200 H   0  0  0  0  0  0  0  0  0  0  0  0
   36.5230   27.6670   44.6440 H   0  0  0  0  0  0  0  0  0  0  0  0
   36.5110   25.7570   43.1540 H   0  0  0  0  0  0  0  0  0  0  0  0
   37.5720   25.6310   40.7940 N   0  0  0  0  0  0  0  0  0  0  0  0
   38.4820   24.5260   40.6730 C   0  0  0  0  0  0  0  0  0  0  0  0
   37.5500   23.3100   40.7650 C   0  0  0  0  0  0  0  0  0  0  0  0
   36.2050   23.8560   40.3900 C   0  0  0  0  0  0  0  0  0  0  0  0
   36.5710   25.2150   39.8310 C   0  0  2  0  0  0  0  0  0  0  0  0
   39.1160   24.5010   41.5930 H   0  0  0  0  0  0  0  0  0  0  0  0
   39.0720   24.5210   39.7380 H   0  0  0  0  0  0  0  0  0  0  0  0
   37.5910   22.8370   41.7550 H   0  0  0  0  0  0  0  0  0  0  0  0
   37.8500   22.6180   39.9360 H   0  0  0  0  0  0  0  0  0  0  0  0
   35.6390   23.2260   39.6760 H   0  0  0  0  0  0  0  0  0  0  0  0
   35.5710   24.0210   41.2790 H   0  0  0  0  0  0  0  0  0  0  0  0
   35.6710   25.8620   39.9210 H   0  0  0  0  0  0  0  0  0  0  0  0
   37.0550   25.1990   38.4220 C   0  0  0  0  0  0  0  0  0  0  0  0
   37.6800   26.0770   38.2350 H   0  0  0  0  0  0  0  0  0  0  0  0
   37.6130   24.2820   38.1640 H   0  0  0  0  0  0  0  0  0  0  0  0
   36.1670   25.2850   37.7550 H   0  0  0  0  0  0  0  0  0  0  0  0
   40.8080   31.6050   41.5160 C   0  0  0  0  0  0  0  0  0  0  0  0
   40.1170   32.6340   40.8630 C   0  0  0  0  0  0  0  0  0  0  0  0
   38.7630   32.4010   40.6460 C   0  0  0  0  0  0  0  0  0  0  0  0
   38.2110   31.2350   41.0620 N   0  0  0  0  0  0  0  0  0  0  0  0
   38.8950   30.2910   41.6740 C   0  0  0  0  0  0  0  0  0  0  0  0
   40.2040   30.4570   41.9120 N   0  0  0  0  0  0  0  0  0  0  0  0
   41.8810   31.7360   41.7130 H   0  0  0  0  0  0  0  0  0  0  0  0
   40.5700   33.5430   40.5430 H   0  0  0  0  0  0  0  0  0  0  0  0
   37.9560   33.4130   39.9730 C   0  0  0  0  0  0  0  0  0  0  0  0
   38.1470   34.4560   40.1770 H   0  0  0  0  0  0  0  0  0  0  0  0
   37.0570   33.0700   39.1710 O   0  0  0  0  0  0  0  0  0  0  0  0
  1  2  1  0  0  0  0
  2  7  2  0  0  0  0
  2  3  1  0  0  0  0
  3  4  2  0  0  0  0
  4  5  1  0  0  0  0
  4  8  1  0  0  0  0
  5  9  1  0  0  0  0
  6 10  1  0  0  0  0
  6  5  2  0  0  0  0
  7  6  1  0  0  0  0
 11  7  1  0  0  0  0
 12 13  1  0  0  0  0
 12 11  1  0  0  0  0
 12 16  1  0  0  0  0
 13 18  1  0  0  0  0
 14 13  1  0  0  0  0
 14 21  1  0  0  0  0
 15 22  1  1  0  0  0
 15 14  1  0  0  0  0
 15 11  1  0  0  0  0
 17 12  1  0  0  0  0
 19 13  1  0  0  0  0
 20 14  1  0  0  0  0
 23 15  1  0  0  0  0
 24 23  1  0  0  0  0
 25 23  1  0  0  0  0
 26 23  1  0  0  0  0
 27 33  1  0  0  0  0
 27 32  1  0  0  0  0
 28 27  2  0  0  0  0
 29 28  1  0  0  0  0
 29 30  2  0  0  0  0
 30 31  1  0  0  0  0
 31 32  2  0  0  0  0
 31  3  1  0  0  0  0
 34 28  1  0  0  0  0
 35 36  1  0  0  0  0
 35 29  1  0  0  0  0
 37 35  2  0  0  0  0
M  END
>  <minimizedAffinity>
-5.2995739

$$$$

 OpenBabel03252505263D

 37 39  0  0  1  0  0  0  0  0999 V2000
   40.2200   30.2700   41.5340 F   0  0  0  0  0  0  0  0  0  0  0  0
   38.9830   30.7190   41.1360 C   0  0  0  0  0  0  0  0  0  0  0  0
   38.9330   31.8390   40.3550 C   0  0  0  0  0  0  0  0  0  0  0  0
   37.6920   32.2850   39.9590 C   0  0  0  0  0  0  0  0  0  0  0  0
   36.5610   31.5960   40.3600 C   0  0  0  0  0  0  0  0  0  0  0  0
   36.6210   30.4760   41.1430 C   0  0  0  0  0  0  0  0  0  0  0  0
   37.8900   30.0300   41.5410 C   0  0  0  0  0  0  0  0  0  0  0  0
   37.5750   33.1660   39.3380 H   0  0  0  0  0  0  0  0  0  0  0  0
   35.5690   31.9290   40.0600 H   0  0  0  0  0  0  0  0  0  0  0  0
   35.7250   29.9490   41.4480 H   0  0  0  0  0  0  0  0  0  0  0  0
   37.8960   28.8630   42.3530 N   0  0  0  0  0  0  0  0  0  0  0  0
   37.3780   28.6320   43.6730 C   0  0  0  0  0  0  0  0  0  0  0  0
   36.5970   27.3200   43.5040 C   0  0  0  0  0  0  0  0  0  0  0  0
   37.1990   26.6970   42.2800 C   0  0  0  0  0  0  0  0  0  0  0  0
   38.4370   27.5450   42.0820 C   0  0  2  0  0  0  0  0  0  0  0  0
   36.6160   29.4210   43.8850 H   0  0  0  0  0  0  0  0  0  0  0  0
   38.1500   28.5500   44.4590 H   0  0  0  0  0  0  0  0  0  0  0  0
   35.5140   27.4940   43.4430 H   0  0  0  0  0  0  0  0  0  0  0  0
   36.8880   26.6660   44.3660 H   0  0  0  0  0  0  0  0  0  0  0  0
   37.4190   25.6160   42.3810 H   0  0  0  0  0  0  0  0  0  0  0  0
   36.5540   26.8340   41.3960 H   0  0  0  0  0  0  0  0  0  0  0  0
   38.7200   27.4690   41.0090 H   0  0  0  0  0  0  0  0  0  0  0  0
   39.5920   27.1740   42.9460 C   0  0  0  0  0  0  0  0  0  0  0  0
   40.2540   28.0370   43.0700 H   0  0  0  0  0  0  0  0  0  0  0  0
   39.2890   26.7920   43.9360 H   0  0  0  0  0  0  0  0  0  0  0  0
   40.1780   26.3890   42.4160 H   0  0  0  0  0  0  0  0  0  0  0  0
   41.7850   34.1290   40.3710 C   0  0  0  0  0  0  0  0  0  0  0  0
   42.4630   33.8240   39.1830 C   0  0  0  0  0  0  0  0  0  0  0  0
   41.8930   32.8180   38.4110 C   0  0  0  0  0  0  0  0  0  0  0  0
   40.7570   32.2130   38.8350 N   0  0  0  0  0  0  0  0  0  0  0  0
   40.1470   32.5280   39.9590 C   0  0  0  0  0  0  0  0  0  0  0  0
   40.6490   33.4900   40.7470 N   0  0  0  0  0  0  0  0  0  0  0  0
   42.1910   34.9150   41.0210 H   0  0  0  0  0  0  0  0  0  0  0  0
   43.3550   34.3120   38.8680 H   0  0  0  0  0  0  0  0  0  0  0  0
   42.5250   32.4270   37.1560 C   0  0  0  0  0  0  0  0  0  0  0  0
   43.1570   33.1380   36.6440 H   0  0  0  0  0  0  0  0  0  0  0  0
   42.3350   31.2810   36.6850 O   0  0  0  0  0  0  0  0  0  0  0  0
  2  1  1  0  0  0  0
  2  7  1  0  0  0  0
  3  2  2  0  0  0  0
  4  3  1  0  0  0  0
  4  5  2  0  0  0  0
  5  6  1  0  0  0  0
  6 10  1  0  0  0  0
  6  7  2  0  0  0  0
  7 11  1  0  0  0  0
  8  4  1  0  0  0  0
  9  5  1  0  0  0  0
 11 12  1  0  0  0  0
 12 16  1  0  0  0  0
 12 17  1  0  0  0  0
 13 12  1  0  0  0  0
 13 19  1  0  0  0  0
 14 20  1  0  0  0  0
 14 13  1  0  0  0  0
 15 22  1  6  0  0  0
 15 14  1  0  0  0  0
 15 11  1  0  0  0  0
 15 23  1  0  0  0  0
 18 13  1  0  0  0  0
 21 14  1  0  0  0  0
 23 24  1  0  0  0  0
 23 25  1  0  0  0  0
 26 23  1  0  0  0  0
 27 32  1  0  0  0  0
 27 33  1  0  0  0  0
 28 27  2  0  0  0  0
 29 30  2  0  0  0  0
 29 28  1  0  0  0  0
 30 31  1  0  0  0  0
 31  3  1  0  0  0  0
 31 32  2  0  0  0  0
 34 28  1  0  0  0  0
 35 29  1  0  0  0  0
 36 35  1  0  0  0  0
 37 35  2  0  0  0  0
M  END
>  <minimizedAffinity>
-5.29956007

$$$$

 OpenBabel03252505263D

 37 39  0  0  1  0  0  0  0  0999 V2000
   40.2970   30.1980   41.1690 F   0  0  0  0  0  0  0  0  0  0  0  0
   39.0440   30.6730   40.8640 C   0  0  0  0  0  0  0  0  0  0  0  0
   38.9570   31.7750   40.0620 C   0  0  0  0  0  0  0  0  0  0  0  0
   37.6990   32.2460   39.7600 C   0  0  0  0  0  0  0  0  0  0  0  0
   36.5890   31.6000   40.2720 C   0  0  0  0  0  0  0  0  0  0  0  0
   36.6850   30.4970   41.0760 C   0  0  0  0  0  0  0  0  0  0  0  0
   37.9710   30.0240   41.3770 C   0  0  0  0  0  0  0  0  0  0  0  0
   37.5540   33.1160   39.1290 H   0  0  0  0  0  0  0  0  0  0  0  0
   35.5840   31.9540   40.0480 H   0  0  0  0  0  0  0  0  0  0  0  0
   35.8050   30.0030   41.4680 H   0  0  0  0  0  0  0  0  0  0  0  0
   38.0150   28.8770   42.2160 N   0  0  0  0  0  0  0  0  0  0  0  0
   37.5690   28.6810   43.5670 C   0  0  0  0  0  0  0  0  0  0  0  0
   36.7720   27.3720   43.4730 C   0  0  0  0  0  0  0  0  0  0  0  0
   37.3010   26.7150   42.2340 C   0  0  0  0  0  0  0  0  0  0  0  0
   38.5320   27.5490   41.9470 C   0  0  2  0  0  0  0  0  0  0  0  0
   36.8250   29.4810   43.8030 H   0  0  0  0  0  0  0  0  0  0  0  0
   38.3840   28.6120   44.3110 H   0  0  0  0  0  0  0  0  0  0  0  0
   35.6890   27.5520   43.4680 H   0  0  0  0  0  0  0  0  0  0  0  0
   37.1060   26.7360   44.3340 H   0  0  0  0  0  0  0  0  0  0  0  0
   37.5200   25.6350   42.3480 H   0  0  0  0  0  0  0  0  0  0  0  0
   36.6090   26.8360   41.3830 H   0  0  0  0  0  0  0  0  0  0  0  0
   38.7540   27.4450   40.8620 H   0  0  0  0  0  0  0  0  0  0  0  0
   39.7300   27.1900   42.7550 C   0  0  0  0  0  0  0  0  0  0  0  0
   40.4040   28.0510   42.8210 H   0  0  0  0  0  0  0  0  0  0  0  0
   39.4800   26.8330   43.7680 H   0  0  0  0  0  0  0  0  0  0  0  0
   40.2810   26.3880   42.2110 H   0  0  0  0  0  0  0  0  0  0  0  0
   41.4770   33.0730   37.7500 C   0  0  0  0  0  0  0  0  0  0  0  0
   42.4340   33.6530   38.5920 C   0  0  0  0  0  0  0  0  0  0  0  0
   42.1620   33.5690   39.9540 C   0  0  0  0  0  0  0  0  0  0  0  0
   41.0290   32.9540   40.3710 N   0  0  0  0  0  0  0  0  0  0  0  0
   40.1520   32.4190   39.5470 C   0  0  0  0  0  0  0  0  0  0  0  0
   40.3580   32.4690   38.2230 N   0  0  0  0  0  0  0  0  0  0  0  0
   41.6400   33.1110   36.6650 H   0  0  0  0  0  0  0  0  0  0  0  0
   43.3180   34.1320   38.2440 H   0  0  0  0  0  0  0  0  0  0  0  0
   43.0990   34.1430   40.9130 C   0  0  0  0  0  0  0  0  0  0  0  0
   43.7390   34.9550   40.5980 H   0  0  0  0  0  0  0  0  0  0  0  0
   43.1530   33.6990   42.0830 O   0  0  0  0  0  0  0  0  0  0  0  0
  2  1  1  0  0  0  0
  2  7  1  0  0  0  0
  3  2  2  0  0  0  0
  4  3  1  0  0  0  0
  4  5  2  0  0  0  0
  5  6  1  0  0  0  0
  6  7  2  0  0  0  0
  6 10  1  0  0  0  0
  7 11  1  0  0  0  0
  8  4  1  0  0  0  0
  9  5  1  0  0  0  0
 11 12  1  0  0  0  0
 12 16  1  0  0  0  0
 12 17  1  0  0  0  0
 13 12  1  0  0  0  0
 13 19  1  0  0  0  0
 14 20  1  0  0  0  0
 14 13  1  0  0  0  0
 15 22  1  6  0  0  0
 15 11  1  0  0  0  0
 15 14  1  0  0  0  0
 15 23  1  0  0  0  0
 18 13  1  0  0  0  0
 21 14  1  0  0  0  0
 23 24  1  0  0  0  0
 23 25  1  0  0  0  0
 26 23  1  0  0  0  0
 27 32  2  0  0  0  0
 27 28  1  0  0  0  0
 28 29  2  0  0  0  0
 29 30  1  0  0  0  0
 29 35  1  0  0  0  0
 31  3  1  0  0  0  0
 31 30  2  0  0  0  0
 32 31  1  0  0  0  0
 33 27  1  0  0  0  0
 34 28  1  0  0  0  0
 35 37  2  0  0  0  0
 36 35  1  0  0  0  0
M  END
>  <minimizedAffinity>
-5.29044819

$$$$

 OpenBabel03252505263D

 37 39  0  0  1  0  0  0  0  0999 V2000
   38.0520   28.3550   39.6730 F   0  0  0  0  0  0  0  0  0  0  0  0
   37.8630   28.2230   41.0280 C   0  0  0  0  0  0  0  0  0  0  0  0
   37.8900   29.3570   41.7890 C   0  0  0  0  0  0  0  0  0  0  0  0
   37.7000   29.2180   43.1460 C   0  0  0  0  0  0  0  0  0  0  0  0
   37.4930   27.9590   43.6800 C   0  0  0  0  0  0  0  0  0  0  0  0
   37.4680   26.8280   42.9100 C   0  0  0  0  0  0  0  0  0  0  0  0
   37.6630   26.9800   41.5290 C   0  0  0  0  0  0  0  0  0  0  0  0
   37.7080   30.0740   43.8120 H   0  0  0  0  0  0  0  0  0  0  0  0
   37.3410   27.8240   44.7490 H   0  0  0  0  0  0  0  0  0  0  0  0
   37.3050   25.8500   43.3440 H   0  0  0  0  0  0  0  0  0  0  0  0
   37.6280   25.7750   40.7750 N   0  0  0  0  0  0  0  0  0  0  0  0
   38.5860   24.7110   40.6550 C   0  0  0  0  0  0  0  0  0  0  0  0
   37.7250   23.4560   40.8600 C   0  0  0  0  0  0  0  0  0  0  0  0
   36.3350   23.9160   40.5370 C   0  0  0  0  0  0  0  0  0  0  0  0
   36.5990   25.2610   39.8930 C   0  0  2  0  0  0  0  0  0  0  0  0
   39.2700   24.7640   41.5370 H   0  0  0  0  0  0  0  0  0  0  0  0
   39.1230   24.6870   39.6890 H   0  0  0  0  0  0  0  0  0  0  0  0
   37.8450   23.0380   41.8670 H   0  0  0  0  0  0  0  0  0  0  0  0
   38.0150   22.7390   40.0490 H   0  0  0  0  0  0  0  0  0  0  0  0
   35.7640   23.2230   39.8880 H   0  0  0  0  0  0  0  0  0  0  0  0
   35.7430   24.0940   41.4510 H   0  0  0  0  0  0  0  0  0  0  0  0
   35.6720   25.8670   40.0030 H   0  0  0  0  0  0  0  0  0  0  0  0
   37.0040   25.1970   38.4610 C   0  0  0  0  0  0  0  0  0  0  0  0
   37.5720   26.0950   38.1960 H   0  0  0  0  0  0  0  0  0  0  0  0
   37.5940   24.2970   38.2160 H   0  0  0  0  0  0  0  0  0  0  0  0
   36.0770   25.2050   37.8420 H   0  0  0  0  0  0  0  0  0  0  0  0
   37.2990   32.5100   40.0330 C   0  0  0  0  0  0  0  0  0  0  0  0
   38.5540   33.1330   40.0370 C   0  0  0  0  0  0  0  0  0  0  0  0
   39.5730   32.4220   40.6610 C   0  0  0  0  0  0  0  0  0  0  0  0
   39.3040   31.2120   41.2080 N   0  0  0  0  0  0  0  0  0  0  0  0
   38.1100   30.6570   41.1830 C   0  0  0  0  0  0  0  0  0  0  0  0
   37.0860   31.2940   40.5970 N   0  0  0  0  0  0  0  0  0  0  0  0
   36.4570   33.0270   39.5540 H   0  0  0  0  0  0  0  0  0  0  0  0
   38.7440   34.0860   39.6010 H   0  0  0  0  0  0  0  0  0  0  0  0
   40.9160   32.9870   40.7180 C   0  0  0  0  0  0  0  0  0  0  0  0
   41.7240   32.3800   41.1010 H   0  0  0  0  0  0  0  0  0  0  0  0
   41.1240   34.1590   40.3250 O   0  0  0  0  0  0  0  0  0  0  0  0
  1  2  1  0  0  0  0
  2  7  2  0  0  0  0
  2  3  1  0  0  0  0
  3  4  2  0  0  0  0
  4  5  1  0  0  0  0
  4  8  1  0  0  0  0
  5  9  1  0  0  0  0
  6 10  1  0  0  0  0
  6  5  2  0  0  0  0
  7  6  1  0  0  0  0
 11  7  1  0  0  0  0
 12 11  1  0  0  0  0
 12 13  1  0  0  0  0
 12 16  1  0  0  0  0
 13 18  1  0  0  0  0
 14 13  1  0  0  0  0
 14 21  1  0  0  0  0
 15 22  1  1  0  0  0
 15 14  1  0  0  0  0
 15 11  1  0  0  0  0
 17 12  1  0  0  0  0
 19 13  1  0  0  0  0
 20 14  1  0  0  0  0
 23 15  1  0  0  0  0
 24 23  1  0  0  0  0
 25 23  1  0  0  0  0
 26 23  1  0  0  0  0
 27 28  2  0  0  0  0
 27 32  1  0  0  0  0
 28 29  1  0  0  0  0
 29 35  1  0  0  0  0
 29 30  2  0  0  0  0
 31 30  1  0  0  0  0
 31  3  1  0  0  0  0
 32 31  2  0  0  0  0
 33 27  1  0  0  0  0
 34 28  1  0  0  0  0
 35 36  1  0  0  0  0
 37 35  2  0  0  0  0
M  END
>  <minimizedAffinity>
-5.23949718

$$$$

 OpenBabel03252505263D

 37 39  0  0  1  0  0  0  0  0999 V2000
   38.1710   27.2860   39.6760 F   0  0  0  0  0  0  0  0  0  0  0  0
   38.0070   27.8850   40.9020 C   0  0  0  0  0  0  0  0  0  0  0  0
   37.8960   29.2470   40.9360 C   0  0  0  0  0  0  0  0  0  0  0  0
   37.7320   29.8410   42.1680 C   0  0  0  0  0  0  0  0  0  0  0  0
   37.6870   29.0540   43.3040 C   0  0  0  0  0  0  0  0  0  0  0  0
   37.8000   27.6910   43.2600 C   0  0  0  0  0  0  0  0  0  0  0  0
   37.9660   27.0940   42.0010 C   0  0  0  0  0  0  0  0  0  0  0  0
   37.6360   30.9160   42.2710 H   0  0  0  0  0  0  0  0  0  0  0  0
   37.5580   29.5000   44.2880 H   0  0  0  0  0  0  0  0  0  0  0  0
   37.7630   27.0900   44.1600 H   0  0  0  0  0  0  0  0  0  0  0  0
   38.0790   25.6770   42.0110 N   0  0  0  0  0  0  0  0  0  0  0  0
   37.0820   24.6550   42.1720 C   0  0  0  0  0  0  0  0  0  0  0  0
   37.3970   23.6920   41.0170 C   0  0  0  0  0  0  0  0  0  0  0  0
   38.8280   23.9880   40.6810 C   0  0  0  0  0  0  0  0  0  0  0  0
   39.2510   24.8370   41.8610 C   0  0  2  0  0  0  0  0  0  0  0  0
   36.0870   25.1050   41.9360 H   0  0  0  0  0  0  0  0  0  0  0  0
   37.1070   24.1430   43.1510 H   0  0  0  0  0  0  0  0  0  0  0  0
   36.6970   23.8130   40.1810 H   0  0  0  0  0  0  0  0  0  0  0  0
   37.3840   22.6600   41.4550 H   0  0  0  0  0  0  0  0  0  0  0  0
   39.4590   23.0890   40.5390 H   0  0  0  0  0  0  0  0  0  0  0  0
   38.9110   24.6120   39.7740 H   0  0  0  0  0  0  0  0  0  0  0  0
   40.1150   25.4540   41.5300 H   0  0  0  0  0  0  0  0  0  0  0  0
   39.6070   24.0690   43.0860 C   0  0  0  0  0  0  0  0  0  0  0  0
   39.4810   24.7010   43.9700 H   0  0  0  0  0  0  0  0  0  0  0  0
   39.0200   23.1420   43.2040 H   0  0  0  0  0  0  0  0  0  0  0  0
   40.6890   23.8090   43.0240 H   0  0  0  0  0  0  0  0  0  0  0  0
   36.9620   30.7460   37.7340 C   0  0  0  0  0  0  0  0  0  0  0  0
   38.0710   31.5330   37.3990 C   0  0  0  0  0  0  0  0  0  0  0  0
   39.1180   31.5120   38.3150 C   0  0  0  0  0  0  0  0  0  0  0  0
   39.0090   30.7590   39.4360 N   0  0  0  0  0  0  0  0  0  0  0  0
   37.9490   30.0300   39.7160 C   0  0  0  0  0  0  0  0  0  0  0  0
   36.9060   30.0100   38.8730 N   0  0  0  0  0  0  0  0  0  0  0  0
   36.1060   30.7260   37.0470 H   0  0  0  0  0  0  0  0  0  0  0  0
   38.1370   32.1190   36.5130 H   0  0  0  0  0  0  0  0  0  0  0  0
   40.3180   32.3000   38.0570 C   0  0  0  0  0  0  0  0  0  0  0  0
   40.6210   33.0450   38.7780 H   0  0  0  0  0  0  0  0  0  0  0  0
   40.9830   32.1100   37.0120 O   0  0  0  0  0  0  0  0  0  0  0  0
  1  2  1  0  0  0  0
  2  3  2  0  0  0  0
  2  7  1  0  0  0  0
  3  4  1  0  0  0  0
  4  8  1  0  0  0  0
  4  5  2  0  0  0  0
  5  9  1  0  0  0  0
  6  5  1  0  0  0  0
  6 10  1  0  0  0  0
  7 11  1  0  0  0  0
  7  6  2  0  0  0  0
 11 12  1  0  0  0  0
 12 17  1  0  0  0  0
 13 19  1  0  0  0  0
 13 12  1  0  0  0  0
 14 13  1  0  0  0  0
 14 15  1  0  0  0  0
 15 22  1  6  0  0  0
 15 11  1  0  0  0  0
 15 23  1  0  0  0  0
 16 12  1  0  0  0  0
 18 13  1  0  0  0  0
 20 14  1  0  0  0  0
 21 14  1  0  0  0  0
 23 25  1  0  0  0  0
 23 24  1  0  0  0  0
 26 23  1  0  0  0  0
 27 32  1  0  0  0  0
 28 27  2  0  0  0  0
 28 29  1  0  0  0  0
 29 30  2  0  0  0  0
 30 31  1  0  0  0  0
 31  3  1  0  0  0  0
 32 31  2  0  0  0  0
 33 27  1  0  0  0  0
 34 28  1  0  0  0  0
 35 29  1  0  0  0  0
 35 36  1  0  0  0  0
 37 35  2  0  0  0  0
M  END
>  <minimizedAffinity>
-5.15507507

$$$$

 OpenBabel03252505263D

 37 39  0  0  1  0  0  0  0  0999 V2000
   39.3740   28.7500   41.0180 F   0  0  0  0  0  0  0  0  0  0  0  0
   38.0580   29.1290   40.9040 C   0  0  0  0  0  0  0  0  0  0  0  0
   37.1060   28.1500   40.9420 C   0  0  0  0  0  0  0  0  0  0  0  0
   35.7900   28.5360   40.8280 C   0  0  0  0  0  0  0  0  0  0  0  0
   35.4830   29.8770   40.6800 C   0  0  0  0  0  0  0  0  0  0  0  0
   36.4430   30.8510   40.6420 C   0  0  0  0  0  0  0  0  0  0  0  0
   37.7820   30.4480   40.7590 C   0  0  0  0  0  0  0  0  0  0  0  0
   34.9810   27.8140   40.8510 H   0  0  0  0  0  0  0  0  0  0  0  0
   34.4500   30.2070   40.5870 H   0  0  0  0  0  0  0  0  0  0  0  0
   36.1860   31.8960   40.5250 H   0  0  0  0  0  0  0  0  0  0  0  0
   38.7380   31.4980   40.7130 N   0  0  0  0  0  0  0  0  0  0  0  0
   39.8290   31.8180   41.5920 C   0  0  0  0  0  0  0  0  0  0  0  0
   40.9960   32.0330   40.6170 C   0  0  0  0  0  0  0  0  0  0  0  0
   40.3250   32.3380   39.3110 C   0  0  0  0  0  0  0  0  0  0  0  0
   38.8940   32.5710   39.7500 C   0  0  2  0  0  0  0  0  0  0  0  0
   40.0800   30.8990   42.1760 H   0  0  0  0  0  0  0  0  0  0  0  0
   39.6580   32.7050   42.2280 H   0  0  0  0  0  0  0  0  0  0  0  0
   41.6730   31.1690   40.5920 H   0  0  0  0  0  0  0  0  0  0  0  0
   41.5040   32.9800   40.9370 H   0  0  0  0  0  0  0  0  0  0  0  0
   40.7610   33.1960   38.7630 H   0  0  0  0  0  0  0  0  0  0  0  0
   40.3290   31.4630   38.6390 H   0  0  0  0  0  0  0  0  0  0  0  0
   38.2440   32.3810   38.8680 H   0  0  0  0  0  0  0  0  0  0  0  0
   38.6250   33.9270   40.3050 C   0  0  0  0  0  0  0  0  0  0  0  0
   37.7550   33.8910   40.9670 H   0  0  0  0  0  0  0  0  0  0  0  0
   39.4880   34.3540   40.8450 H   0  0  0  0  0  0  0  0  0  0  0  0
   38.3600   34.5970   39.4550 H   0  0  0  0  0  0  0  0  0  0  0  0
   37.3060   24.5340   40.4280 C   0  0  0  0  0  0  0  0  0  0  0  0
   38.1980   24.1060   41.4200 C   0  0  0  0  0  0  0  0  0  0  0  0
   38.7050   25.1070   42.2420 C   0  0  0  0  0  0  0  0  0  0  0  0
   38.3200   26.3920   42.0440 N   0  0  0  0  0  0  0  0  0  0  0  0
   37.4770   26.7560   41.1000 C   0  0  0  0  0  0  0  0  0  0  0  0
   36.9550   25.8360   40.2760 N   0  0  0  0  0  0  0  0  0  0  0  0
   36.8760   23.7850   39.7500 H   0  0  0  0  0  0  0  0  0  0  0  0
   38.4890   23.0910   41.5590 H   0  0  0  0  0  0  0  0  0  0  0  0
   39.6420   24.7630   43.3050 C   0  0  0  0  0  0  0  0  0  0  0  0
   39.2980   24.1560   44.1300 H   0  0  0  0  0  0  0  0  0  0  0  0
   40.8270   25.1660   43.2540 O   0  0  0  0  0  0  0  0  0  0  0  0
  2  3  1  0  0  0  0
  2  1  1  0  0  0  0
  3 31  1  0  0  0  0
  4  8  1  0  0  0  0
  4  3  2  0  0  0  0
  5  4  1  0  0  0  0
  6  5  2  0  0  0  0
  6  7  1  0  0  0  0
  7  2  2  0  0  0  0
  9  5  1  0  0  0  0
 10  6  1  0  0  0  0
 11  7  1  0  0  0  0
 11 12  1  0  0  0  0
 12 16  1  0  0  0  0
 12 17  1  0  0  0  0
 13 19  1  0  0  0  0
 13 12  1  0  0  0  0
 14 15  1  0  0  0  0
 14 13  1  0  0  0  0
 15 22  1  6  0  0  0
 15 23  1  0  0  0  0
 15 11  1  0  0  0  0
 18 13  1  0  0  0  0
 20 14  1  0  0  0  0
 21 14  1  0  0  0  0
 23 25  1  0  0  0  0
 23 24  1  0  0  0  0
 26 23  1  0  0  0  0
 27 28  1  0  0  0  0
 28 34  1  0  0  0  0
 28 29  2  0  0  0  0
 29 35  1  0  0  0  0
 30 29  1  0  0  0  0
 31 30  2  0  0  0  0
 32 27  2  0  0  0  0
 32 31  1  0  0  0  0
 33 27  1  0  0  0  0
 35 36  1  0  0  0  0
 37 35  2  0  0  0  0
M  END
>  <minimizedAffinity>
-4.96975279

$$$$

 OpenBabel03252505263D

 37 39  0  0  1  0  0  0  0  0999 V2000
   36.5980   27.8900   39.4490 F   0  0  0  0  0  0  0  0  0  0  0  0
   36.8930   29.2190   39.6410 C   0  0  0  0  0  0  0  0  0  0  0  0
   36.6400   30.0830   38.6120 C   0  0  0  0  0  0  0  0  0  0  0  0
   36.9380   31.4130   38.8100 C   0  0  0  0  0  0  0  0  0  0  0  0
   37.4740   31.8180   40.0190 C   0  0  0  0  0  0  0  0  0  0  0  0
   37.7250   30.9460   41.0430 C   0  0  0  0  0  0  0  0  0  0  0  0
   37.4170   29.5930   40.8320 C   0  0  0  0  0  0  0  0  0  0  0  0
   36.7640   32.1550   38.0400 H   0  0  0  0  0  0  0  0  0  0  0  0
   37.7180   32.8640   40.1990 H   0  0  0  0  0  0  0  0  0  0  0  0
   38.1450   31.2810   41.9830 H   0  0  0  0  0  0  0  0  0  0  0  0
   37.6970   28.7300   41.9260 N   0  0  0  0  0  0  0  0  0  0  0  0
   37.4100   28.8620   43.3280 C   0  0  0  0  0  0  0  0  0  0  0  0
   36.7960   27.4980   43.6770 C   0  0  0  0  0  0  0  0  0  0  0  0
   37.2940   26.5900   42.5930 C   0  0  0  0  0  0  0  0  0  0  0  0
   38.3660   27.4440   41.9470 C   0  0  2  0  0  0  0  0  0  0  0  0
   36.5860   29.6100   43.4400 H   0  0  0  0  0  0  0  0  0  0  0  0
   38.2910   29.0880   43.9560 H   0  0  0  0  0  0  0  0  0  0  0  0
   35.7030   27.5510   43.7610 H   0  0  0  0  0  0  0  0  0  0  0  0
   37.2940   27.1610   44.6230 H   0  0  0  0  0  0  0  0  0  0  0  0
   37.6710   25.6130   42.9540 H   0  0  0  0  0  0  0  0  0  0  0  0
   36.5170   26.3990   41.8340 H   0  0  0  0  0  0  0  0  0  0  0  0
   38.5000   27.0730   40.9070 H   0  0  0  0  0  0  0  0  0  0  0  0
   39.6720   27.4510   42.6630 C   0  0  0  0  0  0  0  0  0  0  0  0
   40.2230   28.3650   42.4190 H   0  0  0  0  0  0  0  0  0  0  0  0
   39.5690   27.3590   43.7570 H   0  0  0  0  0  0  0  0  0  0  0  0
   40.2760   26.5960   42.2800 H   0  0  0  0  0  0  0  0  0  0  0  0
   36.3240   29.0810   35.1090 C   0  0  0  0  0  0  0  0  0  0  0  0
   34.9800   28.7040   34.9910 C   0  0  0  0  0  0  0  0  0  0  0  0
   34.2240   28.8140   36.1530 C   0  0  0  0  0  0  0  0  0  0  0  0
   34.8080   29.2630   37.2900 N   0  0  0  0  0  0  0  0  0  0  0  0
   36.0770   29.6100   37.3620 C   0  0  0  0  0  0  0  0  0  0  0  0
   36.8580   29.5250   36.2750 N   0  0  0  0  0  0  0  0  0  0  0  0
   36.9680   29.0130   34.2230 H   0  0  0  0  0  0  0  0  0  0  0  0
   34.5400   28.3530   34.0880 H   0  0  0  0  0  0  0  0  0  0  0  0
   32.8130   28.4450   36.1330 C   0  0  0  0  0  0  0  0  0  0  0  0
   32.0670   29.2260   36.0860 H   0  0  0  0  0  0  0  0  0  0  0  0
   32.4770   27.2380   36.1680 O   0  0  0  0  0  0  0  0  0  0  0  0
  1  2  1  0  0  0  0
  2  7  1  0  0  0  0
  3  4  1  0  0  0  0
  3  2  2  0  0  0  0
  4  5  2  0  0  0  0
  5  9  1  0  0  0  0
  5  6  1  0  0  0  0
  6 10  1  0  0  0  0
  7  6  2  0  0  0  0
  7 11  1  0  0  0  0
  8  4  1  0  0  0  0
 11 15  1  0  0  0  0
 11 12  1  0  0  0  0
 12 16  1  0  0  0  0
 12 13  1  0  0  0  0
 12 17  1  0  0  0  0
 13 18  1  0  0  0  0
 13 19  1  0  0  0  0
 14 20  1  0  0  0  0
 14 13  1  0  0  0  0
 15 22  1  6  0  0  0
 15 14  1  0  0  0  0
 15 23  1  0  0  0  0
 21 14  1  0  0  0  0
 23 25  1  0  0  0  0
 24 23  1  0  0  0  0
 26 23  1  0  0  0  0
 27 32  1  0  0  0  0
 28 27  2  0  0  0  0
 28 29  1  0  0  0  0
 29 30  2  0  0  0  0
 30 31  1  0  0  0  0
 31  3  1  0  0  0  0
 32 31  2  0  0  0  0
 33 27  1  0  0  0  0
 34 28  1  0  0  0  0
 35 29  1  0  0  0  0
 35 37  2  0  0  0  0
 36 35  1  0  0  0  0
M  END
>  <minimizedAffinity>
-4.95499182

$$$$

 OpenBabel03252505263D

 37 39  0  0  1  0  0  0  0  0999 V2000
   40.2660   30.3420   41.1770 F   0  0  0  0  0  0  0  0  0  0  0  0
   39.2290   31.1340   40.7460 C   0  0  0  0  0  0  0  0  0  0  0  0
   37.9550   30.6930   40.9660 C   0  0  0  0  0  0  0  0  0  0  0  0
   36.9200   31.4910   40.5320 C   0  0  0  0  0  0  0  0  0  0  0  0
   37.2030   32.6890   39.8990 C   0  0  0  0  0  0  0  0  0  0  0  0
   38.4820   33.1230   39.6830 C   0  0  0  0  0  0  0  0  0  0  0  0
   39.5290   32.3020   40.1290 C   0  0  0  0  0  0  0  0  0  0  0  0
   35.8840   31.2050   40.6720 H   0  0  0  0  0  0  0  0  0  0  0  0
   36.4020   33.3360   39.5470 H   0  0  0  0  0  0  0  0  0  0  0  0
   38.6850   34.0620   39.1860 H   0  0  0  0  0  0  0  0  0  0  0  0
   40.8370   32.7990   39.8790 N   0  0  0  0  0  0  0  0  0  0  0  0
   41.7070   33.6090   40.6860 C   0  0  0  0  0  0  0  0  0  0  0  0
   43.0410   32.8510   40.6090 C   0  0  0  0  0  0  0  0  0  0  0  0
   42.9160   32.0250   39.3640 C   0  0  0  0  0  0  0  0  0  0  0  0
   41.6880   32.6310   38.7170 C   0  0  2  0  0  0  0  0  0  0  0  0
   41.3660   33.5270   41.7470 H   0  0  0  0  0  0  0  0  0  0  0  0
   41.8100   34.6540   40.3400 H   0  0  0  0  0  0  0  0  0  0  0  0
   43.2370   32.2740   41.5220 H   0  0  0  0  0  0  0  0  0  0  0  0
   43.8290   33.6200   40.3980 H   0  0  0  0  0  0  0  0  0  0  0  0
   43.8110   32.0450   38.7110 H   0  0  0  0  0  0  0  0  0  0  0  0
   42.6850   30.9710   39.5970 H   0  0  0  0  0  0  0  0  0  0  0  0
   41.2560   31.8580   38.0430 H   0  0  0  0  0  0  0  0  0  0  0  0
   41.9390   33.8900   37.9620 C   0  0  0  0  0  0  0  0  0  0  0  0
   41.0160   34.4750   37.9000 H   0  0  0  0  0  0  0  0  0  0  0  0
   42.7430   34.5060   38.3990 H   0  0  0  0  0  0  0  0  0  0  0  0
   42.2180   33.6130   36.9190 H   0  0  0  0  0  0  0  0  0  0  0  0
   37.4950   28.1900   43.5930 C   0  0  0  0  0  0  0  0  0  0  0  0
   37.2340   27.0100   42.8860 C   0  0  0  0  0  0  0  0  0  0  0  0
   37.2270   27.1310   41.5000 C   0  0  0  0  0  0  0  0  0  0  0  0
   37.4650   28.3400   40.9350 N   0  0  0  0  0  0  0  0  0  0  0  0
   37.7080   29.4290   41.6350 C   0  0  0  0  0  0  0  0  0  0  0  0
   37.7270   29.3760   42.9740 N   0  0  0  0  0  0  0  0  0  0  0  0
   37.5110   28.1530   44.6900 H   0  0  0  0  0  0  0  0  0  0  0  0
   37.0490   26.0690   43.3490 H   0  0  0  0  0  0  0  0  0  0  0  0
   36.9650   25.9580   40.6750 C   0  0  0  0  0  0  0  0  0  0  0  0
   37.1870   24.9780   41.0710 H   0  0  0  0  0  0  0  0  0  0  0  0
   36.4860   26.0920   39.5240 O   0  0  0  0  0  0  0  0  0  0  0  0
  2  3  1  0  0  0  0
  2  1  1  0  0  0  0
  3 31  1  0  0  0  0
  4  8  1  0  0  0  0
  4  3  2  0  0  0  0
  5  4  1  0  0  0  0
  6  5  2  0  0  0  0
  6  7  1  0  0  0  0
  7  2  2  0  0  0  0
  9  5  1  0  0  0  0
 10  6  1  0  0  0  0
 11  7  1  0  0  0  0
 11 12  1  0  0  0  0
 12 16  1  0  0  0  0
 13 12  1  0  0  0  0
 13 18  1  0  0  0  0
 14 21  1  0  0  0  0
 14 13  1  0  0  0  0
 15 22  1  6  0  0  0
 15 14  1  0  0  0  0
 15 11  1  0  0  0  0
 17 12  1  0  0  0  0
 19 13  1  0  0  0  0
 20 14  1  0  0  0  0
 23 25  1  0  0  0  0
 23 15  1  0  0  0  0
 24 23  1  0  0  0  0
 26 23  1  0  0  0  0
 27 33  1  0  0  0  0
 28 34  1  0  0  0  0
 28 27  2  0  0  0  0
 29 28  1  0  0  0  0
 30 29  2  0  0  0  0
 30 31  1  0  0  0  0
 31 32  2  0  0  0  0
 32 27  1  0  0  0  0
 35 36  1  0  0  0  0
 35 29  1  0  0  0  0
 37 35  2  0  0  0  0
M  END
>  <minimizedAffinity>
-4.94878197

$$$$
