
 OpenBabel03252502543D

 25 26  0  0  0  0  0  0  0  0999 V2000
   35.6840   28.9250   40.7570 Br  0  0  0  0  0  0  0  0  0  0  0  0
   37.2940   29.8210   41.3420 C   0  0  0  0  0  0  0  0  0  0  0  0
   37.8540   29.3460   42.5010 C   0  0  0  0  0  0  0  0  0  0  0  0
   39.0260   30.0170   42.9020 C   0  0  0  0  0  0  0  0  0  0  0  0
   39.5690   31.0680   42.1900 C   0  0  0  0  0  0  0  0  0  0  0  0
   38.9470   31.4860   41.0360 C   0  0  0  0  0  0  0  0  0  0  0  0
   37.7990   30.8610   40.6030 C   0  0  0  0  0  0  0  0  0  0  0  0
   39.5400   29.7030   43.8170 H   0  0  0  0  0  0  0  0  0  0  0  0
   40.4570   31.5470   42.5300 H   0  0  0  0  0  0  0  0  0  0  0  0
   39.3810   32.3110   40.4850 H   0  0  0  0  0  0  0  0  0  0  0  0
   37.3810   28.2450   43.3450 C   0  0  0  0  0  0  0  0  0  0  0  0
   36.3000   28.0480   43.2150 H   0  0  0  0  0  0  0  0  0  0  0  0
   37.5680   28.5180   44.4190 H   0  0  0  0  0  0  0  0  0  0  0  0
   39.9460   25.5450   43.4570 C   0  0  0  0  0  0  0  0  0  0  0  0
   39.3840   24.5610   42.6400 C   0  0  0  0  0  0  0  0  0  0  0  0
   38.1390   24.8530   42.0720 C   0  0  0  0  0  0  0  0  0  0  0  0
   37.5310   26.0340   42.3190 N   0  0  0  0  0  0  0  0  0  0  0  0
   38.1300   26.9760   43.1360 C   0  0  0  0  0  0  0  0  0  0  0  0
   39.3210   26.6970   43.6800 N   0  0  0  0  0  0  0  0  0  0  0  0
   40.9080   25.4150   43.9450 H   0  0  0  0  0  0  0  0  0  0  0  0
   39.9180   23.6330   42.4770 H   0  0  0  0  0  0  0  0  0  0  0  0
   37.6770   24.1140   41.4340 H   0  0  0  0  0  0  0  0  0  0  0  0
   37.1460   31.3110   39.3780 C   0  0  0  0  0  0  0  0  0  0  0  0
   36.7980   30.5650   38.6630 H   0  0  0  0  0  0  0  0  0  0  0  0
   36.9890   32.5370   39.1550 O   0  0  0  0  0  0  0  0  0  0  0  0
  1  2  1  0  0  0  0
  2  3  1  0  0  0  0
  3  4  2  0  0  0  0
  3 11  1  0  0  0  0
  4  8  1  0  0  0  0
  5  9  1  0  0  0  0
  5  4  1  0  0  0  0
  6  5  2  0  0  0  0
  7  6  1  0  0  0  0
  7  2  2  0  0  0  0
 10  6  1  0  0  0  0
 11 13  1  0  0  0  0
 12 11  1  0  0  0  0
 14 19  1  0  0  0  0
 14 20  1  0  0  0  0
 15 14  2  0  0  0  0
 16 17  2  0  0  0  0
 16 15  1  0  0  0  0
 17 18  1  0  0  0  0
 18 11  1  0  0  0  0
 18 19  2  0  0  0  0
 21 15  1  0  0  0  0
 22 16  1  0  0  0  0
 23  7  1  0  0  0  0
 24 23  1  0  0  0  0
 25 23  2  0  0  0  0
M  END
>  <minimizedAffinity>
-4.68779135

$$$$

 OpenBabel03252502543D

 25 26  0  0  0  0  0  0  0  0999 V2000
   36.5710   26.2580   39.4850 Br  0  0  0  0  0  0  0  0  0  0  0  0
   37.2270   26.8780   41.1940 C   0  0  0  0  0  0  0  0  0  0  0  0
   36.6900   28.0560   41.6480 C   0  0  0  0  0  0  0  0  0  0  0  0
   37.1870   28.4820   42.8960 C   0  0  0  0  0  0  0  0  0  0  0  0
   38.1370   27.7760   43.6060 C   0  0  0  0  0  0  0  0  0  0  0  0
   38.6260   26.6010   43.0830 C   0  0  0  0  0  0  0  0  0  0  0  0
   38.1720   26.1430   41.8660 C   0  0  0  0  0  0  0  0  0  0  0  0
   36.8130   29.4150   43.3350 H   0  0  0  0  0  0  0  0  0  0  0  0
   38.4840   28.1350   44.5460 H   0  0  0  0  0  0  0  0  0  0  0  0
   39.3710   26.0550   43.6470 H   0  0  0  0  0  0  0  0  0  0  0  0
   35.6830   28.8980   40.9960 C   0  0  0  0  0  0  0  0  0  0  0  0
   34.9190   29.2660   41.7060 H   0  0  0  0  0  0  0  0  0  0  0  0
   35.1710   28.2880   40.2040 H   0  0  0  0  0  0  0  0  0  0  0  0
   37.1230   32.2270   40.1440 C   0  0  0  0  0  0  0  0  0  0  0  0
   37.3350   32.1210   38.7670 C   0  0  0  0  0  0  0  0  0  0  0  0
   36.9770   30.9070   38.1700 C   0  0  0  0  0  0  0  0  0  0  0  0
   36.4550   29.9040   38.9090 N   0  0  0  0  0  0  0  0  0  0  0  0
   36.2650   30.0600   40.2700 C   0  0  0  0  0  0  0  0  0  0  0  0
   36.6070   31.2200   40.8430 N   0  0  0  0  0  0  0  0  0  0  0  0
   37.3680   33.1260   40.7010 H   0  0  0  0  0  0  0  0  0  0  0  0
   37.7560   32.9580   38.2250 H   0  0  0  0  0  0  0  0  0  0  0  0
   37.1270   30.7920   37.1060 H   0  0  0  0  0  0  0  0  0  0  0  0
   38.6970   24.8970   41.3180 C   0  0  0  0  0  0  0  0  0  0  0  0
   39.5100   24.9440   40.5930 H   0  0  0  0  0  0  0  0  0  0  0  0
   38.2190   23.7930   41.6780 O   0  0  0  0  0  0  0  0  0  0  0  0
  1  2  1  0  0  0  0
  2  3  2  0  0  0  0
  2  7  1  0  0  0  0
  3  4  1  0  0  0  0
  4  8  1  0  0  0  0
  4  5  2  0  0  0  0
  5  9  1  0  0  0  0
  6  5  1  0  0  0  0
  6 10  1  0  0  0  0
  7  6  2  0  0  0  0
 11  3  1  0  0  0  0
 11 12  1  0  0  0  0
 13 11  1  0  0  0  0
 14 20  1  0  0  0  0
 14 19  1  0  0  0  0
 15 14  2  0  0  0  0
 16 15  1  0  0  0  0
 16 17  2  0  0  0  0
 17 18  1  0  0  0  0
 18 19  2  0  0  0  0
 18 11  1  0  0  0  0
 21 15  1  0  0  0  0
 22 16  1  0  0  0  0
 23 25  2  0  0  0  0
 23  7  1  0  0  0  0
 24 23  1  0  0  0  0
M  END
>  <minimizedAffinity>
-4.68664169

$$$$

 OpenBabel03252502543D

 25 26  0  0  0  0  0  0  0  0999 V2000
   39.8650   27.9940   42.9660 Br  0  0  0  0  0  0  0  0  0  0  0  0
   38.9550   26.3640   42.4660 C   0  0  0  0  0  0  0  0  0  0  0  0
   37.5850   26.4050   42.5170 C   0  0  0  0  0  0  0  0  0  0  0  0
   36.9490   25.2030   42.1470 C   0  0  0  0  0  0  0  0  0  0  0  0
   37.6450   24.0740   41.7640 C   0  0  0  0  0  0  0  0  0  0  0  0
   39.0200   24.1130   41.7380 C   0  0  0  0  0  0  0  0  0  0  0  0
   39.6870   25.2650   42.0920 C   0  0  0  0  0  0  0  0  0  0  0  0
   35.8550   25.1460   42.1590 H   0  0  0  0  0  0  0  0  0  0  0  0
   37.1240   23.1860   41.4920 H   0  0  0  0  0  0  0  0  0  0  0  0
   39.5570   23.2220   41.4370 H   0  0  0  0  0  0  0  0  0  0  0  0
   36.7310   27.5320   42.9030 C   0  0  0  0  0  0  0  0  0  0  0  0
   37.0960   28.0460   43.8120 H   0  0  0  0  0  0  0  0  0  0  0  0
   35.6980   27.1400   43.1050 H   0  0  0  0  0  0  0  0  0  0  0  0
   36.6690   30.6950   40.9350 C   0  0  0  0  0  0  0  0  0  0  0  0
   36.1660   30.2740   39.7020 C   0  0  0  0  0  0  0  0  0  0  0  0
   35.8630   28.9140   39.5800 C   0  0  0  0  0  0  0  0  0  0  0  0
   36.0550   28.0710   40.6180 N   0  0  0  0  0  0  0  0  0  0  0  0
   36.5550   28.5380   41.8200 C   0  0  0  0  0  0  0  0  0  0  0  0
   36.8470   29.8390   41.9380 N   0  0  0  0  0  0  0  0  0  0  0  0
   36.9360   31.7300   41.1310 H   0  0  0  0  0  0  0  0  0  0  0  0
   36.0320   30.9950   38.9050 H   0  0  0  0  0  0  0  0  0  0  0  0
   35.4710   28.5540   38.6400 H   0  0  0  0  0  0  0  0  0  0  0  0
   41.1450   25.2970   42.0620 C   0  0  0  0  0  0  0  0  0  0  0  0
   41.6450   25.6400   41.1560 H   0  0  0  0  0  0  0  0  0  0  0  0
   41.8100   24.9340   43.0640 O   0  0  0  0  0  0  0  0  0  0  0  0
  2  3  1  0  0  0  0
  2  1  1  0  0  0  0
  3 11  1  0  0  0  0
  4  8  1  0  0  0  0
  4  3  2  0  0  0  0
  5  4  1  0  0  0  0
  6  5  2  0  0  0  0
  6  7  1  0  0  0  0
  7  2  2  0  0  0  0
  9  5  1  0  0  0  0
 10  6  1  0  0  0  0
 11 13  1  0  0  0  0
 11 12  1  0  0  0  0
 14 20  1  0  0  0  0
 14 19  1  0  0  0  0
 15 14  2  0  0  0  0
 16 15  1  0  0  0  0
 16 17  2  0  0  0  0
 17 18  1  0  0  0  0
 18 19  2  0  0  0  0
 18 11  1  0  0  0  0
 21 15  1  0  0  0  0
 22 16  1  0  0  0  0
 23  7  1  0  0  0  0
 23 25  2  0  0  0  0
 24 23  1  0  0  0  0
M  END
>  <minimizedAffinity>
-4.66317463

$$$$

 OpenBabel03252502543D

 25 26  0  0  0  0  0  0  0  0999 V2000
   35.5120   28.1700   38.5040 Br  0  0  0  0  0  0  0  0  0  0  0  0
   36.4270   29.8730   38.4580 C   0  0  0  0  0  0  0  0  0  0  0  0
   36.4640   30.5630   39.6420 C   0  0  0  0  0  0  0  0  0  0  0  0
   37.1370   31.7990   39.5780 C   0  0  0  0  0  0  0  0  0  0  0  0
   37.7140   32.2800   38.4190 C   0  0  0  0  0  0  0  0  0  0  0  0
   37.6340   31.5260   37.2700 C   0  0  0  0  0  0  0  0  0  0  0  0
   36.9850   30.3110   37.2830 C   0  0  0  0  0  0  0  0  0  0  0  0
   37.2150   32.4180   40.4790 H   0  0  0  0  0  0  0  0  0  0  0  0
   38.2130   33.2200   38.4160 H   0  0  0  0  0  0  0  0  0  0  0  0
   38.0880   31.9120   36.3670 H   0  0  0  0  0  0  0  0  0  0  0  0
   35.8960   30.1680   40.9340 C   0  0  0  0  0  0  0  0  0  0  0  0
   34.9510   29.6040   40.8240 H   0  0  0  0  0  0  0  0  0  0  0  0
   35.6920   31.0970   41.5300 H   0  0  0  0  0  0  0  0  0  0  0  0
   38.8190   29.0580   42.9610 C   0  0  0  0  0  0  0  0  0  0  0  0
   38.4570   27.7590   43.3270 C   0  0  0  0  0  0  0  0  0  0  0  0
   37.2180   27.3010   42.8680 C   0  0  0  0  0  0  0  0  0  0  0  0
   36.4290   28.0930   42.1100 N   0  0  0  0  0  0  0  0  0  0  0  0
   36.8350   29.3720   41.7730 C   0  0  0  0  0  0  0  0  0  0  0  0
   38.0200   29.8130   42.2130 N   0  0  0  0  0  0  0  0  0  0  0  0
   39.7600   29.5060   43.2670 H   0  0  0  0  0  0  0  0  0  0  0  0
   39.1300   27.1690   43.9370 H   0  0  0  0  0  0  0  0  0  0  0  0
   36.9070   26.3000   43.1320 H   0  0  0  0  0  0  0  0  0  0  0  0
   36.9050   29.5200   36.0610 C   0  0  0  0  0  0  0  0  0  0  0  0
   37.4150   28.5560   36.0240 H   0  0  0  0  0  0  0  0  0  0  0  0
   36.2600   29.9440   35.0700 O   0  0  0  0  0  0  0  0  0  0  0  0
  2  1  1  0  0  0  0
  2  3  1  0  0  0  0
  3 11  1  0  0  0  0
  4  3  2  0  0  0  0
  4  8  1  0  0  0  0
  5  4  1  0  0  0  0
  6  7  1  0  0  0  0
  6  5  2  0  0  0  0
  7  2  2  0  0  0  0
  9  5  1  0  0  0  0
 10  6  1  0  0  0  0
 11 13  1  0  0  0  0
 11 18  1  0  0  0  0
 12 11  1  0  0  0  0
 14 20  1  0  0  0  0
 14 15  1  0  0  0  0
 15 21  1  0  0  0  0
 16 22  1  0  0  0  0
 16 15  2  0  0  0  0
 17 16  1  0  0  0  0
 18 17  2  0  0  0  0
 18 19  1  0  0  0  0
 19 14  2  0  0  0  0
 23  7  1  0  0  0  0
 24 23  1  0  0  0  0
 25 23  2  0  0  0  0
M  END
>  <minimizedAffinity>
-4.6001339

$$$$

 OpenBabel03252502543D

 25 26  0  0  0  0  0  0  0  0999 V2000
   39.0670   27.1850   39.5340 Br  0  0  0  0  0  0  0  0  0  0  0  0
   38.3250   27.6660   41.2540 C   0  0  0  0  0  0  0  0  0  0  0  0
   38.6710   28.9060   41.7270 C   0  0  0  0  0  0  0  0  0  0  0  0
   38.1160   29.2290   42.9810 C   0  0  0  0  0  0  0  0  0  0  0  0
   37.2910   28.3700   43.6800 C   0  0  0  0  0  0  0  0  0  0  0  0
   36.9910   27.1420   43.1360 C   0  0  0  0  0  0  0  0  0  0  0  0
   37.5100   26.7800   41.9130 C   0  0  0  0  0  0  0  0  0  0  0  0
   38.3400   30.2010   43.4350 H   0  0  0  0  0  0  0  0  0  0  0  0
   36.8930   28.6550   44.6250 H   0  0  0  0  0  0  0  0  0  0  0  0
   36.3440   26.4760   43.6920 H   0  0  0  0  0  0  0  0  0  0  0  0
   39.5310   29.9060   41.0890 C   0  0  0  0  0  0  0  0  0  0  0  0
   40.1460   29.4770   40.2760 H   0  0  0  0  0  0  0  0  0  0  0  0
   40.2180   30.3330   41.8690 H   0  0  0  0  0  0  0  0  0  0  0  0
   37.1320   32.0800   39.2440 C   0  0  0  0  0  0  0  0  0  0  0  0
   37.4950   33.3600   39.6700 C   0  0  0  0  0  0  0  0  0  0  0  0
   38.5550   33.4410   40.5800 C   0  0  0  0  0  0  0  0  0  0  0  0
   39.1790   32.3230   41.0100 N   0  0  0  0  0  0  0  0  0  0  0  0
   38.7810   31.0780   40.5570 C   0  0  0  0  0  0  0  0  0  0  0  0
   37.7670   30.9980   39.6870 N   0  0  0  0  0  0  0  0  0  0  0  0
   36.3220   31.9100   38.5400 H   0  0  0  0  0  0  0  0  0  0  0  0
   36.9590   34.2210   39.2910 H   0  0  0  0  0  0  0  0  0  0  0  0
   38.8620   34.4160   40.9290 H   0  0  0  0  0  0  0  0  0  0  0  0
   37.1870   25.4760   41.3450 C   0  0  0  0  0  0  0  0  0  0  0  0
   37.3640   25.3080   40.2820 H   0  0  0  0  0  0  0  0  0  0  0  0
   36.7130   24.5670   42.0700 O   0  0  0  0  0  0  0  0  0  0  0  0
  1  2  1  0  0  0  0
  2  3  2  0  0  0  0
  2  7  1  0  0  0  0
  3  4  1  0  0  0  0
  4  8  1  0  0  0  0
  4  5  2  0  0  0  0
  5  9  1  0  0  0  0
  6  5  1  0  0  0  0
  6 10  1  0  0  0  0
  7  6  2  0  0  0  0
 11  3  1  0  0  0  0
 11 13  1  0  0  0  0
 12 11  1  0  0  0  0
 14 15  2  0  0  0  0
 14 19  1  0  0  0  0
 15 16  1  0  0  0  0
 16 22  1  0  0  0  0
 16 17  2  0  0  0  0
 18 17  1  0  0  0  0
 18 11  1  0  0  0  0
 19 18  2  0  0  0  0
 20 14  1  0  0  0  0
 21 15  1  0  0  0  0
 23  7  1  0  0  0  0
 23 25  2  0  0  0  0
 24 23  1  0  0  0  0
M  END
>  <minimizedAffinity>
-4.56045818

$$$$

 OpenBabel03252502543D

 25 26  0  0  0  0  0  0  0  0999 V2000
   41.7290   28.7720   42.3450 Br  0  0  0  0  0  0  0  0  0  0  0  0
   39.8780   28.4830   42.8200 C   0  0  0  0  0  0  0  0  0  0  0  0
   39.0310   29.5380   42.5920 C   0  0  0  0  0  0  0  0  0  0  0  0
   37.6890   29.2970   42.9470 C   0  0  0  0  0  0  0  0  0  0  0  0
   37.2570   28.1000   43.4820 C   0  0  0  0  0  0  0  0  0  0  0  0
   38.1700   27.0890   43.6800 C   0  0  0  0  0  0  0  0  0  0  0  0
   39.4930   27.2760   43.3480 C   0  0  0  0  0  0  0  0  0  0  0  0
   36.9430   30.0860   42.7990 H   0  0  0  0  0  0  0  0  0  0  0  0
   36.2330   27.9610   43.7360 H   0  0  0  0  0  0  0  0  0  0  0  0
   37.8210   26.1540   44.1000 H   0  0  0  0  0  0  0  0  0  0  0  0
   39.3590   30.8520   42.0340 C   0  0  0  0  0  0  0  0  0  0  0  0
   40.4480   30.9950   41.9030 H   0  0  0  0  0  0  0  0  0  0  0  0
   38.9770   31.6410   42.7370 H   0  0  0  0  0  0  0  0  0  0  0  0
   38.0990   30.6280   38.5350 C   0  0  0  0  0  0  0  0  0  0  0  0
   37.3530   31.8030   38.4060 C   0  0  0  0  0  0  0  0  0  0  0  0
   37.3050   32.6400   39.5260 C   0  0  0  0  0  0  0  0  0  0  0  0
   37.9540   32.3060   40.6630 N   0  0  0  0  0  0  0  0  0  0  0  0
   38.6790   31.1310   40.7390 C   0  0  0  0  0  0  0  0  0  0  0  0
   38.7260   30.3290   39.6690 N   0  0  0  0  0  0  0  0  0  0  0  0
   38.1980   29.9120   37.7240 H   0  0  0  0  0  0  0  0  0  0  0  0
   36.8540   32.0190   37.4700 H   0  0  0  0  0  0  0  0  0  0  0  0
   36.7380   33.5580   39.4610 H   0  0  0  0  0  0  0  0  0  0  0  0
   40.4540   26.1990   43.5620 C   0  0  0  0  0  0  0  0  0  0  0  0
   41.4280   26.4410   43.9890 H   0  0  0  0  0  0  0  0  0  0  0  0
   40.1600   25.0160   43.2590 O   0  0  0  0  0  0  0  0  0  0  0  0
  1  2  1  0  0  0  0
  2  7  1  0  0  0  0
  3  2  2  0  0  0  0
  3  4  1  0  0  0  0
  4  5  2  0  0  0  0
  5  6  1  0  0  0  0
  5  9  1  0  0  0  0
  6 10  1  0  0  0  0
  7 23  1  0  0  0  0
  7  6  2  0  0  0  0
  8  4  1  0  0  0  0
 11  3  1  0  0  0  0
 11 13  1  0  0  0  0
 12 11  1  0  0  0  0
 14 19  1  0  0  0  0
 15 14  2  0  0  0  0
 15 16  1  0  0  0  0
 16 17  2  0  0  0  0
 17 18  1  0  0  0  0
 18 11  1  0  0  0  0
 19 18  2  0  0  0  0
 20 14  1  0  0  0  0
 21 15  1  0  0  0  0
 22 16  1  0  0  0  0
 23 24  1  0  0  0  0
 25 23  2  0  0  0  0
M  END
>  <minimizedAffinity>
-4.50606537

$$$$

 OpenBabel03252502543D

 25 26  0  0  0  0  0  0  0  0999 V2000
   39.2980   30.0780   42.6420 Br  0  0  0  0  0  0  0  0  0  0  0  0
   37.7090   29.8560   41.5630 C   0  0  0  0  0  0  0  0  0  0  0  0
   36.9110   28.7890   41.8890 C   0  0  0  0  0  0  0  0  0  0  0  0
   35.7610   28.6530   41.0860 C   0  0  0  0  0  0  0  0  0  0  0  0
   35.4590   29.5200   40.0540 C   0  0  0  0  0  0  0  0  0  0  0  0
   36.3120   30.5680   39.7910 C   0  0  0  0  0  0  0  0  0  0  0  0
   37.4490   30.7420   40.5480 C   0  0  0  0  0  0  0  0  0  0  0  0
   35.0660   27.8280   41.2760 H   0  0  0  0  0  0  0  0  0  0  0  0
   34.5790   29.3800   39.4730 H   0  0  0  0  0  0  0  0  0  0  0  0
   36.0670   31.2410   38.9800 H   0  0  0  0  0  0  0  0  0  0  0  0
   37.1160   27.8020   42.9520 C   0  0  0  0  0  0  0  0  0  0  0  0
   36.1990   27.6250   43.5450 H   0  0  0  0  0  0  0  0  0  0  0  0
   37.9190   28.1820   43.6380 H   0  0  0  0  0  0  0  0  0  0  0  0
   37.3850   24.2490   41.8610 C   0  0  0  0  0  0  0  0  0  0  0  0
   38.7340   24.1420   41.5110 C   0  0  0  0  0  0  0  0  0  0  0  0
   39.5130   25.2940   41.6600 C   0  0  0  0  0  0  0  0  0  0  0  0
   38.9650   26.4400   42.1200 N   0  0  0  0  0  0  0  0  0  0  0  0
   37.6240   26.4940   42.4530 C   0  0  0  0  0  0  0  0  0  0  0  0
   36.8770   25.3920   42.3120 N   0  0  0  0  0  0  0  0  0  0  0  0
   36.6970   23.4120   41.7820 H   0  0  0  0  0  0  0  0  0  0  0  0
   39.1180   23.1970   41.1480 H   0  0  0  0  0  0  0  0  0  0  0  0
   40.5610   25.2460   41.3990 H   0  0  0  0  0  0  0  0  0  0  0  0
   38.3480   31.8550   40.2610 C   0  0  0  0  0  0  0  0  0  0  0  0
   39.2370   31.6700   39.6570 H   0  0  0  0  0  0  0  0  0  0  0  0
   38.0980   33.0040   40.7030 O   0  0  0  0  0  0  0  0  0  0  0  0
  2  3  1  0  0  0  0
  2  1  1  0  0  0  0
  3 11  1  0  0  0  0
  4  8  1  0  0  0  0
  4  3  2  0  0  0  0
  5  4  1  0  0  0  0
  6  5  2  0  0  0  0
  6  7  1  0  0  0  0
  7  2  2  0  0  0  0
  9  5  1  0  0  0  0
 10  6  1  0  0  0  0
 11 12  1  0  0  0  0
 11 13  1  0  0  0  0
 14 19  1  0  0  0  0
 15 16  1  0  0  0  0
 15 14  2  0  0  0  0
 16 17  2  0  0  0  0
 17 18  1  0  0  0  0
 18 11  1  0  0  0  0
 19 18  2  0  0  0  0
 20 14  1  0  0  0  0
 21 15  1  0  0  0  0
 22 16  1  0  0  0  0
 23  7  1  0  0  0  0
 23 25  2  0  0  0  0
 24 23  1  0  0  0  0
M  END
>  <minimizedAffinity>
-4.49206972

$$$$

 OpenBabel03252502543D

 25 26  0  0  0  0  0  0  0  0999 V2000
   38.3800   30.3580   38.6370 Br  0  0  0  0  0  0  0  0  0  0  0  0
   36.5750   29.6780   38.5070 C   0  0  0  0  0  0  0  0  0  0  0  0
   35.8150   29.7820   39.6450 C   0  0  0  0  0  0  0  0  0  0  0  0
   34.5050   29.2790   39.5200 C   0  0  0  0  0  0  0  0  0  0  0  0
   34.0220   28.7260   38.3510 C   0  0  0  0  0  0  0  0  0  0  0  0
   34.8470   28.6580   37.2530 C   0  0  0  0  0  0  0  0  0  0  0  0
   36.1370   29.1370   37.3250 C   0  0  0  0  0  0  0  0  0  0  0  0
   33.8270   29.3220   40.3810 H   0  0  0  0  0  0  0  0  0  0  0  0
   33.0240   28.3580   38.3020 H   0  0  0  0  0  0  0  0  0  0  0  0
   34.4590   28.2230   36.3410 H   0  0  0  0  0  0  0  0  0  0  0  0
   36.2050   30.3440   40.9410 C   0  0  0  0  0  0  0  0  0  0  0  0
   35.3390   30.7310   41.5100 H   0  0  0  0  0  0  0  0  0  0  0  0
   36.9210   31.1890   40.7590 H   0  0  0  0  0  0  0  0  0  0  0  0
   38.7820   28.7280   43.0920 C   0  0  0  0  0  0  0  0  0  0  0  0
   38.2040   27.4880   43.3770 C   0  0  0  0  0  0  0  0  0  0  0  0
   36.9440   27.2420   42.8210 C   0  0  0  0  0  0  0  0  0  0  0  0
   36.3380   28.1720   42.0520 N   0  0  0  0  0  0  0  0  0  0  0  0
   36.9530   29.3850   41.8000 C   0  0  0  0  0  0  0  0  0  0  0  0
   38.1590   29.6220   42.3310 N   0  0  0  0  0  0  0  0  0  0  0  0
   39.7570   29.0160   43.4760 H   0  0  0  0  0  0  0  0  0  0  0  0
   38.7370   26.7800   43.9990 H   0  0  0  0  0  0  0  0  0  0  0  0
   36.4690   26.2920   43.0210 H   0  0  0  0  0  0  0  0  0  0  0  0
   37.0050   29.0600   36.1560 C   0  0  0  0  0  0  0  0  0  0  0  0
   38.0860   29.0760   36.3020 H   0  0  0  0  0  0  0  0  0  0  0  0
   36.5140   28.9790   35.0030 O   0  0  0  0  0  0  0  0  0  0  0  0
  2  1  1  0  0  0  0
  2  3  1  0  0  0  0
  3 11  1  0  0  0  0
  4  3  2  0  0  0  0
  4  8  1  0  0  0  0
  5  4  1  0  0  0  0
  6  7  1  0  0  0  0
  6  5  2  0  0  0  0
  7  2  2  0  0  0  0
  9  5  1  0  0  0  0
 10  6  1  0  0  0  0
 11 12  1  0  0  0  0
 11 18  1  0  0  0  0
 13 11  1  0  0  0  0
 14 15  1  0  0  0  0
 14 20  1  0  0  0  0
 15 21  1  0  0  0  0
 16 22  1  0  0  0  0
 16 15  2  0  0  0  0
 17 16  1  0  0  0  0
 18 17  2  0  0  0  0
 18 19  1  0  0  0  0
 19 14  2  0  0  0  0
 23 24  1  0  0  0  0
 23  7  1  0  0  0  0
 25 23  2  0  0  0  0
M  END
>  <minimizedAffinity>
-4.38134336

$$$$

 OpenBabel03252502543D

 25 26  0  0  0  0  0  0  0  0999 V2000
   36.7980   26.2460   40.5360 Br  0  0  0  0  0  0  0  0  0  0  0  0
   38.2500   26.1630   41.8090 C   0  0  0  0  0  0  0  0  0  0  0  0
   38.2610   27.1470   42.7650 C   0  0  0  0  0  0  0  0  0  0  0  0
   39.3300   27.0600   43.6800 C   0  0  0  0  0  0  0  0  0  0  0  0
   40.2900   26.0690   43.6200 C   0  0  0  0  0  0  0  0  0  0  0  0
   40.2080   25.1180   42.6300 C   0  0  0  0  0  0  0  0  0  0  0  0
   39.1810   25.1600   41.7120 C   0  0  0  0  0  0  0  0  0  0  0  0
   39.4180   27.8060   44.4780 H   0  0  0  0  0  0  0  0  0  0  0  0
   41.0810   26.0430   44.3320 H   0  0  0  0  0  0  0  0  0  0  0  0
   40.9650   24.3460   42.5920 H   0  0  0  0  0  0  0  0  0  0  0  0
   37.3100   28.2470   42.9380 C   0  0  0  0  0  0  0  0  0  0  0  0
   37.1590   28.5120   44.0010 H   0  0  0  0  0  0  0  0  0  0  0  0
   36.3220   27.9330   42.5040 H   0  0  0  0  0  0  0  0  0  0  0  0
   39.1870   31.1230   41.4920 C   0  0  0  0  0  0  0  0  0  0  0  0
   38.2110   31.7680   40.7290 C   0  0  0  0  0  0  0  0  0  0  0  0
   36.9340   31.1970   40.7330 C   0  0  0  0  0  0  0  0  0  0  0  0
   36.6830   30.0770   41.4460 N   0  0  0  0  0  0  0  0  0  0  0  0
   37.6850   29.4770   42.1860 C   0  0  0  0  0  0  0  0  0  0  0  0
   38.9080   30.0210   42.1830 N   0  0  0  0  0  0  0  0  0  0  0  0
   40.2090   31.4860   41.5540 H   0  0  0  0  0  0  0  0  0  0  0  0
   38.4690   32.6630   40.1780 H   0  0  0  0  0  0  0  0  0  0  0  0
   36.1540   31.6720   40.1540 H   0  0  0  0  0  0  0  0  0  0  0  0
   39.1030   24.1480   40.6650 C   0  0  0  0  0  0  0  0  0  0  0  0
   39.6380   24.3170   39.7300 H   0  0  0  0  0  0  0  0  0  0  0  0
   38.4300   23.1020   40.8410 O   0  0  0  0  0  0  0  0  0  0  0  0
  1  2  1  0  0  0  0
  2  3  1  0  0  0  0
  3 11  1  0  0  0  0
  3  4  2  0  0  0  0
  4  8  1  0  0  0  0
  5  4  1  0  0  0  0
  5  9  1  0  0  0  0
  6  5  2  0  0  0  0
  7  2  2  0  0  0  0
  7  6  1  0  0  0  0
 10  6  1  0  0  0  0
 11 12  1  0  0  0  0
 13 11  1  0  0  0  0
 14 20  1  0  0  0  0
 14 19  1  0  0  0  0
 15 16  1  0  0  0  0
 15 14  2  0  0  0  0
 16 17  2  0  0  0  0
 17 18  1  0  0  0  0
 18 11  1  0  0  0  0
 19 18  2  0  0  0  0
 21 15  1  0  0  0  0
 22 16  1  0  0  0  0
 23 25  2  0  0  0  0
 23  7  1  0  0  0  0
 24 23  1  0  0  0  0
M  END
>  <minimizedAffinity>
-4.37658501

$$$$
