
 OpenBabel03252508323D

 26 27  0  0  1  0  0  0  0  0999 V2000
   45.9300   34.3070   41.7820 N   0  0  0  0  0  0  0  0  0  0  0  0
   47.3190   34.0670   41.5040 C   0  0  1  0  0  0  0  0  0  0  0  0
   47.6390   33.7820   40.0920 C   0  0  0  0  0  0  0  0  0  0  0  0
   46.6870   33.0750   39.3460 N   0  0  0  0  0  0  0  0  0  0  0  0
   45.3460   33.1090   39.7550 C   0  0  0  0  0  0  0  0  0  0  0  0
   45.0870   34.3290   40.6310 C   0  0  0  0  0  0  0  0  0  0  0  0
   47.7100   33.2890   42.1990 H   0  0  0  0  0  0  0  0  0  0  0  0
   47.9550   34.7260   39.5860 H   0  0  0  0  0  0  0  0  0  0  0  0
   48.5880   33.1670   40.0920 H   0  0  0  0  0  0  0  0  0  0  0  0
   46.7500   33.3750   38.3370 H   0  0  0  0  0  0  0  0  0  0  0  0
   45.1650   32.2340   40.4440 H   0  0  0  0  0  0  0  0  0  0  0  0
   44.6180   33.0020   38.9520 H   0  0  0  0  0  0  0  0  0  0  0  0
   44.0280   34.4910   40.7780 H   0  0  0  0  0  0  0  0  0  0  0  0
   45.4400   35.2040   40.0070 H   0  0  0  0  0  0  0  0  0  0  0  0
   44.8450   35.6480   43.4210 C   0  0  0  0  0  0  0  0  0  0  0  0
   45.5600   34.4930   43.1280 C   0  0  0  0  0  0  0  0  0  0  0  0
   45.8380   33.6500   44.1870 C   0  0  0  0  0  0  0  0  0  0  0  0
   45.4300   33.9410   45.4490 N   0  0  0  0  0  0  0  0  0  0  0  0
   44.7300   35.0870   45.6940 C   0  0  0  0  0  0  0  0  0  0  0  0
   44.4440   35.9240   44.6930 N   0  0  0  0  0  0  0  0  0  0  0  0
   44.5280   36.4290   42.7470 H   0  0  0  0  0  0  0  0  0  0  0  0
   46.3830   32.7670   43.9710 H   0  0  0  0  0  0  0  0  0  0  0  0
   44.4500   35.2300   46.7270 H   0  0  0  0  0  0  0  0  0  0  0  0
   48.0300   35.3400   41.9050 C   0  0  0  0  0  0  0  0  0  0  0  0
   47.8730   35.8710   42.8350 H   0  0  0  0  0  0  0  0  0  0  0  0
   48.8080   35.6940   41.0410 O   0  0  0  0  0  0  0  0  0  0  0  0
  1 16  1  0  0  0  0
  2  1  1  0  0  0  0
  2 24  1  0  0  0  0
  2  7  1  1  0  0  0
  3  9  1  0  0  0  0
  3  2  1  0  0  0  0
  4  5  1  0  0  0  0
  4  3  1  0  0  0  0
  5 11  1  0  0  0  0
  5  6  1  0  0  0  0
  6 13  1  0  0  0  0
  6  1  1  0  0  0  0
  8  3  1  0  0  0  0
 10  4  1  0  0  0  0
 12  5  1  0  0  0  0
 14  6  1  0  0  0  0
 15 20  1  0  0  0  0
 16 15  2  0  0  0  0
 16 17  1  0  0  0  0
 17 18  2  0  0  0  0
 18 19  1  0  0  0  0
 19 23  1  0  0  0  0
 20 19  2  0  0  0  0
 21 15  1  0  0  0  0
 22 17  1  0  0  0  0
 24 25  1  0  0  0  0
 26 24  2  0  0  0  0
M  END
>  <minimizedAffinity>
-3.96135759

>  <minimizedRMSD>
2.56387568

$$$$
