REMARK  Name = 
REMARK  9 active torsions:
REMARK  status: ('A' for Active; 'I' for Inactive)
REMARK    1  A    between atoms: O_1  and  C_2
REMARK    2  A    between atoms: O_1  and  P_10
REMARK    3  A    between atoms: C_6  and  C_7
REMARK    4  A    between atoms: C_7  and  O_8
REMARK    5  A    between atoms: P_10  and  O_11
REMARK    6  A    between atoms: P_10  and  O_12
REMARK    7  A    between atoms: O_12  and  C_13
REMARK    8  A    between atoms: C_13  and  C_16
REMARK    9  A    between atoms: C_18  and  C_36
REMARK                            x       y       z     vdW  Elec       q    Type
REMARK                         _______ _______ _______ _____ _____    ______ ____
ROOT
ATOM      1  O   UNL     1      46.574  34.908  43.249  0.00  0.00    +0.000 OA
ENDROOT
BRANCH   1   2
ATOM      2  C   UNL     1      46.806  33.972  42.231  0.00  0.00    +0.000 C 
ATOM      3  C   UNL     1      46.077  34.411  40.957  0.00  0.00    +0.000 C 
ATOM      4  C   UNL     1      46.684  33.474  39.943  0.00  0.00    +0.000 C 
ATOM      5  C   UNL     1      48.073  33.139  40.473  0.00  0.00    +0.000 C 
ATOM      6  C   UNL     1      48.221  33.962  41.745  0.00  0.00    +0.000 C 
ATOM      7  H   UNL     1      46.455  32.969  42.463  0.00  0.00    +0.000 HD
ATOM      8  H   UNL     1      45.010  34.078  41.108  0.00  0.00    +0.000 HD
ATOM      9  H   UNL     1      46.172  35.469  40.738  0.00  0.00    +0.000 HD
ATOM     10  H   UNL     1      46.843  34.087  39.022  0.00  0.00    +0.000 HD
ATOM     11  H   UNL     1      46.077  32.574  39.750  0.00  0.00    +0.000 HD
ATOM     12  H   UNL     1      48.123  32.062  40.781  0.00  0.00    +0.000 HD
ATOM     13  H   UNL     1      48.862  33.391  39.757  0.00  0.00    +0.000 HD
ATOM     14  H   UNL     1      48.858  33.393  42.476  0.00  0.00    +0.000 HD
BRANCH   6  15
ATOM     15  C   UNL     1      48.762  35.333  41.462  0.00  0.00    +0.000 C 
ATOM     16  H   UNL     1      49.331  35.267  40.497  0.00  0.00    +0.000 HD
ATOM     17  H   UNL     1      48.006  36.119  41.349  0.00  0.00    +0.000 HD
BRANCH  15  18
ATOM     18  O   UNL     1      49.654  35.760  42.421  0.00  0.00    +0.000 OA
ATOM     19  H   UNL     1      50.175  35.000  42.804  0.00  0.00    +0.000 HD
ENDBRANCH  15  18
ENDBRANCH   6  15
ENDBRANCH   1   2
BRANCH   1  21
ATOM     20  O   UNL     1      44.725  35.351  44.991  0.00  0.00    +0.000 OA
ATOM     21  P   UNL     1      45.579  34.239  44.412  0.00  0.00    +0.000 P 
BRANCH  21  22
ATOM     22  O   UNL     1      44.602  33.045  43.715  0.00  0.00    +0.000 OA
ATOM     23  H   UNL     1      43.886  33.527  43.197  0.00  0.00    +0.000 HD
ENDBRANCH  21  22
BRANCH  21  24
ATOM     24  O   UNL     1      46.474  33.494  45.606  0.00  0.00    +0.000 OA
BRANCH  24  25
ATOM     25  C   UNL     1      46.233  32.155  45.570  0.00  0.00    +0.000 C 
ATOM     26  H   UNL     1      45.493  31.784  44.866  0.00  0.00    +0.000 HD
ATOM     27  H   UNL     1      47.198  31.654  45.270  0.00  0.00    +0.000 HD
BRANCH  25  30
ATOM     28  C   UNL     1      45.651  31.902  49.237  0.00  0.00    +0.000 A 
ATOM     29  C   UNL     1      45.989  32.455  47.992  0.00  0.00    +0.000 A 
ATOM     30  C   UNL     1      45.885  31.606  46.892  0.00  0.00    +0.000 A 
ATOM     31  N   UNL     1      45.471  30.311  47.075  0.00  0.00    +0.000 NA
ATOM     32  C   UNL     1      45.156  29.815  48.288  0.00  0.00    +0.000 A 
ATOM     33  N   UNL     1      45.248  30.612  49.355  0.00  0.00    +0.000 NA
ATOM     34  H   UNL     1      45.716  32.526  50.132  0.00  0.00    +0.000 HD
ATOM     35  H   UNL     1      46.305  33.484  47.935  0.00  0.00    +0.000 HD
BRANCH  32  36
ATOM     36  C   UNL     1      44.722  28.428  48.418  0.00  0.00    +0.000 C 
ATOM     37  H   UNL     1      43.671  28.183  48.344  0.00  0.00    +0.000 HD
ATOM     38  O   UNL     1      45.597  27.529  48.619  0.00  0.00    +0.000 OA
ENDBRANCH  32  36
ENDBRANCH  25  30
ENDBRANCH  24  25
ENDBRANCH  21  24
ENDBRANCH   1  21
TORSDOF 9
