
 OpenBabel03252501293D

 32 33  0  0  0  0  0  0  0  0999 V2000
   46.3780   30.9760   46.9270 C   0  0  0  0  0  0  0  0  0  0  0  0
   45.0690   30.5670   46.9270 C   0  0  0  0  0  0  0  0  0  0  0  0
   44.6840   29.2870   47.2190 C   0  0  0  0  0  0  0  0  0  0  0  0
   45.6390   28.3760   47.5220 C   0  0  0  0  0  0  0  0  0  0  0  0
   46.9720   28.7660   47.5280 C   0  0  0  0  0  0  0  0  0  0  0  0
   47.3410   30.0640   47.2320 C   0  0  0  0  0  0  0  0  0  0  0  0
   44.3520   31.3600   46.6720 H   0  0  0  0  0  0  0  0  0  0  0  0
   43.6320   29.0620   47.1940 H   0  0  0  0  0  0  0  0  0  0  0  0
   47.6130   27.9120   47.7930 H   0  0  0  0  0  0  0  0  0  0  0  0
   49.2650   30.3370   48.6720 C   0  0  0  0  0  0  0  0  0  0  0  0
   48.8480   30.6130   49.8570 O   0  0  0  0  0  0  0  0  0  0  0  0
   48.7670   30.1080   47.3460 N   0  0  0  0  0  0  0  0  0  0  0  0
   50.2970   30.3210   49.0170 H   0  0  0  0  0  0  0  0  0  0  0  0
   49.5550   30.0110   46.6900 H   0  0  0  0  0  0  0  0  0  0  0  0
   46.9320   32.3030   46.6210 C   0  0  0  0  0  0  0  0  0  0  0  0
   46.3000   33.0410   47.1820 H   0  0  0  0  0  0  0  0  0  0  0  0
   47.9390   32.4030   47.1050 H   0  0  0  0  0  0  0  0  0  0  0  0
   46.9840   32.5590   45.1410 C   0  0  0  0  0  0  0  0  0  0  0  0
   46.6190   31.6610   44.5920 H   0  0  0  0  0  0  0  0  0  0  0  0
   48.0580   32.6920   44.8750 H   0  0  0  0  0  0  0  0  0  0  0  0
   44.6010   35.3340   45.4430 C   0  0  0  0  0  0  0  0  0  0  0  0
   44.7210   35.9660   44.1760 C   0  0  0  0  0  0  0  0  0  0  0  0
   45.6200   35.4100   43.2750 C   0  0  0  0  0  0  0  0  0  0  0  0
   46.3290   34.3200   43.6150 N   0  0  0  0  0  0  0  0  0  0  0  0
   46.1770   33.7560   44.8350 C   0  0  0  0  0  0  0  0  0  0  0  0
   45.3470   34.2340   45.7280 N   0  0  0  0  0  0  0  0  0  0  0  0
   43.9040   35.7540   46.1660 H   0  0  0  0  0  0  0  0  0  0  0  0
   44.1410   36.8340   43.9380 H   0  0  0  0  0  0  0  0  0  0  0  0
   45.7340   35.8700   42.2960 H   0  0  0  0  0  0  0  0  0  0  0  0
   45.1960   26.9930   47.8340 C   0  0  0  0  0  0  0  0  0  0  0  0
   45.5460   26.1660   47.2010 H   0  0  0  0  0  0  0  0  0  0  0  0
   44.4480   26.8420   48.8030 O   0  0  0  0  0  0  0  0  0  0  0  0
  1  6  1  0  0  0  0
  2  1  2  0  0  0  0
  2  3  1  0  0  0  0
  3  4  2  0  0  0  0
  4  5  1  0  0  0  0
  4 30  1  0  0  0  0
  5  9  1  0  0  0  0
  6 12  1  0  0  0  0
  6  5  2  0  0  0  0
  7  2  1  0  0  0  0
  8  3  1  0  0  0  0
 10 13  1  0  0  0  0
 10 11  2  0  0  0  0
 12 10  1  0  0  0  0
 14 12  1  0  0  0  0
 15  1  1  0  0  0  0
 15 17  1  0  0  0  0
 15 16  1  0  0  0  0
 18 15  1  0  0  0  0
 19 18  1  0  0  0  0
 20 18  1  0  0  0  0
 21 26  1  0  0  0  0
 21 27  1  0  0  0  0
 22 21  2  0  0  0  0
 23 24  2  0  0  0  0
 23 22  1  0  0  0  0
 24 25  1  0  0  0  0
 25 18  1  0  0  0  0
 25 26  2  0  0  0  0
 28 22  1  0  0  0  0
 29 23  1  0  0  0  0
 30 32  2  0  0  0  0
 31 30  1  0  0  0  0
M  END
>  <minimizedAffinity>
-4.43343687

>  <minimizedRMSD>
1.9398427

$$$$
