
 OpenBabel03252500423D

 22 23  0  0  1  0  0  0  0  0999 V2000
   36.3860   28.1980   42.1200 C   0  0  0  0  0  0  0  0  0  0  0  0
   35.4550   27.8930   42.6410 H   0  0  0  0  0  0  0  0  0  0  0  0
   36.7100   29.1490   42.5840 H   0  0  0  0  0  0  0  0  0  0  0  0
   37.4100   27.1730   42.4220 C   0  0  0  0  0  0  0  0  0  0  0  0
   38.3830   27.5850   43.3060 C   0  0  0  0  0  0  0  0  0  0  0  0
   39.4220   26.7150   43.6690 C   0  0  0  0  0  0  0  0  0  0  0  0
   39.3850   25.4840   43.1010 N   0  0  0  0  0  0  0  0  0  0  0  0
   38.4190   25.0850   42.2330 C   0  0  0  0  0  0  0  0  0  0  0  0
   37.4400   25.9250   41.8960 N   0  0  0  0  0  0  0  0  0  0  0  0
   38.6230   28.4670   43.8800 H   0  0  0  0  0  0  0  0  0  0  0  0
   40.2720   26.8130   44.3240 H   0  0  0  0  0  0  0  0  0  0  0  0
   38.4450   24.0850   41.8130 H   0  0  0  0  0  0  0  0  0  0  0  0
   36.2020   28.3960   40.6520 C   0  0  1  0  0  0  0  0  0  0  0  0
   34.8910   28.9870   40.2090 C   0  0  0  0  0  0  0  0  0  0  0  0
   36.1590   29.7960   40.1370 C   0  0  1  0  0  0  0  0  0  0  0  0
   36.5390   27.6380   39.9020 H   0  0  0  0  0  0  0  0  0  0  0  0
   34.4200   28.7530   39.2570 H   0  0  0  0  0  0  0  0  0  0  0  0
   34.1810   29.3520   41.0060 H   0  0  0  0  0  0  0  0  0  0  0  0
   36.5770   29.9910   39.1090 H   0  0  0  0  0  0  0  0  0  0  0  0
   36.4080   30.8460   41.1620 C   0  0  0  0  0  0  0  0  0  0  0  0
   36.1220   30.6180   42.1830 H   0  0  0  0  0  0  0  0  0  0  0  0
   36.9150   31.8380   40.6650 O   0  0  0  0  0  0  0  0  0  0  0  0
  1  4  1  0  0  0  0
  1  3  1  0  0  0  0
  1  2  1  0  0  0  0
  4  5  1  0  0  0  0
  5  6  2  0  0  0  0
  5 10  1  0  0  0  0
  6 11  1  0  0  0  0
  7  6  1  0  0  0  0
  8  7  2  0  0  0  0
  9  8  1  0  0  0  0
  9  4  2  0  0  0  0
 12  8  1  0  0  0  0
 13 16  1  6  0  0  0
 13  1  1  0  0  0  0
 14 13  1  0  0  0  0
 14 18  1  0  0  0  0
 15 19  1  6  0  0  0
 15 14  1  0  0  0  0
 15 13  1  0  0  0  0
 15 20  1  0  0  0  0
 17 14  1  0  0  0  0
 20 21  1  0  0  0  0
 22 20  2  0  0  0  0
M  END
>  <minimizedAffinity>
-3.66633439

$$$$

 OpenBabel03252500423D

 22 23  0  0  1  0  0  0  0  0999 V2000
   36.0350   28.4780   41.4110 C   0  0  0  0  0  0  0  0  0  0  0  0
   34.9800   28.6100   41.7270 H   0  0  0  0  0  0  0  0  0  0  0  0
   36.0600   27.5860   40.7560 H   0  0  0  0  0  0  0  0  0  0  0  0
   36.3960   29.6550   40.5910 C   0  0  0  0  0  0  0  0  0  0  0  0
   36.4090   29.4200   39.2330 C   0  0  0  0  0  0  0  0  0  0  0  0
   36.7450   30.4480   38.3410 C   0  0  0  0  0  0  0  0  0  0  0  0
   37.0430   31.6450   38.9060 N   0  0  0  0  0  0  0  0  0  0  0  0
   37.0260   31.8680   40.2460 C   0  0  0  0  0  0  0  0  0  0  0  0
   36.7050   30.8800   41.0800 N   0  0  0  0  0  0  0  0  0  0  0  0
   36.2100   28.6000   38.5610 H   0  0  0  0  0  0  0  0  0  0  0  0
   36.8220   30.4980   37.2670 H   0  0  0  0  0  0  0  0  0  0  0  0
   37.2730   32.8500   40.6360 H   0  0  0  0  0  0  0  0  0  0  0  0
   36.9720   28.2820   42.5580 C   0  0  1  0  0  0  0  0  0  0  0  0
   36.4910   27.4010   43.6800 C   0  0  0  0  0  0  0  0  0  0  0  0
   37.5710   26.9280   42.7440 C   0  0  1  0  0  0  0  0  0  0  0  0
   37.5810   29.1190   42.9790 H   0  0  0  0  0  0  0  0  0  0  0  0
   36.7850   27.5390   44.7170 H   0  0  0  0  0  0  0  0  0  0  0  0
   35.5140   26.8530   43.5390 H   0  0  0  0  0  0  0  0  0  0  0  0
   38.6150   26.8680   43.1650 H   0  0  0  0  0  0  0  0  0  0  0  0
   37.2290   25.9420   41.6830 C   0  0  0  0  0  0  0  0  0  0  0  0
   36.2750   26.0650   41.1830 H   0  0  0  0  0  0  0  0  0  0  0  0
   38.1180   25.1180   41.5410 O   0  0  0  0  0  0  0  0  0  0  0  0
  1  2  1  0  0  0  0
  1 13  1  0  0  0  0
  3  1  1  0  0  0  0
  4  9  1  0  0  0  0
  4  1  1  0  0  0  0
  5  4  2  0  0  0  0
  6  7  2  0  0  0  0
  6  5  1  0  0  0  0
  7  8  1  0  0  0  0
  8 12  1  0  0  0  0
  8  9  2  0  0  0  0
 10  5  1  0  0  0  0
 11  6  1  0  0  0  0
 13 15  1  0  0  0  0
 13 16  1  1  0  0  0
 13 14  1  0  0  0  0
 14 17  1  0  0  0  0
 15 19  1  1  0  0  0
 15 14  1  0  0  0  0
 18 14  1  0  0  0  0
 20 15  1  0  0  0  0
 21 20  1  0  0  0  0
 22 20  2  0  0  0  0
M  END
>  <minimizedAffinity>
-3.63705969

$$$$

 OpenBabel03252500423D

 22 23  0  0  1  0  0  0  0  0999 V2000
   37.2270   28.9570   41.6820 C   0  0  0  0  0  0  0  0  0  0  0  0
   36.1930   28.8470   41.2960 H   0  0  0  0  0  0  0  0  0  0  0  0
   37.8500   28.2290   41.1290 H   0  0  0  0  0  0  0  0  0  0  0  0
   37.6850   30.3160   41.3200 C   0  0  0  0  0  0  0  0  0  0  0  0
   38.9640   30.6150   41.7370 C   0  0  0  0  0  0  0  0  0  0  0  0
   39.5190   31.8760   41.4690 C   0  0  0  0  0  0  0  0  0  0  0  0
   38.7210   32.7380   40.7910 N   0  0  0  0  0  0  0  0  0  0  0  0
   37.4620   32.4340   40.3830 C   0  0  0  0  0  0  0  0  0  0  0  0
   36.9490   31.2320   40.6460 N   0  0  0  0  0  0  0  0  0  0  0  0
   39.7720   30.1250   42.2580 H   0  0  0  0  0  0  0  0  0  0  0  0
   40.4730   32.3250   41.6920 H   0  0  0  0  0  0  0  0  0  0  0  0
   36.8740   33.1690   39.8430 H   0  0  0  0  0  0  0  0  0  0  0  0
   37.3380   28.6970   43.1490 C   0  0  1  0  0  0  0  0  0  0  0  0
   36.6140   27.4870   43.6770 C   0  0  0  0  0  0  0  0  0  0  0  0
   38.1170   27.5020   43.5870 C   0  0  1  0  0  0  0  0  0  0  0  0
   37.2870   29.5180   43.9050 H   0  0  0  0  0  0  0  0  0  0  0  0
   36.1970   27.4300   44.6790 H   0  0  0  0  0  0  0  0  0  0  0  0
   36.1350   26.7910   42.9290 H   0  0  0  0  0  0  0  0  0  0  0  0
   38.6810   27.5700   44.5600 H   0  0  0  0  0  0  0  0  0  0  0  0
   38.7840   26.7530   42.4870 C   0  0  0  0  0  0  0  0  0  0  0  0
   38.1480   26.1830   41.8200 H   0  0  0  0  0  0  0  0  0  0  0  0
   39.9940   26.9090   42.5160 O   0  0  0  0  0  0  0  0  0  0  0  0
  1 13  1  0  0  0  0
  2  1  1  0  0  0  0
  3  1  1  0  0  0  0
  4  1  1  0  0  0  0
  4  5  1  0  0  0  0
  5 10  1  0  0  0  0
  6 11  1  0  0  0  0
  6  5  2  0  0  0  0
  7  6  1  0  0  0  0
  8  9  1  0  0  0  0
  8  7  2  0  0  0  0
  9  4  2  0  0  0  0
 12  8  1  0  0  0  0
 13 15  1  0  0  0  0
 13 14  1  0  0  0  0
 13 16  1  1  0  0  0
 14 17  1  0  0  0  0
 15 14  1  0  0  0  0
 15 19  1  1  0  0  0
 18 14  1  0  0  0  0
 20 22  2  0  0  0  0
 20 15  1  0  0  0  0
 21 20  1  0  0  0  0
M  END
>  <minimizedAffinity>
-3.59913802

$$$$

 OpenBabel03252500423D

 22 23  0  0  1  0  0  0  0  0999 V2000
   36.9610   27.1480   41.5850 C   0  0  0  0  0  0  0  0  0  0  0  0
   37.3930   27.9870   41.0010 H   0  0  0  0  0  0  0  0  0  0  0  0
   35.8990   27.0660   41.2830 H   0  0  0  0  0  0  0  0  0  0  0  0
   37.6530   25.9150   41.1520 C   0  0  0  0  0  0  0  0  0  0  0  0
   37.0240   24.7480   41.5270 C   0  0  0  0  0  0  0  0  0  0  0  0
   37.5800   23.5050   41.1900 C   0  0  0  0  0  0  0  0  0  0  0  0
   38.7420   23.5490   40.4910 N   0  0  0  0  0  0  0  0  0  0  0  0
   39.3550   24.7050   40.1240 C   0  0  0  0  0  0  0  0  0  0  0  0
   38.8130   25.8780   40.4530 N   0  0  0  0  0  0  0  0  0  0  0  0
   36.1280   24.4540   42.0520 H   0  0  0  0  0  0  0  0  0  0  0  0
   37.2770   22.4860   41.3710 H   0  0  0  0  0  0  0  0  0  0  0  0
   40.2840   24.6730   39.5650 H   0  0  0  0  0  0  0  0  0  0  0  0
   37.0460   27.3540   43.0620 C   0  0  1  0  0  0  0  0  0  0  0  0
   38.4150   27.2520   43.6800 C   0  0  0  0  0  0  0  0  0  0  0  0
   37.7280   28.5860   43.5550 C   0  0  1  0  0  0  0  0  0  0  0  0
   36.2890   26.9310   43.7670 H   0  0  0  0  0  0  0  0  0  0  0  0
   38.5890   26.8980   44.6930 H   0  0  0  0  0  0  0  0  0  0  0  0
   39.3000   27.1450   42.9880 H   0  0  0  0  0  0  0  0  0  0  0  0
   37.3490   29.0510   44.5090 H   0  0  0  0  0  0  0  0  0  0  0  0
   38.1650   29.5280   42.4880 C   0  0  0  0  0  0  0  0  0  0  0  0
   37.6900   29.4310   41.5180 H   0  0  0  0  0  0  0  0  0  0  0  0
   39.0240   30.2920   42.8970 O   0  0  0  0  0  0  0  0  0  0  0  0
  1 13  1  0  0  0  0
  2  1  1  0  0  0  0
  3  1  1  0  0  0  0
  4  5  1  0  0  0  0
  4  1  1  0  0  0  0
  5 10  1  0  0  0  0
  6 11  1  0  0  0  0
  6  5  2  0  0  0  0
  7  6  1  0  0  0  0
  8  9  1  0  0  0  0
  8  7  2  0  0  0  0
  9  4  2  0  0  0  0
 12  8  1  0  0  0  0
 13 15  1  0  0  0  0
 13 14  1  0  0  0  0
 13 16  1  1  0  0  0
 14 17  1  0  0  0  0
 15 14  1  0  0  0  0
 15 19  1  1  0  0  0
 18 14  1  0  0  0  0
 20 22  2  0  0  0  0
 20 15  1  0  0  0  0
 21 20  1  0  0  0  0
M  END
>  <minimizedAffinity>
-3.58219075

$$$$

 OpenBabel03252500423D

 22 23  0  0  1  0  0  0  0  0999 V2000
   38.3170   31.2480   40.8490 C   0  0  0  0  0  0  0  0  0  0  0  0
   38.9920   31.8120   41.5260 H   0  0  0  0  0  0  0  0  0  0  0  0
   38.9430   30.8780   40.0150 H   0  0  0  0  0  0  0  0  0  0  0  0
   37.8250   30.0750   41.6040 C   0  0  0  0  0  0  0  0  0  0  0  0
   36.8200   29.3740   40.9720 C   0  0  0  0  0  0  0  0  0  0  0  0
   36.2540   28.2450   41.5840 C   0  0  0  0  0  0  0  0  0  0  0  0
   36.7610   27.9170   42.7990 N   0  0  0  0  0  0  0  0  0  0  0  0
   37.7520   28.6130   43.4130 C   0  0  0  0  0  0  0  0  0  0  0  0
   38.2790   29.6840   42.8190 N   0  0  0  0  0  0  0  0  0  0  0  0
   36.2740   29.4190   40.0440 H   0  0  0  0  0  0  0  0  0  0  0  0
   35.4780   27.5570   41.2900 H   0  0  0  0  0  0  0  0  0  0  0  0
   38.1150   28.2980   44.3850 H   0  0  0  0  0  0  0  0  0  0  0  0
   37.2010   32.0780   40.3060 C   0  0  1  0  0  0  0  0  0  0  0  0
   37.5690   33.4350   39.7690 C   0  0  0  0  0  0  0  0  0  0  0  0
   37.1690   32.3250   38.8350 C   0  0  1  0  0  0  0  0  0  0  0  0
   36.2030   32.1350   40.8060 H   0  0  0  0  0  0  0  0  0  0  0  0
   36.9010   34.2930   39.8030 H   0  0  0  0  0  0  0  0  0  0  0  0
   38.6640   33.6970   39.7000 H   0  0  0  0  0  0  0  0  0  0  0  0
   36.1610   32.4190   38.3390 H   0  0  0  0  0  0  0  0  0  0  0  0
   38.2230   31.6160   38.0590 C   0  0  0  0  0  0  0  0  0  0  0  0
   39.2480   31.9360   38.2100 H   0  0  0  0  0  0  0  0  0  0  0  0
   37.7410   30.7500   37.3460 O   0  0  0  0  0  0  0  0  0  0  0  0
  1  2  1  0  0  0  0
  1  4  1  0  0  0  0
  3  1  1  0  0  0  0
  4  9  1  0  0  0  0
  5  6  1  0  0  0  0
  5  4  2  0  0  0  0
  6  7  2  0  0  0  0
  7  8  1  0  0  0  0
  8 12  1  0  0  0  0
  9  8  2  0  0  0  0
 10  5  1  0  0  0  0
 11  6  1  0  0  0  0
 13 16  1  1  0  0  0
 13  1  1  0  0  0  0
 14 17  1  0  0  0  0
 14 13  1  0  0  0  0
 15 19  1  6  0  0  0
 15 14  1  0  0  0  0
 15 13  1  0  0  0  0
 18 14  1  0  0  0  0
 20 21  1  0  0  0  0
 20 15  1  0  0  0  0
 22 20  2  0  0  0  0
M  END
>  <minimizedAffinity>
-3.56963396

$$$$

 OpenBabel03252500423D

 22 23  0  0  1  0  0  0  0  0999 V2000
   36.6970   31.1010   40.8240 C   0  0  0  0  0  0  0  0  0  0  0  0
   35.6030   31.0070   40.6620 H   0  0  0  0  0  0  0  0  0  0  0  0
   36.8480   32.0040   41.4450 H   0  0  0  0  0  0  0  0  0  0  0  0
   37.1210   29.9270   41.6190 C   0  0  0  0  0  0  0  0  0  0  0  0
   36.3370   28.8080   41.4430 C   0  0  0  0  0  0  0  0  0  0  0  0
   36.6210   27.6280   42.1460 C   0  0  0  0  0  0  0  0  0  0  0  0
   37.6920   27.6810   42.9770 N   0  0  0  0  0  0  0  0  0  0  0  0
   38.4610   28.7880   43.1430 C   0  0  0  0  0  0  0  0  0  0  0  0
   38.1760   29.9020   42.4680 N   0  0  0  0  0  0  0  0  0  0  0  0
   35.4770   28.5160   40.8610 H   0  0  0  0  0  0  0  0  0  0  0  0
   36.1600   26.6540   42.1710 H   0  0  0  0  0  0  0  0  0  0  0  0
   39.3050   28.7660   43.8230 H   0  0  0  0  0  0  0  0  0  0  0  0
   37.4710   31.2320   39.5540 C   0  0  1  0  0  0  0  0  0  0  0  0
   37.1810   32.4420   38.7080 C   0  0  0  0  0  0  0  0  0  0  0  0
   38.4780   32.3290   39.4630 C   0  0  1  0  0  0  0  0  0  0  0  0
   37.6800   30.3570   38.8910 H   0  0  0  0  0  0  0  0  0  0  0  0
   37.2580   32.4460   37.6230 H   0  0  0  0  0  0  0  0  0  0  0  0
   36.4920   33.2290   39.1310 H   0  0  0  0  0  0  0  0  0  0  0  0
   39.4060   32.1420   38.8500 H   0  0  0  0  0  0  0  0  0  0  0  0
   38.6600   33.1170   40.7130 C   0  0  0  0  0  0  0  0  0  0  0  0
   37.8490   33.0970   41.4310 H   0  0  0  0  0  0  0  0  0  0  0  0
   39.7420   33.6820   40.7260 O   0  0  0  0  0  0  0  0  0  0  0  0
  1  3  1  0  0  0  0
  1  4  1  0  0  0  0
  2  1  1  0  0  0  0
  4  9  1  0  0  0  0
  5  4  2  0  0  0  0
  5  6  1  0  0  0  0
  6 11  1  0  0  0  0
  6  7  2  0  0  0  0
  7  8  1  0  0  0  0
  8 12  1  0  0  0  0
  9  8  2  0  0  0  0
 10  5  1  0  0  0  0
 13 16  1  6  0  0  0
 13  1  1  0  0  0  0
 14 18  1  0  0  0  0
 14 15  1  0  0  0  0
 14 13  1  0  0  0  0
 15 19  1  6  0  0  0
 15 13  1  0  0  0  0
 15 20  1  0  0  0  0
 17 14  1  0  0  0  0
 20 22  2  0  0  0  0
 20 21  1  0  0  0  0
M  END
>  <minimizedAffinity>
-3.5373168

$$$$

 OpenBabel03252500423D

 22 23  0  0  1  0  0  0  0  0999 V2000
   37.2170   27.2980   41.2530 C   0  0  0  0  0  0  0  0  0  0  0  0
   37.1290   26.2060   41.4310 H   0  0  0  0  0  0  0  0  0  0  0  0
   38.2600   27.4830   40.9310 H   0  0  0  0  0  0  0  0  0  0  0  0
   36.3260   27.6270   40.1190 C   0  0  0  0  0  0  0  0  0  0  0  0
   35.5140   28.7200   40.3330 C   0  0  0  0  0  0  0  0  0  0  0  0
   34.6110   29.1340   39.3430 C   0  0  0  0  0  0  0  0  0  0  0  0
   34.6080   28.3980   38.2030 N   0  0  0  0  0  0  0  0  0  0  0  0
   35.4130   27.3230   38.0010 C   0  0  0  0  0  0  0  0  0  0  0  0
   36.2650   26.9420   38.9530 N   0  0  0  0  0  0  0  0  0  0  0  0
   35.3390   29.4480   41.1100 H   0  0  0  0  0  0  0  0  0  0  0  0
   33.8940   29.9380   39.2860 H   0  0  0  0  0  0  0  0  0  0  0  0
   35.3630   26.7750   37.0650 H   0  0  0  0  0  0  0  0  0  0  0  0
   36.9160   28.1180   42.4640 C   0  0  1  0  0  0  0  0  0  0  0  0
   36.4160   27.3760   43.6750 C   0  0  0  0  0  0  0  0  0  0  0  0
   37.8040   27.9580   43.6520 C   0  0  1  0  0  0  0  0  0  0  0  0
   36.4040   29.1100   42.4000 H   0  0  0  0  0  0  0  0  0  0  0  0
   35.7300   27.8070   44.4000 H   0  0  0  0  0  0  0  0  0  0  0  0
   36.4110   26.2480   43.6370 H   0  0  0  0  0  0  0  0  0  0  0  0
   37.9840   28.8630   44.3000 H   0  0  0  0  0  0  0  0  0  0  0  0
   38.9670   27.0520   43.4460 C   0  0  0  0  0  0  0  0  0  0  0  0
   38.7540   25.9960   43.3180 H   0  0  0  0  0  0  0  0  0  0  0  0
   40.0180   27.6710   43.4550 O   0  0  0  0  0  0  0  0  0  0  0  0
  1  2  1  0  0  0  0
  1 13  1  0  0  0  0
  3  1  1  0  0  0  0
  4  5  1  0  0  0  0
  4  1  1  0  0  0  0
  5 10  1  0  0  0  0
  6  5  2  0  0  0  0
  7  6  1  0  0  0  0
  8  7  2  0  0  0  0
  8  9  1  0  0  0  0
  9  4  2  0  0  0  0
 11  6  1  0  0  0  0
 12  8  1  0  0  0  0
 13 16  1  6  0  0  0
 13 15  1  0  0  0  0
 13 14  1  0  0  0  0
 14 17  1  0  0  0  0
 15 14  1  0  0  0  0
 15 19  1  1  0  0  0
 18 14  1  0  0  0  0
 20 22  2  0  0  0  0
 20 15  1  0  0  0  0
 21 20  1  0  0  0  0
M  END
>  <minimizedAffinity>
-3.51904798

$$$$

 OpenBabel03252500423D

 22 23  0  0  1  0  0  0  0  0999 V2000
   36.7970   30.5220   39.3660 C   0  0  0  0  0  0  0  0  0  0  0  0
   36.4240   30.8740   38.3820 H   0  0  0  0  0  0  0  0  0  0  0  0
   37.4260   29.6340   39.1670 H   0  0  0  0  0  0  0  0  0  0  0  0
   37.6720   31.5860   39.9050 C   0  0  0  0  0  0  0  0  0  0  0  0
   37.2920   32.8650   39.5590 C   0  0  0  0  0  0  0  0  0  0  0  0
   38.0420   33.9670   39.9940 C   0  0  0  0  0  0  0  0  0  0  0  0
   39.1270   33.6790   40.7550 N   0  0  0  0  0  0  0  0  0  0  0  0
   39.4930   32.4150   41.0940 C   0  0  0  0  0  0  0  0  0  0  0  0
   38.7700   31.3780   40.6710 N   0  0  0  0  0  0  0  0  0  0  0  0
   36.5020   33.3410   39.0000 H   0  0  0  0  0  0  0  0  0  0  0  0
   37.9410   35.0310   39.8520 H   0  0  0  0  0  0  0  0  0  0  0  0
   40.3730   32.2500   41.7070 H   0  0  0  0  0  0  0  0  0  0  0  0
   35.7030   30.1580   40.3150 C   0  0  1  0  0  0  0  0  0  0  0  0
   34.7210   29.1180   39.8450 C   0  0  0  0  0  0  0  0  0  0  0  0
   35.7280   28.7920   40.9150 C   0  0  1  0  0  0  0  0  0  0  0  0
   35.1670   30.9230   40.9290 H   0  0  0  0  0  0  0  0  0  0  0  0
   33.6770   29.1000   40.1500 H   0  0  0  0  0  0  0  0  0  0  0  0
   34.9320   28.5960   38.8670 H   0  0  0  0  0  0  0  0  0  0  0  0
   35.3310   28.6710   41.9630 H   0  0  0  0  0  0  0  0  0  0  0  0
   36.9220   27.9750   40.5620 C   0  0  0  0  0  0  0  0  0  0  0  0
   36.9840   27.6060   39.5440 H   0  0  0  0  0  0  0  0  0  0  0  0
   37.6700   27.8490   41.5180 O   0  0  0  0  0  0  0  0  0  0  0  0
  1  4  1  0  0  0  0
  1 13  1  0  0  0  0
  2  1  1  0  0  0  0
  3  1  1  0  0  0  0
  4  9  1  0  0  0  0
  5  4  2  0  0  0  0
  5  6  1  0  0  0  0
  6  7  2  0  0  0  0
  7  8  1  0  0  0  0
  8 12  1  0  0  0  0
  9  8  2  0  0  0  0
 10  5  1  0  0  0  0
 11  6  1  0  0  0  0
 13 15  1  0  0  0  0
 13 16  1  1  0  0  0
 14 17  1  0  0  0  0
 14 13  1  0  0  0  0
 14 15  1  0  0  0  0
 15 19  1  1  0  0  0
 18 14  1  0  0  0  0
 20 15  1  0  0  0  0
 20 22  2  0  0  0  0
 21 20  1  0  0  0  0
M  END
>  <minimizedAffinity>
-3.50380373

$$$$

 OpenBabel03252500423D

 22 23  0  0  1  0  0  0  0  0999 V2000
   37.5660   28.1990   41.2100 C   0  0  0  0  0  0  0  0  0  0  0  0
   36.9580   27.3790   40.7750 H   0  0  0  0  0  0  0  0  0  0  0  0
   38.6250   27.8950   41.1100 H   0  0  0  0  0  0  0  0  0  0  0  0
   37.3560   29.3940   40.3620 C   0  0  0  0  0  0  0  0  0  0  0  0
   37.2470   30.5760   41.0630 C   0  0  0  0  0  0  0  0  0  0  0  0
   37.0330   31.7840   40.3820 C   0  0  0  0  0  0  0  0  0  0  0  0
   36.9490   31.6910   39.0310 N   0  0  0  0  0  0  0  0  0  0  0  0
   37.0590   30.5220   38.3490 C   0  0  0  0  0  0  0  0  0  0  0  0
   37.2610   29.3830   39.0110 N   0  0  0  0  0  0  0  0  0  0  0  0
   37.2870   30.9050   42.0890 H   0  0  0  0  0  0  0  0  0  0  0  0
   36.9180   32.8040   40.7080 H   0  0  0  0  0  0  0  0  0  0  0  0
   36.9830   30.5150   37.2670 H   0  0  0  0  0  0  0  0  0  0  0  0
   37.2550   28.4650   42.6460 C   0  0  1  0  0  0  0  0  0  0  0  0
   36.5700   27.3600   43.4040 C   0  0  0  0  0  0  0  0  0  0  0  0
   38.0120   27.6950   43.6760 C   0  0  1  0  0  0  0  0  0  0  0  0
   36.8670   29.4520   42.9990 H   0  0  0  0  0  0  0  0  0  0  0  0
   35.8760   27.5360   44.2220 H   0  0  0  0  0  0  0  0  0  0  0  0
   36.4390   26.3660   42.8850 H   0  0  0  0  0  0  0  0  0  0  0  0
   38.2360   28.2070   44.6550 H   0  0  0  0  0  0  0  0  0  0  0  0
   39.0770   26.8070   43.1360 C   0  0  0  0  0  0  0  0  0  0  0  0
   38.7880   26.0990   42.3670 H   0  0  0  0  0  0  0  0  0  0  0  0
   40.1520   27.0310   43.6690 O   0  0  0  0  0  0  0  0  0  0  0  0
  1 13  1  0  0  0  0
  2  1  1  0  0  0  0
  3  1  1  0  0  0  0
  4  5  1  0  0  0  0
  4  1  1  0  0  0  0
  5 10  1  0  0  0  0
  6 11  1  0  0  0  0
  6  5  2  0  0  0  0
  7  6  1  0  0  0  0
  8  9  1  0  0  0  0
  8  7  2  0  0  0  0
  9  4  2  0  0  0  0
 12  8  1  0  0  0  0
 13 16  1  1  0  0  0
 13 14  1  0  0  0  0
 13 15  1  0  0  0  0
 14 15  1  0  0  0  0
 14 17  1  0  0  0  0
 15 19  1  1  0  0  0
 18 14  1  0  0  0  0
 20 22  2  0  0  0  0
 20 15  1  0  0  0  0
 21 20  1  0  0  0  0
M  END
>  <minimizedAffinity>
-3.49637938

$$$$
