
 OpenBabel03252501303D

 32 33  0  0  0  0  0  0  0  0999 V2000
   37.7320   29.7640   42.1770 C   0  0  0  0  0  0  0  0  0  0  0  0
   39.0020   30.2760   42.2520 C   0  0  0  0  0  0  0  0  0  0  0  0
   39.4040   31.3870   41.5610 C   0  0  0  0  0  0  0  0  0  0  0  0
   38.5080   32.0120   40.7610 C   0  0  0  0  0  0  0  0  0  0  0  0
   37.2160   31.5120   40.6680 C   0  0  0  0  0  0  0  0  0  0  0  0
   36.8280   30.3900   41.3750 C   0  0  0  0  0  0  0  0  0  0  0  0
   39.6720   29.7170   42.9190 H   0  0  0  0  0  0  0  0  0  0  0  0
   40.4220   31.7140   41.6860 H   0  0  0  0  0  0  0  0  0  0  0  0
   36.6200   32.1320   39.9820 H   0  0  0  0  0  0  0  0  0  0  0  0
   35.2130   29.2870   39.9510 C   0  0  0  0  0  0  0  0  0  0  0  0
   35.8520   28.6370   39.0420 O   0  0  0  0  0  0  0  0  0  0  0  0
   35.4500   30.1740   41.0530 N   0  0  0  0  0  0  0  0  0  0  0  0
   34.2630   28.9050   39.5840 H   0  0  0  0  0  0  0  0  0  0  0  0
   34.5520   30.5080   41.4300 H   0  0  0  0  0  0  0  0  0  0  0  0
   37.1710   28.5810   42.8450 C   0  0  0  0  0  0  0  0  0  0  0  0
   36.3710   28.9630   43.5320 H   0  0  0  0  0  0  0  0  0  0  0  0
   36.6010   27.9700   42.0960 H   0  0  0  0  0  0  0  0  0  0  0  0
   38.2330   27.7790   43.5450 C   0  0  0  0  0  0  0  0  0  0  0  0
   38.0040   27.7230   44.6330 H   0  0  0  0  0  0  0  0  0  0  0  0
   39.1860   28.3460   43.4390 H   0  0  0  0  0  0  0  0  0  0  0  0
   37.3630   24.7530   41.6590 C   0  0  0  0  0  0  0  0  0  0  0  0
   38.5240   23.9520   41.8340 C   0  0  0  0  0  0  0  0  0  0  0  0
   39.5550   24.4910   42.5910 C   0  0  0  0  0  0  0  0  0  0  0  0
   39.4310   25.7180   43.1250 N   0  0  0  0  0  0  0  0  0  0  0  0
   38.3040   26.4410   42.9270 C   0  0  0  0  0  0  0  0  0  0  0  0
   37.2980   25.9880   42.2230 N   0  0  0  0  0  0  0  0  0  0  0  0
   36.5420   24.3510   41.0680 H   0  0  0  0  0  0  0  0  0  0  0  0
   38.5890   22.9780   41.3940 H   0  0  0  0  0  0  0  0  0  0  0  0
   40.4570   23.9020   42.7440 H   0  0  0  0  0  0  0  0  0  0  0  0
   38.9690   33.2140   40.0200 C   0  0  0  0  0  0  0  0  0  0  0  0
   39.9770   33.2170   39.5840 H   0  0  0  0  0  0  0  0  0  0  0  0
   38.1820   34.1610   39.9310 O   0  0  0  0  0  0  0  0  0  0  0  0
  1  2  1  0  0  0  0
  1 15  1  0  0  0  0
  2  7  1  0  0  0  0
  3  8  1  0  0  0  0
  3  2  2  0  0  0  0
  4  3  1  0  0  0  0
  5  4  2  0  0  0  0
  5  6  1  0  0  0  0
  6  1  2  0  0  0  0
  9  5  1  0  0  0  0
 10 12  1  0  0  0  0
 11 10  2  0  0  0  0
 12  6  1  0  0  0  0
 12 14  1  0  0  0  0
 13 10  1  0  0  0  0
 15 16  1  0  0  0  0
 15 18  1  0  0  0  0
 17 15  1  0  0  0  0
 18 19  1  0  0  0  0
 20 18  1  0  0  0  0
 21 22  2  0  0  0  0
 21 26  1  0  0  0  0
 22 23  1  0  0  0  0
 23 29  1  0  0  0  0
 23 24  2  0  0  0  0
 25 24  1  0  0  0  0
 25 18  1  0  0  0  0
 26 25  2  0  0  0  0
 27 21  1  0  0  0  0
 28 22  1  0  0  0  0
 30  4  1  0  0  0  0
 31 30  1  0  0  0  0
 32 30  2  0  0  0  0
M  END
>  <minimizedAffinity>
-5.16565228

$$$$

 OpenBabel03252501303D

 32 33  0  0  0  0  0  0  0  0999 V2000
   36.2240   28.4160   40.5020 C   0  0  0  0  0  0  0  0  0  0  0  0
   36.2090   27.4710   39.5090 C   0  0  0  0  0  0  0  0  0  0  0  0
   36.5880   26.1720   39.7060 C   0  0  0  0  0  0  0  0  0  0  0  0
   36.9980   25.7960   40.9410 C   0  0  0  0  0  0  0  0  0  0  0  0
   37.0210   26.7360   41.9630 C   0  0  0  0  0  0  0  0  0  0  0  0
   36.6340   28.0440   41.7440 C   0  0  0  0  0  0  0  0  0  0  0  0
   35.8660   27.8490   38.5360 H   0  0  0  0  0  0  0  0  0  0  0  0
   36.5410   25.5020   38.8650 H   0  0  0  0  0  0  0  0  0  0  0  0
   37.3760   26.2710   42.8950 H   0  0  0  0  0  0  0  0  0  0  0  0
   38.1090   29.1040   43.3420 C   0  0  0  0  0  0  0  0  0  0  0  0
   39.3180   28.9830   42.9190 O   0  0  0  0  0  0  0  0  0  0  0  0
   36.7710   28.7150   43.0020 N   0  0  0  0  0  0  0  0  0  0  0  0
   38.4440   29.6970   44.1910 H   0  0  0  0  0  0  0  0  0  0  0  0
   36.1250   28.9990   43.7510 H   0  0  0  0  0  0  0  0  0  0  0  0
   35.8620   29.8400   40.4290 C   0  0  0  0  0  0  0  0  0  0  0  0
   34.7420   29.8740   40.3830 H   0  0  0  0  0  0  0  0  0  0  0  0
   36.0970   30.3310   41.4100 H   0  0  0  0  0  0  0  0  0  0  0  0
   36.5330   30.5280   39.2720 C   0  0  0  0  0  0  0  0  0  0  0  0
   35.7620   30.8970   38.5580 H   0  0  0  0  0  0  0  0  0  0  0  0
   37.1300   29.7520   38.7400 H   0  0  0  0  0  0  0  0  0  0  0  0
   39.1230   32.3770   41.1000 C   0  0  0  0  0  0  0  0  0  0  0  0
   38.8630   33.7180   40.7060 C   0  0  0  0  0  0  0  0  0  0  0  0
   37.8090   33.9240   39.8270 C   0  0  0  0  0  0  0  0  0  0  0  0
   37.0830   32.8820   39.3860 N   0  0  0  0  0  0  0  0  0  0  0  0
   37.3730   31.6250   39.7920 C   0  0  0  0  0  0  0  0  0  0  0  0
   38.3540   31.3650   40.6190 N   0  0  0  0  0  0  0  0  0  0  0  0
   39.9460   32.1910   41.7880 H   0  0  0  0  0  0  0  0  0  0  0  0
   39.4620   34.5240   41.0770 H   0  0  0  0  0  0  0  0  0  0  0  0
   37.5830   34.9390   39.5070 H   0  0  0  0  0  0  0  0  0  0  0  0
   37.4050   24.3810   41.1300 C   0  0  0  0  0  0  0  0  0  0  0  0
   37.3490   23.6910   40.2770 H   0  0  0  0  0  0  0  0  0  0  0  0
   37.7910   24.0470   42.2540 O   0  0  0  0  0  0  0  0  0  0  0  0
  1  6  1  0  0  0  0
  2  3  1  0  0  0  0
  2  1  2  0  0  0  0
  3  4  2  0  0  0  0
  4 30  1  0  0  0  0
  4  5  1  0  0  0  0
  5  9  1  0  0  0  0
  6  5  2  0  0  0  0
  6 12  1  0  0  0  0
  7  2  1  0  0  0  0
  8  3  1  0  0  0  0
 10 13  1  0  0  0  0
 11 10  2  0  0  0  0
 12 10  1  0  0  0  0
 12 14  1  0  0  0  0
 15  1  1  0  0  0  0
 15 17  1  0  0  0  0
 16 15  1  0  0  0  0
 18 25  1  0  0  0  0
 18 15  1  0  0  0  0
 19 18  1  0  0  0  0
 20 18  1  0  0  0  0
 21 27  1  0  0  0  0
 22 28  1  0  0  0  0
 22 21  1  0  0  0  0
 23 22  2  0  0  0  0
 24 25  2  0  0  0  0
 24 23  1  0  0  0  0
 25 26  1  0  0  0  0
 26 21  2  0  0  0  0
 29 23  1  0  0  0  0
 30 32  2  0  0  0  0
 31 30  1  0  0  0  0
M  END
>  <minimizedAffinity>
-5.09128284

$$$$

 OpenBabel03252501303D

 32 33  0  0  0  0  0  0  0  0999 V2000
   38.6890   28.9100   42.8030 C   0  0  0  0  0  0  0  0  0  0  0  0
   39.3060   27.7250   43.1100 C   0  0  0  0  0  0  0  0  0  0  0  0
   38.7060   26.5050   42.9530 C   0  0  0  0  0  0  0  0  0  0  0  0
   37.4420   26.4620   42.4710 C   0  0  0  0  0  0  0  0  0  0  0  0
   36.7950   27.6500   42.1530 C   0  0  0  0  0  0  0  0  0  0  0  0
   37.4180   28.8720   42.3190 C   0  0  0  0  0  0  0  0  0  0  0  0
   40.3290   27.8390   43.4950 H   0  0  0  0  0  0  0  0  0  0  0  0
   39.2730   25.6290   43.2200 H   0  0  0  0  0  0  0  0  0  0  0  0
   35.7830   27.4390   41.7780 H   0  0  0  0  0  0  0  0  0  0  0  0
   36.4020   30.0480   40.4650 C   0  0  0  0  0  0  0  0  0  0  0  0
   36.9820   29.6710   39.3800 O   0  0  0  0  0  0  0  0  0  0  0  0
   36.4760   29.8590   41.8850 N   0  0  0  0  0  0  0  0  0  0  0  0
   35.7080   30.6690   39.9030 H   0  0  0  0  0  0  0  0  0  0  0  0
   35.8130   30.4910   42.3560 H   0  0  0  0  0  0  0  0  0  0  0  0
   39.2030   30.2820   42.9350 C   0  0  0  0  0  0  0  0  0  0  0  0
   38.3270   30.9590   42.7550 H   0  0  0  0  0  0  0  0  0  0  0  0
   39.4640   30.4750   44.0090 H   0  0  0  0  0  0  0  0  0  0  0  0
   40.3610   30.5360   42.0120 C   0  0  0  0  0  0  0  0  0  0  0  0
   40.4720   29.6820   41.3060 H   0  0  0  0  0  0  0  0  0  0  0  0
   41.2780   30.5590   42.6450 H   0  0  0  0  0  0  0  0  0  0  0  0
   40.9430   33.6790   40.2080 C   0  0  0  0  0  0  0  0  0  0  0  0
   39.6200   34.1610   40.0180 C   0  0  0  0  0  0  0  0  0  0  0  0
   38.5860   33.3800   40.5180 C   0  0  0  0  0  0  0  0  0  0  0  0
   38.8560   32.2250   41.1510 N   0  0  0  0  0  0  0  0  0  0  0  0
   40.1350   31.8110   41.3040 C   0  0  0  0  0  0  0  0  0  0  0  0
   41.1520   32.5020   40.8550 N   0  0  0  0  0  0  0  0  0  0  0  0
   41.7700   34.2730   39.8230 H   0  0  0  0  0  0  0  0  0  0  0  0
   39.4410   35.0850   39.5100 H   0  0  0  0  0  0  0  0  0  0  0  0
   37.5610   33.7220   40.3900 H   0  0  0  0  0  0  0  0  0  0  0  0
   36.8120   25.1270   42.3110 C   0  0  0  0  0  0  0  0  0  0  0  0
   35.7290   25.0260   42.4640 H   0  0  0  0  0  0  0  0  0  0  0  0
   37.5490   24.1840   42.0070 O   0  0  0  0  0  0  0  0  0  0  0  0
  1 15  1  0  0  0  0
  1  2  1  0  0  0  0
  2  7  1  0  0  0  0
  3  2  2  0  0  0  0
  3  8  1  0  0  0  0
  4  3  1  0  0  0  0
  5  6  1  0  0  0  0
  5  4  2  0  0  0  0
  6  1  2  0  0  0  0
  9  5  1  0  0  0  0
 10 12  1  0  0  0  0
 11 10  2  0  0  0  0
 12  6  1  0  0  0  0
 12 14  1  0  0  0  0
 13 10  1  0  0  0  0
 15 17  1  0  0  0  0
 16 15  1  0  0  0  0
 18 20  1  0  0  0  0
 18 15  1  0  0  0  0
 19 18  1  0  0  0  0
 21 26  1  0  0  0  0
 22 21  2  0  0  0  0
 22 23  1  0  0  0  0
 23 24  2  0  0  0  0
 24 25  1  0  0  0  0
 25 18  1  0  0  0  0
 26 25  2  0  0  0  0
 27 21  1  0  0  0  0
 28 22  1  0  0  0  0
 29 23  1  0  0  0  0
 30 31  1  0  0  0  0
 30  4  1  0  0  0  0
 32 30  2  0  0  0  0
M  END
>  <minimizedAffinity>
-4.9568572

$$$$

 OpenBabel03252501303D

 32 33  0  0  0  0  0  0  0  0999 V2000
   38.6920   28.8320   42.5950 C   0  0  0  0  0  0  0  0  0  0  0  0
   39.4120   27.6800   42.7790 C   0  0  0  0  0  0  0  0  0  0  0  0
   38.8630   26.4300   42.6820 C   0  0  0  0  0  0  0  0  0  0  0  0
   37.5450   26.3220   42.3910 C   0  0  0  0  0  0  0  0  0  0  0  0
   36.7950   27.4750   42.2000 C   0  0  0  0  0  0  0  0  0  0  0  0
   37.3680   28.7280   42.3010 C   0  0  0  0  0  0  0  0  0  0  0  0
   40.4730   27.8470   43.0120 H   0  0  0  0  0  0  0  0  0  0  0  0
   39.5100   25.5850   42.8430 H   0  0  0  0  0  0  0  0  0  0  0  0
   35.7520   27.2120   41.9720 H   0  0  0  0  0  0  0  0  0  0  0  0
   35.8030   29.6380   40.6970 C   0  0  0  0  0  0  0  0  0  0  0  0
   36.0220   29.0820   39.5580 O   0  0  0  0  0  0  0  0  0  0  0  0
   36.3190   29.6660   42.0340 N   0  0  0  0  0  0  0  0  0  0  0  0
   34.9560   30.1870   40.2890 H   0  0  0  0  0  0  0  0  0  0  0  0
   35.8240   30.3820   42.5840 H   0  0  0  0  0  0  0  0  0  0  0  0
   39.1440   30.2290   42.6830 C   0  0  0  0  0  0  0  0  0  0  0  0
   38.2160   30.8470   42.8110 H   0  0  0  0  0  0  0  0  0  0  0  0
   39.6910   30.3790   43.6510 H   0  0  0  0  0  0  0  0  0  0  0  0
   39.9720   30.6240   41.4930 C   0  0  0  0  0  0  0  0  0  0  0  0
   40.4910   29.7290   41.0830 H   0  0  0  0  0  0  0  0  0  0  0  0
   40.7600   31.3190   41.8660 H   0  0  0  0  0  0  0  0  0  0  0  0
   37.4620   32.7960   39.9250 C   0  0  0  0  0  0  0  0  0  0  0  0
   37.5030   32.3650   38.5710 C   0  0  0  0  0  0  0  0  0  0  0  0
   38.3950   31.3480   38.2590 C   0  0  0  0  0  0  0  0  0  0  0  0
   39.1710   30.8130   39.2170 N   0  0  0  0  0  0  0  0  0  0  0  0
   39.0940   31.2600   40.4910 C   0  0  0  0  0  0  0  0  0  0  0  0
   38.2730   32.2150   40.8480 N   0  0  0  0  0  0  0  0  0  0  0  0
   36.7710   33.5920   40.1940 H   0  0  0  0  0  0  0  0  0  0  0  0
   36.8700   32.8140   37.8340 H   0  0  0  0  0  0  0  0  0  0  0  0
   38.4500   30.9960   37.2310 H   0  0  0  0  0  0  0  0  0  0  0  0
   36.9730   24.9550   42.2920 C   0  0  0  0  0  0  0  0  0  0  0  0
   35.8820   24.8300   42.3290 H   0  0  0  0  0  0  0  0  0  0  0  0
   37.7640   24.0160   42.1710 O   0  0  0  0  0  0  0  0  0  0  0  0
  1 15  1  0  0  0  0
  1  2  1  0  0  0  0
  2  7  1  0  0  0  0
  3  2  2  0  0  0  0
  3  8  1  0  0  0  0
  4  3  1  0  0  0  0
  5  6  1  0  0  0  0
  5  4  2  0  0  0  0
  6  1  2  0  0  0  0
  9  5  1  0  0  0  0
 10 12  1  0  0  0  0
 11 10  2  0  0  0  0
 12  6  1  0  0  0  0
 12 14  1  0  0  0  0
 13 10  1  0  0  0  0
 15 16  1  0  0  0  0
 15 17  1  0  0  0  0
 18 20  1  0  0  0  0
 18 15  1  0  0  0  0
 19 18  1  0  0  0  0
 21 27  1  0  0  0  0
 21 26  1  0  0  0  0
 22 21  2  0  0  0  0
 23 22  1  0  0  0  0
 23 24  2  0  0  0  0
 24 25  1  0  0  0  0
 25 26  2  0  0  0  0
 25 18  1  0  0  0  0
 28 22  1  0  0  0  0
 29 23  1  0  0  0  0
 30 31  1  0  0  0  0
 30  4  1  0  0  0  0
 32 30  2  0  0  0  0
M  END
>  <minimizedAffinity>
-4.86354399

$$$$

 OpenBabel03252501303D

 32 33  0  0  0  0  0  0  0  0999 V2000
   36.4920   29.2920   39.8850 C   0  0  0  0  0  0  0  0  0  0  0  0
   36.5970   29.9560   38.6910 C   0  0  0  0  0  0  0  0  0  0  0  0
   36.9060   31.2860   38.5970 C   0  0  0  0  0  0  0  0  0  0  0  0
   37.1190   31.9840   39.7380 C   0  0  0  0  0  0  0  0  0  0  0  0
   37.0180   31.3330   40.9600 C   0  0  0  0  0  0  0  0  0  0  0  0
   36.7050   29.9890   41.0340 C   0  0  0  0  0  0  0  0  0  0  0  0
   36.4110   29.3260   37.8100 H   0  0  0  0  0  0  0  0  0  0  0  0
   36.9670   31.7190   37.6130 H   0  0  0  0  0  0  0  0  0  0  0  0
   37.2190   32.0390   41.7800 H   0  0  0  0  0  0  0  0  0  0  0  0
   37.9780   29.3010   42.9730 C   0  0  0  0  0  0  0  0  0  0  0  0
   39.1910   29.0830   42.6040 O   0  0  0  0  0  0  0  0  0  0  0  0
   36.7000   29.6590   42.4280 N   0  0  0  0  0  0  0  0  0  0  0  0
   38.2360   29.1000   44.0110 H   0  0  0  0  0  0  0  0  0  0  0  0
   35.9820   29.6130   43.1640 H   0  0  0  0  0  0  0  0  0  0  0  0
   36.1540   27.8830   40.1340 C   0  0  0  0  0  0  0  0  0  0  0  0
   36.0870   27.7720   41.2480 H   0  0  0  0  0  0  0  0  0  0  0  0
   35.1040   27.6890   39.7890 H   0  0  0  0  0  0  0  0  0  0  0  0
   37.1450   26.9500   39.4950 C   0  0  0  0  0  0  0  0  0  0  0  0
   37.9420   27.5400   38.9880 H   0  0  0  0  0  0  0  0  0  0  0  0
   36.5960   26.3910   38.7030 H   0  0  0  0  0  0  0  0  0  0  0  0
   37.4380   24.3490   42.0680 C   0  0  0  0  0  0  0  0  0  0  0  0
   38.8030   24.4600   42.4470 C   0  0  0  0  0  0  0  0  0  0  0  0
   39.5620   25.4240   41.7970 C   0  0  0  0  0  0  0  0  0  0  0  0
   39.0020   26.2040   40.8570 N   0  0  0  0  0  0  0  0  0  0  0  0
   37.6970   26.0580   40.5330 C   0  0  0  0  0  0  0  0  0  0  0  0
   36.9300   25.1670   41.1090 N   0  0  0  0  0  0  0  0  0  0  0  0
   36.8230   23.5990   42.5630 H   0  0  0  0  0  0  0  0  0  0  0  0
   39.2170   23.8220   43.2000 H   0  0  0  0  0  0  0  0  0  0  0  0
   40.6110   25.5340   42.0650 H   0  0  0  0  0  0  0  0  0  0  0  0
   37.4510   33.4250   39.6100 C   0  0  0  0  0  0  0  0  0  0  0  0
   36.9370   34.0260   38.8470 H   0  0  0  0  0  0  0  0  0  0  0  0
   38.3000   33.8820   40.3810 O   0  0  0  0  0  0  0  0  0  0  0  0
  1 15  1  0  0  0  0
  1  6  1  0  0  0  0
  2  1  2  0  0  0  0
  3  2  1  0  0  0  0
  3  4  2  0  0  0  0
  4  5  1  0  0  0  0
  5  6  2  0  0  0  0
  5  9  1  0  0  0  0
  6 12  1  0  0  0  0
  7  2  1  0  0  0  0
  8  3  1  0  0  0  0
 10 13  1  0  0  0  0
 11 10  2  0  0  0  0
 12 10  1  0  0  0  0
 12 14  1  0  0  0  0
 15 16  1  0  0  0  0
 17 15  1  0  0  0  0
 18 15  1  0  0  0  0
 18 25  1  0  0  0  0
 19 18  1  0  0  0  0
 20 18  1  0  0  0  0
 21 22  1  0  0  0  0
 21 27  1  0  0  0  0
 22 28  1  0  0  0  0
 23 29  1  0  0  0  0
 23 22  2  0  0  0  0
 24 23  1  0  0  0  0
 25 24  2  0  0  0  0
 25 26  1  0  0  0  0
 26 21  2  0  0  0  0
 30  4  1  0  0  0  0
 30 32  2  0  0  0  0
 31 30  1  0  0  0  0
M  END
>  <minimizedAffinity>
-4.83235264

$$$$

 OpenBabel03252501303D

 32 33  0  0  0  0  0  0  0  0999 V2000
   36.3460   27.9360   40.6610 C   0  0  0  0  0  0  0  0  0  0  0  0
   36.4160   26.9440   39.7180 C   0  0  0  0  0  0  0  0  0  0  0  0
   35.9310   27.0830   38.4460 C   0  0  0  0  0  0  0  0  0  0  0  0
   35.3510   28.2560   38.0980 C   0  0  0  0  0  0  0  0  0  0  0  0
   35.2680   29.2770   39.0370 C   0  0  0  0  0  0  0  0  0  0  0  0
   35.7650   29.1170   40.3160 C   0  0  0  0  0  0  0  0  0  0  0  0
   36.8990   26.0220   40.0720 H   0  0  0  0  0  0  0  0  0  0  0  0
   36.0330   26.2470   37.7760 H   0  0  0  0  0  0  0  0  0  0  0  0
   34.7730   30.1550   38.5950 H   0  0  0  0  0  0  0  0  0  0  0  0
   36.5910   31.3090   40.9190 C   0  0  0  0  0  0  0  0  0  0  0  0
   37.8010   31.4160   40.4960 O   0  0  0  0  0  0  0  0  0  0  0  0
   35.5230   30.3560   40.9930 N   0  0  0  0  0  0  0  0  0  0  0  0
   36.6030   32.3380   41.2740 H   0  0  0  0  0  0  0  0  0  0  0  0
   34.7430   30.7470   41.5400 H   0  0  0  0  0  0  0  0  0  0  0  0
   36.8080   27.9200   42.0570 C   0  0  0  0  0  0  0  0  0  0  0  0
   37.7560   28.5190   42.0770 H   0  0  0  0  0  0  0  0  0  0  0  0
   36.1040   28.5270   42.6850 H   0  0  0  0  0  0  0  0  0  0  0  0
   36.9700   26.5190   42.5750 C   0  0  0  0  0  0  0  0  0  0  0  0
   36.6030   25.7930   41.8150 H   0  0  0  0  0  0  0  0  0  0  0  0
   36.3060   26.4260   43.4650 H   0  0  0  0  0  0  0  0  0  0  0  0
   40.4270   27.0730   43.6790 C   0  0  0  0  0  0  0  0  0  0  0  0
   41.0070   25.7900   43.4880 C   0  0  0  0  0  0  0  0  0  0  0  0
   40.1810   24.7910   42.9920 C   0  0  0  0  0  0  0  0  0  0  0  0
   38.8940   25.0560   42.7100 N   0  0  0  0  0  0  0  0  0  0  0  0
   38.3900   26.2950   42.9090 C   0  0  0  0  0  0  0  0  0  0  0  0
   39.1180   27.2790   43.3760 N   0  0  0  0  0  0  0  0  0  0  0  0
   41.0540   27.8720   44.0680 H   0  0  0  0  0  0  0  0  0  0  0  0
   42.0360   25.6130   43.7230 H   0  0  0  0  0  0  0  0  0  0  0  0
   40.5950   23.7970   42.8340 H   0  0  0  0  0  0  0  0  0  0  0  0
   34.8310   28.3820   36.7130 C   0  0  0  0  0  0  0  0  0  0  0  0
   34.5020   29.3680   36.3550 H   0  0  0  0  0  0  0  0  0  0  0  0
   34.7950   27.3580   36.0250 O   0  0  0  0  0  0  0  0  0  0  0  0
  1 15  1  0  0  0  0
  2  7  1  0  0  0  0
  2  1  2  0  0  0  0
  3  2  1  0  0  0  0
  4  3  2  0  0  0  0
  4  5  1  0  0  0  0
  5  6  2  0  0  0  0
  6  1  1  0  0  0  0
  6 12  1  0  0  0  0
  8  3  1  0  0  0  0
  9  5  1  0  0  0  0
 10 12  1  0  0  0  0
 10 13  1  0  0  0  0
 11 10  2  0  0  0  0
 12 14  1  0  0  0  0
 15 16  1  0  0  0  0
 15 18  1  0  0  0  0
 15 17  1  0  0  0  0
 18 25  1  0  0  0  0
 18 20  1  0  0  0  0
 19 18  1  0  0  0  0
 21 27  1  0  0  0  0
 22 21  1  0  0  0  0
 22 28  1  0  0  0  0
 23 22  2  0  0  0  0
 24 25  2  0  0  0  0
 24 23  1  0  0  0  0
 25 26  1  0  0  0  0
 26 21  2  0  0  0  0
 29 23  1  0  0  0  0
 30  4  1  0  0  0  0
 31 30  1  0  0  0  0
 32 30  2  0  0  0  0
M  END
>  <minimizedAffinity>
-4.82768631

$$$$

 OpenBabel03252501303D

 32 33  0  0  0  0  0  0  0  0999 V2000
   36.9400   27.7540   41.8800 C   0  0  0  0  0  0  0  0  0  0  0  0
   37.0120   26.4100   41.6200 C   0  0  0  0  0  0  0  0  0  0  0  0
   37.9820   25.5980   42.1390 C   0  0  0  0  0  0  0  0  0  0  0  0
   38.9190   26.1430   42.9500 C   0  0  0  0  0  0  0  0  0  0  0  0
   38.8680   27.5030   43.2280 C   0  0  0  0  0  0  0  0  0  0  0  0
   37.8790   28.3070   42.6950 C   0  0  0  0  0  0  0  0  0  0  0  0
   36.2190   26.0400   40.9550 H   0  0  0  0  0  0  0  0  0  0  0  0
   37.9550   24.5540   41.8780 H   0  0  0  0  0  0  0  0  0  0  0  0
   39.6950   27.7820   43.8970 H   0  0  0  0  0  0  0  0  0  0  0  0
   39.0910   30.3880   42.4610 C   0  0  0  0  0  0  0  0  0  0  0  0
   39.9250   30.2630   41.4900 O   0  0  0  0  0  0  0  0  0  0  0  0
   38.1250   29.6250   43.1980 N   0  0  0  0  0  0  0  0  0  0  0  0
   39.3730   31.4300   42.5970 H   0  0  0  0  0  0  0  0  0  0  0  0
   37.7670   30.1840   43.9850 H   0  0  0  0  0  0  0  0  0  0  0  0
   35.9710   28.7420   41.3830 C   0  0  0  0  0  0  0  0  0  0  0  0
   34.9730   28.4310   41.7910 H   0  0  0  0  0  0  0  0  0  0  0  0
   36.1600   29.7280   41.8830 H   0  0  0  0  0  0  0  0  0  0  0  0
   36.0010   28.8480   39.8840 C   0  0  0  0  0  0  0  0  0  0  0  0
   34.9610   28.9180   39.4920 H   0  0  0  0  0  0  0  0  0  0  0  0
   36.4330   27.8940   39.5030 H   0  0  0  0  0  0  0  0  0  0  0  0
   38.5350   30.9770   38.2960 C   0  0  0  0  0  0  0  0  0  0  0  0
   38.2620   32.2450   38.8770 C   0  0  0  0  0  0  0  0  0  0  0  0
   37.2150   32.3110   39.7860 C   0  0  0  0  0  0  0  0  0  0  0  0
   36.5110   31.2060   40.0870 N   0  0  0  0  0  0  0  0  0  0  0  0
   36.8120   30.0220   39.5060 C   0  0  0  0  0  0  0  0  0  0  0  0
   37.7860   29.8960   38.6400 N   0  0  0  0  0  0  0  0  0  0  0  0
   39.3500   30.9010   37.5790 H   0  0  0  0  0  0  0  0  0  0  0  0
   38.8430   33.1040   38.6140 H   0  0  0  0  0  0  0  0  0  0  0  0
   36.9810   33.2670   40.2480 H   0  0  0  0  0  0  0  0  0  0  0  0
   39.9630   25.2410   43.5000 C   0  0  0  0  0  0  0  0  0  0  0  0
   40.6860   25.6410   44.2240 H   0  0  0  0  0  0  0  0  0  0  0  0
   39.9630   24.0700   43.1100 O   0  0  0  0  0  0  0  0  0  0  0  0
  1  6  1  0  0  0  0
  2  1  2  0  0  0  0
  2  3  1  0  0  0  0
  3  4  2  0  0  0  0
  4  5  1  0  0  0  0
  4 30  1  0  0  0  0
  5  9  1  0  0  0  0
  6 12  1  0  0  0  0
  6  5  2  0  0  0  0
  7  2  1  0  0  0  0
  8  3  1  0  0  0  0
 10 13  1  0  0  0  0
 10 12  1  0  0  0  0
 11 10  2  0  0  0  0
 12 14  1  0  0  0  0
 15 16  1  0  0  0  0
 15  1  1  0  0  0  0
 15 17  1  0  0  0  0
 18 15  1  0  0  0  0
 19 18  1  0  0  0  0
 20 18  1  0  0  0  0
 21 26  2  0  0  0  0
 21 22  1  0  0  0  0
 22 23  2  0  0  0  0
 23 24  1  0  0  0  0
 23 29  1  0  0  0  0
 25 18  1  0  0  0  0
 25 24  2  0  0  0  0
 26 25  1  0  0  0  0
 27 21  1  0  0  0  0
 28 22  1  0  0  0  0
 30 31  1  0  0  0  0
 32 30  2  0  0  0  0
M  END
>  <minimizedAffinity>
-4.78617287

$$$$

 OpenBabel03252501303D

 32 33  0  0  0  0  0  0  0  0999 V2000
   37.8040   31.5520   39.7520 C   0  0  0  0  0  0  0  0  0  0  0  0
   37.7660   31.4440   38.3860 C   0  0  0  0  0  0  0  0  0  0  0  0
   38.8500   31.6800   37.5860 C   0  0  0  0  0  0  0  0  0  0  0  0
   40.0190   32.0400   38.1670 C   0  0  0  0  0  0  0  0  0  0  0  0
   40.0820   32.1560   39.5490 C   0  0  0  0  0  0  0  0  0  0  0  0
   38.9770   31.9130   40.3410 C   0  0  0  0  0  0  0  0  0  0  0  0
   36.7860   31.1490   37.9870 H   0  0  0  0  0  0  0  0  0  0  0  0
   38.7230   31.5680   36.5230 H   0  0  0  0  0  0  0  0  0  0  0  0
   41.0960   32.4540   39.8560 H   0  0  0  0  0  0  0  0  0  0  0  0
   40.2720   31.0950   42.2130 C   0  0  0  0  0  0  0  0  0  0  0  0
   40.7680   29.9520   41.8940 O   0  0  0  0  0  0  0  0  0  0  0  0
   39.4050   32.1120   41.6930 N   0  0  0  0  0  0  0  0  0  0  0  0
   40.7900   31.0760   43.1700 H   0  0  0  0  0  0  0  0  0  0  0  0
   39.2400   32.8310   42.4120 H   0  0  0  0  0  0  0  0  0  0  0  0
   36.7220   31.3450   40.7270 C   0  0  0  0  0  0  0  0  0  0  0  0
   37.1910   31.4630   41.7400 H   0  0  0  0  0  0  0  0  0  0  0  0
   36.0060   32.2060   40.6710 H   0  0  0  0  0  0  0  0  0  0  0  0
   36.0400   30.0210   40.5310 C   0  0  0  0  0  0  0  0  0  0  0  0
   36.1280   29.7070   39.4660 H   0  0  0  0  0  0  0  0  0  0  0  0
   34.9560   30.1840   40.7360 H   0  0  0  0  0  0  0  0  0  0  0  0
   37.1210   26.8460   42.0230 C   0  0  0  0  0  0  0  0  0  0  0  0
   37.7740   27.2830   43.2070 C   0  0  0  0  0  0  0  0  0  0  0  0
   37.8150   28.6520   43.4370 C   0  0  0  0  0  0  0  0  0  0  0  0
   37.2510   29.5010   42.5610 N   0  0  0  0  0  0  0  0  0  0  0  0
   36.6420   29.0330   41.4480 C   0  0  0  0  0  0  0  0  0  0  0  0
   36.5710   27.7550   41.1740 N   0  0  0  0  0  0  0  0  0  0  0  0
   37.0770   25.7780   41.8210 H   0  0  0  0  0  0  0  0  0  0  0  0
   38.2120   26.5790   43.8830 H   0  0  0  0  0  0  0  0  0  0  0  0
   38.3070   29.0180   44.3350 H   0  0  0  0  0  0  0  0  0  0  0  0
   41.1810   32.2920   37.2770 C   0  0  0  0  0  0  0  0  0  0  0  0
   41.5310   31.4880   36.6160 H   0  0  0  0  0  0  0  0  0  0  0  0
   41.7000   33.4110   37.3260 O   0  0  0  0  0  0  0  0  0  0  0  0
  1  6  1  0  0  0  0
  1 15  1  0  0  0  0
  2  1  2  0  0  0  0
  3  4  2  0  0  0  0
  3  2  1  0  0  0  0
  4  5  1  0  0  0  0
  5  9  1  0  0  0  0
  5  6  2  0  0  0  0
  6 12  1  0  0  0  0
  7  2  1  0  0  0  0
  8  3  1  0  0  0  0
 10 13  1  0  0  0  0
 11 10  2  0  0  0  0
 12 10  1  0  0  0  0
 12 14  1  0  0  0  0
 15 16  1  0  0  0  0
 17 15  1  0  0  0  0
 18 15  1  0  0  0  0
 18 20  1  0  0  0  0
 18 25  1  0  0  0  0
 19 18  1  0  0  0  0
 21 22  1  0  0  0  0
 22 23  2  0  0  0  0
 22 28  1  0  0  0  0
 23 29  1  0  0  0  0
 24 23  1  0  0  0  0
 25 24  2  0  0  0  0
 26 25  1  0  0  0  0
 26 21  2  0  0  0  0
 27 21  1  0  0  0  0
 30 32  2  0  0  0  0
 30  4  1  0  0  0  0
 31 30  1  0  0  0  0
M  END
>  <minimizedAffinity>
-4.6038065

$$$$

 OpenBabel03252501303D

 32 33  0  0  0  0  0  0  0  0999 V2000
   36.2890   27.8550   40.4290 C   0  0  0  0  0  0  0  0  0  0  0  0
   36.3820   26.7150   39.6730 C   0  0  0  0  0  0  0  0  0  0  0  0
   36.8530   25.5280   40.1630 C   0  0  0  0  0  0  0  0  0  0  0  0
   37.2480   25.4710   41.4560 C   0  0  0  0  0  0  0  0  0  0  0  0
   37.1640   26.6130   42.2420 C   0  0  0  0  0  0  0  0  0  0  0  0
   36.6850   27.8030   41.7300 C   0  0  0  0  0  0  0  0  0  0  0  0
   36.0440   26.8370   38.6340 H   0  0  0  0  0  0  0  0  0  0  0  0
   36.8870   24.6860   39.4920 H   0  0  0  0  0  0  0  0  0  0  0  0
   37.5220   26.3970   43.2600 H   0  0  0  0  0  0  0  0  0  0  0  0
   38.0070   29.3490   43.0390 C   0  0  0  0  0  0  0  0  0  0  0  0
   39.2280   29.2750   42.6400 O   0  0  0  0  0  0  0  0  0  0  0  0
   36.7270   28.7460   42.8070 N   0  0  0  0  0  0  0  0  0  0  0  0
   38.2610   30.1480   43.7320 H   0  0  0  0  0  0  0  0  0  0  0  0
   36.0420   29.1130   43.4820 H   0  0  0  0  0  0  0  0  0  0  0  0
   35.8220   29.1920   40.0330 C   0  0  0  0  0  0  0  0  0  0  0  0
   34.7550   29.0650   39.7100 H   0  0  0  0  0  0  0  0  0  0  0  0
   35.7420   29.8400   40.9450 H   0  0  0  0  0  0  0  0  0  0  0  0
   36.7010   29.8010   38.9770 C   0  0  0  0  0  0  0  0  0  0  0  0
   37.7180   29.3510   39.0300 H   0  0  0  0  0  0  0  0  0  0  0  0
   36.8070   30.8810   39.2300 H   0  0  0  0  0  0  0  0  0  0  0  0
   34.2420   29.0440   36.3590 C   0  0  0  0  0  0  0  0  0  0  0  0
   35.0080   29.2210   35.1740 C   0  0  0  0  0  0  0  0  0  0  0  0
   36.3350   29.5960   35.3310 C   0  0  0  0  0  0  0  0  0  0  0  0
   36.8470   29.7740   36.5610 N   0  0  0  0  0  0  0  0  0  0  0  0
   36.0750   29.5930   37.6570 C   0  0  0  0  0  0  0  0  0  0  0  0
   34.8160   29.2400   37.5750 N   0  0  0  0  0  0  0  0  0  0  0  0
   33.1990   28.7510   36.2610 H   0  0  0  0  0  0  0  0  0  0  0  0
   34.5680   29.0710   34.2100 H   0  0  0  0  0  0  0  0  0  0  0  0
   36.9480   29.7390   34.4430 H   0  0  0  0  0  0  0  0  0  0  0  0
   37.7560   24.1720   41.9640 C   0  0  0  0  0  0  0  0  0  0  0  0
   38.2080   24.1300   42.9650 H   0  0  0  0  0  0  0  0  0  0  0  0
   37.6430   23.1900   41.2250 O   0  0  0  0  0  0  0  0  0  0  0  0
  1  6  1  0  0  0  0
  2  3  1  0  0  0  0
  2  1  2  0  0  0  0
  3  4  2  0  0  0  0
  4 30  1  0  0  0  0
  4  5  1  0  0  0  0
  5  9  1  0  0  0  0
  6  5  2  0  0  0  0
  6 12  1  0  0  0  0
  7  2  1  0  0  0  0
  8  3  1  0  0  0  0
 10 13  1  0  0  0  0
 11 10  2  0  0  0  0
 12 10  1  0  0  0  0
 12 14  1  0  0  0  0
 15  1  1  0  0  0  0
 15 17  1  0  0  0  0
 16 15  1  0  0  0  0
 18 19  1  0  0  0  0
 18 20  1  0  0  0  0
 18 15  1  0  0  0  0
 21 26  1  0  0  0  0
 22 23  1  0  0  0  0
 22 21  2  0  0  0  0
 23 24  2  0  0  0  0
 24 25  1  0  0  0  0
 25 18  1  0  0  0  0
 26 25  2  0  0  0  0
 27 21  1  0  0  0  0
 28 22  1  0  0  0  0
 29 23  1  0  0  0  0
 30 31  1  0  0  0  0
 32 30  2  0  0  0  0
M  END
>  <minimizedAffinity>
-4.58976173

$$$$
