
 OpenBabel03252508313D

 26 27  0  0  1  0  0  0  0  0999 V2000
   45.5790   34.4130   41.9840 N   0  0  0  0  0  0  0  0  0  0  0  0
   46.8980   34.0910   41.5120 C   0  0  1  0  0  0  0  0  0  0  0  0
   47.0380   33.9970   40.0460 C   0  0  0  0  0  0  0  0  0  0  0  0
   45.9420   33.5040   39.3250 N   0  0  0  0  0  0  0  0  0  0  0  0
   44.6620   33.5990   39.8910 C   0  0  0  0  0  0  0  0  0  0  0  0
   44.6300   34.6890   40.9560 C   0  0  0  0  0  0  0  0  0  0  0  0
   47.2720   33.1830   42.0390 H   0  0  0  0  0  0  0  0  0  0  0  0
   47.4000   34.9750   39.6450 H   0  0  0  0  0  0  0  0  0  0  0  0
   47.9090   33.3040   39.8470 H   0  0  0  0  0  0  0  0  0  0  0  0
   45.9340   33.9480   38.3690 H   0  0  0  0  0  0  0  0  0  0  0  0
   44.4590   32.6490   40.4660 H   0  0  0  0  0  0  0  0  0  0  0  0
   43.8480   33.6830   39.1730 H   0  0  0  0  0  0  0  0  0  0  0  0
   43.6160   34.9240   41.2480 H   0  0  0  0  0  0  0  0  0  0  0  0
   45.0100   35.6130   40.4250 H   0  0  0  0  0  0  0  0  0  0  0  0
   44.7100   35.5300   43.8970 C   0  0  0  0  0  0  0  0  0  0  0  0
   45.3730   34.4250   43.3770 C   0  0  0  0  0  0  0  0  0  0  0  0
   45.7650   33.4550   44.2800 C   0  0  0  0  0  0  0  0  0  0  0  0
   45.5120   33.5810   45.6080 N   0  0  0  0  0  0  0  0  0  0  0  0
   44.8590   34.6820   46.0780 C   0  0  0  0  0  0  0  0  0  0  0  0
   44.4650   35.6390   45.2320 N   0  0  0  0  0  0  0  0  0  0  0  0
   44.3240   36.3890   43.3700 H   0  0  0  0  0  0  0  0  0  0  0  0
   46.2720   32.6090   43.8900 H   0  0  0  0  0  0  0  0  0  0  0  0
   44.7040   34.6920   47.1460 H   0  0  0  0  0  0  0  0  0  0  0  0
   47.7810   35.2170   42.0030 C   0  0  0  0  0  0  0  0  0  0  0  0
   47.7120   35.6770   42.9800 H   0  0  0  0  0  0  0  0  0  0  0  0
   48.5850   35.5410   41.1510 O   0  0  0  0  0  0  0  0  0  0  0  0
  1 16  1  0  0  0  0
  2  1  1  0  0  0  0
  2 24  1  0  0  0  0
  2  7  1  1  0  0  0
  3  2  1  0  0  0  0
  4  5  1  0  0  0  0
  4  3  1  0  0  0  0
  5 11  1  0  0  0  0
  5  6  1  0  0  0  0
  6 13  1  0  0  0  0
  6  1  1  0  0  0  0
  8  3  1  0  0  0  0
  9  3  1  0  0  0  0
 10  4  1  0  0  0  0
 12  5  1  0  0  0  0
 14  6  1  0  0  0  0
 15 20  1  0  0  0  0
 16 15  2  0  0  0  0
 16 17  1  0  0  0  0
 17 18  2  0  0  0  0
 18 19  1  0  0  0  0
 19 23  1  0  0  0  0
 20 19  2  0  0  0  0
 21 15  1  0  0  0  0
 22 17  1  0  0  0  0
 24 25  1  0  0  0  0
 26 24  2  0  0  0  0
M  END
>  <minimizedAffinity>
-3.99278212

>  <minimizedRMSD>
2.17133093

$$$$
