
 OpenBabel03252506303D

 41 44  0  0  0  0  0  0  0  0999 V2000
   35.9830   29.1450   37.2060 C   0  0  0  0  0  0  0  0  0  0  0  0
   35.4610   29.7980   36.4980 H   0  0  0  0  0  0  0  0  0  0  0  0
   36.0010   28.1070   36.8460 H   0  0  0  0  0  0  0  0  0  0  0  0
   39.0450   30.9070   37.7670 C   0  0  0  0  0  0  0  0  0  0  0  0
   39.5010   29.6030   37.5000 C   0  0  0  0  0  0  0  0  0  0  0  0
   38.4390   28.8020   37.2640 C   0  0  0  0  0  0  0  0  0  0  0  0
   37.3660   29.5850   37.3800 N   0  0  0  0  0  0  0  0  0  0  0  0
   37.7070   30.8390   37.6790 N   0  0  0  0  0  0  0  0  0  0  0  0
   40.5410   29.2810   37.4860 H   0  0  0  0  0  0  0  0  0  0  0  0
   38.3840   27.7370   37.0220 H   0  0  0  0  0  0  0  0  0  0  0  0
   41.7920   33.3060   37.5630 C   0  0  0  0  0  0  0  0  0  0  0  0
   41.5460   34.1760   38.6210 C   0  0  0  0  0  0  0  0  0  0  0  0
   40.4200   33.9130   39.3980 C   0  0  0  0  0  0  0  0  0  0  0  0
   39.6510   32.8530   39.0820 N   0  0  0  0  0  0  0  0  0  0  0  0
   39.9010   32.0330   38.0660 C   0  0  0  0  0  0  0  0  0  0  0  0
   40.9820   32.2710   37.3080 N   0  0  0  0  0  0  0  0  0  0  0  0
   42.6480   33.4630   36.9310 H   0  0  0  0  0  0  0  0  0  0  0  0
   42.1840   35.0200   38.8510 H   0  0  0  0  0  0  0  0  0  0  0  0
   40.1010   34.7670   40.5090 C   0  0  0  0  0  0  0  0  0  0  0  0
   40.8670   35.3330   41.0120 H   0  0  0  0  0  0  0  0  0  0  0  0
   38.9120   34.8720   40.9200 O   0  0  0  0  0  0  0  0  0  0  0  0
   35.2620   29.1820   38.5090 C   0  0  0  0  0  0  0  0  0  0  0  0
   35.1590   30.2530   38.8020 H   0  0  0  0  0  0  0  0  0  0  0  0
   34.2140   28.8360   38.3320 H   0  0  0  0  0  0  0  0  0  0  0  0
   36.2890   27.1730   39.7050 C   0  0  0  0  0  0  0  0  0  0  0  0
   35.8730   28.4760   39.6220 C   0  0  0  0  0  0  0  0  0  0  0  0
   36.0570   29.2550   40.7680 C   0  0  0  0  0  0  0  0  0  0  0  0
   36.6180   28.7480   41.9060 C   0  0  0  0  0  0  0  0  0  0  0  0
   36.9110   29.2470   43.1250 N   0  0  0  0  0  0  0  0  0  0  0  0
   37.4680   28.3240   43.9110 C   0  0  0  0  0  0  0  0  0  0  0  0
   37.5660   27.1270   43.2030 C   0  0  0  0  0  0  0  0  0  0  0  0
   37.0290   27.4530   41.9840 C   0  0  0  0  0  0  0  0  0  0  0  0
   36.8550   26.6680   40.8600 C   0  0  0  0  0  0  0  0  0  0  0  0
   36.1320   26.5950   38.8000 H   0  0  0  0  0  0  0  0  0  0  0  0
   35.7720   30.3000   40.8340 H   0  0  0  0  0  0  0  0  0  0  0  0
   36.7420   30.2280   43.4630 H   0  0  0  0  0  0  0  0  0  0  0  0
   37.8100   28.4330   44.9470 H   0  0  0  0  0  0  0  0  0  0  0  0
   37.9670   26.2100   43.5600 H   0  0  0  0  0  0  0  0  0  0  0  0
   37.2720   25.2690   40.8680 C   0  0  0  0  0  0  0  0  0  0  0  0
   36.5030   24.3500   41.2160 O   0  0  0  0  0  0  0  0  0  0  0  0
   38.2740   24.9940   40.5660 H   0  0  0  0  0  0  0  0  0  0  0  0
  1  7  1  0  0  0  0
  1 22  1  0  0  0  0
  2  1  1  0  0  0  0
  3  1  1  0  0  0  0
  4 15  1  0  0  0  0
  5  4  1  0  0  0  0
  6  7  1  0  0  0  0
  6  5  2  0  0  0  0
  7  8  1  0  0  0  0
  8  4  2  0  0  0  0
  9  5  1  0  0  0  0
 10  6  1  0  0  0  0
 11 12  1  0  0  0  0
 12 18  1  0  0  0  0
 12 13  2  0  0  0  0
 13 19  1  0  0  0  0
 14 13  1  0  0  0  0
 15 14  2  0  0  0  0
 16 11  2  0  0  0  0
 16 15  1  0  0  0  0
 17 11  1  0  0  0  0
 19 21  2  0  0  0  0
 19 20  1  0  0  0  0
 22 23  1  0  0  0  0
 22 26  1  0  0  0  0
 24 22  1  0  0  0  0
 25 33  1  0  0  0  0
 26 25  2  0  0  0  0
 26 27  1  0  0  0  0
 27 35  1  0  0  0  0
 27 28  2  0  0  0  0
 28 32  1  0  0  0  0
 28 29  1  0  0  0  0
 29 36  1  0  0  0  0
 29 30  1  0  0  0  0
 30 37  1  0  0  0  0
 31 38  1  0  0  0  0
 31 30  2  0  0  0  0
 32 31  1  0  0  0  0
 33 39  1  0  0  0  0
 33 32  2  0  0  0  0
 34 25  1  0  0  0  0
 39 40  2  0  0  0  0
 41 39  1  0  0  0  0
M  END
>  <minimizedAffinity>
-6.08547258

$$$$

 OpenBabel03252506303D

 41 44  0  0  0  0  0  0  0  0999 V2000
   35.7950   28.7420   39.8790 C   0  0  0  0  0  0  0  0  0  0  0  0
   34.7180   28.8840   39.7410 H   0  0  0  0  0  0  0  0  0  0  0  0
   36.1340   27.8080   39.4090 H   0  0  0  0  0  0  0  0  0  0  0  0
   37.8040   31.6020   39.1170 C   0  0  0  0  0  0  0  0  0  0  0  0
   37.3720   31.1980   37.8400 C   0  0  0  0  0  0  0  0  0  0  0  0
   36.5880   30.1050   37.9630 C   0  0  0  0  0  0  0  0  0  0  0  0
   36.5360   29.8450   39.2710 N   0  0  0  0  0  0  0  0  0  0  0  0
   37.2540   30.7240   39.9720 N   0  0  0  0  0  0  0  0  0  0  0  0
   37.6260   31.6810   36.8980 H   0  0  0  0  0  0  0  0  0  0  0  0
   36.0690   29.5060   37.2110 H   0  0  0  0  0  0  0  0  0  0  0  0
   38.9960   34.8080   40.3990 C   0  0  0  0  0  0  0  0  0  0  0  0
   40.2830   34.9110   39.8770 C   0  0  0  0  0  0  0  0  0  0  0  0
   40.7200   33.8560   39.0780 C   0  0  0  0  0  0  0  0  0  0  0  0
   39.8880   32.8200   38.8660 N   0  0  0  0  0  0  0  0  0  0  0  0
   38.6610   32.7370   39.3740 C   0  0  0  0  0  0  0  0  0  0  0  0
   38.2240   33.7440   40.1450 N   0  0  0  0  0  0  0  0  0  0  0  0
   38.6090   35.5940   41.0220 H   0  0  0  0  0  0  0  0  0  0  0  0
   40.9290   35.7590   40.0650 H   0  0  0  0  0  0  0  0  0  0  0  0
   42.0360   33.8920   38.5030 C   0  0  0  0  0  0  0  0  0  0  0  0
   42.7090   33.0560   38.6020 H   0  0  0  0  0  0  0  0  0  0  0  0
   42.4340   34.9070   37.8670 O   0  0  0  0  0  0  0  0  0  0  0  0
   36.0840   28.6700   41.3390 C   0  0  0  0  0  0  0  0  0  0  0  0
   36.5120   29.6540   41.6420 H   0  0  0  0  0  0  0  0  0  0  0  0
   35.1080   28.6090   41.8800 H   0  0  0  0  0  0  0  0  0  0  0  0
   36.9220   26.2740   41.6210 C   0  0  0  0  0  0  0  0  0  0  0  0
   37.0010   27.6330   41.7810 C   0  0  0  0  0  0  0  0  0  0  0  0
   38.1220   28.1080   42.4670 C   0  0  0  0  0  0  0  0  0  0  0  0
   39.0850   27.2680   42.9520 C   0  0  0  0  0  0  0  0  0  0  0  0
   40.2380   27.4370   43.6310 N   0  0  0  0  0  0  0  0  0  0  0  0
   40.8360   26.2690   43.8770 C   0  0  0  0  0  0  0  0  0  0  0  0
   40.0590   25.2420   43.3430 C   0  0  0  0  0  0  0  0  0  0  0  0
   39.0020   25.9200   42.7910 C   0  0  0  0  0  0  0  0  0  0  0  0
   37.9000   25.4320   42.1140 C   0  0  0  0  0  0  0  0  0  0  0  0
   36.0420   25.9370   41.0840 H   0  0  0  0  0  0  0  0  0  0  0  0
   38.3040   29.1600   42.6610 H   0  0  0  0  0  0  0  0  0  0  0  0
   40.6570   28.3470   43.9490 H   0  0  0  0  0  0  0  0  0  0  0  0
   41.7800   26.0890   44.4060 H   0  0  0  0  0  0  0  0  0  0  0  0
   40.2720   24.2010   43.3780 H   0  0  0  0  0  0  0  0  0  0  0  0
   37.7430   23.9960   41.9020 C   0  0  0  0  0  0  0  0  0  0  0  0
   37.1770   23.5330   40.8910 O   0  0  0  0  0  0  0  0  0  0  0  0
   38.1210   23.2900   42.6300 H   0  0  0  0  0  0  0  0  0  0  0  0
  1 22  1  0  0  0  0
  2  1  1  0  0  0  0
  3  1  1  0  0  0  0
  4 15  1  0  0  0  0
  4  8  2  0  0  0  0
  5  6  2  0  0  0  0
  5  4  1  0  0  0  0
  6  7  1  0  0  0  0
  7  1  1  0  0  0  0
  7  8  1  0  0  0  0
  9  5  1  0  0  0  0
 10  6  1  0  0  0  0
 11 17  1  0  0  0  0
 12 18  1  0  0  0  0
 12 11  2  0  0  0  0
 13 12  1  0  0  0  0
 14 13  2  0  0  0  0
 14 15  1  0  0  0  0
 15 16  2  0  0  0  0
 16 11  1  0  0  0  0
 19 20  1  0  0  0  0
 19 13  1  0  0  0  0
 21 19  2  0  0  0  0
 22 23  1  0  0  0  0
 22 26  1  0  0  0  0
 22 24  1  0  0  0  0
 25 26  2  0  0  0  0
 25 33  1  0  0  0  0
 26 27  1  0  0  0  0
 27 35  1  0  0  0  0
 27 28  2  0  0  0  0
 28 29  1  0  0  0  0
 29 30  1  0  0  0  0
 29 36  1  0  0  0  0
 30 37  1  0  0  0  0
 31 38  1  0  0  0  0
 31 30  2  0  0  0  0
 32 28  1  0  0  0  0
 32 31  1  0  0  0  0
 33 32  2  0  0  0  0
 34 25  1  0  0  0  0
 39 33  1  0  0  0  0
 39 41  1  0  0  0  0
 40 39  2  0  0  0  0
M  END
>  <minimizedAffinity>
-6.02107906

$$$$

 OpenBabel03252506303D

 41 44  0  0  0  0  0  0  0  0999 V2000
   36.2370   29.5200   37.5200 C   0  0  0  0  0  0  0  0  0  0  0  0
   35.6010   29.8620   36.6970 H   0  0  0  0  0  0  0  0  0  0  0  0
   36.7680   28.5970   37.2500 H   0  0  0  0  0  0  0  0  0  0  0  0
   39.1520   31.5590   37.9000 C   0  0  0  0  0  0  0  0  0  0  0  0
   38.1930   32.2760   38.6380 C   0  0  0  0  0  0  0  0  0  0  0  0
   37.0140   31.6200   38.5880 C   0  0  0  0  0  0  0  0  0  0  0  0
   37.2370   30.5350   37.8460 N   0  0  0  0  0  0  0  0  0  0  0  0
   38.5020   30.4820   37.4270 N   0  0  0  0  0  0  0  0  0  0  0  0
   38.3650   33.2130   39.1670 H   0  0  0  0  0  0  0  0  0  0  0  0
   36.0430   31.8560   39.0320 H   0  0  0  0  0  0  0  0  0  0  0  0
   42.2180   33.5360   38.0740 C   0  0  0  0  0  0  0  0  0  0  0  0
   43.1550   32.7460   37.4150 C   0  0  0  0  0  0  0  0  0  0  0  0
   42.7030   31.5270   36.9130 C   0  0  0  0  0  0  0  0  0  0  0  0
   41.4120   31.1940   37.0950 N   0  0  0  0  0  0  0  0  0  0  0  0
   40.5300   31.9610   37.7290 C   0  0  0  0  0  0  0  0  0  0  0  0
   40.9480   33.1380   38.2180 N   0  0  0  0  0  0  0  0  0  0  0  0
   42.5140   34.4870   38.4800 H   0  0  0  0  0  0  0  0  0  0  0  0
   44.1890   33.0430   37.2830 H   0  0  0  0  0  0  0  0  0  0  0  0
   43.6130   30.6570   36.2190 C   0  0  0  0  0  0  0  0  0  0  0  0
   44.6430   30.5740   36.5230 H   0  0  0  0  0  0  0  0  0  0  0  0
   43.2210   29.9690   35.2350 O   0  0  0  0  0  0  0  0  0  0  0  0
   35.3780   29.2430   38.7050 C   0  0  0  0  0  0  0  0  0  0  0  0
   35.0690   30.2280   39.1290 H   0  0  0  0  0  0  0  0  0  0  0  0
   34.4270   28.7840   38.3390 H   0  0  0  0  0  0  0  0  0  0  0  0
   36.3800   27.1560   39.7820 C   0  0  0  0  0  0  0  0  0  0  0  0
   35.9650   28.4620   39.7800 C   0  0  0  0  0  0  0  0  0  0  0  0
   36.1240   29.1610   40.9800 C   0  0  0  0  0  0  0  0  0  0  0  0
   36.6610   28.5770   42.0920 C   0  0  0  0  0  0  0  0  0  0  0  0
   36.9280   28.9920   43.3480 N   0  0  0  0  0  0  0  0  0  0  0  0
   37.4700   28.0170   44.0810 C   0  0  0  0  0  0  0  0  0  0  0  0
   37.5840   26.8710   43.2950 C   0  0  0  0  0  0  0  0  0  0  0  0
   37.0720   27.2800   42.0900 C   0  0  0  0  0  0  0  0  0  0  0  0
   36.9230   26.5740   40.9110 C   0  0  0  0  0  0  0  0  0  0  0  0
   36.2440   26.6420   38.8370 H   0  0  0  0  0  0  0  0  0  0  0  0
   35.8370   30.1990   41.1110 H   0  0  0  0  0  0  0  0  0  0  0  0
   36.7520   29.9480   43.7490 H   0  0  0  0  0  0  0  0  0  0  0  0
   37.7900   28.0550   45.1290 H   0  0  0  0  0  0  0  0  0  0  0  0
   37.9770   25.9310   43.5970 H   0  0  0  0  0  0  0  0  0  0  0  0
   37.3400   25.1770   40.8330 C   0  0  0  0  0  0  0  0  0  0  0  0
   36.5990   24.2420   41.1950 O   0  0  0  0  0  0  0  0  0  0  0  0
   38.3190   24.9180   40.4510 H   0  0  0  0  0  0  0  0  0  0  0  0
  1  7  1  0  0  0  0
  1 22  1  0  0  0  0
  2  1  1  0  0  0  0
  3  1  1  0  0  0  0
  4  5  1  0  0  0  0
  5  9  1  0  0  0  0
  6  5  2  0  0  0  0
  6 10  1  0  0  0  0
  7  6  1  0  0  0  0
  8  7  1  0  0  0  0
  8  4  2  0  0  0  0
 11 16  1  0  0  0  0
 11 17  1  0  0  0  0
 12 11  2  0  0  0  0
 13 14  2  0  0  0  0
 13 12  1  0  0  0  0
 14 15  1  0  0  0  0
 15  4  1  0  0  0  0
 15 16  2  0  0  0  0
 18 12  1  0  0  0  0
 19 20  1  0  0  0  0
 19 13  1  0  0  0  0
 21 19  2  0  0  0  0
 22 23  1  0  0  0  0
 22 26  1  0  0  0  0
 24 22  1  0  0  0  0
 25 33  1  0  0  0  0
 26 25  2  0  0  0  0
 26 27  1  0  0  0  0
 27 35  1  0  0  0  0
 27 28  2  0  0  0  0
 28 29  1  0  0  0  0
 29 36  1  0  0  0  0
 29 30  1  0  0  0  0
 30 37  1  0  0  0  0
 31 38  1  0  0  0  0
 31 30  2  0  0  0  0
 32 28  1  0  0  0  0
 32 31  1  0  0  0  0
 33 32  2  0  0  0  0
 34 25  1  0  0  0  0
 39 33  1  0  0  0  0
 39 40  2  0  0  0  0
 41 39  1  0  0  0  0
M  END
>  <minimizedAffinity>
-6.00101471

$$$$

 OpenBabel03252506303D

 41 44  0  0  0  0  0  0  0  0999 V2000
   37.1780   30.7210   37.8420 C   0  0  0  0  0  0  0  0  0  0  0  0
   36.7980   31.1690   36.9180 H   0  0  0  0  0  0  0  0  0  0  0  0
   37.9220   29.9410   37.6260 H   0  0  0  0  0  0  0  0  0  0  0  0
   39.3720   32.7620   39.7960 C   0  0  0  0  0  0  0  0  0  0  0  0
   38.1630   33.4790   39.8660 C   0  0  0  0  0  0  0  0  0  0  0  0
   37.2170   32.8220   39.1610 C   0  0  0  0  0  0  0  0  0  0  0  0
   37.8200   31.7360   38.6740 N   0  0  0  0  0  0  0  0  0  0  0  0
   39.1020   31.6850   39.0400 N   0  0  0  0  0  0  0  0  0  0  0  0
   38.0070   34.4150   40.4000 H   0  0  0  0  0  0  0  0  0  0  0  0
   36.1640   33.0560   38.9810 H   0  0  0  0  0  0  0  0  0  0  0  0
   42.1730   34.8330   40.8930 C   0  0  0  0  0  0  0  0  0  0  0  0
   42.9590   33.9540   41.6340 C   0  0  0  0  0  0  0  0  0  0  0  0
   42.5000   32.6430   41.7410 C   0  0  0  0  0  0  0  0  0  0  0  0
   41.3450   32.3120   41.1340 N   0  0  0  0  0  0  0  0  0  0  0  0
   40.6060   33.1660   40.4300 C   0  0  0  0  0  0  0  0  0  0  0  0
   41.0330   34.4320   40.3170 N   0  0  0  0  0  0  0  0  0  0  0  0
   42.4820   35.8570   40.7790 H   0  0  0  0  0  0  0  0  0  0  0  0
   43.8850   34.2500   42.1110 H   0  0  0  0  0  0  0  0  0  0  0  0
   43.2580   31.6780   42.4900 C   0  0  0  0  0  0  0  0  0  0  0  0
   44.1230   31.1990   42.0620 H   0  0  0  0  0  0  0  0  0  0  0  0
   42.9240   31.3700   43.6680 O   0  0  0  0  0  0  0  0  0  0  0  0
   36.0390   30.0990   38.5740 C   0  0  0  0  0  0  0  0  0  0  0  0
   35.4700   30.9230   39.0650 H   0  0  0  0  0  0  0  0  0  0  0  0
   35.3320   29.6800   37.8170 H   0  0  0  0  0  0  0  0  0  0  0  0
   36.6150   27.7760   39.4650 C   0  0  0  0  0  0  0  0  0  0  0  0
   36.3660   29.1170   39.5940 C   0  0  0  0  0  0  0  0  0  0  0  0
   36.4330   29.6330   40.8910 C   0  0  0  0  0  0  0  0  0  0  0  0
   36.7290   28.8480   41.9690 C   0  0  0  0  0  0  0  0  0  0  0  0
   36.8600   29.0630   43.2940 N   0  0  0  0  0  0  0  0  0  0  0  0
   37.1670   27.9390   43.9450 C   0  0  0  0  0  0  0  0  0  0  0  0
   37.2540   26.8950   43.0260 C   0  0  0  0  0  0  0  0  0  0  0  0
   36.9750   27.5160   41.8360 C   0  0  0  0  0  0  0  0  0  0  0  0
   36.9140   26.9880   40.5600 C   0  0  0  0  0  0  0  0  0  0  0  0
   36.5560   27.4060   38.4460 H   0  0  0  0  0  0  0  0  0  0  0  0
   36.2580   30.6770   41.1300 H   0  0  0  0  0  0  0  0  0  0  0  0
   36.7440   29.9780   43.8000 H   0  0  0  0  0  0  0  0  0  0  0  0
   37.3340   27.8030   45.0210 H   0  0  0  0  0  0  0  0  0  0  0  0
   37.4830   25.8790   43.2400 H   0  0  0  0  0  0  0  0  0  0  0  0
   37.1660   25.5680   40.3380 C   0  0  0  0  0  0  0  0  0  0  0  0
   36.2410   24.7500   40.1560 O   0  0  0  0  0  0  0  0  0  0  0  0
   38.1790   25.1860   40.3270 H   0  0  0  0  0  0  0  0  0  0  0  0
  1 22  1  0  0  0  0
  1  7  1  0  0  0  0
  2  1  1  0  0  0  0
  3  1  1  0  0  0  0
  4  5  1  0  0  0  0
  4 15  1  0  0  0  0
  5  9  1  0  0  0  0
  6  5  2  0  0  0  0
  7  8  1  0  0  0  0
  7  6  1  0  0  0  0
  8  4  2  0  0  0  0
 10  6  1  0  0  0  0
 11 12  1  0  0  0  0
 12 13  2  0  0  0  0
 12 18  1  0  0  0  0
 13 19  1  0  0  0  0
 14 13  1  0  0  0  0
 15 14  2  0  0  0  0
 16 15  1  0  0  0  0
 16 11  2  0  0  0  0
 17 11  1  0  0  0  0
 19 21  2  0  0  0  0
 20 19  1  0  0  0  0
 22 23  1  0  0  0  0
 22 26  1  0  0  0  0
 24 22  1  0  0  0  0
 25 26  2  0  0  0  0
 25 33  1  0  0  0  0
 26 27  1  0  0  0  0
 27 35  1  0  0  0  0
 27 28  2  0  0  0  0
 28 29  1  0  0  0  0
 29 36  1  0  0  0  0
 29 30  1  0  0  0  0
 30 37  1  0  0  0  0
 31 38  1  0  0  0  0
 31 30  2  0  0  0  0
 32 28  1  0  0  0  0
 32 31  1  0  0  0  0
 33 32  2  0  0  0  0
 34 25  1  0  0  0  0
 39 33  1  0  0  0  0
 40 39  2  0  0  0  0
 41 39  1  0  0  0  0
M  END
>  <minimizedAffinity>
-5.92122793

$$$$

 OpenBabel03252506303D

 41 44  0  0  0  0  0  0  0  0999 V2000
   36.3850   29.4140   38.2660 C   0  0  0  0  0  0  0  0  0  0  0  0
   35.7920   29.7270   37.4010 H   0  0  0  0  0  0  0  0  0  0  0  0
   37.1920   28.7320   37.9650 H   0  0  0  0  0  0  0  0  0  0  0  0
   38.4270   32.1590   39.3140 C   0  0  0  0  0  0  0  0  0  0  0  0
   37.3600   32.2190   40.2300 C   0  0  0  0  0  0  0  0  0  0  0  0
   36.4860   31.2260   39.9580 C   0  0  0  0  0  0  0  0  0  0  0  0
   36.9960   30.5750   38.9120 N   0  0  0  0  0  0  0  0  0  0  0  0
   38.1480   31.1160   38.5150 N   0  0  0  0  0  0  0  0  0  0  0  0
   37.2480   32.9480   41.0320 H   0  0  0  0  0  0  0  0  0  0  0  0
   35.5460   30.9460   40.4410 H   0  0  0  0  0  0  0  0  0  0  0  0
   40.6600   34.9030   40.2200 C   0  0  0  0  0  0  0  0  0  0  0  0
   41.6890   34.8100   39.2870 C   0  0  0  0  0  0  0  0  0  0  0  0
   41.5890   33.7850   38.3470 C   0  0  0  0  0  0  0  0  0  0  0  0
   40.5250   32.9630   38.3990 N   0  0  0  0  0  0  0  0  0  0  0  0
   39.5510   33.0670   39.2990 C   0  0  0  0  0  0  0  0  0  0  0  0
   39.6300   34.0470   40.2110 N   0  0  0  0  0  0  0  0  0  0  0  0
   40.6870   35.6760   40.9680 H   0  0  0  0  0  0  0  0  0  0  0  0
   42.5340   35.4870   39.2700 H   0  0  0  0  0  0  0  0  0  0  0  0
   42.6130   33.6260   37.3510 C   0  0  0  0  0  0  0  0  0  0  0  0
   42.3610   33.5050   36.3100 H   0  0  0  0  0  0  0  0  0  0  0  0
   43.8330   33.6240   37.6760 O   0  0  0  0  0  0  0  0  0  0  0  0
   35.4940   28.7010   39.2230 C   0  0  0  0  0  0  0  0  0  0  0  0
   34.9490   29.4760   39.8110 H   0  0  0  0  0  0  0  0  0  0  0  0
   34.6980   28.1850   38.6320 H   0  0  0  0  0  0  0  0  0  0  0  0
   36.4580   27.9960   41.4800 C   0  0  0  0  0  0  0  0  0  0  0  0
   36.1270   27.7940   40.1660 C   0  0  0  0  0  0  0  0  0  0  0  0
   36.4350   26.5370   39.6390 C   0  0  0  0  0  0  0  0  0  0  0  0
   37.0330   25.5640   40.3890 C   0  0  0  0  0  0  0  0  0  0  0  0
   37.4360   24.2980   40.1560 N   0  0  0  0  0  0  0  0  0  0  0  0
   37.9790   23.7480   41.2450 C   0  0  0  0  0  0  0  0  0  0  0  0
   37.9510   24.6800   42.2820 C   0  0  0  0  0  0  0  0  0  0  0  0
   37.3600   25.7690   41.6940 C   0  0  0  0  0  0  0  0  0  0  0  0
   37.0620   27.0070   42.2320 C   0  0  0  0  0  0  0  0  0  0  0  0
   36.2060   28.9810   41.8590 H   0  0  0  0  0  0  0  0  0  0  0  0
   36.2260   26.2490   38.6140 H   0  0  0  0  0  0  0  0  0  0  0  0
   37.3560   23.7650   39.2530 H   0  0  0  0  0  0  0  0  0  0  0  0
   38.3930   22.7400   41.3600 H   0  0  0  0  0  0  0  0  0  0  0  0
   38.3110   24.5380   43.2720 H   0  0  0  0  0  0  0  0  0  0  0  0
   37.3840   27.3000   43.6250 C   0  0  0  0  0  0  0  0  0  0  0  0
   37.3380   28.4590   44.0870 O   0  0  0  0  0  0  0  0  0  0  0  0
   37.6730   26.5050   44.3000 H   0  0  0  0  0  0  0  0  0  0  0  0
  1  7  1  0  0  0  0
  1 22  1  0  0  0  0
  2  1  1  0  0  0  0
  3  1  1  0  0  0  0
  4  5  1  0  0  0  0
  5  9  1  0  0  0  0
  6  5  2  0  0  0  0
  6 10  1  0  0  0  0
  7  6  1  0  0  0  0
  8  7  1  0  0  0  0
  8  4  2  0  0  0  0
 11 17  1  0  0  0  0
 12 11  2  0  0  0  0
 13 14  2  0  0  0  0
 13 12  1  0  0  0  0
 14 15  1  0  0  0  0
 15  4  1  0  0  0  0
 15 16  2  0  0  0  0
 16 11  1  0  0  0  0
 18 12  1  0  0  0  0
 19 21  2  0  0  0  0
 19 13  1  0  0  0  0
 20 19  1  0  0  0  0
 22 23  1  0  0  0  0
 22 26  1  0  0  0  0
 24 22  1  0  0  0  0
 25 34  1  0  0  0  0
 25 33  1  0  0  0  0
 26 25  2  0  0  0  0
 27 26  1  0  0  0  0
 27 28  2  0  0  0  0
 28 32  1  0  0  0  0
 29 28  1  0  0  0  0
 29 30  1  0  0  0  0
 30 37  1  0  0  0  0
 30 31  2  0  0  0  0
 31 38  1  0  0  0  0
 32 33  2  0  0  0  0
 32 31  1  0  0  0  0
 33 39  1  0  0  0  0
 35 27  1  0  0  0  0
 36 29  1  0  0  0  0
 39 40  2  0  0  0  0
 39 41  1  0  0  0  0
M  END
>  <minimizedAffinity>
-5.82967424

$$$$

 OpenBabel03252506303D

 41 44  0  0  0  0  0  0  0  0999 V2000
   36.6020   29.7770   38.0080 C   0  0  0  0  0  0  0  0  0  0  0  0
   36.0560   30.0500   37.1000 H   0  0  0  0  0  0  0  0  0  0  0  0
   37.3030   28.9530   37.8140 H   0  0  0  0  0  0  0  0  0  0  0  0
   39.0590   32.2520   38.8050 C   0  0  0  0  0  0  0  0  0  0  0  0
   37.9350   32.7130   39.5160 C   0  0  0  0  0  0  0  0  0  0  0  0
   36.9030   31.8670   39.3110 C   0  0  0  0  0  0  0  0  0  0  0  0
   37.3730   30.9150   38.5030 N   0  0  0  0  0  0  0  0  0  0  0  0
   38.6520   31.1290   38.1900 N   0  0  0  0  0  0  0  0  0  0  0  0
   37.8950   33.6080   40.1340 H   0  0  0  0  0  0  0  0  0  0  0  0
   35.8770   31.8820   39.6890 H   0  0  0  0  0  0  0  0  0  0  0  0
   42.2730   33.5160   37.6170 C   0  0  0  0  0  0  0  0  0  0  0  0
   42.8080   34.1500   38.7340 C   0  0  0  0  0  0  0  0  0  0  0  0
   42.0380   34.1280   39.8950 C   0  0  0  0  0  0  0  0  0  0  0  0
   40.8430   33.5070   39.8650 N   0  0  0  0  0  0  0  0  0  0  0  0
   40.3470   32.9070   38.7870 C   0  0  0  0  0  0  0  0  0  0  0  0
   41.0760   32.9180   37.6610 N   0  0  0  0  0  0  0  0  0  0  0  0
   42.8260   33.5030   36.6950 H   0  0  0  0  0  0  0  0  0  0  0  0
   43.7740   34.6420   38.7270 H   0  0  0  0  0  0  0  0  0  0  0  0
   42.5240   34.7620   41.0890 C   0  0  0  0  0  0  0  0  0  0  0  0
   41.8680   35.3410   41.7180 H   0  0  0  0  0  0  0  0  0  0  0  0
   43.7360   34.6530   41.4280 O   0  0  0  0  0  0  0  0  0  0  0  0
   35.6220   29.3310   39.0380 C   0  0  0  0  0  0  0  0  0  0  0  0
   35.2970   30.2380   39.6020 H   0  0  0  0  0  0  0  0  0  0  0  0
   34.7010   28.9840   38.5090 H   0  0  0  0  0  0  0  0  0  0  0  0
   36.2450   28.4710   41.3600 C   0  0  0  0  0  0  0  0  0  0  0  0
   36.0790   28.3490   40.0060 C   0  0  0  0  0  0  0  0  0  0  0  0
   36.3900   27.1010   39.4580 C   0  0  0  0  0  0  0  0  0  0  0  0
   36.8350   26.0630   40.2260 C   0  0  0  0  0  0  0  0  0  0  0  0
   37.2000   24.7880   39.9810 N   0  0  0  0  0  0  0  0  0  0  0  0
   37.5680   24.1600   41.1010 C   0  0  0  0  0  0  0  0  0  0  0  0
   37.4520   25.0430   42.1730 C   0  0  0  0  0  0  0  0  0  0  0  0
   36.9990   26.1900   41.5710 C   0  0  0  0  0  0  0  0  0  0  0  0
   36.6960   27.4170   42.1310 C   0  0  0  0  0  0  0  0  0  0  0  0
   35.9960   29.4510   41.7540 H   0  0  0  0  0  0  0  0  0  0  0  0
   36.3020   26.8720   38.4000 H   0  0  0  0  0  0  0  0  0  0  0  0
   37.2130   24.3020   39.0490 H   0  0  0  0  0  0  0  0  0  0  0  0
   37.9130   23.1250   41.2150 H   0  0  0  0  0  0  0  0  0  0  0  0
   37.6710   24.8360   43.1920 H   0  0  0  0  0  0  0  0  0  0  0  0
   36.8460   27.6280   43.5670 C   0  0  0  0  0  0  0  0  0  0  0  0
   37.4770   28.6000   44.0320 O   0  0  0  0  0  0  0  0  0  0  0  0
   36.4070   26.9350   44.2720 H   0  0  0  0  0  0  0  0  0  0  0  0
  1  7  1  0  0  0  0
  1 22  1  0  0  0  0
  2  1  1  0  0  0  0
  3  1  1  0  0  0  0
  4  5  1  0  0  0  0
  5  9  1  0  0  0  0
  6  5  2  0  0  0  0
  6 10  1  0  0  0  0
  7  6  1  0  0  0  0
  8  7  1  0  0  0  0
  8  4  2  0  0  0  0
 11 16  2  0  0  0  0
 11 12  1  0  0  0  0
 12 13  2  0  0  0  0
 13 19  1  0  0  0  0
 14 13  1  0  0  0  0
 15  4  1  0  0  0  0
 15 14  2  0  0  0  0
 16 15  1  0  0  0  0
 17 11  1  0  0  0  0
 18 12  1  0  0  0  0
 19 21  2  0  0  0  0
 19 20  1  0  0  0  0
 22 23  1  0  0  0  0
 22 26  1  0  0  0  0
 24 22  1  0  0  0  0
 25 34  1  0  0  0  0
 25 33  1  0  0  0  0
 26 25  2  0  0  0  0
 27 26  1  0  0  0  0
 27 28  2  0  0  0  0
 28 32  1  0  0  0  0
 29 28  1  0  0  0  0
 29 30  1  0  0  0  0
 30 37  1  0  0  0  0
 30 31  2  0  0  0  0
 31 38  1  0  0  0  0
 32 33  2  0  0  0  0
 32 31  1  0  0  0  0
 33 39  1  0  0  0  0
 35 27  1  0  0  0  0
 36 29  1  0  0  0  0
 39 40  2  0  0  0  0
 39 41  1  0  0  0  0
M  END
>  <minimizedAffinity>
-5.76414204

$$$$

 OpenBabel03252506303D

 41 44  0  0  0  0  0  0  0  0999 V2000
   37.8010   27.6470   43.8690 C   0  0  0  0  0  0  0  0  0  0  0  0
   38.4540   26.8150   44.1520 H   0  0  0  0  0  0  0  0  0  0  0  0
   37.4070   28.1590   44.7580 H   0  0  0  0  0  0  0  0  0  0  0  0
   38.9350   30.4190   41.9120 C   0  0  0  0  0  0  0  0  0  0  0  0
   40.1020   29.6410   42.0240 C   0  0  0  0  0  0  0  0  0  0  0  0
   39.8310   28.5360   42.7520 C   0  0  0  0  0  0  0  0  0  0  0  0
   38.5400   28.6280   43.0770 N   0  0  0  0  0  0  0  0  0  0  0  0
   37.9920   29.7410   42.5870 N   0  0  0  0  0  0  0  0  0  0  0  0
   41.0740   29.8840   41.5970 H   0  0  0  0  0  0  0  0  0  0  0  0
   40.4680   27.7000   43.0530 H   0  0  0  0  0  0  0  0  0  0  0  0
   37.5930   33.1830   39.9380 C   0  0  0  0  0  0  0  0  0  0  0  0
   38.6630   34.0680   39.8440 C   0  0  0  0  0  0  0  0  0  0  0  0
   39.8470   33.6870   40.4730 C   0  0  0  0  0  0  0  0  0  0  0  0
   39.8820   32.5080   41.1230 N   0  0  0  0  0  0  0  0  0  0  0  0
   38.8480   31.6750   41.2030 C   0  0  0  0  0  0  0  0  0  0  0  0
   37.7010   32.0260   40.6020 N   0  0  0  0  0  0  0  0  0  0  0  0
   36.6560   33.4270   39.4700 H   0  0  0  0  0  0  0  0  0  0  0  0
   38.6050   35.0100   39.3130 H   0  0  0  0  0  0  0  0  0  0  0  0
   40.9960   34.5490   40.4190 C   0  0  0  0  0  0  0  0  0  0  0  0
   40.9430   35.5170   39.9480 H   0  0  0  0  0  0  0  0  0  0  0  0
   42.0950   34.1890   40.9250 O   0  0  0  0  0  0  0  0  0  0  0  0
   36.6550   27.1090   43.0850 C   0  0  0  0  0  0  0  0  0  0  0  0
   36.0420   26.4850   43.7780 H   0  0  0  0  0  0  0  0  0  0  0  0
   35.9900   27.9670   42.8160 H   0  0  0  0  0  0  0  0  0  0  0  0
   36.9620   26.6380   40.5940 C   0  0  0  0  0  0  0  0  0  0  0  0
   36.9710   26.2980   41.9220 C   0  0  0  0  0  0  0  0  0  0  0  0
   37.3380   24.9830   42.2180 C   0  0  0  0  0  0  0  0  0  0  0  0
   37.6670   24.0850   41.2420 C   0  0  0  0  0  0  0  0  0  0  0  0
   38.0480   22.7910   41.2310 N   0  0  0  0  0  0  0  0  0  0  0  0
   38.2610   22.3540   39.9870 C   0  0  0  0  0  0  0  0  0  0  0  0
   38.0160   23.3960   39.0940 C   0  0  0  0  0  0  0  0  0  0  0  0
   37.6560   24.4270   39.9250 C   0  0  0  0  0  0  0  0  0  0  0  0
   37.2970   25.7250   39.6130 C   0  0  0  0  0  0  0  0  0  0  0  0
   36.6740   27.6650   40.3980 H   0  0  0  0  0  0  0  0  0  0  0  0
   37.3850   24.5870   43.2270 H   0  0  0  0  0  0  0  0  0  0  0  0
   38.1750   22.1620   42.0640 H   0  0  0  0  0  0  0  0  0  0  0  0
   38.5760   21.3540   39.6650 H   0  0  0  0  0  0  0  0  0  0  0  0
   38.0990   23.3570   38.0360 H   0  0  0  0  0  0  0  0  0  0  0  0
   37.2620   26.1640   38.2220 C   0  0  0  0  0  0  0  0  0  0  0  0
   36.2710   25.9700   37.4890 O   0  0  0  0  0  0  0  0  0  0  0  0
   38.1100   26.6780   37.7880 H   0  0  0  0  0  0  0  0  0  0  0  0
  1  2  1  0  0  0  0
  1  3  1  0  0  0  0
  4  5  1  0  0  0  0
  4  8  2  0  0  0  0
  5  6  2  0  0  0  0
  6 10  1  0  0  0  0
  6  7  1  0  0  0  0
  7  1  1  0  0  0  0
  8  7  1  0  0  0  0
  9  5  1  0  0  0  0
 11 16  1  0  0  0  0
 12 11  2  0  0  0  0
 12 13  1  0  0  0  0
 13 14  2  0  0  0  0
 14 15  1  0  0  0  0
 15  4  1  0  0  0  0
 16 15  2  0  0  0  0
 17 11  1  0  0  0  0
 18 12  1  0  0  0  0
 19 13  1  0  0  0  0
 19 21  2  0  0  0  0
 20 19  1  0  0  0  0
 22 23  1  0  0  0  0
 22  1  1  0  0  0  0
 24 22  1  0  0  0  0
 25 26  1  0  0  0  0
 26 27  2  0  0  0  0
 26 22  1  0  0  0  0
 27 35  1  0  0  0  0
 28 27  1  0  0  0  0
 29 28  1  0  0  0  0
 29 36  1  0  0  0  0
 30 29  1  0  0  0  0
 31 32  1  0  0  0  0
 31 30  2  0  0  0  0
 32 28  2  0  0  0  0
 33 32  1  0  0  0  0
 33 25  2  0  0  0  0
 34 25  1  0  0  0  0
 37 30  1  0  0  0  0
 38 31  1  0  0  0  0
 39 33  1  0  0  0  0
 40 39  2  0  0  0  0
 41 39  1  0  0  0  0
M  END
>  <minimizedAffinity>
-5.74536133

$$$$

 OpenBabel03252506303D

 41 44  0  0  0  0  0  0  0  0999 V2000
   37.0720   28.6750   42.7780 C   0  0  0  0  0  0  0  0  0  0  0  0
   37.1920   28.9930   43.8190 H   0  0  0  0  0  0  0  0  0  0  0  0
   36.0800   28.2320   42.6130 H   0  0  0  0  0  0  0  0  0  0  0  0
   38.1350   31.4770   40.8250 C   0  0  0  0  0  0  0  0  0  0  0  0
   36.7840   31.3530   40.4500 C   0  0  0  0  0  0  0  0  0  0  0  0
   36.2330   30.3160   41.1170 C   0  0  0  0  0  0  0  0  0  0  0  0
   37.2090   29.8180   41.8770 N   0  0  0  0  0  0  0  0  0  0  0  0
   38.3470   30.4950   41.7160 N   0  0  0  0  0  0  0  0  0  0  0  0
   36.2600   31.9870   39.7370 H   0  0  0  0  0  0  0  0  0  0  0  0
   35.2190   29.9090   41.0980 H   0  0  0  0  0  0  0  0  0  0  0  0
   39.9430   34.6290   40.4470 C   0  0  0  0  0  0  0  0  0  0  0  0
   40.7680   34.4030   39.3490 C   0  0  0  0  0  0  0  0  0  0  0  0
   40.6820   33.1480   38.7500 C   0  0  0  0  0  0  0  0  0  0  0  0
   39.8230   32.2460   39.2610 N   0  0  0  0  0  0  0  0  0  0  0  0
   39.0420   32.4790   40.3130 C   0  0  0  0  0  0  0  0  0  0  0  0
   39.1120   33.6820   40.9010 N   0  0  0  0  0  0  0  0  0  0  0  0
   39.9690   35.5800   40.9470 H   0  0  0  0  0  0  0  0  0  0  0  0
   41.4490   35.1500   38.9600 H   0  0  0  0  0  0  0  0  0  0  0  0
   41.5030   32.8410   37.6110 C   0  0  0  0  0  0  0  0  0  0  0  0
   41.4500   31.8780   37.1320 H   0  0  0  0  0  0  0  0  0  0  0  0
   42.3060   33.6970   37.1460 O   0  0  0  0  0  0  0  0  0  0  0  0
   38.1070   27.6480   42.4700 C   0  0  0  0  0  0  0  0  0  0  0  0
   38.9800   28.1800   42.0250 H   0  0  0  0  0  0  0  0  0  0  0  0
   38.4880   27.2430   43.4400 H   0  0  0  0  0  0  0  0  0  0  0  0
   36.9790   26.6360   40.4150 C   0  0  0  0  0  0  0  0  0  0  0  0
   37.7280   26.5800   41.5610 C   0  0  0  0  0  0  0  0  0  0  0  0
   38.2080   25.3180   41.9230 C   0  0  0  0  0  0  0  0  0  0  0  0
   37.9450   24.2020   41.1780 C   0  0  0  0  0  0  0  0  0  0  0  0
   38.2650   22.8960   41.2790 N   0  0  0  0  0  0  0  0  0  0  0  0
   37.7530   22.1870   40.2700 C   0  0  0  0  0  0  0  0  0  0  0  0
   37.0450   23.0450   39.4300 C   0  0  0  0  0  0  0  0  0  0  0  0
   37.2000   24.2630   40.0410 C   0  0  0  0  0  0  0  0  0  0  0  0
   36.7180   25.5030   39.6680 C   0  0  0  0  0  0  0  0  0  0  0  0
   36.6230   27.6280   40.1620 H   0  0  0  0  0  0  0  0  0  0  0  0
   38.8120   25.1370   42.8060 H   0  0  0  0  0  0  0  0  0  0  0  0
   38.8390   22.4430   42.0340 H   0  0  0  0  0  0  0  0  0  0  0  0
   37.8430   21.1100   40.0840 H   0  0  0  0  0  0  0  0  0  0  0  0
   36.5250   22.7770   38.5420 H   0  0  0  0  0  0  0  0  0  0  0  0
   35.9120   25.6460   38.4600 C   0  0  0  0  0  0  0  0  0  0  0  0
   36.3800   26.1120   37.4010 O   0  0  0  0  0  0  0  0  0  0  0  0
   34.8730   25.3450   38.4550 H   0  0  0  0  0  0  0  0  0  0  0  0
  1  2  1  0  0  0  0
  3  1  1  0  0  0  0
  4  8  2  0  0  0  0
  5  4  1  0  0  0  0
  5  6  2  0  0  0  0
  6  7  1  0  0  0  0
  7  1  1  0  0  0  0
  8  7  1  0  0  0  0
  9  5  1  0  0  0  0
 10  6  1  0  0  0  0
 11 16  1  0  0  0  0
 11 17  1  0  0  0  0
 12 11  2  0  0  0  0
 13 14  2  0  0  0  0
 13 12  1  0  0  0  0
 14 15  1  0  0  0  0
 15  4  1  0  0  0  0
 15 16  2  0  0  0  0
 18 12  1  0  0  0  0
 19 13  1  0  0  0  0
 20 19  1  0  0  0  0
 21 19  2  0  0  0  0
 22  1  1  0  0  0  0
 22 24  1  0  0  0  0
 23 22  1  0  0  0  0
 25 26  1  0  0  0  0
 26 27  2  0  0  0  0
 26 22  1  0  0  0  0
 27 35  1  0  0  0  0
 28 29  1  0  0  0  0
 28 27  1  0  0  0  0
 29 36  1  0  0  0  0
 30 29  1  0  0  0  0
 31 32  1  0  0  0  0
 31 30  2  0  0  0  0
 32 28  2  0  0  0  0
 33 32  1  0  0  0  0
 33 25  2  0  0  0  0
 34 25  1  0  0  0  0
 37 30  1  0  0  0  0
 38 31  1  0  0  0  0
 39 33  1  0  0  0  0
 40 39  2  0  0  0  0
 41 39  1  0  0  0  0
M  END
>  <minimizedAffinity>
-5.71909285

$$$$

 OpenBabel03252506303D

 41 44  0  0  0  0  0  0  0  0999 V2000
   37.5160   32.5890   39.9120 C   0  0  0  0  0  0  0  0  0  0  0  0
   37.0730   32.6060   40.9130 H   0  0  0  0  0  0  0  0  0  0  0  0
   37.2080   33.4680   39.3290 H   0  0  0  0  0  0  0  0  0  0  0  0
   41.0500   32.6210   39.3580 C   0  0  0  0  0  0  0  0  0  0  0  0
   40.9730   32.5960   40.7630 C   0  0  0  0  0  0  0  0  0  0  0  0
   39.6750   32.5820   41.1350 C   0  0  0  0  0  0  0  0  0  0  0  0
   38.9750   32.5970   40.0000 N   0  0  0  0  0  0  0  0  0  0  0  0
   39.7760   32.6210   38.9330 N   0  0  0  0  0  0  0  0  0  0  0  0
   41.8190   32.5900   41.4480 H   0  0  0  0  0  0  0  0  0  0  0  0
   39.2130   32.5600   42.1260 H   0  0  0  0  0  0  0  0  0  0  0  0
   44.3270   33.6620   38.1260 C   0  0  0  0  0  0  0  0  0  0  0  0
   44.6370   32.7010   37.1670 C   0  0  0  0  0  0  0  0  0  0  0  0
   43.6930   31.6970   36.9600 C   0  0  0  0  0  0  0  0  0  0  0  0
   42.5600   31.7170   37.6880 N   0  0  0  0  0  0  0  0  0  0  0  0
   42.2810   32.6430   38.6010 C   0  0  0  0  0  0  0  0  0  0  0  0
   43.1790   33.6170   38.8130 N   0  0  0  0  0  0  0  0  0  0  0  0
   45.0200   34.4590   38.3250 H   0  0  0  0  0  0  0  0  0  0  0  0
   45.5570   32.7120   36.5960 H   0  0  0  0  0  0  0  0  0  0  0  0
   43.9410   30.6700   35.9860 C   0  0  0  0  0  0  0  0  0  0  0  0
   44.9220   30.5310   35.5640 H   0  0  0  0  0  0  0  0  0  0  0  0
   43.0110   29.9060   35.6040 O   0  0  0  0  0  0  0  0  0  0  0  0
   37.0480   31.3640   39.2050 C   0  0  0  0  0  0  0  0  0  0  0  0
   36.0250   31.5760   38.8140 H   0  0  0  0  0  0  0  0  0  0  0  0
   37.6770   31.2340   38.2900 H   0  0  0  0  0  0  0  0  0  0  0  0
   36.8440   28.8420   39.5530 C   0  0  0  0  0  0  0  0  0  0  0  0
   36.9800   30.1370   39.9810 C   0  0  0  0  0  0  0  0  0  0  0  0
   37.0700   30.3230   41.3630 C   0  0  0  0  0  0  0  0  0  0  0  0
   37.0230   29.2760   42.2400 C   0  0  0  0  0  0  0  0  0  0  0  0
   37.0840   29.1570   43.5820 N   0  0  0  0  0  0  0  0  0  0  0  0
   36.9920   27.8820   43.9650 C   0  0  0  0  0  0  0  0  0  0  0  0
   36.8620   27.0790   42.8330 C   0  0  0  0  0  0  0  0  0  0  0  0
   36.8880   27.9920   41.8100 C   0  0  0  0  0  0  0  0  0  0  0  0
   36.7980   27.7890   40.4460 C   0  0  0  0  0  0  0  0  0  0  0  0
   36.7780   28.7320   38.4760 H   0  0  0  0  0  0  0  0  0  0  0  0
   37.1800   31.2970   41.8310 H   0  0  0  0  0  0  0  0  0  0  0  0
   37.1890   29.9350   44.2810 H   0  0  0  0  0  0  0  0  0  0  0  0
   37.0100   27.4780   44.9850 H   0  0  0  0  0  0  0  0  0  0  0  0
   36.7670   26.0200   42.8140 H   0  0  0  0  0  0  0  0  0  0  0  0
   36.6510   26.4390   39.9120 C   0  0  0  0  0  0  0  0  0  0  0  0
   37.6350   25.7360   39.6050 O   0  0  0  0  0  0  0  0  0  0  0  0
   35.6680   26.0100   39.7670 H   0  0  0  0  0  0  0  0  0  0  0  0
  1  7  1  0  0  0  0
  1  2  1  0  0  0  0
  3  1  1  0  0  0  0
  4  5  1  0  0  0  0
  5  6  2  0  0  0  0
  5  9  1  0  0  0  0
  6 10  1  0  0  0  0
  7  6  1  0  0  0  0
  8  4  2  0  0  0  0
  8  7  1  0  0  0  0
 11 17  1  0  0  0  0
 11 16  1  0  0  0  0
 12 11  2  0  0  0  0
 13 12  1  0  0  0  0
 13 14  2  0  0  0  0
 14 15  1  0  0  0  0
 15 16  2  0  0  0  0
 15  4  1  0  0  0  0
 18 12  1  0  0  0  0
 19 13  1  0  0  0  0
 20 19  1  0  0  0  0
 21 19  2  0  0  0  0
 22  1  1  0  0  0  0
 22 26  1  0  0  0  0
 23 22  1  0  0  0  0
 24 22  1  0  0  0  0
 25 26  2  0  0  0  0
 25 33  1  0  0  0  0
 26 27  1  0  0  0  0
 27 35  1  0  0  0  0
 27 28  2  0  0  0  0
 28 29  1  0  0  0  0
 29 30  1  0  0  0  0
 29 36  1  0  0  0  0
 30 37  1  0  0  0  0
 31 30  2  0  0  0  0
 32 28  1  0  0  0  0
 32 31  1  0  0  0  0
 33 32  2  0  0  0  0
 34 25  1  0  0  0  0
 38 31  1  0  0  0  0
 39 33  1  0  0  0  0
 40 39  2  0  0  0  0
 41 39  1  0  0  0  0
M  END
>  <minimizedAffinity>
-5.6902833

$$$$
