
 OpenBabel03252507533D

 32 34  0  0  1  0  0  0  0  0999 V2000
   46.9640   34.9710   42.0930 C   0  0  2  0  0  0  0  0  0  0  0  0
   46.3230   34.1960   40.9670 C   0  0  0  0  0  0  0  0  0  0  0  0
   47.5410   34.1310   40.0260 C   0  0  0  0  0  0  0  0  0  0  0  0
   48.7300   33.9960   40.9390 C   0  0  1  0  0  0  0  0  0  0  0  0
   48.1930   34.1000   42.3310 C   0  0  0  0  0  0  0  0  0  0  0  0
   47.2160   35.9630   41.7290 H   0  0  0  0  0  0  0  0  0  0  0  0
   46.0480   33.1820   41.3390 H   0  0  0  0  0  0  0  0  0  0  0  0
   45.4770   34.7250   40.4950 H   0  0  0  0  0  0  0  0  0  0  0  0
   47.5220   35.0750   39.4570 H   0  0  0  0  0  0  0  0  0  0  0  0
   47.4300   33.2770   39.3260 H   0  0  0  0  0  0  0  0  0  0  0  0
   49.4180   34.8300   40.7720 H   0  0  0  0  0  0  0  0  0  0  0  0
   48.8880   34.5550   43.0550 H   0  0  0  0  0  0  0  0  0  0  0  0
   47.6590   33.2070   42.7100 H   0  0  0  0  0  0  0  0  0  0  0  0
   44.4460   36.0410   44.6940 C   0  0  0  0  0  0  0  0  0  0  0  0
   45.1850   36.0640   43.5060 C   0  0  0  0  0  0  0  0  0  0  0  0
   46.1120   35.0360   43.3100 C   0  0  0  0  0  0  0  0  0  0  0  0
   46.2630   34.0570   44.2690 N   0  0  0  0  0  0  0  0  0  0  0  0
   45.5210   34.0840   45.4030 C   0  0  0  0  0  0  0  0  0  0  0  0
   44.6230   35.0630   45.6130 N   0  0  0  0  0  0  0  0  0  0  0  0
   43.7310   36.8390   44.8400 H   0  0  0  0  0  0  0  0  0  0  0  0
   45.0800   36.8160   42.7530 H   0  0  0  0  0  0  0  0  0  0  0  0
   45.7090   33.2720   46.0990 H   0  0  0  0  0  0  0  0  0  0  0  0
   49.4330   32.6760   40.8500 C   0  0  2  0  0  0  0  0  0  0  0  0
   49.3340   31.7610   41.9610 C   0  0  0  0  0  0  0  0  0  0  0  0
   50.6660   32.3540   41.5310 C   0  0  1  0  0  0  0  0  0  0  0  0
   49.3460   32.2520   39.8290 H   0  0  0  0  0  0  0  0  0  0  0  0
   49.1890   30.6620   41.7040 H   0  0  0  0  0  0  0  0  0  0  0  0
   49.2840   31.8570   43.0310 H   0  0  0  0  0  0  0  0  0  0  0  0
   51.1600   33.1530   42.0770 H   0  0  0  0  0  0  0  0  0  0  0  0
   51.6410   31.3830   40.9400 C   0  0  0  0  0  0  0  0  0  0  0  0
   51.5390   30.2880   41.0300 H   0  0  0  0  0  0  0  0  0  0  0  0
   52.6470   31.6990   40.2980 O   0  0  0  0  0  0  0  0  0  0  0  0
  1  6  1  6  0  0  0
  1  5  1  0  0  0  0
  1 16  1  0  0  0  0
  2  7  1  0  0  0  0
  2  1  1  0  0  0  0
  3  4  1  0  0  0  0
  3  2  1  0  0  0  0
  4 11  1  6  0  0  0
  4  5  1  0  0  0  0
  5 13  1  0  0  0  0
  5 12  1  0  0  0  0
  8  2  1  0  0  0  0
  9  3  1  0  0  0  0
 10  3  1  0  0  0  0
 14 20  1  0  0  0  0
 14 19  1  0  0  0  0
 15 14  2  0  0  0  0
 16 15  1  0  0  0  0
 16 17  2  0  0  0  0
 17 18  1  0  0  0  0
 18 19  2  0  0  0  0
 18 22  1  0  0  0  0
 21 15  1  0  0  0  0
 23 26  1  6  0  0  0
 23  4  1  0  0  0  0
 23 25  1  0  0  0  0
 23 24  1  0  0  0  0
 24 28  1  0  0  0  0
 25 24  1  0  0  0  0
 25 29  1  1  0  0  0
 27 24  1  0  0  0  0
 30 31  1  0  0  0  0
 30 25  1  0  0  0  0
 32 30  2  0  0  0  0
M  END
>  <minimizedAffinity>
-4.75895214

>  <minimizedRMSD>
0.621251285

$$$$
