REMARK  Name = 
REMARK  3 active torsions:
REMARK  status: ('A' for Active; 'I' for Inactive)
REMARK    1  A    between atoms: C_1  and  C_8
REMARK    2  A    between atoms: C_4  and  C_12
REMARK    3  A    between atoms: C_14  and  C_30
REMARK                            x       y       z     vdW  Elec       q    Type
REMARK                         _______ _______ _______ _____ _____    ______ ____
ROOT
ATOM      1  C   UNL     1      46.899  34.924  42.160  0.00  0.00    +0.000 C 
ATOM      2  C   UNL     1      46.378  33.917  41.164  0.00  0.00    +0.000 C 
ATOM      3  C   UNL     1      47.584  33.914  40.205  0.00  0.00    +0.000 C 
ATOM      4  C   UNL     1      48.786  34.086  41.094  0.00  0.00    +0.000 C 
ATOM      5  C   UNL     1      48.251  34.292  42.475  0.00  0.00    +0.000 C 
ATOM      6  H   UNL     1      46.991  35.886  41.662  0.00  0.00    +0.000 HD
ATOM      7  H   UNL     1      46.267  32.932  41.673  0.00  0.00    +0.000 HD
ATOM      8  H   UNL     1      45.456  34.242  40.651  0.00  0.00    +0.000 HD
ATOM      9  H   UNL     1      47.414  34.759  39.518  0.00  0.00    +0.000 HD
ATOM     10  H   UNL     1      47.601  32.967  39.626  0.00  0.00    +0.000 HD
ATOM     11  H   UNL     1      49.335  34.986  40.800  0.00  0.00    +0.000 HD
ATOM     12  H   UNL     1      48.872  34.940  43.113  0.00  0.00    +0.000 HD
ATOM     13  H   UNL     1      47.865  33.386  42.983  0.00  0.00    +0.000 HD
ENDROOT
BRANCH   1  16
ATOM     14  C   UNL     1      44.418  36.072  44.764  0.00  0.00    +0.000 A 
ATOM     15  C   UNL     1      45.149  36.067  43.571  0.00  0.00    +0.000 A 
ATOM     16  C   UNL     1      46.057  35.020  43.382  0.00  0.00    +0.000 A 
ATOM     17  N   UNL     1      46.198  34.052  44.353  0.00  0.00    +0.000 NA
ATOM     18  C   UNL     1      45.464  34.106  45.491  0.00  0.00    +0.000 A 
ATOM     19  N   UNL     1      44.585  35.104  45.694  0.00  0.00    +0.000 NA
ATOM     20  H   UNL     1      43.718  36.885  44.904  0.00  0.00    +0.000 HD
ATOM     21  H   UNL     1      45.052  36.810  42.808  0.00  0.00    +0.000 HD
ATOM     22  H   UNL     1      45.643  33.301  46.197  0.00  0.00    +0.000 HD
ENDBRANCH   1  16
BRANCH   4  23
ATOM     23  C   UNL     1      49.685  32.889  41.158  0.00  0.00    +0.000 C 
ATOM     24  C   UNL     1      49.601  32.019  42.306  0.00  0.00    +0.000 C 
ATOM     25  C   UNL     1      50.868  32.794  41.982  0.00  0.00    +0.000 C 
ATOM     26  H   UNL     1      49.778  32.413  40.161  0.00  0.00    +0.000 HD
ATOM     27  H   UNL     1      49.653  30.901  42.102  0.00  0.00    +0.000 HD
ATOM     28  H   UNL     1      49.417  32.153  43.357  0.00  0.00    +0.000 HD
ATOM     29  H   UNL     1      51.172  33.683  42.528  0.00  0.00    +0.000 HD
BRANCH  25  30
ATOM     30  C   UNL     1      52.038  31.962  41.556  0.00  0.00    +0.000 C 
ATOM     31  H   UNL     1      53.079  32.329  41.557  0.00  0.00    +0.000 HD
ATOM     32  O   UNL     1      51.965  30.794  41.163  0.00  0.00    +0.000 OA
ENDBRANCH  25  30
ENDBRANCH   4  23
TORSDOF 3
