
 OpenBabel03252502333D

 18 18  0  0  0  0  0  0  0  0999 V2000
   35.6010   29.1910   39.8790 C   0  0  0  0  0  0  0  0  0  0  0  0
   36.2680   30.4310   39.8340 C   0  0  0  0  0  0  0  0  0  0  0  0
   37.2060   30.7050   40.8430 C   0  0  0  0  0  0  0  0  0  0  0  0
   37.4090   29.7490   41.8020 N   0  0  0  0  0  0  0  0  0  0  0  0
   36.7590   28.5900   41.8100 C   0  0  0  0  0  0  0  0  0  0  0  0
   35.8630   28.3110   40.8580 N   0  0  0  0  0  0  0  0  0  0  0  0
   36.0830   31.1510   39.0710 H   0  0  0  0  0  0  0  0  0  0  0  0
   34.6050   28.9160   38.7960 C   0  0  0  0  0  0  0  0  0  0  0  0
   33.3240   29.1750   39.2110 F   0  0  0  0  0  0  0  0  0  0  0  0
   34.9470   29.6670   37.6840 F   0  0  0  0  0  0  0  0  0  0  0  0
   34.7330   27.5740   38.4020 F   0  0  0  0  0  0  0  0  0  0  0  0
   37.0150   27.5870   42.8710 C   0  0  0  0  0  0  0  0  0  0  0  0
   38.0630   27.9400   43.6720 F   0  0  0  0  0  0  0  0  0  0  0  0
   37.2410   26.3180   42.3070 F   0  0  0  0  0  0  0  0  0  0  0  0
   35.9060   27.4030   43.6780 F   0  0  0  0  0  0  0  0  0  0  0  0
   37.9280   31.9730   40.8490 C   0  0  0  0  0  0  0  0  0  0  0  0
   37.3310   32.8740   40.7890 H   0  0  0  0  0  0  0  0  0  0  0  0
   39.1840   31.9580   40.9240 O   0  0  0  0  0  0  0  0  0  0  0  0
  1  6  1  0  0  0  0
  2  1  2  0  0  0  0
  2  3  1  0  0  0  0
  3 16  1  0  0  0  0
  3  4  2  0  0  0  0
  4  5  1  0  0  0  0
  5 12  1  0  0  0  0
  6  5  2  0  0  0  0
  7  2  1  0  0  0  0
  8  9  1  0  0  0  0
  8  1  1  0  0  0  0
 10  8  1  0  0  0  0
 11  8  1  0  0  0  0
 12 13  1  0  0  0  0
 12 15  1  0  0  0  0
 14 12  1  0  0  0  0
 16 18  2  0  0  0  0
 17 16  1  0  0  0  0
M  END
>  <minimizedAffinity>
-4.59307432

$$$$

 OpenBabel03252502333D

 18 18  0  0  0  0  0  0  0  0999 V2000
   36.7170   28.4350   41.7380 C   0  0  0  0  0  0  0  0  0  0  0  0
   37.4760   29.6200   41.7830 C   0  0  0  0  0  0  0  0  0  0  0  0
   37.2590   30.5730   40.7730 C   0  0  0  0  0  0  0  0  0  0  0  0
   36.3250   30.2850   39.8150 N   0  0  0  0  0  0  0  0  0  0  0  0
   35.6280   29.1540   39.8070 C   0  0  0  0  0  0  0  0  0  0  0  0
   35.8200   28.2350   40.7590 N   0  0  0  0  0  0  0  0  0  0  0  0
   38.1960   29.8100   42.5450 H   0  0  0  0  0  0  0  0  0  0  0  0
   36.9610   27.4310   42.8210 C   0  0  0  0  0  0  0  0  0  0  0  0
   35.8940   27.3430   43.6780 F   0  0  0  0  0  0  0  0  0  0  0  0
   37.2490   26.2110   42.2310 F   0  0  0  0  0  0  0  0  0  0  0  0
   38.1230   27.7990   43.5180 F   0  0  0  0  0  0  0  0  0  0  0  0
   34.6270   28.8900   38.7460 C   0  0  0  0  0  0  0  0  0  0  0  0
   33.3560   29.1770   39.1530 F   0  0  0  0  0  0  0  0  0  0  0  0
   34.7080   27.5530   38.3130 F   0  0  0  0  0  0  0  0  0  0  0  0
   34.8850   29.6280   37.6040 F   0  0  0  0  0  0  0  0  0  0  0  0
   38.0160   31.8210   40.7660 C   0  0  0  0  0  0  0  0  0  0  0  0
   39.0320   31.7760   41.1350 H   0  0  0  0  0  0  0  0  0  0  0  0
   37.4600   32.8670   40.3400 O   0  0  0  0  0  0  0  0  0  0  0  0
  1  2  1  0  0  0  0
  1  8  1  0  0  0  0
  2  7  1  0  0  0  0
  3  2  2  0  0  0  0
  4  3  1  0  0  0  0
  5  4  2  0  0  0  0
  5  6  1  0  0  0  0
  6  1  2  0  0  0  0
  8 11  1  0  0  0  0
  8  9  1  0  0  0  0
 10  8  1  0  0  0  0
 12 13  1  0  0  0  0
 12  5  1  0  0  0  0
 14 12  1  0  0  0  0
 15 12  1  0  0  0  0
 16  3  1  0  0  0  0
 16 17  1  0  0  0  0
 18 16  2  0  0  0  0
M  END
>  <minimizedAffinity>
-4.50239468

$$$$

 OpenBabel03252502333D

 18 18  0  0  0  0  0  0  0  0999 V2000
   35.9970   29.8190   39.9310 C   0  0  0  0  0  0  0  0  0  0  0  0
   36.5090   29.1730   41.0720 C   0  0  0  0  0  0  0  0  0  0  0  0
   37.5070   29.8370   41.8050 C   0  0  0  0  0  0  0  0  0  0  0  0
   37.9140   31.0670   41.3600 N   0  0  0  0  0  0  0  0  0  0  0  0
   37.4050   31.6430   40.2770 C   0  0  0  0  0  0  0  0  0  0  0  0
   36.4550   31.0270   39.5660 N   0  0  0  0  0  0  0  0  0  0  0  0
   36.1680   28.2150   41.3890 H   0  0  0  0  0  0  0  0  0  0  0  0
   34.9340   29.0970   39.1620 C   0  0  0  0  0  0  0  0  0  0  0  0
   33.7090   29.2070   39.7690 F   0  0  0  0  0  0  0  0  0  0  0  0
   34.9140   29.5940   37.8690 F   0  0  0  0  0  0  0  0  0  0  0  0
   35.3060   27.7490   39.0440 F   0  0  0  0  0  0  0  0  0  0  0  0
   37.8790   32.9760   39.8370 C   0  0  0  0  0  0  0  0  0  0  0  0
   36.8810   33.7210   39.2760 F   0  0  0  0  0  0  0  0  0  0  0  0
   38.9520   32.8460   38.9350 F   0  0  0  0  0  0  0  0  0  0  0  0
   38.4130   33.7020   40.8880 F   0  0  0  0  0  0  0  0  0  0  0  0
   38.0770   29.2180   42.9980 C   0  0  0  0  0  0  0  0  0  0  0  0
   39.1030   29.4690   43.2340 H   0  0  0  0  0  0  0  0  0  0  0  0
   37.3610   28.4390   43.6800 O   0  0  0  0  0  0  0  0  0  0  0  0
  1  2  1  0  0  0  0
  2  7  1  0  0  0  0
  2  3  2  0  0  0  0
  3 16  1  0  0  0  0
  4  3  1  0  0  0  0
  5  4  2  0  0  0  0
  6  1  2  0  0  0  0
  6  5  1  0  0  0  0
  8  9  1  0  0  0  0
  8  1  1  0  0  0  0
 10  8  1  0  0  0  0
 11  8  1  0  0  0  0
 12  5  1  0  0  0  0
 12 15  1  0  0  0  0
 13 12  1  0  0  0  0
 14 12  1  0  0  0  0
 16 17  1  0  0  0  0
 16 18  2  0  0  0  0
M  END
>  <minimizedAffinity>
-4.47725105

$$$$

 OpenBabel03252502333D

 18 18  0  0  0  0  0  0  0  0999 V2000
   36.9620   29.0390   41.8140 C   0  0  0  0  0  0  0  0  0  0  0  0
   35.8210   28.6580   41.0820 C   0  0  0  0  0  0  0  0  0  0  0  0
   35.3810   29.5210   40.0630 C   0  0  0  0  0  0  0  0  0  0  0  0
   36.0910   30.6720   39.8510 N   0  0  0  0  0  0  0  0  0  0  0  0
   37.1640   30.9960   40.5640 C   0  0  0  0  0  0  0  0  0  0  0  0
   37.5980   30.1890   41.5380 N   0  0  0  0  0  0  0  0  0  0  0  0
   35.2930   27.7530   41.2760 H   0  0  0  0  0  0  0  0  0  0  0  0
   37.4170   28.1090   42.8950 C   0  0  0  0  0  0  0  0  0  0  0  0
   36.3680   27.6890   43.6740 F   0  0  0  0  0  0  0  0  0  0  0  0
   38.0810   27.0450   42.3090 F   0  0  0  0  0  0  0  0  0  0  0  0
   38.3760   28.7700   43.6780 F   0  0  0  0  0  0  0  0  0  0  0  0
   37.8980   32.2550   40.2960 C   0  0  0  0  0  0  0  0  0  0  0  0
   38.6600   32.6450   41.3600 F   0  0  0  0  0  0  0  0  0  0  0  0
   37.0050   33.2810   39.9350 F   0  0  0  0  0  0  0  0  0  0  0  0
   38.7320   32.1360   39.1970 F   0  0  0  0  0  0  0  0  0  0  0  0
   34.2040   29.1800   39.2700 C   0  0  0  0  0  0  0  0  0  0  0  0
   33.2590   29.1350   39.7960 H   0  0  0  0  0  0  0  0  0  0  0  0
   34.3440   28.9590   38.0390 O   0  0  0  0  0  0  0  0  0  0  0  0
  1  8  1  0  0  0  0
  2  7  1  0  0  0  0
  2  1  2  0  0  0  0
  3  2  1  0  0  0  0
  4  3  2  0  0  0  0
  4  5  1  0  0  0  0
  5  6  2  0  0  0  0
  6  1  1  0  0  0  0
  8  9  1  0  0  0  0
  8 11  1  0  0  0  0
 10  8  1  0  0  0  0
 12  5  1  0  0  0  0
 12 13  1  0  0  0  0
 14 12  1  0  0  0  0
 15 12  1  0  0  0  0
 16 17  1  0  0  0  0
 16  3  1  0  0  0  0
 18 16  2  0  0  0  0
M  END
>  <minimizedAffinity>
-4.42987108

$$$$

 OpenBabel03252502333D

 18 18  0  0  0  0  0  0  0  0999 V2000
   37.2560   30.7150   40.6230 C   0  0  0  0  0  0  0  0  0  0  0  0
   36.2030   30.4790   39.7190 C   0  0  0  0  0  0  0  0  0  0  0  0
   35.4440   29.3090   39.8900 C   0  0  0  0  0  0  0  0  0  0  0  0
   35.7790   28.4780   40.9250 N   0  0  0  0  0  0  0  0  0  0  0  0
   36.7810   28.7350   41.7580 C   0  0  0  0  0  0  0  0  0  0  0  0
   37.5150   29.8430   41.6110 N   0  0  0  0  0  0  0  0  0  0  0  0
   35.9710   31.1500   38.9240 H   0  0  0  0  0  0  0  0  0  0  0  0
   38.0540   31.9660   40.4260 C   0  0  0  0  0  0  0  0  0  0  0  0
   38.8940   32.2010   41.4850 F   0  0  0  0  0  0  0  0  0  0  0  0
   38.7480   31.8600   39.2320 F   0  0  0  0  0  0  0  0  0  0  0  0
   37.1660   33.0400   40.2540 F   0  0  0  0  0  0  0  0  0  0  0  0
   37.1040   27.8030   42.8630 C   0  0  0  0  0  0  0  0  0  0  0  0
   38.0850   28.2890   43.6790 F   0  0  0  0  0  0  0  0  0  0  0  0
   37.4740   26.5440   42.3550 F   0  0  0  0  0  0  0  0  0  0  0  0
   35.9940   27.5340   43.6460 F   0  0  0  0  0  0  0  0  0  0  0  0
   34.3400   29.0110   38.9830 C   0  0  0  0  0  0  0  0  0  0  0  0
   33.4330   28.6260   39.4300 H   0  0  0  0  0  0  0  0  0  0  0  0
   34.4940   29.2120   37.7500 O   0  0  0  0  0  0  0  0  0  0  0  0
  1  6  1  0  0  0  0
  2  3  1  0  0  0  0
  2  1  2  0  0  0  0
  3  4  2  0  0  0  0
  4  5  1  0  0  0  0
  5 12  1  0  0  0  0
  6  5  2  0  0  0  0
  7  2  1  0  0  0  0
  8  1  1  0  0  0  0
  8  9  1  0  0  0  0
 10  8  1  0  0  0  0
 11  8  1  0  0  0  0
 12 15  1  0  0  0  0
 12 13  1  0  0  0  0
 14 12  1  0  0  0  0
 16 17  1  0  0  0  0
 16  3  1  0  0  0  0
 18 16  2  0  0  0  0
M  END
>  <minimizedAffinity>
-4.39396

$$$$

 OpenBabel03252502333D

 18 18  0  0  0  0  0  0  0  0999 V2000
   36.7490   28.7470   41.0700 C   0  0  0  0  0  0  0  0  0  0  0  0
   37.9310   29.2720   41.6270 C   0  0  0  0  0  0  0  0  0  0  0  0
   38.8640   28.3620   42.1540 C   0  0  0  0  0  0  0  0  0  0  0  0
   38.5610   27.0290   42.0890 N   0  0  0  0  0  0  0  0  0  0  0  0
   37.4330   26.5730   41.5540 C   0  0  0  0  0  0  0  0  0  0  0  0
   36.5340   27.4230   41.0490 N   0  0  0  0  0  0  0  0  0  0  0  0
   38.1330   30.3170   41.6600 H   0  0  0  0  0  0  0  0  0  0  0  0
   35.7670   29.7310   40.5140 C   0  0  0  0  0  0  0  0  0  0  0  0
   34.4980   29.2110   40.4780 F   0  0  0  0  0  0  0  0  0  0  0  0
   35.8280   30.8880   41.2710 F   0  0  0  0  0  0  0  0  0  0  0  0
   36.1840   30.0980   39.2250 F   0  0  0  0  0  0  0  0  0  0  0  0
   37.1520   25.1190   41.5090 C   0  0  0  0  0  0  0  0  0  0  0  0
   38.2950   24.3730   41.4550 F   0  0  0  0  0  0  0  0  0  0  0  0
   36.3190   24.8110   40.4170 F   0  0  0  0  0  0  0  0  0  0  0  0
   36.4250   24.7040   42.6110 F   0  0  0  0  0  0  0  0  0  0  0  0
   40.1080   28.8460   42.7450 C   0  0  0  0  0  0  0  0  0  0  0  0
   40.2810   29.9130   42.7090 H   0  0  0  0  0  0  0  0  0  0  0  0
   40.9010   28.0140   43.2580 O   0  0  0  0  0  0  0  0  0  0  0  0
  1  2  1  0  0  0  0
  2  7  1  0  0  0  0
  2  3  2  0  0  0  0
  3 16  1  0  0  0  0
  4  3  1  0  0  0  0
  5  4  2  0  0  0  0
  6  1  2  0  0  0  0
  6  5  1  0  0  0  0
  8  1  1  0  0  0  0
  8 10  1  0  0  0  0
  9  8  1  0  0  0  0
 11  8  1  0  0  0  0
 12  5  1  0  0  0  0
 12 15  1  0  0  0  0
 13 12  1  0  0  0  0
 14 12  1  0  0  0  0
 16 18  2  0  0  0  0
 17 16  1  0  0  0  0
M  END
>  <minimizedAffinity>
-4.205791

$$$$

 OpenBabel03252502333D

 18 18  0  0  0  0  0  0  0  0999 V2000
   36.8360   29.4480   40.2970 C   0  0  0  0  0  0  0  0  0  0  0  0
   36.6380   28.7870   39.0690 C   0  0  0  0  0  0  0  0  0  0  0  0
   36.5380   27.3850   39.0910 C   0  0  0  0  0  0  0  0  0  0  0  0
   36.6390   26.7580   40.3040 N   0  0  0  0  0  0  0  0  0  0  0  0
   36.8250   27.4180   41.4420 C   0  0  0  0  0  0  0  0  0  0  0  0
   36.9230   28.7510   41.4410 N   0  0  0  0  0  0  0  0  0  0  0  0
   36.5650   29.3090   38.1440 H   0  0  0  0  0  0  0  0  0  0  0  0
   36.9400   30.9410   40.2550 C   0  0  0  0  0  0  0  0  0  0  0  0
   38.2120   31.3660   40.5450 F   0  0  0  0  0  0  0  0  0  0  0  0
   36.5250   31.3750   39.0070 F   0  0  0  0  0  0  0  0  0  0  0  0
   36.0210   31.4790   41.1690 F   0  0  0  0  0  0  0  0  0  0  0  0
   36.9280   26.6920   42.7290 C   0  0  0  0  0  0  0  0  0  0  0  0
   36.0930   27.2060   43.6800 F   0  0  0  0  0  0  0  0  0  0  0  0
   38.2560   26.6970   43.1950 F   0  0  0  0  0  0  0  0  0  0  0  0
   36.6310   25.3480   42.5830 F   0  0  0  0  0  0  0  0  0  0  0  0
   36.3340   26.6440   37.8510 C   0  0  0  0  0  0  0  0  0  0  0  0
   37.2040   26.4900   37.2260 H   0  0  0  0  0  0  0  0  0  0  0  0
   35.1780   26.2280   37.5740 O   0  0  0  0  0  0  0  0  0  0  0  0
  1  6  1  0  0  0  0
  2  3  1  0  0  0  0
  2  1  2  0  0  0  0
  3  4  2  0  0  0  0
  4  5  1  0  0  0  0
  5 12  1  0  0  0  0
  6  5  2  0  0  0  0
  7  2  1  0  0  0  0
  8  1  1  0  0  0  0
  8  9  1  0  0  0  0
  8 11  1  0  0  0  0
 10  8  1  0  0  0  0
 12 14  1  0  0  0  0
 12 13  1  0  0  0  0
 15 12  1  0  0  0  0
 16  3  1  0  0  0  0
 17 16  1  0  0  0  0
 18 16  2  0  0  0  0
M  END
>  <minimizedAffinity>
-4.12929249

$$$$

 OpenBabel03252502333D

 18 18  0  0  0  0  0  0  0  0999 V2000
   37.3440   29.5230   41.2820 C   0  0  0  0  0  0  0  0  0  0  0  0
   38.5020   29.0270   41.9120 C   0  0  0  0  0  0  0  0  0  0  0  0
   39.6140   29.8820   42.0010 C   0  0  0  0  0  0  0  0  0  0  0  0
   39.4960   31.1390   41.4700 N   0  0  0  0  0  0  0  0  0  0  0  0
   38.3850   31.5700   40.8840 C   0  0  0  0  0  0  0  0  0  0  0  0
   37.3170   30.7710   40.7890 N   0  0  0  0  0  0  0  0  0  0  0  0
   38.5570   28.0420   42.3130 H   0  0  0  0  0  0  0  0  0  0  0  0
   36.1700   28.5990   41.1960 C   0  0  0  0  0  0  0  0  0  0  0  0
   35.0180   29.2750   40.8830 F   0  0  0  0  0  0  0  0  0  0  0  0
   36.4550   27.6120   40.2680 F   0  0  0  0  0  0  0  0  0  0  0  0
   36.0320   27.9350   42.4250 F   0  0  0  0  0  0  0  0  0  0  0  0
   38.3080   32.9400   40.3250 C   0  0  0  0  0  0  0  0  0  0  0  0
   38.7120   33.8870   41.2220 F   0  0  0  0  0  0  0  0  0  0  0  0
   37.0030   33.2190   39.8780 F   0  0  0  0  0  0  0  0  0  0  0  0
   39.0850   33.0730   39.1870 F   0  0  0  0  0  0  0  0  0  0  0  0
   40.8420   29.4240   42.6420 C   0  0  0  0  0  0  0  0  0  0  0  0
   41.6690   30.1230   42.6660 H   0  0  0  0  0  0  0  0  0  0  0  0
   40.8790   28.2630   43.1270 O   0  0  0  0  0  0  0  0  0  0  0  0
  1  2  1  0  0  0  0
  2  3  2  0  0  0  0
  2  7  1  0  0  0  0
  3 16  1  0  0  0  0
  4  3  1  0  0  0  0
  5  4  2  0  0  0  0
  6  5  1  0  0  0  0
  6  1  2  0  0  0  0
  8  1  1  0  0  0  0
  8 11  1  0  0  0  0
  9  8  1  0  0  0  0
 10  8  1  0  0  0  0
 12  5  1  0  0  0  0
 12 13  1  0  0  0  0
 14 12  1  0  0  0  0
 15 12  1  0  0  0  0
 16 17  1  0  0  0  0
 16 18  2  0  0  0  0
M  END
>  <minimizedAffinity>
-4.12833261

$$$$

 OpenBabel03252502333D

 18 18  0  0  0  0  0  0  0  0999 V2000
   37.5490   28.2300   41.9990 C   0  0  0  0  0  0  0  0  0  0  0  0
   38.5210   29.0590   42.5900 C   0  0  0  0  0  0  0  0  0  0  0  0
   38.8320   30.2660   41.9410 C   0  0  0  0  0  0  0  0  0  0  0  0
   38.1670   30.5550   40.7790 N   0  0  0  0  0  0  0  0  0  0  0  0
   37.2540   29.7450   40.2530 C   0  0  0  0  0  0  0  0  0  0  0  0
   36.9460   28.5920   40.8560 N   0  0  0  0  0  0  0  0  0  0  0  0
   39.0190   28.8010   43.4960 H   0  0  0  0  0  0  0  0  0  0  0  0
   37.2310   26.9480   42.7040 C   0  0  0  0  0  0  0  0  0  0  0  0
   38.3250   26.4510   43.3660 F   0  0  0  0  0  0  0  0  0  0  0  0
   36.1670   27.1700   43.5620 F   0  0  0  0  0  0  0  0  0  0  0  0
   36.7670   26.0210   41.7570 F   0  0  0  0  0  0  0  0  0  0  0  0
   36.5630   30.1030   38.9920 C   0  0  0  0  0  0  0  0  0  0  0  0
   36.6000   31.4460   38.7470 F   0  0  0  0  0  0  0  0  0  0  0  0
   35.2310   29.6490   39.0130 F   0  0  0  0  0  0  0  0  0  0  0  0
   37.1190   29.4560   37.9030 F   0  0  0  0  0  0  0  0  0  0  0  0
   39.8320   31.1670   42.5050 C   0  0  0  0  0  0  0  0  0  0  0  0
   39.5330   32.1970   42.6500 H   0  0  0  0  0  0  0  0  0  0  0  0
   40.9690   30.7110   42.7900 O   0  0  0  0  0  0  0  0  0  0  0  0
  1  2  1  0  0  0  0
  1  8  1  0  0  0  0
  2  7  1  0  0  0  0
  3 16  1  0  0  0  0
  3  2  2  0  0  0  0
  4  3  1  0  0  0  0
  5  4  2  0  0  0  0
  5  6  1  0  0  0  0
  6  1  2  0  0  0  0
  8  9  1  0  0  0  0
  8 10  1  0  0  0  0
 11  8  1  0  0  0  0
 12 14  1  0  0  0  0
 12  5  1  0  0  0  0
 13 12  1  0  0  0  0
 15 12  1  0  0  0  0
 16 17  1  0  0  0  0
 16 18  2  0  0  0  0
M  END
>  <minimizedAffinity>
-4.12079811

$$$$
