
 OpenBabel03242511413D

 28 29  0  0  0  0  0  0  0  0999 V2000
   46.8350   32.7750   46.1140 C   0  0  0  0  0  0  0  0  0  0  0  0
   47.8790   32.3590   45.9970 H   0  0  0  0  0  0  0  0  0  0  0  0
   46.9820   33.8040   46.4460 H   0  0  0  0  0  0  0  0  0  0  0  0
   46.2270   32.0270   47.2090 C   0  0  0  0  0  0  0  0  0  0  0  0
   45.3930   32.3970   48.2170 C   0  0  0  0  0  0  0  0  0  0  0  0
   44.8870   31.5210   49.1500 C   0  0  0  0  0  0  0  0  0  0  0  0
   45.2170   30.1990   49.0930 C   0  0  0  0  0  0  0  0  0  0  0  0
   46.0690   29.7860   48.0740 C   0  0  0  0  0  0  0  0  0  0  0  0
   46.5530   30.7060   47.1630 C   0  0  0  0  0  0  0  0  0  0  0  0
   45.1770   33.4680   48.1930 H   0  0  0  0  0  0  0  0  0  0  0  0
   44.2600   32.0190   49.8490 H   0  0  0  0  0  0  0  0  0  0  0  0
   44.7170   29.6670   49.9140 H   0  0  0  0  0  0  0  0  0  0  0  0
   46.1900   28.7170   48.2200 H   0  0  0  0  0  0  0  0  0  0  0  0
   47.4250   29.8610   46.3650 C   0  0  0  0  0  0  0  0  0  0  0  0
   47.6860   29.0760   45.7200 H   0  0  0  0  0  0  0  0  0  0  0  0
   48.6060   29.7160   46.0450 O   0  0  0  0  0  0  0  0  0  0  0  0
   46.0940   32.6400   44.8140 C   0  0  0  0  0  0  0  0  0  0  0  0
   45.0600   32.1990   45.0140 H   0  0  0  0  0  0  0  0  0  0  0  0
   46.6480   32.1510   44.0270 H   0  0  0  0  0  0  0  0  0  0  0  0
   44.5490   35.9810   44.7760 C   0  0  0  0  0  0  0  0  0  0  0  0
   44.9590   36.4850   43.5090 C   0  0  0  0  0  0  0  0  0  0  0  0
   45.7590   35.6640   42.7360 C   0  0  0  0  0  0  0  0  0  0  0  0
   46.1090   34.4560   43.1960 N   0  0  0  0  0  0  0  0  0  0  0  0
   45.6890   34.0240   44.4110 C   0  0  0  0  0  0  0  0  0  0  0  0
   44.9280   34.7630   45.1910 N   0  0  0  0  0  0  0  0  0  0  0  0
   43.9260   36.6440   45.3570 H   0  0  0  0  0  0  0  0  0  0  0  0
   44.6870   37.4460   43.1310 H   0  0  0  0  0  0  0  0  0  0  0  0
   46.1240   35.9530   41.7600 H   0  0  0  0  0  0  0  0  0  0  0  0
  1  3  1  0  0  0  0
  1  4  1  0  0  0  0
  2  1  1  0  0  0  0
  4  5  1  0  0  0  0
  5  6  2  0  0  0  0
  6 11  1  0  0  0  0
  7  6  1  0  0  0  0
  7 12  1  0  0  0  0
  8 13  1  0  0  0  0
  8  7  2  0  0  0  0
  9  4  2  0  0  0  0
  9  8  1  0  0  0  0
 10  5  1  0  0  0  0
 14  9  1  0  0  0  0
 15 14  1  0  0  0  0
 16 14  2  0  0  0  0
 17 18  1  0  0  0  0
 17  1  1  0  0  0  0
 19 17  1  0  0  0  0
 20 25  1  0  0  0  0
 20 26  1  0  0  0  0
 21 20  2  0  0  0  0
 22 23  2  0  0  0  0
 22 21  1  0  0  0  0
 23 24  1  0  0  0  0
 24 17  1  0  0  0  0
 24 25  2  0  0  0  0
 27 21  1  0  0  0  0
 28 22  1  0  0  0  0
M  END
>  <minimizedAffinity>
-4.51940441

>  <minimizedRMSD>
0.727218151

$$$$
