
 OpenBabel03252507533D

 32 34  0  0  1  0  0  0  0  0999 V2000
   46.9250   34.9940   42.0790 C   0  0  2  0  0  0  0  0  0  0  0  0
   46.2990   34.1760   40.9760 C   0  0  0  0  0  0  0  0  0  0  0  0
   47.5100   34.1290   40.0240 C   0  0  0  0  0  0  0  0  0  0  0  0
   48.7100   34.0500   40.9280 C   0  0  1  0  0  0  0  0  0  0  0  0
   48.1840   34.1670   42.3230 C   0  0  0  0  0  0  0  0  0  0  0  0
   47.1430   35.9860   41.6920 H   0  0  0  0  0  0  0  0  0  0  0  0
   46.0590   33.1620   41.3720 H   0  0  0  0  0  0  0  0  0  0  0  0
   45.4320   34.6690   40.5020 H   0  0  0  0  0  0  0  0  0  0  0  0
   47.4560   35.0600   39.4360 H   0  0  0  0  0  0  0  0  0  0  0  0
   47.4180   33.2580   39.3430 H   0  0  0  0  0  0  0  0  0  0  0  0
   49.3710   34.9020   40.7380 H   0  0  0  0  0  0  0  0  0  0  0  0
   48.8710   34.6570   43.0300 H   0  0  0  0  0  0  0  0  0  0  0  0
   47.6810   33.2650   42.7260 H   0  0  0  0  0  0  0  0  0  0  0  0
   44.4340   36.0660   44.7060 C   0  0  0  0  0  0  0  0  0  0  0  0
   45.1640   36.0910   43.5120 C   0  0  0  0  0  0  0  0  0  0  0  0
   46.0830   35.0580   43.3030 C   0  0  0  0  0  0  0  0  0  0  0  0
   46.2360   34.0730   44.2560 N   0  0  0  0  0  0  0  0  0  0  0  0
   45.5020   34.0980   45.3950 C   0  0  0  0  0  0  0  0  0  0  0  0
   44.6120   35.0830   45.6170 N   0  0  0  0  0  0  0  0  0  0  0  0
   43.7260   36.8690   44.8610 H   0  0  0  0  0  0  0  0  0  0  0  0
   45.0590   36.8470   42.7630 H   0  0  0  0  0  0  0  0  0  0  0  0
   45.6900   33.2820   46.0860 H   0  0  0  0  0  0  0  0  0  0  0  0
   49.4530   32.7510   40.8590 C   0  0  2  0  0  0  0  0  0  0  0  0
   49.3320   31.8230   41.9580 C   0  0  0  0  0  0  0  0  0  0  0  0
   50.6640   32.4570   41.5900 C   0  0  1  0  0  0  0  0  0  0  0  0
   49.4220   32.3340   39.8320 H   0  0  0  0  0  0  0  0  0  0  0  0
   49.2290   30.7230   41.6860 H   0  0  0  0  0  0  0  0  0  0  0  0
   49.2330   31.9090   43.0250 H   0  0  0  0  0  0  0  0  0  0  0  0
   51.1120   33.2640   42.1640 H   0  0  0  0  0  0  0  0  0  0  0  0
   51.6900   31.5190   41.0350 C   0  0  0  0  0  0  0  0  0  0  0  0
   52.0250   30.6050   41.5550 H   0  0  0  0  0  0  0  0  0  0  0  0
   52.2650   31.6660   39.9510 O   0  0  0  0  0  0  0  0  0  0  0  0
  1  6  1  6  0  0  0
  1  5  1  0  0  0  0
  1 16  1  0  0  0  0
  2  7  1  0  0  0  0
  2  1  1  0  0  0  0
  3  4  1  0  0  0  0
  3  2  1  0  0  0  0
  4 11  1  6  0  0  0
  4  5  1  0  0  0  0
  5 13  1  0  0  0  0
  5 12  1  0  0  0  0
  8  2  1  0  0  0  0
  9  3  1  0  0  0  0
 10  3  1  0  0  0  0
 14 20  1  0  0  0  0
 14 19  1  0  0  0  0
 15 14  2  0  0  0  0
 16 15  1  0  0  0  0
 16 17  2  0  0  0  0
 17 18  1  0  0  0  0
 18 19  2  0  0  0  0
 18 22  1  0  0  0  0
 21 15  1  0  0  0  0
 23 26  1  6  0  0  0
 23  4  1  0  0  0  0
 23 25  1  0  0  0  0
 23 24  1  0  0  0  0
 24 28  1  0  0  0  0
 25 24  1  0  0  0  0
 25 29  1  1  0  0  0
 27 24  1  0  0  0  0
 30 31  1  0  0  0  0
 30 25  1  0  0  0  0
 32 30  2  0  0  0  0
M  END
>  <minimizedAffinity>
-4.75673103

>  <minimizedRMSD>
0.372775793

$$$$
