
 OpenBabel03242523193D

 31 33  0  0  0  0  0  0  0  0999 V2000
   47.5110   32.8300   43.9130 C   0  0  0  0  0  0  0  0  0  0  0  0
   48.3450   33.3820   43.0200 C   0  0  0  0  0  0  0  0  0  0  0  0
   49.2010   32.4900   42.4080 C   0  0  0  0  0  0  0  0  0  0  0  0
   49.1230   31.1350   42.7650 N   0  0  0  0  0  0  0  0  0  0  0  0
   48.2820   30.6640   43.6530 C   0  0  0  0  0  0  0  0  0  0  0  0
   47.4080   31.5270   44.2860 N   0  0  0  0  0  0  0  0  0  0  0  0
   49.9450   32.7590   41.6530 H   0  0  0  0  0  0  0  0  0  0  0  0
   48.3400   29.5960   43.8280 H   0  0  0  0  0  0  0  0  0  0  0  0
   48.4970   34.7660   42.7510 C   0  0  0  0  0  0  0  0  0  0  0  0
   49.5300   35.3980   42.1300 C   0  0  0  0  0  0  0  0  0  0  0  0
   48.3310   35.2220   41.2380 C   0  0  0  0  0  0  0  0  0  0  0  0
   47.9910   35.4230   43.4830 H   0  0  0  0  0  0  0  0  0  0  0  0
   50.4170   34.7910   41.7790 H   0  0  0  0  0  0  0  0  0  0  0  0
   49.8580   36.4630   42.2000 H   0  0  0  0  0  0  0  0  0  0  0  0
   48.3010   34.3790   40.5390 H   0  0  0  0  0  0  0  0  0  0  0  0
   47.6530   36.0700   41.0910 H   0  0  0  0  0  0  0  0  0  0  0  0
   46.4350   33.5180   44.6420 C   0  0  0  0  0  0  0  0  0  0  0  0
   45.8680   33.8690   45.6460 O   0  0  0  0  0  0  0  0  0  0  0  0
   44.5860   31.7100   42.9660 Cl  0  0  0  0  0  0  0  0  0  0  0  0
   44.6090   33.4670   42.8000 C   0  0  0  0  0  0  0  0  0  0  0  0
   45.5110   34.1390   43.6520 C   0  0  0  0  0  0  0  0  0  0  0  0
   45.4490   35.5080   43.4400 C   0  0  0  0  0  0  0  0  0  0  0  0
   44.6960   36.2130   42.5860 C   0  0  0  0  0  0  0  0  0  0  0  0
   43.8500   35.4870   41.7960 C   0  0  0  0  0  0  0  0  0  0  0  0
   43.7920   34.1420   41.8870 C   0  0  0  0  0  0  0  0  0  0  0  0
   46.0730   36.1920   44.0550 H   0  0  0  0  0  0  0  0  0  0  0  0
   44.6860   37.2780   42.4570 H   0  0  0  0  0  0  0  0  0  0  0  0
   43.1760   35.8980   41.0570 H   0  0  0  0  0  0  0  0  0  0  0  0
   42.9090   33.3030   41.0750 C   0  0  0  0  0  0  0  0  0  0  0  0
   43.2440   32.7320   40.2370 H   0  0  0  0  0  0  0  0  0  0  0  0
   41.6990   33.1930   41.3010 O   0  0  0  0  0  0  0  0  0  0  0  0
  1  6  1  0  0  0  0
  1 17  1  0  0  0  0
  2  1  2  0  0  0  0
  3  4  2  0  0  0  0
  3  2  1  0  0  0  0
  4  5  1  0  0  0  0
  5  8  1  0  0  0  0
  5  6  2  0  0  0  0
  7  3  1  0  0  0  0
  9  2  1  0  0  0  0
  9 12  1  0  0  0  0
 10 14  1  0  0  0  0
 10  9  1  0  0  0  0
 11 10  1  0  0  0  0
 11  9  1  0  0  0  0
 13 10  1  0  0  0  0
 15 11  1  0  0  0  0
 16 11  1  0  0  0  0
 17 18  2  0  0  0  0
 20 19  1  0  0  0  0
 20 21  1  0  0  0  0
 21 17  1  0  0  0  0
 22 21  2  0  0  0  0
 22 26  1  0  0  0  0
 23 22  1  0  0  0  0
 24 25  1  0  0  0  0
 24 23  2  0  0  0  0
 25 20  2  0  0  0  0
 27 23  1  0  0  0  0
 28 24  1  0  0  0  0
 29 31  2  0  0  0  0
 29 25  1  0  0  0  0
 30 29  1  0  0  0  0
M  END
>  <minimizedAffinity>
-4.99086142

>  <minimizedRMSD>
0.264395356

$$$$
