
 OpenBabel03242523193D

 31 33  0  0  0  0  0  0  0  0999 V2000
   47.4940   32.8100   43.9130 C   0  0  0  0  0  0  0  0  0  0  0  0
   48.3460   33.3560   43.0330 C   0  0  0  0  0  0  0  0  0  0  0  0
   49.1920   32.4550   42.4200 C   0  0  0  0  0  0  0  0  0  0  0  0
   49.0870   31.0980   42.7640 N   0  0  0  0  0  0  0  0  0  0  0  0
   48.2290   30.6340   43.6390 C   0  0  0  0  0  0  0  0  0  0  0  0
   47.3640   31.5060   44.2720 N   0  0  0  0  0  0  0  0  0  0  0  0
   49.9470   32.7190   41.6750 H   0  0  0  0  0  0  0  0  0  0  0  0
   48.2670   29.5630   43.8040 H   0  0  0  0  0  0  0  0  0  0  0  0
   48.5240   34.7400   42.7790 C   0  0  0  0  0  0  0  0  0  0  0  0
   49.5710   35.3590   42.1680 C   0  0  0  0  0  0  0  0  0  0  0  0
   48.3730   35.2140   41.2700 C   0  0  0  0  0  0  0  0  0  0  0  0
   48.0270   35.3980   43.5160 H   0  0  0  0  0  0  0  0  0  0  0  0
   50.4480   34.7400   41.8150 H   0  0  0  0  0  0  0  0  0  0  0  0
   49.9180   36.4170   42.2510 H   0  0  0  0  0  0  0  0  0  0  0  0
   48.3300   34.3790   40.5620 H   0  0  0  0  0  0  0  0  0  0  0  0
   47.7110   36.0750   41.1300 H   0  0  0  0  0  0  0  0  0  0  0  0
   46.4230   33.5100   44.6380 C   0  0  0  0  0  0  0  0  0  0  0  0
   45.8570   33.8690   45.6400 O   0  0  0  0  0  0  0  0  0  0  0  0
   44.5590   31.7110   42.9690 Cl  0  0  0  0  0  0  0  0  0  0  0  0
   44.5970   33.4670   42.7950 C   0  0  0  0  0  0  0  0  0  0  0  0
   45.5050   34.1340   43.6450 C   0  0  0  0  0  0  0  0  0  0  0  0
   45.4550   35.5030   43.4280 C   0  0  0  0  0  0  0  0  0  0  0  0
   44.7080   36.2110   42.5700 C   0  0  0  0  0  0  0  0  0  0  0  0
   43.8570   35.4890   41.7830 C   0  0  0  0  0  0  0  0  0  0  0  0
   43.7870   34.1450   41.8790 C   0  0  0  0  0  0  0  0  0  0  0  0
   46.0850   36.1840   44.0400 H   0  0  0  0  0  0  0  0  0  0  0  0
   44.7080   37.2760   42.4360 H   0  0  0  0  0  0  0  0  0  0  0  0
   43.1870   35.9030   41.0410 H   0  0  0  0  0  0  0  0  0  0  0  0
   42.8970   33.3110   41.0700 C   0  0  0  0  0  0  0  0  0  0  0  0
   43.2250   32.7430   40.2270 H   0  0  0  0  0  0  0  0  0  0  0  0
   41.6880   33.2030   41.3030 O   0  0  0  0  0  0  0  0  0  0  0  0
  1  6  1  0  0  0  0
  1 17  1  0  0  0  0
  2  1  2  0  0  0  0
  3  4  2  0  0  0  0
  3  2  1  0  0  0  0
  4  5  1  0  0  0  0
  5  8  1  0  0  0  0
  5  6  2  0  0  0  0
  7  3  1  0  0  0  0
  9  2  1  0  0  0  0
  9 12  1  0  0  0  0
 10 14  1  0  0  0  0
 10  9  1  0  0  0  0
 11 10  1  0  0  0  0
 11  9  1  0  0  0  0
 13 10  1  0  0  0  0
 15 11  1  0  0  0  0
 16 11  1  0  0  0  0
 17 18  2  0  0  0  0
 20 19  1  0  0  0  0
 20 21  1  0  0  0  0
 21 17  1  0  0  0  0
 22 21  2  0  0  0  0
 22 26  1  0  0  0  0
 23 22  1  0  0  0  0
 24 25  1  0  0  0  0
 24 23  2  0  0  0  0
 25 20  2  0  0  0  0
 27 23  1  0  0  0  0
 28 24  1  0  0  0  0
 29 31  2  0  0  0  0
 29 25  1  0  0  0  0
 30 29  1  0  0  0  0
M  END
>  <minimizedAffinity>
-4.97781086

>  <minimizedRMSD>
0.105863765

$$$$
