
 OpenBabel03242523193D

 31 33  0  0  0  0  0  0  0  0999 V2000
   47.3920   32.8150   44.0270 C   0  0  0  0  0  0  0  0  0  0  0  0
   48.2450   33.3150   43.1220 C   0  0  0  0  0  0  0  0  0  0  0  0
   49.0940   32.3850   42.5590 C   0  0  0  0  0  0  0  0  0  0  0  0
   48.9910   31.0480   42.9720 N   0  0  0  0  0  0  0  0  0  0  0  0
   48.1310   30.6280   43.8680 C   0  0  0  0  0  0  0  0  0  0  0  0
   47.2630   31.5310   44.4530 N   0  0  0  0  0  0  0  0  0  0  0  0
   49.8510   32.6110   41.8030 H   0  0  0  0  0  0  0  0  0  0  0  0
   48.1700   29.5670   44.0880 H   0  0  0  0  0  0  0  0  0  0  0  0
   48.4230   34.6850   42.7960 C   0  0  0  0  0  0  0  0  0  0  0  0
   49.4530   35.2670   42.1270 C   0  0  0  0  0  0  0  0  0  0  0  0
   48.2290   35.0870   41.2720 C   0  0  0  0  0  0  0  0  0  0  0  0
   47.9500   35.3800   43.5160 H   0  0  0  0  0  0  0  0  0  0  0  0
   50.3170   34.6270   41.7770 H   0  0  0  0  0  0  0  0  0  0  0  0
   49.8080   36.3260   42.1480 H   0  0  0  0  0  0  0  0  0  0  0  0
   48.1610   34.2190   40.6060 H   0  0  0  0  0  0  0  0  0  0  0  0
   47.5670   35.9450   41.1100 H   0  0  0  0  0  0  0  0  0  0  0  0
   46.3190   33.5500   44.7130 C   0  0  0  0  0  0  0  0  0  0  0  0
   45.7370   33.9410   45.6930 O   0  0  0  0  0  0  0  0  0  0  0  0
   44.5650   31.7390   42.9390 Cl  0  0  0  0  0  0  0  0  0  0  0  0
   44.5800   33.4970   42.7870 C   0  0  0  0  0  0  0  0  0  0  0  0
   45.4360   34.1700   43.6850 C   0  0  0  0  0  0  0  0  0  0  0  0
   45.3710   35.5400   43.4810 C   0  0  0  0  0  0  0  0  0  0  0  0
   44.6510   36.2460   42.5980 C   0  0  0  0  0  0  0  0  0  0  0  0
   43.8500   35.5180   41.7650 C   0  0  0  0  0  0  0  0  0  0  0  0
   43.8000   34.1720   41.8430 C   0  0  0  0  0  0  0  0  0  0  0  0
   45.9600   36.2240   44.1300 H   0  0  0  0  0  0  0  0  0  0  0  0
   44.6380   37.3110   42.4770 H   0  0  0  0  0  0  0  0  0  0  0  0
   43.2070   35.9290   40.9980 H   0  0  0  0  0  0  0  0  0  0  0  0
   42.9630   33.3320   40.9840 C   0  0  0  0  0  0  0  0  0  0  0  0
   42.3890   32.5070   41.3440 H   0  0  0  0  0  0  0  0  0  0  0  0
   42.8580   33.5180   39.7650 O   0  0  0  0  0  0  0  0  0  0  0  0
  1  6  1  0  0  0  0
  1 17  1  0  0  0  0
  2  1  2  0  0  0  0
  3  4  2  0  0  0  0
  3  2  1  0  0  0  0
  4  5  1  0  0  0  0
  5  8  1  0  0  0  0
  5  6  2  0  0  0  0
  7  3  1  0  0  0  0
  9  2  1  0  0  0  0
  9 12  1  0  0  0  0
 10 14  1  0  0  0  0
 10  9  1  0  0  0  0
 11 10  1  0  0  0  0
 11  9  1  0  0  0  0
 13 10  1  0  0  0  0
 15 11  1  0  0  0  0
 16 11  1  0  0  0  0
 17 18  2  0  0  0  0
 20 19  1  0  0  0  0
 20 21  1  0  0  0  0
 21 17  1  0  0  0  0
 22 21  2  0  0  0  0
 22 26  1  0  0  0  0
 23 22  1  0  0  0  0
 24 25  1  0  0  0  0
 24 23  2  0  0  0  0
 25 20  2  0  0  0  0
 27 23  1  0  0  0  0
 28 24  1  0  0  0  0
 29 30  1  0  0  0  0
 29 25  1  0  0  0  0
 31 29  2  0  0  0  0
M  END
>  <minimizedAffinity>
-4.94587898

>  <minimizedRMSD>
0.222579896

$$$$
