
 OpenBabel03242521213D

 30 32  0  0  0  0  0  0  0  0999 V2000
   45.9670   33.6160   45.0510 C   0  0  0  0  0  0  0  0  0  0  0  0
   45.1430   34.6570   45.3260 C   0  0  0  0  0  0  0  0  0  0  0  0
   44.8060   35.6290   44.4080 C   0  0  0  0  0  0  0  0  0  0  0  0
   45.3480   35.4990   43.1820 N   0  0  0  0  0  0  0  0  0  0  0  0
   46.1630   34.4750   42.9010 C   0  0  0  0  0  0  0  0  0  0  0  0
   46.4960   33.5140   43.8100 N   0  0  0  0  0  0  0  0  0  0  0  0
   44.7220   34.7330   46.3220 H   0  0  0  0  0  0  0  0  0  0  0  0
   44.1520   36.4590   44.6180 H   0  0  0  0  0  0  0  0  0  0  0  0
   46.7550   34.3410   41.5510 C   0  0  0  0  0  0  0  0  0  0  0  0
   46.0860   33.6550   40.5720 C   0  0  0  0  0  0  0  0  0  0  0  0
   46.5790   33.4910   39.2940 C   0  0  0  0  0  0  0  0  0  0  0  0
   47.8140   34.0520   38.9910 C   0  0  0  0  0  0  0  0  0  0  0  0
   48.4780   34.7330   39.9620 C   0  0  0  0  0  0  0  0  0  0  0  0
   47.9890   34.8980   41.2430 C   0  0  0  0  0  0  0  0  0  0  0  0
   45.1260   33.2220   40.8170 H   0  0  0  0  0  0  0  0  0  0  0  0
   45.9830   32.9310   38.5700 H   0  0  0  0  0  0  0  0  0  0  0  0
   48.2180   33.9350   37.9920 H   0  0  0  0  0  0  0  0  0  0  0  0
   49.4380   35.1590   39.7000 H   0  0  0  0  0  0  0  0  0  0  0  0
   48.7380   35.6390   42.2570 C   0  0  0  0  0  0  0  0  0  0  0  0
   48.3990   36.5970   42.5700 H   0  0  0  0  0  0  0  0  0  0  0  0
   49.7740   35.1140   42.7370 O   0  0  0  0  0  0  0  0  0  0  0  0
   46.2170   30.3770   46.7520 C   0  0  0  0  0  0  0  0  0  0  0  0
   46.8980   30.7120   47.9210 C   0  0  0  0  0  0  0  0  0  0  0  0
   47.2740   32.0380   48.1320 C   0  0  0  0  0  0  0  0  0  0  0  0
   46.9540   32.9630   47.1710 N   0  0  0  0  0  0  0  0  0  0  0  0
   46.2940   32.6120   46.0520 C   0  0  0  0  0  0  0  0  0  0  0  0
   45.9350   31.3410   45.8500 N   0  0  0  0  0  0  0  0  0  0  0  0
   45.8930   29.3660   46.5170 H   0  0  0  0  0  0  0  0  0  0  0  0
   47.1220   29.9370   48.6410 H   0  0  0  0  0  0  0  0  0  0  0  0
   47.8060   32.3290   49.0350 H   0  0  0  0  0  0  0  0  0  0  0  0
  1  2  1  0  0  0  0
  1 26  1  0  0  0  0
  2  7  1  0  0  0  0
  3  8  1  0  0  0  0
  3  2  2  0  0  0  0
  4  3  1  0  0  0  0
  5  4  2  0  0  0  0
  5  6  1  0  0  0  0
  6  1  2  0  0  0  0
  9  5  1  0  0  0  0
 10 15  1  0  0  0  0
 10  9  2  0  0  0  0
 11 10  1  0  0  0  0
 12 11  2  0  0  0  0
 12 13  1  0  0  0  0
 13 14  2  0  0  0  0
 14  9  1  0  0  0  0
 14 19  1  0  0  0  0
 16 11  1  0  0  0  0
 17 12  1  0  0  0  0
 18 13  1  0  0  0  0
 19 20  1  0  0  0  0
 19 21  2  0  0  0  0
 22 23  1  0  0  0  0
 23 24  2  0  0  0  0
 23 29  1  0  0  0  0
 24 30  1  0  0  0  0
 25 24  1  0  0  0  0
 26 25  2  0  0  0  0
 27 26  1  0  0  0  0
 27 22  2  0  0  0  0
 28 22  1  0  0  0  0
M  END
>  <minimizedAffinity>
-5.59789419

>  <minimizedRMSD>
0.737118304

$$$$
