REMARK  Name = 
REMARK  3 active torsions:
REMARK  status: ('A' for Active; 'I' for Inactive)
REMARK    1  A    between atoms: C_1  and  C_11
REMARK    2  A    between atoms: C_5  and  C_13
REMARK    3  A    between atoms: C_18  and  C_28
REMARK                            x       y       z     vdW  Elec       q    Type
REMARK                         _______ _______ _______ _____ _____    ______ ____
ROOT
ATOM      1  C   UNL     1      45.975  33.573  45.562  0.00  0.00    +0.000 A 
ATOM      2  C   UNL     1      45.012  34.489  45.833  0.00  0.00    +0.000 A 
ATOM      3  C   UNL     1      44.635  35.483  44.956  0.00  0.00    +0.000 A 
ATOM      4  N   UNL     1      45.284  35.511  43.776  0.00  0.00    +0.000 NA
ATOM      5  C   UNL     1      46.236  34.611  43.500  0.00  0.00    +0.000 A 
ATOM      6  N   UNL     1      46.609  33.627  44.368  0.00  0.00    +0.000 NA
ATOM      7  H   UNL     1      44.508  34.440  46.791  0.00  0.00    +0.000 HD
ATOM      8  H   UNL     1      43.871  36.215  45.163  0.00  0.00    +0.000 HD
ENDROOT
BRANCH   5   9
ATOM      9  C   UNL     1      46.944  34.649  42.201  0.00  0.00    +0.000 A 
ATOM     10  C   UNL     1      46.466  33.934  41.136  0.00  0.00    +0.000 A 
ATOM     11  C   UNL     1      47.076  33.924  39.898  0.00  0.00    +0.000 A 
ATOM     12  C   UNL     1      48.231  34.679  39.731  0.00  0.00    +0.000 A 
ATOM     13  C   UNL     1      48.706  35.389  40.788  0.00  0.00    +0.000 A 
ATOM     14  C   UNL     1      48.099  35.401  42.029  0.00  0.00    +0.000 A 
ATOM     15  H   UNL     1      45.567  33.350  41.275  0.00  0.00    +0.000 HD
ATOM     16  H   UNL     1      46.631  33.328  39.099  0.00  0.00    +0.000 HD
ATOM     17  H   UNL     1      48.725  34.685  38.766  0.00  0.00    +0.000 HD
ATOM     18  H   UNL     1      49.607  35.968  40.631  0.00  0.00    +0.000 HD
BRANCH  14  19
ATOM     19  C   UNL     1      48.645  36.180  43.139  0.00  0.00    +0.000 C 
ATOM     20  H   UNL     1      48.968  37.180  42.975  0.00  0.00    +0.000 HD
ATOM     21  O   UNL     1      48.718  35.637  44.270  0.00  0.00    +0.000 OA
ENDBRANCH  14  19
ENDBRANCH   5   9
BRANCH   1  26
ATOM     22  C   UNL     1      46.102  30.335  47.279  0.00  0.00    +0.000 A 
ATOM     23  C   UNL     1      47.011  30.584  48.306  0.00  0.00    +0.000 A 
ATOM     24  C   UNL     1      47.582  31.851  48.416  0.00  0.00    +0.000 A 
ATOM     25  N   UNL     1      47.221  32.806  47.500  0.00  0.00    +0.000 NA
ATOM     26  C   UNL     1      46.340  32.539  46.519  0.00  0.00    +0.000 A 
ATOM     27  N   UNL     1      45.793  31.324  46.414  0.00  0.00    +0.000 NA
ATOM     28  H   UNL     1      45.617  29.374  47.129  0.00  0.00    +0.000 HD
ATOM     29  H   UNL     1      47.256  29.789  48.997  0.00  0.00    +0.000 HD
ATOM     30  H   UNL     1      48.294  32.075  49.207  0.00  0.00    +0.000 HD
ENDBRANCH   1  26
TORSDOF 3
