
 OpenBabel03242521213D

 30 32  0  0  0  0  0  0  0  0999 V2000
   45.9330   33.5860   45.0360 C   0  0  0  0  0  0  0  0  0  0  0  0
   45.1500   34.6560   45.3220 C   0  0  0  0  0  0  0  0  0  0  0  0
   44.7980   35.6140   44.3970 C   0  0  0  0  0  0  0  0  0  0  0  0
   45.2800   35.4410   43.1510 N   0  0  0  0  0  0  0  0  0  0  0  0
   46.0550   34.3890   42.8590 C   0  0  0  0  0  0  0  0  0  0  0  0
   46.4030   33.4400   43.7760 N   0  0  0  0  0  0  0  0  0  0  0  0
   44.7770   34.7670   46.3340 H   0  0  0  0  0  0  0  0  0  0  0  0
   44.1760   36.4670   44.6150 H   0  0  0  0  0  0  0  0  0  0  0  0
   46.5800   34.2060   41.4880 C   0  0  0  0  0  0  0  0  0  0  0  0
   45.8510   33.5160   40.5580 C   0  0  0  0  0  0  0  0  0  0  0  0
   46.2810   33.3090   39.2630 C   0  0  0  0  0  0  0  0  0  0  0  0
   47.5150   33.8290   38.8920 C   0  0  0  0  0  0  0  0  0  0  0  0
   48.2400   34.5150   39.8150 C   0  0  0  0  0  0  0  0  0  0  0  0
   47.8130   34.7240   41.1120 C   0  0  0  0  0  0  0  0  0  0  0  0
   44.8920   33.1150   40.8560 H   0  0  0  0  0  0  0  0  0  0  0  0
   45.6390   32.7480   38.5810 H   0  0  0  0  0  0  0  0  0  0  0  0
   47.8700   33.6780   37.8790 H   0  0  0  0  0  0  0  0  0  0  0  0
   49.1970   34.9090   39.4990 H   0  0  0  0  0  0  0  0  0  0  0  0
   48.6260   35.4680   42.0730 C   0  0  0  0  0  0  0  0  0  0  0  0
   48.6040   35.2010   43.1020 H   0  0  0  0  0  0  0  0  0  0  0  0
   49.3370   36.4140   41.6490 O   0  0  0  0  0  0  0  0  0  0  0  0
   46.2240   30.3700   46.7750 C   0  0  0  0  0  0  0  0  0  0  0  0
   46.9160   30.7250   47.9320 C   0  0  0  0  0  0  0  0  0  0  0  0
   47.2850   32.0560   48.1220 C   0  0  0  0  0  0  0  0  0  0  0  0
   46.9480   32.9670   47.1540 N   0  0  0  0  0  0  0  0  0  0  0  0
   46.2780   32.5970   46.0470 C   0  0  0  0  0  0  0  0  0  0  0  0
   45.9250   31.3210   45.8650 N   0  0  0  0  0  0  0  0  0  0  0  0
   45.9040   29.3550   46.5570 H   0  0  0  0  0  0  0  0  0  0  0  0
   47.1540   29.9610   48.6590 H   0  0  0  0  0  0  0  0  0  0  0  0
   47.8250   32.3630   49.0150 H   0  0  0  0  0  0  0  0  0  0  0  0
  1  2  1  0  0  0  0
  1 26  1  0  0  0  0
  2  7  1  0  0  0  0
  3  8  1  0  0  0  0
  3  2  2  0  0  0  0
  4  3  1  0  0  0  0
  5  4  2  0  0  0  0
  5  6  1  0  0  0  0
  6  1  2  0  0  0  0
  9  5  1  0  0  0  0
 10 15  1  0  0  0  0
 10  9  2  0  0  0  0
 11 10  1  0  0  0  0
 12 11  2  0  0  0  0
 12 13  1  0  0  0  0
 13 14  2  0  0  0  0
 14  9  1  0  0  0  0
 14 19  1  0  0  0  0
 16 11  1  0  0  0  0
 17 12  1  0  0  0  0
 18 13  1  0  0  0  0
 19 20  1  0  0  0  0
 21 19  2  0  0  0  0
 22 23  1  0  0  0  0
 23 24  2  0  0  0  0
 23 29  1  0  0  0  0
 24 30  1  0  0  0  0
 25 24  1  0  0  0  0
 26 25  2  0  0  0  0
 27 26  1  0  0  0  0
 27 22  2  0  0  0  0
 28 22  1  0  0  0  0
M  END
>  <minimizedAffinity>
-5.66572571

>  <minimizedRMSD>
0.919606507

$$$$
