
 OpenBabel03242519373D

 21 21  0  0  0  0  0  0  0  0999 V2000
   48.0510   32.8880   41.8360 O   0  0  0  0  0  0  0  0  0  0  0  0
   47.1740   34.0290   41.3000 P   0  0  2  0  0  0  0  0  0  0  0  0
   45.5830   33.8390   41.9240 O   0  0  0  0  0  0  0  0  0  0  0  0
   44.3880   35.9250   44.6820 C   0  0  0  0  0  0  0  0  0  0  0  0
   44.6680   35.4980   43.3620 C   0  0  0  0  0  0  0  0  0  0  0  0
   45.3080   34.2600   43.2190 C   0  0  0  0  0  0  0  0  0  0  0  0
   45.6180   33.5510   44.3290 N   0  0  0  0  0  0  0  0  0  0  0  0
   45.3370   33.9890   45.5750 C   0  0  0  0  0  0  0  0  0  0  0  0
   44.7240   35.1700   45.7600 N   0  0  0  0  0  0  0  0  0  0  0  0
   43.8980   36.8640   44.8900 H   0  0  0  0  0  0  0  0  0  0  0  0
   44.3810   36.1330   42.5410 H   0  0  0  0  0  0  0  0  0  0  0  0
   45.6410   33.3210   46.3760 H   0  0  0  0  0  0  0  0  0  0  0  0
   47.1200   34.0700   39.6420 O   0  0  0  0  0  0  0  0  0  0  0  0
   46.3990   33.1370   38.9020 C   0  0  0  0  0  0  0  0  0  0  0  0
   45.9250   32.2220   39.2330 H   0  0  0  0  0  0  0  0  0  0  0  0
   46.1490   33.1810   37.6510 O   0  0  0  0  0  0  0  0  0  0  0  0
   47.7910   35.4630   41.9360 O   0  0  0  0  0  0  0  0  0  0  0  0
   49.0420   35.7780   41.4260 C   0  0  0  0  0  0  0  0  0  0  0  0
   49.4750   37.0470   41.7810 F   0  0  0  0  0  0  0  0  0  0  0  0
   49.9420   34.7990   41.7490 F   0  0  0  0  0  0  0  0  0  0  0  0
   48.8970   35.7970   40.0340 F   0  0  0  0  0  0  0  0  0  0  0  0
  2  1  2  1  0  0  0
  2  3  1  0  0  0  0
  2 17  1  0  0  0  0
  3  6  1  0  0  0  0
  4 10  1  0  0  0  0
  4  9  1  0  0  0  0
  5  4  2  0  0  0  0
  6  5  1  0  0  0  0
  6  7  2  0  0  0  0
  7  8  1  0  0  0  0
  8  9  2  0  0  0  0
  8 12  1  0  0  0  0
 11  5  1  0  0  0  0
 13  2  1  0  0  0  0
 14 15  1  0  0  0  0
 14 13  1  0  0  0  0
 16 14  2  0  0  0  0
 18 20  1  0  0  0  0
 18 19  1  0  0  0  0
 18 17  1  0  0  0  0
 21 18  1  0  0  0  0
M  END
>  <minimizedAffinity>
-4.69668388

>  <minimizedRMSD>
0.444631666

$$$$
