
 OpenBabel03242520263D

 32 33  0  0  0  0  0  0  0  0999 V2000
   45.1040   35.6140   43.5140 C   0  0  0  0  0  0  0  0  0  0  0  0
   46.0140   34.5270   43.5290 C   0  0  0  0  0  0  0  0  0  0  0  0
   46.1680   33.7970   44.7000 C   0  0  0  0  0  0  0  0  0  0  0  0
   45.4290   34.1610   45.7980 N   0  0  0  0  0  0  0  0  0  0  0  0
   44.5700   35.1970   45.7650 C   0  0  0  0  0  0  0  0  0  0  0  0
   44.4100   35.9120   44.6450 N   0  0  0  0  0  0  0  0  0  0  0  0
   44.9690   36.1920   42.6210 H   0  0  0  0  0  0  0  0  0  0  0  0
   44.0030   35.4550   46.6550 H   0  0  0  0  0  0  0  0  0  0  0  0
   46.6940   34.2880   42.3130 N   0  0  0  0  0  0  0  0  0  0  0  0
   47.8460   35.0560   41.8710 C   0  0  0  0  0  0  0  0  0  0  0  0
   48.3980   34.4760   40.6150 C   0  0  0  0  0  0  0  0  0  0  0  0
   47.4100   34.2770   39.5930 N   0  0  0  0  0  0  0  0  0  0  0  0
   46.2250   33.6130   40.0200 C   0  0  0  0  0  0  0  0  0  0  0  0
   46.2050   33.2050   41.4570 C   0  0  0  0  0  0  0  0  0  0  0  0
   47.4900   36.0900   41.6410 H   0  0  0  0  0  0  0  0  0  0  0  0
   48.6300   35.0740   42.6350 H   0  0  0  0  0  0  0  0  0  0  0  0
   48.9350   33.5240   40.7550 H   0  0  0  0  0  0  0  0  0  0  0  0
   49.1320   35.2000   40.2020 H   0  0  0  0  0  0  0  0  0  0  0  0
   47.8310   33.7600   38.7970 H   0  0  0  0  0  0  0  0  0  0  0  0
   45.9520   32.7350   39.4090 H   0  0  0  0  0  0  0  0  0  0  0  0
   45.3750   34.3420   39.8880 H   0  0  0  0  0  0  0  0  0  0  0  0
   45.1770   32.9080   41.7270 H   0  0  0  0  0  0  0  0  0  0  0  0
   46.8760   32.3420   41.6560 H   0  0  0  0  0  0  0  0  0  0  0  0
   47.0630   32.7460   44.6750 O   0  0  0  0  0  0  0  0  0  0  0  0
   45.5760   31.0270   46.0190 O   0  0  0  0  0  0  0  0  0  0  0  0
   46.9970   31.5720   45.9300 P   0  0  1  0  0  0  0  0  0  0  0  0
   48.0700   30.3490   45.5570 O   0  0  0  0  0  0  0  0  0  0  0  0
   48.9940   30.6230   45.7650 H   0  0  0  0  0  0  0  0  0  0  0  0
   47.3500   32.3550   47.3840 O   0  0  0  0  0  0  0  0  0  0  0  0
   47.9110   31.8000   48.5020 C   0  0  0  0  0  0  0  0  0  0  0  0
   48.9550   31.9480   48.7860 H   0  0  0  0  0  0  0  0  0  0  0  0
   47.0030   31.1230   49.0860 O   0  0  0  0  0  0  0  0  0  0  0  0
  1  2  2  0  0  0  0
  1  6  1  0  0  0  0
  2  3  1  0  0  0  0
  3  4  2  0  0  0  0
  5  4  1  0  0  0  0
  5  8  1  0  0  0  0
  6  5  2  0  0  0  0
  7  1  1  0  0  0  0
  9  2  1  0  0  0  0
 10  9  1  0  0  0  0
 10 16  1  0  0  0  0
 11 17  1  0  0  0  0
 11 10  1  0  0  0  0
 12 13  1  0  0  0  0
 12 11  1  0  0  0  0
 13 14  1  0  0  0  0
 14 23  1  0  0  0  0
 14 22  1  0  0  0  0
 14  9  1  0  0  0  0
 15 10  1  0  0  0  0
 18 11  1  0  0  0  0
 19 12  1  0  0  0  0
 20 13  1  0  0  0  0
 21 13  1  0  0  0  0
 24  3  1  0  0  0  0
 24 26  1  0  0  0  0
 26 25  2  1  0  0  0
 26 29  1  0  0  0  0
 27 28  1  0  0  0  0
 27 26  1  0  0  0  0
 29 30  1  0  0  0  0
 30 31  1  0  0  0  0
 30 32  2  0  0  0  0
M  END
>  <minimizedAffinity>
-4.63180256

>  <minimizedRMSD>
0.991565704

$$$$
