
 OpenBabel03242515083D

 30 31  0  0  0  0  0  0  0  0999 V2000
   46.3580   33.6980   44.7490 C   0  0  0  0  0  0  0  0  0  0  0  0
   45.1890   34.3600   44.9580 C   0  0  0  0  0  0  0  0  0  0  0  0
   44.7000   35.3580   44.1550 C   0  0  0  0  0  0  0  0  0  0  0  0
   45.4370   35.7290   43.0490 C   0  0  0  0  0  0  0  0  0  0  0  0
   46.6070   35.0880   42.8150 C   0  0  0  0  0  0  0  0  0  0  0  0
   47.0800   34.0790   43.6450 C   0  0  0  0  0  0  0  0  0  0  0  0
   44.5860   34.0870   45.8240 H   0  0  0  0  0  0  0  0  0  0  0  0
   43.7600   35.8490   44.3730 H   0  0  0  0  0  0  0  0  0  0  0  0
   45.0300   36.5210   42.4280 H   0  0  0  0  0  0  0  0  0  0  0  0
   47.1550   35.4150   41.9290 H   0  0  0  0  0  0  0  0  0  0  0  0
   47.6320   30.4530   45.8750 C   0  0  0  0  0  0  0  0  0  0  0  0
   47.7250   30.5980   47.2590 C   0  0  0  0  0  0  0  0  0  0  0  0
   47.3450   31.8220   47.8080 C   0  0  0  0  0  0  0  0  0  0  0  0
   46.9010   32.8300   46.9930 N   0  0  0  0  0  0  0  0  0  0  0  0
   46.8270   32.6420   45.6420 C   0  0  0  0  0  0  0  0  0  0  0  0
   47.1940   31.4620   45.1200 N   0  0  0  0  0  0  0  0  0  0  0  0
   47.9090   29.5320   45.3830 H   0  0  0  0  0  0  0  0  0  0  0  0
   48.0720   29.8050   47.8820 H   0  0  0  0  0  0  0  0  0  0  0  0
   47.3920   32.0040   48.8740 H   0  0  0  0  0  0  0  0  0  0  0  0
   48.3180   33.5190   43.2510 N   0  0  0  0  0  0  0  0  0  0  0  0
   48.3350   32.4830   43.4850 H   0  0  0  0  0  0  0  0  0  0  0  0
   49.6980   34.1810   42.5110 S   0  0  0  0  0  0  0  0  0  0  0  0
   49.3560   34.5170   41.0670 O   0  0  0  0  0  0  0  0  0  0  0  0
   49.5070   33.8910   40.3380 H   0  0  0  0  0  0  0  0  0  0  0  0
   50.2420   35.3960   43.1840 O   0  0  0  0  0  0  0  0  0  0  0  0
   50.0730   36.3250   42.8750 H   0  0  0  0  0  0  0  0  0  0  0  0
   50.8470   32.9380   42.4290 O   0  0  0  0  0  0  0  0  0  0  0  0
   50.3430   31.6850   42.1040 C   0  0  0  0  0  0  0  0  0  0  0  0
   50.6080   30.7430   42.5670 H   0  0  0  0  0  0  0  0  0  0  0  0
   49.4850   31.6230   41.1710 O   0  0  0  0  0  0  0  0  0  0  0  0
  1  2  1  0  0  0  0
  1 15  1  0  0  0  0
  2  7  1  0  0  0  0
  3  8  1  0  0  0  0
  3  2  2  0  0  0  0
  4  3  1  0  0  0  0
  5  4  2  0  0  0  0
  5  6  1  0  0  0  0
  6  1  2  0  0  0  0
  9  4  1  0  0  0  0
 10  5  1  0  0  0  0
 11 12  1  0  0  0  0
 12 13  2  0  0  0  0
 12 18  1  0  0  0  0
 13 19  1  0  0  0  0
 14 13  1  0  0  0  0
 15 14  2  0  0  0  0
 16 15  1  0  0  0  0
 16 11  2  0  0  0  0
 17 11  1  0  0  0  0
 20 21  1  0  0  0  0
 20  6  1  0  0  0  0
 22 25  1  0  0  0  0
 22 20  1  0  0  0  0
 23 22  1  0  0  0  0
 24 23  1  0  0  0  0
 26 25  1  0  0  0  0
 27 22  1  0  0  0  0
 28 27  1  0  0  0  0
 28 29  1  0  0  0  0
 30 28  2  0  0  0  0
M  END
>  <minimizedAffinity>
-5.5420413

>  <minimizedRMSD>
2.05185342

$$$$
