
 OpenBabel03252500493D

 23 24  0  0  0  0  0  0  0  0999 V2000
   44.5560   35.3350   45.4120 C   0  0  0  0  0  0  0  0  0  0  0  0
   45.2180   35.2390   44.1990 C   0  0  0  0  0  0  0  0  0  0  0  0
   46.1700   34.2260   43.9980 C   0  0  0  0  0  0  0  0  0  0  0  0
   46.3880   33.3700   45.0520 N   0  0  0  0  0  0  0  0  0  0  0  0
   45.7320   33.4880   46.2130 C   0  0  0  0  0  0  0  0  0  0  0  0
   44.8250   34.4610   46.3910 N   0  0  0  0  0  0  0  0  0  0  0  0
   43.8130   36.0880   45.6350 H   0  0  0  0  0  0  0  0  0  0  0  0
   46.6970   34.1340   43.0580 H   0  0  0  0  0  0  0  0  0  0  0  0
   46.0080   32.5520   47.2890 C   0  0  0  0  0  0  0  0  0  0  0  0
   47.2490   32.0920   47.5770 C   0  0  0  0  0  0  0  0  0  0  0  0
   47.5180   31.2060   48.5910 C   0  0  0  0  0  0  0  0  0  0  0  0
   46.4670   30.7910   49.3240 N   0  0  0  0  0  0  0  0  0  0  0  0
   45.2440   31.2450   49.0410 C   0  0  0  0  0  0  0  0  0  0  0  0
   44.9450   32.1100   48.0550 N   0  0  0  0  0  0  0  0  0  0  0  0
   48.0390   32.4810   46.9330 H   0  0  0  0  0  0  0  0  0  0  0  0
   48.5520   30.9200   48.7140 H   0  0  0  0  0  0  0  0  0  0  0  0
   44.3930   30.9080   49.6330 H   0  0  0  0  0  0  0  0  0  0  0  0
   44.9100   36.1950   43.1510 C   0  0  0  0  0  0  0  0  0  0  0  0
   44.2100   35.7790   42.1870 O   0  0  0  0  0  0  0  0  0  0  0  0
   45.2590   37.5430   43.0040 O   0  0  0  0  0  0  0  0  0  0  0  0
   45.2830   38.4200   44.0530 C   0  0  0  0  0  0  0  0  0  0  0  0
   45.1600   37.9790   45.0510 H   0  0  0  0  0  0  0  0  0  0  0  0
   45.4410   39.6610   43.8490 O   0  0  0  0  0  0  0  0  0  0  0  0
  1  7  1  0  0  0  0
  1  6  1  0  0  0  0
  2  1  2  0  0  0  0
  3  2  1  0  0  0  0
  3  4  2  0  0  0  0
  4  5  1  0  0  0  0
  5  6  2  0  0  0  0
  5  9  1  0  0  0  0
  8  3  1  0  0  0  0
  9 10  2  0  0  0  0
  9 14  1  0  0  0  0
 10 11  1  0  0  0  0
 11 16  1  0  0  0  0
 11 12  2  0  0  0  0
 13 12  1  0  0  0  0
 13 17  1  0  0  0  0
 14 13  2  0  0  0  0
 15 10  1  0  0  0  0
 18  2  1  0  0  0  0
 19 18  2  0  0  0  0
 20 18  1  0  0  0  0
 20 21  1  0  0  0  0
 21 22  1  0  0  0  0
 23 21  2  0  0  0  0
M  END
>  <minimizedAffinity>
-4.52378941

>  <minimizedRMSD>
1.03607023

$$$$
