REMARK  Name = 
REMARK  8 active torsions:
REMARK  status: ('A' for Active; 'I' for Inactive)
REMARK    1  A    between atoms: N_1  and  C_7
REMARK    2  A    between atoms: C_6  and  O_15
REMARK    3  A    between atoms: C_7  and  C_8
REMARK    4  A    between atoms: C_8  and  C_11
REMARK    5  A    between atoms: O_15  and  P_17
REMARK    6  A    between atoms: P_17  and  O_18
REMARK    7  A    between atoms: P_17  and  O_19
REMARK    8  A    between atoms: O_19  and  C_37
REMARK                            x       y       z     vdW  Elec       q    Type
REMARK                         _______ _______ _______ _____ _____    ______ ____
ROOT
ATOM      1  N   UNL     1      47.167  34.150  43.082  0.00  0.00    +0.000 NA
ATOM      2  C   UNL     1      46.660  35.362  42.530  0.00  0.00    +0.000 C 
ATOM      3  C   UNL     1      45.199  35.609  42.752  0.00  0.00    +0.000 C 
ATOM      4  C   UNL     1      44.641  35.036  44.027  0.00  0.00    +0.000 C 
ATOM      5  C   UNL     1      45.742  34.468  44.892  0.00  0.00    +0.000 C 
ATOM      6  C   UNL     1      46.412  33.394  43.959  0.00  0.00    +0.000 C 
ATOM      7  H   UNL     1      46.867  35.526  41.468  0.00  0.00    +0.000 HD
ATOM      8  H   UNL     1      47.210  36.197  43.054  0.00  0.00    +0.000 HD
ATOM      9  H   UNL     1      45.031  36.716  42.795  0.00  0.00    +0.000 HD
ATOM     10  H   UNL     1      44.608  35.284  41.857  0.00  0.00    +0.000 HD
ATOM     11  H   UNL     1      43.974  35.742  44.560  0.00  0.00    +0.000 HD
ATOM     12  H   UNL     1      43.987  34.177  43.735  0.00  0.00    +0.000 HD
ATOM     13  H   UNL     1      45.312  33.975  45.773  0.00  0.00    +0.000 HD
ATOM     14  H   UNL     1      46.506  35.237  45.120  0.00  0.00    +0.000 HD
ATOM     15  H   UNL     1      45.591  32.780  43.535  0.00  0.00    +0.000 HD
ENDROOT
BRANCH   1  16
ATOM     16  C   UNL     1      48.153  33.500  42.270  0.00  0.00    +0.000 C 
ATOM     17  H   UNL     1      48.785  32.845  42.899  0.00  0.00    +0.000 HD
ATOM     18  H   UNL     1      48.770  34.282  41.779  0.00  0.00    +0.000 HD
BRANCH  16  19
ATOM     19  C   UNL     1      47.439  32.650  41.255  0.00  0.00    +0.000 C 
ATOM     20  H   UNL     1      46.346  32.917  41.206  0.00  0.00    +0.000 HD
ATOM     21  H   UNL     1      47.491  31.571  41.448  0.00  0.00    +0.000 HD
BRANCH  19  24
ATOM     22  C   UNL     1      49.335  32.286  38.029  0.00  0.00    +0.000 A 
ATOM     23  C   UNL     1      48.811  32.015  39.307  0.00  0.00    +0.000 A 
ATOM     24  C   UNL     1      47.989  32.944  39.904  0.00  0.00    +0.000 A 
ATOM     25  N   UNL     1      47.724  34.075  39.228  0.00  0.00    +0.000 NA
ATOM     26  C   UNL     1      48.228  34.325  38.010  0.00  0.00    +0.000 A 
ATOM     27  N   UNL     1      49.039  33.433  37.397  0.00  0.00    +0.000 NA
ATOM     28  H   UNL     1      49.983  31.547  37.565  0.00  0.00    +0.000 HD
ATOM     29  H   UNL     1      49.060  31.091  39.796  0.00  0.00    +0.000 HD
ATOM     30  H   UNL     1      47.968  35.260  37.530  0.00  0.00    +0.000 HD
ENDBRANCH  19  24
ENDBRANCH  16  19
ENDBRANCH   1  16
BRANCH   6  31
ATOM     31  O   UNL     1      47.207  32.699  44.857  0.00  0.00    +0.000 OA
BRANCH  31  33
ATOM     32  O   UNL     1      45.999  30.544  43.868  0.00  0.00    +0.000 OA
ATOM     33  P   UNL     1      46.668  31.128  45.118  0.00  0.00    +0.000 P 
BRANCH  33  34
ATOM     34  O   UNL     1      45.406  31.244  46.270  0.00  0.00    +0.000 OA
ATOM     35  H   UNL     1      45.793  31.396  47.167  0.00  0.00    +0.000 HD
ENDBRANCH  33  34
BRANCH  33  36
ATOM     36  O   UNL     1      47.837  30.126  45.744  0.00  0.00    +0.000 OA
BRANCH  36  37
ATOM     37  C   UNL     1      48.677  29.432  44.885  0.00  0.00    +0.000 C 
ATOM     38  H   UNL     1      48.336  28.904  44.001  0.00  0.00    +0.000 HD
ATOM     39  O   UNL     1      49.875  29.504  45.276  0.00  0.00    +0.000 OA
ENDBRANCH  36  37
ENDBRANCH  33  36
ENDBRANCH  31  33
ENDBRANCH   6  31
TORSDOF 8
