
 OpenBabel03252508593D

 39 40  0  0  1  0  0  0  0  0999 V2000
   47.1670   34.1410   43.0830 N   0  0  0  0  0  0  0  0  0  0  0  0
   46.6420   35.3340   42.5060 C   0  0  0  0  0  0  0  0  0  0  0  0
   45.1820   35.5740   42.7400 C   0  0  0  0  0  0  0  0  0  0  0  0
   44.6450   35.0290   44.0360 C   0  0  0  0  0  0  0  0  0  0  0  0
   45.7620   34.4940   44.9020 C   0  0  0  0  0  0  0  0  0  0  0  0
   46.4300   33.4020   43.9880 C   0  0  2  0  0  0  0  0  0  0  0  0
   46.8350   35.4720   41.4380 H   0  0  0  0  0  0  0  0  0  0  0  0
   47.1910   36.1870   43.0020 H   0  0  0  0  0  0  0  0  0  0  0  0
   45.0050   36.6800   42.7570 H   0  0  0  0  0  0  0  0  0  0  0  0
   44.5830   35.2210   41.8610 H   0  0  0  0  0  0  0  0  0  0  0  0
   43.9780   35.7430   44.5590 H   0  0  0  0  0  0  0  0  0  0  0  0
   43.9950   34.1570   43.7750 H   0  0  0  0  0  0  0  0  0  0  0  0
   45.3470   34.0200   45.8010 H   0  0  0  0  0  0  0  0  0  0  0  0
   46.5210   35.2750   45.1000 H   0  0  0  0  0  0  0  0  0  0  0  0
   45.6100   32.7700   43.5910 H   0  0  0  0  0  0  0  0  0  0  0  0
   48.1490   33.4790   42.2760 C   0  0  0  0  0  0  0  0  0  0  0  0
   48.7700   32.8170   42.9080 H   0  0  0  0  0  0  0  0  0  0  0  0
   48.7780   34.2540   41.7880 H   0  0  0  0  0  0  0  0  0  0  0  0
   47.4300   32.6380   41.2570 C   0  0  0  0  0  0  0  0  0  0  0  0
   46.3390   32.9140   41.2080 H   0  0  0  0  0  0  0  0  0  0  0  0
   47.4730   31.5580   41.4480 H   0  0  0  0  0  0  0  0  0  0  0  0
   49.3330   32.2710   38.0360 C   0  0  0  0  0  0  0  0  0  0  0  0
   48.8050   32.0000   39.3120 C   0  0  0  0  0  0  0  0  0  0  0  0
   47.9840   32.9310   39.9080 C   0  0  0  0  0  0  0  0  0  0  0  0
   47.7240   34.0630   39.2320 N   0  0  0  0  0  0  0  0  0  0  0  0
   48.2310   34.3130   38.0150 C   0  0  0  0  0  0  0  0  0  0  0  0
   49.0410   33.4190   37.4040 N   0  0  0  0  0  0  0  0  0  0  0  0
   49.9800   31.5300   37.5730 H   0  0  0  0  0  0  0  0  0  0  0  0
   49.0500   31.0750   39.8010 H   0  0  0  0  0  0  0  0  0  0  0  0
   47.9750   35.2490   37.5350 H   0  0  0  0  0  0  0  0  0  0  0  0
   47.2420   32.7370   44.8940 O   0  0  0  0  0  0  0  0  0  0  0  0
   46.1980   30.4950   43.9130 O   0  0  0  0  0  0  0  0  0  0  0  0
   46.7330   31.1620   45.1860 P   0  0  2  0  0  0  0  0  0  0  0  0
   45.3710   31.2860   46.2160 O   0  0  0  0  0  0  0  0  0  0  0  0
   45.6710   31.4940   47.1350 H   0  0  0  0  0  0  0  0  0  0  0  0
   47.8740   30.2340   45.9620 O   0  0  0  0  0  0  0  0  0  0  0  0
   48.7710   29.4840   45.2150 C   0  0  0  0  0  0  0  0  0  0  0  0
   48.6050   29.1940   44.1840 H   0  0  0  0  0  0  0  0  0  0  0  0
   49.7910   29.1960   45.9000 O   0  0  0  0  0  0  0  0  0  0  0  0
  1  6  1  0  0  0  0
  2  3  1  0  0  0  0
  2  8  1  0  0  0  0
  2  1  1  0  0  0  0
  3  9  1  0  0  0  0
  3  4  1  0  0  0  0
  4 11  1  0  0  0  0
  4  5  1  0  0  0  0
  5 14  1  0  0  0  0
  5 13  1  0  0  0  0
  6 15  1  6  0  0  0
  6 31  1  0  0  0  0
  6  5  1  0  0  0  0
  7  2  1  0  0  0  0
 10  3  1  0  0  0  0
 12  4  1  0  0  0  0
 16 17  1  0  0  0  0
 16  1  1  0  0  0  0
 18 16  1  0  0  0  0
 19 21  1  0  0  0  0
 19 16  1  0  0  0  0
 20 19  1  0  0  0  0
 22 23  1  0  0  0  0
 23 29  1  0  0  0  0
 23 24  2  0  0  0  0
 24 19  1  0  0  0  0
 25 24  1  0  0  0  0
 26 25  2  0  0  0  0
 27 26  1  0  0  0  0
 27 22  2  0  0  0  0
 28 22  1  0  0  0  0
 30 26  1  0  0  0  0
 31 33  1  0  0  0  0
 33 32  2  6  0  0  0
 33 36  1  0  0  0  0
 33 34  1  0  0  0  0
 34 35  1  0  0  0  0
 37 39  2  0  0  0  0
 37 36  1  0  0  0  0
 38 37  1  0  0  0  0
M  END
>  <minimizedAffinity>
-3.64434862

>  <minimizedRMSD>
0.152077526

$$$$
