
 OpenBabel03252508583D

 39 40  0  0  1  0  0  0  0  0999 V2000
   47.1690   34.1410   43.0820 N   0  0  0  0  0  0  0  0  0  0  0  0
   46.6450   35.3340   42.5060 C   0  0  0  0  0  0  0  0  0  0  0  0
   45.1840   35.5740   42.7400 C   0  0  0  0  0  0  0  0  0  0  0  0
   44.6470   35.0280   44.0360 C   0  0  0  0  0  0  0  0  0  0  0  0
   45.7640   34.4910   44.9010 C   0  0  0  0  0  0  0  0  0  0  0  0
   46.4320   33.4000   43.9870 C   0  0  2  0  0  0  0  0  0  0  0  0
   46.8370   35.4730   41.4380 H   0  0  0  0  0  0  0  0  0  0  0  0
   47.1940   36.1870   43.0020 H   0  0  0  0  0  0  0  0  0  0  0  0
   45.0070   36.6800   42.7580 H   0  0  0  0  0  0  0  0  0  0  0  0
   44.5850   35.2210   41.8610 H   0  0  0  0  0  0  0  0  0  0  0  0
   43.9810   35.7410   44.5600 H   0  0  0  0  0  0  0  0  0  0  0  0
   43.9980   34.1560   43.7740 H   0  0  0  0  0  0  0  0  0  0  0  0
   45.3500   34.0170   45.7990 H   0  0  0  0  0  0  0  0  0  0  0  0
   46.5240   35.2720   45.1000 H   0  0  0  0  0  0  0  0  0  0  0  0
   45.6120   32.7690   43.5880 H   0  0  0  0  0  0  0  0  0  0  0  0
   48.1510   33.4790   42.2740 C   0  0  0  0  0  0  0  0  0  0  0  0
   48.7730   32.8170   42.9050 H   0  0  0  0  0  0  0  0  0  0  0  0
   48.7790   34.2540   41.7860 H   0  0  0  0  0  0  0  0  0  0  0  0
   47.4310   32.6380   41.2550 C   0  0  0  0  0  0  0  0  0  0  0  0
   46.3410   32.9140   41.2060 H   0  0  0  0  0  0  0  0  0  0  0  0
   47.4740   31.5580   41.4450 H   0  0  0  0  0  0  0  0  0  0  0  0
   49.3350   32.2720   38.0340 C   0  0  0  0  0  0  0  0  0  0  0  0
   48.8070   32.0010   39.3110 C   0  0  0  0  0  0  0  0  0  0  0  0
   47.9850   32.9320   39.9060 C   0  0  0  0  0  0  0  0  0  0  0  0
   47.7240   34.0630   39.2300 N   0  0  0  0  0  0  0  0  0  0  0  0
   48.2320   34.3130   38.0130 C   0  0  0  0  0  0  0  0  0  0  0  0
   49.0430   33.4200   37.4020 N   0  0  0  0  0  0  0  0  0  0  0  0
   49.9830   31.5320   37.5710 H   0  0  0  0  0  0  0  0  0  0  0  0
   49.0530   31.0770   39.8000 H   0  0  0  0  0  0  0  0  0  0  0  0
   47.9750   35.2480   37.5330 H   0  0  0  0  0  0  0  0  0  0  0  0
   47.2450   32.7350   44.8920 O   0  0  0  0  0  0  0  0  0  0  0  0
   46.1950   30.4950   43.9120 O   0  0  0  0  0  0  0  0  0  0  0  0
   46.7340   31.1600   45.1830 P   0  0  2  0  0  0  0  0  0  0  0  0
   45.3740   31.2850   46.2170 O   0  0  0  0  0  0  0  0  0  0  0  0
   45.6770   31.4920   47.1350 H   0  0  0  0  0  0  0  0  0  0  0  0
   47.8750   30.2300   45.9550 O   0  0  0  0  0  0  0  0  0  0  0  0
   48.7860   29.4990   45.2060 C   0  0  0  0  0  0  0  0  0  0  0  0
   48.6370   29.2320   44.1650 H   0  0  0  0  0  0  0  0  0  0  0  0
   49.7960   29.1970   45.9000 O   0  0  0  0  0  0  0  0  0  0  0  0
  1  6  1  0  0  0  0
  2  3  1  0  0  0  0
  2  8  1  0  0  0  0
  2  1  1  0  0  0  0
  3  9  1  0  0  0  0
  3  4  1  0  0  0  0
  4 11  1  0  0  0  0
  4  5  1  0  0  0  0
  5 14  1  0  0  0  0
  5 13  1  0  0  0  0
  6 15  1  6  0  0  0
  6 31  1  0  0  0  0
  6  5  1  0  0  0  0
  7  2  1  0  0  0  0
 10  3  1  0  0  0  0
 12  4  1  0  0  0  0
 16 17  1  0  0  0  0
 16  1  1  0  0  0  0
 18 16  1  0  0  0  0
 19 21  1  0  0  0  0
 19 16  1  0  0  0  0
 20 19  1  0  0  0  0
 22 23  1  0  0  0  0
 23 29  1  0  0  0  0
 23 24  2  0  0  0  0
 24 19  1  0  0  0  0
 25 24  1  0  0  0  0
 26 25  2  0  0  0  0
 27 26  1  0  0  0  0
 27 22  2  0  0  0  0
 28 22  1  0  0  0  0
 30 26  1  0  0  0  0
 31 33  1  0  0  0  0
 33 32  2  6  0  0  0
 33 36  1  0  0  0  0
 33 34  1  0  0  0  0
 34 35  1  0  0  0  0
 37 39  2  0  0  0  0
 37 36  1  0  0  0  0
 38 37  1  0  0  0  0
M  END
>  <minimizedAffinity>
-3.64695883

>  <minimizedRMSD>
0.181265444

$$$$
