
 OpenBabel03252508583D

 39 40  0  0  1  0  0  0  0  0999 V2000
   46.7540   34.4220   43.4710 N   0  0  0  0  0  0  0  0  0  0  0  0
   46.2900   35.5660   42.7590 C   0  0  0  0  0  0  0  0  0  0  0  0
   44.8210   35.8380   42.8640 C   0  0  0  0  0  0  0  0  0  0  0  0
   44.1830   35.4100   44.1580 C   0  0  0  0  0  0  0  0  0  0  0  0
   45.2250   34.9400   45.1450 C   0  0  0  0  0  0  0  0  0  0  0  0
   45.9420   33.7690   44.3790 C   0  0  2  0  0  0  0  0  0  0  0  0
   46.5620   35.6120   41.7000 H   0  0  0  0  0  0  0  0  0  0  0  0
   46.8140   36.4530   43.2200 H   0  0  0  0  0  0  0  0  0  0  0  0
   44.6590   36.9430   42.7740 H   0  0  0  0  0  0  0  0  0  0  0  0
   44.2820   35.4170   41.9760 H   0  0  0  0  0  0  0  0  0  0  0  0
   43.4910   36.1720   44.5690 H   0  0  0  0  0  0  0  0  0  0  0  0
   43.5410   34.5250   43.9240 H   0  0  0  0  0  0  0  0  0  0  0  0
   44.7400   34.5480   46.0480 H   0  0  0  0  0  0  0  0  0  0  0  0
   45.9800   35.7290   45.3330 H   0  0  0  0  0  0  0  0  0  0  0  0
   45.1430   33.1130   43.9760 H   0  0  0  0  0  0  0  0  0  0  0  0
   47.7820   33.6850   42.7970 C   0  0  0  0  0  0  0  0  0  0  0  0
   48.3630   33.0950   43.5300 H   0  0  0  0  0  0  0  0  0  0  0  0
   48.4390   34.4080   42.2690 H   0  0  0  0  0  0  0  0  0  0  0  0
   47.1230   32.7400   41.8290 C   0  0  0  0  0  0  0  0  0  0  0  0
   46.0330   32.9910   41.7010 H   0  0  0  0  0  0  0  0  0  0  0  0
   47.1700   31.6830   42.1230 H   0  0  0  0  0  0  0  0  0  0  0  0
   49.1860   32.1000   38.7520 C   0  0  0  0  0  0  0  0  0  0  0  0
   48.5990   31.9430   40.0220 C   0  0  0  0  0  0  0  0  0  0  0  0
   47.7400   32.9130   40.4860 C   0  0  0  0  0  0  0  0  0  0  0  0
   47.5020   33.9730   39.6950 N   0  0  0  0  0  0  0  0  0  0  0  0
   48.0660   34.1140   38.4860 C   0  0  0  0  0  0  0  0  0  0  0  0
   48.9150   33.1790   38.0010 N   0  0  0  0  0  0  0  0  0  0  0  0
   49.8630   31.3290   38.3930 H   0  0  0  0  0  0  0  0  0  0  0  0
   48.8300   31.0720   40.6070 H   0  0  0  0  0  0  0  0  0  0  0  0
   47.8240   34.9970   37.9080 H   0  0  0  0  0  0  0  0  0  0  0  0
   46.6760   33.1760   45.3940 O   0  0  0  0  0  0  0  0  0  0  0  0
   45.4490   31.0100   44.4560 O   0  0  0  0  0  0  0  0  0  0  0  0
   46.2780   31.5590   45.6230 P   0  0  2  0  0  0  0  0  0  0  0  0
   45.2150   31.5170   46.9660 O   0  0  0  0  0  0  0  0  0  0  0  0
   45.7340   31.6390   47.7990 H   0  0  0  0  0  0  0  0  0  0  0  0
   47.5890   30.6020   45.9820 O   0  0  0  0  0  0  0  0  0  0  0  0
   48.1250   29.7790   45.0020 C   0  0  0  0  0  0  0  0  0  0  0  0
   48.0560   28.6970   45.0160 H   0  0  0  0  0  0  0  0  0  0  0  0
   48.6960   30.4630   44.1070 O   0  0  0  0  0  0  0  0  0  0  0  0
  1  6  1  0  0  0  0
  2  3  1  0  0  0  0
  2  8  1  0  0  0  0
  2  1  1  0  0  0  0
  3  4  1  0  0  0  0
  4 11  1  0  0  0  0
  4  5  1  0  0  0  0
  5 14  1  0  0  0  0
  5 13  1  0  0  0  0
  6 15  1  6  0  0  0
  6  5  1  0  0  0  0
  6 31  1  0  0  0  0
  7  2  1  0  0  0  0
  9  3  1  0  0  0  0
 10  3  1  0  0  0  0
 12  4  1  0  0  0  0
 16  1  1  0  0  0  0
 16 17  1  0  0  0  0
 18 16  1  0  0  0  0
 19 21  1  0  0  0  0
 19 16  1  0  0  0  0
 20 19  1  0  0  0  0
 22 23  1  0  0  0  0
 23 24  2  0  0  0  0
 23 29  1  0  0  0  0
 24 19  1  0  0  0  0
 25 24  1  0  0  0  0
 26 25  2  0  0  0  0
 27 26  1  0  0  0  0
 27 22  2  0  0  0  0
 28 22  1  0  0  0  0
 30 26  1  0  0  0  0
 31 33  1  0  0  0  0
 33 32  2  6  0  0  0
 33 36  1  0  0  0  0
 33 34  1  0  0  0  0
 34 35  1  0  0  0  0
 37 38  1  0  0  0  0
 37 36  1  0  0  0  0
 39 37  2  0  0  0  0
M  END
>  <minimizedAffinity>
-3.75320649

>  <minimizedRMSD>
0.684675992

$$$$
