
 OpenBabel03252506163D

 33 34  0  0  0  0  0  0  0  0999 V2000
   40.3670   30.6560   40.6310 F   0  0  0  0  0  0  0  0  0  0  0  0
   39.2840   31.3690   40.3850 C   0  0  0  0  0  0  0  0  0  0  0  0
   39.4420   32.6350   39.8590 C   0  0  0  0  0  0  0  0  0  0  0  0
   38.3560   33.4800   39.5550 C   0  0  0  0  0  0  0  0  0  0  0  0
   37.0610   33.0100   39.7980 C   0  0  0  0  0  0  0  0  0  0  0  0
   36.9590   31.7450   40.3210 C   0  0  0  0  0  0  0  0  0  0  0  0
   37.9890   30.9270   40.6170 C   0  0  0  0  0  0  0  0  0  0  0  0
   38.5630   34.4620   39.1440 H   0  0  0  0  0  0  0  0  0  0  0  0
   36.2650   33.6970   39.5480 H   0  0  0  0  0  0  0  0  0  0  0  0
   35.8900   31.5190   40.4460 H   0  0  0  0  0  0  0  0  0  0  0  0
   42.3390   33.8770   37.9880 C   0  0  0  0  0  0  0  0  0  0  0  0
   43.2680   34.1570   39.0330 C   0  0  0  0  0  0  0  0  0  0  0  0
   42.8700   33.9060   40.3940 C   0  0  0  0  0  0  0  0  0  0  0  0
   41.6100   33.4100   40.5880 N   0  0  0  0  0  0  0  0  0  0  0  0
   40.7850   33.1670   39.5840 C   0  0  0  0  0  0  0  0  0  0  0  0
   41.1410   33.3960   38.3010 N   0  0  0  0  0  0  0  0  0  0  0  0
   44.2630   34.5490   38.8640 H   0  0  0  0  0  0  0  0  0  0  0  0
   43.5510   34.1090   41.1920 H   0  0  0  0  0  0  0  0  0  0  0  0
   42.7620   34.1370   36.6890 N   0  0  0  0  0  0  0  0  0  0  0  0
   42.2550   35.0310   36.4840 H   0  0  0  0  0  0  0  0  0  0  0  0
   43.3900   33.3150   36.5230 H   0  0  0  0  0  0  0  0  0  0  0  0
   37.7580   29.6830   41.1370 O   0  0  0  0  0  0  0  0  0  0  0  0
   38.4830   28.1660   39.0930 O   0  0  0  0  0  0  0  0  0  0  0  0
   37.5480   28.2600   40.2830 P   0  0  2  0  0  0  0  0  0  0  0  0
   35.9280   28.1850   39.7120 O   0  0  0  0  0  0  0  0  0  0  0  0
   35.7320   28.4360   38.3630 C   0  0  0  0  0  0  0  0  0  0  0  0
   35.7130   27.7090   37.5670 H   0  0  0  0  0  0  0  0  0  0  0  0
   35.5590   29.6500   38.0090 O   0  0  0  0  0  0  0  0  0  0  0  0
   37.7380   26.8780   41.2290 O   0  0  0  0  0  0  0  0  0  0  0  0
   37.1550   27.0660   42.5040 C   0  0  0  0  0  0  0  0  0  0  0  0
   36.8680   25.7620   42.9390 F   0  0  0  0  0  0  0  0  0  0  0  0
   38.0700   27.5910   43.3800 F   0  0  0  0  0  0  0  0  0  0  0  0
   36.0580   27.8690   42.4970 F   0  0  0  0  0  0  0  0  0  0  0  0
  2  7  1  0  0  0  0
  2  1  1  0  0  0  0
  3  2  2  0  0  0  0
  4  5  2  0  0  0  0
  4  3  1  0  0  0  0
  5  6  1  0  0  0  0
  6 10  1  0  0  0  0
  6  7  2  0  0  0  0
  7 22  1  0  0  0  0
  8  4  1  0  0  0  0
  9  5  1  0  0  0  0
 11 16  2  0  0  0  0
 11 12  1  0  0  0  0
 12 13  2  0  0  0  0
 13 14  1  0  0  0  0
 13 18  1  0  0  0  0
 15  3  1  0  0  0  0
 15 14  2  0  0  0  0
 16 15  1  0  0  0  0
 17 12  1  0  0  0  0
 19 11  1  0  0  0  0
 20 19  1  0  0  0  0
 21 19  1  0  0  0  0
 24 23  2  6  0  0  0
 24 22  1  0  0  0  0
 24 29  1  0  0  0  0
 25 24  1  0  0  0  0
 26 25  1  0  0  0  0
 27 26  1  0  0  0  0
 28 26  2  0  0  0  0
 29 30  1  0  0  0  0
 30 31  1  0  0  0  0
 30 32  1  0  0  0  0
 33 30  1  0  0  0  0
M  END
>  <minimizedAffinity>
-5.43702221

$$$$

 OpenBabel03252506163D

 33 34  0  0  0  0  0  0  0  0999 V2000
   39.6280   28.0950   40.3790 F   0  0  0  0  0  0  0  0  0  0  0  0
   38.7250   27.9140   41.3240 C   0  0  0  0  0  0  0  0  0  0  0  0
   39.1640   27.6060   42.5950 C   0  0  0  0  0  0  0  0  0  0  0  0
   38.2880   27.3960   43.6790 C   0  0  0  0  0  0  0  0  0  0  0  0
   36.9120   27.5060   43.4520 C   0  0  0  0  0  0  0  0  0  0  0  0
   36.5280   27.8140   42.1710 C   0  0  0  0  0  0  0  0  0  0  0  0
   37.3550   28.0170   41.1250 C   0  0  0  0  0  0  0  0  0  0  0  0
   38.7120   27.1570   44.6490 H   0  0  0  0  0  0  0  0  0  0  0  0
   36.2860   27.3350   44.3160 H   0  0  0  0  0  0  0  0  0  0  0  0
   35.4300   27.8730   42.1540 H   0  0  0  0  0  0  0  0  0  0  0  0
   42.4200   26.0750   43.2960 C   0  0  0  0  0  0  0  0  0  0  0  0
   43.2660   27.2170   43.4060 C   0  0  0  0  0  0  0  0  0  0  0  0
   42.6860   28.5240   43.2330 C   0  0  0  0  0  0  0  0  0  0  0  0
   41.3440   28.5740   42.9710 N   0  0  0  0  0  0  0  0  0  0  0  0
   40.6020   27.4840   42.8790 C   0  0  0  0  0  0  0  0  0  0  0  0
   41.1280   26.2500   43.0380 N   0  0  0  0  0  0  0  0  0  0  0  0
   44.3270   27.1620   43.6140 H   0  0  0  0  0  0  0  0  0  0  0  0
   43.3020   29.3930   43.3110 H   0  0  0  0  0  0  0  0  0  0  0  0
   43.0210   24.8330   43.4660 N   0  0  0  0  0  0  0  0  0  0  0  0
   43.0860   24.4990   42.4740 H   0  0  0  0  0  0  0  0  0  0  0  0
   43.1270   24.8110   44.5070 H   0  0  0  0  0  0  0  0  0  0  0  0
   36.8490   28.3180   39.8910 O   0  0  0  0  0  0  0  0  0  0  0  0
   34.3620   29.2000   39.6830 O   0  0  0  0  0  0  0  0  0  0  0  0
   35.8190   29.5800   39.5080 P   0  0  2  0  0  0  0  0  0  0  0  0
   36.0730   30.0290   37.8660 O   0  0  0  0  0  0  0  0  0  0  0  0
   36.5980   29.0560   37.0310 C   0  0  0  0  0  0  0  0  0  0  0  0
   36.1420   28.1160   36.7650 H   0  0  0  0  0  0  0  0  0  0  0  0
   37.7440   29.2800   36.5150 O   0  0  0  0  0  0  0  0  0  0  0  0
   36.1210   30.9830   40.3920 O   0  0  0  0  0  0  0  0  0  0  0  0
   37.1960   31.7050   39.8220 C   0  0  0  0  0  0  0  0  0  0  0  0
   37.6280   32.5430   40.8630 F   0  0  0  0  0  0  0  0  0  0  0  0
   38.2380   30.8650   39.5240 F   0  0  0  0  0  0  0  0  0  0  0  0
   36.8650   32.3950   38.6980 F   0  0  0  0  0  0  0  0  0  0  0  0
  1  2  1  0  0  0  0
  2  3  1  0  0  0  0
  3 15  1  0  0  0  0
  3  4  2  0  0  0  0
  4  8  1  0  0  0  0
  5  4  1  0  0  0  0
  5  9  1  0  0  0  0
  6  5  2  0  0  0  0
  7  2  2  0  0  0  0
  7  6  1  0  0  0  0
 10  6  1  0  0  0  0
 11 12  1  0  0  0  0
 11 19  1  0  0  0  0
 12 17  1  0  0  0  0
 13 18  1  0  0  0  0
 13 12  2  0  0  0  0
 14 13  1  0  0  0  0
 15 14  2  0  0  0  0
 15 16  1  0  0  0  0
 16 11  2  0  0  0  0
 19 21  1  0  0  0  0
 20 19  1  0  0  0  0
 22  7  1  0  0  0  0
 24 23  2  1  0  0  0
 24 22  1  0  0  0  0
 24 29  1  0  0  0  0
 25 24  1  0  0  0  0
 26 25  1  0  0  0  0
 27 26  1  0  0  0  0
 28 26  2  0  0  0  0
 30 29  1  0  0  0  0
 30 31  1  0  0  0  0
 32 30  1  0  0  0  0
 33 30  1  0  0  0  0
M  END
>  <minimizedAffinity>
-5.30789661

$$$$

 OpenBabel03252506163D

 33 34  0  0  0  0  0  0  0  0999 V2000
   39.6540   27.9210   40.3740 F   0  0  0  0  0  0  0  0  0  0  0  0
   38.7200   27.8320   41.3020 C   0  0  0  0  0  0  0  0  0  0  0  0
   39.1140   27.6090   42.6050 C   0  0  0  0  0  0  0  0  0  0  0  0
   38.2010   27.5020   43.6740 C   0  0  0  0  0  0  0  0  0  0  0  0
   36.8360   27.6270   43.3970 C   0  0  0  0  0  0  0  0  0  0  0  0
   36.4970   27.8480   42.0860 C   0  0  0  0  0  0  0  0  0  0  0  0
   37.3590   27.9530   41.0530 C   0  0  0  0  0  0  0  0  0  0  0  0
   38.5910   27.3260   44.6710 H   0  0  0  0  0  0  0  0  0  0  0  0
   36.1800   27.5370   44.2510 H   0  0  0  0  0  0  0  0  0  0  0  0
   35.4020   27.9320   42.0300 H   0  0  0  0  0  0  0  0  0  0  0  0
   42.3470   26.0490   43.3430 C   0  0  0  0  0  0  0  0  0  0  0  0
   43.1800   27.1840   43.5630 C   0  0  0  0  0  0  0  0  0  0  0  0
   42.6000   28.4970   43.4500 C   0  0  0  0  0  0  0  0  0  0  0  0
   41.2690   28.5590   43.1360 N   0  0  0  0  0  0  0  0  0  0  0  0
   40.5390   27.4750   42.9420 C   0  0  0  0  0  0  0  0  0  0  0  0
   41.0660   26.2350   43.0420 N   0  0  0  0  0  0  0  0  0  0  0  0
   44.2320   27.1200   43.8120 H   0  0  0  0  0  0  0  0  0  0  0  0
   43.2060   29.3620   43.6110 H   0  0  0  0  0  0  0  0  0  0  0  0
   42.9490   24.8000   43.4570 N   0  0  0  0  0  0  0  0  0  0  0  0
   43.0580   24.5320   42.4500 H   0  0  0  0  0  0  0  0  0  0  0  0
   43.0110   24.7110   44.4990 H   0  0  0  0  0  0  0  0  0  0  0  0
   36.8970   28.1740   39.7850 O   0  0  0  0  0  0  0  0  0  0  0  0
   37.9460   30.0540   38.2460 O   0  0  0  0  0  0  0  0  0  0  0  0
   36.7100   29.6530   39.0270 P   0  0  2  0  0  0  0  0  0  0  0  0
   36.4030   30.8560   40.2180 O   0  0  0  0  0  0  0  0  0  0  0  0
   37.4300   31.7490   40.4780 C   0  0  0  0  0  0  0  0  0  0  0  0
   37.5560   32.7320   40.0530 H   0  0  0  0  0  0  0  0  0  0  0  0
   38.3320   31.3830   41.3040 O   0  0  0  0  0  0  0  0  0  0  0  0
   35.3780   29.7140   37.9970 O   0  0  0  0  0  0  0  0  0  0  0  0
   34.3410   28.8800   38.4780 C   0  0  0  0  0  0  0  0  0  0  0  0
   33.2330   29.2310   37.6900 F   0  0  0  0  0  0  0  0  0  0  0  0
   34.6200   27.5630   38.2160 F   0  0  0  0  0  0  0  0  0  0  0  0
   34.0990   29.0110   39.8100 F   0  0  0  0  0  0  0  0  0  0  0  0
  1  2  1  0  0  0  0
  2  3  1  0  0  0  0
  3 15  1  0  0  0  0
  3  4  2  0  0  0  0
  4  8  1  0  0  0  0
  5  4  1  0  0  0  0
  5  9  1  0  0  0  0
  6  5  2  0  0  0  0
  7  2  2  0  0  0  0
  7  6  1  0  0  0  0
 10  6  1  0  0  0  0
 11 19  1  0  0  0  0
 11 12  1  0  0  0  0
 12 17  1  0  0  0  0
 13 12  2  0  0  0  0
 13 18  1  0  0  0  0
 14 13  1  0  0  0  0
 15 16  1  0  0  0  0
 15 14  2  0  0  0  0
 16 11  2  0  0  0  0
 19 21  1  0  0  0  0
 20 19  1  0  0  0  0
 22  7  1  0  0  0  0
 24 23  2  6  0  0  0
 24 22  1  0  0  0  0
 24 25  1  0  0  0  0
 25 26  1  0  0  0  0
 26 28  2  0  0  0  0
 27 26  1  0  0  0  0
 29 30  1  0  0  0  0
 29 24  1  0  0  0  0
 30 33  1  0  0  0  0
 31 30  1  0  0  0  0
 32 30  1  0  0  0  0
M  END
>  <minimizedAffinity>
-5.2738328

$$$$

 OpenBabel03252506163D

 33 34  0  0  0  0  0  0  0  0999 V2000
   40.3310   29.8380   39.9400 F   0  0  0  0  0  0  0  0  0  0  0  0
   39.2600   30.5730   39.7080 C   0  0  0  0  0  0  0  0  0  0  0  0
   39.4200   31.9380   39.5880 C   0  0  0  0  0  0  0  0  0  0  0  0
   38.3470   32.8170   39.3360 C   0  0  0  0  0  0  0  0  0  0  0  0
   37.0630   32.2760   39.2030 C   0  0  0  0  0  0  0  0  0  0  0  0
   36.9590   30.9140   39.3310 C   0  0  0  0  0  0  0  0  0  0  0  0
   37.9770   30.0620   39.5720 C   0  0  0  0  0  0  0  0  0  0  0  0
   38.5550   33.8780   39.2550 H   0  0  0  0  0  0  0  0  0  0  0  0
   36.2780   32.9920   39.0110 H   0  0  0  0  0  0  0  0  0  0  0  0
   35.9020   30.6440   39.1940 H   0  0  0  0  0  0  0  0  0  0  0  0
   42.4150   33.3780   41.1340 C   0  0  0  0  0  0  0  0  0  0  0  0
   43.2200   33.6780   39.9960 C   0  0  0  0  0  0  0  0  0  0  0  0
   42.7050   33.3720   38.6870 C   0  0  0  0  0  0  0  0  0  0  0  0
   41.4600   32.8070   38.6310 N   0  0  0  0  0  0  0  0  0  0  0  0
   40.7520   32.5480   39.7160 C   0  0  0  0  0  0  0  0  0  0  0  0
   41.2200   32.8270   40.9530 N   0  0  0  0  0  0  0  0  0  0  0  0
   44.2040   34.1270   40.0570 H   0  0  0  0  0  0  0  0  0  0  0  0
   43.2910   33.5890   37.8210 H   0  0  0  0  0  0  0  0  0  0  0  0
   42.9530   33.6860   42.3790 N   0  0  0  0  0  0  0  0  0  0  0  0
   43.2440   32.7370   42.7170 H   0  0  0  0  0  0  0  0  0  0  0  0
   42.8140   34.7240   42.3970 H   0  0  0  0  0  0  0  0  0  0  0  0
   37.7440   28.7190   39.6810 O   0  0  0  0  0  0  0  0  0  0  0  0
   36.0440   28.3650   41.6770 O   0  0  0  0  0  0  0  0  0  0  0  0
   37.3440   27.8770   41.0700 P   0  0  2  0  0  0  0  0  0  0  0  0
   38.5990   28.0840   42.2280 O   0  0  0  0  0  0  0  0  0  0  0  0
   38.4080   29.0730   43.1800 C   0  0  0  0  0  0  0  0  0  0  0  0
   37.7730   29.0200   44.0490 H   0  0  0  0  0  0  0  0  0  0  0  0
   39.0440   30.1680   43.0250 O   0  0  0  0  0  0  0  0  0  0  0  0
   37.2400   26.2110   40.8370 O   0  0  0  0  0  0  0  0  0  0  0  0
   37.1240   25.5440   42.0790 C   0  0  0  0  0  0  0  0  0  0  0  0
   38.4540   25.3710   42.4930 F   0  0  0  0  0  0  0  0  0  0  0  0
   36.5160   26.3520   43.0060 F   0  0  0  0  0  0  0  0  0  0  0  0
   36.4380   24.3720   42.0160 F   0  0  0  0  0  0  0  0  0  0  0  0
  2  1  1  0  0  0  0
  3  2  1  0  0  0  0
  3 15  1  0  0  0  0
  4  3  2  0  0  0  0
  5  6  2  0  0  0  0
  5  4  1  0  0  0  0
  6  7  1  0  0  0  0
  7 22  1  0  0  0  0
  7  2  2  0  0  0  0
  8  4  1  0  0  0  0
  9  5  1  0  0  0  0
 10  6  1  0  0  0  0
 11 19  1  0  0  0  0
 12 17  1  0  0  0  0
 12 11  2  0  0  0  0
 13 12  1  0  0  0  0
 14 13  2  0  0  0  0
 14 15  1  0  0  0  0
 15 16  2  0  0  0  0
 16 11  1  0  0  0  0
 18 13  1  0  0  0  0
 19 21  1  0  0  0  0
 19 20  1  0  0  0  0
 22 24  1  0  0  0  0
 24 23  2  1  0  0  0
 24 25  1  0  0  0  0
 25 26  1  0  0  0  0
 26 27  1  0  0  0  0
 28 26  2  0  0  0  0
 29 24  1  0  0  0  0
 29 30  1  0  0  0  0
 30 31  1  0  0  0  0
 30 32  1  0  0  0  0
 33 30  1  0  0  0  0
M  END
>  <minimizedAffinity>
-5.24581766

$$$$

 OpenBabel03252506163D

 33 34  0  0  0  0  0  0  0  0999 V2000
   39.8750   29.2220   41.6420 F   0  0  0  0  0  0  0  0  0  0  0  0
   38.5710   29.1540   41.4550 C   0  0  0  0  0  0  0  0  0  0  0  0
   37.9600   30.1650   40.7430 C   0  0  0  0  0  0  0  0  0  0  0  0
   36.5750   30.1920   40.4810 C   0  0  0  0  0  0  0  0  0  0  0  0
   35.7880   29.1420   40.9670 C   0  0  0  0  0  0  0  0  0  0  0  0
   36.4430   28.1620   41.6690 C   0  0  0  0  0  0  0  0  0  0  0  0
   37.7670   28.1240   41.9270 C   0  0  0  0  0  0  0  0  0  0  0  0
   36.1710   31.0230   39.9140 H   0  0  0  0  0  0  0  0  0  0  0  0
   34.7340   29.2110   40.7390 H   0  0  0  0  0  0  0  0  0  0  0  0
   35.7000   27.4120   41.9740 H   0  0  0  0  0  0  0  0  0  0  0  0
   39.7790   32.2700   38.3560 C   0  0  0  0  0  0  0  0  0  0  0  0
   40.2130   33.3480   39.1830 C   0  0  0  0  0  0  0  0  0  0  0  0
   39.8620   33.3290   40.5790 C   0  0  0  0  0  0  0  0  0  0  0  0
   39.1280   32.2610   41.0180 N   0  0  0  0  0  0  0  0  0  0  0  0
   38.7500   31.2850   40.2100 C   0  0  0  0  0  0  0  0  0  0  0  0
   39.0690   31.2860   38.8970 N   0  0  0  0  0  0  0  0  0  0  0  0
   40.7940   34.1870   38.8220 H   0  0  0  0  0  0  0  0  0  0  0  0
   40.1770   34.1260   41.2170 H   0  0  0  0  0  0  0  0  0  0  0  0
   40.1360   32.3300   37.0130 N   0  0  0  0  0  0  0  0  0  0  0  0
   39.2310   32.6270   36.5740 H   0  0  0  0  0  0  0  0  0  0  0  0
   41.1430   32.0490   37.0690 H   0  0  0  0  0  0  0  0  0  0  0  0
   38.3040   27.0900   42.6410 O   0  0  0  0  0  0  0  0  0  0  0  0
   39.2850   24.6730   43.0890 O   0  0  0  0  0  0  0  0  0  0  0  0
   39.0580   25.7290   42.0250 P   0  0  2  0  0  0  0  0  0  0  0  0
   40.5830   26.1820   41.3710 O   0  0  0  0  0  0  0  0  0  0  0  0
   40.7130   26.1110   39.9940 C   0  0  0  0  0  0  0  0  0  0  0  0
   40.9670   25.2400   39.4120 H   0  0  0  0  0  0  0  0  0  0  0  0
   40.5190   27.1830   39.3290 O   0  0  0  0  0  0  0  0  0  0  0  0
   38.2260   25.0270   40.7380 O   0  0  0  0  0  0  0  0  0  0  0  0
   37.0950   24.3180   41.2080 C   0  0  0  0  0  0  0  0  0  0  0  0
   36.1670   24.4340   40.1600 F   0  0  0  0  0  0  0  0  0  0  0  0
   37.3830   22.9850   41.3440 F   0  0  0  0  0  0  0  0  0  0  0  0
   36.6080   24.7760   42.3910 F   0  0  0  0  0  0  0  0  0  0  0  0
  2  1  1  0  0  0  0
  2  7  1  0  0  0  0
  3  2  2  0  0  0  0
  4  3  1  0  0  0  0
  4  5  2  0  0  0  0
  5  6  1  0  0  0  0
  6  7  2  0  0  0  0
  6 10  1  0  0  0  0
  7 22  1  0  0  0  0
  8  4  1  0  0  0  0
  9  5  1  0  0  0  0
 11 16  2  0  0  0  0
 11 12  1  0  0  0  0
 12 13  2  0  0  0  0
 13 14  1  0  0  0  0
 13 18  1  0  0  0  0
 15  3  1  0  0  0  0
 15 14  2  0  0  0  0
 16 15  1  0  0  0  0
 17 12  1  0  0  0  0
 19 21  1  0  0  0  0
 19 11  1  0  0  0  0
 20 19  1  0  0  0  0
 24 22  1  0  0  0  0
 24 23  2  1  0  0  0
 25 24  1  0  0  0  0
 26 25  1  0  0  0  0
 27 26  1  0  0  0  0
 28 26  2  0  0  0  0
 29 30  1  0  0  0  0
 29 24  1  0  0  0  0
 30 32  1  0  0  0  0
 30 33  1  0  0  0  0
 31 30  1  0  0  0  0
M  END
>  <minimizedAffinity>
-5.10204458

$$$$

 OpenBabel03252506163D

 33 34  0  0  0  0  0  0  0  0999 V2000
   37.7470   28.7130   39.4730 F   0  0  0  0  0  0  0  0  0  0  0  0
   37.5960   28.3860   40.7430 C   0  0  0  0  0  0  0  0  0  0  0  0
   37.8830   29.3370   41.6990 C   0  0  0  0  0  0  0  0  0  0  0  0
   37.7530   29.0970   43.0830 C   0  0  0  0  0  0  0  0  0  0  0  0
   37.3130   27.8370   43.5000 C   0  0  0  0  0  0  0  0  0  0  0  0
   37.0400   26.9270   42.5090 C   0  0  0  0  0  0  0  0  0  0  0  0
   37.1610   27.1430   41.1830 C   0  0  0  0  0  0  0  0  0  0  0  0
   37.9990   29.8980   43.7720 H   0  0  0  0  0  0  0  0  0  0  0  0
   37.2310   27.7060   44.5690 H   0  0  0  0  0  0  0  0  0  0  0  0
   36.7000   25.9990   42.9890 H   0  0  0  0  0  0  0  0  0  0  0  0
   37.8140   32.7550   40.3770 C   0  0  0  0  0  0  0  0  0  0  0  0
   39.1640   33.1720   40.5650 C   0  0  0  0  0  0  0  0  0  0  0  0
   40.0950   32.2470   41.1570 C   0  0  0  0  0  0  0  0  0  0  0  0
   39.6070   31.0160   41.5010 N   0  0  0  0  0  0  0  0  0  0  0  0
   38.3450   30.6770   41.3060 C   0  0  0  0  0  0  0  0  0  0  0  0
   37.4570   31.5310   40.7530 N   0  0  0  0  0  0  0  0  0  0  0  0
   39.5350   34.1510   40.2870 H   0  0  0  0  0  0  0  0  0  0  0  0
   41.1110   32.5390   41.3060 H   0  0  0  0  0  0  0  0  0  0  0  0
   36.9470   33.6800   39.8060 N   0  0  0  0  0  0  0  0  0  0  0  0
   36.4080   34.0030   40.6460 H   0  0  0  0  0  0  0  0  0  0  0  0
   37.2380   33.6220   38.8020 H   0  0  0  0  0  0  0  0  0  0  0  0
   36.8590   26.1530   40.2900 O   0  0  0  0  0  0  0  0  0  0  0  0
   39.3670   25.7020   39.5760 O   0  0  0  0  0  0  0  0  0  0  0  0
   37.9230   25.3590   39.2710 P   0  0  2  0  0  0  0  0  0  0  0  0
   37.5850   25.8140   37.6470 O   0  0  0  0  0  0  0  0  0  0  0  0
   36.2840   26.2030   37.3690 C   0  0  0  0  0  0  0  0  0  0  0  0
   35.4120   25.5700   37.3370 H   0  0  0  0  0  0  0  0  0  0  0  0
   36.0800   27.4380   37.1200 O   0  0  0  0  0  0  0  0  0  0  0  0
   37.7500   23.6830   39.2960 O   0  0  0  0  0  0  0  0  0  0  0  0
   37.4890   23.2320   40.6120 C   0  0  0  0  0  0  0  0  0  0  0  0
   36.1150   23.4690   40.7820 F   0  0  0  0  0  0  0  0  0  0  0  0
   37.6770   21.8770   40.7040 F   0  0  0  0  0  0  0  0  0  0  0  0
   38.2470   23.8370   41.5640 F   0  0  0  0  0  0  0  0  0  0  0  0
  1  2  1  0  0  0  0
  2  7  2  0  0  0  0
  2  3  1  0  0  0  0
  3  4  2  0  0  0  0
  4  5  1  0  0  0  0
  4  8  1  0  0  0  0
  5  9  1  0  0  0  0
  6 10  1  0  0  0  0
  6  5  2  0  0  0  0
  7  6  1  0  0  0  0
 11 12  2  0  0  0  0
 11 16  1  0  0  0  0
 12 13  1  0  0  0  0
 13 18  1  0  0  0  0
 13 14  2  0  0  0  0
 15 14  1  0  0  0  0
 15  3  1  0  0  0  0
 16 15  2  0  0  0  0
 17 12  1  0  0  0  0
 19 11  1  0  0  0  0
 19 20  1  0  0  0  0
 21 19  1  0  0  0  0
 22  7  1  0  0  0  0
 24 29  1  0  0  0  0
 24 23  2  1  0  0  0
 24 22  1  0  0  0  0
 25 24  1  0  0  0  0
 26 25  1  0  0  0  0
 27 26  1  0  0  0  0
 28 26  2  0  0  0  0
 29 30  1  0  0  0  0
 30 32  1  0  0  0  0
 30 31  1  0  0  0  0
 30 33  1  0  0  0  0
M  END
>  <minimizedAffinity>
-5.09671974

$$$$

 OpenBabel03252506163D

 33 34  0  0  0  0  0  0  0  0999 V2000
   38.3590   27.4000   39.6590 F   0  0  0  0  0  0  0  0  0  0  0  0
   37.9930   27.6240   40.9070 C   0  0  0  0  0  0  0  0  0  0  0  0
   37.5500   26.5560   41.6580 C   0  0  0  0  0  0  0  0  0  0  0  0
   37.1380   26.6810   43.0010 C   0  0  0  0  0  0  0  0  0  0  0  0
   37.1820   27.9470   43.5940 C   0  0  0  0  0  0  0  0  0  0  0  0
   37.6300   28.9750   42.8040 C   0  0  0  0  0  0  0  0  0  0  0  0
   38.0260   28.8700   41.5180 C   0  0  0  0  0  0  0  0  0  0  0  0
   36.8030   25.7920   43.5240 H   0  0  0  0  0  0  0  0  0  0  0  0
   36.8560   27.9870   44.6230 H   0  0  0  0  0  0  0  0  0  0  0  0
   37.6150   29.8940   43.4070 H   0  0  0  0  0  0  0  0  0  0  0  0
   36.2660   23.6360   39.8520 C   0  0  0  0  0  0  0  0  0  0  0  0
   37.3450   22.7120   39.9790 C   0  0  0  0  0  0  0  0  0  0  0  0
   38.5210   23.1210   40.7010 C   0  0  0  0  0  0  0  0  0  0  0  0
   38.5170   24.3870   41.2210 N   0  0  0  0  0  0  0  0  0  0  0  0
   37.4910   25.2070   41.0760 C   0  0  0  0  0  0  0  0  0  0  0  0
   36.3790   24.8410   40.4010 N   0  0  0  0  0  0  0  0  0  0  0  0
   37.3330   21.7130   39.5620 H   0  0  0  0  0  0  0  0  0  0  0  0
   39.3410   22.4450   40.8090 H   0  0  0  0  0  0  0  0  0  0  0  0
   35.1510   23.2020   39.1440 N   0  0  0  0  0  0  0  0  0  0  0  0
   35.2820   23.7000   38.2300 H   0  0  0  0  0  0  0  0  0  0  0  0
   34.7010   22.5790   39.8560 H   0  0  0  0  0  0  0  0  0  0  0  0
   38.4530   29.9740   40.8330 O   0  0  0  0  0  0  0  0  0  0  0  0
   36.3450   31.5490   40.5580 O   0  0  0  0  0  0  0  0  0  0  0  0
   37.5360   30.9530   39.8340 P   0  0  2  0  0  0  0  0  0  0  0  0
   36.9590   30.0170   38.5110 O   0  0  0  0  0  0  0  0  0  0  0  0
   37.5210   30.2800   37.2720 C   0  0  0  0  0  0  0  0  0  0  0  0
   38.5070   30.6710   37.0790 H   0  0  0  0  0  0  0  0  0  0  0  0
   36.8080   30.0420   36.2410 O   0  0  0  0  0  0  0  0  0  0  0  0
   38.4190   32.2030   39.1280 O   0  0  0  0  0  0  0  0  0  0  0  0
   38.5240   33.2990   40.0170 C   0  0  0  0  0  0  0  0  0  0  0  0
   39.6020   34.0420   39.5090 F   0  0  0  0  0  0  0  0  0  0  0  0
   37.4110   34.0960   39.9340 F   0  0  0  0  0  0  0  0  0  0  0  0
   38.7000   32.9410   41.3160 F   0  0  0  0  0  0  0  0  0  0  0  0
  1  2  1  0  0  0  0
  2  7  2  0  0  0  0
  2  3  1  0  0  0  0
  3  4  2  0  0  0  0
  4  8  1  0  0  0  0
  4  5  1  0  0  0  0
  5  9  1  0  0  0  0
  6 10  1  0  0  0  0
  6  5  2  0  0  0  0
  7  6  1  0  0  0  0
 11 12  2  0  0  0  0
 11 16  1  0  0  0  0
 12 13  1  0  0  0  0
 13 18  1  0  0  0  0
 13 14  2  0  0  0  0
 15 14  1  0  0  0  0
 15  3  1  0  0  0  0
 16 15  2  0  0  0  0
 17 12  1  0  0  0  0
 19 11  1  0  0  0  0
 19 21  1  0  0  0  0
 20 19  1  0  0  0  0
 22  7  1  0  0  0  0
 24 23  2  1  0  0  0
 24 22  1  0  0  0  0
 25 24  1  0  0  0  0
 26 25  1  0  0  0  0
 27 26  1  0  0  0  0
 28 26  2  0  0  0  0
 29 24  1  0  0  0  0
 29 30  1  0  0  0  0
 30 33  1  0  0  0  0
 31 30  1  0  0  0  0
 32 30  1  0  0  0  0
M  END
>  <minimizedAffinity>
-5.00754642

$$$$

 OpenBabel03252506163D

 33 34  0  0  0  0  0  0  0  0999 V2000
   36.0430   26.9460   39.4400 F   0  0  0  0  0  0  0  0  0  0  0  0
   36.2680   28.1200   39.9980 C   0  0  0  0  0  0  0  0  0  0  0  0
   36.0610   29.2530   39.2400 C   0  0  0  0  0  0  0  0  0  0  0  0
   36.2670   30.5570   39.7360 C   0  0  0  0  0  0  0  0  0  0  0  0
   36.7000   30.7030   41.0580 C   0  0  0  0  0  0  0  0  0  0  0  0
   36.8910   29.5450   41.7690 C   0  0  0  0  0  0  0  0  0  0  0  0
   36.6990   28.2920   41.3070 C   0  0  0  0  0  0  0  0  0  0  0  0
   36.0810   31.3970   39.0760 H   0  0  0  0  0  0  0  0  0  0  0  0
   36.8420   31.7210   41.3880 H   0  0  0  0  0  0  0  0  0  0  0  0
   37.2200   29.8220   42.7810 H   0  0  0  0  0  0  0  0  0  0  0  0
   36.1710   29.0390   35.5820 C   0  0  0  0  0  0  0  0  0  0  0  0
   34.7880   28.9450   35.2500 C   0  0  0  0  0  0  0  0  0  0  0  0
   33.8210   28.9580   36.3160 C   0  0  0  0  0  0  0  0  0  0  0  0
   34.3080   29.0610   37.5910 N   0  0  0  0  0  0  0  0  0  0  0  0
   35.6010   29.1450   37.8470 C   0  0  0  0  0  0  0  0  0  0  0  0
   36.5240   29.1340   36.8600 N   0  0  0  0  0  0  0  0  0  0  0  0
   34.4170   28.8650   34.2360 H   0  0  0  0  0  0  0  0  0  0  0  0
   32.7790   28.8890   36.0890 H   0  0  0  0  0  0  0  0  0  0  0  0
   37.0720   29.0190   34.5230 N   0  0  0  0  0  0  0  0  0  0  0  0
   37.4380   28.0380   34.5840 H   0  0  0  0  0  0  0  0  0  0  0  0
   36.9630   29.9950   34.1600 H   0  0  0  0  0  0  0  0  0  0  0  0
   36.9250   27.2130   42.1160 O   0  0  0  0  0  0  0  0  0  0  0  0
   39.0490   26.9800   43.6780 O   0  0  0  0  0  0  0  0  0  0  0  0
   38.3940   26.4680   42.4100 P   0  0  2  0  0  0  0  0  0  0  0  0
   39.4500   26.7750   41.0870 O   0  0  0  0  0  0  0  0  0  0  0  0
   40.5070   27.6390   41.3240 C   0  0  0  0  0  0  0  0  0  0  0  0
   41.5270   27.3680   41.5440 H   0  0  0  0  0  0  0  0  0  0  0  0
   40.2630   28.8910   41.2840 O   0  0  0  0  0  0  0  0  0  0  0  0
   38.2870   24.7880   42.4980 O   0  0  0  0  0  0  0  0  0  0  0  0
   37.4130   24.2950   41.5010 C   0  0  0  0  0  0  0  0  0  0  0  0
   37.6930   22.9200   41.4590 F   0  0  0  0  0  0  0  0  0  0  0  0
   36.1060   24.4280   41.8960 F   0  0  0  0  0  0  0  0  0  0  0  0
   37.5590   24.8970   40.2910 F   0  0  0  0  0  0  0  0  0  0  0  0
  1  2  1  0  0  0  0
  2  7  1  0  0  0  0
  3  4  1  0  0  0  0
  3  2  2  0  0  0  0
  4  5  2  0  0  0  0
  5  9  1  0  0  0  0
  5  6  1  0  0  0  0
  6 10  1  0  0  0  0
  7  6  2  0  0  0  0
  7 22  1  0  0  0  0
  8  4  1  0  0  0  0
 11 16  1  0  0  0  0
 12 11  2  0  0  0  0
 12 13  1  0  0  0  0
 13 14  2  0  0  0  0
 14 15  1  0  0  0  0
 15  3  1  0  0  0  0
 16 15  2  0  0  0  0
 17 12  1  0  0  0  0
 18 13  1  0  0  0  0
 19 20  1  0  0  0  0
 19 11  1  0  0  0  0
 21 19  1  0  0  0  0
 22 24  1  0  0  0  0
 24 29  1  0  0  0  0
 24 23  2  1  0  0  0
 25 26  1  0  0  0  0
 25 24  1  0  0  0  0
 26 27  1  0  0  0  0
 28 26  2  0  0  0  0
 30 32  1  0  0  0  0
 30 29  1  0  0  0  0
 31 30  1  0  0  0  0
 33 30  1  0  0  0  0
M  END
>  <minimizedAffinity>
-4.99034834

$$$$

 OpenBabel03252506163D

 33 34  0  0  0  0  0  0  0  0999 V2000
   38.1930   28.1310   38.9490 F   0  0  0  0  0  0  0  0  0  0  0  0
   38.0270   29.3610   39.3960 C   0  0  0  0  0  0  0  0  0  0  0  0
   37.1460   30.1850   38.7280 C   0  0  0  0  0  0  0  0  0  0  0  0
   36.8910   31.5150   39.1210 C   0  0  0  0  0  0  0  0  0  0  0  0
   37.5630   32.0170   40.2410 C   0  0  0  0  0  0  0  0  0  0  0  0
   38.4280   31.1570   40.8700 C   0  0  0  0  0  0  0  0  0  0  0  0
   38.6820   29.8840   40.5040 C   0  0  0  0  0  0  0  0  0  0  0  0
   36.1830   32.0990   38.5430 H   0  0  0  0  0  0  0  0  0  0  0  0
   37.3310   33.0400   40.4990 H   0  0  0  0  0  0  0  0  0  0  0  0
   38.8670   31.6880   41.7260 H   0  0  0  0  0  0  0  0  0  0  0  0
   36.4560   29.2090   35.2630 C   0  0  0  0  0  0  0  0  0  0  0  0
   35.0940   28.7950   35.3380 C   0  0  0  0  0  0  0  0  0  0  0  0
   34.4230   28.8620   36.6100 C   0  0  0  0  0  0  0  0  0  0  0  0
   35.1530   29.3250   37.6710 N   0  0  0  0  0  0  0  0  0  0  0  0
   36.4150   29.6970   37.5490 C   0  0  0  0  0  0  0  0  0  0  0  0
   37.0620   29.6410   36.3640 N   0  0  0  0  0  0  0  0  0  0  0  0
   34.5280   28.4310   34.4900 H   0  0  0  0  0  0  0  0  0  0  0  0
   33.4020   28.5570   36.6890 H   0  0  0  0  0  0  0  0  0  0  0  0
   37.0670   29.1250   34.0170 N   0  0  0  0  0  0  0  0  0  0  0  0
   37.6550   28.2640   34.1340 H   0  0  0  0  0  0  0  0  0  0  0  0
   36.6540   29.9630   33.5430 H   0  0  0  0  0  0  0  0  0  0  0  0
   39.5700   29.1240   41.2140 O   0  0  0  0  0  0  0  0  0  0  0  0
   38.3250   28.5700   43.4830 O   0  0  0  0  0  0  0  0  0  0  0  0
   39.2070   27.9940   42.3930 P   0  0  2  0  0  0  0  0  0  0  0  0
   40.6720   27.4450   43.1100 O   0  0  0  0  0  0  0  0  0  0  0  0
   40.6500   26.1830   43.6800 C   0  0  0  0  0  0  0  0  0  0  0  0
   39.8600   25.7570   44.2770 H   0  0  0  0  0  0  0  0  0  0  0  0
   41.6650   25.4330   43.4880 O   0  0  0  0  0  0  0  0  0  0  0  0
   38.4750   26.6030   41.7860 O   0  0  0  0  0  0  0  0  0  0  0  0
   37.0690   26.6850   41.9190 C   0  0  0  0  0  0  0  0  0  0  0  0
   36.5850   25.8600   40.8910 F   0  0  0  0  0  0  0  0  0  0  0  0
   36.6630   26.1300   43.1050 F   0  0  0  0  0  0  0  0  0  0  0  0
   36.5800   27.9520   41.8480 F   0  0  0  0  0  0  0  0  0  0  0  0
  1  2  1  0  0  0  0
  2  7  1  0  0  0  0
  3  4  1  0  0  0  0
  3  2  2  0  0  0  0
  4  5  2  0  0  0  0
  5  9  1  0  0  0  0
  5  6  1  0  0  0  0
  6 10  1  0  0  0  0
  7  6  2  0  0  0  0
  7 22  1  0  0  0  0
  8  4  1  0  0  0  0
 11 12  2  0  0  0  0
 11 16  1  0  0  0  0
 12 13  1  0  0  0  0
 13 18  1  0  0  0  0
 13 14  2  0  0  0  0
 15 14  1  0  0  0  0
 15  3  1  0  0  0  0
 16 15  2  0  0  0  0
 17 12  1  0  0  0  0
 19 20  1  0  0  0  0
 19 11  1  0  0  0  0
 21 19  1  0  0  0  0
 22 24  1  0  0  0  0
 24 25  1  0  0  0  0
 24 23  2  1  0  0  0
 25 26  1  0  0  0  0
 26 27  1  0  0  0  0
 28 26  2  0  0  0  0
 29 30  1  0  0  0  0
 29 24  1  0  0  0  0
 30 32  1  0  0  0  0
 31 30  1  0  0  0  0
 33 30  1  0  0  0  0
M  END
>  <minimizedAffinity>
-4.97941208

$$$$
