
 OpenBabel03252508583D

 39 40  0  0  1  0  0  0  0  0999 V2000
   47.1670   34.1500   43.0800 N   0  0  0  0  0  0  0  0  0  0  0  0
   46.6440   35.3460   42.5080 C   0  0  0  0  0  0  0  0  0  0  0  0
   45.1820   35.5840   42.7370 C   0  0  0  0  0  0  0  0  0  0  0  0
   44.6400   35.0310   44.0280 C   0  0  0  0  0  0  0  0  0  0  0  0
   45.7530   34.4910   44.8950 C   0  0  0  0  0  0  0  0  0  0  0  0
   46.4260   33.4050   43.9780 C   0  0  2  0  0  0  0  0  0  0  0  0
   46.8410   35.4910   41.4420 H   0  0  0  0  0  0  0  0  0  0  0  0
   47.1900   36.1970   43.0110 H   0  0  0  0  0  0  0  0  0  0  0  0
   45.0040   36.6900   42.7600 H   0  0  0  0  0  0  0  0  0  0  0  0
   44.5870   35.2360   41.8540 H   0  0  0  0  0  0  0  0  0  0  0  0
   43.9710   35.7410   44.5520 H   0  0  0  0  0  0  0  0  0  0  0  0
   43.9920   34.1600   43.7580 H   0  0  0  0  0  0  0  0  0  0  0  0
   45.3350   34.0110   45.7890 H   0  0  0  0  0  0  0  0  0  0  0  0
   46.5120   35.2710   45.1010 H   0  0  0  0  0  0  0  0  0  0  0  0
   45.6080   32.7750   43.5720 H   0  0  0  0  0  0  0  0  0  0  0  0
   48.1530   33.4940   42.2730 C   0  0  0  0  0  0  0  0  0  0  0  0
   48.7800   32.8380   42.9060 H   0  0  0  0  0  0  0  0  0  0  0  0
   48.7740   34.2720   41.7810 H   0  0  0  0  0  0  0  0  0  0  0  0
   47.4380   32.6440   41.2580 C   0  0  0  0  0  0  0  0  0  0  0  0
   46.3450   32.9120   41.2080 H   0  0  0  0  0  0  0  0  0  0  0  0
   47.4890   31.5650   41.4520 H   0  0  0  0  0  0  0  0  0  0  0  0
   49.3310   32.2740   38.0310 C   0  0  0  0  0  0  0  0  0  0  0  0
   48.8070   32.0050   39.3090 C   0  0  0  0  0  0  0  0  0  0  0  0
   47.9890   32.9370   39.9070 C   0  0  0  0  0  0  0  0  0  0  0  0
   47.7280   34.0690   39.2320 N   0  0  0  0  0  0  0  0  0  0  0  0
   48.2330   34.3180   38.0140 C   0  0  0  0  0  0  0  0  0  0  0  0
   49.0400   33.4230   37.4000 N   0  0  0  0  0  0  0  0  0  0  0  0
   49.9760   31.5330   37.5660 H   0  0  0  0  0  0  0  0  0  0  0  0
   49.0520   31.0790   39.7970 H   0  0  0  0  0  0  0  0  0  0  0  0
   47.9770   35.2540   37.5350 H   0  0  0  0  0  0  0  0  0  0  0  0
   47.2350   32.7350   44.8830 O   0  0  0  0  0  0  0  0  0  0  0  0
   46.1420   30.5170   43.8990 O   0  0  0  0  0  0  0  0  0  0  0  0
   46.7240   31.1580   45.1640 P   0  0  2  0  0  0  0  0  0  0  0  0
   45.3970   31.2740   46.2400 O   0  0  0  0  0  0  0  0  0  0  0  0
   45.7280   31.4650   47.1520 H   0  0  0  0  0  0  0  0  0  0  0  0
   47.8820   30.2100   45.8870 O   0  0  0  0  0  0  0  0  0  0  0  0
   48.7860   29.5110   45.0990 C   0  0  0  0  0  0  0  0  0  0  0  0
   49.6330   29.9680   44.6000 H   0  0  0  0  0  0  0  0  0  0  0  0
   48.4810   28.2870   45.0480 O   0  0  0  0  0  0  0  0  0  0  0  0
  1  6  1  0  0  0  0
  2  3  1  0  0  0  0
  2  8  1  0  0  0  0
  2  1  1  0  0  0  0
  3  9  1  0  0  0  0
  3  4  1  0  0  0  0
  4 11  1  0  0  0  0
  4  5  1  0  0  0  0
  5 14  1  0  0  0  0
  5 13  1  0  0  0  0
  6 15  1  6  0  0  0
  6 31  1  0  0  0  0
  6  5  1  0  0  0  0
  7  2  1  0  0  0  0
 10  3  1  0  0  0  0
 12  4  1  0  0  0  0
 16 17  1  0  0  0  0
 16  1  1  0  0  0  0
 18 16  1  0  0  0  0
 19 21  1  0  0  0  0
 19 16  1  0  0  0  0
 20 19  1  0  0  0  0
 22 23  1  0  0  0  0
 23 29  1  0  0  0  0
 23 24  2  0  0  0  0
 24 19  1  0  0  0  0
 25 24  1  0  0  0  0
 26 25  2  0  0  0  0
 27 26  1  0  0  0  0
 27 22  2  0  0  0  0
 28 22  1  0  0  0  0
 30 26  1  0  0  0  0
 31 33  1  0  0  0  0
 33 32  2  6  0  0  0
 33 36  1  0  0  0  0
 33 34  1  0  0  0  0
 34 35  1  0  0  0  0
 37 36  1  0  0  0  0
 38 37  1  0  0  0  0
 39 37  2  0  0  0  0
M  END
>  <minimizedAffinity>
-3.58129811

>  <minimizedRMSD>
0.097402066

$$$$
