
 OpenBabel03242516433D

 38 39  0  0  1  0  0  0  0  0999 V2000
   49.6730   31.3580   42.3580 O   0  0  0  0  0  0  0  0  0  0  0  0
   50.1760   32.1390   41.1580 P   0  0  2  0  0  0  0  0  0  0  0  0
   51.7100   32.7600   41.3930 O   0  0  0  0  0  0  0  0  0  0  0  0
   51.8370   33.4690   40.6870 H   0  0  0  0  0  0  0  0  0  0  0  0
   49.1010   33.3920   40.8360 O   0  0  0  0  0  0  0  0  0  0  0  0
   49.1220   34.3470   41.8420 C   0  0  0  0  0  0  0  0  0  0  0  0
   49.2450   33.8040   42.8030 H   0  0  0  0  0  0  0  0  0  0  0  0
   50.0140   34.9710   41.6600 H   0  0  0  0  0  0  0  0  0  0  0  0
   47.8900   35.1940   41.7800 C   0  0  0  0  0  0  0  0  0  0  0  0
   48.0970   36.2680   41.7260 H   0  0  0  0  0  0  0  0  0  0  0  0
   47.3220   34.9580   40.8360 H   0  0  0  0  0  0  0  0  0  0  0  0
   44.8830   35.1040   44.0270 C   0  0  0  0  0  0  0  0  0  0  0  0
   45.7520   35.4630   42.9890 C   0  0  0  0  0  0  0  0  0  0  0  0
   46.9660   34.8150   42.8810 C   0  0  0  0  0  0  0  0  0  0  0  0
   47.2730   33.8490   43.7920 N   0  0  0  0  0  0  0  0  0  0  0  0
   46.4090   33.5260   44.7840 C   0  0  0  0  0  0  0  0  0  0  0  0
   45.2220   34.1450   44.9070 N   0  0  0  0  0  0  0  0  0  0  0  0
   43.6300   35.7440   44.1700 N   0  0  0  0  0  0  0  0  0  0  0  0
   45.4520   36.2290   42.3060 H   0  0  0  0  0  0  0  0  0  0  0  0
   46.7730   32.7440   45.4400 H   0  0  0  0  0  0  0  0  0  0  0  0
   43.4900   36.6650   43.6940 H   0  0  0  0  0  0  0  0  0  0  0  0
   42.8730   35.3210   44.7270 H   0  0  0  0  0  0  0  0  0  0  0  0
   50.2460   31.0960   39.8020 O   0  0  0  0  0  0  0  0  0  0  0  0
   50.3740   31.7370   37.5370 C   0  0  1  0  0  0  0  0  0  0  0  0
   51.0930   31.5720   38.8440 C   0  0  2  0  0  0  0  0  0  0  0  0
   51.9930   30.3720   38.4670 C   0  0  0  0  0  0  0  0  0  0  0  0
   51.2080   29.5400   37.7160 O   0  0  0  0  0  0  0  0  0  0  0  0
   50.2280   30.2850   37.1110 C   0  0  0  0  0  0  0  0  0  0  0  0
   51.0070   32.2430   36.7800 H   0  0  0  0  0  0  0  0  0  0  0  0
   51.7240   32.4330   39.1380 H   0  0  0  0  0  0  0  0  0  0  0  0
   52.8240   30.8080   37.8560 H   0  0  0  0  0  0  0  0  0  0  0  0
   52.4000   29.9150   39.3820 H   0  0  0  0  0  0  0  0  0  0  0  0
   49.2380   29.9470   37.4880 H   0  0  0  0  0  0  0  0  0  0  0  0
   50.2050   30.2210   36.0140 H   0  0  0  0  0  0  0  0  0  0  0  0
   49.1200   32.3460   37.6900 O   0  0  0  0  0  0  0  0  0  0  0  0
   48.9060   33.5580   37.0190 C   0  0  0  0  0  0  0  0  0  0  0  0
   49.0780   33.4900   35.9360 H   0  0  0  0  0  0  0  0  0  0  0  0
   48.5500   34.6930   37.4870 O   0  0  0  0  0  0  0  0  0  0  0  0
  2  3  1  0  0  0  0
  2  1  2  1  0  0  0
  4  3  1  0  0  0  0
  5  2  1  0  0  0  0
  5  6  1  0  0  0  0
  6  7  1  0  0  0  0
  8  6  1  0  0  0  0
  9  6  1  0  0  0  0
  9 14  1  0  0  0  0
 10  9  1  0  0  0  0
 11  9  1  0  0  0  0
 12 18  1  0  0  0  0
 12 17  1  0  0  0  0
 13 12  2  0  0  0  0
 14 13  1  0  0  0  0
 14 15  2  0  0  0  0
 15 16  1  0  0  0  0
 16 17  2  0  0  0  0
 16 20  1  0  0  0  0
 18 22  1  0  0  0  0
 19 13  1  0  0  0  0
 21 18  1  0  0  0  0
 23  2  1  0  0  0  0
 24 29  1  6  0  0  0
 24 35  1  0  0  0  0
 24 25  1  0  0  0  0
 25 30  1  1  0  0  0
 25 23  1  0  0  0  0
 26 25  1  0  0  0  0
 26 32  1  0  0  0  0
 27 26  1  0  0  0  0
 28 33  1  0  0  0  0
 28 24  1  0  0  0  0
 28 27  1  0  0  0  0
 31 26  1  0  0  0  0
 34 28  1  0  0  0  0
 36 38  2  0  0  0  0
 36 35  1  0  0  0  0
 37 36  1  0  0  0  0
M  END
>  <minimizedAffinity>
-4.70480633

>  <minimizedRMSD>
1.40136158

$$$$
