
 OpenBabel03242516473D

 36 39  0  0  1  0  0  0  0  0999 V2000
   37.5590   30.7760   41.1200 C   0  0  0  0  0  0  0  0  0  0  0  0
   38.7880   31.0310   41.6060 N   0  0  0  0  0  0  0  0  0  0  0  0
   39.1140   30.1460   42.5590 C   0  0  0  0  0  0  0  0  0  0  0  0
   38.0540   29.3040   42.6780 N   0  0  0  0  0  0  0  0  0  0  0  0
   37.1180   29.6650   41.8280 N   0  0  0  0  0  0  0  0  0  0  0  0
   40.0380   30.1040   43.1270 H   0  0  0  0  0  0  0  0  0  0  0  0
   40.1960   27.3050   43.6790 O   0  0  0  0  0  0  0  0  0  0  0  0
   38.9800   27.1600   43.3430 C   0  0  0  0  0  0  0  0  0  0  0  0
   37.9240   28.1750   43.5770 C   0  0  2  0  0  0  0  0  0  0  0  0
   36.6390   27.4050   43.3100 C   0  0  0  0  0  0  0  0  0  0  0  0
   37.0880   26.4660   42.1830 C   0  0  0  0  0  0  0  0  0  0  0  0
   38.3730   26.0270   42.6850 N   0  0  0  0  0  0  0  0  0  0  0  0
   37.9000   28.5160   44.6270 H   0  0  0  0  0  0  0  0  0  0  0  0
   36.3610   26.8090   44.1900 H   0  0  0  0  0  0  0  0  0  0  0  0
   35.8310   28.0560   42.9760 H   0  0  0  0  0  0  0  0  0  0  0  0
   37.2610   27.1230   41.3110 H   0  0  0  0  0  0  0  0  0  0  0  0
   36.3860   25.6450   42.0070 H   0  0  0  0  0  0  0  0  0  0  0  0
   39.0210   24.7420   42.6040 C   0  0  0  0  0  0  0  0  0  0  0  0
   38.3770   23.8840   42.8290 H   0  0  0  0  0  0  0  0  0  0  0  0
   40.2350   24.6110   42.2980 O   0  0  0  0  0  0  0  0  0  0  0  0
   36.9400   31.2440   38.6090 C   0  0  1  0  0  0  0  0  0  0  0  0
   36.7730   31.4410   40.0750 C   0  0  2  0  0  0  0  0  0  0  0  0
   37.4140   32.4650   39.2830 C   0  0  0  0  0  0  0  0  0  0  0  0
   36.0000   31.2940   38.0330 H   0  0  0  0  0  0  0  0  0  0  0  0
   35.7160   31.6310   40.4300 H   0  0  0  0  0  0  0  0  0  0  0  0
   36.8790   33.4380   39.1150 H   0  0  0  0  0  0  0  0  0  0  0  0
   38.5080   32.6630   39.4260 H   0  0  0  0  0  0  0  0  0  0  0  0
   37.3810   29.0180   37.6060 C   0  0  0  0  0  0  0  0  0  0  0  0
   37.8760   30.2410   38.0540 C   0  0  0  0  0  0  0  0  0  0  0  0
   39.2260   30.4590   37.9390 C   0  0  0  0  0  0  0  0  0  0  0  0
   39.9920   29.4790   37.3990 N   0  0  0  0  0  0  0  0  0  0  0  0
   39.5030   28.3210   36.9780 C   0  0  0  0  0  0  0  0  0  0  0  0
   38.1830   28.0990   37.0870 N   0  0  0  0  0  0  0  0  0  0  0  0
   36.3090   28.7980   37.6770 H   0  0  0  0  0  0  0  0  0  0  0  0
   39.6590   31.3800   38.2660 H   0  0  0  0  0  0  0  0  0  0  0  0
   40.1920   27.5870   36.5570 H   0  0  0  0  0  0  0  0  0  0  0  0
  1  2  1  0  0  0  0
  1  5  2  0  0  0  0
  2  3  2  0  0  0  0
  3  4  1  0  0  0  0
  3  6  1  0  0  0  0
  4  9  1  0  0  0  0
  5  4  1  0  0  0  0
  8  9  1  0  0  0  0
  8  7  2  0  0  0  0
  9 13  1  1  0  0  0
 10  9  1  0  0  0  0
 10 14  1  0  0  0  0
 11 12  1  0  0  0  0
 11 10  1  0  0  0  0
 12  8  1  0  0  0  0
 15 10  1  0  0  0  0
 16 11  1  0  0  0  0
 17 11  1  0  0  0  0
 18 12  1  0  0  0  0
 18 19  1  0  0  0  0
 20 18  2  0  0  0  0
 21 24  1  6  0  0  0
 21 23  1  0  0  0  0
 21 22  1  0  0  0  0
 22 25  1  1  0  0  0
 22  1  1  0  0  0  0
 23 27  1  0  0  0  0
 23 22  1  0  0  0  0
 26 23  1  0  0  0  0
 28 34  1  0  0  0  0
 28 29  1  0  0  0  0
 29 21  1  0  0  0  0
 30 29  2  0  0  0  0
 30 35  1  0  0  0  0
 31 30  1  0  0  0  0
 32 33  1  0  0  0  0
 32 31  2  0  0  0  0
 33 28  2  0  0  0  0
 36 32  1  0  0  0  0
M  END
>  <minimizedAffinity>
-5.65329266

$$$$

 OpenBabel03242516473D

 36 39  0  0  1  0  0  0  0  0999 V2000
   37.1120   26.7020   42.6180 C   0  0  0  0  0  0  0  0  0  0  0  0
   37.6900   27.4010   43.6120 N   0  0  0  0  0  0  0  0  0  0  0  0
   37.6420   28.7160   43.3580 C   0  0  0  0  0  0  0  0  0  0  0  0
   37.0120   28.8510   42.1620 N   0  0  0  0  0  0  0  0  0  0  0  0
   36.6890   27.6610   41.7070 N   0  0  0  0  0  0  0  0  0  0  0  0
   38.0280   29.5180   43.9790 H   0  0  0  0  0  0  0  0  0  0  0  0
   34.8530   29.4490   40.0230 O   0  0  0  0  0  0  0  0  0  0  0  0
   36.0580   29.8290   40.1530 C   0  0  0  0  0  0  0  0  0  0  0  0
   36.7150   30.0830   41.4580 C   0  0  2  0  0  0  0  0  0  0  0  0
   37.9910   30.8140   41.0670 C   0  0  0  0  0  0  0  0  0  0  0  0
   38.3260   30.1260   39.7370 C   0  0  0  0  0  0  0  0  0  0  0  0
   37.0210   30.0870   39.1100 N   0  0  0  0  0  0  0  0  0  0  0  0
   36.1220   30.7610   42.0980 H   0  0  0  0  0  0  0  0  0  0  0  0
   37.7820   31.8760   40.8830 H   0  0  0  0  0  0  0  0  0  0  0  0
   38.7890   30.6660   41.7940 H   0  0  0  0  0  0  0  0  0  0  0  0
   38.6120   29.0930   40.0090 H   0  0  0  0  0  0  0  0  0  0  0  0
   39.0740   30.6700   39.1520 H   0  0  0  0  0  0  0  0  0  0  0  0
   36.6400   30.2590   37.7300 C   0  0  0  0  0  0  0  0  0  0  0  0
   37.1200   31.1010   37.2190 H   0  0  0  0  0  0  0  0  0  0  0  0
   35.8180   29.5000   37.1530 O   0  0  0  0  0  0  0  0  0  0  0  0
   37.9550   24.2800   42.0420 C   0  0  1  0  0  0  0  0  0  0  0  0
   36.9060   25.2600   42.4380 C   0  0  2  0  0  0  0  0  0  0  0  0
   36.9190   24.7290   41.0950 C   0  0  0  0  0  0  0  0  0  0  0  0
   37.8450   23.2840   42.5060 H   0  0  0  0  0  0  0  0  0  0  0  0
   36.1170   24.8770   43.1510 H   0  0  0  0  0  0  0  0  0  0  0  0
   36.1060   24.0210   40.7820 H   0  0  0  0  0  0  0  0  0  0  0  0
   37.1700   25.4080   40.2390 H   0  0  0  0  0  0  0  0  0  0  0  0
   40.2070   24.6640   43.0110 C   0  0  0  0  0  0  0  0  0  0  0  0
   39.3750   24.6670   41.8930 C   0  0  0  0  0  0  0  0  0  0  0  0
   39.9330   25.0200   40.6900 C   0  0  0  0  0  0  0  0  0  0  0  0
   41.2500   25.3410   40.6620 N   0  0  0  0  0  0  0  0  0  0  0  0
   42.0260   25.3310   41.7360 C   0  0  0  0  0  0  0  0  0  0  0  0
   41.4890   24.9880   42.9180 N   0  0  0  0  0  0  0  0  0  0  0  0
   39.8060   24.3880   43.9950 H   0  0  0  0  0  0  0  0  0  0  0  0
   39.3420   25.0390   39.8000 H   0  0  0  0  0  0  0  0  0  0  0  0
   43.0770   25.6040   41.6240 H   0  0  0  0  0  0  0  0  0  0  0  0
  1  2  1  0  0  0  0
  3  2  2  0  0  0  0
  3  6  1  0  0  0  0
  4  3  1  0  0  0  0
  5  4  1  0  0  0  0
  5  1  2  0  0  0  0
  7  8  2  0  0  0  0
  8  9  1  0  0  0  0
  9 13  1  1  0  0  0
  9  4  1  0  0  0  0
 10  9  1  0  0  0  0
 10 15  1  0  0  0  0
 11 16  1  0  0  0  0
 11 10  1  0  0  0  0
 12 11  1  0  0  0  0
 12  8  1  0  0  0  0
 14 10  1  0  0  0  0
 17 11  1  0  0  0  0
 18 12  1  0  0  0  0
 19 18  1  0  0  0  0
 20 18  2  0  0  0  0
 21 22  1  0  0  0  0
 21 24  1  1  0  0  0
 22  1  1  0  0  0  0
 22 25  1  1  0  0  0
 23 21  1  0  0  0  0
 23 22  1  0  0  0  0
 26 23  1  0  0  0  0
 27 23  1  0  0  0  0
 28 34  1  0  0  0  0
 29 21  1  0  0  0  0
 29 28  2  0  0  0  0
 30 29  1  0  0  0  0
 31 30  2  0  0  0  0
 31 32  1  0  0  0  0
 32 33  2  0  0  0  0
 33 28  1  0  0  0  0
 35 30  1  0  0  0  0
 36 32  1  0  0  0  0
M  END
>  <minimizedAffinity>
-5.62473917

$$$$

 OpenBabel03242516473D

 36 39  0  0  1  0  0  0  0  0999 V2000
   37.0130   29.2160   39.1450 C   0  0  0  0  0  0  0  0  0  0  0  0
   35.6980   29.2540   39.4260 N   0  0  0  0  0  0  0  0  0  0  0  0
   35.4780   28.9420   40.7100 C   0  0  0  0  0  0  0  0  0  0  0  0
   36.6970   28.6970   41.2580 N   0  0  0  0  0  0  0  0  0  0  0  0
   37.6230   28.8560   40.3390 N   0  0  0  0  0  0  0  0  0  0  0  0
   34.5200   28.8910   41.2180 H   0  0  0  0  0  0  0  0  0  0  0  0
   38.8990   29.7240   43.1770 O   0  0  0  0  0  0  0  0  0  0  0  0
   38.4050   28.5710   42.9800 C   0  0  0  0  0  0  0  0  0  0  0  0
   36.9860   28.3220   42.6280 C   0  0  2  0  0  0  0  0  0  0  0  0
   36.8380   26.8210   42.8300 C   0  0  0  0  0  0  0  0  0  0  0  0
   38.2240   26.3280   42.3940 C   0  0  0  0  0  0  0  0  0  0  0  0
   39.0790   27.2960   43.0480 N   0  0  0  0  0  0  0  0  0  0  0  0
   36.2900   28.8250   43.3230 H   0  0  0  0  0  0  0  0  0  0  0  0
   36.6890   26.5910   43.8930 H   0  0  0  0  0  0  0  0  0  0  0  0
   36.0570   26.3960   42.1980 H   0  0  0  0  0  0  0  0  0  0  0  0
   38.2660   26.5080   41.3040 H   0  0  0  0  0  0  0  0  0  0  0  0
   38.4240   25.2960   42.6960 H   0  0  0  0  0  0  0  0  0  0  0  0
   40.3660   27.1340   43.6770 C   0  0  0  0  0  0  0  0  0  0  0  0
   40.4530   26.2630   44.3360 H   0  0  0  0  0  0  0  0  0  0  0  0
   41.3210   27.9320   43.4860 O   0  0  0  0  0  0  0  0  0  0  0  0
   38.3900   30.7800   37.5430 C   0  0  1  0  0  0  0  0  0  0  0  0
   37.7480   29.4860   37.9030 C   0  0  2  0  0  0  0  0  0  0  0  0
   37.1320   30.3420   36.9160 C   0  0  0  0  0  0  0  0  0  0  0  0
   39.3270   30.6780   36.9670 H   0  0  0  0  0  0  0  0  0  0  0  0
   38.2760   28.5550   37.5400 H   0  0  0  0  0  0  0  0  0  0  0  0
   37.1280   30.0170   35.8410 H   0  0  0  0  0  0  0  0  0  0  0  0
   36.1580   30.8420   37.1550 H   0  0  0  0  0  0  0  0  0  0  0  0
   37.2940   32.6760   38.7090 C   0  0  0  0  0  0  0  0  0  0  0  0
   38.4420   31.9200   38.4850 C   0  0  0  0  0  0  0  0  0  0  0  0
   39.5770   32.2700   39.1750 C   0  0  0  0  0  0  0  0  0  0  0  0
   39.5110   33.3220   40.0280 N   0  0  0  0  0  0  0  0  0  0  0  0
   38.4090   34.0300   40.2280 C   0  0  0  0  0  0  0  0  0  0  0  0
   37.2940   33.6950   39.5570 N   0  0  0  0  0  0  0  0  0  0  0  0
   36.3630   32.4340   38.1810 H   0  0  0  0  0  0  0  0  0  0  0  0
   40.4850   31.7240   39.0420 H   0  0  0  0  0  0  0  0  0  0  0  0
   38.4450   34.8630   40.9330 H   0  0  0  0  0  0  0  0  0  0  0  0
  1  2  1  0  0  0  0
  1  5  2  0  0  0  0
  2  3  2  0  0  0  0
  3  6  1  0  0  0  0
  3  4  1  0  0  0  0
  4  9  1  0  0  0  0
  5  4  1  0  0  0  0
  8 12  1  0  0  0  0
  8  7  2  0  0  0  0
  9 10  1  0  0  0  0
  9  8  1  0  0  0  0
  9 13  1  1  0  0  0
 10 14  1  0  0  0  0
 11 17  1  0  0  0  0
 11 10  1  0  0  0  0
 11 12  1  0  0  0  0
 12 18  1  0  0  0  0
 15 10  1  0  0  0  0
 16 11  1  0  0  0  0
 18 19  1  0  0  0  0
 20 18  2  0  0  0  0
 21 24  1  6  0  0  0
 21 22  1  0  0  0  0
 21 29  1  0  0  0  0
 22 25  1  6  0  0  0
 22  1  1  0  0  0  0
 23 27  1  0  0  0  0
 23 21  1  0  0  0  0
 23 22  1  0  0  0  0
 26 23  1  0  0  0  0
 28 33  1  0  0  0  0
 29 28  2  0  0  0  0
 29 30  1  0  0  0  0
 30 31  2  0  0  0  0
 31 32  1  0  0  0  0
 32 36  1  0  0  0  0
 33 32  2  0  0  0  0
 34 28  1  0  0  0  0
 35 30  1  0  0  0  0
M  END
>  <minimizedAffinity>
-5.52956152

$$$$

 OpenBabel03242516473D

 36 39  0  0  1  0  0  0  0  0999 V2000
   37.0780   29.1810   41.8840 C   0  0  0  0  0  0  0  0  0  0  0  0
   36.0320   28.9940   41.0590 N   0  0  0  0  0  0  0  0  0  0  0  0
   36.2090   29.6620   39.9100 C   0  0  0  0  0  0  0  0  0  0  0  0
   37.4080   30.2910   40.0150 N   0  0  0  0  0  0  0  0  0  0  0  0
   37.9400   30.0160   41.1850 N   0  0  0  0  0  0  0  0  0  0  0  0
   35.5320   29.6970   39.0610 H   0  0  0  0  0  0  0  0  0  0  0  0
   40.3930   31.0390   39.6670 O   0  0  0  0  0  0  0  0  0  0  0  0
   39.3210   31.7060   39.5270 C   0  0  0  0  0  0  0  0  0  0  0  0
   38.0460   31.1390   39.0270 C   0  0  2  0  0  0  0  0  0  0  0  0
   37.2060   32.3740   38.7380 C   0  0  0  0  0  0  0  0  0  0  0  0
   37.6740   33.3150   39.8560 C   0  0  0  0  0  0  0  0  0  0  0  0
   39.1060   33.1050   39.8120 N   0  0  0  0  0  0  0  0  0  0  0  0
   38.1780   30.5920   38.0750 H   0  0  0  0  0  0  0  0  0  0  0  0
   37.4800   32.8040   37.7650 H   0  0  0  0  0  0  0  0  0  0  0  0
   36.1370   32.1740   38.8190 H   0  0  0  0  0  0  0  0  0  0  0  0
   37.2870   32.8680   40.7910 H   0  0  0  0  0  0  0  0  0  0  0  0
   37.3810   34.3550   39.6900 H   0  0  0  0  0  0  0  0  0  0  0  0
   40.1940   34.0320   39.9980 C   0  0  0  0  0  0  0  0  0  0  0  0
   40.0810   34.9890   39.4760 H   0  0  0  0  0  0  0  0  0  0  0  0
   41.2000   33.7660   40.7070 O   0  0  0  0  0  0  0  0  0  0  0  0
   38.0890   27.4010   43.5330 C   0  0  1  0  0  0  0  0  0  0  0  0
   37.3580   28.6620   43.2280 C   0  0  2  0  0  0  0  0  0  0  0  0
   36.6270   27.5010   43.6800 C   0  0  0  0  0  0  0  0  0  0  0  0
   38.7110   27.4450   44.4430 H   0  0  0  0  0  0  0  0  0  0  0  0
   37.5100   29.5100   43.9610 H   0  0  0  0  0  0  0  0  0  0  0  0
   36.1690   27.5110   44.7040 H   0  0  0  0  0  0  0  0  0  0  0  0
   35.9340   26.9790   42.9690 H   0  0  0  0  0  0  0  0  0  0  0  0
   38.0060   25.5220   41.9140 C   0  0  0  0  0  0  0  0  0  0  0  0
   38.7170   26.5820   42.4730 C   0  0  0  0  0  0  0  0  0  0  0  0
   39.9790   26.8220   41.9900 C   0  0  0  0  0  0  0  0  0  0  0  0
   40.4540   26.0200   41.0040 N   0  0  0  0  0  0  0  0  0  0  0  0
   39.7620   25.0160   40.4850 C   0  0  0  0  0  0  0  0  0  0  0  0
   38.5260   24.7740   40.9520 N   0  0  0  0  0  0  0  0  0  0  0  0
   36.9930   25.2910   42.2680 H   0  0  0  0  0  0  0  0  0  0  0  0
   40.5700   27.6220   42.3810 H   0  0  0  0  0  0  0  0  0  0  0  0
   40.2210   24.4210   39.6940 H   0  0  0  0  0  0  0  0  0  0  0  0
  1 22  1  0  0  0  0
  2  1  1  0  0  0  0
  3  4  1  0  0  0  0
  3  2  2  0  0  0  0
  4  5  1  0  0  0  0
  5  1  2  0  0  0  0
  6  3  1  0  0  0  0
  8  7  2  0  0  0  0
  8 12  1  0  0  0  0
  9 13  1  6  0  0  0
  9  8  1  0  0  0  0
  9  4  1  0  0  0  0
 10 15  1  0  0  0  0
 10  9  1  0  0  0  0
 10 11  1  0  0  0  0
 11 16  1  0  0  0  0
 12 11  1  0  0  0  0
 12 18  1  0  0  0  0
 14 10  1  0  0  0  0
 17 11  1  0  0  0  0
 18 20  2  0  0  0  0
 19 18  1  0  0  0  0
 21 23  1  0  0  0  0
 21 24  1  1  0  0  0
 22 21  1  0  0  0  0
 22 23  1  0  0  0  0
 22 25  1  1  0  0  0
 23 26  1  0  0  0  0
 27 23  1  0  0  0  0
 28 34  1  0  0  0  0
 28 29  1  0  0  0  0
 29 21  1  0  0  0  0
 30 35  1  0  0  0  0
 30 29  2  0  0  0  0
 31 30  1  0  0  0  0
 32 33  1  0  0  0  0
 32 31  2  0  0  0  0
 33 28  2  0  0  0  0
 36 32  1  0  0  0  0
M  END
>  <minimizedAffinity>
-5.51966572

$$$$

 OpenBabel03242516473D

 36 39  0  0  1  0  0  0  0  0999 V2000
   36.9000   26.1250   41.3760 C   0  0  0  0  0  0  0  0  0  0  0  0
   36.7110   26.7420   40.1950 N   0  0  0  0  0  0  0  0  0  0  0  0
   36.8160   28.0710   40.3320 C   0  0  0  0  0  0  0  0  0  0  0  0
   37.0790   28.3000   41.6450 N   0  0  0  0  0  0  0  0  0  0  0  0
   37.1320   27.1520   42.2820 N   0  0  0  0  0  0  0  0  0  0  0  0
   36.7120   28.8210   39.5530 H   0  0  0  0  0  0  0  0  0  0  0  0
   36.1090   31.1200   40.8090 O   0  0  0  0  0  0  0  0  0  0  0  0
   37.1930   30.7060   41.3260 C   0  0  0  0  0  0  0  0  0  0  0  0
   37.2790   29.5820   42.2910 C   0  0  2  0  0  0  0  0  0  0  0  0
   38.6930   29.7060   42.8400 C   0  0  0  0  0  0  0  0  0  0  0  0
   39.4470   30.2040   41.6000 C   0  0  0  0  0  0  0  0  0  0  0  0
   38.5280   31.2070   41.1030 N   0  0  0  0  0  0  0  0  0  0  0  0
   36.5780   29.7040   43.1360 H   0  0  0  0  0  0  0  0  0  0  0  0
   38.7330   30.4760   43.6220 H   0  0  0  0  0  0  0  0  0  0  0  0
   39.0880   28.7480   43.1780 H   0  0  0  0  0  0  0  0  0  0  0  0
   39.4430   29.3500   40.8970 H   0  0  0  0  0  0  0  0  0  0  0  0
   40.4390   30.6010   41.8350 H   0  0  0  0  0  0  0  0  0  0  0  0
   38.7810   32.4860   40.4890 C   0  0  0  0  0  0  0  0  0  0  0  0
   39.5450   33.0950   40.9870 H   0  0  0  0  0  0  0  0  0  0  0  0
   38.1720   32.8780   39.4590 O   0  0  0  0  0  0  0  0  0  0  0  0
   38.1060   23.8500   41.9010 C   0  0  1  0  0  0  0  0  0  0  0  0
   36.8970   24.7030   41.7390 C   0  0  2  0  0  0  0  0  0  0  0  0
   37.2330   23.7360   40.7200 C   0  0  0  0  0  0  0  0  0  0  0  0
   38.0200   23.0850   42.6920 H   0  0  0  0  0  0  0  0  0  0  0  0
   36.0310   24.4680   42.4270 H   0  0  0  0  0  0  0  0  0  0  0  0
   36.5820   22.8310   40.5930 H   0  0  0  0  0  0  0  0  0  0  0  0
   37.5680   24.0950   39.7130 H   0  0  0  0  0  0  0  0  0  0  0  0
   40.2000   24.6250   42.9830 C   0  0  0  0  0  0  0  0  0  0  0  0
   39.4760   24.4040   41.8140 C   0  0  0  0  0  0  0  0  0  0  0  0
   40.0880   24.7030   40.6220 C   0  0  0  0  0  0  0  0  0  0  0  0
   41.3530   25.1900   40.6550 N   0  0  0  0  0  0  0  0  0  0  0  0
   42.0270   25.3940   41.7780 C   0  0  0  0  0  0  0  0  0  0  0  0
   41.4350   25.1040   42.9480 N   0  0  0  0  0  0  0  0  0  0  0  0
   39.7520   24.4010   43.9590 H   0  0  0  0  0  0  0  0  0  0  0  0
   39.5790   24.5520   39.6950 H   0  0  0  0  0  0  0  0  0  0  0  0
   43.0420   25.7900   41.7120 H   0  0  0  0  0  0  0  0  0  0  0  0
  1 22  1  0  0  0  0
  1  5  2  0  0  0  0
  2  3  2  0  0  0  0
  2  1  1  0  0  0  0
  3  4  1  0  0  0  0
  4  5  1  0  0  0  0
  4  9  1  0  0  0  0
  6  3  1  0  0  0  0
  7  8  2  0  0  0  0
  8  9  1  0  0  0  0
  9 10  1  0  0  0  0
  9 13  1  1  0  0  0
 10 15  1  0  0  0  0
 10 14  1  0  0  0  0
 11 17  1  0  0  0  0
 11 10  1  0  0  0  0
 12  8  1  0  0  0  0
 12 11  1  0  0  0  0
 16 11  1  0  0  0  0
 18 19  1  0  0  0  0
 18 12  1  0  0  0  0
 20 18  2  0  0  0  0
 21 24  1  1  0  0  0
 22 21  1  0  0  0  0
 22 25  1  1  0  0  0
 23 22  1  0  0  0  0
 23 21  1  0  0  0  0
 26 23  1  0  0  0  0
 27 23  1  0  0  0  0
 28 34  1  0  0  0  0
 29 21  1  0  0  0  0
 29 28  2  0  0  0  0
 30 31  2  0  0  0  0
 30 29  1  0  0  0  0
 31 32  1  0  0  0  0
 32 33  2  0  0  0  0
 33 28  1  0  0  0  0
 35 30  1  0  0  0  0
 36 32  1  0  0  0  0
M  END
>  <minimizedAffinity>
-5.37699556

$$$$

 OpenBabel03242516473D

 36 39  0  0  1  0  0  0  0  0999 V2000
   37.2580   28.8570   41.4910 C   0  0  0  0  0  0  0  0  0  0  0  0
   36.7040   28.1910   40.4610 N   0  0  0  0  0  0  0  0  0  0  0  0
   37.0320   28.7640   39.2940 C   0  0  0  0  0  0  0  0  0  0  0  0
   37.8190   29.8290   39.5990 N   0  0  0  0  0  0  0  0  0  0  0  0
   37.9640   29.8990   40.9040 N   0  0  0  0  0  0  0  0  0  0  0  0
   36.7310   28.4470   38.3000 H   0  0  0  0  0  0  0  0  0  0  0  0
   40.6220   31.1430   39.6620 O   0  0  0  0  0  0  0  0  0  0  0  0
   39.4780   31.5830   39.3320 C   0  0  0  0  0  0  0  0  0  0  0  0
   38.4290   30.7650   38.6760 C   0  0  2  0  0  0  0  0  0  0  0  0
   37.4230   31.8050   38.2050 C   0  0  0  0  0  0  0  0  0  0  0  0
   37.5220   32.8410   39.3320 C   0  0  0  0  0  0  0  0  0  0  0  0
   38.9570   32.9170   39.5110 N   0  0  0  0  0  0  0  0  0  0  0  0
   38.8100   30.2370   37.7830 H   0  0  0  0  0  0  0  0  0  0  0  0
   37.7580   32.2610   37.2630 H   0  0  0  0  0  0  0  0  0  0  0  0
   36.4130   31.4000   38.1350 H   0  0  0  0  0  0  0  0  0  0  0  0
   37.0870   32.3450   40.2190 H   0  0  0  0  0  0  0  0  0  0  0  0
   37.0640   33.8000   39.0720 H   0  0  0  0  0  0  0  0  0  0  0  0
   39.8050   34.0440   39.8110 C   0  0  0  0  0  0  0  0  0  0  0  0
   39.5930   34.9500   39.2310 H   0  0  0  0  0  0  0  0  0  0  0  0
   40.7200   33.9960   40.6740 O   0  0  0  0  0  0  0  0  0  0  0  0
   38.0230   27.6190   43.6790 C   0  0  1  0  0  0  0  0  0  0  0  0
   37.2080   28.6200   42.9380 C   0  0  2  0  0  0  0  0  0  0  0  0
   36.5910   27.4020   43.4110 C   0  0  0  0  0  0  0  0  0  0  0  0
   38.3240   27.9390   44.6920 H   0  0  0  0  0  0  0  0  0  0  0  0
   36.9790   29.5790   43.4920 H   0  0  0  0  0  0  0  0  0  0  0  0
   35.8510   27.4590   44.2540 H   0  0  0  0  0  0  0  0  0  0  0  0
   36.2480   26.6370   42.6680 H   0  0  0  0  0  0  0  0  0  0  0  0
   40.3990   27.2510   43.0650 C   0  0  0  0  0  0  0  0  0  0  0  0
   39.0760   26.8180   43.0160 C   0  0  0  0  0  0  0  0  0  0  0  0
   38.8180   25.6420   42.3570 C   0  0  0  0  0  0  0  0  0  0  0  0
   39.8600   24.9770   41.7980 N   0  0  0  0  0  0  0  0  0  0  0  0
   41.1130   25.4040   41.8560 C   0  0  0  0  0  0  0  0  0  0  0  0
   41.3740   26.5540   42.4990 N   0  0  0  0  0  0  0  0  0  0  0  0
   40.6540   28.1850   43.5820 H   0  0  0  0  0  0  0  0  0  0  0  0
   37.8210   25.2630   42.2880 H   0  0  0  0  0  0  0  0  0  0  0  0
   41.8900   24.8060   41.3780 H   0  0  0  0  0  0  0  0  0  0  0  0
  1 22  1  0  0  0  0
  2  1  1  0  0  0  0
  3  4  1  0  0  0  0
  3  2  2  0  0  0  0
  4  5  1  0  0  0  0
  5  1  2  0  0  0  0
  6  3  1  0  0  0  0
  8 12  1  0  0  0  0
  8  7  2  0  0  0  0
  9 13  1  6  0  0  0
  9  8  1  0  0  0  0
  9  4  1  0  0  0  0
 10  9  1  0  0  0  0
 10 11  1  0  0  0  0
 11 12  1  0  0  0  0
 11 16  1  0  0  0  0
 12 18  1  0  0  0  0
 14 10  1  0  0  0  0
 15 10  1  0  0  0  0
 17 11  1  0  0  0  0
 18 20  2  0  0  0  0
 19 18  1  0  0  0  0
 21 24  1  1  0  0  0
 22 23  1  0  0  0  0
 22 25  1  1  0  0  0
 22 21  1  0  0  0  0
 23 21  1  0  0  0  0
 23 26  1  0  0  0  0
 27 23  1  0  0  0  0
 28 34  1  0  0  0  0
 29 28  1  0  0  0  0
 29 21  1  0  0  0  0
 30 29  2  0  0  0  0
 31 32  2  0  0  0  0
 31 30  1  0  0  0  0
 32 33  1  0  0  0  0
 33 28  2  0  0  0  0
 35 30  1  0  0  0  0
 36 32  1  0  0  0  0
M  END
>  <minimizedAffinity>
-5.36279726

$$$$

 OpenBabel03242516473D

 36 39  0  0  1  0  0  0  0  0999 V2000
   37.9070   29.4590   42.6380 C   0  0  0  0  0  0  0  0  0  0  0  0
   38.9310   30.2890   42.3650 N   0  0  0  0  0  0  0  0  0  0  0  0
   38.6400   31.0730   41.3180 C   0  0  0  0  0  0  0  0  0  0  0  0
   37.3900   30.7250   40.9160 N   0  0  0  0  0  0  0  0  0  0  0  0
   36.9380   29.7650   41.6910 N   0  0  0  0  0  0  0  0  0  0  0  0
   39.2730   31.8360   40.8740 H   0  0  0  0  0  0  0  0  0  0  0  0
   35.4330   29.3600   38.9410 O   0  0  0  0  0  0  0  0  0  0  0  0
   36.3040   30.2720   38.7910 C   0  0  0  0  0  0  0  0  0  0  0  0
   36.6300   31.2910   39.8180 C   0  0  2  0  0  0  0  0  0  0  0  0
   37.4540   32.3100   39.0470 C   0  0  0  0  0  0  0  0  0  0  0  0
   38.2050   31.3990   38.0670 C   0  0  0  0  0  0  0  0  0  0  0  0
   37.1390   30.5170   37.6390 N   0  0  0  0  0  0  0  0  0  0  0  0
   35.7280   31.8040   40.1960 H   0  0  0  0  0  0  0  0  0  0  0  0
   36.7970   32.9850   38.4820 H   0  0  0  0  0  0  0  0  0  0  0  0
   38.1510   32.8480   39.6900 H   0  0  0  0  0  0  0  0  0  0  0  0
   38.9070   30.8170   38.6930 H   0  0  0  0  0  0  0  0  0  0  0  0
   38.6710   31.9490   37.2440 H   0  0  0  0  0  0  0  0  0  0  0  0
   36.8670   29.9350   36.3480 C   0  0  0  0  0  0  0  0  0  0  0  0
   36.9510   30.6270   35.5020 H   0  0  0  0  0  0  0  0  0  0  0  0
   36.5540   28.7250   36.2010 O   0  0  0  0  0  0  0  0  0  0  0  0
   37.9820   26.9790   43.5040 C   0  0  1  0  0  0  0  0  0  0  0  0
   37.7370   28.4370   43.6770 C   0  0  2  0  0  0  0  0  0  0  0  0
   36.6180   27.5300   43.5690 C   0  0  0  0  0  0  0  0  0  0  0  0
   38.3880   26.4770   44.4000 H   0  0  0  0  0  0  0  0  0  0  0  0
   37.9780   28.8610   44.6970 H   0  0  0  0  0  0  0  0  0  0  0  0
   35.9820   27.3400   44.4750 H   0  0  0  0  0  0  0  0  0  0  0  0
   35.9640   27.5720   42.6600 H   0  0  0  0  0  0  0  0  0  0  0  0
   39.9270   26.3080   42.1160 C   0  0  0  0  0  0  0  0  0  0  0  0
   38.5450   26.4200   42.2550 C   0  0  0  0  0  0  0  0  0  0  0  0
   37.7650   25.9830   41.2130 C   0  0  0  0  0  0  0  0  0  0  0  0
   38.3830   25.4720   40.1190 N   0  0  0  0  0  0  0  0  0  0  0  0
   39.6990   25.3720   40.0050 C   0  0  0  0  0  0  0  0  0  0  0  0
   40.4700   25.7970   41.0190 N   0  0  0  0  0  0  0  0  0  0  0  0
   40.5900   26.6430   42.9220 H   0  0  0  0  0  0  0  0  0  0  0  0
   36.7000   26.0450   41.2650 H   0  0  0  0  0  0  0  0  0  0  0  0
   40.1130   24.9480   39.0880 H   0  0  0  0  0  0  0  0  0  0  0  0
  1 22  1  0  0  0  0
  2  1  1  0  0  0  0
  3  2  2  0  0  0  0
  4  3  1  0  0  0  0
  4  5  1  0  0  0  0
  5  1  2  0  0  0  0
  6  3  1  0  0  0  0
  8  7  2  0  0  0  0
  8  9  1  0  0  0  0
  9 13  1  1  0  0  0
  9  4  1  0  0  0  0
 10 15  1  0  0  0  0
 10  9  1  0  0  0  0
 11 16  1  0  0  0  0
 11 10  1  0  0  0  0
 12 11  1  0  0  0  0
 12  8  1  0  0  0  0
 14 10  1  0  0  0  0
 17 11  1  0  0  0  0
 18 12  1  0  0  0  0
 19 18  1  0  0  0  0
 20 18  2  0  0  0  0
 21 23  1  0  0  0  0
 21 22  1  0  0  0  0
 21 24  1  1  0  0  0
 22 25  1  1  0  0  0
 23 22  1  0  0  0  0
 23 26  1  0  0  0  0
 27 23  1  0  0  0  0
 28 29  1  0  0  0  0
 28 34  1  0  0  0  0
 29 21  1  0  0  0  0
 30 35  1  0  0  0  0
 30 29  2  0  0  0  0
 31 30  1  0  0  0  0
 32 31  2  0  0  0  0
 32 33  1  0  0  0  0
 33 28  2  0  0  0  0
 36 32  1  0  0  0  0
M  END
>  <minimizedAffinity>
-5.34987354

$$$$

 OpenBabel03242516473D

 36 39  0  0  1  0  0  0  0  0999 V2000
   37.4350   30.2090   39.6050 C   0  0  0  0  0  0  0  0  0  0  0  0
   36.3280   30.7450   40.1500 N   0  0  0  0  0  0  0  0  0  0  0  0
   36.1990   30.3690   41.4300 C   0  0  0  0  0  0  0  0  0  0  0  0
   37.2620   29.5680   41.7010 N   0  0  0  0  0  0  0  0  0  0  0  0
   38.0090   29.4610   40.6240 N   0  0  0  0  0  0  0  0  0  0  0  0
   35.4060   30.6450   42.1180 H   0  0  0  0  0  0  0  0  0  0  0  0
   40.0050   28.8210   42.9300 O   0  0  0  0  0  0  0  0  0  0  0  0
   38.8850   28.2230   42.9100 C   0  0  0  0  0  0  0  0  0  0  0  0
   37.5720   28.9120   42.9560 C   0  0  2  0  0  0  0  0  0  0  0  0
   36.5960   27.7810   43.2410 C   0  0  0  0  0  0  0  0  0  0  0  0
   37.2510   26.6270   42.4700 C   0  0  0  0  0  0  0  0  0  0  0  0
   38.6410   26.8030   42.8400 N   0  0  0  0  0  0  0  0  0  0  0  0
   37.5080   29.6300   43.7940 H   0  0  0  0  0  0  0  0  0  0  0  0
   36.5900   27.5420   44.3130 H   0  0  0  0  0  0  0  0  0  0  0  0
   35.5980   27.9900   42.8550 H   0  0  0  0  0  0  0  0  0  0  0  0
   37.1400   26.8940   41.4020 H   0  0  0  0  0  0  0  0  0  0  0  0
   36.8480   25.6480   42.7430 H   0  0  0  0  0  0  0  0  0  0  0  0
   39.6680   25.8270   43.1090 C   0  0  0  0  0  0  0  0  0  0  0  0
   39.3580   24.9940   43.7500 H   0  0  0  0  0  0  0  0  0  0  0  0
   40.8340   25.9220   42.6440 O   0  0  0  0  0  0  0  0  0  0  0  0
   39.1230   31.2380   37.8730 C   0  0  1  0  0  0  0  0  0  0  0  0
   38.0100   30.3290   38.2600 C   0  0  2  0  0  0  0  0  0  0  0  0
   37.7270   31.5240   37.4980 C   0  0  0  0  0  0  0  0  0  0  0  0
   39.7990   30.8270   37.1020 H   0  0  0  0  0  0  0  0  0  0  0  0
   37.9730   29.3360   37.7190 H   0  0  0  0  0  0  0  0  0  0  0  0
   37.4050   31.4240   36.4280 H   0  0  0  0  0  0  0  0  0  0  0  0
   37.1560   32.3580   37.9810 H   0  0  0  0  0  0  0  0  0  0  0  0
   41.1200   31.6570   39.2850 C   0  0  0  0  0  0  0  0  0  0  0  0
   39.8520   32.0550   38.8680 C   0  0  0  0  0  0  0  0  0  0  0  0
   39.3440   33.2140   39.4020 C   0  0  0  0  0  0  0  0  0  0  0  0
   40.1030   33.8960   40.2950 N   0  0  0  0  0  0  0  0  0  0  0  0
   41.3090   33.5010   40.6800 C   0  0  0  0  0  0  0  0  0  0  0  0
   41.8130   32.3690   40.1630 N   0  0  0  0  0  0  0  0  0  0  0  0
   41.5680   30.7380   38.8860 H   0  0  0  0  0  0  0  0  0  0  0  0
   38.3770   33.5660   39.1180 H   0  0  0  0  0  0  0  0  0  0  0  0
   41.8510   34.1110   41.4040 H   0  0  0  0  0  0  0  0  0  0  0  0
  1  2  1  0  0  0  0
  1  5  2  0  0  0  0
  2  3  2  0  0  0  0
  3  4  1  0  0  0  0
  3  6  1  0  0  0  0
  4  9  1  0  0  0  0
  5  4  1  0  0  0  0
  8  7  2  0  0  0  0
  8  9  1  0  0  0  0
  9 10  1  0  0  0  0
  9 13  1  1  0  0  0
 10 14  1  0  0  0  0
 11 17  1  0  0  0  0
 11 12  1  0  0  0  0
 11 10  1  0  0  0  0
 12  8  1  0  0  0  0
 12 18  1  0  0  0  0
 15 10  1  0  0  0  0
 16 11  1  0  0  0  0
 18 19  1  0  0  0  0
 20 18  2  0  0  0  0
 21 24  1  6  0  0  0
 21 22  1  0  0  0  0
 21 29  1  0  0  0  0
 22 25  1  6  0  0  0
 22  1  1  0  0  0  0
 23 21  1  0  0  0  0
 23 27  1  0  0  0  0
 23 22  1  0  0  0  0
 26 23  1  0  0  0  0
 28 33  1  0  0  0  0
 29 28  2  0  0  0  0
 29 30  1  0  0  0  0
 30 31  2  0  0  0  0
 31 32  1  0  0  0  0
 32 36  1  0  0  0  0
 33 32  2  0  0  0  0
 34 28  1  0  0  0  0
 35 30  1  0  0  0  0
M  END
>  <minimizedAffinity>
-5.17347336

$$$$

 OpenBabel03242516473D

 36 39  0  0  1  0  0  0  0  0999 V2000
   36.3040   29.0110   39.9580 C   0  0  0  0  0  0  0  0  0  0  0  0
   35.8750   29.7580   40.9920 N   0  0  0  0  0  0  0  0  0  0  0  0
   36.1860   31.0490   40.8070 C   0  0  0  0  0  0  0  0  0  0  0  0
   36.8340   31.1180   39.6150 N   0  0  0  0  0  0  0  0  0  0  0  0
   36.9130   29.9130   39.0960 N   0  0  0  0  0  0  0  0  0  0  0  0
   35.9670   31.8790   41.4720 H   0  0  0  0  0  0  0  0  0  0  0  0
   38.9690   31.3760   37.3870 O   0  0  0  0  0  0  0  0  0  0  0  0
   38.7280   32.0660   38.4260 C   0  0  0  0  0  0  0  0  0  0  0  0
   37.3700   32.3020   38.9720 C   0  0  2  0  0  0  0  0  0  0  0  0
   37.5900   33.4210   39.9780 C   0  0  0  0  0  0  0  0  0  0  0  0
   38.9870   33.0680   40.5080 C   0  0  0  0  0  0  0  0  0  0  0  0
   39.6760   32.7470   39.2750 N   0  0  0  0  0  0  0  0  0  0  0  0
   36.6700   32.6740   38.2020 H   0  0  0  0  0  0  0  0  0  0  0  0
   37.6320   34.3920   39.4670 H   0  0  0  0  0  0  0  0  0  0  0  0
   36.8530   33.4040   40.7810 H   0  0  0  0  0  0  0  0  0  0  0  0
   38.8500   32.1340   41.0840 H   0  0  0  0  0  0  0  0  0  0  0  0
   39.4510   33.8870   41.0660 H   0  0  0  0  0  0  0  0  0  0  0  0
   41.0340   33.0050   38.8680 C   0  0  0  0  0  0  0  0  0  0  0  0
   41.3970   34.0170   39.0820 H   0  0  0  0  0  0  0  0  0  0  0  0
   41.7520   32.1350   38.3080 O   0  0  0  0  0  0  0  0  0  0  0  0
   37.0040   26.5090   40.3480 C   0  0  1  0  0  0  0  0  0  0  0  0
   36.1960   27.5730   39.6910 C   0  0  2  0  0  0  0  0  0  0  0  0
   37.2640   26.9300   38.9600 C   0  0  0  0  0  0  0  0  0  0  0  0
   36.4600   25.5630   40.5150 H   0  0  0  0  0  0  0  0  0  0  0  0
   35.1320   27.2930   39.4290 H   0  0  0  0  0  0  0  0  0  0  0  0
   37.0050   26.2430   38.1110 H   0  0  0  0  0  0  0  0  0  0  0  0
   38.1780   27.5210   38.6940 H   0  0  0  0  0  0  0  0  0  0  0  0
   39.3070   26.9370   41.1680 C   0  0  0  0  0  0  0  0  0  0  0  0
   37.9480   26.8060   41.4480 C   0  0  0  0  0  0  0  0  0  0  0  0
   37.5500   26.9770   42.7500 C   0  0  0  0  0  0  0  0  0  0  0  0
   38.4960   27.2630   43.6790 N   0  0  0  0  0  0  0  0  0  0  0  0
   39.7850   27.3850   43.3930 C   0  0  0  0  0  0  0  0  0  0  0  0
   40.1830   27.2190   42.1220 N   0  0  0  0  0  0  0  0  0  0  0  0
   39.6730   26.8100   40.1410 H   0  0  0  0  0  0  0  0  0  0  0  0
   36.5210   26.8870   43.0220 H   0  0  0  0  0  0  0  0  0  0  0  0
   40.4780   27.6170   44.2030 H   0  0  0  0  0  0  0  0  0  0  0  0
  1  2  1  0  0  0  0
  3  2  2  0  0  0  0
  3  6  1  0  0  0  0
  4  3  1  0  0  0  0
  5  4  1  0  0  0  0
  5  1  2  0  0  0  0
  7  8  2  0  0  0  0
  8  9  1  0  0  0  0
  8 12  1  0  0  0  0
  9 13  1  6  0  0  0
  9  4  1  0  0  0  0
  9 10  1  0  0  0  0
 10 11  1  0  0  0  0
 10 15  1  0  0  0  0
 11 17  1  0  0  0  0
 11 16  1  0  0  0  0
 12 11  1  0  0  0  0
 14 10  1  0  0  0  0
 18 19  1  0  0  0  0
 18 12  1  0  0  0  0
 20 18  2  0  0  0  0
 21 24  1  1  0  0  0
 21 29  1  0  0  0  0
 22 25  1  6  0  0  0
 22  1  1  0  0  0  0
 22 21  1  0  0  0  0
 23 22  1  0  0  0  0
 23 21  1  0  0  0  0
 26 23  1  0  0  0  0
 27 23  1  0  0  0  0
 28 29  2  0  0  0  0
 28 33  1  0  0  0  0
 29 30  1  0  0  0  0
 30 35  1  0  0  0  0
 30 31  2  0  0  0  0
 32 31  1  0  0  0  0
 32 36  1  0  0  0  0
 33 32  2  0  0  0  0
 34 28  1  0  0  0  0
M  END
>  <minimizedAffinity>
-5.14401913

$$$$
