
 OpenBabel03252501583D

 27 28  0  0  0  0  0  0  0  0999 V2000
   44.9550   34.9290   45.1840 C   0  0  0  0  0  0  0  0  0  0  0  0
   45.5630   35.1620   43.9510 C   0  0  0  0  0  0  0  0  0  0  0  0
   46.5850   34.3290   43.5540 C   0  0  0  0  0  0  0  0  0  0  0  0
   46.9480   33.3120   44.4010 N   0  0  0  0  0  0  0  0  0  0  0  0
   46.3330   33.1180   45.5920 C   0  0  0  0  0  0  0  0  0  0  0  0
   45.3330   33.9230   45.9930 N   0  0  0  0  0  0  0  0  0  0  0  0
   44.1490   35.5310   45.5710 H   0  0  0  0  0  0  0  0  0  0  0  0
   46.6590   32.3100   46.2100 H   0  0  0  0  0  0  0  0  0  0  0  0
   47.2300   34.5500   42.2820 C   0  0  0  0  0  0  0  0  0  0  0  0
   48.2740   35.3740   41.9740 C   0  0  0  0  0  0  0  0  0  0  0  0
   48.7580   35.4510   40.6880 C   0  0  0  0  0  0  0  0  0  0  0  0
   48.1830   34.6850   39.6900 C   0  0  0  0  0  0  0  0  0  0  0  0
   47.1300   33.8460   39.9730 C   0  0  0  0  0  0  0  0  0  0  0  0
   46.6630   33.7890   41.2810 C   0  0  0  0  0  0  0  0  0  0  0  0
   48.6630   35.9380   42.8210 H   0  0  0  0  0  0  0  0  0  0  0  0
   49.5940   36.1350   40.5290 H   0  0  0  0  0  0  0  0  0  0  0  0
   48.5990   34.7860   38.7180 H   0  0  0  0  0  0  0  0  0  0  0  0
   46.6990   33.2540   39.1630 H   0  0  0  0  0  0  0  0  0  0  0  0
   45.8210   33.0870   41.3910 H   0  0  0  0  0  0  0  0  0  0  0  0
   45.0720   36.2940   43.1380 C   0  0  0  0  0  0  0  0  0  0  0  0
   45.7410   36.5540   42.3250 H   0  0  0  0  0  0  0  0  0  0  0  0
   44.0480   36.0390   42.7460 H   0  0  0  0  0  0  0  0  0  0  0  0
   44.8350   37.3760   44.0760 N   0  0  0  0  0  0  0  0  0  0  0  0
   44.3010   37.2920   44.9900 H   0  0  0  0  0  0  0  0  0  0  0  0
   45.4100   38.6220   43.6380 C   0  0  0  0  0  0  0  0  0  0  0  0
   45.9470   38.6310   42.6830 H   0  0  0  0  0  0  0  0  0  0  0  0
   45.3040   39.6640   44.3230 O   0  0  0  0  0  0  0  0  0  0  0  0
  1  7  1  0  0  0  0
  1  6  1  0  0  0  0
  2  1  2  0  0  0  0
  3  2  1  0  0  0  0
  3  4  2  0  0  0  0
  4  5  1  0  0  0  0
  5  6  2  0  0  0  0
  5  8  1  0  0  0  0
  9  3  1  0  0  0  0
 10  9  1  0  0  0  0
 10 15  1  0  0  0  0
 11 10  2  0  0  0  0
 12 13  2  0  0  0  0
 12 11  1  0  0  0  0
 13 14  1  0  0  0  0
 14 19  1  0  0  0  0
 14  9  2  0  0  0  0
 16 11  1  0  0  0  0
 17 12  1  0  0  0  0
 18 13  1  0  0  0  0
 20  2  1  0  0  0  0
 20 23  1  0  0  0  0
 21 20  1  0  0  0  0
 22 20  1  0  0  0  0
 23 24  1  0  0  0  0
 25 23  1  0  0  0  0
 25 27  2  0  0  0  0
 26 25  1  0  0  0  0
M  END
>  <minimizedAffinity>
-5.35966158

>  <minimizedRMSD>
0.501910269

$$$$
