
 OpenBabel03252500553D

 24 24  0  0  0  0  0  0  0  0999 V2000
   37.9410   26.7940   41.8360 C   0  0  0  0  0  0  0  0  0  0  0  0
   37.4650   28.0650   42.0690 C   0  0  0  0  0  0  0  0  0  0  0  0
   38.3130   28.9660   42.7420 C   0  0  0  0  0  0  0  0  0  0  0  0
   39.5320   28.5270   43.1130 N   0  0  0  0  0  0  0  0  0  0  0  0
   39.9690   27.2840   42.8730 C   0  0  0  0  0  0  0  0  0  0  0  0
   39.1690   26.4300   42.2360 N   0  0  0  0  0  0  0  0  0  0  0  0
   37.9180   29.9590   42.9140 H   0  0  0  0  0  0  0  0  0  0  0  0
   40.9580   26.9830   43.1930 H   0  0  0  0  0  0  0  0  0  0  0  0
   37.1140   25.8050   41.1410 C   0  0  0  0  0  0  0  0  0  0  0  0
   36.1450   26.2390   40.8240 H   0  0  0  0  0  0  0  0  0  0  0  0
   37.6230   25.4780   40.1990 H   0  0  0  0  0  0  0  0  0  0  0  0
   36.9380   24.6040   42.0190 C   0  0  0  0  0  0  0  0  0  0  0  0
   37.5480   24.6970   42.9490 H   0  0  0  0  0  0  0  0  0  0  0  0
   37.1670   23.6670   41.4710 H   0  0  0  0  0  0  0  0  0  0  0  0
   35.8810   24.5630   42.3460 H   0  0  0  0  0  0  0  0  0  0  0  0
   36.1880   28.3590   41.6230 O   0  0  0  0  0  0  0  0  0  0  0  0
   34.3880   29.1990   39.8970 O   0  0  0  0  0  0  0  0  0  0  0  0
   35.7430   29.5390   40.5150 P   0  0  1  0  0  0  0  0  0  0  0  0
   35.5750   31.0100   41.3610 O   0  0  0  0  0  0  0  0  0  0  0  0
   36.4840   31.3630   41.5740 H   0  0  0  0  0  0  0  0  0  0  0  0
   36.8930   29.7940   39.3050 O   0  0  0  0  0  0  0  0  0  0  0  0
   36.9380   30.8490   38.4240 C   0  0  0  0  0  0  0  0  0  0  0  0
   36.9800   30.5130   37.3820 H   0  0  0  0  0  0  0  0  0  0  0  0
   36.9230   32.0020   38.9680 O   0  0  0  0  0  0  0  0  0  0  0  0
  1  2  2  0  0  0  0
  1  6  1  0  0  0  0
  2  3  1  0  0  0  0
  3  7  1  0  0  0  0
  3  4  2  0  0  0  0
  5  4  1  0  0  0  0
  5  8  1  0  0  0  0
  6  5  2  0  0  0  0
  9  1  1  0  0  0  0
  9 12  1  0  0  0  0
 10  9  1  0  0  0  0
 11  9  1  0  0  0  0
 12 15  1  0  0  0  0
 12 13  1  0  0  0  0
 14 12  1  0  0  0  0
 16  2  1  0  0  0  0
 18 17  2  6  0  0  0
 18 19  1  0  0  0  0
 18 16  1  0  0  0  0
 19 20  1  0  0  0  0
 21 18  1  0  0  0  0
 22 24  2  0  0  0  0
 22 21  1  0  0  0  0
 23 22  1  0  0  0  0
M  END
>  <minimizedAffinity>
-4.27299547

$$$$

 OpenBabel03252500553D

 24 24  0  0  0  0  0  0  0  0999 V2000
   38.2960   27.2440   42.8910 C   0  0  0  0  0  0  0  0  0  0  0  0
   38.5300   28.5940   42.7450 C   0  0  0  0  0  0  0  0  0  0  0  0
   39.8640   29.0370   42.8280 C   0  0  0  0  0  0  0  0  0  0  0  0
   40.8220   28.1140   43.0460 N   0  0  0  0  0  0  0  0  0  0  0  0
   40.5640   26.8070   43.1850 C   0  0  0  0  0  0  0  0  0  0  0  0
   39.3030   26.3860   43.1060 N   0  0  0  0  0  0  0  0  0  0  0  0
   40.0240   30.1000   42.7100 H   0  0  0  0  0  0  0  0  0  0  0  0
   41.3730   26.1090   43.3580 H   0  0  0  0  0  0  0  0  0  0  0  0
   36.9330   26.7130   42.8160 C   0  0  0  0  0  0  0  0  0  0  0  0
   36.4430   26.7110   43.8100 H   0  0  0  0  0  0  0  0  0  0  0  0
   36.3020   27.3740   42.1690 H   0  0  0  0  0  0  0  0  0  0  0  0
   36.9670   25.3490   42.1970 C   0  0  0  0  0  0  0  0  0  0  0  0
   37.9970   25.0940   41.8530 H   0  0  0  0  0  0  0  0  0  0  0  0
   36.2270   25.2600   41.3750 H   0  0  0  0  0  0  0  0  0  0  0  0
   36.7080   24.6060   42.9760 H   0  0  0  0  0  0  0  0  0  0  0  0
   37.4330   29.4110   42.5250 O   0  0  0  0  0  0  0  0  0  0  0  0
   37.0310   29.3970   39.9260 O   0  0  0  0  0  0  0  0  0  0  0  0
   37.0930   30.3090   41.1500 P   0  0  1  0  0  0  0  0  0  0  0  0
   35.5520   31.0110   41.3540 O   0  0  0  0  0  0  0  0  0  0  0  0
   35.6290   31.7720   41.9950 H   0  0  0  0  0  0  0  0  0  0  0  0
   38.1800   31.5750   40.8850 O   0  0  0  0  0  0  0  0  0  0  0  0
   37.9140   32.7670   40.2560 C   0  0  0  0  0  0  0  0  0  0  0  0
   38.5660   33.5730   40.6100 H   0  0  0  0  0  0  0  0  0  0  0  0
   36.9760   32.7190   39.3930 O   0  0  0  0  0  0  0  0  0  0  0  0
  1  6  1  0  0  0  0
  2  3  1  0  0  0  0
  2  1  2  0  0  0  0
  3  4  2  0  0  0  0
  4  5  1  0  0  0  0
  5  8  1  0  0  0  0
  6  5  2  0  0  0  0
  7  3  1  0  0  0  0
  9  1  1  0  0  0  0
  9 10  1  0  0  0  0
 11  9  1  0  0  0  0
 12  9  1  0  0  0  0
 12 15  1  0  0  0  0
 13 12  1  0  0  0  0
 14 12  1  0  0  0  0
 16  2  1  0  0  0  0
 18 17  2  6  0  0  0
 18 19  1  0  0  0  0
 18 16  1  0  0  0  0
 19 20  1  0  0  0  0
 21 18  1  0  0  0  0
 22 23  1  0  0  0  0
 22 21  1  0  0  0  0
 24 22  2  0  0  0  0
M  END
>  <minimizedAffinity>
-4.23978806

$$$$

 OpenBabel03252500553D

 24 24  0  0  0  0  0  0  0  0999 V2000
   36.1770   28.9500   41.1830 C   0  0  0  0  0  0  0  0  0  0  0  0
   36.9650   30.0320   41.5070 C   0  0  0  0  0  0  0  0  0  0  0  0
   38.0680   29.8060   42.3520 C   0  0  0  0  0  0  0  0  0  0  0  0
   38.2810   28.5490   42.7890 N   0  0  0  0  0  0  0  0  0  0  0  0
   37.4970   27.5150   42.4570 C   0  0  0  0  0  0  0  0  0  0  0  0
   36.4530   27.7260   41.6570 N   0  0  0  0  0  0  0  0  0  0  0  0
   38.6730   30.6710   42.5930 H   0  0  0  0  0  0  0  0  0  0  0  0
   37.7140   26.5250   42.8370 H   0  0  0  0  0  0  0  0  0  0  0  0
   35.0140   29.1110   40.3080 C   0  0  0  0  0  0  0  0  0  0  0  0
   34.1000   28.6820   40.7660 H   0  0  0  0  0  0  0  0  0  0  0  0
   34.7970   30.1990   40.1600 H   0  0  0  0  0  0  0  0  0  0  0  0
   35.3130   28.5090   38.9690 C   0  0  0  0  0  0  0  0  0  0  0  0
   36.3740   28.1640   38.9160 H   0  0  0  0  0  0  0  0  0  0  0  0
   35.0690   29.2110   38.1470 H   0  0  0  0  0  0  0  0  0  0  0  0
   34.6880   27.6020   38.8470 H   0  0  0  0  0  0  0  0  0  0  0  0
   36.6100   31.2600   40.9740 O   0  0  0  0  0  0  0  0  0  0  0  0
   36.9850   31.5670   38.3880 O   0  0  0  0  0  0  0  0  0  0  0  0
   37.3960   32.1070   39.7570 P   0  0  1  0  0  0  0  0  0  0  0  0
   36.8950   33.7340   39.8460 O   0  0  0  0  0  0  0  0  0  0  0  0
   37.3480   34.1660   40.6230 H   0  0  0  0  0  0  0  0  0  0  0  0
   39.0790   32.1000   39.9100 O   0  0  0  0  0  0  0  0  0  0  0  0
   39.8330   32.9100   40.7240 C   0  0  0  0  0  0  0  0  0  0  0  0
   40.4680   32.3340   41.4050 H   0  0  0  0  0  0  0  0  0  0  0  0
   39.6580   34.1610   40.5440 O   0  0  0  0  0  0  0  0  0  0  0  0
  1  2  2  0  0  0  0
  1  6  1  0  0  0  0
  2  3  1  0  0  0  0
  3  7  1  0  0  0  0
  3  4  2  0  0  0  0
  5  4  1  0  0  0  0
  5  8  1  0  0  0  0
  6  5  2  0  0  0  0
  9 10  1  0  0  0  0
  9  1  1  0  0  0  0
 11  9  1  0  0  0  0
 12  9  1  0  0  0  0
 13 12  1  0  0  0  0
 14 12  1  0  0  0  0
 15 12  1  0  0  0  0
 16  2  1  0  0  0  0
 18 17  2  6  0  0  0
 18 19  1  0  0  0  0
 18 21  1  0  0  0  0
 18 16  1  0  0  0  0
 19 20  1  0  0  0  0
 21 22  1  0  0  0  0
 22 23  1  0  0  0  0
 24 22  2  0  0  0  0
M  END
>  <minimizedAffinity>
-4.18812561

$$$$

 OpenBabel03252500553D

 24 24  0  0  0  0  0  0  0  0999 V2000
   37.0060   26.6580   41.9790 C   0  0  0  0  0  0  0  0  0  0  0  0
   36.9140   27.3250   40.7780 C   0  0  0  0  0  0  0  0  0  0  0  0
   36.7650   26.5510   39.6110 C   0  0  0  0  0  0  0  0  0  0  0  0
   36.7240   25.2110   39.7450 N   0  0  0  0  0  0  0  0  0  0  0  0
   36.8160   24.5890   40.9270 C   0  0  0  0  0  0  0  0  0  0  0  0
   36.9560   25.3190   42.0320 N   0  0  0  0  0  0  0  0  0  0  0  0
   36.6950   27.0970   38.6790 H   0  0  0  0  0  0  0  0  0  0  0  0
   36.7770   23.5080   40.9780 H   0  0  0  0  0  0  0  0  0  0  0  0
   37.1610   27.3990   43.2320 C   0  0  0  0  0  0  0  0  0  0  0  0
   36.8020   28.4430   43.1330 H   0  0  0  0  0  0  0  0  0  0  0  0
   36.5280   26.9350   44.0300 H   0  0  0  0  0  0  0  0  0  0  0  0
   38.5920   27.3310   43.6730 C   0  0  0  0  0  0  0  0  0  0  0  0
   39.1830   26.6610   43.0050 H   0  0  0  0  0  0  0  0  0  0  0  0
   38.6720   27.0240   44.7360 H   0  0  0  0  0  0  0  0  0  0  0  0
   39.0370   28.3400   43.5700 H   0  0  0  0  0  0  0  0  0  0  0  0
   36.9740   28.7090   40.8110 O   0  0  0  0  0  0  0  0  0  0  0  0
   34.4690   29.1000   40.1070 O   0  0  0  0  0  0  0  0  0  0  0  0
   35.8250   29.7910   40.2410 P   0  0  1  0  0  0  0  0  0  0  0  0
   35.6630   31.0350   41.3970 O   0  0  0  0  0  0  0  0  0  0  0  0
   36.4560   31.6370   41.3330 H   0  0  0  0  0  0  0  0  0  0  0  0
   36.2570   30.5260   38.7830 O   0  0  0  0  0  0  0  0  0  0  0  0
   36.8010   29.9080   37.6820 C   0  0  0  0  0  0  0  0  0  0  0  0
   37.8480   30.1920   37.5260 H   0  0  0  0  0  0  0  0  0  0  0  0
   36.0060   29.1340   37.0550 O   0  0  0  0  0  0  0  0  0  0  0  0
  1  6  1  0  0  0  0
  1  9  1  0  0  0  0
  2 16  1  0  0  0  0
  2  1  2  0  0  0  0
  3  4  2  0  0  0  0
  3  2  1  0  0  0  0
  4  5  1  0  0  0  0
  5  8  1  0  0  0  0
  5  6  2  0  0  0  0
  7  3  1  0  0  0  0
  9 12  1  0  0  0  0
  9 11  1  0  0  0  0
 10  9  1  0  0  0  0
 12 14  1  0  0  0  0
 13 12  1  0  0  0  0
 15 12  1  0  0  0  0
 18 17  2  6  0  0  0
 18 16  1  0  0  0  0
 18 19  1  0  0  0  0
 20 19  1  0  0  0  0
 21 18  1  0  0  0  0
 22 21  1  0  0  0  0
 23 22  1  0  0  0  0
 24 22  2  0  0  0  0
M  END
>  <minimizedAffinity>
-4.09740114

$$$$

 OpenBabel03252500553D

 24 24  0  0  0  0  0  0  0  0999 V2000
   38.4280   31.4910   38.4840 C   0  0  0  0  0  0  0  0  0  0  0  0
   38.3710   30.2010   38.9650 C   0  0  0  0  0  0  0  0  0  0  0  0
   39.5190   29.3990   38.8180 C   0  0  0  0  0  0  0  0  0  0  0  0
   40.5950   29.9430   38.2160 N   0  0  0  0  0  0  0  0  0  0  0  0
   40.6210   31.2010   37.7570 C   0  0  0  0  0  0  0  0  0  0  0  0
   39.5370   31.9620   37.8960 N   0  0  0  0  0  0  0  0  0  0  0  0
   39.4520   28.3900   39.2030 H   0  0  0  0  0  0  0  0  0  0  0  0
   41.5130   31.5880   37.2810 H   0  0  0  0  0  0  0  0  0  0  0  0
   37.2710   32.3810   38.6040 C   0  0  0  0  0  0  0  0  0  0  0  0
   37.0290   32.8620   37.6350 H   0  0  0  0  0  0  0  0  0  0  0  0
   36.3630   31.7900   38.8850 H   0  0  0  0  0  0  0  0  0  0  0  0
   37.5290   33.3840   39.6860 C   0  0  0  0  0  0  0  0  0  0  0  0
   38.4900   33.1670   40.2110 H   0  0  0  0  0  0  0  0  0  0  0  0
   36.6780   33.4390   40.3960 H   0  0  0  0  0  0  0  0  0  0  0  0
   37.6520   34.3800   39.2170 H   0  0  0  0  0  0  0  0  0  0  0  0
   37.1880   29.7950   39.5590 O   0  0  0  0  0  0  0  0  0  0  0  0
   38.0500   30.1850   42.0140 O   0  0  0  0  0  0  0  0  0  0  0  0
   36.8250   29.7770   41.1970 P   0  0  1  0  0  0  0  0  0  0  0  0
   35.6060   30.9370   41.4730 O   0  0  0  0  0  0  0  0  0  0  0  0
   34.7380   30.5750   41.1410 H   0  0  0  0  0  0  0  0  0  0  0  0
   36.2260   28.2930   41.7390 O   0  0  0  0  0  0  0  0  0  0  0  0
   36.6010   27.6230   42.8790 C   0  0  0  0  0  0  0  0  0  0  0  0
   36.3300   28.1730   43.7870 H   0  0  0  0  0  0  0  0  0  0  0  0
   37.1850   26.5080   42.6760 O   0  0  0  0  0  0  0  0  0  0  0  0
  1  9  1  0  0  0  0
  1  2  1  0  0  0  0
  2 16  1  0  0  0  0
  3  2  2  0  0  0  0
  3  7  1  0  0  0  0
  4  3  1  0  0  0  0
  5  6  1  0  0  0  0
  5  4  2  0  0  0  0
  6  1  2  0  0  0  0
  8  5  1  0  0  0  0
  9 11  1  0  0  0  0
  9 12  1  0  0  0  0
 10  9  1  0  0  0  0
 12 13  1  0  0  0  0
 12 14  1  0  0  0  0
 15 12  1  0  0  0  0
 16 18  1  0  0  0  0
 18 19  1  0  0  0  0
 18 21  1  0  0  0  0
 18 17  2  1  0  0  0
 20 19  1  0  0  0  0
 21 22  1  0  0  0  0
 22 23  1  0  0  0  0
 24 22  2  0  0  0  0
M  END
>  <minimizedAffinity>
-3.98739028

$$$$

 OpenBabel03252500553D

 24 24  0  0  0  0  0  0  0  0999 V2000
   36.9250   28.3480   41.1150 C   0  0  0  0  0  0  0  0  0  0  0  0
   37.6620   29.5030   40.9850 C   0  0  0  0  0  0  0  0  0  0  0  0
   38.3440   29.9740   42.1240 C   0  0  0  0  0  0  0  0  0  0  0  0
   38.2290   29.2650   43.2650 N   0  0  0  0  0  0  0  0  0  0  0  0
   37.5030   28.1440   43.3620 C   0  0  0  0  0  0  0  0  0  0  0  0
   36.8580   27.6960   42.2860 N   0  0  0  0  0  0  0  0  0  0  0  0
   38.9170   30.8830   41.9980 H   0  0  0  0  0  0  0  0  0  0  0  0
   37.4450   27.6130   44.3040 H   0  0  0  0  0  0  0  0  0  0  0  0
   36.1910   27.8000   39.9720 C   0  0  0  0  0  0  0  0  0  0  0  0
   35.0960   27.9130   40.1020 H   0  0  0  0  0  0  0  0  0  0  0  0
   36.4470   28.3740   39.0450 H   0  0  0  0  0  0  0  0  0  0  0  0
   36.5930   26.3720   39.7630 C   0  0  0  0  0  0  0  0  0  0  0  0
   37.4180   26.0850   40.4570 H   0  0  0  0  0  0  0  0  0  0  0  0
   36.8630   26.1800   38.7050 H   0  0  0  0  0  0  0  0  0  0  0  0
   35.7320   25.7260   40.0230 H   0  0  0  0  0  0  0  0  0  0  0  0
   37.6780   30.1130   39.7410 O   0  0  0  0  0  0  0  0  0  0  0  0
   37.3760   32.0360   37.9720 O   0  0  0  0  0  0  0  0  0  0  0  0
   37.7930   31.7540   39.4140 P   0  0  1  0  0  0  0  0  0  0  0  0
   36.7000   32.5680   40.4400 O   0  0  0  0  0  0  0  0  0  0  0  0
   37.0810   32.5880   41.3620 H   0  0  0  0  0  0  0  0  0  0  0  0
   39.3260   32.3960   39.7180 O   0  0  0  0  0  0  0  0  0  0  0  0
   39.6180   33.6910   40.0760 C   0  0  0  0  0  0  0  0  0  0  0  0
   40.4360   34.1080   39.4790 H   0  0  0  0  0  0  0  0  0  0  0  0
   38.8980   34.1610   41.0180 O   0  0  0  0  0  0  0  0  0  0  0  0
  1  6  1  0  0  0  0
  2  1  2  0  0  0  0
  2  3  1  0  0  0  0
  3  4  2  0  0  0  0
  4  5  1  0  0  0  0
  5  8  1  0  0  0  0
  6  5  2  0  0  0  0
  7  3  1  0  0  0  0
  9 10  1  0  0  0  0
  9  1  1  0  0  0  0
 11  9  1  0  0  0  0
 12  9  1  0  0  0  0
 12 15  1  0  0  0  0
 12 13  1  0  0  0  0
 14 12  1  0  0  0  0
 16  2  1  0  0  0  0
 18 17  2  6  0  0  0
 18 21  1  0  0  0  0
 18 16  1  0  0  0  0
 18 19  1  0  0  0  0
 19 20  1  0  0  0  0
 21 22  1  0  0  0  0
 22 24  2  0  0  0  0
 23 22  1  0  0  0  0
M  END
>  <minimizedAffinity>
-3.88322449

$$$$

 OpenBabel03252500553D

 24 24  0  0  0  0  0  0  0  0999 V2000
   38.0280   27.7970   41.9340 C   0  0  0  0  0  0  0  0  0  0  0  0
   38.4590   28.6550   40.9460 C   0  0  0  0  0  0  0  0  0  0  0  0
   39.8480   28.7700   40.7420 C   0  0  0  0  0  0  0  0  0  0  0  0
   40.6630   28.0360   41.5260 N   0  0  0  0  0  0  0  0  0  0  0  0
   40.2150   27.2100   42.4800 C   0  0  0  0  0  0  0  0  0  0  0  0
   38.9020   27.0990   42.6750 N   0  0  0  0  0  0  0  0  0  0  0  0
   40.1630   29.4490   39.9610 H   0  0  0  0  0  0  0  0  0  0  0  0
   40.9140   26.6440   43.0820 H   0  0  0  0  0  0  0  0  0  0  0  0
   36.5980   27.6280   42.2010 C   0  0  0  0  0  0  0  0  0  0  0  0
   36.0120   28.4950   41.8370 H   0  0  0  0  0  0  0  0  0  0  0  0
   36.2080   26.7410   41.6390 H   0  0  0  0  0  0  0  0  0  0  0  0
   36.3940   27.3790   43.6640 C   0  0  0  0  0  0  0  0  0  0  0  0
   37.3720   27.2870   44.1930 H   0  0  0  0  0  0  0  0  0  0  0  0
   35.7500   26.4930   43.8370 H   0  0  0  0  0  0  0  0  0  0  0  0
   35.8890   28.2630   44.1010 H   0  0  0  0  0  0  0  0  0  0  0  0
   37.4910   29.3370   40.2280 O   0  0  0  0  0  0  0  0  0  0  0  0
   36.7150   31.5260   38.9930 O   0  0  0  0  0  0  0  0  0  0  0  0
   37.0770   30.9570   40.3640 P   0  0  1  0  0  0  0  0  0  0  0  0
   35.6900   31.0590   41.3510 O   0  0  0  0  0  0  0  0  0  0  0  0
   35.9620   30.9110   42.3000 H   0  0  0  0  0  0  0  0  0  0  0  0
   38.2730   31.9000   41.0940 O   0  0  0  0  0  0  0  0  0  0  0  0
   39.3430   32.4960   40.4700 C   0  0  0  0  0  0  0  0  0  0  0  0
   39.0560   32.9740   39.5270 H   0  0  0  0  0  0  0  0  0  0  0  0
   40.4520   32.3860   41.0890 O   0  0  0  0  0  0  0  0  0  0  0  0
  1  9  1  0  0  0  0
  1  6  1  0  0  0  0
  2  1  2  0  0  0  0
  3  2  1  0  0  0  0
  3  4  2  0  0  0  0
  4  5  1  0  0  0  0
  5  6  2  0  0  0  0
  5  8  1  0  0  0  0
  7  3  1  0  0  0  0
  9 12  1  0  0  0  0
 10  9  1  0  0  0  0
 11  9  1  0  0  0  0
 12 14  1  0  0  0  0
 12 15  1  0  0  0  0
 12 13  1  0  0  0  0
 16 18  1  0  0  0  0
 16  2  1  0  0  0  0
 18 17  2  6  0  0  0
 18 21  1  0  0  0  0
 18 19  1  0  0  0  0
 19 20  1  0  0  0  0
 22 24  2  0  0  0  0
 22 21  1  0  0  0  0
 23 22  1  0  0  0  0
M  END
>  <minimizedAffinity>
-3.87870193

$$$$

 OpenBabel03252500553D

 24 24  0  0  0  0  0  0  0  0999 V2000
   37.0090   30.4880   39.9020 C   0  0  0  0  0  0  0  0  0  0  0  0
   38.0260   30.1920   40.7820 C   0  0  0  0  0  0  0  0  0  0  0  0
   38.8090   31.2610   41.2580 C   0  0  0  0  0  0  0  0  0  0  0  0
   38.5130   32.5020   40.8220 N   0  0  0  0  0  0  0  0  0  0  0  0
   37.5170   32.7600   39.9650 C   0  0  0  0  0  0  0  0  0  0  0  0
   36.7750   31.7510   39.5140 N   0  0  0  0  0  0  0  0  0  0  0  0
   39.6020   31.0050   41.9480 H   0  0  0  0  0  0  0  0  0  0  0  0
   37.3230   33.7770   39.6480 H   0  0  0  0  0  0  0  0  0  0  0  0
   36.1550   29.4260   39.3660 C   0  0  0  0  0  0  0  0  0  0  0  0
   35.9050   29.6050   38.3010 H   0  0  0  0  0  0  0  0  0  0  0  0
   36.7020   28.4500   39.3890 H   0  0  0  0  0  0  0  0  0  0  0  0
   34.9320   29.2950   40.2210 C   0  0  0  0  0  0  0  0  0  0  0  0
   34.9960   29.9640   41.1130 H   0  0  0  0  0  0  0  0  0  0  0  0
   34.7540   28.2400   40.5120 H   0  0  0  0  0  0  0  0  0  0  0  0
   34.0590   29.6450   39.6370 H   0  0  0  0  0  0  0  0  0  0  0  0
   38.2000   28.8630   41.1300 O   0  0  0  0  0  0  0  0  0  0  0  0
   39.2160   27.9290   43.3700 O   0  0  0  0  0  0  0  0  0  0  0  0
   37.9030   28.1560   42.6230 P   0  0  1  0  0  0  0  0  0  0  0  0
   36.9650   29.2470   43.5380 O   0  0  0  0  0  0  0  0  0  0  0  0
   36.0280   29.2300   43.1940 H   0  0  0  0  0  0  0  0  0  0  0  0
   37.0270   26.7140   42.5240 O   0  0  0  0  0  0  0  0  0  0  0  0
   37.3360   25.6180   41.7550 C   0  0  0  0  0  0  0  0  0  0  0  0
   37.0070   25.7380   40.7170 H   0  0  0  0  0  0  0  0  0  0  0  0
   37.9350   24.6800   42.3770 O   0  0  0  0  0  0  0  0  0  0  0  0
  1  2  1  0  0  0  0
  2 16  1  0  0  0  0
  2  3  2  0  0  0  0
  3  7  1  0  0  0  0
  4  3  1  0  0  0  0
  5  4  2  0  0  0  0
  6  1  2  0  0  0  0
  6  5  1  0  0  0  0
  8  5  1  0  0  0  0
  9 11  1  0  0  0  0
  9  1  1  0  0  0  0
  9 12  1  0  0  0  0
 10  9  1  0  0  0  0
 12 14  1  0  0  0  0
 12 13  1  0  0  0  0
 15 12  1  0  0  0  0
 16 18  1  0  0  0  0
 18 17  2  1  0  0  0
 18 19  1  0  0  0  0
 20 19  1  0  0  0  0
 21 18  1  0  0  0  0
 22 24  2  0  0  0  0
 22 21  1  0  0  0  0
 23 22  1  0  0  0  0
M  END
>  <minimizedAffinity>
-3.87320209

$$$$

 OpenBabel03252500553D

 24 24  0  0  0  0  0  0  0  0999 V2000
   38.1220   25.0240   42.1410 C   0  0  0  0  0  0  0  0  0  0  0  0
   37.9690   26.3250   42.5660 C   0  0  0  0  0  0  0  0  0  0  0  0
   38.9840   26.8710   43.3740 C   0  0  0  0  0  0  0  0  0  0  0  0
   40.0370   26.0870   43.6800 N   0  0  0  0  0  0  0  0  0  0  0  0
   40.1590   24.8240   43.2520 C   0  0  0  0  0  0  0  0  0  0  0  0
   39.2000   24.3050   42.4870 N   0  0  0  0  0  0  0  0  0  0  0  0
   38.8420   27.8950   43.6960 H   0  0  0  0  0  0  0  0  0  0  0  0
   41.0270   24.2380   43.5270 H   0  0  0  0  0  0  0  0  0  0  0  0
   37.1050   24.3910   41.2980 C   0  0  0  0  0  0  0  0  0  0  0  0
   36.1710   24.2000   41.8640 H   0  0  0  0  0  0  0  0  0  0  0  0
   36.8190   25.0810   40.4640 H   0  0  0  0  0  0  0  0  0  0  0  0
   37.6700   23.1400   40.6960 C   0  0  0  0  0  0  0  0  0  0  0  0
   38.7510   23.0290   40.9490 H   0  0  0  0  0  0  0  0  0  0  0  0
   37.5000   23.1070   39.6010 H   0  0  0  0  0  0  0  0  0  0  0  0
   37.1560   22.2710   41.1520 H   0  0  0  0  0  0  0  0  0  0  0  0
   36.8260   26.9960   42.1630 O   0  0  0  0  0  0  0  0  0  0  0  0
   35.3610   28.7980   40.9280 O   0  0  0  0  0  0  0  0  0  0  0  0
   36.7190   28.5690   41.5900 P   0  0  1  0  0  0  0  0  0  0  0  0
   36.8280   29.6190   42.9290 O   0  0  0  0  0  0  0  0  0  0  0  0
   37.7780   29.6530   43.2330 H   0  0  0  0  0  0  0  0  0  0  0  0
   37.9670   28.9870   40.5310 O   0  0  0  0  0  0  0  0  0  0  0  0
   38.9250   29.9520   40.7320 C   0  0  0  0  0  0  0  0  0  0  0  0
   39.9380   29.5640   40.5790 H   0  0  0  0  0  0  0  0  0  0  0  0
   38.4700   31.0980   41.0540 O   0  0  0  0  0  0  0  0  0  0  0  0
  1  6  2  0  0  0  0
  1  2  1  0  0  0  0
  2  3  2  0  0  0  0
  3  4  1  0  0  0  0
  3  7  1  0  0  0  0
  5  8  1  0  0  0  0
  5  4  2  0  0  0  0
  6  5  1  0  0  0  0
  9 10  1  0  0  0  0
  9  1  1  0  0  0  0
 11  9  1  0  0  0  0
 12 13  1  0  0  0  0
 12 15  1  0  0  0  0
 12  9  1  0  0  0  0
 14 12  1  0  0  0  0
 16  2  1  0  0  0  0
 18 17  2  6  0  0  0
 18 16  1  0  0  0  0
 18 19  1  0  0  0  0
 19 20  1  0  0  0  0
 21 22  1  0  0  0  0
 21 18  1  0  0  0  0
 22 24  2  0  0  0  0
 23 22  1  0  0  0  0
M  END
>  <minimizedAffinity>
-3.86388874

$$$$
