
 OpenBabel03252506113D

 30 31  0  0  0  0  0  0  0  0999 V2000
   45.1530   33.4040   41.2080 F   0  0  0  0  0  0  0  0  0  0  0  0
   46.3210   34.0100   41.0680 C   0  0  0  0  0  0  0  0  0  0  0  0
   46.8100   34.7750   42.1110 C   0  0  0  0  0  0  0  0  0  0  0  0
   48.0310   35.4510   42.0550 C   0  0  0  0  0  0  0  0  0  0  0  0
   48.8050   35.3570   40.8950 C   0  0  0  0  0  0  0  0  0  0  0  0
   48.2830   34.5850   39.8770 C   0  0  0  0  0  0  0  0  0  0  0  0
   47.0960   33.9230   39.9170 C   0  0  0  0  0  0  0  0  0  0  0  0
   48.3500   36.0380   42.9240 H   0  0  0  0  0  0  0  0  0  0  0  0
   49.7280   35.8960   40.9100 H   0  0  0  0  0  0  0  0  0  0  0  0
   48.9850   34.5950   39.0500 H   0  0  0  0  0  0  0  0  0  0  0  0
   45.4480   34.0170   45.4330 C   0  0  0  0  0  0  0  0  0  0  0  0
   44.6070   35.1430   45.6640 C   0  0  0  0  0  0  0  0  0  0  0  0
   44.5200   36.1530   44.6670 C   0  0  0  0  0  0  0  0  0  0  0  0
   45.2650   35.9680   43.5350 N   0  0  0  0  0  0  0  0  0  0  0  0
   46.0420   34.9010   43.3550 C   0  0  0  0  0  0  0  0  0  0  0  0
   46.1300   33.9400   44.2910 N   0  0  0  0  0  0  0  0  0  0  0  0
   44.0430   35.2310   46.5800 H   0  0  0  0  0  0  0  0  0  0  0  0
   43.8960   37.0100   44.8150 H   0  0  0  0  0  0  0  0  0  0  0  0
   45.5190   33.0290   46.4340 N   0  0  0  0  0  0  0  0  0  0  0  0
   46.0440   33.1720   47.3310 H   0  0  0  0  0  0  0  0  0  0  0  0
   45.0380   32.1340   46.2780 H   0  0  0  0  0  0  0  0  0  0  0  0
   46.6770   33.1840   38.8460 O   0  0  0  0  0  0  0  0  0  0  0  0
   48.0260   34.6070   37.0560 O   0  0  0  0  0  0  0  0  0  0  0  0
   47.1600   33.3970   37.2410 P   0  0  2  0  0  0  0  0  0  0  0  0
   45.7420   33.5190   36.2850 O   0  0  0  0  0  0  0  0  0  0  0  0
   45.0610   32.9380   36.6820 H   0  0  0  0  0  0  0  0  0  0  0  0
   47.9720   32.0470   36.6180 O   0  0  0  0  0  0  0  0  0  0  0  0
   49.0520   32.1240   35.7570 C   0  0  0  0  0  0  0  0  0  0  0  0
   50.0600   31.8580   36.0820 H   0  0  0  0  0  0  0  0  0  0  0  0
   48.6890   32.5260   34.6230 O   0  0  0  0  0  0  0  0  0  0  0  0
  2  1  1  0  0  0  0
  2  3  1  0  0  0  0
  3 15  1  0  0  0  0
  4  3  2  0  0  0  0
  4  8  1  0  0  0  0
  5  9  1  0  0  0  0
  5  4  1  0  0  0  0
  6  7  1  0  0  0  0
  6  5  2  0  0  0  0
  7  2  2  0  0  0  0
 10  6  1  0  0  0  0
 11 12  1  0  0  0  0
 11 19  1  0  0  0  0
 12 17  1  0  0  0  0
 13 18  1  0  0  0  0
 13 12  2  0  0  0  0
 14 13  1  0  0  0  0
 15 14  2  0  0  0  0
 15 16  1  0  0  0  0
 16 11  2  0  0  0  0
 19 20  1  0  0  0  0
 21 19  1  0  0  0  0
 22  7  1  0  0  0  0
 24 23  2  6  0  0  0
 24 22  1  0  0  0  0
 25 26  1  0  0  0  0
 25 24  1  0  0  0  0
 27 24  1  0  0  0  0
 28 29  1  0  0  0  0
 28 27  1  0  0  0  0
 30 28  2  0  0  0  0
M  END
>  <minimizedAffinity>
-5.87945318

>  <minimizedRMSD>
0.497757703

$$$$
