
 OpenBabel03242520473D

 13 13  0  0  0  0  0  0  0  0999 V2000
   44.5270   35.9420   44.5160 C   0  0  0  0  0  0  0  0  0  0  0  0
   45.1890   36.0230   43.2800 C   0  0  0  0  0  0  0  0  0  0  0  0
   46.1480   35.0500   42.9680 C   0  0  0  0  0  0  0  0  0  0  0  0
   46.3910   34.0750   43.8760 N   0  0  0  0  0  0  0  0  0  0  0  0
   45.7370   34.0230   45.0560 C   0  0  0  0  0  0  0  0  0  0  0  0
   44.8150   34.9550   45.3620 N   0  0  0  0  0  0  0  0  0  0  0  0
   43.8230   36.7590   44.6060 H   0  0  0  0  0  0  0  0  0  0  0  0
   45.0870   36.7400   42.4860 H   0  0  0  0  0  0  0  0  0  0  0  0
   45.9100   33.2540   45.8020 H   0  0  0  0  0  0  0  0  0  0  0  0
   46.8740   35.0070   41.7960 O   0  0  0  0  0  0  0  0  0  0  0  0
   48.2400   35.2350   41.8570 C   0  0  0  0  0  0  0  0  0  0  0  0
   48.9110   34.7600   42.5300 H   0  0  0  0  0  0  0  0  0  0  0  0
   49.0250   35.9880   41.2070 O   0  0  0  0  0  0  0  0  0  0  0  0
  1  7  1  0  0  0  0
  1  6  1  0  0  0  0
  2  1  2  0  0  0  0
  3  2  1  0  0  0  0
  3  4  2  0  0  0  0
  4  5  1  0  0  0  0
  5  6  2  0  0  0  0
  5  9  1  0  0  0  0
  8  2  1  0  0  0  0
 10 11  1  0  0  0  0
 10  3  1  0  0  0  0
 11 12  1  0  0  0  0
 13 11  2  0  0  0  0
M  END
>  <minimizedAffinity>
-3.4291172

>  <minimizedRMSD>
0.475556403

$$$$
