
 OpenBabel03252508493D

 20 21  0  0  0  0  0  0  0  0999 V2000
   36.9660   28.1950   40.9360 C   0  0  0  0  0  0  0  0  0  0  0  0
   37.3690   29.2570   41.7600 C   0  0  0  0  0  0  0  0  0  0  0  0
   37.6940   28.9490   43.0830 C   0  0  0  0  0  0  0  0  0  0  0  0
   37.6010   27.6530   43.4890 N   0  0  0  0  0  0  0  0  0  0  0  0
   37.2120   26.6700   42.6700 C   0  0  0  0  0  0  0  0  0  0  0  0
   36.8880   26.9300   41.3740 N   0  0  0  0  0  0  0  0  0  0  0  0
   38.0070   29.7700   43.7250 H   0  0  0  0  0  0  0  0  0  0  0  0
   37.1770   25.6860   43.1020 H   0  0  0  0  0  0  0  0  0  0  0  0
   37.4330   30.6070   41.2210 C   0  0  0  0  0  0  0  0  0  0  0  0
   38.6260   31.2550   40.9500 C   0  0  0  0  0  0  0  0  0  0  0  0
   38.2240   32.4820   40.4640 C   0  0  0  0  0  0  0  0  0  0  0  0
   36.8760   32.5760   40.4400 N   0  0  0  0  0  0  0  0  0  0  0  0
   36.4310   31.4320   40.9010 N   0  0  0  0  0  0  0  0  0  0  0  0
   39.6260   30.8680   41.0950 H   0  0  0  0  0  0  0  0  0  0  0  0
   38.9690   33.2330   40.1580 H   0  0  0  0  0  0  0  0  0  0  0  0
   36.4160   33.4310   40.1030 H   0  0  0  0  0  0  0  0  0  0  0  0
   36.6420   28.4920   39.6240 O   0  0  0  0  0  0  0  0  0  0  0  0
   35.3550   28.4960   39.1240 C   0  0  0  0  0  0  0  0  0  0  0  0
   35.3400   27.8650   38.2200 H   0  0  0  0  0  0  0  0  0  0  0  0
   34.3300   29.0830   39.5580 O   0  0  0  0  0  0  0  0  0  0  0  0
  1  6  2  0  0  0  0
  1  2  1  0  0  0  0
  2  3  2  0  0  0  0
  3  4  1  0  0  0  0
  3  7  1  0  0  0  0
  5  8  1  0  0  0  0
  5  4  2  0  0  0  0
  6  5  1  0  0  0  0
  9  2  1  0  0  0  0
 10 14  1  0  0  0  0
 10  9  1  0  0  0  0
 11 10  2  0  0  0  0
 12 11  1  0  0  0  0
 12 13  1  0  0  0  0
 13  9  2  0  0  0  0
 15 11  1  0  0  0  0
 16 12  1  0  0  0  0
 17  1  1  0  0  0  0
 18 20  2  0  0  0  0
 18 17  1  0  0  0  0
 19 18  1  0  0  0  0
M  END
>  <minimizedAffinity>
-3.9954288

$$$$

 OpenBabel03252508493D

 20 21  0  0  0  0  0  0  0  0999 V2000
   38.9000   31.6660   40.7910 C   0  0  0  0  0  0  0  0  0  0  0  0
   37.6370   31.9500   40.2470 C   0  0  0  0  0  0  0  0  0  0  0  0
   37.4160   33.2530   39.7970 C   0  0  0  0  0  0  0  0  0  0  0  0
   38.4250   34.1600   39.9110 N   0  0  0  0  0  0  0  0  0  0  0  0
   39.6150   33.8470   40.4360 C   0  0  0  0  0  0  0  0  0  0  0  0
   39.8690   32.5880   40.8860 N   0  0  0  0  0  0  0  0  0  0  0  0
   36.4380   33.4770   39.3760 H   0  0  0  0  0  0  0  0  0  0  0  0
   40.3350   34.6440   40.4740 H   0  0  0  0  0  0  0  0  0  0  0  0
   36.6300   30.9030   40.1750 C   0  0  0  0  0  0  0  0  0  0  0  0
   36.3810   30.1750   39.0230 C   0  0  0  0  0  0  0  0  0  0  0  0
   35.3720   29.3120   39.3980 C   0  0  0  0  0  0  0  0  0  0  0  0
   35.0290   29.5000   40.6910 N   0  0  0  0  0  0  0  0  0  0  0  0
   35.8040   30.4630   41.1290 N   0  0  0  0  0  0  0  0  0  0  0  0
   36.8750   30.2790   38.0660 H   0  0  0  0  0  0  0  0  0  0  0  0
   34.9550   28.5920   38.6760 H   0  0  0  0  0  0  0  0  0  0  0  0
   34.2890   28.9330   41.1260 H   0  0  0  0  0  0  0  0  0  0  0  0
   39.1270   30.3770   41.2400 O   0  0  0  0  0  0  0  0  0  0  0  0
   39.2090   30.0220   42.5720 C   0  0  0  0  0  0  0  0  0  0  0  0
   40.2030   30.3210   42.9420 H   0  0  0  0  0  0  0  0  0  0  0  0
   38.3540   29.4600   43.3040 O   0  0  0  0  0  0  0  0  0  0  0  0
  1  6  1  0  0  0  0
  1 17  1  0  0  0  0
  2  1  2  0  0  0  0
  3  4  2  0  0  0  0
  3  2  1  0  0  0  0
  4  5  1  0  0  0  0
  5  8  1  0  0  0  0
  5  6  2  0  0  0  0
  7  3  1  0  0  0  0
  9  2  1  0  0  0  0
  9 13  2  0  0  0  0
 10 11  2  0  0  0  0
 10  9  1  0  0  0  0
 11 12  1  0  0  0  0
 12 16  1  0  0  0  0
 12 13  1  0  0  0  0
 14 10  1  0  0  0  0
 15 11  1  0  0  0  0
 17 18  1  0  0  0  0
 18 19  1  0  0  0  0
 18 20  2  0  0  0  0
M  END
>  <minimizedAffinity>
-3.94066453

$$$$

 OpenBabel03252508493D

 20 21  0  0  0  0  0  0  0  0999 V2000
   37.0840   26.5960   41.7580 C   0  0  0  0  0  0  0  0  0  0  0  0
   36.7350   27.3740   40.6430 C   0  0  0  0  0  0  0  0  0  0  0  0
   36.5600   26.7040   39.4290 C   0  0  0  0  0  0  0  0  0  0  0  0
   36.7360   25.3540   39.4010 N   0  0  0  0  0  0  0  0  0  0  0  0
   37.0700   24.6510   40.4890 C   0  0  0  0  0  0  0  0  0  0  0  0
   37.2500   25.2670   41.6880 N   0  0  0  0  0  0  0  0  0  0  0  0
   36.2890   27.3040   38.5630 H   0  0  0  0  0  0  0  0  0  0  0  0
   37.1830   23.5920   40.3450 H   0  0  0  0  0  0  0  0  0  0  0  0
   36.5720   28.8120   40.7870 C   0  0  0  0  0  0  0  0  0  0  0  0
   37.6360   29.6980   40.7570 C   0  0  0  0  0  0  0  0  0  0  0  0
   37.0350   30.9290   40.9270 C   0  0  0  0  0  0  0  0  0  0  0  0
   35.6960   30.8020   41.0530 N   0  0  0  0  0  0  0  0  0  0  0  0
   35.4510   29.5170   40.9640 N   0  0  0  0  0  0  0  0  0  0  0  0
   38.6820   29.4560   40.6280 H   0  0  0  0  0  0  0  0  0  0  0  0
   37.6420   31.8480   40.9470 H   0  0  0  0  0  0  0  0  0  0  0  0
   35.1010   31.6290   41.1880 H   0  0  0  0  0  0  0  0  0  0  0  0
   37.2600   27.2520   42.9630 O   0  0  0  0  0  0  0  0  0  0  0  0
   38.4710   27.3580   43.6200 C   0  0  0  0  0  0  0  0  0  0  0  0
   38.4030   26.7750   44.5530 H   0  0  0  0  0  0  0  0  0  0  0  0
   39.5100   27.9830   43.2850 O   0  0  0  0  0  0  0  0  0  0  0  0
  1 17  1  0  0  0  0
  2  9  1  0  0  0  0
  2  1  2  0  0  0  0
  3  2  1  0  0  0  0
  4  3  2  0  0  0  0
  4  5  1  0  0  0  0
  5  6  2  0  0  0  0
  6  1  1  0  0  0  0
  7  3  1  0  0  0  0
  8  5  1  0  0  0  0
  9 13  2  0  0  0  0
 10  9  1  0  0  0  0
 10 11  2  0  0  0  0
 11 15  1  0  0  0  0
 11 12  1  0  0  0  0
 12 16  1  0  0  0  0
 13 12  1  0  0  0  0
 14 10  1  0  0  0  0
 17 18  1  0  0  0  0
 18 19  1  0  0  0  0
 20 18  2  0  0  0  0
M  END
>  <minimizedAffinity>
-3.86989403

$$$$

 OpenBabel03252508493D

 20 21  0  0  0  0  0  0  0  0999 V2000
   36.5080   30.1300   40.3420 C   0  0  0  0  0  0  0  0  0  0  0  0
   37.1340   31.0500   39.4860 C   0  0  0  0  0  0  0  0  0  0  0  0
   36.9320   30.8820   38.1140 C   0  0  0  0  0  0  0  0  0  0  0  0
   36.1500   29.8500   37.6940 N   0  0  0  0  0  0  0  0  0  0  0  0
   35.5710   28.9960   38.5450 C   0  0  0  0  0  0  0  0  0  0  0  0
   35.7450   29.1250   39.8880 N   0  0  0  0  0  0  0  0  0  0  0  0
   37.4160   31.5930   37.4480 H   0  0  0  0  0  0  0  0  0  0  0  0
   34.9760   28.2200   38.0980 H   0  0  0  0  0  0  0  0  0  0  0  0
   37.9510   32.1170   40.0440 C   0  0  0  0  0  0  0  0  0  0  0  0
   37.6510   33.4590   39.8810 C   0  0  0  0  0  0  0  0  0  0  0  0
   38.6670   34.1010   40.5590 C   0  0  0  0  0  0  0  0  0  0  0  0
   39.5280   33.2110   41.0990 N   0  0  0  0  0  0  0  0  0  0  0  0
   39.0690   32.0270   40.7700 N   0  0  0  0  0  0  0  0  0  0  0  0
   36.8110   33.8790   39.3440 H   0  0  0  0  0  0  0  0  0  0  0  0
   38.6990   35.2010   40.6070 H   0  0  0  0  0  0  0  0  0  0  0  0
   40.3440   33.5300   41.6370 H   0  0  0  0  0  0  0  0  0  0  0  0
   36.7050   30.2890   41.7030 O   0  0  0  0  0  0  0  0  0  0  0  0
   37.3600   29.3750   42.5040 C   0  0  0  0  0  0  0  0  0  0  0  0
   36.8070   28.4220   42.4540 H   0  0  0  0  0  0  0  0  0  0  0  0
   38.4000   29.5190   43.1970 O   0  0  0  0  0  0  0  0  0  0  0  0
  1 17  1  0  0  0  0
  2  9  1  0  0  0  0
  2  1  2  0  0  0  0
  3  2  1  0  0  0  0
  4  3  2  0  0  0  0
  4  5  1  0  0  0  0
  5  6  2  0  0  0  0
  6  1  1  0  0  0  0
  7  3  1  0  0  0  0
  8  5  1  0  0  0  0
  9 13  2  0  0  0  0
 10  9  1  0  0  0  0
 10 11  2  0  0  0  0
 11 15  1  0  0  0  0
 11 12  1  0  0  0  0
 12 16  1  0  0  0  0
 13 12  1  0  0  0  0
 14 10  1  0  0  0  0
 17 18  1  0  0  0  0
 18 20  2  0  0  0  0
 19 18  1  0  0  0  0
M  END
>  <minimizedAffinity>
-3.81325173

$$$$

 OpenBabel03252508493D

 20 21  0  0  0  0  0  0  0  0999 V2000
   36.4550   27.8220   41.6140 C   0  0  0  0  0  0  0  0  0  0  0  0
   36.9010   26.7440   40.8340 C   0  0  0  0  0  0  0  0  0  0  0  0
   36.5760   26.7640   39.4760 C   0  0  0  0  0  0  0  0  0  0  0  0
   35.8540   27.8140   38.9960 N   0  0  0  0  0  0  0  0  0  0  0  0
   35.4480   28.8210   39.7760 C   0  0  0  0  0  0  0  0  0  0  0  0
   35.7450   28.8380   41.1040 N   0  0  0  0  0  0  0  0  0  0  0  0
   36.9200   25.9300   38.8670 H   0  0  0  0  0  0  0  0  0  0  0  0
   34.8840   29.5950   39.2870 H   0  0  0  0  0  0  0  0  0  0  0  0
   37.6680   25.6730   41.4510 C   0  0  0  0  0  0  0  0  0  0  0  0
   39.0500   25.6870   41.5380 C   0  0  0  0  0  0  0  0  0  0  0  0
   39.3450   24.5040   42.1820 C   0  0  0  0  0  0  0  0  0  0  0  0
   38.2200   23.8140   42.4690 N   0  0  0  0  0  0  0  0  0  0  0  0
   37.2290   24.5440   42.0160 N   0  0  0  0  0  0  0  0  0  0  0  0
   39.7170   26.4580   41.1760 H   0  0  0  0  0  0  0  0  0  0  0  0
   40.3900   24.2310   42.3970 H   0  0  0  0  0  0  0  0  0  0  0  0
   38.2690   22.9070   42.9510 H   0  0  0  0  0  0  0  0  0  0  0  0
   36.7730   27.8090   42.9610 O   0  0  0  0  0  0  0  0  0  0  0  0
   37.6170   28.7180   43.5680 C   0  0  0  0  0  0  0  0  0  0  0  0
   37.2460   28.8960   44.5900 H   0  0  0  0  0  0  0  0  0  0  0  0
   38.6420   29.2870   43.1100 O   0  0  0  0  0  0  0  0  0  0  0  0
  1 17  1  0  0  0  0
  2  9  1  0  0  0  0
  2  1  2  0  0  0  0
  3  2  1  0  0  0  0
  4  3  2  0  0  0  0
  4  5  1  0  0  0  0
  5  6  2  0  0  0  0
  6  1  1  0  0  0  0
  7  3  1  0  0  0  0
  8  5  1  0  0  0  0
  9 10  1  0  0  0  0
  9 13  2  0  0  0  0
 10 11  2  0  0  0  0
 11 15  1  0  0  0  0
 11 12  1  0  0  0  0
 12 16  1  0  0  0  0
 13 12  1  0  0  0  0
 14 10  1  0  0  0  0
 17 18  1  0  0  0  0
 18 19  1  0  0  0  0
 20 18  2  0  0  0  0
M  END
>  <minimizedAffinity>
-3.75702953

$$$$

 OpenBabel03252508493D

 20 21  0  0  0  0  0  0  0  0999 V2000
   37.8860   28.1260   41.0100 C   0  0  0  0  0  0  0  0  0  0  0  0
   37.8190   29.2430   41.8570 C   0  0  0  0  0  0  0  0  0  0  0  0
   37.9610   29.0130   43.2270 C   0  0  0  0  0  0  0  0  0  0  0  0
   38.1530   27.7340   43.6540 N   0  0  0  0  0  0  0  0  0  0  0  0
   38.2100   26.6970   42.8110 C   0  0  0  0  0  0  0  0  0  0  0  0
   38.0760   26.8810   41.4700 N   0  0  0  0  0  0  0  0  0  0  0  0
   37.9100   29.8760   43.8870 H   0  0  0  0  0  0  0  0  0  0  0  0
   38.3660   25.7340   43.2630 H   0  0  0  0  0  0  0  0  0  0  0  0
   37.6090   30.5670   41.2920 C   0  0  0  0  0  0  0  0  0  0  0  0
   38.6490   31.4320   40.9910 C   0  0  0  0  0  0  0  0  0  0  0  0
   38.0070   32.5450   40.4890 C   0  0  0  0  0  0  0  0  0  0  0  0
   36.6680   32.3720   40.4840 N   0  0  0  0  0  0  0  0  0  0  0  0
   36.4620   31.1730   40.9730 N   0  0  0  0  0  0  0  0  0  0  0  0
   39.7070   31.2510   41.1270 H   0  0  0  0  0  0  0  0  0  0  0  0
   38.5870   33.4210   40.1570 H   0  0  0  0  0  0  0  0  0  0  0  0
   36.0440   33.1130   40.1390 H   0  0  0  0  0  0  0  0  0  0  0  0
   37.7450   28.3460   39.6500 O   0  0  0  0  0  0  0  0  0  0  0  0
   38.7800   28.2620   38.7400 C   0  0  0  0  0  0  0  0  0  0  0  0
   38.5350   27.4640   38.0210 H   0  0  0  0  0  0  0  0  0  0  0  0
   39.8420   28.9330   38.6720 O   0  0  0  0  0  0  0  0  0  0  0  0
  1  6  2  0  0  0  0
  1  2  1  0  0  0  0
  2  3  2  0  0  0  0
  3  4  1  0  0  0  0
  3  7  1  0  0  0  0
  5  8  1  0  0  0  0
  5  4  2  0  0  0  0
  6  5  1  0  0  0  0
  9  2  1  0  0  0  0
 10 14  1  0  0  0  0
 10  9  1  0  0  0  0
 11 10  2  0  0  0  0
 12 11  1  0  0  0  0
 12 13  1  0  0  0  0
 13  9  2  0  0  0  0
 15 11  1  0  0  0  0
 16 12  1  0  0  0  0
 17  1  1  0  0  0  0
 18 17  1  0  0  0  0
 19 18  1  0  0  0  0
 20 18  2  0  0  0  0
M  END
>  <minimizedAffinity>
-3.7325387

$$$$

 OpenBabel03252508493D

 20 21  0  0  0  0  0  0  0  0999 V2000
   39.8130   25.8880   42.1440 C   0  0  0  0  0  0  0  0  0  0  0  0
   39.9000   27.0640   42.9060 C   0  0  0  0  0  0  0  0  0  0  0  0
   41.0520   27.2390   43.6760 C   0  0  0  0  0  0  0  0  0  0  0  0
   42.0100   26.2720   43.6420 N   0  0  0  0  0  0  0  0  0  0  0  0
   41.8850   25.1650   42.9010 C   0  0  0  0  0  0  0  0  0  0  0  0
   40.7780   24.9570   42.1380 N   0  0  0  0  0  0  0  0  0  0  0  0
   41.1230   28.1490   44.2680 H   0  0  0  0  0  0  0  0  0  0  0  0
   42.7050   24.4710   42.9540 H   0  0  0  0  0  0  0  0  0  0  0  0
   38.8160   28.0320   42.8670 C   0  0  0  0  0  0  0  0  0  0  0  0
   38.7480   29.0510   41.9320 C   0  0  0  0  0  0  0  0  0  0  0  0
   37.5820   29.7130   42.2590 C   0  0  0  0  0  0  0  0  0  0  0  0
   36.9800   29.1370   43.3230 N   0  0  0  0  0  0  0  0  0  0  0  0
   37.7470   28.1300   43.6640 N   0  0  0  0  0  0  0  0  0  0  0  0
   39.4560   29.2570   41.1400 H   0  0  0  0  0  0  0  0  0  0  0  0
   37.2560   30.5900   41.6780 H   0  0  0  0  0  0  0  0  0  0  0  0
   36.0980   29.5130   43.6930 H   0  0  0  0  0  0  0  0  0  0  0  0
   38.6740   25.7060   41.3790 O   0  0  0  0  0  0  0  0  0  0  0  0
   37.7460   24.7060   41.5940 C   0  0  0  0  0  0  0  0  0  0  0  0
   38.0150   23.8510   40.9520 H   0  0  0  0  0  0  0  0  0  0  0  0
   36.7490   24.6910   42.3610 O   0  0  0  0  0  0  0  0  0  0  0  0
  1  2  1  0  0  0  0
  2  3  2  0  0  0  0
  3  7  1  0  0  0  0
  4  3  1  0  0  0  0
  5  8  1  0  0  0  0
  5  4  2  0  0  0  0
  6  1  2  0  0  0  0
  6  5  1  0  0  0  0
  9  2  1  0  0  0  0
  9 13  2  0  0  0  0
 10 11  2  0  0  0  0
 10  9  1  0  0  0  0
 11 12  1  0  0  0  0
 12 13  1  0  0  0  0
 12 16  1  0  0  0  0
 14 10  1  0  0  0  0
 15 11  1  0  0  0  0
 17 18  1  0  0  0  0
 17  1  1  0  0  0  0
 18 20  2  0  0  0  0
 19 18  1  0  0  0  0
M  END
>  <minimizedAffinity>
-3.73132157

$$$$

 OpenBabel03252508493D

 20 21  0  0  0  0  0  0  0  0999 V2000
   36.9410   25.9270   40.3680 C   0  0  0  0  0  0  0  0  0  0  0  0
   37.4470   25.9310   41.6770 C   0  0  0  0  0  0  0  0  0  0  0  0
   37.8760   24.7090   42.1980 C   0  0  0  0  0  0  0  0  0  0  0  0
   37.7810   23.5990   41.4150 N   0  0  0  0  0  0  0  0  0  0  0  0
   37.2910   23.6400   40.1700 C   0  0  0  0  0  0  0  0  0  0  0  0
   36.8620   24.8110   39.6280 N   0  0  0  0  0  0  0  0  0  0  0  0
   38.2690   24.7090   43.2130 H   0  0  0  0  0  0  0  0  0  0  0  0
   37.2640   22.7010   39.6470 H   0  0  0  0  0  0  0  0  0  0  0  0
   37.5030   27.1770   42.4260 C   0  0  0  0  0  0  0  0  0  0  0  0
   38.6420   27.9640   42.4960 C   0  0  0  0  0  0  0  0  0  0  0  0
   38.2540   29.0230   43.2910 C   0  0  0  0  0  0  0  0  0  0  0  0
   36.9670   28.8910   43.6800 N   0  0  0  0  0  0  0  0  0  0  0  0
   36.5450   27.7720   43.1420 N   0  0  0  0  0  0  0  0  0  0  0  0
   39.5970   27.7700   42.0270 H   0  0  0  0  0  0  0  0  0  0  0  0
   38.9630   29.8300   43.5310 H   0  0  0  0  0  0  0  0  0  0  0  0
   36.5250   29.6000   44.2790 H   0  0  0  0  0  0  0  0  0  0  0  0
   36.5120   27.1340   39.8450 O   0  0  0  0  0  0  0  0  0  0  0  0
   36.0710   27.3050   38.5480 C   0  0  0  0  0  0  0  0  0  0  0  0
   36.8640   26.9520   37.8700 H   0  0  0  0  0  0  0  0  0  0  0  0
   34.9790   27.7700   38.1290 O   0  0  0  0  0  0  0  0  0  0  0  0
  1  2  1  0  0  0  0
  2  3  2  0  0  0  0
  2  9  1  0  0  0  0
  3  7  1  0  0  0  0
  4  3  1  0  0  0  0
  5  4  2  0  0  0  0
  6  5  1  0  0  0  0
  6  1  2  0  0  0  0
  8  5  1  0  0  0  0
  9 10  1  0  0  0  0
  9 13  2  0  0  0  0
 10 11  2  0  0  0  0
 11 15  1  0  0  0  0
 11 12  1  0  0  0  0
 12 16  1  0  0  0  0
 13 12  1  0  0  0  0
 14 10  1  0  0  0  0
 17  1  1  0  0  0  0
 18 17  1  0  0  0  0
 19 18  1  0  0  0  0
 20 18  2  0  0  0  0
M  END
>  <minimizedAffinity>
-3.71606255

$$$$

 OpenBabel03252508493D

 20 21  0  0  0  0  0  0  0  0999 V2000
   37.5000   29.9510   41.8330 C   0  0  0  0  0  0  0  0  0  0  0  0
   38.7610   30.4780   41.5120 C   0  0  0  0  0  0  0  0  0  0  0  0
   39.8730   29.8670   42.0940 C   0  0  0  0  0  0  0  0  0  0  0  0
   39.6720   28.8090   42.9280 N   0  0  0  0  0  0  0  0  0  0  0  0
   38.4510   28.3380   43.2070 C   0  0  0  0  0  0  0  0  0  0  0  0
   37.3430   28.9070   42.6600 N   0  0  0  0  0  0  0  0  0  0  0  0
   40.8520   30.2720   41.8480 H   0  0  0  0  0  0  0  0  0  0  0  0
   38.4150   27.5000   43.8780 H   0  0  0  0  0  0  0  0  0  0  0  0
   38.8610   31.6130   40.6080 C   0  0  0  0  0  0  0  0  0  0  0  0
   38.9390   32.9240   41.0490 C   0  0  0  0  0  0  0  0  0  0  0  0
   39.0180   33.6530   39.8800 C   0  0  0  0  0  0  0  0  0  0  0  0
   38.9910   32.8430   38.8000 N   0  0  0  0  0  0  0  0  0  0  0  0
   38.8960   31.6230   39.2720 N   0  0  0  0  0  0  0  0  0  0  0  0
   38.9350   33.2670   42.0750 H   0  0  0  0  0  0  0  0  0  0  0  0
   39.0910   34.7520   39.9120 H   0  0  0  0  0  0  0  0  0  0  0  0
   39.0410   33.2330   37.8500 H   0  0  0  0  0  0  0  0  0  0  0  0
   36.3930   30.5510   41.2600 O   0  0  0  0  0  0  0  0  0  0  0  0
   35.6230   29.9750   40.2690 C   0  0  0  0  0  0  0  0  0  0  0  0
   35.9190   30.4220   39.3070 H   0  0  0  0  0  0  0  0  0  0  0  0
   34.7270   29.0960   40.3620 O   0  0  0  0  0  0  0  0  0  0  0  0
  1  6  1  0  0  0  0
  2  1  2  0  0  0  0
  2  3  1  0  0  0  0
  3  4  2  0  0  0  0
  4  5  1  0  0  0  0
  5  8  1  0  0  0  0
  6  5  2  0  0  0  0
  7  3  1  0  0  0  0
  9 10  1  0  0  0  0
  9  2  1  0  0  0  0
 10 14  1  0  0  0  0
 11 15  1  0  0  0  0
 11 10  2  0  0  0  0
 12 13  1  0  0  0  0
 12 11  1  0  0  0  0
 13  9  2  0  0  0  0
 16 12  1  0  0  0  0
 17  1  1  0  0  0  0
 18 20  2  0  0  0  0
 18 17  1  0  0  0  0
 19 18  1  0  0  0  0
M  END
>  <minimizedAffinity>
-3.71558571

$$$$
