
 OpenBabel03252509313D

 21 21  0  0  0  0  0  0  0  0999 V2000
   46.9730   33.4530   42.9220 C   0  0  0  0  0  0  0  0  0  0  0  0
   46.5380   32.4710   42.7070 H   0  0  0  0  0  0  0  0  0  0  0  0
   46.9080   34.0340   41.9690 H   0  0  0  0  0  0  0  0  0  0  0  0
   45.0960   34.2970   46.0290 C   0  0  0  0  0  0  0  0  0  0  0  0
   45.9310   33.6050   45.1490 C   0  0  0  0  0  0  0  0  0  0  0  0
   46.1080   34.1350   43.8900 C   0  0  0  0  0  0  0  0  0  0  0  0
   45.4660   35.3120   43.5520 N   0  0  0  0  0  0  0  0  0  0  0  0
   44.6680   35.9410   44.4460 C   0  0  0  0  0  0  0  0  0  0  0  0
   44.4830   35.4390   45.6790 N   0  0  0  0  0  0  0  0  0  0  0  0
   44.9980   33.8260   47.0070 H   0  0  0  0  0  0  0  0  0  0  0  0
   46.4420   32.6780   45.4040 H   0  0  0  0  0  0  0  0  0  0  0  0
   44.1790   36.8570   44.1570 H   0  0  0  0  0  0  0  0  0  0  0  0
   48.2790   33.3610   43.4060 O   0  0  0  0  0  0  0  0  0  0  0  0
   50.0280   33.1350   41.4830 O   0  0  0  0  0  0  0  0  0  0  0  0
   49.2740   34.1510   42.2910 P   0  0  2  0  0  0  0  0  0  0  0  0
   50.2700   35.1930   43.1500 O   0  0  0  0  0  0  0  0  0  0  0  0
   51.1460   34.7690   43.3330 H   0  0  0  0  0  0  0  0  0  0  0  0
   48.2660   35.0300   41.2470 O   0  0  0  0  0  0  0  0  0  0  0  0
   48.2890   34.7310   39.8890 C   0  0  0  0  0  0  0  0  0  0  0  0
   49.1060   35.2010   39.3430 H   0  0  0  0  0  0  0  0  0  0  0  0
   47.5510   34.0280   39.1820 O   0  0  0  0  0  0  0  0  0  0  0  0
  1 13  1  0  0  0  0
  1  6  1  0  0  0  0
  2  1  1  0  0  0  0
  3  1  1  0  0  0  0
  4 10  1  0  0  0  0
  5 11  1  0  0  0  0
  5  4  2  0  0  0  0
  6  5  1  0  0  0  0
  7  6  2  0  0  0  0
  7  8  1  0  0  0  0
  8  9  2  0  0  0  0
  9  4  1  0  0  0  0
 12  8  1  0  0  0  0
 15 14  2  6  0  0  0
 15 16  1  0  0  0  0
 15 13  1  0  0  0  0
 16 17  1  0  0  0  0
 18 15  1  0  0  0  0
 19 18  1  0  0  0  0
 20 19  1  0  0  0  0
 21 19  2  0  0  0  0
M  END
>  <minimizedAffinity>
-4.30180979

>  <minimizedRMSD>
0.608795702

$$$$
