
 OpenBabel03242521063D

 34 36  0  0  1  0  0  0  0  0999 V2000
   46.5960   34.5910   41.8240 C   0  0  0  0  0  0  0  0  0  0  0  0
   47.7880   35.1930   41.4710 C   0  0  0  0  0  0  0  0  0  0  0  0
   48.4790   34.9640   40.3020 C   0  0  0  0  0  0  0  0  0  0  0  0
   47.9400   34.0590   39.4070 C   0  0  0  0  0  0  0  0  0  0  0  0
   46.7600   33.4730   39.7750 C   0  0  0  0  0  0  0  0  0  0  0  0
   46.1420   33.7340   40.9140 N   0  0  0  0  0  0  0  0  0  0  0  0
   48.2510   35.9200   42.1530 H   0  0  0  0  0  0  0  0  0  0  0  0
   49.4110   35.4620   40.0690 H   0  0  0  0  0  0  0  0  0  0  0  0
   48.4360   33.8330   38.4660 H   0  0  0  0  0  0  0  0  0  0  0  0
   44.5510   36.1070   44.5950 C   0  0  0  0  0  0  0  0  0  0  0  0
   45.1370   35.9930   43.3300 C   0  0  0  0  0  0  0  0  0  0  0  0
   45.9090   34.8730   43.0850 C   0  0  0  0  0  0  0  0  0  0  0  0
   46.0650   33.9500   44.0620 N   0  0  0  0  0  0  0  0  0  0  0  0
   45.4760   34.0990   45.2850 C   0  0  0  0  0  0  0  0  0  0  0  0
   44.7300   35.1720   45.5340 N   0  0  0  0  0  0  0  0  0  0  0  0
   43.9540   37.0040   44.7370 H   0  0  0  0  0  0  0  0  0  0  0  0
   45.0640   36.6690   42.5140 H   0  0  0  0  0  0  0  0  0  0  0  0
   45.6050   33.3610   46.0560 H   0  0  0  0  0  0  0  0  0  0  0  0
   46.1840   32.5170   38.8080 C   0  0  2  0  0  0  0  0  0  0  0  0
   47.1220   31.6010   38.1130 C   0  0  0  0  0  0  0  0  0  0  0  0
   46.3620   32.7150   37.3830 C   0  0  1  0  0  0  0  0  0  0  0  0
   45.2330   32.0020   39.1610 H   0  0  0  0  0  0  0  0  0  0  0  0
   46.7940   30.5900   37.8000 H   0  0  0  0  0  0  0  0  0  0  0  0
   48.2010   31.7350   38.1370 H   0  0  0  0  0  0  0  0  0  0  0  0
   47.0170   33.5030   36.9700 H   0  0  0  0  0  0  0  0  0  0  0  0
   45.3890   32.2820   36.4710 O   0  0  0  0  0  0  0  0  0  0  0  0
   45.7850   30.6440   34.5590 O   0  0  0  0  0  0  0  0  0  0  0  0
   45.9700   32.1310   34.8980 P   0  0  1  0  0  0  0  0  0  0  0  0
   45.0330   33.0000   33.8220 O   0  0  0  0  0  0  0  0  0  0  0  0
   45.5780   33.4950   33.1860 H   0  0  0  0  0  0  0  0  0  0  0  0
   47.6200   32.4090   34.7380 O   0  0  0  0  0  0  0  0  0  0  0  0
   48.2870   32.5920   33.5330 C   0  0  0  0  0  0  0  0  0  0  0  0
   47.5690   32.7710   32.7330 H   0  0  0  0  0  0  0  0  0  0  0  0
   49.5550   32.5380   33.4830 O   0  0  0  0  0  0  0  0  0  0  0  0
  1 12  1  0  0  0  0
  2  1  1  0  0  0  0
  2  7  1  0  0  0  0
  3  2  2  0  0  0  0
  4  5  2  0  0  0  0
  4  3  1  0  0  0  0
  5  6  1  0  0  0  0
  6  1  2  0  0  0  0
  8  3  1  0  0  0  0
  9  4  1  0  0  0  0
 10 16  1  0  0  0  0
 10 15  1  0  0  0  0
 11 10  2  0  0  0  0
 12 11  1  0  0  0  0
 12 13  2  0  0  0  0
 13 14  1  0  0  0  0
 14 15  2  0  0  0  0
 14 18  1  0  0  0  0
 17 11  1  0  0  0  0
 19 22  1  1  0  0  0
 19  5  1  0  0  0  0
 20 24  1  0  0  0  0
 20 19  1  0  0  0  0
 21 25  1  6  0  0  0
 21 20  1  0  0  0  0
 21 19  1  0  0  0  0
 23 20  1  0  0  0  0
 26 21  1  0  0  0  0
 28 27  2  6  0  0  0
 28 26  1  0  0  0  0
 29 28  1  0  0  0  0
 30 29  1  0  0  0  0
 31 28  1  0  0  0  0
 32 31  1  0  0  0  0
 33 32  1  0  0  0  0
 34 32  2  0  0  0  0
M  END
>  <minimizedAffinity>
-5.93707323

>  <minimizedRMSD>
0.660272121

$$$$
