REMARK  Name = 
REMARK  7 active torsions:
REMARK  status: ('A' for Active; 'I' for Inactive)
REMARK    1  A    between atoms: C_1  and  C_6
REMARK    2  A    between atoms: C_3  and  O_10
REMARK    3  A    between atoms: O_10  and  P_12
REMARK    4  A    between atoms: P_12  and  O_13
REMARK    5  A    between atoms: P_12  and  O_14
REMARK    6  A    between atoms: O_14  and  C_15
REMARK    7  A    between atoms: CA_19  and  C_32
REMARK                            x       y       z     vdW  Elec       q    Type
REMARK                         _______ _______ _______ _____ _____    ______ ____
ROOT
ATOM      1  O   UNL     1      47.765  34.143  39.810  0.00  0.00    +0.000 OA
ENDROOT
BRANCH   1   4
ATOM      2  C   UNL     1      48.079  35.472  41.806  0.00  0.00    +0.000 C 
ATOM      3  C   UNL     1      49.319  34.692  41.691  0.00  0.00    +0.000 C 
ATOM      4  C   UNL     1      48.484  35.076  40.457  0.00  0.00    +0.000 C 
ATOM      5  H   UNL     1      48.164  36.528  42.146  0.00  0.00    +0.000 HD
ATOM      6  H   UNL     1      49.318  33.574  41.834  0.00  0.00    +0.000 HD
ATOM      7  H   UNL     1      50.315  35.110  41.830  0.00  0.00    +0.000 HD
ATOM      8  H   UNL     1      49.071  35.756  39.809  0.00  0.00    +0.000 HD
BRANCH   2  11
ATOM      9  C   UNL     1      46.052  32.931  43.754  0.00  0.00    +0.000 A 
ATOM     10  C   UNL     1      47.143  33.616  43.230  0.00  0.00    +0.000 A 
ATOM     11  C   UNL     1      46.914  34.728  42.396  0.00  0.00    +0.000 A 
ATOM     12  N   UNL     1      45.637  35.105  42.124  0.00  0.00    +0.000 NA
ATOM     13  C   UNL     1      44.588  34.416  42.651  0.00  0.00    +0.000 A 
ATOM     14  N   UNL     1      44.796  33.334  43.462  0.00  0.00    +0.000 NA
ATOM     15  H   UNL     1      46.223  32.086  44.388  0.00  0.00    +0.000 HD
ATOM     16  H   UNL     1      48.136  33.285  43.469  0.00  0.00    +0.000 HD
ATOM     17  H   UNL     1      43.580  34.734  42.421  0.00  0.00    +0.000 HD
ENDBRANCH   2  11
ENDBRANCH   1   4
BRANCH   1  19
ATOM     18  O   UNL     1      48.519  32.405  37.985  0.00  0.00    +0.000 OA
ATOM     19  P   UNL     1      48.096  33.852  38.234  0.00  0.00    +0.000 P 
BRANCH  19  20
ATOM     20  O   UNL     1      49.336  34.800  37.579  0.00  0.00    +0.000 OA
ATOM     21  H   UNL     1      49.113  35.230  36.733  0.00  0.00    +0.000 HD
ENDBRANCH  19  20
BRANCH  19  22
ATOM     22  O   UNL     1      46.732  34.066  37.279  0.00  0.00    +0.000 OA
BRANCH  22  23
ATOM     23  C   UNL     1      45.789  33.088  37.030  0.00  0.00    +0.000 A 
ATOM     24  C   UNL     1      45.650  32.289  35.918  0.00  0.00    +0.000 A 
ATOM     25  C   UNL     1      44.664  31.362  35.813  0.00  0.00    +0.000 A 
ATOM     26  C   UNL     1      43.763  31.199  36.843  0.00  0.00    +0.000 A 
ATOM     27  CA  UNL     1      43.922  32.018  37.959  0.00  0.00    +0.000 A 
ATOM     28  N   UNL     1      44.923  32.938  38.028  0.00  0.00    +0.000 NA
ATOM     29  H   UNL     1      46.399  32.472  35.140  0.00  0.00    +0.000 HD
ATOM     30  H   UNL     1      44.601  30.759  34.915  0.00  0.00    +0.000 HD
ATOM     31  H   UNL     1      42.971  30.476  36.794  0.00  0.00    +0.000 HD
BRANCH  27  32
ATOM     32  C   UNL     1      42.977  31.875  39.083  0.00  0.00    +0.000 C 
ATOM     33  H   UNL     1      42.190  31.138  39.006  0.00  0.00    +0.000 HD
ATOM     34  O   UNL     1      43.101  32.603  40.101  0.00  0.00    +0.000 OA
ENDBRANCH  27  32
ENDBRANCH  22  23
ENDBRANCH  19  22
ENDBRANCH   1  19
TORSDOF 7
