
 OpenBabel03252501053D

 34 36  0  0  1  0  0  0  0  0999 V2000
   47.7600   34.0360   39.7760 O   0  0  0  0  0  0  0  0  0  0  0  0
   47.9650   35.4070   41.7580 C   0  0  1  0  0  0  0  0  0  0  0  0
   49.2310   34.6620   41.6990 C   0  0  0  0  0  0  0  0  0  0  0  0
   48.4280   35.0010   40.4310 C   0  0  1  0  0  0  0  0  0  0  0  0
   48.0080   36.4710   42.0820 H   0  0  0  0  0  0  0  0  0  0  0  0
   49.2570   33.5470   41.8620 H   0  0  0  0  0  0  0  0  0  0  0  0
   50.2090   35.1120   41.8650 H   0  0  0  0  0  0  0  0  0  0  0  0
   49.0180   35.6870   39.7910 H   0  0  0  0  0  0  0  0  0  0  0  0
   45.9350   32.9520   43.8090 C   0  0  0  0  0  0  0  0  0  0  0  0
   47.0220   33.6630   43.3120 C   0  0  0  0  0  0  0  0  0  0  0  0
   46.8020   34.6390   42.3200 C   0  0  0  0  0  0  0  0  0  0  0  0
   45.5380   34.8630   41.8740 N   0  0  0  0  0  0  0  0  0  0  0  0
   44.4930   34.1520   42.3790 C   0  0  0  0  0  0  0  0  0  0  0  0
   44.6920   33.2010   43.3420 N   0  0  0  0  0  0  0  0  0  0  0  0
   46.0980   32.2100   44.5630 H   0  0  0  0  0  0  0  0  0  0  0  0
   48.0040   33.4550   43.6910 H   0  0  0  0  0  0  0  0  0  0  0  0
   43.4960   34.3470   42.0090 H   0  0  0  0  0  0  0  0  0  0  0  0
   48.5750   32.3420   37.9360 O   0  0  0  0  0  0  0  0  0  0  0  0
   48.1080   33.7730   38.1990 P   0  0  2  0  0  0  0  0  0  0  0  0
   49.3240   34.7650   37.5620 O   0  0  0  0  0  0  0  0  0  0  0  0
   49.0930   35.1970   36.7200 H   0  0  0  0  0  0  0  0  0  0  0  0
   46.7440   33.9580   37.2380 O   0  0  0  0  0  0  0  0  0  0  0  0
   45.6940   33.0630   37.1890 C   0  0  0  0  0  0  0  0  0  0  0  0
   45.4740   32.0400   36.2950 C   0  0  0  0  0  0  0  0  0  0  0  0
   44.3850   31.2340   36.3720 C   0  0  0  0  0  0  0  0  0  0  0  0
   43.4570   31.4280   37.3720 C   0  0  0  0  0  0  0  0  0  0  0  0
   43.6980   32.4690   38.2670 C   0  0  0  0  0  0  0  0  0  0  0  0
   44.8020   33.2580   38.1570 N   0  0  0  0  0  0  0  0  0  0  0  0
   46.2500   31.9430   35.5280 H   0  0  0  0  0  0  0  0  0  0  0  0
   44.2610   30.4430   35.6420 H   0  0  0  0  0  0  0  0  0  0  0  0
   42.5840   30.8100   37.4630 H   0  0  0  0  0  0  0  0  0  0  0  0
   42.7280   32.7100   39.3520 C   0  0  0  0  0  0  0  0  0  0  0  0
   43.0650   33.2270   40.2400 H   0  0  0  0  0  0  0  0  0  0  0  0
   41.5400   32.3160   39.2280 O   0  0  0  0  0  0  0  0  0  0  0  0
  1  4  1  0  0  0  0
  2  5  1  1  0  0  0
  2 11  1  0  0  0  0
  3  2  1  0  0  0  0
  3  6  1  0  0  0  0
  3  7  1  0  0  0  0
  4  8  1  6  0  0  0
  4  3  1  0  0  0  0
  4  2  1  0  0  0  0
  9 15  1  0  0  0  0
 10 16  1  0  0  0  0
 10  9  2  0  0  0  0
 11 10  1  0  0  0  0
 12 11  2  0  0  0  0
 12 13  1  0  0  0  0
 13 14  2  0  0  0  0
 14  9  1  0  0  0  0
 17 13  1  0  0  0  0
 19 18  2  6  0  0  0
 19  1  1  0  0  0  0
 20 19  1  0  0  0  0
 21 20  1  0  0  0  0
 22 19  1  0  0  0  0
 23 22  1  0  0  0  0
 23 28  1  0  0  0  0
 24 25  1  0  0  0  0
 24 23  2  0  0  0  0
 25 26  2  0  0  0  0
 26 31  1  0  0  0  0
 26 27  1  0  0  0  0
 27 32  1  0  0  0  0
 28 27  2  0  0  0  0
 29 24  1  0  0  0  0
 30 25  1  0  0  0  0
 32 33  1  0  0  0  0
 34 32  2  0  0  0  0
M  END
>  <minimizedAffinity>
-4.34471989

>  <minimizedRMSD>
0.440267146

$$$$
