
 OpenBabel03252501053D

 34 36  0  0  1  0  0  0  0  0999 V2000
   47.7560   34.0390   39.7760 O   0  0  0  0  0  0  0  0  0  0  0  0
   47.9660   35.4070   41.7590 C   0  0  1  0  0  0  0  0  0  0  0  0
   49.2310   34.6620   41.6960 C   0  0  0  0  0  0  0  0  0  0  0  0
   48.4260   35.0030   40.4300 C   0  0  1  0  0  0  0  0  0  0  0  0
   48.0100   36.4710   42.0840 H   0  0  0  0  0  0  0  0  0  0  0  0
   49.2580   33.5470   41.8570 H   0  0  0  0  0  0  0  0  0  0  0  0
   50.2100   35.1110   41.8610 H   0  0  0  0  0  0  0  0  0  0  0  0
   49.0140   35.6900   39.7900 H   0  0  0  0  0  0  0  0  0  0  0  0
   45.9400   32.9490   43.8110 C   0  0  0  0  0  0  0  0  0  0  0  0
   47.0260   33.6600   43.3120 C   0  0  0  0  0  0  0  0  0  0  0  0
   46.8040   34.6390   42.3230 C   0  0  0  0  0  0  0  0  0  0  0  0
   45.5390   34.8650   41.8810 N   0  0  0  0  0  0  0  0  0  0  0  0
   44.4950   34.1530   42.3880 C   0  0  0  0  0  0  0  0  0  0  0  0
   44.6960   33.2000   43.3480 N   0  0  0  0  0  0  0  0  0  0  0  0
   46.1060   32.2050   44.5620 H   0  0  0  0  0  0  0  0  0  0  0  0
   48.0100   33.4510   43.6880 H   0  0  0  0  0  0  0  0  0  0  0  0
   43.4970   34.3500   42.0210 H   0  0  0  0  0  0  0  0  0  0  0  0
   48.5790   32.3400   37.9440 O   0  0  0  0  0  0  0  0  0  0  0  0
   48.1080   33.7710   38.2000 P   0  0  2  0  0  0  0  0  0  0  0  0
   49.3220   34.7630   37.5620 O   0  0  0  0  0  0  0  0  0  0  0  0
   49.0920   35.1920   36.7180 H   0  0  0  0  0  0  0  0  0  0  0  0
   46.7450   33.9490   37.2360 O   0  0  0  0  0  0  0  0  0  0  0  0
   45.6920   33.0560   37.1960 C   0  0  0  0  0  0  0  0  0  0  0  0
   45.4770   32.0180   36.3190 C   0  0  0  0  0  0  0  0  0  0  0  0
   44.3850   31.2160   36.4020 C   0  0  0  0  0  0  0  0  0  0  0  0
   43.4500   31.4320   37.3910 C   0  0  0  0  0  0  0  0  0  0  0  0
   43.6870   32.4880   38.2680 C   0  0  0  0  0  0  0  0  0  0  0  0
   44.7940   33.2720   38.1520 N   0  0  0  0  0  0  0  0  0  0  0  0
   46.2590   31.9040   35.5600 H   0  0  0  0  0  0  0  0  0  0  0  0
   44.2650   30.4120   35.6860 H   0  0  0  0  0  0  0  0  0  0  0  0
   42.5740   30.8180   37.4870 H   0  0  0  0  0  0  0  0  0  0  0  0
   42.7090   32.7530   39.3400 C   0  0  0  0  0  0  0  0  0  0  0  0
   42.3370   31.9170   39.9170 H   0  0  0  0  0  0  0  0  0  0  0  0
   42.3280   33.9300   39.5640 O   0  0  0  0  0  0  0  0  0  0  0  0
  1  4  1  0  0  0  0
  2  5  1  1  0  0  0
  2 11  1  0  0  0  0
  3  2  1  0  0  0  0
  3  6  1  0  0  0  0
  3  7  1  0  0  0  0
  4  8  1  6  0  0  0
  4  3  1  0  0  0  0
  4  2  1  0  0  0  0
  9 15  1  0  0  0  0
 10 16  1  0  0  0  0
 10  9  2  0  0  0  0
 11 10  1  0  0  0  0
 12 11  2  0  0  0  0
 12 13  1  0  0  0  0
 13 14  2  0  0  0  0
 14  9  1  0  0  0  0
 17 13  1  0  0  0  0
 19 18  2  6  0  0  0
 19  1  1  0  0  0  0
 20 19  1  0  0  0  0
 21 20  1  0  0  0  0
 22 19  1  0  0  0  0
 23 22  1  0  0  0  0
 23 28  1  0  0  0  0
 24 25  1  0  0  0  0
 24 23  2  0  0  0  0
 25 26  2  0  0  0  0
 26 31  1  0  0  0  0
 26 27  1  0  0  0  0
 27 32  1  0  0  0  0
 28 27  2  0  0  0  0
 29 24  1  0  0  0  0
 30 25  1  0  0  0  0
 32 34  2  0  0  0  0
 32 33  1  0  0  0  0
M  END
>  <minimizedAffinity>
-4.39443684

>  <minimizedRMSD>
0.735225618

$$$$
