
 OpenBabel03252501093D

 34 36  0  0  1  0  0  0  0  0999 V2000
   37.1190   29.4160   39.5920 O   0  0  0  0  0  0  0  0  0  0  0  0
   37.2440   30.7420   37.5730 C   0  0  1  0  0  0  0  0  0  0  0  0
   38.1050   29.5840   37.3000 C   0  0  0  0  0  0  0  0  0  0  0  0
   36.9110   29.4980   38.2670 C   0  0  1  0  0  0  0  0  0  0  0  0
   36.6130   31.1230   36.7400 H   0  0  0  0  0  0  0  0  0  0  0  0
   39.0740   29.4350   37.8570 H   0  0  0  0  0  0  0  0  0  0  0  0
   38.0940   29.0250   36.3650 H   0  0  0  0  0  0  0  0  0  0  0  0
   36.1560   28.7970   37.8610 H   0  0  0  0  0  0  0  0  0  0  0  0
   39.8470   32.9070   39.2760 C   0  0  0  0  0  0  0  0  0  0  0  0
   39.2800   31.9120   38.4860 C   0  0  0  0  0  0  0  0  0  0  0  0
   37.8760   31.8200   38.4080 C   0  0  0  0  0  0  0  0  0  0  0  0
   37.1110   32.7020   39.1030 N   0  0  0  0  0  0  0  0  0  0  0  0
   37.6930   33.6660   39.8680 C   0  0  0  0  0  0  0  0  0  0  0  0
   39.0550   33.7670   39.9530 N   0  0  0  0  0  0  0  0  0  0  0  0
   40.9130   32.9790   39.3370 H   0  0  0  0  0  0  0  0  0  0  0  0
   39.9210   31.2350   37.9540 H   0  0  0  0  0  0  0  0  0  0  0  0
   37.0640   34.3570   40.4120 H   0  0  0  0  0  0  0  0  0  0  0  0
   34.5090   29.2320   39.8670 O   0  0  0  0  0  0  0  0  0  0  0  0
   35.8270   29.4970   40.5940 P   0  0  2  0  0  0  0  0  0  0  0  0
   35.6190   30.9860   41.3710 O   0  0  0  0  0  0  0  0  0  0  0  0
   35.4840   30.9250   42.3340 H   0  0  0  0  0  0  0  0  0  0  0  0
   35.9050   28.3100   41.7780 O   0  0  0  0  0  0  0  0  0  0  0  0
   37.0780   27.7830   42.2830 C   0  0  0  0  0  0  0  0  0  0  0  0
   38.0690   28.4160   42.9970 C   0  0  0  0  0  0  0  0  0  0  0  0
   39.1770   27.7620   43.4310 C   0  0  0  0  0  0  0  0  0  0  0  0
   39.3320   26.4200   43.1600 C   0  0  0  0  0  0  0  0  0  0  0  0
   38.3160   25.7980   42.4360 C   0  0  0  0  0  0  0  0  0  0  0  0
   37.2200   26.4880   42.0160 N   0  0  0  0  0  0  0  0  0  0  0  0
   37.8810   29.4800   43.1760 H   0  0  0  0  0  0  0  0  0  0  0  0
   39.9270   28.3090   43.9900 H   0  0  0  0  0  0  0  0  0  0  0  0
   40.1940   25.8710   43.4880 H   0  0  0  0  0  0  0  0  0  0  0  0
   38.4450   24.3620   42.1240 C   0  0  0  0  0  0  0  0  0  0  0  0
   39.3840   23.8700   42.3350 H   0  0  0  0  0  0  0  0  0  0  0  0
   37.4720   23.7400   41.6240 O   0  0  0  0  0  0  0  0  0  0  0  0
  1 19  1  0  0  0  0
  2  5  1  6  0  0  0
  2  4  1  0  0  0  0
  2 11  1  0  0  0  0
  3  2  1  0  0  0  0
  3  6  1  0  0  0  0
  3  4  1  0  0  0  0
  4  8  1  6  0  0  0
  4  1  1  0  0  0  0
  7  3  1  0  0  0  0
  9 15  1  0  0  0  0
  9 14  1  0  0  0  0
 10  9  2  0  0  0  0
 11 10  1  0  0  0  0
 11 12  2  0  0  0  0
 12 13  1  0  0  0  0
 13 14  2  0  0  0  0
 13 17  1  0  0  0  0
 16 10  1  0  0  0  0
 19 18  2  6  0  0  0
 19 20  1  0  0  0  0
 19 22  1  0  0  0  0
 20 21  1  0  0  0  0
 22 23  1  0  0  0  0
 23 24  1  0  0  0  0
 24 29  1  0  0  0  0
 24 25  2  0  0  0  0
 25 30  1  0  0  0  0
 26 25  1  0  0  0  0
 26 31  1  0  0  0  0
 27 26  2  0  0  0  0
 28 23  2  0  0  0  0
 28 27  1  0  0  0  0
 32 33  1  0  0  0  0
 32 27  1  0  0  0  0
 34 32  2  0  0  0  0
M  END
>  <minimizedAffinity>
-5.69164562

$$$$

 OpenBabel03252501093D

 34 36  0  0  1  0  0  0  0  0999 V2000
   36.8550   29.4340   39.3210 O   0  0  0  0  0  0  0  0  0  0  0  0
   36.9540   31.0980   37.5690 C   0  0  1  0  0  0  0  0  0  0  0  0
   37.5680   29.9050   36.9700 C   0  0  0  0  0  0  0  0  0  0  0  0
   36.5040   29.8020   38.0770 C   0  0  1  0  0  0  0  0  0  0  0  0
   36.2990   31.7210   36.9200 H   0  0  0  0  0  0  0  0  0  0  0  0
   38.5580   29.5130   37.3400 H   0  0  0  0  0  0  0  0  0  0  0  0
   37.3490   29.5480   35.9650 H   0  0  0  0  0  0  0  0  0  0  0  0
   35.5970   29.3090   37.6750 H   0  0  0  0  0  0  0  0  0  0  0  0
   40.0700   32.4550   39.2440 C   0  0  0  0  0  0  0  0  0  0  0  0
   39.2530   31.7240   38.3890 C   0  0  0  0  0  0  0  0  0  0  0  0
   37.8560   31.8900   38.4730 C   0  0  0  0  0  0  0  0  0  0  0  0
   37.3420   32.7580   39.3830 N   0  0  0  0  0  0  0  0  0  0  0  0
   38.1660   33.4600   40.2080 C   0  0  0  0  0  0  0  0  0  0  0  0
   39.5240   33.3080   40.1380 N   0  0  0  0  0  0  0  0  0  0  0  0
   41.1320   32.3300   39.1830 H   0  0  0  0  0  0  0  0  0  0  0  0
   39.6990   31.0490   37.6840 H   0  0  0  0  0  0  0  0  0  0  0  0
   37.7350   34.1450   40.9260 H   0  0  0  0  0  0  0  0  0  0  0  0
   34.3180   29.2260   39.9840 O   0  0  0  0  0  0  0  0  0  0  0  0
   35.7280   29.5000   40.5060 P   0  0  2  0  0  0  0  0  0  0  0  0
   35.6260   30.9860   41.3110 O   0  0  0  0  0  0  0  0  0  0  0  0
   35.6380   30.9210   42.2830 H   0  0  0  0  0  0  0  0  0  0  0  0
   35.9930   28.3110   41.6610 O   0  0  0  0  0  0  0  0  0  0  0  0
   37.2190   28.0370   42.2350 C   0  0  0  0  0  0  0  0  0  0  0  0
   37.6280   26.8960   42.8870 C   0  0  0  0  0  0  0  0  0  0  0  0
   38.8750   26.7680   43.4060 C   0  0  0  0  0  0  0  0  0  0  0  0
   39.7780   27.8020   43.2850 C   0  0  0  0  0  0  0  0  0  0  0  0
   39.3430   28.9480   42.6210 C   0  0  0  0  0  0  0  0  0  0  0  0
   38.0830   29.0400   42.1150 N   0  0  0  0  0  0  0  0  0  0  0  0
   36.8610   26.1160   42.9470 H   0  0  0  0  0  0  0  0  0  0  0  0
   39.1450   25.8470   43.9100 H   0  0  0  0  0  0  0  0  0  0  0  0
   40.7730   27.7360   43.6830 H   0  0  0  0  0  0  0  0  0  0  0  0
   40.2790   30.0780   42.4720 C   0  0  0  0  0  0  0  0  0  0  0  0
   41.2380   29.8970   42.0070 H   0  0  0  0  0  0  0  0  0  0  0  0
   39.9520   31.2210   42.8830 O   0  0  0  0  0  0  0  0  0  0  0  0
  1 19  1  0  0  0  0
  2  5  1  6  0  0  0
  2  4  1  0  0  0  0
  2 11  1  0  0  0  0
  3  6  1  0  0  0  0
  3  2  1  0  0  0  0
  3  4  1  0  0  0  0
  4  8  1  6  0  0  0
  4  1  1  0  0  0  0
  7  3  1  0  0  0  0
  9 14  1  0  0  0  0
 10 11  1  0  0  0  0
 10  9  2  0  0  0  0
 11 12  2  0  0  0  0
 12 13  1  0  0  0  0
 13 17  1  0  0  0  0
 14 13  2  0  0  0  0
 15  9  1  0  0  0  0
 16 10  1  0  0  0  0
 19 18  2  6  0  0  0
 19 20  1  0  0  0  0
 19 22  1  0  0  0  0
 20 21  1  0  0  0  0
 22 23  1  0  0  0  0
 23 24  1  0  0  0  0
 24 29  1  0  0  0  0
 24 25  2  0  0  0  0
 25 30  1  0  0  0  0
 26 25  1  0  0  0  0
 26 31  1  0  0  0  0
 27 26  2  0  0  0  0
 28 23  2  0  0  0  0
 28 27  1  0  0  0  0
 32 27  1  0  0  0  0
 32 34  2  0  0  0  0
 33 32  1  0  0  0  0
M  END
>  <minimizedAffinity>
-5.50950432

$$$$

 OpenBabel03252501093D

 34 36  0  0  1  0  0  0  0  0999 V2000
   37.6730   30.7050   40.8790 O   0  0  0  0  0  0  0  0  0  0  0  0
   37.3370   32.6450   39.4740 C   0  0  1  0  0  0  0  0  0  0  0  0
   36.9140   31.5140   38.6370 C   0  0  0  0  0  0  0  0  0  0  0  0
   36.8210   31.4670   40.1720 C   0  0  1  0  0  0  0  0  0  0  0  0
   36.7420   33.5830   39.4110 H   0  0  0  0  0  0  0  0  0  0  0  0
   37.6600   30.7550   38.2650 H   0  0  0  0  0  0  0  0  0  0  0  0
   36.0080   31.5100   38.0330 H   0  0  0  0  0  0  0  0  0  0  0  0
   35.7590   31.3980   40.4780 H   0  0  0  0  0  0  0  0  0  0  0  0
   40.7300   33.9670   40.5220 C   0  0  0  0  0  0  0  0  0  0  0  0
   39.3550   33.7680   40.4830 C   0  0  0  0  0  0  0  0  0  0  0  0
   38.8220   32.8620   39.5440 C   0  0  0  0  0  0  0  0  0  0  0  0
   39.6630   32.2050   38.7020 N   0  0  0  0  0  0  0  0  0  0  0  0
   41.0050   32.4190   38.7620 C   0  0  0  0  0  0  0  0  0  0  0  0
   41.5360   33.2960   39.6690 N   0  0  0  0  0  0  0  0  0  0  0  0
   41.1370   34.6540   41.2340 H   0  0  0  0  0  0  0  0  0  0  0  0
   38.7260   34.3070   41.1650 H   0  0  0  0  0  0  0  0  0  0  0  0
   41.6550   31.8850   38.0820 H   0  0  0  0  0  0  0  0  0  0  0  0
   35.6640   29.0350   41.1850 O   0  0  0  0  0  0  0  0  0  0  0  0
   37.1030   29.3470   41.5930 P   0  0  2  0  0  0  0  0  0  0  0  0
   37.0920   29.3830   43.2850 O   0  0  0  0  0  0  0  0  0  0  0  0
   37.4930   28.6020   43.7090 H   0  0  0  0  0  0  0  0  0  0  0  0
   37.9810   27.9980   41.1170 O   0  0  0  0  0  0  0  0  0  0  0  0
   37.5100   26.7000   41.1640 C   0  0  0  0  0  0  0  0  0  0  0  0
   37.4490   25.8450   42.2400 C   0  0  0  0  0  0  0  0  0  0  0  0
   36.9560   24.5850   42.1350 C   0  0  0  0  0  0  0  0  0  0  0  0
   36.4960   24.1280   40.9190 C   0  0  0  0  0  0  0  0  0  0  0  0
   36.5680   25.0100   39.8420 C   0  0  0  0  0  0  0  0  0  0  0  0
   37.0700   26.2670   39.9860 N   0  0  0  0  0  0  0  0  0  0  0  0
   37.8300   26.2740   43.1740 H   0  0  0  0  0  0  0  0  0  0  0  0
   36.9300   23.9540   43.0150 H   0  0  0  0  0  0  0  0  0  0  0  0
   36.1000   23.1370   40.7990 H   0  0  0  0  0  0  0  0  0  0  0  0
   36.0860   24.5580   38.5230 C   0  0  0  0  0  0  0  0  0  0  0  0
   36.7210   24.7100   37.6610 H   0  0  0  0  0  0  0  0  0  0  0  0
   34.9580   24.0100   38.4220 O   0  0  0  0  0  0  0  0  0  0  0  0
  1 19  1  0  0  0  0
  2  5  1  6  0  0  0
  2 11  1  0  0  0  0
  2  4  1  0  0  0  0
  3  2  1  0  0  0  0
  3  4  1  0  0  0  0
  4  8  1  1  0  0  0
  4  1  1  0  0  0  0
  6  3  1  0  0  0  0
  7  3  1  0  0  0  0
  9 15  1  0  0  0  0
 10  9  1  0  0  0  0
 10 16  1  0  0  0  0
 11 10  2  0  0  0  0
 12 13  2  0  0  0  0
 12 11  1  0  0  0  0
 13 14  1  0  0  0  0
 14  9  2  0  0  0  0
 17 13  1  0  0  0  0
 19 18  2  6  0  0  0
 19 20  1  0  0  0  0
 20 21  1  0  0  0  0
 22 23  1  0  0  0  0
 22 19  1  0  0  0  0
 23 24  1  0  0  0  0
 24 29  1  0  0  0  0
 25 24  2  0  0  0  0
 25 30  1  0  0  0  0
 26 25  1  0  0  0  0
 27 28  1  0  0  0  0
 27 26  2  0  0  0  0
 28 23  2  0  0  0  0
 31 26  1  0  0  0  0
 32 27  1  0  0  0  0
 33 32  1  0  0  0  0
 34 32  2  0  0  0  0
M  END
>  <minimizedAffinity>
-5.2199297

$$$$

 OpenBabel03252501093D

 34 36  0  0  1  0  0  0  0  0999 V2000
   37.5340   29.7860   39.8010 O   0  0  0  0  0  0  0  0  0  0  0  0
   37.2500   31.5230   38.1410 C   0  0  1  0  0  0  0  0  0  0  0  0
   37.8550   30.4080   37.3990 C   0  0  0  0  0  0  0  0  0  0  0  0
   36.9770   30.1750   38.6410 C   0  0  1  0  0  0  0  0  0  0  0  0
   36.4630   32.1170   37.6270 H   0  0  0  0  0  0  0  0  0  0  0  0
   38.9150   30.0820   37.6010 H   0  0  0  0  0  0  0  0  0  0  0  0
   37.5160   30.0750   36.4190 H   0  0  0  0  0  0  0  0  0  0  0  0
   36.0590   29.6280   38.3500 H   0  0  0  0  0  0  0  0  0  0  0  0
   40.4790   33.0010   39.4650 C   0  0  0  0  0  0  0  0  0  0  0  0
   39.6000   32.2420   38.7000 C   0  0  0  0  0  0  0  0  0  0  0  0
   38.2160   32.3470   38.9450 C   0  0  0  0  0  0  0  0  0  0  0  0
   37.7740   33.1850   39.9190 N   0  0  0  0  0  0  0  0  0  0  0  0
   38.6570   33.9170   40.6520 C   0  0  0  0  0  0  0  0  0  0  0  0
   40.0030   33.8240   40.4250 N   0  0  0  0  0  0  0  0  0  0  0  0
   41.5300   32.9240   39.2810 H   0  0  0  0  0  0  0  0  0  0  0  0
   39.9900   31.5910   37.9410 H   0  0  0  0  0  0  0  0  0  0  0  0
   38.2830   34.5780   41.4220 H   0  0  0  0  0  0  0  0  0  0  0  0
   35.5970   28.6060   41.1330 O   0  0  0  0  0  0  0  0  0  0  0  0
   36.6040   29.7560   41.1460 P   0  0  2  0  0  0  0  0  0  0  0  0
   35.6850   31.1530   41.4100 O   0  0  0  0  0  0  0  0  0  0  0  0
   35.7560   31.5200   42.3100 H   0  0  0  0  0  0  0  0  0  0  0  0
   37.5330   29.4910   42.5190 O   0  0  0  0  0  0  0  0  0  0  0  0
   38.8980   29.6880   42.5910 C   0  0  0  0  0  0  0  0  0  0  0  0
   39.6020   30.8690   42.5180 C   0  0  0  0  0  0  0  0  0  0  0  0
   40.9560   30.9090   42.6050 C   0  0  0  0  0  0  0  0  0  0  0  0
   41.6680   29.7410   42.7730 C   0  0  0  0  0  0  0  0  0  0  0  0
   40.9350   28.5580   42.8440 C   0  0  0  0  0  0  0  0  0  0  0  0
   39.5770   28.5560   42.7520 N   0  0  0  0  0  0  0  0  0  0  0  0
   38.9740   31.7560   42.3850 H   0  0  0  0  0  0  0  0  0  0  0  0
   41.4600   31.8660   42.5420 H   0  0  0  0  0  0  0  0  0  0  0  0
   42.7390   29.7350   42.8450 H   0  0  0  0  0  0  0  0  0  0  0  0
   41.6600   27.2850   43.0230 C   0  0  0  0  0  0  0  0  0  0  0  0
   41.9330   26.9820   44.0240 H   0  0  0  0  0  0  0  0  0  0  0  0
   41.9470   26.5820   42.0200 O   0  0  0  0  0  0  0  0  0  0  0  0
  1 19  1  0  0  0  0
  2  5  1  6  0  0  0
  2  4  1  0  0  0  0
  2 11  1  0  0  0  0
  3  6  1  0  0  0  0
  3  2  1  0  0  0  0
  3  4  1  0  0  0  0
  4  8  1  6  0  0  0
  4  1  1  0  0  0  0
  7  3  1  0  0  0  0
  9 14  1  0  0  0  0
 10 11  1  0  0  0  0
 10  9  2  0  0  0  0
 11 12  2  0  0  0  0
 12 13  1  0  0  0  0
 13 17  1  0  0  0  0
 14 13  2  0  0  0  0
 15  9  1  0  0  0  0
 16 10  1  0  0  0  0
 19 18  2  6  0  0  0
 19 20  1  0  0  0  0
 19 22  1  0  0  0  0
 20 21  1  0  0  0  0
 22 23  1  0  0  0  0
 23 28  1  0  0  0  0
 24 23  2  0  0  0  0
 24 25  1  0  0  0  0
 25 26  2  0  0  0  0
 26 27  1  0  0  0  0
 26 31  1  0  0  0  0
 27 32  1  0  0  0  0
 28 27  2  0  0  0  0
 29 24  1  0  0  0  0
 30 25  1  0  0  0  0
 32 33  1  0  0  0  0
 34 32  2  0  0  0  0
M  END
>  <minimizedAffinity>
-5.16573524

$$$$

 OpenBabel03252501093D

 34 36  0  0  1  0  0  0  0  0999 V2000
   36.7620   29.4540   39.2320 O   0  0  0  0  0  0  0  0  0  0  0  0
   37.6820   30.8920   37.5190 C   0  0  1  0  0  0  0  0  0  0  0  0
   37.1510   29.7390   36.7780 C   0  0  0  0  0  0  0  0  0  0  0  0
   36.5530   30.1850   38.1240 C   0  0  1  0  0  0  0  0  0  0  0  0
   37.5540   31.9000   37.0650 H   0  0  0  0  0  0  0  0  0  0  0  0
   37.6210   28.7190   36.8750 H   0  0  0  0  0  0  0  0  0  0  0  0
   36.5650   29.8220   35.8640 H   0  0  0  0  0  0  0  0  0  0  0  0
   35.5110   30.5270   37.9710 H   0  0  0  0  0  0  0  0  0  0  0  0
   41.0880   29.4320   38.3150 C   0  0  0  0  0  0  0  0  0  0  0  0
   39.8560   29.6300   37.7010 C   0  0  0  0  0  0  0  0  0  0  0  0
   39.0250   30.6710   38.1580 C   0  0  0  0  0  0  0  0  0  0  0  0
   39.4440   31.4560   39.1860 N   0  0  0  0  0  0  0  0  0  0  0  0
   40.6550   31.2390   39.7680 C   0  0  0  0  0  0  0  0  0  0  0  0
   41.4720   30.2320   39.3340 N   0  0  0  0  0  0  0  0  0  0  0  0
   41.7210   28.6420   37.9690 H   0  0  0  0  0  0  0  0  0  0  0  0
   39.5620   28.9870   36.8920 H   0  0  0  0  0  0  0  0  0  0  0  0
   40.9680   31.8760   40.5840 H   0  0  0  0  0  0  0  0  0  0  0  0
   34.2250   29.2930   39.9080 O   0  0  0  0  0  0  0  0  0  0  0  0
   35.6460   29.5070   40.4280 P   0  0  2  0  0  0  0  0  0  0  0  0
   35.5930   30.9620   41.2900 O   0  0  0  0  0  0  0  0  0  0  0  0
   35.6100   30.8590   42.2590 H   0  0  0  0  0  0  0  0  0  0  0  0
   35.8840   28.2670   41.5340 O   0  0  0  0  0  0  0  0  0  0  0  0
   37.1080   27.9250   42.0750 C   0  0  0  0  0  0  0  0  0  0  0  0
   38.0590   28.7430   42.6400 C   0  0  0  0  0  0  0  0  0  0  0  0
   39.2270   28.2600   43.1340 C   0  0  0  0  0  0  0  0  0  0  0  0
   39.4880   26.9080   43.0800 C   0  0  0  0  0  0  0  0  0  0  0  0
   38.5120   26.0970   42.5040 C   0  0  0  0  0  0  0  0  0  0  0  0
   37.3520   26.6190   42.0170 N   0  0  0  0  0  0  0  0  0  0  0  0
   37.7860   29.8040   42.6500 H   0  0  0  0  0  0  0  0  0  0  0  0
   39.9410   28.9500   43.5690 H   0  0  0  0  0  0  0  0  0  0  0  0
   40.4010   26.4910   43.4610 H   0  0  0  0  0  0  0  0  0  0  0  0
   38.7540   24.6440   42.4260 C   0  0  0  0  0  0  0  0  0  0  0  0
   39.7370   24.2700   42.6720 H   0  0  0  0  0  0  0  0  0  0  0  0
   37.8230   23.8720   42.0780 O   0  0  0  0  0  0  0  0  0  0  0  0
  1 19  1  0  0  0  0
  2  5  1  6  0  0  0
  2  4  1  0  0  0  0
  2 11  1  0  0  0  0
  3  6  1  0  0  0  0
  3  2  1  0  0  0  0
  3  4  1  0  0  0  0
  4  8  1  6  0  0  0
  4  1  1  0  0  0  0
  7  3  1  0  0  0  0
  9 14  1  0  0  0  0
 10 11  1  0  0  0  0
 10  9  2  0  0  0  0
 11 12  2  0  0  0  0
 12 13  1  0  0  0  0
 13 17  1  0  0  0  0
 14 13  2  0  0  0  0
 15  9  1  0  0  0  0
 16 10  1  0  0  0  0
 19 18  2  6  0  0  0
 19 20  1  0  0  0  0
 19 22  1  0  0  0  0
 20 21  1  0  0  0  0
 22 23  1  0  0  0  0
 23 24  1  0  0  0  0
 24 29  1  0  0  0  0
 24 25  2  0  0  0  0
 25 30  1  0  0  0  0
 26 25  1  0  0  0  0
 26 31  1  0  0  0  0
 27 26  2  0  0  0  0
 28 23  2  0  0  0  0
 28 27  1  0  0  0  0
 32 27  1  0  0  0  0
 32 33  1  0  0  0  0
 34 32  2  0  0  0  0
M  END
>  <minimizedAffinity>
-5.06683016

$$$$

 OpenBabel03252501093D

 34 36  0  0  1  0  0  0  0  0999 V2000
   37.3900   28.5170   40.9710 O   0  0  0  0  0  0  0  0  0  0  0  0
   37.3780   28.1150   43.3550 C   0  0  1  0  0  0  0  0  0  0  0  0
   38.2990   29.2470   43.1830 C   0  0  0  0  0  0  0  0  0  0  0  0
   37.1410   28.9870   42.2050 C   0  0  1  0  0  0  0  0  0  0  0  0
   36.7020   28.1310   44.2390 H   0  0  0  0  0  0  0  0  0  0  0  0
   39.2900   29.1160   42.6620 H   0  0  0  0  0  0  0  0  0  0  0  0
   38.2950   30.1350   43.8130 H   0  0  0  0  0  0  0  0  0  0  0  0
   36.4170   29.8240   42.2560 H   0  0  0  0  0  0  0  0  0  0  0  0
   39.8400   25.2450   43.1040 C   0  0  0  0  0  0  0  0  0  0  0  0
   39.3070   26.4950   43.4030 C   0  0  0  0  0  0  0  0  0  0  0  0
   37.9690   26.7660   43.0570 C   0  0  0  0  0  0  0  0  0  0  0  0
   37.2320   25.8030   42.4430 N   0  0  0  0  0  0  0  0  0  0  0  0
   37.7790   24.5890   42.1630 C   0  0  0  0  0  0  0  0  0  0  0  0
   39.0780   24.3130   42.4930 N   0  0  0  0  0  0  0  0  0  0  0  0
   40.8570   25.0370   43.3660 H   0  0  0  0  0  0  0  0  0  0  0  0
   39.9240   27.2270   43.8880 H   0  0  0  0  0  0  0  0  0  0  0  0
   37.1740   23.8380   41.6740 H   0  0  0  0  0  0  0  0  0  0  0  0
   34.8850   29.0870   40.4060 O   0  0  0  0  0  0  0  0  0  0  0  0
   36.2370   28.6810   39.8210 P   0  0  2  0  0  0  0  0  0  0  0  0
   35.9310   27.2860   38.9140 O   0  0  0  0  0  0  0  0  0  0  0  0
   35.9280   27.4230   37.9480 H   0  0  0  0  0  0  0  0  0  0  0  0
   36.6230   29.9130   38.7480 O   0  0  0  0  0  0  0  0  0  0  0  0
   37.3520   31.0390   39.0780 C   0  0  0  0  0  0  0  0  0  0  0  0
   37.0320   32.0430   39.9620 C   0  0  0  0  0  0  0  0  0  0  0  0
   37.8550   33.0990   40.1850 C   0  0  0  0  0  0  0  0  0  0  0  0
   39.0560   33.1870   39.5140 C   0  0  0  0  0  0  0  0  0  0  0  0
   39.3600   32.1590   38.6240 C   0  0  0  0  0  0  0  0  0  0  0  0
   38.5080   31.1160   38.4250 N   0  0  0  0  0  0  0  0  0  0  0  0
   36.0650   31.9100   40.4590 H   0  0  0  0  0  0  0  0  0  0  0  0
   37.5540   33.8620   40.8930 H   0  0  0  0  0  0  0  0  0  0  0  0
   39.7310   34.0070   39.6660 H   0  0  0  0  0  0  0  0  0  0  0  0
   40.6360   32.2160   37.8850 C   0  0  0  0  0  0  0  0  0  0  0  0
   41.1860   33.1470   37.8750 H   0  0  0  0  0  0  0  0  0  0  0  0
   41.0580   31.1950   37.2850 O   0  0  0  0  0  0  0  0  0  0  0  0
  1  4  1  0  0  0  0
  2  5  1  1  0  0  0
  3  2  1  0  0  0  0
  3  7  1  0  0  0  0
  4  8  1  1  0  0  0
  4  3  1  0  0  0  0
  4  2  1  0  0  0  0
  6  3  1  0  0  0  0
  9 15  1  0  0  0  0
  9 10  1  0  0  0  0
 10 16  1  0  0  0  0
 11  2  1  0  0  0  0
 11 10  2  0  0  0  0
 12 11  1  0  0  0  0
 13 12  2  0  0  0  0
 13 14  1  0  0  0  0
 14  9  2  0  0  0  0
 17 13  1  0  0  0  0
 19 18  2  1  0  0  0
 19  1  1  0  0  0  0
 20 19  1  0  0  0  0
 21 20  1  0  0  0  0
 22 23  1  0  0  0  0
 22 19  1  0  0  0  0
 23 24  1  0  0  0  0
 24 25  2  0  0  0  0
 24 29  1  0  0  0  0
 25 30  1  0  0  0  0
 26 31  1  0  0  0  0
 26 25  1  0  0  0  0
 27 26  2  0  0  0  0
 28 27  1  0  0  0  0
 28 23  2  0  0  0  0
 32 27  1  0  0  0  0
 33 32  1  0  0  0  0
 34 32  2  0  0  0  0
M  END
>  <minimizedAffinity>
-4.99026728

$$$$

 OpenBabel03252501093D

 34 36  0  0  1  0  0  0  0  0999 V2000
   38.4310   30.5300   40.6460 O   0  0  0  0  0  0  0  0  0  0  0  0
   39.1940   30.0630   42.8930 C   0  0  1  0  0  0  0  0  0  0  0  0
   40.4310   30.2440   42.1200 C   0  0  0  0  0  0  0  0  0  0  0  0
   39.1170   30.9420   41.7250 C   0  0  1  0  0  0  0  0  0  0  0  0
   39.1670   30.4750   43.9260 H   0  0  0  0  0  0  0  0  0  0  0  0
   40.7350   29.5020   41.3280 H   0  0  0  0  0  0  0  0  0  0  0  0
   41.2810   30.8310   42.4630 H   0  0  0  0  0  0  0  0  0  0  0  0
   39.2370   32.0390   41.8210 H   0  0  0  0  0  0  0  0  0  0  0  0
   36.7020   27.2230   43.1780 C   0  0  0  0  0  0  0  0  0  0  0  0
   37.2750   28.4840   43.3050 C   0  0  0  0  0  0  0  0  0  0  0  0
   38.5500   28.7120   42.7530 C   0  0  0  0  0  0  0  0  0  0  0  0
   39.1890   27.6990   42.1100 N   0  0  0  0  0  0  0  0  0  0  0  0
   38.6050   26.4750   42.0010 C   0  0  0  0  0  0  0  0  0  0  0  0
   37.3660   26.2390   42.5330 N   0  0  0  0  0  0  0  0  0  0  0  0
   35.7330   27.0470   43.5970 H   0  0  0  0  0  0  0  0  0  0  0  0
   36.7370   29.2570   43.8210 H   0  0  0  0  0  0  0  0  0  0  0  0
   39.1320   25.6840   41.4850 H   0  0  0  0  0  0  0  0  0  0  0  0
   37.2350   32.8310   40.2040 O   0  0  0  0  0  0  0  0  0  0  0  0
   37.0500   31.3140   40.2490 P   0  0  2  0  0  0  0  0  0  0  0  0
   35.7530   31.0530   41.3040 O   0  0  0  0  0  0  0  0  0  0  0  0
   34.9180   30.8070   40.8650 H   0  0  0  0  0  0  0  0  0  0  0  0
   36.5420   30.9020   38.7030 O   0  0  0  0  0  0  0  0  0  0  0  0
   36.8650   29.7220   38.0620 C   0  0  0  0  0  0  0  0  0  0  0  0
   37.4980   29.5450   36.8520 C   0  0  0  0  0  0  0  0  0  0  0  0
   37.7500   28.3130   36.3420 C   0  0  0  0  0  0  0  0  0  0  0  0
   37.3700   27.1890   37.0440 C   0  0  0  0  0  0  0  0  0  0  0  0
   36.7320   27.3910   38.2660 C   0  0  0  0  0  0  0  0  0  0  0  0
   36.4940   28.6430   38.7440 N   0  0  0  0  0  0  0  0  0  0  0  0
   37.7710   30.4790   36.3500 H   0  0  0  0  0  0  0  0  0  0  0  0
   38.2520   28.2310   35.3850 H   0  0  0  0  0  0  0  0  0  0  0  0
   37.5540   26.1990   36.6710 H   0  0  0  0  0  0  0  0  0  0  0  0
   36.3080   26.2130   39.0470 C   0  0  0  0  0  0  0  0  0  0  0  0
   35.5470   26.3410   39.8040 H   0  0  0  0  0  0  0  0  0  0  0  0
   36.8330   25.0920   38.8240 O   0  0  0  0  0  0  0  0  0  0  0  0
  1  4  1  0  0  0  0
  2  5  1  1  0  0  0
  3  7  1  0  0  0  0
  3  2  1  0  0  0  0
  4  8  1  1  0  0  0
  4  3  1  0  0  0  0
  4  2  1  0  0  0  0
  6  3  1  0  0  0  0
  9 10  1  0  0  0  0
  9 15  1  0  0  0  0
 10 16  1  0  0  0  0
 11  2  1  0  0  0  0
 11 10  2  0  0  0  0
 12 11  1  0  0  0  0
 13 12  2  0  0  0  0
 13 14  1  0  0  0  0
 14  9  2  0  0  0  0
 17 13  1  0  0  0  0
 19 18  2  1  0  0  0
 19  1  1  0  0  0  0
 19 20  1  0  0  0  0
 21 20  1  0  0  0  0
 22 19  1  0  0  0  0
 23 22  1  0  0  0  0
 23 28  1  0  0  0  0
 24 23  2  0  0  0  0
 25 24  1  0  0  0  0
 25 26  2  0  0  0  0
 26 27  1  0  0  0  0
 27 28  2  0  0  0  0
 27 32  1  0  0  0  0
 29 24  1  0  0  0  0
 30 25  1  0  0  0  0
 31 26  1  0  0  0  0
 32 33  1  0  0  0  0
 34 32  2  0  0  0  0
M  END
>  <minimizedAffinity>
-4.87055826

$$$$

 OpenBabel03252501093D

 34 36  0  0  1  0  0  0  0  0999 V2000
   38.4200   30.5380   40.5830 O   0  0  0  0  0  0  0  0  0  0  0  0
   39.1350   30.1880   42.8660 C   0  0  1  0  0  0  0  0  0  0  0  0
   40.3880   30.3170   42.1090 C   0  0  0  0  0  0  0  0  0  0  0  0
   39.0890   31.0020   41.6520 C   0  0  1  0  0  0  0  0  0  0  0  0
   39.0920   30.6550   43.8750 H   0  0  0  0  0  0  0  0  0  0  0  0
   40.7010   29.5310   41.3640 H   0  0  0  0  0  0  0  0  0  0  0  0
   41.2370   30.9160   42.4370 H   0  0  0  0  0  0  0  0  0  0  0  0
   39.2160   32.1020   41.6910 H   0  0  0  0  0  0  0  0  0  0  0  0
   38.6050   26.4820   42.2770 C   0  0  0  0  0  0  0  0  0  0  0  0
   39.2310   27.7210   42.3600 C   0  0  0  0  0  0  0  0  0  0  0  0
   38.4820   28.8360   42.7850 C   0  0  0  0  0  0  0  0  0  0  0  0
   37.1710   28.6760   43.1050 N   0  0  0  0  0  0  0  0  0  0  0  0
   36.5850   27.4510   43.0140 C   0  0  0  0  0  0  0  0  0  0  0  0
   37.2990   26.3600   42.6020 N   0  0  0  0  0  0  0  0  0  0  0  0
   39.1710   25.6330   41.9550 H   0  0  0  0  0  0  0  0  0  0  0  0
   40.2690   27.8050   42.0980 H   0  0  0  0  0  0  0  0  0  0  0  0
   35.5390   27.3470   43.2730 H   0  0  0  0  0  0  0  0  0  0  0  0
   37.0530   32.6980   39.9590 O   0  0  0  0  0  0  0  0  0  0  0  0
   36.9650   31.1950   40.2230 P   0  0  2  0  0  0  0  0  0  0  0  0
   35.7860   31.0200   41.4250 O   0  0  0  0  0  0  0  0  0  0  0  0
   34.9310   30.6780   41.1060 H   0  0  0  0  0  0  0  0  0  0  0  0
   36.3440   30.5510   38.8020 O   0  0  0  0  0  0  0  0  0  0  0  0
   36.2750   29.2010   38.5190 C   0  0  0  0  0  0  0  0  0  0  0  0
   36.2130   28.1400   39.3940 C   0  0  0  0  0  0  0  0  0  0  0  0
   36.1490   26.8530   38.9660 C   0  0  0  0  0  0  0  0  0  0  0  0
   36.1430   26.5790   37.6150 C   0  0  0  0  0  0  0  0  0  0  0  0
   36.2070   27.6680   36.7480 C   0  0  0  0  0  0  0  0  0  0  0  0
   36.2710   28.9450   37.2140 N   0  0  0  0  0  0  0  0  0  0  0  0
   36.2210   28.4300   40.4500 H   0  0  0  0  0  0  0  0  0  0  0  0
   36.1010   26.0560   39.6980 H   0  0  0  0  0  0  0  0  0  0  0  0
   36.0940   25.5740   37.2410 H   0  0  0  0  0  0  0  0  0  0  0  0
   36.2040   27.4160   35.2940 C   0  0  0  0  0  0  0  0  0  0  0  0
   36.1890   26.3930   34.9460 H   0  0  0  0  0  0  0  0  0  0  0  0
   36.2200   28.3840   34.4910 O   0  0  0  0  0  0  0  0  0  0  0  0
  1  4  1  0  0  0  0
  2  5  1  1  0  0  0
  3  7  1  0  0  0  0
  3  2  1  0  0  0  0
  4  8  1  1  0  0  0
  4  3  1  0  0  0  0
  4  2  1  0  0  0  0
  6  3  1  0  0  0  0
  9 10  2  0  0  0  0
  9 14  1  0  0  0  0
 10 11  1  0  0  0  0
 11  2  1  0  0  0  0
 11 12  2  0  0  0  0
 13 12  1  0  0  0  0
 13 17  1  0  0  0  0
 14 13  2  0  0  0  0
 15  9  1  0  0  0  0
 16 10  1  0  0  0  0
 19 18  2  6  0  0  0
 19  1  1  0  0  0  0
 19 20  1  0  0  0  0
 21 20  1  0  0  0  0
 22 19  1  0  0  0  0
 23 22  1  0  0  0  0
 23 24  1  0  0  0  0
 24 29  1  0  0  0  0
 25 24  2  0  0  0  0
 25 30  1  0  0  0  0
 26 25  1  0  0  0  0
 27 28  1  0  0  0  0
 27 26  2  0  0  0  0
 28 23  2  0  0  0  0
 31 26  1  0  0  0  0
 32 27  1  0  0  0  0
 33 32  1  0  0  0  0
 34 32  2  0  0  0  0
M  END
>  <minimizedAffinity>
-4.86255169

$$$$

 OpenBabel03252501093D

 34 36  0  0  1  0  0  0  0  0999 V2000
   37.2860   29.0320   39.0550 O   0  0  0  0  0  0  0  0  0  0  0  0
   35.6780   28.6860   40.8280 C   0  0  1  0  0  0  0  0  0  0  0  0
   35.7800   30.1470   40.7120 C   0  0  0  0  0  0  0  0  0  0  0  0
   36.0360   29.2170   39.5130 C   0  0  1  0  0  0  0  0  0  0  0  0
   34.6700   28.2540   41.0190 H   0  0  0  0  0  0  0  0  0  0  0  0
   36.7270   30.6880   40.9980 H   0  0  0  0  0  0  0  0  0  0  0  0
   34.9230   30.8180   40.7110 H   0  0  0  0  0  0  0  0  0  0  0  0
   35.2680   29.3960   38.7350 H   0  0  0  0  0  0  0  0  0  0  0  0
   38.5890   28.1770   43.2000 C   0  0  0  0  0  0  0  0  0  0  0  0
   37.5580   28.7960   42.5010 C   0  0  0  0  0  0  0  0  0  0  0  0
   36.7850   28.0320   41.6050 C   0  0  0  0  0  0  0  0  0  0  0  0
   37.0630   26.7110   41.4450 N   0  0  0  0  0  0  0  0  0  0  0  0
   38.0780   26.1310   42.1420 C   0  0  0  0  0  0  0  0  0  0  0  0
   38.8360   26.8610   43.0150 N   0  0  0  0  0  0  0  0  0  0  0  0
   39.1770   28.7550   43.8810 H   0  0  0  0  0  0  0  0  0  0  0  0
   37.3720   29.8420   42.6560 H   0  0  0  0  0  0  0  0  0  0  0  0
   38.2810   25.0780   41.9990 H   0  0  0  0  0  0  0  0  0  0  0  0
   36.8370   29.0690   36.4630 O   0  0  0  0  0  0  0  0  0  0  0  0
   37.6850   29.6500   37.5940 P   0  0  2  0  0  0  0  0  0  0  0  0
   39.2910   29.3940   37.1250 O   0  0  0  0  0  0  0  0  0  0  0  0
   39.7550   30.1930   36.8140 H   0  0  0  0  0  0  0  0  0  0  0  0
   37.3950   31.3030   37.5350 O   0  0  0  0  0  0  0  0  0  0  0  0
   37.9290   32.2230   38.4160 C   0  0  0  0  0  0  0  0  0  0  0  0
   37.2770   33.1730   39.1690 C   0  0  0  0  0  0  0  0  0  0  0  0
   37.9410   34.0170   39.9990 C   0  0  0  0  0  0  0  0  0  0  0  0
   39.3120   33.9370   40.1070 C   0  0  0  0  0  0  0  0  0  0  0  0
   39.9520   32.9690   39.3360 C   0  0  0  0  0  0  0  0  0  0  0  0
   39.2530   32.1400   38.5130 N   0  0  0  0  0  0  0  0  0  0  0  0
   36.1900   33.1810   39.0350 H   0  0  0  0  0  0  0  0  0  0  0  0
   37.3770   34.7460   40.5700 H   0  0  0  0  0  0  0  0  0  0  0  0
   39.8690   34.5890   40.7530 H   0  0  0  0  0  0  0  0  0  0  0  0
   41.4200   32.8510   39.4220 C   0  0  0  0  0  0  0  0  0  0  0  0
   41.9620   32.5000   38.5550 H   0  0  0  0  0  0  0  0  0  0  0  0
   42.0110   33.1560   40.4890 O   0  0  0  0  0  0  0  0  0  0  0  0
  1  4  1  0  0  0  0
  2  5  1  1  0  0  0
  2 11  1  0  0  0  0
  3  2  1  0  0  0  0
  3  6  1  0  0  0  0
  4  8  1  6  0  0  0
  4  3  1  0  0  0  0
  4  2  1  0  0  0  0
  7  3  1  0  0  0  0
  9 15  1  0  0  0  0
 10 16  1  0  0  0  0
 10  9  2  0  0  0  0
 11 10  1  0  0  0  0
 12 11  2  0  0  0  0
 12 13  1  0  0  0  0
 13 14  2  0  0  0  0
 14  9  1  0  0  0  0
 17 13  1  0  0  0  0
 19 18  2  6  0  0  0
 19  1  1  0  0  0  0
 20 19  1  0  0  0  0
 21 20  1  0  0  0  0
 22 19  1  0  0  0  0
 22 23  1  0  0  0  0
 23 28  2  0  0  0  0
 23 24  1  0  0  0  0
 24 25  2  0  0  0  0
 25 26  1  0  0  0  0
 25 30  1  0  0  0  0
 26 31  1  0  0  0  0
 27 32  1  0  0  0  0
 27 26  2  0  0  0  0
 28 27  1  0  0  0  0
 29 24  1  0  0  0  0
 32 34  2  0  0  0  0
 33 32  1  0  0  0  0
M  END
>  <minimizedAffinity>
-4.83236551

$$$$
