
 OpenBabel03252501053D

 34 36  0  0  1  0  0  0  0  0999 V2000
   47.7220   34.1710   39.7920 O   0  0  0  0  0  0  0  0  0  0  0  0
   48.0800   35.4590   41.8080 C   0  0  1  0  0  0  0  0  0  0  0  0
   49.3080   34.6650   41.6620 C   0  0  0  0  0  0  0  0  0  0  0  0
   48.4620   35.0820   40.4460 C   0  0  1  0  0  0  0  0  0  0  0  0
   48.1840   36.5070   42.1650 H   0  0  0  0  0  0  0  0  0  0  0  0
   49.2930   33.5440   41.7850 H   0  0  0  0  0  0  0  0  0  0  0  0
   50.3110   35.0670   41.7960 H   0  0  0  0  0  0  0  0  0  0  0  0
   49.0500   35.7660   39.8030 H   0  0  0  0  0  0  0  0  0  0  0  0
   46.0460   32.9400   43.7770 C   0  0  0  0  0  0  0  0  0  0  0  0
   47.1390   33.6210   43.2510 C   0  0  0  0  0  0  0  0  0  0  0  0
   46.9130   34.7200   42.3990 C   0  0  0  0  0  0  0  0  0  0  0  0
   45.6370   35.0900   42.1130 N   0  0  0  0  0  0  0  0  0  0  0  0
   44.5860   34.4050   42.6420 C   0  0  0  0  0  0  0  0  0  0  0  0
   44.7910   33.3350   43.4700 N   0  0  0  0  0  0  0  0  0  0  0  0
   46.2140   32.1050   44.4240 H   0  0  0  0  0  0  0  0  0  0  0  0
   48.1310   33.2960   43.5020 H   0  0  0  0  0  0  0  0  0  0  0  0
   43.5790   34.7170   42.4000 H   0  0  0  0  0  0  0  0  0  0  0  0
   48.5460   32.3830   38.0470 O   0  0  0  0  0  0  0  0  0  0  0  0
   48.0940   33.8300   38.2360 P   0  0  2  0  0  0  0  0  0  0  0  0
   49.3330   34.7760   37.5750 O   0  0  0  0  0  0  0  0  0  0  0  0
   49.1230   35.1720   36.7100 H   0  0  0  0  0  0  0  0  0  0  0  0
   46.7490   33.9880   37.2430 O   0  0  0  0  0  0  0  0  0  0  0  0
   45.7330   33.0570   37.1490 C   0  0  0  0  0  0  0  0  0  0  0  0
   45.5840   32.0340   36.2410 C   0  0  0  0  0  0  0  0  0  0  0  0
   44.5210   31.1900   36.2710 C   0  0  0  0  0  0  0  0  0  0  0  0
   43.5480   31.3460   37.2340 C   0  0  0  0  0  0  0  0  0  0  0  0
   43.7180   32.3890   38.1430 C   0  0  0  0  0  0  0  0  0  0  0  0
   44.7980   33.2160   38.0810 N   0  0  0  0  0  0  0  0  0  0  0  0
   46.3920   31.9680   35.5050 H   0  0  0  0  0  0  0  0  0  0  0  0
   44.4540   30.4000   35.5320 H   0  0  0  0  0  0  0  0  0  0  0  0
   42.6940   30.6980   37.2880 H   0  0  0  0  0  0  0  0  0  0  0  0
   42.6980   32.5900   39.1900 C   0  0  0  0  0  0  0  0  0  0  0  0
   42.8410   32.1120   40.1490 H   0  0  0  0  0  0  0  0  0  0  0  0
   41.6910   33.3040   38.9540 O   0  0  0  0  0  0  0  0  0  0  0  0
  1  4  1  0  0  0  0
  2  5  1  1  0  0  0
  2 11  1  0  0  0  0
  3  6  1  0  0  0  0
  3  7  1  0  0  0  0
  3  2  1  0  0  0  0
  4  8  1  6  0  0  0
  4  3  1  0  0  0  0
  4  2  1  0  0  0  0
  9 15  1  0  0  0  0
 10 16  1  0  0  0  0
 10  9  2  0  0  0  0
 11 10  1  0  0  0  0
 12 11  2  0  0  0  0
 12 13  1  0  0  0  0
 13 14  2  0  0  0  0
 14  9  1  0  0  0  0
 17 13  1  0  0  0  0
 19 18  2  6  0  0  0
 19  1  1  0  0  0  0
 20 19  1  0  0  0  0
 21 20  1  0  0  0  0
 22 19  1  0  0  0  0
 23 22  1  0  0  0  0
 23 28  1  0  0  0  0
 24 25  1  0  0  0  0
 24 23  2  0  0  0  0
 25 26  2  0  0  0  0
 26 31  1  0  0  0  0
 26 27  1  0  0  0  0
 27 32  1  0  0  0  0
 28 27  2  0  0  0  0
 29 24  1  0  0  0  0
 30 25  1  0  0  0  0
 32 33  1  0  0  0  0
 34 32  2  0  0  0  0
M  END
>  <minimizedAffinity>
-4.38032055

>  <minimizedRMSD>
0.318644762

$$$$
