
 OpenBabel03252509133D

 39 42  0  0  1  0  0  0  0  0999 V2000
   47.4600   32.5490   44.2820 C   0  0  0  0  0  0  0  0  0  0  0  0
   46.7730   33.5210   43.5610 C   0  0  0  0  0  0  0  0  0  0  0  0
   45.7460   34.2690   44.1110 C   0  0  0  0  0  0  0  0  0  0  0  0
   45.3700   34.0550   45.4410 C   0  0  0  0  0  0  0  0  0  0  0  0
   44.4590   34.5680   46.2750 N   0  0  0  0  0  0  0  0  0  0  0  0
   44.5300   33.9810   47.4730 C   0  0  0  0  0  0  0  0  0  0  0  0
   45.5250   33.0730   47.3650 N   0  0  0  0  0  0  0  0  0  0  0  0
   46.0610   33.0940   46.1260 C   0  0  0  0  0  0  0  0  0  0  0  0
   47.0940   32.3250   45.6120 C   0  0  0  0  0  0  0  0  0  0  0  0
   48.2640   31.9690   43.8350 H   0  0  0  0  0  0  0  0  0  0  0  0
   43.7830   35.3280   46.0220 H   0  0  0  0  0  0  0  0  0  0  0  0
   43.9230   34.1790   48.3610 H   0  0  0  0  0  0  0  0  0  0  0  0
   47.5980   31.5820   46.2110 H   0  0  0  0  0  0  0  0  0  0  0  0
   47.0020   33.1320   39.9260 C   0  0  0  0  0  0  0  0  0  0  0  0
   47.8340   34.1900   39.5540 C   0  0  0  0  0  0  0  0  0  0  0  0
   48.3120   35.0350   40.5600 C   0  0  0  0  0  0  0  0  0  0  0  0
   47.9490   34.7940   41.8630 N   0  0  0  0  0  0  0  0  0  0  0  0
   47.1480   33.7620   42.1670 C   0  0  0  0  0  0  0  0  0  0  0  0
   46.6600   32.9170   41.2250 N   0  0  0  0  0  0  0  0  0  0  0  0
   46.5860   32.4270   39.2120 H   0  0  0  0  0  0  0  0  0  0  0  0
   48.0550   34.2910   38.5180 H   0  0  0  0  0  0  0  0  0  0  0  0
   48.9490   35.8490   40.2860 H   0  0  0  0  0  0  0  0  0  0  0  0
   44.8840   35.5050   43.1660 S   0  0  0  0  0  0  0  0  0  0  0  0
   42.3630   35.4600   42.4390 N   0  0  0  0  0  0  0  0  0  0  0  0
   43.6190   34.8290   42.0680 C   0  0  1  0  0  0  0  0  0  0  0  0
   44.0360   35.2360   40.6540 C   0  0  0  0  0  0  0  0  0  0  0  0
   42.9880   35.2220   39.7560 O   0  0  0  0  0  0  0  0  0  0  0  0
   41.8280   34.6330   40.1920 C   0  0  0  0  0  0  0  0  0  0  0  0
   41.3560   35.3520   41.4330 C   0  0  1  0  0  0  0  0  0  0  0  0
   42.1060   35.1140   43.3680 H   0  0  0  0  0  0  0  0  0  0  0  0
   43.5790   33.7300   42.1940 H   0  0  0  0  0  0  0  0  0  0  0  0
   44.7330   34.4940   40.2740 H   0  0  0  0  0  0  0  0  0  0  0  0
   44.5360   36.2110   40.6530 H   0  0  0  0  0  0  0  0  0  0  0  0
   41.9540   33.5730   40.4750 H   0  0  0  0  0  0  0  0  0  0  0  0
   41.0780   34.7340   39.4110 H   0  0  0  0  0  0  0  0  0  0  0  0
   40.9940   36.3600   41.1090 H   0  0  0  0  0  0  0  0  0  0  0  0
   40.2100   34.5900   42.0040 C   0  0  0  0  0  0  0  0  0  0  0  0
   39.4310   34.9720   42.6410 H   0  0  0  0  0  0  0  0  0  0  0  0
   40.1620   33.4170   41.7110 O   0  0  0  0  0  0  0  0  0  0  0  0
  1  9  1  0  0  0  0
  2  3  1  0  0  0  0
  2  1  2  0  0  0  0
  3  4  2  0  0  0  0
  4  8  1  0  0  0  0
  4  5  1  0  0  0  0
  5  6  1  0  0  0  0
  6 12  1  0  0  0  0
  7  6  2  0  0  0  0
  8  7  1  0  0  0  0
  9  8  2  0  0  0  0
  9 13  1  0  0  0  0
 10  1  1  0  0  0  0
 11  5  1  0  0  0  0
 14 19  1  0  0  0  0
 15 14  2  0  0  0  0
 15 16  1  0  0  0  0
 16 17  2  0  0  0  0
 17 18  1  0  0  0  0
 18  2  1  0  0  0  0
 19 18  2  0  0  0  0
 20 14  1  0  0  0  0
 21 15  1  0  0  0  0
 22 16  1  0  0  0  0
 23  3  1  0  0  0  0
 24 30  1  0  0  0  0
 25 31  1  1  0  0  0
 25 24  1  0  0  0  0
 25 23  1  0  0  0  0
 26 25  1  0  0  0  0
 27 28  1  0  0  0  0
 27 26  1  0  0  0  0
 28 34  1  0  0  0  0
 28 29  1  0  0  0  0
 29 36  1  6  0  0  0
 29 37  1  0  0  0  0
 29 24  1  0  0  0  0
 32 26  1  0  0  0  0
 33 26  1  0  0  0  0
 35 28  1  0  0  0  0
 37 38  1  0  0  0  0
 39 37  2  0  0  0  0
M  END
>  <minimizedAffinity>
-5.71430635

>  <minimizedRMSD>
0.278647125

$$$$
