
 OpenBabel03252509133D

 39 42  0  0  1  0  0  0  0  0999 V2000
   47.4860   32.7110   43.7800 C   0  0  0  0  0  0  0  0  0  0  0  0
   46.7220   33.5460   42.9700 C   0  0  0  0  0  0  0  0  0  0  0  0
   45.6600   34.2880   43.4560 C   0  0  0  0  0  0  0  0  0  0  0  0
   45.3260   34.2110   44.8130 C   0  0  0  0  0  0  0  0  0  0  0  0
   44.4020   34.7630   45.6060 N   0  0  0  0  0  0  0  0  0  0  0  0
   44.5350   34.3290   46.8630 C   0  0  0  0  0  0  0  0  0  0  0  0
   45.5860   33.4780   46.8330 N   0  0  0  0  0  0  0  0  0  0  0  0
   46.0930   33.3840   45.5870 C   0  0  0  0  0  0  0  0  0  0  0  0
   47.1630   32.6260   45.1370 C   0  0  0  0  0  0  0  0  0  0  0  0
   48.3170   32.1330   43.3830 H   0  0  0  0  0  0  0  0  0  0  0  0
   43.6720   35.4430   45.2840 H   0  0  0  0  0  0  0  0  0  0  0  0
   43.9350   34.5930   47.7370 H   0  0  0  0  0  0  0  0  0  0  0  0
   47.7270   31.9920   45.8060 H   0  0  0  0  0  0  0  0  0  0  0  0
   46.8040   32.8070   39.3830 C   0  0  0  0  0  0  0  0  0  0  0  0
   47.6520   33.7970   38.8830 C   0  0  0  0  0  0  0  0  0  0  0  0
   48.1910   34.7180   39.7870 C   0  0  0  0  0  0  0  0  0  0  0  0
   47.8710   34.6130   41.1180 N   0  0  0  0  0  0  0  0  0  0  0  0
   47.0510   33.6410   41.5470 C   0  0  0  0  0  0  0  0  0  0  0  0
   46.5050   32.7260   40.7080 N   0  0  0  0  0  0  0  0  0  0  0  0
   46.3410   32.0510   38.7550 H   0  0  0  0  0  0  0  0  0  0  0  0
   47.8370   33.7930   37.8340 H   0  0  0  0  0  0  0  0  0  0  0  0
   48.8410   35.4810   39.4140 H   0  0  0  0  0  0  0  0  0  0  0  0
   44.6990   35.3460   42.3980 S   0  0  0  0  0  0  0  0  0  0  0  0
   42.3550   34.2220   42.0430 N   0  0  0  0  0  0  0  0  0  0  0  0
   43.5820   34.4510   41.2970 C   0  0  1  0  0  0  0  0  0  0  0  0
   43.3310   35.3830   40.1110 C   0  0  0  0  0  0  0  0  0  0  0  0
   42.1740   35.0830   39.4220 O   0  0  0  0  0  0  0  0  0  0  0  0
   41.5730   33.8920   39.7410 C   0  0  0  0  0  0  0  0  0  0  0  0
   41.2400   33.8960   41.2140 C   0  0  1  0  0  0  0  0  0  0  0  0
   42.5680   33.5540   42.7890 H   0  0  0  0  0  0  0  0  0  0  0  0
   44.0590   33.5000   40.9900 H   0  0  0  0  0  0  0  0  0  0  0  0
   44.1280   35.2390   39.3860 H   0  0  0  0  0  0  0  0  0  0  0  0
   43.3360   36.4330   40.4240 H   0  0  0  0  0  0  0  0  0  0  0  0
   42.2220   33.0140   39.5710 H   0  0  0  0  0  0  0  0  0  0  0  0
   40.6550   33.8050   39.1650 H   0  0  0  0  0  0  0  0  0  0  0  0
   40.4000   34.6210   41.3570 H   0  0  0  0  0  0  0  0  0  0  0  0
   40.7670   32.5330   41.5870 C   0  0  0  0  0  0  0  0  0  0  0  0
   41.3250   31.6150   41.5280 H   0  0  0  0  0  0  0  0  0  0  0  0
   39.6320   32.4670   42.0010 O   0  0  0  0  0  0  0  0  0  0  0  0
  1  9  1  0  0  0  0
  2  3  1  0  0  0  0
  2  1  2  0  0  0  0
  3  4  2  0  0  0  0
  4  8  1  0  0  0  0
  4  5  1  0  0  0  0
  5  6  1  0  0  0  0
  6 12  1  0  0  0  0
  7  6  2  0  0  0  0
  8  7  1  0  0  0  0
  9  8  2  0  0  0  0
  9 13  1  0  0  0  0
 10  1  1  0  0  0  0
 11  5  1  0  0  0  0
 14 19  1  0  0  0  0
 15 14  2  0  0  0  0
 15 16  1  0  0  0  0
 16 17  2  0  0  0  0
 17 18  1  0  0  0  0
 18  2  1  0  0  0  0
 19 18  2  0  0  0  0
 20 14  1  0  0  0  0
 21 15  1  0  0  0  0
 22 16  1  0  0  0  0
 23  3  1  0  0  0  0
 24 30  1  0  0  0  0
 25 31  1  6  0  0  0
 25 24  1  0  0  0  0
 25 23  1  0  0  0  0
 26 33  1  0  0  0  0
 26 25  1  0  0  0  0
 27 28  1  0  0  0  0
 27 26  1  0  0  0  0
 28 29  1  0  0  0  0
 29 36  1  1  0  0  0
 29 37  1  0  0  0  0
 29 24  1  0  0  0  0
 32 26  1  0  0  0  0
 34 28  1  0  0  0  0
 35 28  1  0  0  0  0
 37 39  2  0  0  0  0
 38 37  1  0  0  0  0
M  END
>  <minimizedAffinity>
-5.20813799

>  <minimizedRMSD>
1.19739521

$$$$
