
 OpenBabel03252509133D

 39 42  0  0  1  0  0  0  0  0999 V2000
   47.4230   32.5670   44.2290 C   0  0  0  0  0  0  0  0  0  0  0  0
   46.7200   33.5090   43.4840 C   0  0  0  0  0  0  0  0  0  0  0  0
   45.6930   34.2660   44.0200 C   0  0  0  0  0  0  0  0  0  0  0  0
   45.3330   34.0950   45.3610 C   0  0  0  0  0  0  0  0  0  0  0  0
   44.4280   34.6290   46.1880 N   0  0  0  0  0  0  0  0  0  0  0  0
   44.5170   34.0830   47.4040 C   0  0  0  0  0  0  0  0  0  0  0  0
   45.5190   33.1800   47.3150 N   0  0  0  0  0  0  0  0  0  0  0  0
   46.0410   33.1630   46.0700 C   0  0  0  0  0  0  0  0  0  0  0  0
   47.0740   32.3860   45.5700 C   0  0  0  0  0  0  0  0  0  0  0  0
   48.2270   31.9790   43.7940 H   0  0  0  0  0  0  0  0  0  0  0  0
   43.7420   35.3740   45.9170 H   0  0  0  0  0  0  0  0  0  0  0  0
   43.9190   34.3060   48.2910 H   0  0  0  0  0  0  0  0  0  0  0  0
   47.5910   31.6680   46.1890 H   0  0  0  0  0  0  0  0  0  0  0  0
   46.9340   32.9830   39.8650 C   0  0  0  0  0  0  0  0  0  0  0  0
   47.7310   34.0500   39.4450 C   0  0  0  0  0  0  0  0  0  0  0  0
   48.1910   34.9470   40.4130 C   0  0  0  0  0  0  0  0  0  0  0  0
   47.8450   34.7470   41.7270 N   0  0  0  0  0  0  0  0  0  0  0  0
   47.0770   33.7050   42.0790 C   0  0  0  0  0  0  0  0  0  0  0  0
   46.6080   32.8090   41.1750 N   0  0  0  0  0  0  0  0  0  0  0  0
   46.5330   32.2390   39.1840 H   0  0  0  0  0  0  0  0  0  0  0  0
   47.9410   34.1160   38.4040 H   0  0  0  0  0  0  0  0  0  0  0  0
   48.8020   35.7680   40.1020 H   0  0  0  0  0  0  0  0  0  0  0  0
   44.8100   35.4630   43.0450 S   0  0  0  0  0  0  0  0  0  0  0  0
   42.3170   35.3510   42.2330 N   0  0  0  0  0  0  0  0  0  0  0  0
   43.5960   34.7330   41.9240 C   0  0  1  0  0  0  0  0  0  0  0  0
   44.0550   35.1070   40.5130 C   0  0  0  0  0  0  0  0  0  0  0  0
   43.0400   35.0480   39.5810 O   0  0  0  0  0  0  0  0  0  0  0  0
   41.8750   34.4510   39.9930 C   0  0  0  0  0  0  0  0  0  0  0  0
   41.3480   35.1960   41.1960 C   0  0  1  0  0  0  0  0  0  0  0  0
   42.0340   35.0260   43.1620 H   0  0  0  0  0  0  0  0  0  0  0  0
   43.5710   33.6370   42.0800 H   0  0  0  0  0  0  0  0  0  0  0  0
   44.7780   34.3680   40.1790 H   0  0  0  0  0  0  0  0  0  0  0  0
   44.5370   36.0910   40.5010 H   0  0  0  0  0  0  0  0  0  0  0  0
   42.0100   33.4010   40.3110 H   0  0  0  0  0  0  0  0  0  0  0  0
   41.1510   34.5150   39.1840 H   0  0  0  0  0  0  0  0  0  0  0  0
   40.9790   36.1870   40.8310 H   0  0  0  0  0  0  0  0  0  0  0  0
   40.1960   34.4290   41.7490 C   0  0  0  0  0  0  0  0  0  0  0  0
   39.4440   33.8990   41.1920 H   0  0  0  0  0  0  0  0  0  0  0  0
   40.1080   34.4100   42.9560 O   0  0  0  0  0  0  0  0  0  0  0  0
  1  9  1  0  0  0  0
  2  3  1  0  0  0  0
  2  1  2  0  0  0  0
  3  4  2  0  0  0  0
  4  8  1  0  0  0  0
  4  5  1  0  0  0  0
  5  6  1  0  0  0  0
  6 12  1  0  0  0  0
  7  6  2  0  0  0  0
  8  7  1  0  0  0  0
  9  8  2  0  0  0  0
  9 13  1  0  0  0  0
 10  1  1  0  0  0  0
 11  5  1  0  0  0  0
 14 19  1  0  0  0  0
 15 14  2  0  0  0  0
 15 16  1  0  0  0  0
 16 17  2  0  0  0  0
 17 18  1  0  0  0  0
 18  2  1  0  0  0  0
 19 18  2  0  0  0  0
 20 14  1  0  0  0  0
 21 15  1  0  0  0  0
 22 16  1  0  0  0  0
 23  3  1  0  0  0  0
 24 30  1  0  0  0  0
 25 31  1  1  0  0  0
 25 24  1  0  0  0  0
 25 23  1  0  0  0  0
 26 25  1  0  0  0  0
 27 28  1  0  0  0  0
 27 26  1  0  0  0  0
 28 34  1  0  0  0  0
 28 29  1  0  0  0  0
 29 36  1  6  0  0  0
 29 37  1  0  0  0  0
 29 24  1  0  0  0  0
 32 26  1  0  0  0  0
 33 26  1  0  0  0  0
 35 28  1  0  0  0  0
 37 39  2  0  0  0  0
 38 37  1  0  0  0  0
M  END
>  <minimizedAffinity>
-5.0783844

>  <minimizedRMSD>
0.453163087

$$$$
