
 OpenBabel03252505063D

 37 39  0  0  1  0  0  0  0  0999 V2000
   44.5760   35.5860   44.6140 C   0  0  0  0  0  0  0  0  0  0  0  0
   45.2300   35.5990   43.3530 C   0  0  0  0  0  0  0  0  0  0  0  0
   46.3070   34.6930   43.1770 C   0  0  0  0  0  0  0  0  0  0  0  0
   46.6590   33.8700   44.1990 N   0  0  0  0  0  0  0  0  0  0  0  0
   46.0120   33.8920   45.3750 C   0  0  0  0  0  0  0  0  0  0  0  0
   44.9660   34.7510   45.5900 N   0  0  0  0  0  0  0  0  0  0  0  0
   43.7550   36.2790   44.7440 H   0  0  0  0  0  0  0  0  0  0  0  0
   44.9250   36.2660   42.5590 H   0  0  0  0  0  0  0  0  0  0  0  0
   46.4430   32.9720   46.4630 C   0  0  2  0  0  0  0  0  0  0  0  0
   46.9620   31.7450   45.7680 C   0  0  0  0  0  0  0  0  0  0  0  0
   46.0910   30.5580   45.7830 C   0  0  0  0  0  0  0  0  0  0  0  0
   45.8030   30.2950   47.2640 C   0  0  0  0  0  0  0  0  0  0  0  0
   45.0130   31.3640   47.8650 C   0  0  0  0  0  0  0  0  0  0  0  0
   45.3830   32.7330   47.4160 C   0  0  0  0  0  0  0  0  0  0  0  0
   47.2850   33.4940   46.9620 H   0  0  0  0  0  0  0  0  0  0  0  0
   47.9260   31.4590   46.2590 H   0  0  0  0  0  0  0  0  0  0  0  0
   47.2560   31.9440   44.7100 H   0  0  0  0  0  0  0  0  0  0  0  0
   46.6720   29.6990   45.4120 H   0  0  0  0  0  0  0  0  0  0  0  0
   45.1600   30.6470   45.1990 H   0  0  0  0  0  0  0  0  0  0  0  0
   46.7720   30.2040   47.7600 H   0  0  0  0  0  0  0  0  0  0  0  0
   45.1690   29.4000   47.2600 H   0  0  0  0  0  0  0  0  0  0  0  0
   44.2020   31.3490   48.5800 H   0  0  0  0  0  0  0  0  0  0  0  0
   44.6810   33.8750   47.9280 N   0  0  0  0  0  0  0  0  0  0  0  0
   45.0700   34.5050   48.6590 H   0  0  0  0  0  0  0  0  0  0  0  0
   43.7220   34.0740   47.5340 H   0  0  0  0  0  0  0  0  0  0  0  0
   47.0000   34.6720   41.8990 C   0  0  0  0  0  0  0  0  0  0  0  0
   48.1450   35.3920   41.7690 C   0  0  0  0  0  0  0  0  0  0  0  0
   48.7810   35.3420   40.5150 C   0  0  0  0  0  0  0  0  0  0  0  0
   48.1810   34.5690   39.5460 C   0  0  0  0  0  0  0  0  0  0  0  0
   47.0320   33.8470   39.6770 C   0  0  0  0  0  0  0  0  0  0  0  0
   46.4590   33.9320   40.9120 N   0  0  0  0  0  0  0  0  0  0  0  0
   48.6100   35.9970   42.5350 H   0  0  0  0  0  0  0  0  0  0  0  0
   49.6940   35.8890   40.3390 H   0  0  0  0  0  0  0  0  0  0  0  0
   48.6870   34.5450   38.5870 H   0  0  0  0  0  0  0  0  0  0  0  0
   46.4690   33.0640   38.6140 C   0  0  0  0  0  0  0  0  0  0  0  0
   45.8640   32.1930   38.8300 H   0  0  0  0  0  0  0  0  0  0  0  0
   46.7000   33.4190   37.4260 O   0  0  0  0  0  0  0  0  0  0  0  0
  1  7  1  0  0  0  0
  1  6  1  0  0  0  0
  2  1  2  0  0  0  0
  3  2  1  0  0  0  0
  3  4  2  0  0  0  0
  4  5  1  0  0  0  0
  5  6  2  0  0  0  0
  5  9  1  0  0  0  0
  8  2  1  0  0  0  0
  9 15  1  1  0  0  0
  9 14  1  0  0  0  0
 10 11  1  0  0  0  0
 10 16  1  0  0  0  0
 10  9  1  0  0  0  0
 11 12  1  0  0  0  0
 12 20  1  0  0  0  0
 12 13  1  0  0  0  0
 13 22  1  0  0  0  0
 14 13  2  0  0  0  0
 14 23  1  0  0  0  0
 17 10  1  0  0  0  0
 18 11  1  0  0  0  0
 19 11  1  0  0  0  0
 21 12  1  0  0  0  0
 23 24  1  0  0  0  0
 25 23  1  0  0  0  0
 26  3  1  0  0  0  0
 27 26  1  0  0  0  0
 27 32  1  0  0  0  0
 28 27  2  0  0  0  0
 29 30  2  0  0  0  0
 29 28  1  0  0  0  0
 30 31  1  0  0  0  0
 31 26  2  0  0  0  0
 33 28  1  0  0  0  0
 34 29  1  0  0  0  0
 35 36  1  0  0  0  0
 35 30  1  0  0  0  0
 37 35  2  0  0  0  0
M  END
>  <minimizedAffinity>
-6.8413868

>  <minimizedRMSD>
0.0688522458

$$$$
