
 OpenBabel03252506323D

 26 27  0  0  1  0  0  0  0  0999 V2000
   40.6630   25.0240   42.9580 C   0  0  0  0  0  0  0  0  0  0  0  0
   41.8380   25.6380   43.3770 C   0  0  0  0  0  0  0  0  0  0  0  0
   41.7920   26.9780   43.6720 C   0  0  0  0  0  0  0  0  0  0  0  0
   40.5980   27.6310   43.5370 N   0  0  0  0  0  0  0  0  0  0  0  0
   39.4930   27.0080   43.1330 C   0  0  0  0  0  0  0  0  0  0  0  0
   39.5020   25.6880   42.8340 N   0  0  0  0  0  0  0  0  0  0  0  0
   38.2920   27.7580   43.0190 N   0  0  0  0  0  0  0  0  0  0  0  0
   36.9530   27.1870   42.8770 C   0  0  0  0  0  0  0  0  0  0  0  0
   36.3080   28.1440   41.9110 C   0  0  0  0  0  0  0  0  0  0  0  0
   37.2040   29.3650   41.8400 C   0  0  0  0  0  0  0  0  0  0  0  0
   38.1110   29.1890   43.0170 C   0  0  2  0  0  0  0  0  0  0  0  0
   40.6440   23.9720   42.7140 H   0  0  0  0  0  0  0  0  0  0  0  0
   42.6990   27.4250   43.9900 H   0  0  0  0  0  0  0  0  0  0  0  0
   37.0460   26.1820   42.4440 H   0  0  0  0  0  0  0  0  0  0  0  0
   36.4310   27.1320   43.8560 H   0  0  0  0  0  0  0  0  0  0  0  0
   35.3220   28.4530   42.3430 H   0  0  0  0  0  0  0  0  0  0  0  0
   36.1680   27.7370   40.9040 H   0  0  0  0  0  0  0  0  0  0  0  0
   37.7590   29.4300   40.9070 H   0  0  0  0  0  0  0  0  0  0  0  0
   36.6160   30.2970   42.0180 H   0  0  0  0  0  0  0  0  0  0  0  0
   37.7110   29.5690   43.9780 H   0  0  0  0  0  0  0  0  0  0  0  0
   42.9950   24.7860   43.4580 N   0  0  0  0  0  0  0  0  0  0  0  0
   43.1040   24.0100   42.7790 H   0  0  0  0  0  0  0  0  0  0  0  0
   43.6360   25.0750   44.2550 H   0  0  0  0  0  0  0  0  0  0  0  0
   39.4070   29.8320   42.6680 C   0  0  0  0  0  0  0  0  0  0  0  0
   40.3800   29.7430   42.2070 H   0  0  0  0  0  0  0  0  0  0  0  0
   39.7980   30.9550   42.8840 O   0  0  0  0  0  0  0  0  0  0  0  0
  1  2  1  0  0  0  0
  2 21  1  0  0  0  0
  2  3  2  0  0  0  0
  3 13  1  0  0  0  0
  4  3  1  0  0  0  0
  5  4  2  0  0  0  0
  6  1  2  0  0  0  0
  6  5  1  0  0  0  0
  7  5  1  0  0  0  0
  8  7  1  0  0  0  0
  8 15  1  0  0  0  0
  9 16  1  0  0  0  0
  9  8  1  0  0  0  0
 10  9  1  0  0  0  0
 10 19  1  0  0  0  0
 10 11  1  0  0  0  0
 11  7  1  0  0  0  0
 11 20  1  1  0  0  0
 12  1  1  0  0  0  0
 14  8  1  0  0  0  0
 17  9  1  0  0  0  0
 18 10  1  0  0  0  0
 21 23  1  0  0  0  0
 22 21  1  0  0  0  0
 24 26  2  0  0  0  0
 24 11  1  0  0  0  0
 25 24  1  0  0  0  0
M  END
>  <minimizedAffinity>
-4.61065912

$$$$

 OpenBabel03252506323D

 26 27  0  0  1  0  0  0  0  0999 V2000
   40.1580   31.3220   38.9260 C   0  0  0  0  0  0  0  0  0  0  0  0
   39.2570   31.7190   37.9440 C   0  0  0  0  0  0  0  0  0  0  0  0
   37.9200   31.5220   38.1830 C   0  0  0  0  0  0  0  0  0  0  0  0
   37.5500   30.9500   39.3680 N   0  0  0  0  0  0  0  0  0  0  0  0
   38.4420   30.5820   40.2850 C   0  0  0  0  0  0  0  0  0  0  0  0
   39.7680   30.7610   40.0830 N   0  0  0  0  0  0  0  0  0  0  0  0
   37.9750   29.9940   41.4900 N   0  0  0  0  0  0  0  0  0  0  0  0
   38.7760   29.8060   42.7010 C   0  0  0  0  0  0  0  0  0  0  0  0
   38.2910   28.4670   43.1890 C   0  0  0  0  0  0  0  0  0  0  0  0
   37.0230   28.1530   42.4180 C   0  0  0  0  0  0  0  0  0  0  0  0
   36.6680   29.4680   41.7990 C   0  0  2  0  0  0  0  0  0  0  0  0
   41.2210   31.4540   38.7890 H   0  0  0  0  0  0  0  0  0  0  0  0
   37.2520   31.8330   37.4200 H   0  0  0  0  0  0  0  0  0  0  0  0
   39.8360   29.7690   42.4160 H   0  0  0  0  0  0  0  0  0  0  0  0
   38.6070   30.6270   43.4290 H   0  0  0  0  0  0  0  0  0  0  0  0
   38.0310   28.5720   44.2730 H   0  0  0  0  0  0  0  0  0  0  0  0
   39.0110   27.6530   43.0510 H   0  0  0  0  0  0  0  0  0  0  0  0
   37.1640   27.3760   41.6700 H   0  0  0  0  0  0  0  0  0  0  0  0
   36.1940   27.8860   43.1160 H   0  0  0  0  0  0  0  0  0  0  0  0
   36.0780   30.1470   42.4460 H   0  0  0  0  0  0  0  0  0  0  0  0
   39.8360   32.3040   36.7640 N   0  0  0  0  0  0  0  0  0  0  0  0
   40.7570   31.9650   36.4270 H   0  0  0  0  0  0  0  0  0  0  0  0
   39.2100   33.0590   36.3560 H   0  0  0  0  0  0  0  0  0  0  0  0
   35.9620   29.1700   40.5230 C   0  0  0  0  0  0  0  0  0  0  0  0
   36.0300   28.9100   39.4770 H   0  0  0  0  0  0  0  0  0  0  0  0
   34.7780   29.1410   40.2810 O   0  0  0  0  0  0  0  0  0  0  0  0
  1  6  1  0  0  0  0
  2  3  1  0  0  0  0
  2  1  2  0  0  0  0
  3  4  2  0  0  0  0
  4  5  1  0  0  0  0
  5  7  1  0  0  0  0
  6  5  2  0  0  0  0
  7 11  1  0  0  0  0
  7  8  1  0  0  0  0
  8  9  1  0  0  0  0
  8 15  1  0  0  0  0
  9 16  1  0  0  0  0
 10 19  1  0  0  0  0
 10  9  1  0  0  0  0
 11 10  1  0  0  0  0
 11 20  1  1  0  0  0
 12  1  1  0  0  0  0
 13  3  1  0  0  0  0
 14  8  1  0  0  0  0
 17  9  1  0  0  0  0
 18 10  1  0  0  0  0
 21  2  1  0  0  0  0
 22 21  1  0  0  0  0
 23 21  1  0  0  0  0
 24 11  1  0  0  0  0
 25 24  1  0  0  0  0
 26 24  2  0  0  0  0
M  END
>  <minimizedAffinity>
-4.43833113

$$$$

 OpenBabel03252506323D

 26 27  0  0  1  0  0  0  0  0999 V2000
   36.4050   31.2130   40.5680 C   0  0  0  0  0  0  0  0  0  0  0  0
   37.4680   32.1060   40.4970 C   0  0  0  0  0  0  0  0  0  0  0  0
   38.7250   31.6310   40.7780 C   0  0  0  0  0  0  0  0  0  0  0  0
   38.8600   30.3110   41.1110 N   0  0  0  0  0  0  0  0  0  0  0  0
   37.8170   29.4860   41.1680 C   0  0  0  0  0  0  0  0  0  0  0  0
   36.5650   29.9200   40.8980 N   0  0  0  0  0  0  0  0  0  0  0  0
   38.0430   28.1290   41.5220 N   0  0  0  0  0  0  0  0  0  0  0  0
   37.0780   27.0430   41.3500 C   0  0  0  0  0  0  0  0  0  0  0  0
   37.3080   26.2230   42.5920 C   0  0  0  0  0  0  0  0  0  0  0  0
   38.6080   26.7110   43.2030 C   0  0  0  0  0  0  0  0  0  0  0  0
   39.2160   27.5240   42.1040 C   0  0  2  0  0  0  0  0  0  0  0  0
   35.3960   31.5340   40.3570 H   0  0  0  0  0  0  0  0  0  0  0  0
   39.5200   32.3290   40.7170 H   0  0  0  0  0  0  0  0  0  0  0  0
   36.0670   27.4730   41.3350 H   0  0  0  0  0  0  0  0  0  0  0  0
   37.2650   26.4800   40.4110 H   0  0  0  0  0  0  0  0  0  0  0  0
   37.4420   25.1570   42.2780 H   0  0  0  0  0  0  0  0  0  0  0  0
   36.5060   26.3010   43.3340 H   0  0  0  0  0  0  0  0  0  0  0  0
   38.4570   27.2980   44.1060 H   0  0  0  0  0  0  0  0  0  0  0  0
   39.2980   25.8550   43.3960 H   0  0  0  0  0  0  0  0  0  0  0  0
   39.8070   26.9460   41.3660 H   0  0  0  0  0  0  0  0  0  0  0  0
   37.1280   33.4550   40.1290 N   0  0  0  0  0  0  0  0  0  0  0  0
   36.2190   33.8520   40.4330 H   0  0  0  0  0  0  0  0  0  0  0  0
   37.8990   33.9080   39.5540 H   0  0  0  0  0  0  0  0  0  0  0  0
   40.0290   28.5890   42.7500 C   0  0  0  0  0  0  0  0  0  0  0  0
   40.0680   29.5780   43.1830 H   0  0  0  0  0  0  0  0  0  0  0  0
   41.2050   28.6040   43.0300 O   0  0  0  0  0  0  0  0  0  0  0  0
  1  6  1  0  0  0  0
  2  1  2  0  0  0  0
  2  3  1  0  0  0  0
  3  4  2  0  0  0  0
  4  5  1  0  0  0  0
  5  7  1  0  0  0  0
  6  5  2  0  0  0  0
  7 11  1  0  0  0  0
  8  7  1  0  0  0  0
  8  9  1  0  0  0  0
  9 10  1  0  0  0  0
  9 17  1  0  0  0  0
 10 19  1  0  0  0  0
 10 18  1  0  0  0  0
 11 20  1  6  0  0  0
 11 24  1  0  0  0  0
 11 10  1  0  0  0  0
 12  1  1  0  0  0  0
 13  3  1  0  0  0  0
 14  8  1  0  0  0  0
 15  8  1  0  0  0  0
 16  9  1  0  0  0  0
 21 22  1  0  0  0  0
 21  2  1  0  0  0  0
 23 21  1  0  0  0  0
 24 26  2  0  0  0  0
 24 25  1  0  0  0  0
M  END
>  <minimizedAffinity>
-4.3670373

$$$$

 OpenBabel03252506323D

 26 27  0  0  1  0  0  0  0  0999 V2000
   38.6520   31.7270   40.8810 C   0  0  0  0  0  0  0  0  0  0  0  0
   37.2960   31.9160   40.6400 C   0  0  0  0  0  0  0  0  0  0  0  0
   36.4300   30.9250   41.0300 C   0  0  0  0  0  0  0  0  0  0  0  0
   36.9480   29.8110   41.6310 N   0  0  0  0  0  0  0  0  0  0  0  0
   38.2540   29.6660   41.8450 C   0  0  0  0  0  0  0  0  0  0  0  0
   39.1360   30.6220   41.4730 N   0  0  0  0  0  0  0  0  0  0  0  0
   38.7110   28.4780   42.4750 N   0  0  0  0  0  0  0  0  0  0  0  0
   40.0470   28.2850   43.0410 C   0  0  0  0  0  0  0  0  0  0  0  0
   40.3350   26.8540   42.6760 C   0  0  0  0  0  0  0  0  0  0  0  0
   39.0200   26.2410   42.2350 C   0  0  0  0  0  0  0  0  0  0  0  0
   38.0080   27.2390   42.7010 C   0  0  2  0  0  0  0  0  0  0  0  0
   39.3760   32.4750   40.5940 H   0  0  0  0  0  0  0  0  0  0  0  0
   35.4010   31.0920   40.8370 H   0  0  0  0  0  0  0  0  0  0  0  0
   40.7410   28.9740   42.5400 H   0  0  0  0  0  0  0  0  0  0  0  0
   40.0540   28.4700   44.1360 H   0  0  0  0  0  0  0  0  0  0  0  0
   40.6780   26.3270   43.6030 H   0  0  0  0  0  0  0  0  0  0  0  0
   41.0770   26.7360   41.8790 H   0  0  0  0  0  0  0  0  0  0  0  0
   38.9670   26.0800   41.1600 H   0  0  0  0  0  0  0  0  0  0  0  0
   38.8220   25.2920   42.7890 H   0  0  0  0  0  0  0  0  0  0  0  0
   37.6820   27.1200   43.7540 H   0  0  0  0  0  0  0  0  0  0  0  0
   36.9420   33.1540   39.9980 N   0  0  0  0  0  0  0  0  0  0  0  0
   37.5900   33.5710   39.3030 H   0  0  0  0  0  0  0  0  0  0  0  0
   36.0000   33.5130   40.3350 H   0  0  0  0  0  0  0  0  0  0  0  0
   36.8590   27.1660   41.7570 C   0  0  0  0  0  0  0  0  0  0  0  0
   35.8530   27.4730   41.5120 H   0  0  0  0  0  0  0  0  0  0  0  0
   36.7460   26.5550   40.7200 O   0  0  0  0  0  0  0  0  0  0  0  0
  1  6  1  0  0  0  0
  2  1  2  0  0  0  0
  2  3  1  0  0  0  0
  3  4  2  0  0  0  0
  4  5  1  0  0  0  0
  5  7  1  0  0  0  0
  6  5  2  0  0  0  0
  7 11  1  0  0  0  0
  7  8  1  0  0  0  0
  8 15  1  0  0  0  0
  9  8  1  0  0  0  0
  9 16  1  0  0  0  0
 10  9  1  0  0  0  0
 10 11  1  0  0  0  0
 10 19  1  0  0  0  0
 11 20  1  1  0  0  0
 12  1  1  0  0  0  0
 13  3  1  0  0  0  0
 14  8  1  0  0  0  0
 17  9  1  0  0  0  0
 18 10  1  0  0  0  0
 21 23  1  0  0  0  0
 21  2  1  0  0  0  0
 22 21  1  0  0  0  0
 24 11  1  0  0  0  0
 25 24  1  0  0  0  0
 26 24  2  0  0  0  0
M  END
>  <minimizedAffinity>
-4.32860231

$$$$

 OpenBabel03252506323D

 26 27  0  0  1  0  0  0  0  0999 V2000
   37.1970   30.6220   37.4910 C   0  0  0  0  0  0  0  0  0  0  0  0
   38.2320   31.5410   37.3580 C   0  0  0  0  0  0  0  0  0  0  0  0
   39.1640   31.6080   38.3630 C   0  0  0  0  0  0  0  0  0  0  0  0
   39.0230   30.7700   39.4350 N   0  0  0  0  0  0  0  0  0  0  0  0
   38.0180   29.9030   39.5270 C   0  0  0  0  0  0  0  0  0  0  0  0
   37.0810   29.8110   38.5550 N   0  0  0  0  0  0  0  0  0  0  0  0
   37.9430   29.0680   40.6740 N   0  0  0  0  0  0  0  0  0  0  0  0
   37.0940   27.8830   40.7980 C   0  0  0  0  0  0  0  0  0  0  0  0
   36.6440   27.9730   42.2320 C   0  0  0  0  0  0  0  0  0  0  0  0
   37.5320   29.0010   42.9060 C   0  0  0  0  0  0  0  0  0  0  0  0
   38.6490   29.1790   41.9270 C   0  0  2  0  0  0  0  0  0  0  0  0
   36.4370   30.5280   36.7290 H   0  0  0  0  0  0  0  0  0  0  0  0
   39.9440   32.3150   38.2390 H   0  0  0  0  0  0  0  0  0  0  0  0
   36.2480   27.9850   40.1050 H   0  0  0  0  0  0  0  0  0  0  0  0
   37.6600   26.9550   40.5730 H   0  0  0  0  0  0  0  0  0  0  0  0
   36.8280   26.9770   42.7110 H   0  0  0  0  0  0  0  0  0  0  0  0
   35.5950   28.2620   42.3540 H   0  0  0  0  0  0  0  0  0  0  0  0
   37.0170   29.9380   43.1080 H   0  0  0  0  0  0  0  0  0  0  0  0
   37.9800   28.5840   43.8400 H   0  0  0  0  0  0  0  0  0  0  0  0
   39.4730   28.4440   42.0170 H   0  0  0  0  0  0  0  0  0  0  0  0
   38.2130   32.3350   36.1570 N   0  0  0  0  0  0  0  0  0  0  0  0
   37.3020   32.6120   35.7450 H   0  0  0  0  0  0  0  0  0  0  0  0
   39.1960   32.5550   35.8200 H   0  0  0  0  0  0  0  0  0  0  0  0
   39.1380   30.5770   42.0750 C   0  0  0  0  0  0  0  0  0  0  0  0
   39.1350   31.5930   41.7090 H   0  0  0  0  0  0  0  0  0  0  0  0
   39.8900   31.0520   42.8940 O   0  0  0  0  0  0  0  0  0  0  0  0
  1  6  1  0  0  0  0
  2  1  2  0  0  0  0
  2  3  1  0  0  0  0
  3  4  2  0  0  0  0
  4  5  1  0  0  0  0
  5  7  1  0  0  0  0
  6  5  2  0  0  0  0
  7  8  1  0  0  0  0
  7 11  1  0  0  0  0
  8  9  1  0  0  0  0
  9 17  1  0  0  0  0
  9 16  1  0  0  0  0
  9 10  1  0  0  0  0
 10 18  1  0  0  0  0
 10 19  1  0  0  0  0
 11 20  1  1  0  0  0
 11 24  1  0  0  0  0
 11 10  1  0  0  0  0
 12  1  1  0  0  0  0
 13  3  1  0  0  0  0
 14  8  1  0  0  0  0
 15  8  1  0  0  0  0
 21  2  1  0  0  0  0
 22 21  1  0  0  0  0
 23 21  1  0  0  0  0
 24 26  2  0  0  0  0
 25 24  1  0  0  0  0
M  END
>  <minimizedAffinity>
-4.22597647

$$$$

 OpenBabel03252506323D

 26 27  0  0  1  0  0  0  0  0999 V2000
   38.0690   25.0760   41.9590 C   0  0  0  0  0  0  0  0  0  0  0  0
   39.1230   25.1080   42.8650 C   0  0  0  0  0  0  0  0  0  0  0  0
   39.4710   26.3220   43.4030 C   0  0  0  0  0  0  0  0  0  0  0  0
   38.7640   27.4280   43.0200 N   0  0  0  0  0  0  0  0  0  0  0  0
   37.7590   27.3570   42.1490 C   0  0  0  0  0  0  0  0  0  0  0  0
   37.3900   26.1770   41.5990 N   0  0  0  0  0  0  0  0  0  0  0  0
   37.0750   28.5530   41.8030 N   0  0  0  0  0  0  0  0  0  0  0  0
   35.7900   28.6160   41.1060 C   0  0  0  0  0  0  0  0  0  0  0  0
   35.9830   29.8060   40.2050 C   0  0  0  0  0  0  0  0  0  0  0  0
   37.2220   30.5300   40.6960 C   0  0  0  0  0  0  0  0  0  0  0  0
   37.4590   29.9220   42.0420 C   0  0  2  0  0  0  0  0  0  0  0  0
   37.7550   24.1470   41.5070 H   0  0  0  0  0  0  0  0  0  0  0  0
   40.2770   26.3220   44.0920 H   0  0  0  0  0  0  0  0  0  0  0  0
   35.6610   27.6910   40.5270 H   0  0  0  0  0  0  0  0  0  0  0  0
   34.9480   28.7370   41.8200 H   0  0  0  0  0  0  0  0  0  0  0  0
   35.1010   30.4820   40.3380 H   0  0  0  0  0  0  0  0  0  0  0  0
   36.1060   29.5510   39.1470 H   0  0  0  0  0  0  0  0  0  0  0  0
   38.0770   30.4010   40.0360 H   0  0  0  0  0  0  0  0  0  0  0  0
   37.0060   31.6130   40.8600 H   0  0  0  0  0  0  0  0  0  0  0  0
   36.8890   30.3850   42.8720 H   0  0  0  0  0  0  0  0  0  0  0  0
   39.7460   23.8410   43.1450 N   0  0  0  0  0  0  0  0  0  0  0  0
   39.8130   23.1290   42.3940 H   0  0  0  0  0  0  0  0  0  0  0  0
   40.0820   23.7860   44.1520 H   0  0  0  0  0  0  0  0  0  0  0  0
   38.9260   29.9690   42.2880 C   0  0  0  0  0  0  0  0  0  0  0  0
   39.8920   29.5030   42.1600 H   0  0  0  0  0  0  0  0  0  0  0  0
   39.5880   30.7950   42.8710 O   0  0  0  0  0  0  0  0  0  0  0  0
  1  2  1  0  0  0  0
  2 21  1  0  0  0  0
  2  3  2  0  0  0  0
  3 13  1  0  0  0  0
  4  3  1  0  0  0  0
  5  4  2  0  0  0  0
  6  1  2  0  0  0  0
  6  5  1  0  0  0  0
  7 11  1  0  0  0  0
  7  5  1  0  0  0  0
  8  7  1  0  0  0  0
  8 15  1  0  0  0  0
  9 16  1  0  0  0  0
  9 10  1  0  0  0  0
  9  8  1  0  0  0  0
 10 19  1  0  0  0  0
 10 11  1  0  0  0  0
 11 24  1  0  0  0  0
 11 20  1  1  0  0  0
 12  1  1  0  0  0  0
 14  8  1  0  0  0  0
 17  9  1  0  0  0  0
 18 10  1  0  0  0  0
 21 23  1  0  0  0  0
 22 21  1  0  0  0  0
 24 26  2  0  0  0  0
 25 24  1  0  0  0  0
M  END
>  <minimizedAffinity>
-4.19473171

$$$$

 OpenBabel03252506323D

 26 27  0  0  1  0  0  0  0  0999 V2000
   35.7380   28.7070   40.5990 C   0  0  0  0  0  0  0  0  0  0  0  0
   36.4400   29.7500   41.1930 C   0  0  0  0  0  0  0  0  0  0  0  0
   37.7230   29.5040   41.6140 C   0  0  0  0  0  0  0  0  0  0  0  0
   38.2370   28.2510   41.4260 N   0  0  0  0  0  0  0  0  0  0  0  0
   37.5340   27.2770   40.8520 C   0  0  0  0  0  0  0  0  0  0  0  0
   36.2670   27.4850   40.4260 N   0  0  0  0  0  0  0  0  0  0  0  0
   38.1420   26.0030   40.6940 N   0  0  0  0  0  0  0  0  0  0  0  0
   37.6350   24.9280   39.8400 C   0  0  0  0  0  0  0  0  0  0  0  0
   37.9290   23.7070   40.6690 C   0  0  0  0  0  0  0  0  0  0  0  0
   38.8790   24.1430   41.7680 C   0  0  0  0  0  0  0  0  0  0  0  0
   39.3440   25.4870   41.3020 C   0  0  2  0  0  0  0  0  0  0  0  0
   34.7260   28.8470   40.2510 H   0  0  0  0  0  0  0  0  0  0  0  0
   38.2380   30.3140   42.0640 H   0  0  0  0  0  0  0  0  0  0  0  0
   36.5540   25.0710   39.7050 H   0  0  0  0  0  0  0  0  0  0  0  0
   38.1430   24.9220   38.8530 H   0  0  0  0  0  0  0  0  0  0  0  0
   38.4590   22.9690   40.0150 H   0  0  0  0  0  0  0  0  0  0  0  0
   37.0420   23.2470   41.1180 H   0  0  0  0  0  0  0  0  0  0  0  0
   38.4020   24.1950   42.7450 H   0  0  0  0  0  0  0  0  0  0  0  0
   39.7770   23.4800   41.7990 H   0  0  0  0  0  0  0  0  0  0  0  0
   40.2020   25.4680   40.6000 H   0  0  0  0  0  0  0  0  0  0  0  0
   35.7300   30.9980   41.3040 N   0  0  0  0  0  0  0  0  0  0  0  0
   34.7050   30.9880   41.4640 H   0  0  0  0  0  0  0  0  0  0  0  0
   36.3850   31.8290   41.2010 H   0  0  0  0  0  0  0  0  0  0  0  0
   39.6440   26.2890   42.5180 C   0  0  0  0  0  0  0  0  0  0  0  0
   39.9060   27.2470   42.9430 H   0  0  0  0  0  0  0  0  0  0  0  0
   39.6750   25.9550   43.6800 O   0  0  0  0  0  0  0  0  0  0  0  0
  1  2  1  0  0  0  0
  2 21  1  0  0  0  0
  2  3  2  0  0  0  0
  3 13  1  0  0  0  0
  4  3  1  0  0  0  0
  5  4  2  0  0  0  0
  6  1  2  0  0  0  0
  6  5  1  0  0  0  0
  7  5  1  0  0  0  0
  7 11  1  0  0  0  0
  8  9  1  0  0  0  0
  8  7  1  0  0  0  0
  9 17  1  0  0  0  0
  9 10  1  0  0  0  0
 10 19  1  0  0  0  0
 10 18  1  0  0  0  0
 11 20  1  6  0  0  0
 11 10  1  0  0  0  0
 11 24  1  0  0  0  0
 12  1  1  0  0  0  0
 14  8  1  0  0  0  0
 15  8  1  0  0  0  0
 16  9  1  0  0  0  0
 21 22  1  0  0  0  0
 23 21  1  0  0  0  0
 24 25  1  0  0  0  0
 24 26  2  0  0  0  0
M  END
>  <minimizedAffinity>
-4.1797533

$$$$

 OpenBabel03252506323D

 26 27  0  0  1  0  0  0  0  0999 V2000
   37.1500   24.9410   40.4900 C   0  0  0  0  0  0  0  0  0  0  0  0
   38.0280   24.4900   41.4690 C   0  0  0  0  0  0  0  0  0  0  0  0
   38.4150   25.3770   42.4420 C   0  0  0  0  0  0  0  0  0  0  0  0
   37.9170   26.6490   42.3950 N   0  0  0  0  0  0  0  0  0  0  0  0
   37.0760   27.0450   41.4420 C   0  0  0  0  0  0  0  0  0  0  0  0
   36.6750   26.1970   40.4670 N   0  0  0  0  0  0  0  0  0  0  0  0
   36.6050   28.3850   41.4640 N   0  0  0  0  0  0  0  0  0  0  0  0
   35.4750   28.8930   40.6850 C   0  0  0  0  0  0  0  0  0  0  0  0
   35.9570   30.2650   40.2990 C   0  0  0  0  0  0  0  0  0  0  0  0
   37.1680   30.5640   41.1620 C   0  0  0  0  0  0  0  0  0  0  0  0
   37.0970   29.5100   42.2210 C   0  0  2  0  0  0  0  0  0  0  0  0
   36.8130   24.2850   39.7020 H   0  0  0  0  0  0  0  0  0  0  0  0
   39.0850   25.0100   43.1780 H   0  0  0  0  0  0  0  0  0  0  0  0
   35.3430   28.2510   39.8040 H   0  0  0  0  0  0  0  0  0  0  0  0
   34.5430   28.9080   41.2880 H   0  0  0  0  0  0  0  0  0  0  0  0
   35.1490   30.9960   40.5570 H   0  0  0  0  0  0  0  0  0  0  0  0
   36.2310   30.3620   39.2430 H   0  0  0  0  0  0  0  0  0  0  0  0
   38.1040   30.5210   40.6090 H   0  0  0  0  0  0  0  0  0  0  0  0
   37.0540   31.5490   41.6740 H   0  0  0  0  0  0  0  0  0  0  0  0
   36.4500   29.7560   43.0860 H   0  0  0  0  0  0  0  0  0  0  0  0
   38.4420   23.1170   41.3520 N   0  0  0  0  0  0  0  0  0  0  0  0
   38.5550   22.6970   40.4100 H   0  0  0  0  0  0  0  0  0  0  0  0
   38.5910   22.6720   42.3060 H   0  0  0  0  0  0  0  0  0  0  0  0
   38.4950   29.2230   42.6430 C   0  0  0  0  0  0  0  0  0  0  0  0
   39.2320   28.4910   42.9400 H   0  0  0  0  0  0  0  0  0  0  0  0
   39.4260   29.9780   42.8060 O   0  0  0  0  0  0  0  0  0  0  0  0
  1  2  1  0  0  0  0
  2  3  2  0  0  0  0
  3 13  1  0  0  0  0
  4  3  1  0  0  0  0
  5  7  1  0  0  0  0
  5  4  2  0  0  0  0
  6  1  2  0  0  0  0
  6  5  1  0  0  0  0
  7 11  1  0  0  0  0
  8 15  1  0  0  0  0
  8  7  1  0  0  0  0
  9 16  1  0  0  0  0
  9  8  1  0  0  0  0
  9 10  1  0  0  0  0
 10 19  1  0  0  0  0
 10 11  1  0  0  0  0
 11 24  1  0  0  0  0
 11 20  1  1  0  0  0
 12  1  1  0  0  0  0
 14  8  1  0  0  0  0
 17  9  1  0  0  0  0
 18 10  1  0  0  0  0
 21  2  1  0  0  0  0
 21 23  1  0  0  0  0
 22 21  1  0  0  0  0
 24 26  2  0  0  0  0
 24 25  1  0  0  0  0
M  END
>  <minimizedAffinity>
-4.09707308

$$$$

 OpenBabel03252506323D

 26 27  0  0  1  0  0  0  0  0999 V2000
   35.3170   29.2970   39.7580 C   0  0  0  0  0  0  0  0  0  0  0  0
   36.0300   29.7490   40.8620 C   0  0  0  0  0  0  0  0  0  0  0  0
   36.9250   28.8880   41.4460 C   0  0  0  0  0  0  0  0  0  0  0  0
   37.0650   27.6380   40.9100 N   0  0  0  0  0  0  0  0  0  0  0  0
   36.3650   27.2400   39.8500 C   0  0  0  0  0  0  0  0  0  0  0  0
   35.4730   28.0620   39.2510 N   0  0  0  0  0  0  0  0  0  0  0  0
   36.5690   25.9240   39.3550 N   0  0  0  0  0  0  0  0  0  0  0  0
   36.1130   25.4340   38.0540 C   0  0  0  0  0  0  0  0  0  0  0  0
   35.6930   24.0270   38.3830 C   0  0  0  0  0  0  0  0  0  0  0  0
   36.2520   23.7120   39.7570 C   0  0  0  0  0  0  0  0  0  0  0  0
   37.2420   24.8110   39.9800 C   0  0  2  0  0  0  0  0  0  0  0  0
   34.6010   29.9330   39.2610 H   0  0  0  0  0  0  0  0  0  0  0  0
   37.4580   29.2550   42.2860 H   0  0  0  0  0  0  0  0  0  0  0  0
   35.2580   26.0430   37.7320 H   0  0  0  0  0  0  0  0  0  0  0  0
   36.9230   25.4850   37.2960 H   0  0  0  0  0  0  0  0  0  0  0  0
   36.1750   23.3430   37.6380 H   0  0  0  0  0  0  0  0  0  0  0  0
   34.6080   23.8730   38.3880 H   0  0  0  0  0  0  0  0  0  0  0  0
   35.4880   23.6900   40.5310 H   0  0  0  0  0  0  0  0  0  0  0  0
   36.8260   22.7550   39.7390 H   0  0  0  0  0  0  0  0  0  0  0  0
   38.2490   24.6300   39.5550 H   0  0  0  0  0  0  0  0  0  0  0  0
   35.7460   31.0970   41.2800 N   0  0  0  0  0  0  0  0  0  0  0  0
   34.7850   31.4710   41.1730 H   0  0  0  0  0  0  0  0  0  0  0  0
   36.6120   31.5740   41.6700 H   0  0  0  0  0  0  0  0  0  0  0  0
   37.2980   25.0540   41.4470 C   0  0  0  0  0  0  0  0  0  0  0  0
   37.7460   25.5890   42.2720 H   0  0  0  0  0  0  0  0  0  0  0  0
   36.6580   24.5510   42.3410 O   0  0  0  0  0  0  0  0  0  0  0  0
  1  2  1  0  0  0  0
  2 21  1  0  0  0  0
  2  3  2  0  0  0  0
  3 13  1  0  0  0  0
  4  3  1  0  0  0  0
  5  4  2  0  0  0  0
  6  1  2  0  0  0  0
  6  5  1  0  0  0  0
  7  5  1  0  0  0  0
  7 11  1  0  0  0  0
  8  9  1  0  0  0  0
  8  7  1  0  0  0  0
  9 17  1  0  0  0  0
  9 10  1  0  0  0  0
 10 11  1  0  0  0  0
 10 18  1  0  0  0  0
 11 20  1  6  0  0  0
 11 24  1  0  0  0  0
 12  1  1  0  0  0  0
 14  8  1  0  0  0  0
 15  8  1  0  0  0  0
 16  9  1  0  0  0  0
 19 10  1  0  0  0  0
 21 23  1  0  0  0  0
 22 21  1  0  0  0  0
 24 25  1  0  0  0  0
 24 26  2  0  0  0  0
M  END
>  <minimizedAffinity>
-4.06880045

$$$$
