
 OpenBabel03252509133D

 39 42  0  0  1  0  0  0  0  0999 V2000
   47.4290   32.5660   44.1980 C   0  0  0  0  0  0  0  0  0  0  0  0
   46.7330   33.5270   43.4700 C   0  0  0  0  0  0  0  0  0  0  0  0
   45.7160   34.2860   44.0210 C   0  0  0  0  0  0  0  0  0  0  0  0
   45.3580   34.0960   45.3600 C   0  0  0  0  0  0  0  0  0  0  0  0
   44.4600   34.6260   46.1980 N   0  0  0  0  0  0  0  0  0  0  0  0
   44.5470   34.0600   47.4050 C   0  0  0  0  0  0  0  0  0  0  0  0
   45.5390   33.1490   47.2990 N   0  0  0  0  0  0  0  0  0  0  0  0
   46.0570   33.1460   46.0520 C   0  0  0  0  0  0  0  0  0  0  0  0
   47.0810   32.3670   45.5370 C   0  0  0  0  0  0  0  0  0  0  0  0
   48.2260   31.9770   43.7510 H   0  0  0  0  0  0  0  0  0  0  0  0
   43.7810   35.3820   45.9410 H   0  0  0  0  0  0  0  0  0  0  0  0
   43.9530   34.2750   48.2980 H   0  0  0  0  0  0  0  0  0  0  0  0
   47.5930   31.6340   46.1430 H   0  0  0  0  0  0  0  0  0  0  0  0
   46.8830   33.0930   39.8360 C   0  0  0  0  0  0  0  0  0  0  0  0
   47.7370   34.1230   39.4370 C   0  0  0  0  0  0  0  0  0  0  0  0
   48.2580   34.9640   40.4250 C   0  0  0  0  0  0  0  0  0  0  0  0
   47.9130   34.7470   41.7370 N   0  0  0  0  0  0  0  0  0  0  0  0
   47.0880   33.7420   42.0670 C   0  0  0  0  0  0  0  0  0  0  0  0
   46.5590   32.9010   41.1440 N   0  0  0  0  0  0  0  0  0  0  0  0
   46.4330   32.3930   39.1380 H   0  0  0  0  0  0  0  0  0  0  0  0
   47.9420   34.2070   38.3960 H   0  0  0  0  0  0  0  0  0  0  0  0
   48.9130   35.7570   40.1300 H   0  0  0  0  0  0  0  0  0  0  0  0
   44.8420   35.5070   43.0670 S   0  0  0  0  0  0  0  0  0  0  0  0
   42.3060   35.3950   42.4020 N   0  0  0  0  0  0  0  0  0  0  0  0
   43.5710   34.8120   41.9880 C   0  0  1  0  0  0  0  0  0  0  0  0
   43.9380   35.2590   40.5720 C   0  0  0  0  0  0  0  0  0  0  0  0
   42.8690   35.2280   39.7000 O   0  0  0  0  0  0  0  0  0  0  0  0
   41.7400   34.5950   40.1530 C   0  0  0  0  0  0  0  0  0  0  0  0
   41.2770   35.2750   41.4200 C   0  0  1  0  0  0  0  0  0  0  0  0
   42.0830   35.0240   43.3300 H   0  0  0  0  0  0  0  0  0  0  0  0
   43.5690   33.7100   42.0930 H   0  0  0  0  0  0  0  0  0  0  0  0
   44.6490   34.5470   40.1600 H   0  0  0  0  0  0  0  0  0  0  0  0
   44.4070   36.2490   40.5780 H   0  0  0  0  0  0  0  0  0  0  0  0
   41.9060   33.5340   40.4120 H   0  0  0  0  0  0  0  0  0  0  0  0
   40.9670   34.6870   39.3930 H   0  0  0  0  0  0  0  0  0  0  0  0
   40.8750   36.2770   41.1250 H   0  0  0  0  0  0  0  0  0  0  0  0
   40.1710   34.4660   42.0040 C   0  0  0  0  0  0  0  0  0  0  0  0
   39.3690   34.8210   42.6290 H   0  0  0  0  0  0  0  0  0  0  0  0
   40.1860   33.2860   41.7380 O   0  0  0  0  0  0  0  0  0  0  0  0
  1  9  1  0  0  0  0
  2  3  1  0  0  0  0
  2  1  2  0  0  0  0
  3  4  2  0  0  0  0
  4  8  1  0  0  0  0
  4  5  1  0  0  0  0
  5  6  1  0  0  0  0
  6 12  1  0  0  0  0
  7  6  2  0  0  0  0
  8  7  1  0  0  0  0
  9  8  2  0  0  0  0
  9 13  1  0  0  0  0
 10  1  1  0  0  0  0
 11  5  1  0  0  0  0
 14 19  1  0  0  0  0
 15 14  2  0  0  0  0
 15 16  1  0  0  0  0
 16 17  2  0  0  0  0
 17 18  1  0  0  0  0
 18  2  1  0  0  0  0
 19 18  2  0  0  0  0
 20 14  1  0  0  0  0
 21 15  1  0  0  0  0
 22 16  1  0  0  0  0
 23  3  1  0  0  0  0
 24 30  1  0  0  0  0
 25 31  1  1  0  0  0
 25 24  1  0  0  0  0
 25 23  1  0  0  0  0
 26 33  1  0  0  0  0
 26 25  1  0  0  0  0
 27 28  1  0  0  0  0
 27 26  1  0  0  0  0
 28 34  1  0  0  0  0
 28 29  1  0  0  0  0
 29 36  1  6  0  0  0
 29 37  1  0  0  0  0
 29 24  1  0  0  0  0
 32 26  1  0  0  0  0
 35 28  1  0  0  0  0
 37 38  1  0  0  0  0
 39 37  2  0  0  0  0
M  END
>  <minimizedAffinity>
-5.6885066

>  <minimizedRMSD>
0.351654023

$$$$
