
 OpenBabel03252509133D

 39 42  0  0  1  0  0  0  0  0999 V2000
   47.4600   32.7060   44.1080 C   0  0  0  0  0  0  0  0  0  0  0  0
   46.7450   33.6020   43.3180 C   0  0  0  0  0  0  0  0  0  0  0  0
   45.6840   34.3420   43.8070 C   0  0  0  0  0  0  0  0  0  0  0  0
   45.2980   34.2010   45.1440 C   0  0  0  0  0  0  0  0  0  0  0  0
   44.3580   34.7310   45.9340 N   0  0  0  0  0  0  0  0  0  0  0  0
   44.4360   34.2260   47.1680 C   0  0  0  0  0  0  0  0  0  0  0  0
   45.4670   33.3530   47.1300 N   0  0  0  0  0  0  0  0  0  0  0  0
   46.0180   33.3140   45.8980 C   0  0  0  0  0  0  0  0  0  0  0  0
   47.0860   32.5550   45.4460 C   0  0  0  0  0  0  0  0  0  0  0  0
   48.2920   32.1300   43.7090 H   0  0  0  0  0  0  0  0  0  0  0  0
   43.6560   35.4450   45.6240 H   0  0  0  0  0  0  0  0  0  0  0  0
   43.8100   34.4570   48.0350 H   0  0  0  0  0  0  0  0  0  0  0  0
   47.6100   31.8720   46.0980 H   0  0  0  0  0  0  0  0  0  0  0  0
   47.0310   32.9910   39.7180 C   0  0  0  0  0  0  0  0  0  0  0  0
   47.8320   34.0510   39.2870 C   0  0  0  0  0  0  0  0  0  0  0  0
   48.2700   34.9730   40.2420 C   0  0  0  0  0  0  0  0  0  0  0  0
   47.9000   34.8030   41.5540 N   0  0  0  0  0  0  0  0  0  0  0  0
   47.1290   33.7660   41.9160 C   0  0  0  0  0  0  0  0  0  0  0  0
   46.6810   32.8470   41.0250 N   0  0  0  0  0  0  0  0  0  0  0  0
   46.6460   32.2280   39.0460 H   0  0  0  0  0  0  0  0  0  0  0  0
   48.0620   34.0930   38.2490 H   0  0  0  0  0  0  0  0  0  0  0  0
   48.8830   35.7890   39.9230 H   0  0  0  0  0  0  0  0  0  0  0  0
   44.7870   35.4810   42.7750 S   0  0  0  0  0  0  0  0  0  0  0  0
   42.2750   35.3550   42.0270 N   0  0  0  0  0  0  0  0  0  0  0  0
   43.5350   34.6900   41.7400 C   0  0  1  0  0  0  0  0  0  0  0  0
   43.9690   34.9450   40.2950 C   0  0  0  0  0  0  0  0  0  0  0  0
   42.9320   34.8340   39.3920 O   0  0  0  0  0  0  0  0  0  0  0  0
   41.7670   34.2940   39.8740 C   0  0  0  0  0  0  0  0  0  0  0  0
   41.2800   35.1400   41.0260 C   0  0  1  0  0  0  0  0  0  0  0  0
   42.0060   35.1090   42.9840 H   0  0  0  0  0  0  0  0  0  0  0  0
   43.4940   33.6100   41.9810 H   0  0  0  0  0  0  0  0  0  0  0  0
   44.6710   34.1680   40.0050 H   0  0  0  0  0  0  0  0  0  0  0  0
   44.4690   35.9150   40.1970 H   0  0  0  0  0  0  0  0  0  0  0  0
   41.8890   33.2700   40.2690 H   0  0  0  0  0  0  0  0  0  0  0  0
   41.0260   34.3100   39.0780 H   0  0  0  0  0  0  0  0  0  0  0  0
   40.9220   36.1080   40.5920 H   0  0  0  0  0  0  0  0  0  0  0  0
   40.1270   34.4420   41.6600 C   0  0  0  0  0  0  0  0  0  0  0  0
   39.2990   33.9720   41.1590 H   0  0  0  0  0  0  0  0  0  0  0  0
   40.1350   34.4070   42.8700 O   0  0  0  0  0  0  0  0  0  0  0  0
  1  9  1  0  0  0  0
  2  3  1  0  0  0  0
  2  1  2  0  0  0  0
  3  4  2  0  0  0  0
  4  8  1  0  0  0  0
  4  5  1  0  0  0  0
  5  6  1  0  0  0  0
  6 12  1  0  0  0  0
  7  6  2  0  0  0  0
  8  7  1  0  0  0  0
  9  8  2  0  0  0  0
  9 13  1  0  0  0  0
 10  1  1  0  0  0  0
 11  5  1  0  0  0  0
 14 19  1  0  0  0  0
 15 14  2  0  0  0  0
 15 16  1  0  0  0  0
 16 17  2  0  0  0  0
 17 18  1  0  0  0  0
 18  2  1  0  0  0  0
 19 18  2  0  0  0  0
 20 14  1  0  0  0  0
 21 15  1  0  0  0  0
 22 16  1  0  0  0  0
 23  3  1  0  0  0  0
 24 30  1  0  0  0  0
 25 31  1  1  0  0  0
 25 24  1  0  0  0  0
 25 23  1  0  0  0  0
 26 25  1  0  0  0  0
 27 28  1  0  0  0  0
 27 26  1  0  0  0  0
 28 34  1  0  0  0  0
 28 29  1  0  0  0  0
 29 36  1  6  0  0  0
 29 37  1  0  0  0  0
 29 24  1  0  0  0  0
 32 26  1  0  0  0  0
 33 26  1  0  0  0  0
 35 28  1  0  0  0  0
 37 39  2  0  0  0  0
 38 37  1  0  0  0  0
M  END
>  <minimizedAffinity>
-5.0397954

>  <minimizedRMSD>
0.53462857

$$$$
