
 OpenBabel03252509133D

 39 42  0  0  1  0  0  0  0  0999 V2000
   47.4400   32.5790   44.1920 C   0  0  0  0  0  0  0  0  0  0  0  0
   46.7430   33.5380   43.4620 C   0  0  0  0  0  0  0  0  0  0  0  0
   45.7230   34.2940   44.0100 C   0  0  0  0  0  0  0  0  0  0  0  0
   45.3620   34.1030   45.3480 C   0  0  0  0  0  0  0  0  0  0  0  0
   44.4610   34.6310   46.1840 N   0  0  0  0  0  0  0  0  0  0  0  0
   44.5460   34.0650   47.3920 C   0  0  0  0  0  0  0  0  0  0  0  0
   45.5410   33.1560   47.2870 N   0  0  0  0  0  0  0  0  0  0  0  0
   46.0620   33.1550   46.0430 C   0  0  0  0  0  0  0  0  0  0  0  0
   47.0900   32.3780   45.5300 C   0  0  0  0  0  0  0  0  0  0  0  0
   48.2400   31.9910   43.7460 H   0  0  0  0  0  0  0  0  0  0  0  0
   43.7810   35.3850   45.9260 H   0  0  0  0  0  0  0  0  0  0  0  0
   43.9500   34.2780   48.2820 H   0  0  0  0  0  0  0  0  0  0  0  0
   47.6020   31.6460   46.1360 H   0  0  0  0  0  0  0  0  0  0  0  0
   46.8920   33.1130   39.8270 C   0  0  0  0  0  0  0  0  0  0  0  0
   47.7560   34.1370   39.4310 C   0  0  0  0  0  0  0  0  0  0  0  0
   48.2830   34.9700   40.4220 C   0  0  0  0  0  0  0  0  0  0  0  0
   47.9360   34.7530   41.7330 N   0  0  0  0  0  0  0  0  0  0  0  0
   47.1020   33.7540   42.0600 C   0  0  0  0  0  0  0  0  0  0  0  0
   46.5660   32.9200   41.1330 N   0  0  0  0  0  0  0  0  0  0  0  0
   46.4370   32.4190   39.1260 H   0  0  0  0  0  0  0  0  0  0  0  0
   47.9620   34.2220   38.3900 H   0  0  0  0  0  0  0  0  0  0  0  0
   48.9460   35.7580   40.1300 H   0  0  0  0  0  0  0  0  0  0  0  0
   44.8480   35.5130   43.0540 S   0  0  0  0  0  0  0  0  0  0  0  0
   42.3060   35.4020   42.4140 N   0  0  0  0  0  0  0  0  0  0  0  0
   43.5670   34.8170   41.9880 C   0  0  1  0  0  0  0  0  0  0  0  0
   43.9210   35.2610   40.5680 C   0  0  0  0  0  0  0  0  0  0  0  0
   42.8440   35.2300   39.7070 O   0  0  0  0  0  0  0  0  0  0  0  0
   41.7180   34.5980   40.1720 C   0  0  0  0  0  0  0  0  0  0  0  0
   41.2680   35.2810   41.4420 C   0  0  1  0  0  0  0  0  0  0  0  0
   42.0920   35.0320   43.3440 H   0  0  0  0  0  0  0  0  0  0  0  0
   43.5650   33.7150   42.0950 H   0  0  0  0  0  0  0  0  0  0  0  0
   44.6270   34.5480   40.1510 H   0  0  0  0  0  0  0  0  0  0  0  0
   44.3910   36.2520   40.5680 H   0  0  0  0  0  0  0  0  0  0  0  0
   41.8860   33.5380   40.4300 H   0  0  0  0  0  0  0  0  0  0  0  0
   40.9380   34.6890   39.4190 H   0  0  0  0  0  0  0  0  0  0  0  0
   40.8640   36.2820   41.1490 H   0  0  0  0  0  0  0  0  0  0  0  0
   40.1670   34.4730   42.0370 C   0  0  0  0  0  0  0  0  0  0  0  0
   39.8850   34.4270   43.0750 H   0  0  0  0  0  0  0  0  0  0  0  0
   39.5280   33.8020   41.2590 O   0  0  0  0  0  0  0  0  0  0  0  0
  1  9  1  0  0  0  0
  2  3  1  0  0  0  0
  2  1  2  0  0  0  0
  3  4  2  0  0  0  0
  4  8  1  0  0  0  0
  4  5  1  0  0  0  0
  5  6  1  0  0  0  0
  6 12  1  0  0  0  0
  7  6  2  0  0  0  0
  8  7  1  0  0  0  0
  9  8  2  0  0  0  0
  9 13  1  0  0  0  0
 10  1  1  0  0  0  0
 11  5  1  0  0  0  0
 14 19  1  0  0  0  0
 15 14  2  0  0  0  0
 15 16  1  0  0  0  0
 16 17  2  0  0  0  0
 17 18  1  0  0  0  0
 18  2  1  0  0  0  0
 19 18  2  0  0  0  0
 20 14  1  0  0  0  0
 21 15  1  0  0  0  0
 22 16  1  0  0  0  0
 23  3  1  0  0  0  0
 24 30  1  0  0  0  0
 25 31  1  1  0  0  0
 25 24  1  0  0  0  0
 25 23  1  0  0  0  0
 26 25  1  0  0  0  0
 27 28  1  0  0  0  0
 27 26  1  0  0  0  0
 28 34  1  0  0  0  0
 28 29  1  0  0  0  0
 29 36  1  6  0  0  0
 29 37  1  0  0  0  0
 29 24  1  0  0  0  0
 32 26  1  0  0  0  0
 33 26  1  0  0  0  0
 35 28  1  0  0  0  0
 37 38  1  0  0  0  0
 39 37  2  0  0  0  0
M  END
>  <minimizedAffinity>
-5.7182951

>  <minimizedRMSD>
0.331777006

$$$$
