
 OpenBabel03252509133D

 39 42  0  0  1  0  0  0  0  0999 V2000
   47.4200   32.5690   44.2210 C   0  0  0  0  0  0  0  0  0  0  0  0
   46.7170   33.5120   43.4770 C   0  0  0  0  0  0  0  0  0  0  0  0
   45.6910   34.2690   44.0140 C   0  0  0  0  0  0  0  0  0  0  0  0
   45.3320   34.0980   45.3550 C   0  0  0  0  0  0  0  0  0  0  0  0
   44.4290   34.6320   46.1830 N   0  0  0  0  0  0  0  0  0  0  0  0
   44.5180   34.0870   47.3990 C   0  0  0  0  0  0  0  0  0  0  0  0
   45.5190   33.1820   47.3090 N   0  0  0  0  0  0  0  0  0  0  0  0
   46.0400   33.1650   46.0640 C   0  0  0  0  0  0  0  0  0  0  0  0
   47.0720   32.3870   45.5620 C   0  0  0  0  0  0  0  0  0  0  0  0
   48.2230   31.9800   43.7840 H   0  0  0  0  0  0  0  0  0  0  0  0
   43.7430   35.3780   45.9130 H   0  0  0  0  0  0  0  0  0  0  0  0
   43.9210   34.3100   48.2870 H   0  0  0  0  0  0  0  0  0  0  0  0
   47.5890   31.6680   46.1800 H   0  0  0  0  0  0  0  0  0  0  0  0
   46.9210   32.9910   39.8570 C   0  0  0  0  0  0  0  0  0  0  0  0
   47.7240   34.0530   39.4370 C   0  0  0  0  0  0  0  0  0  0  0  0
   48.1920   34.9460   40.4060 C   0  0  0  0  0  0  0  0  0  0  0  0
   47.8470   34.7460   41.7200 N   0  0  0  0  0  0  0  0  0  0  0  0
   47.0730   33.7080   42.0720 C   0  0  0  0  0  0  0  0  0  0  0  0
   46.5960   32.8170   41.1670 N   0  0  0  0  0  0  0  0  0  0  0  0
   46.5140   32.2500   39.1740 H   0  0  0  0  0  0  0  0  0  0  0  0
   47.9330   34.1200   38.3950 H   0  0  0  0  0  0  0  0  0  0  0  0
   48.8080   35.7630   40.0950 H   0  0  0  0  0  0  0  0  0  0  0  0
   44.8080   35.4680   43.0400 S   0  0  0  0  0  0  0  0  0  0  0  0
   42.3130   35.3530   42.2360 N   0  0  0  0  0  0  0  0  0  0  0  0
   43.5920   34.7390   41.9200 C   0  0  1  0  0  0  0  0  0  0  0  0
   44.0450   35.1180   40.5090 C   0  0  0  0  0  0  0  0  0  0  0  0
   43.0270   35.0600   39.5800 O   0  0  0  0  0  0  0  0  0  0  0  0
   41.8660   34.4600   39.9950 C   0  0  0  0  0  0  0  0  0  0  0  0
   41.3400   35.2000   41.2020 C   0  0  1  0  0  0  0  0  0  0  0  0
   42.0330   35.0250   43.1640 H   0  0  0  0  0  0  0  0  0  0  0  0
   43.5700   33.6420   42.0730 H   0  0  0  0  0  0  0  0  0  0  0  0
   44.7690   34.3810   40.1710 H   0  0  0  0  0  0  0  0  0  0  0  0
   44.5260   36.1030   40.4990 H   0  0  0  0  0  0  0  0  0  0  0  0
   42.0030   33.4100   40.3080 H   0  0  0  0  0  0  0  0  0  0  0  0
   41.1390   34.5260   39.1880 H   0  0  0  0  0  0  0  0  0  0  0  0
   40.9690   36.1920   40.8410 H   0  0  0  0  0  0  0  0  0  0  0  0
   40.1920   34.4290   41.7560 C   0  0  0  0  0  0  0  0  0  0  0  0
   39.4400   33.8980   41.2000 H   0  0  0  0  0  0  0  0  0  0  0  0
   40.1080   34.4070   42.9630 O   0  0  0  0  0  0  0  0  0  0  0  0
  1  9  1  0  0  0  0
  2  3  1  0  0  0  0
  2  1  2  0  0  0  0
  3  4  2  0  0  0  0
  4  8  1  0  0  0  0
  4  5  1  0  0  0  0
  5  6  1  0  0  0  0
  6 12  1  0  0  0  0
  7  6  2  0  0  0  0
  8  7  1  0  0  0  0
  9  8  2  0  0  0  0
  9 13  1  0  0  0  0
 10  1  1  0  0  0  0
 11  5  1  0  0  0  0
 14 19  1  0  0  0  0
 15 14  2  0  0  0  0
 15 16  1  0  0  0  0
 16 17  2  0  0  0  0
 17 18  1  0  0  0  0
 18  2  1  0  0  0  0
 19 18  2  0  0  0  0
 20 14  1  0  0  0  0
 21 15  1  0  0  0  0
 22 16  1  0  0  0  0
 23  3  1  0  0  0  0
 24 30  1  0  0  0  0
 25 31  1  1  0  0  0
 25 24  1  0  0  0  0
 25 23  1  0  0  0  0
 26 25  1  0  0  0  0
 27 28  1  0  0  0  0
 27 26  1  0  0  0  0
 28 34  1  0  0  0  0
 28 29  1  0  0  0  0
 29 36  1  6  0  0  0
 29 37  1  0  0  0  0
 29 24  1  0  0  0  0
 32 26  1  0  0  0  0
 33 26  1  0  0  0  0
 35 28  1  0  0  0  0
 37 39  2  0  0  0  0
 38 37  1  0  0  0  0
M  END
>  <minimizedAffinity>
-5.07793283

>  <minimizedRMSD>
0.462343425

$$$$
