
 OpenBabel03252509143D

 39 42  0  0  1  0  0  0  0  0999 V2000
   47.4590   32.5470   44.2850 C   0  0  0  0  0  0  0  0  0  0  0  0
   46.7730   33.5190   43.5640 C   0  0  0  0  0  0  0  0  0  0  0  0
   45.7460   34.2670   44.1140 C   0  0  0  0  0  0  0  0  0  0  0  0
   45.3700   34.0530   45.4440 C   0  0  0  0  0  0  0  0  0  0  0  0
   44.4600   34.5660   46.2790 N   0  0  0  0  0  0  0  0  0  0  0  0
   44.5300   33.9790   47.4770 C   0  0  0  0  0  0  0  0  0  0  0  0
   45.5250   33.0700   47.3680 N   0  0  0  0  0  0  0  0  0  0  0  0
   46.0610   33.0910   46.1290 C   0  0  0  0  0  0  0  0  0  0  0  0
   47.0930   32.3220   45.6150 C   0  0  0  0  0  0  0  0  0  0  0  0
   48.2640   31.9660   43.8380 H   0  0  0  0  0  0  0  0  0  0  0  0
   43.7830   35.3260   46.0260 H   0  0  0  0  0  0  0  0  0  0  0  0
   43.9230   34.1770   48.3640 H   0  0  0  0  0  0  0  0  0  0  0  0
   47.5970   31.5790   46.2140 H   0  0  0  0  0  0  0  0  0  0  0  0
   47.0030   33.1300   39.9290 C   0  0  0  0  0  0  0  0  0  0  0  0
   47.8340   34.1890   39.5570 C   0  0  0  0  0  0  0  0  0  0  0  0
   48.3110   35.0340   40.5640 C   0  0  0  0  0  0  0  0  0  0  0  0
   47.9490   34.7930   41.8660 N   0  0  0  0  0  0  0  0  0  0  0  0
   47.1480   33.7600   42.1710 C   0  0  0  0  0  0  0  0  0  0  0  0
   46.6610   32.9140   41.2280 N   0  0  0  0  0  0  0  0  0  0  0  0
   46.5870   32.4250   39.2150 H   0  0  0  0  0  0  0  0  0  0  0  0
   48.0560   34.2900   38.5210 H   0  0  0  0  0  0  0  0  0  0  0  0
   48.9480   35.8490   40.2900 H   0  0  0  0  0  0  0  0  0  0  0  0
   44.8850   35.5040   43.1700 S   0  0  0  0  0  0  0  0  0  0  0  0
   42.3640   35.4600   42.4410 N   0  0  0  0  0  0  0  0  0  0  0  0
   43.6200   34.8280   42.0710 C   0  0  1  0  0  0  0  0  0  0  0  0
   44.0380   35.2350   40.6570 C   0  0  0  0  0  0  0  0  0  0  0  0
   42.9920   35.2210   39.7580 O   0  0  0  0  0  0  0  0  0  0  0  0
   41.8310   34.6330   40.1930 C   0  0  0  0  0  0  0  0  0  0  0  0
   41.3580   35.3530   41.4340 C   0  0  1  0  0  0  0  0  0  0  0  0
   42.1060   35.1140   43.3690 H   0  0  0  0  0  0  0  0  0  0  0  0
   43.5800   33.7290   42.1970 H   0  0  0  0  0  0  0  0  0  0  0  0
   44.7360   34.4930   40.2780 H   0  0  0  0  0  0  0  0  0  0  0  0
   44.5390   36.2100   40.6570 H   0  0  0  0  0  0  0  0  0  0  0  0
   41.9560   33.5730   40.4760 H   0  0  0  0  0  0  0  0  0  0  0  0
   41.0810   34.7340   39.4120 H   0  0  0  0  0  0  0  0  0  0  0  0
   40.9970   36.3610   41.1100 H   0  0  0  0  0  0  0  0  0  0  0  0
   40.2110   34.5910   42.0040 C   0  0  0  0  0  0  0  0  0  0  0  0
   39.4320   34.9730   42.6410 H   0  0  0  0  0  0  0  0  0  0  0  0
   40.1630   33.4180   41.7110 O   0  0  0  0  0  0  0  0  0  0  0  0
  1  9  1  0  0  0  0
  2  3  1  0  0  0  0
  2  1  2  0  0  0  0
  3  4  2  0  0  0  0
  4  8  1  0  0  0  0
  4  5  1  0  0  0  0
  5  6  1  0  0  0  0
  6 12  1  0  0  0  0
  7  6  2  0  0  0  0
  8  7  1  0  0  0  0
  9  8  2  0  0  0  0
  9 13  1  0  0  0  0
 10  1  1  0  0  0  0
 11  5  1  0  0  0  0
 14 19  1  0  0  0  0
 15 14  2  0  0  0  0
 15 16  1  0  0  0  0
 16 17  2  0  0  0  0
 17 18  1  0  0  0  0
 18  2  1  0  0  0  0
 19 18  2  0  0  0  0
 20 14  1  0  0  0  0
 21 15  1  0  0  0  0
 22 16  1  0  0  0  0
 23  3  1  0  0  0  0
 24 30  1  0  0  0  0
 25 31  1  1  0  0  0
 25 24  1  0  0  0  0
 25 23  1  0  0  0  0
 26 25  1  0  0  0  0
 27 28  1  0  0  0  0
 27 26  1  0  0  0  0
 28 34  1  0  0  0  0
 28 29  1  0  0  0  0
 29 36  1  6  0  0  0
 29 37  1  0  0  0  0
 29 24  1  0  0  0  0
 32 26  1  0  0  0  0
 33 26  1  0  0  0  0
 35 28  1  0  0  0  0
 37 38  1  0  0  0  0
 39 37  2  0  0  0  0
M  END
>  <minimizedAffinity>
-5.71472359

>  <minimizedRMSD>
0.291682541

$$$$
