
 OpenBabel03242514113D

 40 42  0  0  1  0  0  0  0  0999 V2000
   39.8600   32.2410   39.9610 C   0  0  0  0  0  0  0  0  0  0  0  0
   38.7740   33.0550   39.7120 C   0  0  0  0  0  0  0  0  0  0  0  0
   37.4560   32.6960   39.9810 C   0  0  0  0  0  0  0  0  0  0  0  0
   37.3180   31.4190   40.5390 C   0  0  0  0  0  0  0  0  0  0  0  0
   38.4280   30.5930   40.7920 C   0  0  0  0  0  0  0  0  0  0  0  0
   39.6750   31.0080   40.5040 N   0  0  0  0  0  0  0  0  0  0  0  0
   38.9850   34.0290   39.2770 H   0  0  0  0  0  0  0  0  0  0  0  0
   36.6560   33.3590   39.7700 H   0  0  0  0  0  0  0  0  0  0  0  0
   36.2770   31.1930   40.7250 H   0  0  0  0  0  0  0  0  0  0  0  0
   38.2040   29.2820   41.3930 C   0  0  1  0  0  0  0  0  0  0  0  0
   37.9450   29.4260   42.9490 C   0  0  0  0  0  0  0  0  0  0  0  0
   38.2040   27.9770   43.4460 C   0  0  0  0  0  0  0  0  0  0  0  0
   36.9510   27.2160   42.9840 C   0  0  0  0  0  0  0  0  0  0  0  0
   36.8700   27.1880   41.5030 C   0  0  0  0  0  0  0  0  0  0  0  0
   37.2360   28.4270   40.7770 C   0  0  2  0  0  0  0  0  0  0  0  0
   39.2230   28.7910   41.4270 H   0  0  0  0  0  0  0  0  0  0  0  0
   36.8890   29.6510   43.1190 H   0  0  0  0  0  0  0  0  0  0  0  0
   38.6640   30.1260   43.3700 H   0  0  0  0  0  0  0  0  0  0  0  0
   39.1150   27.5860   42.9930 H   0  0  0  0  0  0  0  0  0  0  0  0
   38.2220   28.0480   44.5400 H   0  0  0  0  0  0  0  0  0  0  0  0
   36.0900   27.6400   43.5100 H   0  0  0  0  0  0  0  0  0  0  0  0
   37.0860   26.1930   43.3880 H   0  0  0  0  0  0  0  0  0  0  0  0
   37.5160   26.3190   41.1790 H   0  0  0  0  0  0  0  0  0  0  0  0
   35.8480   26.8570   41.2170 H   0  0  0  0  0  0  0  0  0  0  0  0
   36.2650   28.9820   40.5990 H   0  0  0  0  0  0  0  0  0  0  0  0
   37.9350   27.8890   39.1810 S   0  0  0  0  0  0  0  0  0  0  0  0
   37.0350   28.1010   38.1270 H   0  0  0  0  0  0  0  0  0  0  0  0
   43.4250   33.0200   40.0890 C   0  0  0  0  0  0  0  0  0  0  0  0
   43.6820   33.6460   38.8960 C   0  0  0  0  0  0  0  0  0  0  0  0
   42.6080   33.7980   38.0420 C   0  0  0  0  0  0  0  0  0  0  0  0
   41.3810   33.3240   38.4320 N   0  0  0  0  0  0  0  0  0  0  0  0
   41.1990   32.7030   39.6520 C   0  0  0  0  0  0  0  0  0  0  0  0
   42.1970   32.5600   40.4510 N   0  0  0  0  0  0  0  0  0  0  0  0
   42.6410   34.4040   36.7760 N   0  0  0  0  0  0  0  0  0  0  0  0
   44.2690   32.9000   40.7640 H   0  0  0  0  0  0  0  0  0  0  0  0
   42.0270   35.2080   36.5170 H   0  0  0  0  0  0  0  0  0  0  0  0
   43.2170   34.2010   35.9310 H   0  0  0  0  0  0  0  0  0  0  0  0
   44.9570   34.1490   38.4680 C   0  0  0  0  0  0  0  0  0  0  0  0
   45.5010   34.9440   38.9650 H   0  0  0  0  0  0  0  0  0  0  0  0
   45.4800   33.6350   37.4490 O   0  0  0  0  0  0  0  0  0  0  0  0
  1  6  1  0  0  0  0
  2  1  2  0  0  0  0
  2  3  1  0  0  0  0
  3  4  2  0  0  0  0
  4  9  1  0  0  0  0
  4  5  1  0  0  0  0
  5 10  1  0  0  0  0
  6  5  2  0  0  0  0
  7  2  1  0  0  0  0
  8  3  1  0  0  0  0
 10 16  1  6  0  0  0
 10 11  1  0  0  0  0
 11 17  1  0  0  0  0
 11 18  1  0  0  0  0
 11 12  1  0  0  0  0
 12 20  1  0  0  0  0
 13 22  1  0  0  0  0
 13 12  1  0  0  0  0
 13 21  1  0  0  0  0
 14 13  1  0  0  0  0
 15 25  1  6  0  0  0
 15 10  1  0  0  0  0
 15 14  1  0  0  0  0
 19 12  1  0  0  0  0
 23 14  1  0  0  0  0
 24 14  1  0  0  0  0
 26 15  1  0  0  0  0
 27 26  1  0  0  0  0
 28 33  1  0  0  0  0
 28 35  1  0  0  0  0
 29 28  2  0  0  0  0
 30 31  2  0  0  0  0
 30 29  1  0  0  0  0
 31 32  1  0  0  0  0
 32  1  1  0  0  0  0
 32 33  2  0  0  0  0
 34 30  1  0  0  0  0
 36 34  1  0  0  0  0
 37 34  1  0  0  0  0
 38 29  1  0  0  0  0
 38 39  1  0  0  0  0
 40 38  2  0  0  0  0
M  END
>  <minimizedAffinity>
-6.14000034

$$$$

 OpenBabel03242514113D

 40 42  0  0  1  0  0  0  0  0999 V2000
   38.0000   29.0530   42.0170 C   0  0  0  0  0  0  0  0  0  0  0  0
   37.4390   28.9410   43.2730 C   0  0  0  0  0  0  0  0  0  0  0  0
   36.9270   27.7560   43.7930 C   0  0  0  0  0  0  0  0  0  0  0  0
   37.0290   26.6630   42.9220 C   0  0  0  0  0  0  0  0  0  0  0  0
   37.6010   26.7820   41.6430 C   0  0  0  0  0  0  0  0  0  0  0  0
   38.0760   27.9630   41.2070 N   0  0  0  0  0  0  0  0  0  0  0  0
   37.4060   29.8470   43.8740 H   0  0  0  0  0  0  0  0  0  0  0  0
   36.5060   27.7230   44.7650 H   0  0  0  0  0  0  0  0  0  0  0  0
   36.6150   25.7730   43.3750 H   0  0  0  0  0  0  0  0  0  0  0  0
   37.6890   25.5930   40.8010 C   0  0  1  0  0  0  0  0  0  0  0  0
   38.2690   24.3730   41.6290 C   0  0  0  0  0  0  0  0  0  0  0  0
   38.7140   23.4080   40.4960 C   0  0  0  0  0  0  0  0  0  0  0  0
   37.3840   22.8370   39.9760 C   0  0  0  0  0  0  0  0  0  0  0  0
   36.5540   23.9070   39.3700 C   0  0  0  0  0  0  0  0  0  0  0  0
   36.5230   25.2180   40.0600 C   0  0  2  0  0  0  0  0  0  0  0  0
   38.5700   25.7770   40.1160 H   0  0  0  0  0  0  0  0  0  0  0  0
   37.4540   23.8900   42.1750 H   0  0  0  0  0  0  0  0  0  0  0  0
   39.1160   24.7110   42.2220 H   0  0  0  0  0  0  0  0  0  0  0  0
   39.2550   23.9610   39.7280 H   0  0  0  0  0  0  0  0  0  0  0  0
   39.2920   22.6240   40.9990 H   0  0  0  0  0  0  0  0  0  0  0  0
   36.9250   22.2670   40.7890 H   0  0  0  0  0  0  0  0  0  0  0  0
   37.6860   22.0940   39.2100 H   0  0  0  0  0  0  0  0  0  0  0  0
   36.9250   24.0130   38.3070 H   0  0  0  0  0  0  0  0  0  0  0  0
   35.5240   23.5130   39.2360 H   0  0  0  0  0  0  0  0  0  0  0  0
   35.6110   25.1950   40.7310 H   0  0  0  0  0  0  0  0  0  0  0  0
   36.2920   26.4700   38.7550 S   0  0  0  0  0  0  0  0  0  0  0  0
   34.9840   26.9740   38.7500 H   0  0  0  0  0  0  0  0  0  0  0  0
   40.1580   31.8830   41.2030 C   0  0  0  0  0  0  0  0  0  0  0  0
   39.3140   32.8090   40.6450 C   0  0  0  0  0  0  0  0  0  0  0  0
   37.9850   32.4450   40.5510 C   0  0  0  0  0  0  0  0  0  0  0  0
   37.6030   31.2110   41.0110 N   0  0  0  0  0  0  0  0  0  0  0  0
   38.5130   30.3300   41.5630 C   0  0  0  0  0  0  0  0  0  0  0  0
   39.7520   30.6650   41.6530 N   0  0  0  0  0  0  0  0  0  0  0  0
   36.9520   33.2310   40.0150 N   0  0  0  0  0  0  0  0  0  0  0  0
   41.2050   32.1670   41.2790 H   0  0  0  0  0  0  0  0  0  0  0  0
   36.0920   33.4770   40.5540 H   0  0  0  0  0  0  0  0  0  0  0  0
   36.8420   33.6770   39.0800 H   0  0  0  0  0  0  0  0  0  0  0  0
   39.6920   34.1050   40.1570 C   0  0  0  0  0  0  0  0  0  0  0  0
   39.2020   35.0310   40.4330 H   0  0  0  0  0  0  0  0  0  0  0  0
   40.6550   34.1730   39.3540 O   0  0  0  0  0  0  0  0  0  0  0  0
  1  2  1  0  0  0  0
  2  3  2  0  0  0  0
  2  7  1  0  0  0  0
  3  8  1  0  0  0  0
  4  9  1  0  0  0  0
  4  3  1  0  0  0  0
  5  4  2  0  0  0  0
  6  5  1  0  0  0  0
  6  1  2  0  0  0  0
 10 16  1  6  0  0  0
 10 11  1  0  0  0  0
 10  5  1  0  0  0  0
 11 17  1  0  0  0  0
 11 18  1  0  0  0  0
 12 20  1  0  0  0  0
 12 11  1  0  0  0  0
 13 12  1  0  0  0  0
 13 21  1  0  0  0  0
 14 13  1  0  0  0  0
 14 15  1  0  0  0  0
 15 25  1  1  0  0  0
 15 10  1  0  0  0  0
 19 12  1  0  0  0  0
 22 13  1  0  0  0  0
 23 14  1  0  0  0  0
 24 14  1  0  0  0  0
 26 15  1  0  0  0  0
 27 26  1  0  0  0  0
 28 35  1  0  0  0  0
 28 33  1  0  0  0  0
 29 28  2  0  0  0  0
 30 29  1  0  0  0  0
 30 31  2  0  0  0  0
 31 32  1  0  0  0  0
 32 33  2  0  0  0  0
 32  1  1  0  0  0  0
 34 30  1  0  0  0  0
 34 36  1  0  0  0  0
 37 34  1  0  0  0  0
 38 39  1  0  0  0  0
 38 29  1  0  0  0  0
 40 38  2  0  0  0  0
M  END
>  <minimizedAffinity>
-6.13437128

$$$$

 OpenBabel03242514113D

 40 42  0  0  1  0  0  0  0  0999 V2000
   37.9200   30.1290   40.2720 C   0  0  0  0  0  0  0  0  0  0  0  0
   36.6300   30.6070   40.1650 C   0  0  0  0  0  0  0  0  0  0  0  0
   35.4960   29.8590   40.4680 C   0  0  0  0  0  0  0  0  0  0  0  0
   35.7750   28.5560   40.9000 C   0  0  0  0  0  0  0  0  0  0  0  0
   37.0920   28.0720   41.0080 C   0  0  0  0  0  0  0  0  0  0  0  0
   38.1400   28.8550   40.6960 N   0  0  0  0  0  0  0  0  0  0  0  0
   36.5180   31.6330   39.8200 H   0  0  0  0  0  0  0  0  0  0  0  0
   34.5260   30.2740   40.3690 H   0  0  0  0  0  0  0  0  0  0  0  0
   34.8610   28.0220   41.1180 H   0  0  0  0  0  0  0  0  0  0  0  0
   37.3010   26.7090   41.4840 C   0  0  1  0  0  0  0  0  0  0  0  0
   36.8770   25.6650   40.3700 C   0  0  0  0  0  0  0  0  0  0  0  0
   36.7230   24.3630   41.2040 C   0  0  0  0  0  0  0  0  0  0  0  0
   38.1770   23.9520   41.4880 C   0  0  0  0  0  0  0  0  0  0  0  0
   38.8520   24.9640   42.3370 C   0  0  0  0  0  0  0  0  0  0  0  0
   38.5790   26.3910   42.0430 C   0  0  2  0  0  0  0  0  0  0  0  0
   36.4700   26.5220   42.2280 H   0  0  0  0  0  0  0  0  0  0  0  0
   37.7110   25.5190   39.6780 H   0  0  0  0  0  0  0  0  0  0  0  0
   35.9310   25.9720   39.9310 H   0  0  0  0  0  0  0  0  0  0  0  0
   36.1650   24.5700   42.1160 H   0  0  0  0  0  0  0  0  0  0  0  0
   36.2520   23.6430   40.5240 H   0  0  0  0  0  0  0  0  0  0  0  0
   38.6530   23.7240   40.5300 H   0  0  0  0  0  0  0  0  0  0  0  0
   38.0880   22.9860   42.0260 H   0  0  0  0  0  0  0  0  0  0  0  0
   38.5700   24.7050   43.4010 H   0  0  0  0  0  0  0  0  0  0  0  0
   39.9440   24.7630   42.3140 H   0  0  0  0  0  0  0  0  0  0  0  0
   39.4130   26.7320   41.3570 H   0  0  0  0  0  0  0  0  0  0  0  0
   38.7010   27.2670   43.6370 S   0  0  0  0  0  0  0  0  0  0  0  0
   39.8900   28.0030   43.7310 H   0  0  0  0  0  0  0  0  0  0  0  0
   40.9200   32.2040   40.4170 C   0  0  0  0  0  0  0  0  0  0  0  0
   41.1180   32.6120   39.1230 C   0  0  0  0  0  0  0  0  0  0  0  0
   40.2010   32.1620   38.1930 C   0  0  0  0  0  0  0  0  0  0  0  0
   39.1760   31.3540   38.6140 N   0  0  0  0  0  0  0  0  0  0  0  0
   39.0420   30.9850   39.9380 C   0  0  0  0  0  0  0  0  0  0  0  0
   39.8930   31.4030   40.8070 N   0  0  0  0  0  0  0  0  0  0  0  0
   40.2110   32.4520   36.8200 N   0  0  0  0  0  0  0  0  0  0  0  0
   41.6410   32.5580   41.1510 H   0  0  0  0  0  0  0  0  0  0  0  0
   39.4000   32.8900   36.3290 H   0  0  0  0  0  0  0  0  0  0  0  0
   40.9420   32.3070   36.0910 H   0  0  0  0  0  0  0  0  0  0  0  0
   42.1840   33.4570   38.6610 C   0  0  0  0  0  0  0  0  0  0  0  0
   43.2380   33.2280   38.7680 H   0  0  0  0  0  0  0  0  0  0  0  0
   41.8770   34.5340   38.0930 O   0  0  0  0  0  0  0  0  0  0  0  0
  1  6  1  0  0  0  0
  2  1  2  0  0  0  0
  2  3  1  0  0  0  0
  3  4  2  0  0  0  0
  4  5  1  0  0  0  0
  4  9  1  0  0  0  0
  5 10  1  0  0  0  0
  6  5  2  0  0  0  0
  7  2  1  0  0  0  0
  8  3  1  0  0  0  0
 10 15  1  0  0  0  0
 10 16  1  1  0  0  0
 11 12  1  0  0  0  0
 11 10  1  0  0  0  0
 12 13  1  0  0  0  0
 12 19  1  0  0  0  0
 13 22  1  0  0  0  0
 13 14  1  0  0  0  0
 14 23  1  0  0  0  0
 15 25  1  6  0  0  0
 15 14  1  0  0  0  0
 15 26  1  0  0  0  0
 17 11  1  0  0  0  0
 18 11  1  0  0  0  0
 20 12  1  0  0  0  0
 21 13  1  0  0  0  0
 24 14  1  0  0  0  0
 26 27  1  0  0  0  0
 28 33  1  0  0  0  0
 28 35  1  0  0  0  0
 29 28  2  0  0  0  0
 30 31  2  0  0  0  0
 30 29  1  0  0  0  0
 31 32  1  0  0  0  0
 32  1  1  0  0  0  0
 32 33  2  0  0  0  0
 34 30  1  0  0  0  0
 36 34  1  0  0  0  0
 37 34  1  0  0  0  0
 38 39  1  0  0  0  0
 38 29  1  0  0  0  0
 40 38  2  0  0  0  0
M  END
>  <minimizedAffinity>
-5.91175842

$$$$

 OpenBabel03242514113D

 40 42  0  0  1  0  0  0  0  0999 V2000
   37.5340   30.1870   39.5900 C   0  0  0  0  0  0  0  0  0  0  0  0
   36.3490   30.2760   38.8890 C   0  0  0  0  0  0  0  0  0  0  0  0
   35.3610   29.2940   38.9040 C   0  0  0  0  0  0  0  0  0  0  0  0
   35.6730   28.1880   39.7050 C   0  0  0  0  0  0  0  0  0  0  0  0
   36.8820   28.1020   40.4180 C   0  0  0  0  0  0  0  0  0  0  0  0
   37.7910   29.0920   40.3550 N   0  0  0  0  0  0  0  0  0  0  0  0
   36.2000   31.1750   38.2950 H   0  0  0  0  0  0  0  0  0  0  0  0
   34.4670   29.4110   38.3460 H   0  0  0  0  0  0  0  0  0  0  0  0
   34.8750   27.4590   39.6770 H   0  0  0  0  0  0  0  0  0  0  0  0
   37.1250   26.9250   41.2470 C   0  0  1  0  0  0  0  0  0  0  0  0
   37.2000   25.6240   40.3470 C   0  0  0  0  0  0  0  0  0  0  0  0
   36.9850   24.5020   41.4000 C   0  0  0  0  0  0  0  0  0  0  0  0
   38.3300   24.4530   42.1430 C   0  0  0  0  0  0  0  0  0  0  0  0
   38.5750   25.7240   42.8690 C   0  0  0  0  0  0  0  0  0  0  0  0
   38.2090   26.9840   42.1790 C   0  0  2  0  0  0  0  0  0  0  0  0
   36.1430   26.7230   41.7710 H   0  0  0  0  0  0  0  0  0  0  0  0
   38.2140   25.5180   39.9520 H   0  0  0  0  0  0  0  0  0  0  0  0
   36.3950   25.6450   39.6160 H   0  0  0  0  0  0  0  0  0  0  0  0
   36.1570   24.7640   42.0590 H   0  0  0  0  0  0  0  0  0  0  0  0
   36.8410   23.5860   40.8160 H   0  0  0  0  0  0  0  0  0  0  0  0
   39.0960   24.1460   41.4260 H   0  0  0  0  0  0  0  0  0  0  0  0
   38.2180   23.6110   42.8560 H   0  0  0  0  0  0  0  0  0  0  0  0
   38.0270   25.6230   43.8530 H   0  0  0  0  0  0  0  0  0  0  0  0
   39.6410   25.7460   43.1800 H   0  0  0  0  0  0  0  0  0  0  0  0
   39.1550   27.3470   41.6720 H   0  0  0  0  0  0  0  0  0  0  0  0
   37.7290   28.1560   43.4890 S   0  0  0  0  0  0  0  0  0  0  0  0
   38.7230   29.1190   43.7090 H   0  0  0  0  0  0  0  0  0  0  0  0
   40.3840   32.2950   38.7190 C   0  0  0  0  0  0  0  0  0  0  0  0
   40.2460   33.4050   39.5120 C   0  0  0  0  0  0  0  0  0  0  0  0
   39.1530   33.4190   40.3560 C   0  0  0  0  0  0  0  0  0  0  0  0
   38.2960   32.3490   40.3460 N   0  0  0  0  0  0  0  0  0  0  0  0
   38.5020   31.2640   39.5170 C   0  0  0  0  0  0  0  0  0  0  0  0
   39.5190   31.2460   38.7300 N   0  0  0  0  0  0  0  0  0  0  0  0
   38.8160   34.4490   41.2490 N   0  0  0  0  0  0  0  0  0  0  0  0
   41.2450   32.2810   38.0530 H   0  0  0  0  0  0  0  0  0  0  0  0
   38.6860   34.2890   42.2730 H   0  0  0  0  0  0  0  0  0  0  0  0
   38.6440   35.4650   41.0940 H   0  0  0  0  0  0  0  0  0  0  0  0
   41.1300   34.5360   39.5380 C   0  0  0  0  0  0  0  0  0  0  0  0
   41.0120   35.3920   40.1910 H   0  0  0  0  0  0  0  0  0  0  0  0
   42.1080   34.5360   38.7500 O   0  0  0  0  0  0  0  0  0  0  0  0
  1  6  1  0  0  0  0
  2  3  1  0  0  0  0
  2  1  2  0  0  0  0
  3  4  2  0  0  0  0
  4  5  1  0  0  0  0
  5 10  1  0  0  0  0
  6  5  2  0  0  0  0
  7  2  1  0  0  0  0
  8  3  1  0  0  0  0
  9  4  1  0  0  0  0
 10 16  1  1  0  0  0
 10 15  1  0  0  0  0
 11 10  1  0  0  0  0
 11 12  1  0  0  0  0
 12 19  1  0  0  0  0
 12 13  1  0  0  0  0
 13 22  1  0  0  0  0
 13 14  1  0  0  0  0
 14 24  1  0  0  0  0
 14 23  1  0  0  0  0
 15 25  1  6  0  0  0
 15 14  1  0  0  0  0
 15 26  1  0  0  0  0
 17 11  1  0  0  0  0
 18 11  1  0  0  0  0
 20 12  1  0  0  0  0
 21 13  1  0  0  0  0
 26 27  1  0  0  0  0
 28 33  2  0  0  0  0
 28 29  1  0  0  0  0
 29 38  1  0  0  0  0
 29 30  2  0  0  0  0
 30 34  1  0  0  0  0
 31 30  1  0  0  0  0
 32  1  1  0  0  0  0
 32 31  2  0  0  0  0
 33 32  1  0  0  0  0
 34 36  1  0  0  0  0
 35 28  1  0  0  0  0
 37 34  1  0  0  0  0
 38 39  1  0  0  0  0
 40 38  2  0  0  0  0
M  END
>  <minimizedAffinity>
-5.89939022

$$$$

 OpenBabel03242514113D

 40 42  0  0  1  0  0  0  0  0999 V2000
   38.4550   29.1180   41.8220 C   0  0  0  0  0  0  0  0  0  0  0  0
   37.9470   29.3640   43.0810 C   0  0  0  0  0  0  0  0  0  0  0  0
   37.3180   28.4020   43.8670 C   0  0  0  0  0  0  0  0  0  0  0  0
   37.2410   27.1390   43.2660 C   0  0  0  0  0  0  0  0  0  0  0  0
   37.7610   26.8930   41.9820 C   0  0  0  0  0  0  0  0  0  0  0  0
   38.3560   27.8740   41.2800 N   0  0  0  0  0  0  0  0  0  0  0  0
   38.0550   30.3770   43.4610 H   0  0  0  0  0  0  0  0  0  0  0  0
   36.9440   28.6430   44.8290 H   0  0  0  0  0  0  0  0  0  0  0  0
   36.7420   26.4350   43.9170 H   0  0  0  0  0  0  0  0  0  0  0  0
   37.6590   25.5450   41.4310 C   0  0  1  0  0  0  0  0  0  0  0  0
   36.6930   25.5340   40.1760 C   0  0  0  0  0  0  0  0  0  0  0  0
   36.3580   24.0210   40.0530 C   0  0  0  0  0  0  0  0  0  0  0  0
   37.6470   23.4220   39.4670 C   0  0  0  0  0  0  0  0  0  0  0  0
   38.7740   23.5670   40.4210 C   0  0  0  0  0  0  0  0  0  0  0  0
   38.8790   24.8460   41.1620 C   0  0  2  0  0  0  0  0  0  0  0  0
   37.0110   24.9730   42.1610 H   0  0  0  0  0  0  0  0  0  0  0  0
   37.2560   25.8230   39.2850 H   0  0  0  0  0  0  0  0  0  0  0  0
   35.8060   26.1220   40.4000 H   0  0  0  0  0  0  0  0  0  0  0  0
   36.1190   23.6120   41.0340 H   0  0  0  0  0  0  0  0  0  0  0  0
   35.5470   23.9680   39.3170 H   0  0  0  0  0  0  0  0  0  0  0  0
   37.7930   23.8520   38.4720 H   0  0  0  0  0  0  0  0  0  0  0  0
   37.4030   22.3510   39.3080 H   0  0  0  0  0  0  0  0  0  0  0  0
   38.6870   22.6900   41.1290 H   0  0  0  0  0  0  0  0  0  0  0  0
   39.7190   23.3530   39.8770 H   0  0  0  0  0  0  0  0  0  0  0  0
   39.5900   25.4940   40.5650 H   0  0  0  0  0  0  0  0  0  0  0  0
   39.6290   24.4360   42.7720 S   0  0  0  0  0  0  0  0  0  0  0  0
   40.9710   24.8370   42.8320 H   0  0  0  0  0  0  0  0  0  0  0  0
   40.5240   31.0240   39.4960 C   0  0  0  0  0  0  0  0  0  0  0  0
   40.2290   32.3350   39.7690 C   0  0  0  0  0  0  0  0  0  0  0  0
   39.3030   32.5570   40.7690 C   0  0  0  0  0  0  0  0  0  0  0  0
   38.7520   31.4780   41.4100 N   0  0  0  0  0  0  0  0  0  0  0  0
   39.1000   30.1830   41.0800 C   0  0  0  0  0  0  0  0  0  0  0  0
   39.9620   29.9720   40.1490 N   0  0  0  0  0  0  0  0  0  0  0  0
   38.8530   33.8110   41.2110 N   0  0  0  0  0  0  0  0  0  0  0  0
   41.2530   30.8470   38.7080 H   0  0  0  0  0  0  0  0  0  0  0  0
   38.9200   34.1170   42.2070 H   0  0  0  0  0  0  0  0  0  0  0  0
   38.4100   34.6030   40.6980 H   0  0  0  0  0  0  0  0  0  0  0  0
   40.7940   33.4790   39.1100 C   0  0  0  0  0  0  0  0  0  0  0  0
   40.7120   33.6780   38.0480 H   0  0  0  0  0  0  0  0  0  0  0  0
   41.4280   34.3070   39.8100 O   0  0  0  0  0  0  0  0  0  0  0  0
  1  2  1  0  0  0  0
  2  7  1  0  0  0  0
  2  3  2  0  0  0  0
  3  8  1  0  0  0  0
  4  3  1  0  0  0  0
  4  9  1  0  0  0  0
  5  4  2  0  0  0  0
  6  1  2  0  0  0  0
  6  5  1  0  0  0  0
 10  5  1  0  0  0  0
 10 16  1  1  0  0  0
 11 18  1  0  0  0  0
 11 10  1  0  0  0  0
 12 11  1  0  0  0  0
 12 19  1  0  0  0  0
 13 12  1  0  0  0  0
 13 14  1  0  0  0  0
 14 23  1  0  0  0  0
 14 15  1  0  0  0  0
 15 25  1  6  0  0  0
 15 10  1  0  0  0  0
 15 26  1  0  0  0  0
 17 11  1  0  0  0  0
 20 12  1  0  0  0  0
 21 13  1  0  0  0  0
 22 13  1  0  0  0  0
 24 14  1  0  0  0  0
 26 27  1  0  0  0  0
 28 29  2  0  0  0  0
 28 33  1  0  0  0  0
 29 30  1  0  0  0  0
 30 34  1  0  0  0  0
 30 31  2  0  0  0  0
 32 31  1  0  0  0  0
 32  1  1  0  0  0  0
 33 32  2  0  0  0  0
 34 36  1  0  0  0  0
 35 28  1  0  0  0  0
 37 34  1  0  0  0  0
 38 29  1  0  0  0  0
 38 40  2  0  0  0  0
 39 38  1  0  0  0  0
M  END
>  <minimizedAffinity>
-5.79406786

$$$$

 OpenBabel03242514113D

 40 42  0  0  1  0  0  0  0  0999 V2000
   37.4180   27.1840   41.3850 C   0  0  0  0  0  0  0  0  0  0  0  0
   37.4330   27.1760   42.7650 C   0  0  0  0  0  0  0  0  0  0  0  0
   37.6730   28.3030   43.5460 C   0  0  0  0  0  0  0  0  0  0  0  0
   37.9010   29.4690   42.8050 C   0  0  0  0  0  0  0  0  0  0  0  0
   37.8840   29.4730   41.3990 C   0  0  0  0  0  0  0  0  0  0  0  0
   37.6460   28.3420   40.7100 N   0  0  0  0  0  0  0  0  0  0  0  0
   37.2450   26.2200   43.2490 H   0  0  0  0  0  0  0  0  0  0  0  0
   37.6740   28.2430   44.6050 H   0  0  0  0  0  0  0  0  0  0  0  0
   38.0830   30.3090   43.4610 H   0  0  0  0  0  0  0  0  0  0  0  0
   38.1120   30.7330   40.6980 C   0  0  1  0  0  0  0  0  0  0  0  0
   36.7400   31.4890   40.4650 C   0  0  0  0  0  0  0  0  0  0  0  0
   37.1240   32.4970   39.3460 C   0  0  0  0  0  0  0  0  0  0  0  0
   37.9490   33.5570   40.0940 C   0  0  0  0  0  0  0  0  0  0  0  0
   39.1990   32.9670   40.6300 C   0  0  0  0  0  0  0  0  0  0  0  0
   39.1140   31.6110   41.2220 C   0  0  2  0  0  0  0  0  0  0  0  0
   38.3390   30.4430   39.6290 H   0  0  0  0  0  0  0  0  0  0  0  0
   36.4900   32.0660   41.3590 H   0  0  0  0  0  0  0  0  0  0  0  0
   35.9910   30.7790   40.1220 H   0  0  0  0  0  0  0  0  0  0  0  0
   37.7030   31.9910   38.5730 H   0  0  0  0  0  0  0  0  0  0  0  0
   36.1730   32.9250   39.0090 H   0  0  0  0  0  0  0  0  0  0  0  0
   37.2890   34.0430   40.8190 H   0  0  0  0  0  0  0  0  0  0  0  0
   38.1760   34.3210   39.3230 H   0  0  0  0  0  0  0  0  0  0  0  0
   39.9390   32.9940   39.7760 H   0  0  0  0  0  0  0  0  0  0  0  0
   39.6360   33.6830   41.3590 H   0  0  0  0  0  0  0  0  0  0  0  0
   38.9700   31.7650   42.3350 H   0  0  0  0  0  0  0  0  0  0  0  0
   40.7290   30.8240   40.9170 S   0  0  0  0  0  0  0  0  0  0  0  0
   41.5040   30.7690   42.0850 H   0  0  0  0  0  0  0  0  0  0  0  0
   36.2180   24.7240   38.9700 C   0  0  0  0  0  0  0  0  0  0  0  0
   36.7580   23.5370   39.3910 C   0  0  0  0  0  0  0  0  0  0  0  0
   37.5470   23.5930   40.5240 C   0  0  0  0  0  0  0  0  0  0  0  0
   37.7340   24.8030   41.1400 N   0  0  0  0  0  0  0  0  0  0  0  0
   37.1540   25.9600   40.6550 C   0  0  0  0  0  0  0  0  0  0  0  0
   36.4190   25.9120   39.6010 N   0  0  0  0  0  0  0  0  0  0  0  0
   38.1980   22.5060   41.1280 N   0  0  0  0  0  0  0  0  0  0  0  0
   35.5960   24.6820   38.0780 H   0  0  0  0  0  0  0  0  0  0  0  0
   38.0520   22.2440   42.1290 H   0  0  0  0  0  0  0  0  0  0  0  0
   38.8830   21.8170   40.7500 H   0  0  0  0  0  0  0  0  0  0  0  0
   36.5760   22.2590   38.7620 C   0  0  0  0  0  0  0  0  0  0  0  0
   35.6240   21.7490   38.6740 H   0  0  0  0  0  0  0  0  0  0  0  0
   37.5870   21.6900   38.2810 O   0  0  0  0  0  0  0  0  0  0  0  0
  1  2  1  0  0  0  0
  2  7  1  0  0  0  0
  2  3  2  0  0  0  0
  3  8  1  0  0  0  0
  4  9  1  0  0  0  0
  4  3  1  0  0  0  0
  5  4  2  0  0  0  0
  6  1  2  0  0  0  0
  6  5  1  0  0  0  0
 10 16  1  6  0  0  0
 10 15  1  0  0  0  0
 10  5  1  0  0  0  0
 11 10  1  0  0  0  0
 11 17  1  0  0  0  0
 12 13  1  0  0  0  0
 12 11  1  0  0  0  0
 13 14  1  0  0  0  0
 13 21  1  0  0  0  0
 14 15  1  0  0  0  0
 14 24  1  0  0  0  0
 15 25  1  1  0  0  0
 18 11  1  0  0  0  0
 19 12  1  0  0  0  0
 20 12  1  0  0  0  0
 22 13  1  0  0  0  0
 23 14  1  0  0  0  0
 26 15  1  0  0  0  0
 26 27  1  0  0  0  0
 28 29  2  0  0  0  0
 28 33  1  0  0  0  0
 29 30  1  0  0  0  0
 30 34  1  0  0  0  0
 30 31  2  0  0  0  0
 32 31  1  0  0  0  0
 32  1  1  0  0  0  0
 33 32  2  0  0  0  0
 34 36  1  0  0  0  0
 35 28  1  0  0  0  0
 37 34  1  0  0  0  0
 38 29  1  0  0  0  0
 39 38  1  0  0  0  0
 40 38  2  0  0  0  0
M  END
>  <minimizedAffinity>
-5.5535655

$$$$

 OpenBabel03242514113D

 40 42  0  0  1  0  0  0  0  0999 V2000
   37.9560   30.6250   39.8640 C   0  0  0  0  0  0  0  0  0  0  0  0
   36.7260   31.1590   40.1870 C   0  0  0  0  0  0  0  0  0  0  0  0
   35.6600   30.4130   40.6830 C   0  0  0  0  0  0  0  0  0  0  0  0
   35.9430   29.0490   40.8310 C   0  0  0  0  0  0  0  0  0  0  0  0
   37.2000   28.5090   40.5000 C   0  0  0  0  0  0  0  0  0  0  0  0
   38.1830   29.2940   40.0250 N   0  0  0  0  0  0  0  0  0  0  0  0
   36.6040   32.2300   40.0360 H   0  0  0  0  0  0  0  0  0  0  0  0
   34.7340   30.8720   40.9150 H   0  0  0  0  0  0  0  0  0  0  0  0
   35.0830   28.5200   41.2150 H   0  0  0  0  0  0  0  0  0  0  0  0
   37.4230   27.0810   40.7010 C   0  0  1  0  0  0  0  0  0  0  0  0
   37.3310   26.7200   42.2410 C   0  0  0  0  0  0  0  0  0  0  0  0
   38.0400   25.3380   42.2820 C   0  0  0  0  0  0  0  0  0  0  0  0
   36.9980   24.3880   41.6700 C   0  0  0  0  0  0  0  0  0  0  0  0
   36.7450   24.7330   40.2490 C   0  0  0  0  0  0  0  0  0  0  0  0
   36.6610   26.1710   39.9020 C   0  0  2  0  0  0  0  0  0  0  0  0
   38.5340   26.9290   40.5500 H   0  0  0  0  0  0  0  0  0  0  0  0
   36.2830   26.5630   42.5120 H   0  0  0  0  0  0  0  0  0  0  0  0
   37.8740   27.4650   42.8190 H   0  0  0  0  0  0  0  0  0  0  0  0
   38.9600   25.3750   41.6990 H   0  0  0  0  0  0  0  0  0  0  0  0
   38.1740   25.1180   43.3480 H   0  0  0  0  0  0  0  0  0  0  0  0
   36.1270   24.3770   42.3310 H   0  0  0  0  0  0  0  0  0  0  0  0
   37.4610   23.3840   41.7520 H   0  0  0  0  0  0  0  0  0  0  0  0
   37.5610   24.2180   39.6610 H   0  0  0  0  0  0  0  0  0  0  0  0
   35.8280   24.1990   39.9210 H   0  0  0  0  0  0  0  0  0  0  0  0
   35.5600   26.4360   39.9330 H   0  0  0  0  0  0  0  0  0  0  0  0
   37.2770   26.3150   38.1920 S   0  0  0  0  0  0  0  0  0  0  0  0
   36.2290   26.5200   37.2830 H   0  0  0  0  0  0  0  0  0  0  0  0
   40.4680   32.2380   37.7620 C   0  0  0  0  0  0  0  0  0  0  0  0
   41.0190   33.2040   38.5650 C   0  0  0  0  0  0  0  0  0  0  0  0
   40.5120   33.2950   39.8460 C   0  0  0  0  0  0  0  0  0  0  0  0
   39.5140   32.4340   40.2240 N   0  0  0  0  0  0  0  0  0  0  0  0
   39.0090   31.4840   39.3580 C   0  0  0  0  0  0  0  0  0  0  0  0
   39.4790   31.3950   38.1640 N   0  0  0  0  0  0  0  0  0  0  0  0
   40.9230   34.2060   40.8310 N   0  0  0  0  0  0  0  0  0  0  0  0
   40.8660   32.1640   36.7520 H   0  0  0  0  0  0  0  0  0  0  0  0
   41.2660   33.9060   41.7710 H   0  0  0  0  0  0  0  0  0  0  0  0
   40.9650   35.2470   40.8310 H   0  0  0  0  0  0  0  0  0  0  0  0
   42.0630   34.1150   38.1890 C   0  0  0  0  0  0  0  0  0  0  0  0
   41.9770   34.8570   37.4030 H   0  0  0  0  0  0  0  0  0  0  0  0
   43.1520   34.0500   38.8100 O   0  0  0  0  0  0  0  0  0  0  0  0
  1  6  2  0  0  0  0
  1  2  1  0  0  0  0
  2  3  2  0  0  0  0
  3  4  1  0  0  0  0
  3  8  1  0  0  0  0
  4  9  1  0  0  0  0
  5 10  1  0  0  0  0
  5  4  2  0  0  0  0
  6  5  1  0  0  0  0
  7  2  1  0  0  0  0
 10 16  1  6  0  0  0
 10 11  1  0  0  0  0
 11 12  1  0  0  0  0
 11 17  1  0  0  0  0
 11 18  1  0  0  0  0
 12 20  1  0  0  0  0
 13 22  1  0  0  0  0
 13 12  1  0  0  0  0
 13 21  1  0  0  0  0
 14 13  1  0  0  0  0
 15 25  1  1  0  0  0
 15 14  1  0  0  0  0
 15 10  1  0  0  0  0
 19 12  1  0  0  0  0
 23 14  1  0  0  0  0
 24 14  1  0  0  0  0
 26 15  1  0  0  0  0
 27 26  1  0  0  0  0
 28 33  2  0  0  0  0
 28 29  1  0  0  0  0
 29 30  2  0  0  0  0
 30 31  1  0  0  0  0
 30 34  1  0  0  0  0
 32  1  1  0  0  0  0
 32 31  2  0  0  0  0
 33 32  1  0  0  0  0
 34 36  1  0  0  0  0
 35 28  1  0  0  0  0
 37 34  1  0  0  0  0
 38 29  1  0  0  0  0
 38 40  2  0  0  0  0
 39 38  1  0  0  0  0
M  END
>  <minimizedAffinity>
-5.4827652

$$$$

 OpenBabel03242514113D

 40 42  0  0  1  0  0  0  0  0999 V2000
   38.1320   30.3010   40.4420 C   0  0  0  0  0  0  0  0  0  0  0  0
   37.1520   31.2700   40.5170 C   0  0  0  0  0  0  0  0  0  0  0  0
   37.3350   32.5930   40.1270 C   0  0  0  0  0  0  0  0  0  0  0  0
   38.6190   32.8690   39.6400 C   0  0  0  0  0  0  0  0  0  0  0  0
   39.6150   31.8790   39.5640 C   0  0  0  0  0  0  0  0  0  0  0  0
   39.3650   30.6180   39.9610 N   0  0  0  0  0  0  0  0  0  0  0  0
   36.1870   30.9560   40.9100 H   0  0  0  0  0  0  0  0  0  0  0  0
   36.5480   33.2990   40.2060 H   0  0  0  0  0  0  0  0  0  0  0  0
   38.7050   33.9080   39.3550 H   0  0  0  0  0  0  0  0  0  0  0  0
   40.9230   32.2400   39.0270 C   0  0  1  0  0  0  0  0  0  0  0  0
   40.8440   32.4110   37.4540 C   0  0  0  0  0  0  0  0  0  0  0  0
   42.3430   32.3160   37.0530 C   0  0  0  0  0  0  0  0  0  0  0  0
   42.9130   33.6740   37.4930 C   0  0  0  0  0  0  0  0  0  0  0  0
   42.8390   33.8220   38.9670 C   0  0  0  0  0  0  0  0  0  0  0  0
   41.6130   33.3340   39.6410 C   0  0  2  0  0  0  0  0  0  0  0  0
   41.5360   31.2910   39.0720 H   0  0  0  0  0  0  0  0  0  0  0  0
   40.5020   33.4220   37.2180 H   0  0  0  0  0  0  0  0  0  0  0  0
   40.2650   31.5930   37.0310 H   0  0  0  0  0  0  0  0  0  0  0  0
   42.8140   31.4820   37.5720 H   0  0  0  0  0  0  0  0  0  0  0  0
   42.3420   32.2420   35.9590 H   0  0  0  0  0  0  0  0  0  0  0  0
   42.4200   34.4510   36.9010 H   0  0  0  0  0  0  0  0  0  0  0  0
   43.9680   33.6510   37.1540 H   0  0  0  0  0  0  0  0  0  0  0  0
   43.7600   33.3040   39.3710 H   0  0  0  0  0  0  0  0  0  0  0  0
   43.0240   34.8880   39.2190 H   0  0  0  0  0  0  0  0  0  0  0  0
   40.9320   34.2340   39.7380 H   0  0  0  0  0  0  0  0  0  0  0  0
   42.1330   32.7780   41.2970 S   0  0  0  0  0  0  0  0  0  0  0  0
   41.7470   33.6890   42.2900 H   0  0  0  0  0  0  0  0  0  0  0  0
   37.9000   26.6650   40.6640 C   0  0  0  0  0  0  0  0  0  0  0  0
   37.2180   26.4350   41.8310 C   0  0  0  0  0  0  0  0  0  0  0  0
   36.8360   27.5540   42.5450 C   0  0  0  0  0  0  0  0  0  0  0  0
   37.1560   28.7930   42.0540 N   0  0  0  0  0  0  0  0  0  0  0  0
   37.8470   28.9450   40.8680 C   0  0  0  0  0  0  0  0  0  0  0  0
   38.2040   27.9060   40.1990 N   0  0  0  0  0  0  0  0  0  0  0  0
   36.1340   27.5540   43.7610 N   0  0  0  0  0  0  0  0  0  0  0  0
   38.2020   25.7860   40.1000 H   0  0  0  0  0  0  0  0  0  0  0  0
   35.2290   28.0590   43.8910 H   0  0  0  0  0  0  0  0  0  0  0  0
   36.3450   27.1060   44.6780 H   0  0  0  0  0  0  0  0  0  0  0  0
   36.8730   25.1470   42.3640 C   0  0  0  0  0  0  0  0  0  0  0  0
   36.0930   24.9760   43.0970 H   0  0  0  0  0  0  0  0  0  0  0  0
   37.5170   24.1500   41.9560 O   0  0  0  0  0  0  0  0  0  0  0  0
  1  2  1  0  0  0  0
  1 32  1  0  0  0  0
  2  7  1  0  0  0  0
  3  8  1  0  0  0  0
  3  2  2  0  0  0  0
  4  3  1  0  0  0  0
  5  4  2  0  0  0  0
  5  6  1  0  0  0  0
  6  1  2  0  0  0  0
  9  4  1  0  0  0  0
 10 16  1  1  0  0  0
 10  5  1  0  0  0  0
 10 15  1  0  0  0  0
 11 10  1  0  0  0  0
 12 11  1  0  0  0  0
 12 13  1  0  0  0  0
 12 19  1  0  0  0  0
 13 14  1  0  0  0  0
 14 24  1  0  0  0  0
 14 23  1  0  0  0  0
 14 15  1  0  0  0  0
 15 25  1  1  0  0  0
 15 26  1  0  0  0  0
 17 11  1  0  0  0  0
 18 11  1  0  0  0  0
 20 12  1  0  0  0  0
 21 13  1  0  0  0  0
 22 13  1  0  0  0  0
 26 27  1  0  0  0  0
 28 29  1  0  0  0  0
 29 38  1  0  0  0  0
 29 30  2  0  0  0  0
 30 34  1  0  0  0  0
 31 30  1  0  0  0  0
 32 31  2  0  0  0  0
 33 28  2  0  0  0  0
 33 32  1  0  0  0  0
 34 36  1  0  0  0  0
 34 37  1  0  0  0  0
 35 28  1  0  0  0  0
 38 39  1  0  0  0  0
 40 38  2  0  0  0  0
M  END
>  <minimizedAffinity>
-5.45063543

$$$$

 OpenBabel03242514113D

 40 42  0  0  1  0  0  0  0  0999 V2000
   37.3330   26.8850   41.7290 C   0  0  0  0  0  0  0  0  0  0  0  0
   37.2230   26.9820   43.1010 C   0  0  0  0  0  0  0  0  0  0  0  0
   37.3560   28.1730   43.8090 C   0  0  0  0  0  0  0  0  0  0  0  0
   37.6140   29.2880   43.0020 C   0  0  0  0  0  0  0  0  0  0  0  0
   37.7250   29.1850   41.6030 C   0  0  0  0  0  0  0  0  0  0  0  0
   37.5840   27.9970   40.9870 N   0  0  0  0  0  0  0  0  0  0  0  0
   37.0220   26.0590   43.6400 H   0  0  0  0  0  0  0  0  0  0  0  0
   37.2640   28.1940   44.8650 H   0  0  0  0  0  0  0  0  0  0  0  0
   37.7110   30.1820   43.6020 H   0  0  0  0  0  0  0  0  0  0  0  0
   37.9760   30.3960   40.8280 C   0  0  1  0  0  0  0  0  0  0  0  0
   36.6200   31.1700   40.5620 C   0  0  0  0  0  0  0  0  0  0  0  0
   37.0170   32.1010   39.3830 C   0  0  0  0  0  0  0  0  0  0  0  0
   37.8730   33.1830   40.0610 C   0  0  0  0  0  0  0  0  0  0  0  0
   39.1150   32.5960   40.6210 C   0  0  0  0  0  0  0  0  0  0  0  0
   39.0030   31.2790   41.2920 C   0  0  2  0  0  0  0  0  0  0  0  0
   38.1860   30.0390   39.7760 H   0  0  0  0  0  0  0  0  0  0  0  0
   36.3920   31.8040   41.4220 H   0  0  0  0  0  0  0  0  0  0  0  0
   35.8510   30.4590   40.2670 H   0  0  0  0  0  0  0  0  0  0  0  0
   37.5770   31.5380   38.6370 H   0  0  0  0  0  0  0  0  0  0  0  0
   36.0730   32.5320   39.0280 H   0  0  0  0  0  0  0  0  0  0  0  0
   37.2320   33.7260   40.7610 H   0  0  0  0  0  0  0  0  0  0  0  0
   38.1110   33.8960   39.2450 H   0  0  0  0  0  0  0  0  0  0  0  0
   39.8470   32.5550   39.7610 H   0  0  0  0  0  0  0  0  0  0  0  0
   39.5750   33.3420   41.3040 H   0  0  0  0  0  0  0  0  0  0  0  0
   38.8720   31.5010   42.3950 H   0  0  0  0  0  0  0  0  0  0  0  0
   40.5960   30.4370   41.0220 S   0  0  0  0  0  0  0  0  0  0  0  0
   41.3800   30.4320   42.1840 H   0  0  0  0  0  0  0  0  0  0  0  0
   37.4560   23.3360   40.8840 C   0  0  0  0  0  0  0  0  0  0  0  0
   36.7740   23.2420   39.6980 C   0  0  0  0  0  0  0  0  0  0  0  0
   36.2670   24.4210   39.1890 C   0  0  0  0  0  0  0  0  0  0  0  0
   36.4740   25.5840   39.8860 N   0  0  0  0  0  0  0  0  0  0  0  0
   37.1730   25.6000   41.0770 C   0  0  0  0  0  0  0  0  0  0  0  0
   37.6470   24.5040   41.5540 N   0  0  0  0  0  0  0  0  0  0  0  0
   35.5390   24.5580   37.9980 N   0  0  0  0  0  0  0  0  0  0  0  0
   37.8560   22.4080   41.2860 H   0  0  0  0  0  0  0  0  0  0  0  0
   35.8300   25.2020   37.2280 H   0  0  0  0  0  0  0  0  0  0  0  0
   34.6600   24.1020   37.6720 H   0  0  0  0  0  0  0  0  0  0  0  0
   36.5450   22.0350   38.9530 C   0  0  0  0  0  0  0  0  0  0  0  0
   37.3250   21.4520   38.4770 H   0  0  0  0  0  0  0  0  0  0  0  0
   35.3630   21.6270   38.8430 O   0  0  0  0  0  0  0  0  0  0  0  0
  1  2  1  0  0  0  0
  2  7  1  0  0  0  0
  2  3  2  0  0  0  0
  3  8  1  0  0  0  0
  4  9  1  0  0  0  0
  4  3  1  0  0  0  0
  5  4  2  0  0  0  0
  6  5  1  0  0  0  0
  6  1  2  0  0  0  0
 10 16  1  6  0  0  0
 10 15  1  0  0  0  0
 10  5  1  0  0  0  0
 11 10  1  0  0  0  0
 11 17  1  0  0  0  0
 12 13  1  0  0  0  0
 12 11  1  0  0  0  0
 13 14  1  0  0  0  0
 13 21  1  0  0  0  0
 14 15  1  0  0  0  0
 14 24  1  0  0  0  0
 15 25  1  1  0  0  0
 18 11  1  0  0  0  0
 19 12  1  0  0  0  0
 20 12  1  0  0  0  0
 22 13  1  0  0  0  0
 23 14  1  0  0  0  0
 26 15  1  0  0  0  0
 26 27  1  0  0  0  0
 28 35  1  0  0  0  0
 28 33  1  0  0  0  0
 29 28  2  0  0  0  0
 30 29  1  0  0  0  0
 30 31  2  0  0  0  0
 31 32  1  0  0  0  0
 32 33  2  0  0  0  0
 32  1  1  0  0  0  0
 34 30  1  0  0  0  0
 36 34  1  0  0  0  0
 37 34  1  0  0  0  0
 38 29  1  0  0  0  0
 39 38  1  0  0  0  0
 40 38  2  0  0  0  0
M  END
>  <minimizedAffinity>
-5.43704987

$$$$
