
 OpenBabel03252505413D

 30 32  0  0  1  0  0  0  0  0999 V2000
   44.0110   34.6990   42.4790 C   0  0  1  0  0  0  0  0  0  0  0  0
   44.2270   36.1500   41.9640 C   0  0  0  0  0  0  0  0  0  0  0  0
   44.0640   34.9560   41.0530 C   0  0  2  0  0  0  0  0  0  0  0  0
   43.0400   34.6460   43.0330 H   0  0  0  0  0  0  0  0  0  0  0  0
   45.2650   36.5410   42.0240 H   0  0  0  0  0  0  0  0  0  0  0  0
   43.3800   36.8320   41.9400 H   0  0  0  0  0  0  0  0  0  0  0  0
   44.9040   34.6960   40.3990 H   0  0  0  0  0  0  0  0  0  0  0  0
   45.1700   34.1690   43.2400 C   0  0  0  0  0  0  0  0  0  0  0  0
   46.4420   34.1540   42.6090 C   0  0  0  0  0  0  0  0  0  0  0  0
   47.5260   33.6630   43.3320 C   0  0  0  0  0  0  0  0  0  0  0  0
   47.3100   33.2250   44.5980 N   0  0  0  0  0  0  0  0  0  0  0  0
   46.0880   33.2550   45.1610 C   0  0  0  0  0  0  0  0  0  0  0  0
   45.0380   33.7300   44.4640 N   0  0  0  0  0  0  0  0  0  0  0  0
   46.6160   34.4960   41.6170 H   0  0  0  0  0  0  0  0  0  0  0  0
   48.5230   33.6260   42.9020 H   0  0  0  0  0  0  0  0  0  0  0  0
   46.0630   32.7300   46.5660 C   0  0  0  0  0  0  0  0  0  0  0  0
   45.0900   33.3430   47.3230 F   0  0  0  0  0  0  0  0  0  0  0  0
   47.2960   33.0030   47.1830 F   0  0  0  0  0  0  0  0  0  0  0  0
   45.9400   31.3580   46.5410 F   0  0  0  0  0  0  0  0  0  0  0  0
   42.7450   34.7910   40.3410 C   0  0  0  0  0  0  0  0  0  0  0  0
   42.5710   35.1970   39.0400 C   0  0  0  0  0  0  0  0  0  0  0  0
   41.3840   35.0550   38.3640 C   0  0  0  0  0  0  0  0  0  0  0  0
   40.3500   34.4880   39.0250 N   0  0  0  0  0  0  0  0  0  0  0  0
   40.5060   34.0820   40.3100 C   0  0  0  0  0  0  0  0  0  0  0  0
   41.6820   34.2300   40.9580 N   0  0  0  0  0  0  0  0  0  0  0  0
   43.3830   35.6520   38.4920 H   0  0  0  0  0  0  0  0  0  0  0  0
   41.2540   35.3810   37.3290 H   0  0  0  0  0  0  0  0  0  0  0  0
   39.3800   33.4710   41.0120 C   0  0  0  0  0  0  0  0  0  0  0  0
   39.4760   33.1930   42.0530 H   0  0  0  0  0  0  0  0  0  0  0  0
   38.2780   33.2630   40.3980 O   0  0  0  0  0  0  0  0  0  0  0  0
  1  4  1  1  0  0  0
  1  8  1  0  0  0  0
  2  5  1  0  0  0  0
  2  1  1  0  0  0  0
  3  7  1  6  0  0  0
  3  2  1  0  0  0  0
  3  1  1  0  0  0  0
  6  2  1  0  0  0  0
  8 13  1  0  0  0  0
  9  8  2  0  0  0  0
  9 10  1  0  0  0  0
 10 11  2  0  0  0  0
 11 12  1  0  0  0  0
 12 16  1  0  0  0  0
 13 12  2  0  0  0  0
 14  9  1  0  0  0  0
 15 10  1  0  0  0  0
 16 18  1  0  0  0  0
 16 17  1  0  0  0  0
 19 16  1  0  0  0  0
 20 25  1  0  0  0  0
 20  3  1  0  0  0  0
 21 20  2  0  0  0  0
 22 23  2  0  0  0  0
 22 21  1  0  0  0  0
 23 24  1  0  0  0  0
 24 25  2  0  0  0  0
 24 28  1  0  0  0  0
 26 21  1  0  0  0  0
 27 22  1  0  0  0  0
 28 29  1  0  0  0  0
 30 28  2  0  0  0  0
M  END
>  <minimizedAffinity>
-5.14259768

>  <minimizedRMSD>
1.28456116

$$$$
