REMARK  Name = 
REMARK  7 active torsions:
REMARK  status: ('A' for Active; 'I' for Inactive)
REMARK    1  A    between atoms: C_1  and  C_4
REMARK    2  A    between atoms: C_1  and  O_8
REMARK    3  A    between atoms: O_8  and  P_10
REMARK    4  A    between atoms: P_10  and  O_11
REMARK    5  A    between atoms: P_10  and  O_12
REMARK    6  A    between atoms: O_12  and  C_13
REMARK    7  A    between atoms: C_17  and  C_32
REMARK                            x       y       z     vdW  Elec       q    Type
REMARK                         _______ _______ _______ _____ _____    ______ ____
ROOT
ATOM      1  O   UNL     1      44.643  35.178  45.252  0.00  0.00    +0.000 OA
ATOM      2  P   UNL     1      45.451  34.239  44.421  0.00  0.00    +0.000 P 
ENDROOT
BRANCH   2   3
ATOM      3  O   UNL     1      44.516  33.061  43.676  0.00  0.00    +0.000 OA
ATOM      4  H   UNL     1      44.796  32.876  42.763  0.00  0.00    +0.000 HD
ENDBRANCH   2   3
BRANCH   2   5
ATOM      5  O   UNL     1      46.545  33.402  45.413  0.00  0.00    +0.000 OA
BRANCH   5   6
ATOM      6  C   UNL     1      46.182  32.090  45.436  0.00  0.00    +0.000 C 
ATOM      7  H   UNL     1      45.396  31.748  44.779  0.00  0.00    +0.000 HD
ATOM      8  H   UNL     1      47.101  31.515  45.117  0.00  0.00    +0.000 HD
BRANCH   6  11
ATOM      9  C   UNL     1      45.759  32.025  49.132  0.00  0.00    +0.000 A 
ATOM     10  C   UNL     1      46.048  32.491  47.843  0.00  0.00    +0.000 A 
ATOM     11  C   UNL     1      45.882  31.612  46.788  0.00  0.00    +0.000 A 
ATOM     12  N   UNL     1      45.447  30.341  47.060  0.00  0.00    +0.000 NA
ATOM     13  C   UNL     1      45.177  29.924  48.314  0.00  0.00    +0.000 A 
ATOM     14  N   UNL     1      45.337  30.774  49.337  0.00  0.00    +0.000 NA
ATOM     15  H   UNL     1      45.902  32.740  49.923  0.00  0.00    +0.000 HD
ATOM     16  H   UNL     1      46.390  33.499  47.662  0.00  0.00    +0.000 HD
ATOM     17  H   UNL     1      44.836  28.924  48.516  0.00  0.00    +0.000 HD
ENDBRANCH   6  11
ENDBRANCH   5   6
ENDBRANCH   2   5
BRANCH   2  18
ATOM     18  O   UNL     1      46.348  35.123  43.306  0.00  0.00    +0.000 OA
BRANCH  18  19
ATOM     19  C   UNL     1      47.107  34.250  42.527  0.00  0.00    +0.000 C 
ATOM     20  C   UNL     1      46.951  34.475  41.048  0.00  0.00    +0.000 C 
ATOM     21  C   UNL     1      48.114  33.666  40.505  0.00  0.00    +0.000 C 
ATOM     22  C   UNL     1      49.166  33.657  41.593  0.00  0.00    +0.000 C 
ATOM     23  C   UNL     1      48.598  34.545  42.711  0.00  0.00    +0.000 C 
ATOM     24  H   UNL     1      46.966  33.189  42.763  0.00  0.00    +0.000 HD
ATOM     25  H   UNL     1      46.979  35.525  40.762  0.00  0.00    +0.000 HD
ATOM     26  H   UNL     1      46.029  33.959  40.698  0.00  0.00    +0.000 HD
ATOM     27  H   UNL     1      47.800  32.650  40.209  0.00  0.00    +0.000 HD
ATOM     28  H   UNL     1      48.548  34.214  39.639  0.00  0.00    +0.000 HD
ATOM     29  H   UNL     1      49.192  32.626  42.005  0.00  0.00    +0.000 HD
ATOM     30  H   UNL     1      50.146  34.012  41.235  0.00  0.00    +0.000 HD
ATOM     31  H   UNL     1      48.894  34.187  43.699  0.00  0.00    +0.000 HD
BRANCH  23  32
ATOM     32  C   UNL     1      48.925  35.963  42.517  0.00  0.00    +0.000 C 
ATOM     33  H   UNL     1      49.745  36.436  43.035  0.00  0.00    +0.000 HD
ATOM     34  O   UNL     1      48.231  36.625  41.733  0.00  0.00    +0.000 OA
ENDBRANCH  23  32
ENDBRANCH  18  19
ENDBRANCH   2  18
TORSDOF 7
