
 OpenBabel03252502483D

 39 41  0  0  1  0  0  0  0  0999 V2000
   36.7120   28.9800   40.9350 C   0  0  1  0  0  0  0  0  0  0  0  0
   35.6140   29.6840   40.2230 C   0  0  0  0  0  0  0  0  0  0  0  0
   36.5690   30.4260   41.0750 C   0  0  2  0  0  0  0  0  0  0  0  0
   37.4960   28.5310   40.3320 H   0  0  0  0  0  0  0  0  0  0  0  0
   35.6470   29.7370   39.1050 H   0  0  0  0  0  0  0  0  0  0  0  0
   34.5730   29.4560   40.5660 H   0  0  0  0  0  0  0  0  0  0  0  0
   36.1240   30.9320   41.9310 H   0  0  0  0  0  0  0  0  0  0  0  0
   37.5420   31.1800   40.2910 N   0  0  0  0  0  0  0  0  0  0  0  0
   38.6760   31.6180   41.0220 C   0  0  0  0  0  0  0  0  0  0  0  0
   39.5420   32.3670   40.0250 C   0  0  0  0  0  0  0  0  0  0  0  0
   38.8760   33.5350   39.5410 N   0  0  0  0  0  0  0  0  0  0  0  0
   37.4390   33.4310   39.5110 C   0  0  0  0  0  0  0  0  0  0  0  0
   37.0280   31.9820   39.2670 C   0  0  0  0  0  0  0  0  0  0  0  0
   38.4340   32.3270   41.8560 H   0  0  0  0  0  0  0  0  0  0  0  0
   39.2380   30.7570   41.4190 H   0  0  0  0  0  0  0  0  0  0  0  0
   39.7060   31.6810   39.1620 H   0  0  0  0  0  0  0  0  0  0  0  0
   40.5270   32.6030   40.4450 H   0  0  0  0  0  0  0  0  0  0  0  0
   39.3070   33.9210   38.6940 H   0  0  0  0  0  0  0  0  0  0  0  0
   37.0570   34.0480   38.6620 H   0  0  0  0  0  0  0  0  0  0  0  0
   37.0010   33.7550   40.4840 H   0  0  0  0  0  0  0  0  0  0  0  0
   37.4400   31.6760   38.2790 H   0  0  0  0  0  0  0  0  0  0  0  0
   35.9050   31.9530   39.2160 H   0  0  0  0  0  0  0  0  0  0  0  0
   36.3330   28.1490   42.1230 C   0  0  0  0  0  0  0  0  0  0  0  0
   36.0440   27.0970   41.8430 H   0  0  0  0  0  0  0  0  0  0  0  0
   35.4310   28.5800   42.5970 H   0  0  0  0  0  0  0  0  0  0  0  0
   37.4950   28.1910   43.0710 C   0  0  0  0  0  0  0  0  0  0  0  0
   38.2340   28.9270   42.6370 H   0  0  0  0  0  0  0  0  0  0  0  0
   37.3070   28.5340   44.0750 H   0  0  0  0  0  0  0  0  0  0  0  0
   40.0880   25.5390   43.5900 C   0  0  0  0  0  0  0  0  0  0  0  0
   39.3970   26.7710   43.6780 C   0  0  0  0  0  0  0  0  0  0  0  0
   38.2250   26.8820   42.9750 C   0  0  0  0  0  0  0  0  0  0  0  0
   37.7760   25.8390   42.2370 N   0  0  0  0  0  0  0  0  0  0  0  0
   38.4280   24.6960   42.1630 C   0  0  0  0  0  0  0  0  0  0  0  0
   39.5730   24.5330   42.8270 N   0  0  0  0  0  0  0  0  0  0  0  0
   41.0190   25.3860   44.1210 H   0  0  0  0  0  0  0  0  0  0  0  0
   39.8330   27.5460   44.2910 H   0  0  0  0  0  0  0  0  0  0  0  0
   37.8420   23.6490   41.3360 C   0  0  0  0  0  0  0  0  0  0  0  0
   38.3360   22.7830   40.9400 H   0  0  0  0  0  0  0  0  0  0  0  0
   36.6410   23.7150   41.0250 O   0  0  0  0  0  0  0  0  0  0  0  0
  1  4  1  6  0  0  0
  1  3  1  0  0  0  0
  1 23  1  0  0  0  0
  2  6  1  0  0  0  0
  2  1  1  0  0  0  0
  2  3  1  0  0  0  0
  3  7  1  1  0  0  0
  5  2  1  0  0  0  0
  8  9  1  0  0  0  0
  8  3  1  0  0  0  0
  9 15  1  0  0  0  0
  9 14  1  0  0  0  0
 10 17  1  0  0  0  0
 10  9  1  0  0  0  0
 11 10  1  0  0  0  0
 12 11  1  0  0  0  0
 12 20  1  0  0  0  0
 13 12  1  0  0  0  0
 13  8  1  0  0  0  0
 16 10  1  0  0  0  0
 18 11  1  0  0  0  0
 19 12  1  0  0  0  0
 21 13  1  0  0  0  0
 22 13  1  0  0  0  0
 23 25  1  0  0  0  0
 23 26  1  0  0  0  0
 24 23  1  0  0  0  0
 26 28  1  0  0  0  0
 27 26  1  0  0  0  0
 29 30  1  0  0  0  0
 29 35  1  0  0  0  0
 30 36  1  0  0  0  0
 31 26  1  0  0  0  0
 31 30  2  0  0  0  0
 32 31  1  0  0  0  0
 33 32  2  0  0  0  0
 33 34  1  0  0  0  0
 34 29  2  0  0  0  0
 37 33  1  0  0  0  0
 38 37  1  0  0  0  0
 39 37  2  0  0  0  0
M  END
>  <minimizedAffinity>
-5.01274443

$$$$

 OpenBabel03252502483D

 39 41  0  0  1  0  0  0  0  0999 V2000
   37.3200   31.7320   39.9120 C   0  0  1  0  0  0  0  0  0  0  0  0
   37.2520   33.2080   39.7430 C   0  0  0  0  0  0  0  0  0  0  0  0
   38.3720   32.5730   40.4720 C   0  0  2  0  0  0  0  0  0  0  0  0
   37.4710   31.1300   39.0220 H   0  0  0  0  0  0  0  0  0  0  0  0
   37.3760   33.6350   38.7150 H   0  0  0  0  0  0  0  0  0  0  0  0
   36.4210   33.7320   40.2800 H   0  0  0  0  0  0  0  0  0  0  0  0
   38.4570   32.8580   41.5210 H   0  0  0  0  0  0  0  0  0  0  0  0
   39.6030   32.5530   39.6890 N   0  0  0  0  0  0  0  0  0  0  0  0
   40.1350   33.8350   39.3930 C   0  0  0  0  0  0  0  0  0  0  0  0
   41.3960   33.5800   38.5870 C   0  0  0  0  0  0  0  0  0  0  0  0
   41.0890   32.9540   37.3380 N   0  0  0  0  0  0  0  0  0  0  0  0
   39.9110   32.1250   37.3630 C   0  0  0  0  0  0  0  0  0  0  0  0
   39.7290   31.5220   38.7520 C   0  0  0  0  0  0  0  0  0  0  0  0
   39.4600   34.4750   38.7690 H   0  0  0  0  0  0  0  0  0  0  0  0
   40.3980   34.3690   40.3210 H   0  0  0  0  0  0  0  0  0  0  0  0
   42.0210   32.8750   39.1810 H   0  0  0  0  0  0  0  0  0  0  0  0
   41.9790   34.4980   38.4500 H   0  0  0  0  0  0  0  0  0  0  0  0
   41.9110   32.5390   36.8860 H   0  0  0  0  0  0  0  0  0  0  0  0
   40.0530   31.2870   36.6370 H   0  0  0  0  0  0  0  0  0  0  0  0
   39.0020   32.7260   37.1250 H   0  0  0  0  0  0  0  0  0  0  0  0
   40.6240   30.8960   38.9690 H   0  0  0  0  0  0  0  0  0  0  0  0
   38.8220   30.8570   38.7160 H   0  0  0  0  0  0  0  0  0  0  0  0
   36.3640   31.1130   40.8870 C   0  0  0  0  0  0  0  0  0  0  0  0
   35.4090   31.6990   40.9920 H   0  0  0  0  0  0  0  0  0  0  0  0
   36.8190   31.1170   41.8960 H   0  0  0  0  0  0  0  0  0  0  0  0
   36.1250   29.7060   40.4250 C   0  0  0  0  0  0  0  0  0  0  0  0
   35.0270   29.4970   40.5910 H   0  0  0  0  0  0  0  0  0  0  0  0
   36.3030   29.4840   39.3860 H   0  0  0  0  0  0  0  0  0  0  0  0
   37.9720   28.4630   43.4370 C   0  0  0  0  0  0  0  0  0  0  0  0
   37.3380   29.3360   42.5230 C   0  0  0  0  0  0  0  0  0  0  0  0
   36.7970   28.7750   41.3940 C   0  0  0  0  0  0  0  0  0  0  0  0
   36.8840   27.4380   41.1930 N   0  0  0  0  0  0  0  0  0  0  0  0
   37.4780   26.6340   42.0530 C   0  0  0  0  0  0  0  0  0  0  0  0
   38.0200   27.1260   43.1670 N   0  0  0  0  0  0  0  0  0  0  0  0
   38.4190   28.8410   44.3480 H   0  0  0  0  0  0  0  0  0  0  0  0
   37.3180   30.3880   42.7680 H   0  0  0  0  0  0  0  0  0  0  0  0
   37.5060   25.2140   41.7240 C   0  0  0  0  0  0  0  0  0  0  0  0
   38.1900   24.7150   41.0660 H   0  0  0  0  0  0  0  0  0  0  0  0
   36.6680   24.4520   42.2330 O   0  0  0  0  0  0  0  0  0  0  0  0
  1  4  1  6  0  0  0
  1  3  1  0  0  0  0
  1 23  1  0  0  0  0
  2  1  1  0  0  0  0
  2  6  1  0  0  0  0
  2  3  1  0  0  0  0
  3  7  1  1  0  0  0
  5  2  1  0  0  0  0
  8  3  1  0  0  0  0
  9  8  1  0  0  0  0
  9 15  1  0  0  0  0
 10 16  1  0  0  0  0
 10  9  1  0  0  0  0
 11 12  1  0  0  0  0
 11 10  1  0  0  0  0
 12 13  1  0  0  0  0
 13 21  1  0  0  0  0
 13  8  1  0  0  0  0
 14  9  1  0  0  0  0
 17 10  1  0  0  0  0
 18 11  1  0  0  0  0
 19 12  1  0  0  0  0
 20 12  1  0  0  0  0
 22 13  1  0  0  0  0
 23 24  1  0  0  0  0
 23 25  1  0  0  0  0
 26 27  1  0  0  0  0
 26 23  1  0  0  0  0
 26 31  1  0  0  0  0
 28 26  1  0  0  0  0
 29 35  1  0  0  0  0
 30 36  1  0  0  0  0
 30 29  2  0  0  0  0
 31 30  1  0  0  0  0
 32 31  2  0  0  0  0
 32 33  1  0  0  0  0
 33 34  2  0  0  0  0
 34 29  1  0  0  0  0
 37 33  1  0  0  0  0
 37 39  2  0  0  0  0
 38 37  1  0  0  0  0
M  END
>  <minimizedAffinity>
-4.9659276

$$$$

 OpenBabel03252502483D

 39 41  0  0  1  0  0  0  0  0999 V2000
   38.0070   27.8230   43.1690 C   0  0  1  0  0  0  0  0  0  0  0  0
   36.6500   27.2360   43.3310 C   0  0  0  0  0  0  0  0  0  0  0  0
   37.3040   27.2920   42.0050 C   0  0  2  0  0  0  0  0  0  0  0  0
   38.8390   27.3010   43.6310 H   0  0  0  0  0  0  0  0  0  0  0  0
   36.5460   26.2790   43.9030 H   0  0  0  0  0  0  0  0  0  0  0  0
   35.8330   27.9460   43.6160 H   0  0  0  0  0  0  0  0  0  0  0  0
   36.7810   27.8930   41.2610 H   0  0  0  0  0  0  0  0  0  0  0  0
   37.8020   25.9900   41.5760 N   0  0  0  0  0  0  0  0  0  0  0  0
   36.9090   24.9120   41.8070 C   0  0  0  0  0  0  0  0  0  0  0  0
   37.6180   23.6730   41.2900 C   0  0  0  0  0  0  0  0  0  0  0  0
   38.8040   23.4070   42.0450 N   0  0  0  0  0  0  0  0  0  0  0  0
   39.4310   24.5800   42.5980 C   0  0  0  0  0  0  0  0  0  0  0  0
   39.1810   25.7810   41.6920 C   0  0  0  0  0  0  0  0  0  0  0  0
   36.6760   24.7390   42.8900 H   0  0  0  0  0  0  0  0  0  0  0  0
   35.9720   25.0570   41.2450 H   0  0  0  0  0  0  0  0  0  0  0  0
   37.9200   23.8900   40.2400 H   0  0  0  0  0  0  0  0  0  0  0  0
   36.9480   22.8060   41.2650 H   0  0  0  0  0  0  0  0  0  0  0  0
   39.4360   22.7470   41.5780 H   0  0  0  0  0  0  0  0  0  0  0  0
   40.5340   24.4030   42.6430 H   0  0  0  0  0  0  0  0  0  0  0  0
   39.0110   24.8130   43.6040 H   0  0  0  0  0  0  0  0  0  0  0  0
   39.6320   25.5550   40.6990 H   0  0  0  0  0  0  0  0  0  0  0  0
   39.7150   26.6620   42.1410 H   0  0  0  0  0  0  0  0  0  0  0  0
   38.1200   29.3140   43.2640 C   0  0  0  0  0  0  0  0  0  0  0  0
   38.2870   29.6720   44.3190 H   0  0  0  0  0  0  0  0  0  0  0  0
   37.1630   29.7740   42.9510 H   0  0  0  0  0  0  0  0  0  0  0  0
   39.2270   29.7240   42.3380 C   0  0  0  0  0  0  0  0  0  0  0  0
   40.0320   30.1830   42.9850 H   0  0  0  0  0  0  0  0  0  0  0  0
   39.7210   28.9490   41.7760 H   0  0  0  0  0  0  0  0  0  0  0  0
   36.9990   31.9270   40.2850 C   0  0  0  0  0  0  0  0  0  0  0  0
   37.4560   30.8330   41.0560 C   0  0  0  0  0  0  0  0  0  0  0  0
   38.7460   30.8890   41.5200 C   0  0  0  0  0  0  0  0  0  0  0  0
   39.5230   31.9610   41.2330 N   0  0  0  0  0  0  0  0  0  0  0  0
   39.0860   32.9750   40.5140 C   0  0  0  0  0  0  0  0  0  0  0  0
   37.8400   32.9730   40.0380 N   0  0  0  0  0  0  0  0  0  0  0  0
   35.9920   31.9460   39.8890 H   0  0  0  0  0  0  0  0  0  0  0  0
   36.7640   30.0220   41.2330 H   0  0  0  0  0  0  0  0  0  0  0  0
   40.0180   34.0700   40.2740 C   0  0  0  0  0  0  0  0  0  0  0  0
   39.8160   34.9940   39.7690 H   0  0  0  0  0  0  0  0  0  0  0  0
   41.1880   33.9760   40.6780 O   0  0  0  0  0  0  0  0  0  0  0  0
  1 23  1  0  0  0  0
  1  2  1  0  0  0  0
  1  4  1  1  0  0  0
  2  6  1  0  0  0  0
  2  5  1  0  0  0  0
  3  7  1  6  0  0  0
  3  1  1  0  0  0  0
  3  2  1  0  0  0  0
  8 13  1  0  0  0  0
  8  9  1  0  0  0  0
  8  3  1  0  0  0  0
  9 14  1  0  0  0  0
 10  9  1  0  0  0  0
 10 11  1  0  0  0  0
 11 12  1  0  0  0  0
 12 19  1  0  0  0  0
 12 20  1  0  0  0  0
 13 22  1  0  0  0  0
 13 12  1  0  0  0  0
 15  9  1  0  0  0  0
 16 10  1  0  0  0  0
 17 10  1  0  0  0  0
 18 11  1  0  0  0  0
 21 13  1  0  0  0  0
 23 24  1  0  0  0  0
 25 23  1  0  0  0  0
 26 27  1  0  0  0  0
 26 23  1  0  0  0  0
 28 26  1  0  0  0  0
 29 30  1  0  0  0  0
 30 36  1  0  0  0  0
 30 31  2  0  0  0  0
 31 26  1  0  0  0  0
 32 31  1  0  0  0  0
 33 32  2  0  0  0  0
 34 29  2  0  0  0  0
 34 33  1  0  0  0  0
 35 29  1  0  0  0  0
 37 33  1  0  0  0  0
 37 39  2  0  0  0  0
 38 37  1  0  0  0  0
M  END
>  <minimizedAffinity>
-4.911448

$$$$

 OpenBabel03252502483D

 39 41  0  0  1  0  0  0  0  0999 V2000
   37.6900   29.6450   42.4470 C   0  0  1  0  0  0  0  0  0  0  0  0
   38.9730   30.3500   42.1890 C   0  0  0  0  0  0  0  0  0  0  0  0
   38.3290   29.5290   41.1400 C   0  0  2  0  0  0  0  0  0  0  0  0
   36.8050   30.2520   42.6080 H   0  0  0  0  0  0  0  0  0  0  0  0
   38.9710   31.4690   42.1540 H   0  0  0  0  0  0  0  0  0  0  0  0
   39.8640   29.9840   42.7590 H   0  0  0  0  0  0  0  0  0  0  0  0
   38.9150   28.6740   40.8020 H   0  0  0  0  0  0  0  0  0  0  0  0
   37.6900   30.3440   40.1120 N   0  0  0  0  0  0  0  0  0  0  0  0
   38.4520   30.5010   38.9260 C   0  0  0  0  0  0  0  0  0  0  0  0
   37.6090   31.3680   38.0080 C   0  0  0  0  0  0  0  0  0  0  0  0
   37.4200   32.6720   38.5640 N   0  0  0  0  0  0  0  0  0  0  0  0
   37.4270   32.7110   40.0030 C   0  0  0  0  0  0  0  0  0  0  0  0
   36.8880   31.3980   40.5630 C   0  0  0  0  0  0  0  0  0  0  0  0
   39.4300   31.0260   39.0800 H   0  0  0  0  0  0  0  0  0  0  0  0
   38.6280   29.5240   38.4450 H   0  0  0  0  0  0  0  0  0  0  0  0
   36.6100   30.8790   37.9310 H   0  0  0  0  0  0  0  0  0  0  0  0
   38.0300   31.4120   36.9970 H   0  0  0  0  0  0  0  0  0  0  0  0
   36.6610   33.1930   38.1120 H   0  0  0  0  0  0  0  0  0  0  0  0
   36.7500   33.5350   40.3380 H   0  0  0  0  0  0  0  0  0  0  0  0
   38.4650   32.8500   40.3880 H   0  0  0  0  0  0  0  0  0  0  0  0
   35.8410   31.2820   40.2030 H   0  0  0  0  0  0  0  0  0  0  0  0
   36.8790   31.4860   41.6840 H   0  0  0  0  0  0  0  0  0  0  0  0
   37.7420   28.4350   43.3300 C   0  0  0  0  0  0  0  0  0  0  0  0
   37.4840   28.6670   44.4010 H   0  0  0  0  0  0  0  0  0  0  0  0
   38.7790   28.0490   43.3600 H   0  0  0  0  0  0  0  0  0  0  0  0
   36.8210   27.4170   42.7260 C   0  0  0  0  0  0  0  0  0  0  0  0
   36.1190   27.0920   43.5500 H   0  0  0  0  0  0  0  0  0  0  0  0
   36.1830   27.7380   41.9190 H   0  0  0  0  0  0  0  0  0  0  0  0
   37.6980   23.9590   41.5850 C   0  0  0  0  0  0  0  0  0  0  0  0
   36.9530   25.1330   41.8480 C   0  0  0  0  0  0  0  0  0  0  0  0
   37.6150   26.1730   42.4490 C   0  0  0  0  0  0  0  0  0  0  0  0
   38.9270   26.0480   42.7650 N   0  0  0  0  0  0  0  0  0  0  0  0
   39.6100   24.9500   42.5150 C   0  0  0  0  0  0  0  0  0  0  0  0
   39.0170   23.9080   41.9320 N   0  0  0  0  0  0  0  0  0  0  0  0
   37.2350   23.1020   41.1130 H   0  0  0  0  0  0  0  0  0  0  0  0
   35.9120   25.1390   41.5600 H   0  0  0  0  0  0  0  0  0  0  0  0
   41.0150   24.9390   42.9030 C   0  0  0  0  0  0  0  0  0  0  0  0
   41.7410   24.1780   42.6900 H   0  0  0  0  0  0  0  0  0  0  0  0
   41.4770   25.8910   43.5530 O   0  0  0  0  0  0  0  0  0  0  0  0
  1  4  1  1  0  0  0
  1 23  1  0  0  0  0
  2  1  1  0  0  0  0
  2  6  1  0  0  0  0
  3  7  1  6  0  0  0
  3  2  1  0  0  0  0
  3  1  1  0  0  0  0
  5  2  1  0  0  0  0
  8 13  1  0  0  0  0
  8  3  1  0  0  0  0
  9 14  1  0  0  0  0
  9  8  1  0  0  0  0
 10 11  1  0  0  0  0
 10  9  1  0  0  0  0
 11 12  1  0  0  0  0
 12 19  1  0  0  0  0
 12 20  1  0  0  0  0
 12 13  1  0  0  0  0
 13 22  1  0  0  0  0
 15  9  1  0  0  0  0
 16 10  1  0  0  0  0
 17 10  1  0  0  0  0
 18 11  1  0  0  0  0
 21 13  1  0  0  0  0
 23 25  1  0  0  0  0
 23 24  1  0  0  0  0
 26 23  1  0  0  0  0
 26 27  1  0  0  0  0
 28 26  1  0  0  0  0
 29 30  2  0  0  0  0
 29 34  1  0  0  0  0
 30 31  1  0  0  0  0
 31 26  1  0  0  0  0
 31 32  2  0  0  0  0
 33 32  1  0  0  0  0
 33 37  1  0  0  0  0
 34 33  2  0  0  0  0
 35 29  1  0  0  0  0
 36 30  1  0  0  0  0
 37 39  2  0  0  0  0
 38 37  1  0  0  0  0
M  END
>  <minimizedAffinity>
-4.82577419

$$$$

 OpenBabel03252502483D

 39 41  0  0  1  0  0  0  0  0999 V2000
   38.8740   29.2650   42.7400 C   0  0  1  0  0  0  0  0  0  0  0  0
   40.2300   29.8490   42.5620 C   0  0  0  0  0  0  0  0  0  0  0  0
   39.4100   29.4540   41.3960 C   0  0  2  0  0  0  0  0  0  0  0  0
   38.1000   29.9060   43.1510 H   0  0  0  0  0  0  0  0  0  0  0  0
   40.3920   30.9210   42.8400 H   0  0  0  0  0  0  0  0  0  0  0  0
   41.0890   29.2250   42.9170 H   0  0  0  0  0  0  0  0  0  0  0  0
   39.8410   28.6670   40.7770 H   0  0  0  0  0  0  0  0  0  0  0  0
   38.8390   30.6040   40.7040 N   0  0  0  0  0  0  0  0  0  0  0  0
   39.0720   31.8510   41.3400 C   0  0  0  0  0  0  0  0  0  0  0  0
   38.4040   32.8920   40.4610 C   0  0  0  0  0  0  0  0  0  0  0  0
   36.9870   32.6980   40.4220 N   0  0  0  0  0  0  0  0  0  0  0  0
   36.5700   31.3300   40.5890 C   0  0  0  0  0  0  0  0  0  0  0  0
   37.6330   30.3890   40.0290 C   0  0  0  0  0  0  0  0  0  0  0  0
   38.6200   31.9320   42.3620 H   0  0  0  0  0  0  0  0  0  0  0  0
   40.1530   32.0610   41.3960 H   0  0  0  0  0  0  0  0  0  0  0  0
   38.8000   32.7450   39.4300 H   0  0  0  0  0  0  0  0  0  0  0  0
   38.6670   33.9100   40.7700 H   0  0  0  0  0  0  0  0  0  0  0  0
   36.5350   33.2060   39.6540 H   0  0  0  0  0  0  0  0  0  0  0  0
   35.6280   31.1730   40.0090 H   0  0  0  0  0  0  0  0  0  0  0  0
   36.4320   31.0900   41.6700 H   0  0  0  0  0  0  0  0  0  0  0  0
   37.7410   30.6110   38.9430 H   0  0  0  0  0  0  0  0  0  0  0  0
   37.2520   29.3380   40.1480 H   0  0  0  0  0  0  0  0  0  0  0  0
   38.7980   27.8550   43.2420 C   0  0  0  0  0  0  0  0  0  0  0  0
   39.2900   27.7240   44.2470 H   0  0  0  0  0  0  0  0  0  0  0  0
   39.3610   27.1930   42.5560 H   0  0  0  0  0  0  0  0  0  0  0  0
   37.3460   27.4790   43.2610 C   0  0  0  0  0  0  0  0  0  0  0  0
   37.2040   26.7990   44.1510 H   0  0  0  0  0  0  0  0  0  0  0  0
   36.6270   28.2710   43.3890 H   0  0  0  0  0  0  0  0  0  0  0  0
   36.8840   24.3590   41.2400 C   0  0  0  0  0  0  0  0  0  0  0  0
   37.1310   25.2200   42.3350 C   0  0  0  0  0  0  0  0  0  0  0  0
   37.0840   26.5690   42.0950 C   0  0  0  0  0  0  0  0  0  0  0  0
   36.8110   27.0260   40.8490 N   0  0  0  0  0  0  0  0  0  0  0  0
   36.5830   26.2150   39.8350 C   0  0  0  0  0  0  0  0  0  0  0  0
   36.6150   24.8940   40.0130 N   0  0  0  0  0  0  0  0  0  0  0  0
   36.9070   23.2840   41.3620 H   0  0  0  0  0  0  0  0  0  0  0  0
   37.3400   24.7640   43.2920 H   0  0  0  0  0  0  0  0  0  0  0  0
   36.3000   26.8280   38.5440 C   0  0  0  0  0  0  0  0  0  0  0  0
   36.6290   26.4910   37.5810 H   0  0  0  0  0  0  0  0  0  0  0  0
   35.6070   27.8570   38.4950 O   0  0  0  0  0  0  0  0  0  0  0  0
  1  4  1  1  0  0  0
  1 23  1  0  0  0  0
  2  1  1  0  0  0  0
  2  5  1  0  0  0  0
  2  6  1  0  0  0  0
  3  7  1  6  0  0  0
  3  2  1  0  0  0  0
  3  1  1  0  0  0  0
  8  9  1  0  0  0  0
  8  3  1  0  0  0  0
  9 15  1  0  0  0  0
  9 14  1  0  0  0  0
 10 17  1  0  0  0  0
 10  9  1  0  0  0  0
 11 10  1  0  0  0  0
 11 12  1  0  0  0  0
 12 20  1  0  0  0  0
 13 22  1  0  0  0  0
 13 12  1  0  0  0  0
 13  8  1  0  0  0  0
 16 10  1  0  0  0  0
 18 11  1  0  0  0  0
 19 12  1  0  0  0  0
 21 13  1  0  0  0  0
 23 26  1  0  0  0  0
 23 24  1  0  0  0  0
 25 23  1  0  0  0  0
 26 28  1  0  0  0  0
 26 27  1  0  0  0  0
 29 35  1  0  0  0  0
 29 30  1  0  0  0  0
 30 36  1  0  0  0  0
 31 30  2  0  0  0  0
 31 26  1  0  0  0  0
 32 31  1  0  0  0  0
 33 34  1  0  0  0  0
 33 32  2  0  0  0  0
 34 29  2  0  0  0  0
 37 33  1  0  0  0  0
 38 37  1  0  0  0  0
 39 37  2  0  0  0  0
M  END
>  <minimizedAffinity>
-4.81583786

$$$$

 OpenBabel03252502483D

 39 41  0  0  1  0  0  0  0  0999 V2000
   38.8660   29.9490   42.6440 C   0  0  1  0  0  0  0  0  0  0  0  0
   40.2100   30.5810   42.6030 C   0  0  0  0  0  0  0  0  0  0  0  0
   39.5390   30.1340   41.3620 C   0  0  2  0  0  0  0  0  0  0  0  0
   38.0280   30.5660   42.9530 H   0  0  0  0  0  0  0  0  0  0  0  0
   40.3010   31.6640   42.8740 H   0  0  0  0  0  0  0  0  0  0  0  0
   41.0480   29.9980   43.0630 H   0  0  0  0  0  0  0  0  0  0  0  0
   40.0650   29.3540   40.8120 H   0  0  0  0  0  0  0  0  0  0  0  0
   39.0060   31.2490   40.5870 N   0  0  0  0  0  0  0  0  0  0  0  0
   39.0870   32.5090   41.2340 C   0  0  0  0  0  0  0  0  0  0  0  0
   38.4870   33.5090   40.2620 C   0  0  0  0  0  0  0  0  0  0  0  0
   37.1010   33.2390   40.0370 N   0  0  0  0  0  0  0  0  0  0  0  0
   36.7380   31.8510   40.1630 C   0  0  0  0  0  0  0  0  0  0  0  0
   37.9140   30.9660   39.7600 C   0  0  0  0  0  0  0  0  0  0  0  0
   38.4980   32.5710   42.1860 H   0  0  0  0  0  0  0  0  0  0  0  0
   40.1380   32.7770   41.4310 H   0  0  0  0  0  0  0  0  0  0  0  0
   39.0250   33.3790   39.2940 H   0  0  0  0  0  0  0  0  0  0  0  0
   38.6540   34.5410   40.5910 H   0  0  0  0  0  0  0  0  0  0  0  0
   36.7290   33.7190   39.2090 H   0  0  0  0  0  0  0  0  0  0  0  0
   35.8910   31.6410   39.4650 H   0  0  0  0  0  0  0  0  0  0  0  0
   36.4700   31.6090   41.2190 H   0  0  0  0  0  0  0  0  0  0  0  0
   38.1540   31.1880   38.6960 H   0  0  0  0  0  0  0  0  0  0  0  0
   37.5760   29.8970   39.8400 H   0  0  0  0  0  0  0  0  0  0  0  0
   38.7870   28.5450   43.1650 C   0  0  0  0  0  0  0  0  0  0  0  0
   39.2170   28.4420   44.2010 H   0  0  0  0  0  0  0  0  0  0  0  0
   39.4040   27.8840   42.5270 H   0  0  0  0  0  0  0  0  0  0  0  0
   37.3440   28.1390   43.1010 C   0  0  0  0  0  0  0  0  0  0  0  0
   37.1500   27.5030   44.0140 H   0  0  0  0  0  0  0  0  0  0  0  0
   36.6030   28.9210   43.1350 H   0  0  0  0  0  0  0  0  0  0  0  0
   36.4800   26.7300   39.7390 C   0  0  0  0  0  0  0  0  0  0  0  0
   36.6340   27.6450   40.8080 C   0  0  0  0  0  0  0  0  0  0  0  0
   37.1830   27.1650   41.9690 C   0  0  0  0  0  0  0  0  0  0  0  0
   37.5510   25.8640   42.0570 N   0  0  0  0  0  0  0  0  0  0  0  0
   37.4020   25.0200   41.0550 C   0  0  0  0  0  0  0  0  0  0  0  0
   36.8750   25.4340   39.9020 N   0  0  0  0  0  0  0  0  0  0  0  0
   36.0530   27.0450   38.7960 H   0  0  0  0  0  0  0  0  0  0  0  0
   36.3110   28.6630   40.6450 H   0  0  0  0  0  0  0  0  0  0  0  0
   37.8370   23.6470   41.2730 C   0  0  0  0  0  0  0  0  0  0  0  0
   38.4850   23.2870   42.0480 H   0  0  0  0  0  0  0  0  0  0  0  0
   37.4440   22.7520   40.5060 O   0  0  0  0  0  0  0  0  0  0  0  0
  1  4  1  1  0  0  0
  1 23  1  0  0  0  0
  2  1  1  0  0  0  0
  2  5  1  0  0  0  0
  2  6  1  0  0  0  0
  3  7  1  6  0  0  0
  3  2  1  0  0  0  0
  3  1  1  0  0  0  0
  8  9  1  0  0  0  0
  8  3  1  0  0  0  0
  9 15  1  0  0  0  0
  9 14  1  0  0  0  0
 10 17  1  0  0  0  0
 10  9  1  0  0  0  0
 11 12  1  0  0  0  0
 11 10  1  0  0  0  0
 12 20  1  0  0  0  0
 13 22  1  0  0  0  0
 13 12  1  0  0  0  0
 13  8  1  0  0  0  0
 16 10  1  0  0  0  0
 18 11  1  0  0  0  0
 19 12  1  0  0  0  0
 21 13  1  0  0  0  0
 23 24  1  0  0  0  0
 25 23  1  0  0  0  0
 26 28  1  0  0  0  0
 26 23  1  0  0  0  0
 26 27  1  0  0  0  0
 29 34  2  0  0  0  0
 29 30  1  0  0  0  0
 30 31  2  0  0  0  0
 31 32  1  0  0  0  0
 31 26  1  0  0  0  0
 33 37  1  0  0  0  0
 33 32  2  0  0  0  0
 34 33  1  0  0  0  0
 35 29  1  0  0  0  0
 36 30  1  0  0  0  0
 37 38  1  0  0  0  0
 39 37  2  0  0  0  0
M  END
>  <minimizedAffinity>
-4.78520966

$$$$

 OpenBabel03252502483D

 39 41  0  0  1  0  0  0  0  0999 V2000
   37.3800   31.7390   39.8580 C   0  0  1  0  0  0  0  0  0  0  0  0
   37.2880   33.2150   39.7130 C   0  0  0  0  0  0  0  0  0  0  0  0
   38.4090   32.5890   40.4490 C   0  0  2  0  0  0  0  0  0  0  0  0
   37.5560   31.1540   38.9610 H   0  0  0  0  0  0  0  0  0  0  0  0
   37.4200   33.6620   38.6950 H   0  0  0  0  0  0  0  0  0  0  0  0
   36.4400   33.7150   40.2450 H   0  0  0  0  0  0  0  0  0  0  0  0
   38.4710   32.8560   41.5030 H   0  0  0  0  0  0  0  0  0  0  0  0
   39.6520   32.6040   39.6850 N   0  0  0  0  0  0  0  0  0  0  0  0
   40.1370   33.9000   39.3750 C   0  0  0  0  0  0  0  0  0  0  0  0
   41.4200   33.6820   38.5920 C   0  0  0  0  0  0  0  0  0  0  0  0
   41.1570   33.0230   37.3510 N   0  0  0  0  0  0  0  0  0  0  0  0
   40.0130   32.1480   37.3720 C   0  0  0  0  0  0  0  0  0  0  0  0
   39.8320   31.5620   38.7690 C   0  0  0  0  0  0  0  0  0  0  0  0
   39.4470   34.5030   38.7290 H   0  0  0  0  0  0  0  0  0  0  0  0
   40.3640   34.4600   40.2980 H   0  0  0  0  0  0  0  0  0  0  0  0
   42.0630   33.0120   39.2090 H   0  0  0  0  0  0  0  0  0  0  0  0
   41.9680   34.6200   38.4480 H   0  0  0  0  0  0  0  0  0  0  0  0
   42.0020   32.6330   36.9180 H   0  0  0  0  0  0  0  0  0  0  0  0
   40.1990   31.3040   36.6630 H   0  0  0  0  0  0  0  0  0  0  0  0
   39.0850   32.7080   37.1100 H   0  0  0  0  0  0  0  0  0  0  0  0
   40.7480   30.9760   39.0110 H   0  0  0  0  0  0  0  0  0  0  0  0
   38.9530   30.8620   38.7310 H   0  0  0  0  0  0  0  0  0  0  0  0
   36.4210   31.0860   40.8080 C   0  0  0  0  0  0  0  0  0  0  0  0
   35.3940   31.5460   40.7730 H   0  0  0  0  0  0  0  0  0  0  0  0
   36.7730   31.2400   41.8460 H   0  0  0  0  0  0  0  0  0  0  0  0
   36.4050   29.6240   40.4710 C   0  0  0  0  0  0  0  0  0  0  0  0
   35.3480   29.2670   40.6440 H   0  0  0  0  0  0  0  0  0  0  0  0
   36.6390   29.3420   39.4570 H   0  0  0  0  0  0  0  0  0  0  0  0
   37.2250   27.3100   43.3000 C   0  0  0  0  0  0  0  0  0  0  0  0
   36.4940   28.0000   42.3050 C   0  0  0  0  0  0  0  0  0  0  0  0
   37.1860   28.8930   41.5260 C   0  0  0  0  0  0  0  0  0  0  0  0
   38.5120   29.0820   41.7280 N   0  0  0  0  0  0  0  0  0  0  0  0
   39.1830   28.4330   42.6590 C   0  0  0  0  0  0  0  0  0  0  0  0
   38.5600   27.5530   43.4430 N   0  0  0  0  0  0  0  0  0  0  0  0
   36.7400   26.5920   43.9490 H   0  0  0  0  0  0  0  0  0  0  0  0
   35.4390   27.7830   42.2190 H   0  0  0  0  0  0  0  0  0  0  0  0
   40.6060   28.7250   42.7770 C   0  0  0  0  0  0  0  0  0  0  0  0
   41.3830   28.0490   43.0760 H   0  0  0  0  0  0  0  0  0  0  0  0
   41.0200   29.8650   42.5130 O   0  0  0  0  0  0  0  0  0  0  0  0
  1  4  1  6  0  0  0
  1  3  1  0  0  0  0
  1 23  1  0  0  0  0
  2  1  1  0  0  0  0
  2  6  1  0  0  0  0
  2  3  1  0  0  0  0
  3  7  1  1  0  0  0
  5  2  1  0  0  0  0
  8  3  1  0  0  0  0
  9  8  1  0  0  0  0
  9 15  1  0  0  0  0
 10 16  1  0  0  0  0
 10  9  1  0  0  0  0
 11 12  1  0  0  0  0
 11 10  1  0  0  0  0
 12 13  1  0  0  0  0
 13 21  1  0  0  0  0
 13  8  1  0  0  0  0
 14  9  1  0  0  0  0
 17 10  1  0  0  0  0
 18 11  1  0  0  0  0
 19 12  1  0  0  0  0
 20 12  1  0  0  0  0
 22 13  1  0  0  0  0
 23 25  1  0  0  0  0
 24 23  1  0  0  0  0
 26 27  1  0  0  0  0
 26 23  1  0  0  0  0
 26 31  1  0  0  0  0
 28 26  1  0  0  0  0
 29 34  1  0  0  0  0
 29 35  1  0  0  0  0
 30 29  2  0  0  0  0
 31 32  2  0  0  0  0
 31 30  1  0  0  0  0
 32 33  1  0  0  0  0
 33 37  1  0  0  0  0
 33 34  2  0  0  0  0
 36 30  1  0  0  0  0
 37 38  1  0  0  0  0
 39 37  2  0  0  0  0
M  END
>  <minimizedAffinity>
-4.70348644

$$$$

 OpenBabel03252502483D

 39 41  0  0  1  0  0  0  0  0999 V2000
   37.7160   29.7060   42.4780 C   0  0  1  0  0  0  0  0  0  0  0  0
   39.0100   30.3730   42.1750 C   0  0  0  0  0  0  0  0  0  0  0  0
   38.3080   29.5680   41.1510 C   0  0  2  0  0  0  0  0  0  0  0  0
   36.8550   30.3400   42.6650 H   0  0  0  0  0  0  0  0  0  0  0  0
   39.0400   31.4910   42.1360 H   0  0  0  0  0  0  0  0  0  0  0  0
   39.9090   29.9820   42.7170 H   0  0  0  0  0  0  0  0  0  0  0  0
   38.8570   28.6960   40.7970 H   0  0  0  0  0  0  0  0  0  0  0  0
   37.6600   30.3980   40.1420 N   0  0  0  0  0  0  0  0  0  0  0  0
   38.3490   30.4670   38.9030 C   0  0  0  0  0  0  0  0  0  0  0  0
   37.5080   31.3670   38.0160 C   0  0  0  0  0  0  0  0  0  0  0  0
   37.4510   32.6960   38.5400 N   0  0  0  0  0  0  0  0  0  0  0  0
   37.5580   32.7750   39.9740 C   0  0  0  0  0  0  0  0  0  0  0  0
   36.9670   31.5200   40.6100 C   0  0  0  0  0  0  0  0  0  0  0  0
   39.3700   30.9240   38.9750 H   0  0  0  0  0  0  0  0  0  0  0  0
   38.4220   29.4670   38.4440 H   0  0  0  0  0  0  0  0  0  0  0  0
   36.4750   30.9500   38.0200 H   0  0  0  0  0  0  0  0  0  0  0  0
   37.8620   31.3530   36.9780 H   0  0  0  0  0  0  0  0  0  0  0  0
   36.7010   33.2590   38.1220 H   0  0  0  0  0  0  0  0  0  0  0  0
   36.9650   33.6540   40.3260 H   0  0  0  0  0  0  0  0  0  0  0  0
   38.6270   32.8490   40.2850 H   0  0  0  0  0  0  0  0  0  0  0  0
   35.8930   31.4710   40.3230 H   0  0  0  0  0  0  0  0  0  0  0  0
   37.0400   31.6400   41.7250 H   0  0  0  0  0  0  0  0  0  0  0  0
   37.7620   28.4980   43.3640 C   0  0  0  0  0  0  0  0  0  0  0  0
   37.4810   28.7290   44.4290 H   0  0  0  0  0  0  0  0  0  0  0  0
   38.8010   28.1210   43.4130 H   0  0  0  0  0  0  0  0  0  0  0  0
   36.8600   27.4720   42.7440 C   0  0  0  0  0  0  0  0  0  0  0  0
   36.1580   27.1290   43.5590 H   0  0  0  0  0  0  0  0  0  0  0  0
   36.2240   27.7900   41.9340 H   0  0  0  0  0  0  0  0  0  0  0  0
   39.6820   25.0090   42.7890 C   0  0  0  0  0  0  0  0  0  0  0  0
   38.9100   26.1650   43.0530 C   0  0  0  0  0  0  0  0  0  0  0  0
   37.6760   26.2420   42.4610 C   0  0  0  0  0  0  0  0  0  0  0  0
   37.2440   25.2370   41.6620 N   0  0  0  0  0  0  0  0  0  0  0  0
   37.9720   24.1650   41.4230 C   0  0  0  0  0  0  0  0  0  0  0  0
   39.1790   24.0370   41.9740 N   0  0  0  0  0  0  0  0  0  0  0  0
   40.6650   24.8850   43.2260 H   0  0  0  0  0  0  0  0  0  0  0  0
   39.3390   26.9140   43.7040 H   0  0  0  0  0  0  0  0  0  0  0  0
   37.3960   23.1530   40.5460 C   0  0  0  0  0  0  0  0  0  0  0  0
   37.8630   22.2500   40.2030 H   0  0  0  0  0  0  0  0  0  0  0  0
   36.2390   23.3010   40.1180 O   0  0  0  0  0  0  0  0  0  0  0  0
  1  4  1  1  0  0  0
  1 23  1  0  0  0  0
  2  1  1  0  0  0  0
  2  6  1  0  0  0  0
  3  7  1  6  0  0  0
  3  2  1  0  0  0  0
  3  1  1  0  0  0  0
  5  2  1  0  0  0  0
  8 13  1  0  0  0  0
  8  3  1  0  0  0  0
  9 14  1  0  0  0  0
  9  8  1  0  0  0  0
 10 16  1  0  0  0  0
 10 11  1  0  0  0  0
 10  9  1  0  0  0  0
 11 12  1  0  0  0  0
 12 20  1  0  0  0  0
 12 19  1  0  0  0  0
 12 13  1  0  0  0  0
 13 22  1  0  0  0  0
 15  9  1  0  0  0  0
 17 10  1  0  0  0  0
 18 11  1  0  0  0  0
 21 13  1  0  0  0  0
 23 25  1  0  0  0  0
 23 24  1  0  0  0  0
 26 23  1  0  0  0  0
 26 27  1  0  0  0  0
 28 26  1  0  0  0  0
 29 30  1  0  0  0  0
 29 35  1  0  0  0  0
 30 36  1  0  0  0  0
 31 26  1  0  0  0  0
 31 30  2  0  0  0  0
 32 31  1  0  0  0  0
 33 32  2  0  0  0  0
 33 34  1  0  0  0  0
 34 29  2  0  0  0  0
 37 33  1  0  0  0  0
 38 37  1  0  0  0  0
 39 37  2  0  0  0  0
M  END
>  <minimizedAffinity>
-4.67347717

$$$$

 OpenBabel03252502483D

 39 41  0  0  1  0  0  0  0  0999 V2000
   37.1950   30.0780   39.5490 C   0  0  1  0  0  0  0  0  0  0  0  0
   36.9550   31.1650   38.5640 C   0  0  0  0  0  0  0  0  0  0  0  0
   36.7110   31.3760   40.0070 C   0  0  2  0  0  0  0  0  0  0  0  0
   38.2200   29.7540   39.7020 H   0  0  0  0  0  0  0  0  0  0  0  0
   37.8350   31.6130   38.0360 H   0  0  0  0  0  0  0  0  0  0  0  0
   36.1150   31.0030   37.8410 H   0  0  0  0  0  0  0  0  0  0  0  0
   35.6780   31.6030   40.2700 H   0  0  0  0  0  0  0  0  0  0  0  0
   37.7490   32.1900   40.6320 N   0  0  0  0  0  0  0  0  0  0  0  0
   37.9290   33.4690   40.0430 C   0  0  0  0  0  0  0  0  0  0  0  0
   39.0370   34.1340   40.8390 C   0  0  0  0  0  0  0  0  0  0  0  0
   40.2710   33.4260   40.6930 N   0  0  0  0  0  0  0  0  0  0  0  0
   40.1210   32.0130   40.4600 C   0  0  0  0  0  0  0  0  0  0  0  0
   38.8550   31.5040   41.1430 C   0  0  0  0  0  0  0  0  0  0  0  0
   38.2570   33.4350   38.9730 H   0  0  0  0  0  0  0  0  0  0  0  0
   37.0080   34.0680   40.1290 H   0  0  0  0  0  0  0  0  0  0  0  0
   38.7370   34.0860   41.9120 H   0  0  0  0  0  0  0  0  0  0  0  0
   39.1410   35.1930   40.5770 H   0  0  0  0  0  0  0  0  0  0  0  0
   40.9670   33.6850   41.4020 H   0  0  0  0  0  0  0  0  0  0  0  0
   40.9960   31.4840   40.9120 H   0  0  0  0  0  0  0  0  0  0  0  0
   40.0320   31.8020   39.3680 H   0  0  0  0  0  0  0  0  0  0  0  0
   38.9650   31.6870   42.2360 H   0  0  0  0  0  0  0  0  0  0  0  0
   38.7970   30.3950   40.9650 H   0  0  0  0  0  0  0  0  0  0  0  0
   36.2120   28.9470   39.5720 C   0  0  0  0  0  0  0  0  0  0  0  0
   36.6490   27.9830   39.1880 H   0  0  0  0  0  0  0  0  0  0  0  0
   35.3740   29.1790   38.8860 H   0  0  0  0  0  0  0  0  0  0  0  0
   35.7170   28.8310   40.9830 C   0  0  0  0  0  0  0  0  0  0  0  0
   35.8410   29.8520   41.4510 H   0  0  0  0  0  0  0  0  0  0  0  0
   34.6800   28.5750   41.1290 H   0  0  0  0  0  0  0  0  0  0  0  0
   38.1860   27.7590   43.5870 C   0  0  0  0  0  0  0  0  0  0  0  0
   37.2680   28.5520   42.8600 C   0  0  0  0  0  0  0  0  0  0  0  0
   36.6910   27.9850   41.7520 C   0  0  0  0  0  0  0  0  0  0  0  0
   37.0110   26.7180   41.3960 N   0  0  0  0  0  0  0  0  0  0  0  0
   37.8690   25.9880   42.0810 C   0  0  0  0  0  0  0  0  0  0  0  0
   38.4580   26.4890   43.1670 N   0  0  0  0  0  0  0  0  0  0  0  0
   38.6760   28.1460   44.4720 H   0  0  0  0  0  0  0  0  0  0  0  0
   37.0760   29.5520   43.2210 H   0  0  0  0  0  0  0  0  0  0  0  0
   38.1290   24.6390   41.5960 C   0  0  0  0  0  0  0  0  0  0  0  0
   37.4050   23.9090   41.2910 H   0  0  0  0  0  0  0  0  0  0  0  0
   39.3000   24.2370   41.5060 O   0  0  0  0  0  0  0  0  0  0  0  0
  1 23  1  0  0  0  0
  1  4  1  1  0  0  0
  1  3  1  0  0  0  0
  2  1  1  0  0  0  0
  2  3  1  0  0  0  0
  3  7  1  1  0  0  0
  3  8  1  0  0  0  0
  5  2  1  0  0  0  0
  6  2  1  0  0  0  0
  8 13  1  0  0  0  0
  9 15  1  0  0  0  0
  9  8  1  0  0  0  0
  9 10  1  0  0  0  0
 10 16  1  0  0  0  0
 11 10  1  0  0  0  0
 11 18  1  0  0  0  0
 12 11  1  0  0  0  0
 12 19  1  0  0  0  0
 12 13  1  0  0  0  0
 13 21  1  0  0  0  0
 14  9  1  0  0  0  0
 17 10  1  0  0  0  0
 20 12  1  0  0  0  0
 22 13  1  0  0  0  0
 23 26  1  0  0  0  0
 24 23  1  0  0  0  0
 25 23  1  0  0  0  0
 26 28  1  0  0  0  0
 26 27  1  0  0  0  0
 26 31  1  0  0  0  0
 29 35  1  0  0  0  0
 30 36  1  0  0  0  0
 30 29  2  0  0  0  0
 31 30  1  0  0  0  0
 32 31  2  0  0  0  0
 32 33  1  0  0  0  0
 33 34  2  0  0  0  0
 34 29  1  0  0  0  0
 37 33  1  0  0  0  0
 38 37  1  0  0  0  0
 39 37  2  0  0  0  0
M  END
>  <minimizedAffinity>
-4.64395475

$$$$
