
     RDKit          3D

 34 35  0  0  0  0  0  0  0  0999 V2000
   46.1819   32.0903   45.4358 C   0  0  0  0  0  0  0  0  0  0  0  0
   45.7594   32.0253   49.1323 C   0  0  0  0  0  0  0  0  0  0  0  0
   46.0481   32.4909   47.8433 C   0  0  0  0  0  0  0  0  0  0  0  0
   45.8820   31.6120   46.7877 C   0  0  0  0  0  0  0  0  0  0  0  0
   45.4466   30.3415   47.0604 N   0  0  0  0  0  0  0  0  0  0  0  0
   45.1773   29.9245   48.3138 C   0  0  0  0  0  0  0  0  0  0  0  0
   45.3375   30.7739   49.3370 N   0  0  0  0  0  0  0  0  0  0  0  0
   46.5448   33.4019   45.4129 O   0  0  0  0  0  0  0  0  0  0  0  0
   44.6434   35.1782   45.2517 O   0  0  0  0  0  0  0  0  0  0  0  0
   45.4510   34.2391   44.4208 P   0  0  2  0  0  0  0  0  0  0  0  0
   44.5162   33.0607   43.6763 O   0  0  0  0  0  0  0  0  0  0  0  0
   46.3484   35.1234   43.3062 O   0  0  0  0  0  0  0  0  0  0  0  0
   47.1067   34.2497   42.5270 C   0  0  1  0  0  0  0  0  0  0  0  0
   46.9514   34.4749   41.0477 C   0  0  0  0  0  0  0  0  0  0  0  0
   48.1143   33.6656   40.5052 C   0  0  0  0  0  0  0  0  0  0  0  0
   49.1659   33.6567   41.5934 C   0  0  0  0  0  0  0  0  0  0  0  0
   48.5981   34.5453   42.7114 C   0  0  1  0  0  0  0  0  0  0  0  0
   45.3964   31.7479   44.7787 H   0  0  0  0  0  0  0  0  0  0  0  0
   47.1014   31.5154   45.1170 H   0  0  0  0  0  0  0  0  0  0  0  0
   45.9018   32.7399   49.9228 H   0  0  0  0  0  0  0  0  0  0  0  0
   46.3897   33.4990   47.6623 H   0  0  0  0  0  0  0  0  0  0  0  0
   44.8359   28.9244   48.5159 H   0  0  0  0  0  0  0  0  0  0  0  0
   44.7959   32.8759   42.7630 H   0  0  0  0  0  0  0  0  0  0  0  0
   46.9664   33.1889   42.7631 H   0  0  0  0  0  0  0  0  0  0  0  0
   46.9792   35.5250   40.7618 H   0  0  0  0  0  0  0  0  0  0  0  0
   46.0289   33.9590   40.6980 H   0  0  0  0  0  0  0  0  0  0  0  0
   47.8003   32.6498   40.2088 H   0  0  0  0  0  0  0  0  0  0  0  0
   48.5485   34.2143   39.6390 H   0  0  0  0  0  0  0  0  0  0  0  0
   49.1924   32.6257   42.0050 H   0  0  0  0  0  0  0  0  0  0  0  0
   50.1459   34.0124   41.2354 H   0  0  0  0  0  0  0  0  0  0  0  0
   48.8938   34.1870   43.6987 H   0  0  0  0  0  0  0  0  0  0  0  0
   48.9249   35.9629   42.5174 C   0  0  0  0  0  0  0  0  0  0  0  0
   49.4162   36.3187   41.6250 H   0  0  0  0  0  0  0  0  0  0  0  0
   48.6222   36.7649   43.4127 O   0  0  0  0  0  0  0  0  0  0  0  0
  1  4  1  0
  2  7  2  0
  3  2  1  0
  4  5  1  0
  4  3  2  0
  5  6  2  0
  6  7  1  0
  8  1  1  0
 10  9  2  0
 10  8  1  1
 11 10  1  0
 12 10  1  0
 13 17  1  0
 13 12  1  0
 14 13  1  0
 15 14  1  0
 15 16  1  0
 16 17  1  0
  1 18  1  0
  1 19  1  0
  2 20  1  0
  3 21  1  0
  6 22  1  0
 11 23  1  0
 13 24  1  6
 14 25  1  0
 14 26  1  0
 15 27  1  0
 15 28  1  0
 16 29  1  0
 16 30  1  0
 17 31  1  1
 32 33  1  0
 32 34  2  0
 17 32  1  0
M  ISO  8  18   8  19   8  20  14  21  14  22  14  23   3  24  13  25  13
M  ISO  7  26  13  27  13  28  13  29  13  30  13  31  13  33   6
M  END
>  <DihAtoms>  (1) 
12,16,31,32

>  <DihDeg>  (1) 
-60.00021139596134

$$$$
