
 OpenBabel03252506483D

 23 24  0  0  0  0  0  0  0  0999 V2000
   43.5340   34.0570   39.7150 S   0  0  0  0  0  0  0  0  0  0  0  0
   41.5800   32.2710   37.9180 Cl  0  0  0  0  0  0  0  0  0  0  0  0
   40.8800   33.5620   38.8990 C   0  0  0  0  0  0  0  0  0  0  0  0
   41.7850   34.2730   39.6350 C   0  0  0  0  0  0  0  0  0  0  0  0
   41.2870   35.3040   40.4280 C   0  0  0  0  0  0  0  0  0  0  0  0
   39.9150   35.5590   40.4360 C   0  0  0  0  0  0  0  0  0  0  0  0
   39.0080   34.8420   39.6950 C   0  0  0  0  0  0  0  0  0  0  0  0
   39.5260   33.8140   38.9080 C   0  0  0  0  0  0  0  0  0  0  0  0
   38.4820   32.8180   37.9120 Cl  0  0  0  0  0  0  0  0  0  0  0  0
   41.9110   35.9300   41.0490 H   0  0  0  0  0  0  0  0  0  0  0  0
   39.5340   36.3620   41.0550 H   0  0  0  0  0  0  0  0  0  0  0  0
   37.9450   35.0440   39.7060 H   0  0  0  0  0  0  0  0  0  0  0  0
   44.1430   33.8450   41.3850 C   0  0  0  0  0  0  0  0  0  0  0  0
   44.5510   32.5420   41.7050 C   0  0  0  0  0  0  0  0  0  0  0  0
   45.0420   32.3140   43.0120 C   0  0  0  0  0  0  0  0  0  0  0  0
   45.0900   33.3510   43.8670 N   0  0  0  0  0  0  0  0  0  0  0  0
   44.6860   34.5910   43.5190 C   0  0  0  0  0  0  0  0  0  0  0  0
   44.2080   34.8600   42.2800 N   0  0  0  0  0  0  0  0  0  0  0  0
   44.5080   31.7330   41.0170 H   0  0  0  0  0  0  0  0  0  0  0  0
   45.3750   31.3330   43.3240 H   0  0  0  0  0  0  0  0  0  0  0  0
   44.7620   35.6690   44.4900 C   0  0  0  0  0  0  0  0  0  0  0  0
   45.0380   36.6680   44.1820 H   0  0  0  0  0  0  0  0  0  0  0  0
   44.5260   35.5580   45.7210 O   0  0  0  0  0  0  0  0  0  0  0  0
  1 13  1  0  0  0  0
  2  3  1  0  0  0  0
  3  8  2  0  0  0  0
  3  4  1  0  0  0  0
  4  1  1  0  0  0  0
  4  5  2  0  0  0  0
  5  6  1  0  0  0  0
  5 10  1  0  0  0  0
  6 11  1  0  0  0  0
  7 12  1  0  0  0  0
  7  6  2  0  0  0  0
  8  7  1  0  0  0  0
  9  8  1  0  0  0  0
 13 14  2  0  0  0  0
 13 18  1  0  0  0  0
 14 15  1  0  0  0  0
 15 20  1  0  0  0  0
 15 16  2  0  0  0  0
 17 16  1  0  0  0  0
 17 21  1  0  0  0  0
 18 17  2  0  0  0  0
 19 14  1  0  0  0  0
 21 23  2  0  0  0  0
 22 21  1  0  0  0  0
M  END
>  <minimizedAffinity>
-4.77846766

>  <minimizedRMSD>
1.97360599

$$$$
