
 OpenBabel03252509333D

 34 35  0  0  1  0  0  0  0  0999 V2000
   44.7040   35.0780   45.3490 O   0  0  0  0  0  0  0  0  0  0  0  0
   45.5120   34.1110   44.5510 P   0  0  2  0  0  0  0  0  0  0  0  0
   44.5860   32.8750   43.8950 O   0  0  0  0  0  0  0  0  0  0  0  0
   44.8480   32.6450   42.9870 H   0  0  0  0  0  0  0  0  0  0  0  0
   46.6470   33.3530   45.5610 O   0  0  0  0  0  0  0  0  0  0  0  0
   46.3900   32.0160   45.5620 C   0  0  0  0  0  0  0  0  0  0  0  0
   45.7090   31.6080   44.8300 H   0  0  0  0  0  0  0  0  0  0  0  0
   47.3810   31.5160   45.3510 H   0  0  0  0  0  0  0  0  0  0  0  0
   45.7170   31.8920   49.2200 C   0  0  0  0  0  0  0  0  0  0  0  0
   46.1060   32.3740   47.9630 C   0  0  0  0  0  0  0  0  0  0  0  0
   45.9850   31.5210   46.8810 C   0  0  0  0  0  0  0  0  0  0  0  0
   45.4950   30.2590   47.0960 N   0  0  0  0  0  0  0  0  0  0  0  0
   45.1280   29.8270   48.3200 C   0  0  0  0  0  0  0  0  0  0  0  0
   45.2450   30.6510   49.3690 N   0  0  0  0  0  0  0  0  0  0  0  0
   45.8280   32.5870   50.0340 H   0  0  0  0  0  0  0  0  0  0  0  0
   46.4900   33.3740   47.8270 H   0  0  0  0  0  0  0  0  0  0  0  0
   44.7450   28.8340   48.4770 H   0  0  0  0  0  0  0  0  0  0  0  0
   46.3640   34.9500   43.3680 O   0  0  0  0  0  0  0  0  0  0  0  0
   46.6880   34.0800   42.3280 C   0  0  1  0  0  0  0  0  0  0  0  0
   46.0000   34.4100   41.0310 C   0  0  0  0  0  0  0  0  0  0  0  0
   46.7920   33.5610   40.0550 C   0  0  0  0  0  0  0  0  0  0  0  0
   48.1740   33.4100   40.6520 C   0  0  0  0  0  0  0  0  0  0  0  0
   48.1560   34.2600   41.9320 C   0  0  1  0  0  0  0  0  0  0  0  0
   46.5550   33.0170   42.5640 H   0  0  0  0  0  0  0  0  0  0  0  0
   46.0090   35.4720   40.7920 H   0  0  0  0  0  0  0  0  0  0  0  0
   44.9730   33.9820   41.0470 H   0  0  0  0  0  0  0  0  0  0  0  0
   46.3010   32.5900   39.8690 H   0  0  0  0  0  0  0  0  0  0  0  0
   46.9090   34.1330   39.1080 H   0  0  0  0  0  0  0  0  0  0  0  0
   48.2650   32.3550   40.9880 H   0  0  0  0  0  0  0  0  0  0  0  0
   48.9710   33.7200   39.9570 H   0  0  0  0  0  0  0  0  0  0  0  0
   48.7740   33.8190   42.7170 H   0  0  0  0  0  0  0  0  0  0  0  0
   48.5080   35.6620   41.6750 C   0  0  0  0  0  0  0  0  0  0  0  0
   48.2700   36.4480   42.3760 H   0  0  0  0  0  0  0  0  0  0  0  0
   49.0940   35.9380   40.6190 O   0  0  0  0  0  0  0  0  0  0  0  0
  2  1  2  1  0  0  0
  2  5  1  0  0  0  0
  3  2  1  0  0  0  0
  4  3  1  0  0  0  0
  5  6  1  0  0  0  0
  6 11  1  0  0  0  0
  7  6  1  0  0  0  0
  8  6  1  0  0  0  0
  9 14  1  0  0  0  0
  9 15  1  0  0  0  0
 10  9  2  0  0  0  0
 11 12  2  0  0  0  0
 11 10  1  0  0  0  0
 12 13  1  0  0  0  0
 13 17  1  0  0  0  0
 13 14  2  0  0  0  0
 16 10  1  0  0  0  0
 18  2  1  0  0  0  0
 19 24  1  1  0  0  0
 19 18  1  0  0  0  0
 20 26  1  0  0  0  0
 20 19  1  0  0  0  0
 21 22  1  0  0  0  0
 21 20  1  0  0  0  0
 22 29  1  0  0  0  0
 22 23  1  0  0  0  0
 23 19  1  0  0  0  0
 23 31  1  1  0  0  0
 25 20  1  0  0  0  0
 27 21  1  0  0  0  0
 28 21  1  0  0  0  0
 30 22  1  0  0  0  0
 32 23  1  0  0  0  0
 32 33  1  0  0  0  0
 34 32  2  0  0  0  0
M  END
>  <minimizedAffinity>
-4.88678503

>  <minimizedRMSD>
0.651869893

$$$$
