
 OpenBabel03252509333D

 34 35  0  0  1  0  0  0  0  0999 V2000
   44.6960   35.1720   45.1640 O   0  0  0  0  0  0  0  0  0  0  0  0
   45.5110   34.1460   44.4500 P   0  0  2  0  0  0  0  0  0  0  0  0
   44.5800   32.9000   43.8190 O   0  0  0  0  0  0  0  0  0  0  0  0
   44.8720   32.6180   42.9360 H   0  0  0  0  0  0  0  0  0  0  0  0
   46.5850   33.4140   45.5420 O   0  0  0  0  0  0  0  0  0  0  0  0
   46.3480   32.0740   45.5390 C   0  0  0  0  0  0  0  0  0  0  0  0
   45.6670   31.6590   44.8100 H   0  0  0  0  0  0  0  0  0  0  0  0
   47.3450   31.5900   45.3160 H   0  0  0  0  0  0  0  0  0  0  0  0
   45.7100   31.9230   49.2010 C   0  0  0  0  0  0  0  0  0  0  0  0
   46.0800   32.4160   47.9440 C   0  0  0  0  0  0  0  0  0  0  0  0
   45.9620   31.5670   46.8580 C   0  0  0  0  0  0  0  0  0  0  0  0
   45.4930   30.2970   47.0710 N   0  0  0  0  0  0  0  0  0  0  0  0
   45.1440   29.8530   48.2960 C   0  0  0  0  0  0  0  0  0  0  0  0
   45.2580   30.6740   49.3490 N   0  0  0  0  0  0  0  0  0  0  0  0
   45.8170   32.6150   50.0180 H   0  0  0  0  0  0  0  0  0  0  0  0
   46.4470   33.4220   47.8090 H   0  0  0  0  0  0  0  0  0  0  0  0
   44.7770   28.8540   48.4520 H   0  0  0  0  0  0  0  0  0  0  0  0
   46.4300   34.9030   43.2610 O   0  0  0  0  0  0  0  0  0  0  0  0
   46.6730   34.0040   42.2230 C   0  0  1  0  0  0  0  0  0  0  0  0
   45.9550   34.3520   40.9470 C   0  0  0  0  0  0  0  0  0  0  0  0
   46.6680   33.4520   39.9560 C   0  0  0  0  0  0  0  0  0  0  0  0
   48.0620   33.2390   40.5060 C   0  0  0  0  0  0  0  0  0  0  0  0
   48.1330   34.1060   41.7730 C   0  0  1  0  0  0  0  0  0  0  0  0
   46.4960   32.9530   42.4790 H   0  0  0  0  0  0  0  0  0  0  0  0
   46.0080   35.4100   40.6930 H   0  0  0  0  0  0  0  0  0  0  0  0
   44.9090   33.9760   41.0050 H   0  0  0  0  0  0  0  0  0  0  0  0
   46.1230   32.5050   39.8010 H   0  0  0  0  0  0  0  0  0  0  0  0
   46.7790   34.0060   38.9970 H   0  0  0  0  0  0  0  0  0  0  0  0
   48.1120   32.1860   40.8530 H   0  0  0  0  0  0  0  0  0  0  0  0
   48.8470   33.5000   39.7770 H   0  0  0  0  0  0  0  0  0  0  0  0
   48.7560   33.6450   42.5420 H   0  0  0  0  0  0  0  0  0  0  0  0
   48.5440   35.4850   41.4830 C   0  0  0  0  0  0  0  0  0  0  0  0
   47.9800   36.1210   40.8180 H   0  0  0  0  0  0  0  0  0  0  0  0
   49.5700   35.9200   42.0260 O   0  0  0  0  0  0  0  0  0  0  0  0
  2  1  2  1  0  0  0
  2  5  1  0  0  0  0
  3  2  1  0  0  0  0
  4  3  1  0  0  0  0
  6  5  1  0  0  0  0
  6 11  1  0  0  0  0
  7  6  1  0  0  0  0
  8  6  1  0  0  0  0
  9 14  1  0  0  0  0
  9 15  1  0  0  0  0
 10  9  2  0  0  0  0
 11 12  2  0  0  0  0
 11 10  1  0  0  0  0
 12 13  1  0  0  0  0
 13 17  1  0  0  0  0
 13 14  2  0  0  0  0
 16 10  1  0  0  0  0
 18  2  1  0  0  0  0
 19 24  1  1  0  0  0
 19 18  1  0  0  0  0
 20 26  1  0  0  0  0
 20 19  1  0  0  0  0
 21 22  1  0  0  0  0
 21 20  1  0  0  0  0
 22 29  1  0  0  0  0
 22 23  1  0  0  0  0
 23 19  1  0  0  0  0
 23 31  1  1  0  0  0
 25 20  1  0  0  0  0
 27 21  1  0  0  0  0
 28 21  1  0  0  0  0
 30 22  1  0  0  0  0
 32 23  1  0  0  0  0
 32 34  2  0  0  0  0
 33 32  1  0  0  0  0
M  END
>  <minimizedAffinity>
-4.91637135

>  <minimizedRMSD>
0.815689564

$$$$
