
 OpenBabel03252502343D

 34 35  0  0  1  0  0  0  0  0999 V2000
   46.6070   31.6650   44.9500 C   0  0  2  0  0  0  0  0  0  0  0  0
   45.6980   30.7240   44.1370 C   0  0  0  0  0  0  0  0  0  0  0  0
   45.8890   29.3620   44.8270 C   0  0  0  0  0  0  0  0  0  0  0  0
   45.1230   29.5140   46.1250 C   0  0  0  0  0  0  0  0  0  0  0  0
   45.7340   30.5530   46.9890 C   0  0  0  0  0  0  0  0  0  0  0  0
   46.0710   31.8410   46.3230 C   0  0  1  0  0  0  0  0  0  0  0  0
   47.6110   31.1540   44.9990 H   0  0  0  0  0  0  0  0  0  0  0  0
   46.0480   30.6950   43.1020 H   0  0  0  0  0  0  0  0  0  0  0  0
   44.6460   30.9800   44.2600 H   0  0  0  0  0  0  0  0  0  0  0  0
   46.9410   29.1480   45.0170 H   0  0  0  0  0  0  0  0  0  0  0  0
   45.3990   28.5450   44.2570 H   0  0  0  0  0  0  0  0  0  0  0  0
   44.0570   29.6860   45.8840 H   0  0  0  0  0  0  0  0  0  0  0  0
   45.2080   28.5280   46.6350 H   0  0  0  0  0  0  0  0  0  0  0  0
   46.6240   30.1210   47.5180 H   0  0  0  0  0  0  0  0  0  0  0  0
   45.0180   30.7800   47.8210 H   0  0  0  0  0  0  0  0  0  0  0  0
   45.1240   32.4350   46.2670 H   0  0  0  0  0  0  0  0  0  0  0  0
   47.9410   34.3850   42.7310 C   0  0  0  0  0  0  0  0  0  0  0  0
   47.9120   33.1730   43.4430 C   0  0  0  0  0  0  0  0  0  0  0  0
   46.7470   32.8810   44.1760 C   0  0  0  0  0  0  0  0  0  0  0  0
   45.7230   33.7920   44.1500 N   0  0  0  0  0  0  0  0  0  0  0  0
   45.7970   34.9340   43.4580 C   0  0  0  0  0  0  0  0  0  0  0  0
   46.9090   35.2320   42.7460 N   0  0  0  0  0  0  0  0  0  0  0  0
   48.7400   32.4800   43.4370 H   0  0  0  0  0  0  0  0  0  0  0  0
   49.1860   34.6680   41.9610 C   0  0  0  0  0  0  0  0  0  0  0  0
   49.6440   33.5370   41.3140 F   0  0  0  0  0  0  0  0  0  0  0  0
   48.9120   35.6830   41.0480 F   0  0  0  0  0  0  0  0  0  0  0  0
   50.1590   35.1770   42.8120 F   0  0  0  0  0  0  0  0  0  0  0  0
   44.6550   35.8960   43.4640 C   0  0  0  0  0  0  0  0  0  0  0  0
   43.7520   35.6090   42.4890 F   0  0  0  0  0  0  0  0  0  0  0  0
   45.1460   37.2120   43.3210 F   0  0  0  0  0  0  0  0  0  0  0  0
   44.0270   35.9250   44.6890 F   0  0  0  0  0  0  0  0  0  0  0  0
   47.0270   32.6280   47.1310 C   0  0  0  0  0  0  0  0  0  0  0  0
   47.2770   33.6490   46.8610 H   0  0  0  0  0  0  0  0  0  0  0  0
   47.7160   32.5000   48.1210 O   0  0  0  0  0  0  0  0  0  0  0  0
  1  7  1  1  0  0  0
  1  6  1  0  0  0  0
  2  9  1  0  0  0  0
  2  3  1  0  0  0  0
  2  1  1  0  0  0  0
  3 10  1  0  0  0  0
  3  4  1  0  0  0  0
  4 13  1  0  0  0  0
  4  5  1  0  0  0  0
  5 14  1  0  0  0  0
  5 15  1  0  0  0  0
  6 16  1  6  0  0  0
  6  5  1  0  0  0  0
  6 32  1  0  0  0  0
  8  2  1  0  0  0  0
 11  3  1  0  0  0  0
 12  4  1  0  0  0  0
 17 22  2  0  0  0  0
 17 18  1  0  0  0  0
 18 19  2  0  0  0  0
 19  1  1  0  0  0  0
 20 19  1  0  0  0  0
 21 28  1  0  0  0  0
 21 20  2  0  0  0  0
 22 21  1  0  0  0  0
 23 18  1  0  0  0  0
 24 17  1  0  0  0  0
 24 27  1  0  0  0  0
 25 24  1  0  0  0  0
 26 24  1  0  0  0  0
 28 31  1  0  0  0  0
 29 28  1  0  0  0  0
 30 28  1  0  0  0  0
 32 34  2  0  0  0  0
 33 32  1  0  0  0  0
M  END
>  <minimizedAffinity>
-5.89333153

>  <minimizedRMSD>
0.919870794

$$$$
