
 OpenBabel03242518373D

 29 31  0  0  1  0  0  0  0  0999 V2000
   36.7650   29.8000   41.4260 C   0  0  0  0  0  0  0  0  0  0  0  0
   36.0080   28.6390   41.3900 C   0  0  0  0  0  0  0  0  0  0  0  0
   36.6440   27.6650   42.1440 C   0  0  0  0  0  0  0  0  0  0  0  0
   37.7720   28.2910   42.6080 C   0  0  0  0  0  0  0  0  0  0  0  0
   37.8320   29.5370   42.1810 O   0  0  0  0  0  0  0  0  0  0  0  0
   35.0790   28.5910   40.8340 H   0  0  0  0  0  0  0  0  0  0  0  0
   36.2980   26.6650   42.3020 H   0  0  0  0  0  0  0  0  0  0  0  0
   38.7830   27.6640   43.4710 C   0  0  2  0  0  0  0  0  0  0  0  0
   40.2160   27.9220   43.2250 C   0  0  0  0  0  0  0  0  0  0  0  0
   39.6580   26.6200   42.7470 C   0  0  1  0  0  0  0  0  0  0  0  0
   38.4600   27.3670   44.5010 H   0  0  0  0  0  0  0  0  0  0  0  0
   40.9630   27.9090   44.0600 H   0  0  0  0  0  0  0  0  0  0  0  0
   40.5410   28.6300   42.4340 H   0  0  0  0  0  0  0  0  0  0  0  0
   39.4560   26.4210   41.6910 H   0  0  0  0  0  0  0  0  0  0  0  0
   39.9610   25.4220   43.5700 C   0  0  0  0  0  0  0  0  0  0  0  0
   40.4180   25.4620   44.5560 H   0  0  0  0  0  0  0  0  0  0  0  0
   39.6750   24.3140   43.1020 O   0  0  0  0  0  0  0  0  0  0  0  0
   36.5650   31.0660   40.8360 O   0  0  0  0  0  0  0  0  0  0  0  0
   37.0890   31.3190   39.5470 C   0  0  0  0  0  0  0  0  0  0  0  0
   36.5040   30.7690   38.5850 O   0  0  0  0  0  0  0  0  0  0  0  0
   38.2300   32.1770   39.5020 C   0  0  0  0  0  0  0  0  0  0  0  0
   38.1500   33.2730   40.3200 C   0  0  0  0  0  0  0  0  0  0  0  0
   39.2320   34.1610   40.3360 C   0  0  0  0  0  0  0  0  0  0  0  0
   40.3020   33.8860   39.5400 N   0  0  0  0  0  0  0  0  0  0  0  0
   40.3230   32.8030   38.7640 C   0  0  0  0  0  0  0  0  0  0  0  0
   39.3030   31.9480   38.7360 N   0  0  0  0  0  0  0  0  0  0  0  0
   37.3240   33.5220   40.9620 H   0  0  0  0  0  0  0  0  0  0  0  0
   39.2180   35.0450   40.9680 H   0  0  0  0  0  0  0  0  0  0  0  0
   41.1740   32.5630   38.1160 H   0  0  0  0  0  0  0  0  0  0  0  0
  1  5  1  0  0  0  0
  2  1  2  0  0  0  0
  2  3  1  0  0  0  0
  3  7  1  0  0  0  0
  3  4  2  0  0  0  0
  4  8  1  0  0  0  0
  5  4  1  0  0  0  0
  6  2  1  0  0  0  0
  8 11  1  1  0  0  0
  9  8  1  0  0  0  0
  9 12  1  0  0  0  0
 10 14  1  6  0  0  0
 10  9  1  0  0  0  0
 10  8  1  0  0  0  0
 10 15  1  0  0  0  0
 13  9  1  0  0  0  0
 15 16  1  0  0  0  0
 17 15  2  0  0  0  0
 18  1  1  0  0  0  0
 19 18  1  0  0  0  0
 20 19  2  0  0  0  0
 21 19  1  0  0  0  0
 21 22  1  0  0  0  0
 22 23  2  0  0  0  0
 22 27  1  0  0  0  0
 23 28  1  0  0  0  0
 24 23  1  0  0  0  0
 25 24  2  0  0  0  0
 26 25  1  0  0  0  0
 26 21  2  0  0  0  0
 29 25  1  0  0  0  0
M  END
>  <minimizedAffinity>
-4.94036722

$$$$

 OpenBabel03242518373D

 29 31  0  0  1  0  0  0  0  0999 V2000
   37.0250   29.1810   42.1550 C   0  0  0  0  0  0  0  0  0  0  0  0
   38.0330   28.9870   43.0890 C   0  0  0  0  0  0  0  0  0  0  0  0
   38.1690   27.6280   43.3260 C   0  0  0  0  0  0  0  0  0  0  0  0
   37.2260   27.0550   42.5130 C   0  0  0  0  0  0  0  0  0  0  0  0
   36.5630   27.9710   41.8360 O   0  0  0  0  0  0  0  0  0  0  0  0
   38.5740   29.8240   43.5130 H   0  0  0  0  0  0  0  0  0  0  0  0
   38.8660   27.1730   43.9970 H   0  0  0  0  0  0  0  0  0  0  0  0
   36.9810   25.6090   42.4040 C   0  0  2  0  0  0  0  0  0  0  0  0
   38.1230   24.6860   42.2430 C   0  0  0  0  0  0  0  0  0  0  0  0
   37.3300   25.0220   41.0210 C   0  0  1  0  0  0  0  0  0  0  0  0
   36.0330   25.2180   42.8510 H   0  0  0  0  0  0  0  0  0  0  0  0
   38.0830   23.6360   42.6330 H   0  0  0  0  0  0  0  0  0  0  0  0
   39.1670   25.0600   42.2610 H   0  0  0  0  0  0  0  0  0  0  0  0
   37.7010   25.7040   40.2500 H   0  0  0  0  0  0  0  0  0  0  0  0
   36.3650   23.9970   40.5480 C   0  0  0  0  0  0  0  0  0  0  0  0
   35.2850   24.1060   40.6080 H   0  0  0  0  0  0  0  0  0  0  0  0
   36.8230   22.9590   40.0580 O   0  0  0  0  0  0  0  0  0  0  0  0
   36.5000   30.3550   41.5760 O   0  0  0  0  0  0  0  0  0  0  0  0
   36.9960   30.7920   40.3260 C   0  0  0  0  0  0  0  0  0  0  0  0
   36.5390   30.2180   39.3100 O   0  0  0  0  0  0  0  0  0  0  0  0
   37.9640   31.8410   40.3790 C   0  0  0  0  0  0  0  0  0  0  0  0
   37.4900   33.0720   40.0100 C   0  0  0  0  0  0  0  0  0  0  0  0
   38.3780   34.1540   40.0410 C   0  0  0  0  0  0  0  0  0  0  0  0
   39.6610   33.9220   40.4340 N   0  0  0  0  0  0  0  0  0  0  0  0
   40.0650   32.7010   40.7830 C   0  0  0  0  0  0  0  0  0  0  0  0
   39.2340   31.6610   40.7590 N   0  0  0  0  0  0  0  0  0  0  0  0
   36.4860   33.2920   39.6950 H   0  0  0  0  0  0  0  0  0  0  0  0
   38.0520   35.1510   39.7570 H   0  0  0  0  0  0  0  0  0  0  0  0
   41.0920   32.4930   41.1030 H   0  0  0  0  0  0  0  0  0  0  0  0
  1  2  2  0  0  0  0
  2  3  1  0  0  0  0
  2  6  1  0  0  0  0
  3  7  1  0  0  0  0
  4  3  2  0  0  0  0
  5  1  1  0  0  0  0
  5  4  1  0  0  0  0
  8  4  1  0  0  0  0
  8 11  1  1  0  0  0
  9 13  1  0  0  0  0
  9  8  1  0  0  0  0
  9 12  1  0  0  0  0
 10 14  1  6  0  0  0
 10  9  1  0  0  0  0
 10  8  1  0  0  0  0
 15 16  1  0  0  0  0
 15 10  1  0  0  0  0
 17 15  2  0  0  0  0
 18  1  1  0  0  0  0
 19 21  1  0  0  0  0
 19 18  1  0  0  0  0
 20 19  2  0  0  0  0
 21 26  1  0  0  0  0
 22 23  1  0  0  0  0
 22 21  2  0  0  0  0
 23 24  2  0  0  0  0
 24 25  1  0  0  0  0
 25 29  1  0  0  0  0
 26 25  2  0  0  0  0
 27 22  1  0  0  0  0
 28 23  1  0  0  0  0
M  END
>  <minimizedAffinity>
-4.92239141

$$$$

 OpenBabel03242518373D

 29 31  0  0  1  0  0  0  0  0999 V2000
   36.4860   30.6680   40.8560 C   0  0  0  0  0  0  0  0  0  0  0  0
   35.6160   29.8750   40.1230 C   0  0  0  0  0  0  0  0  0  0  0  0
   35.6210   28.5940   40.6530 C   0  0  0  0  0  0  0  0  0  0  0  0
   36.5050   28.6730   41.6970 C   0  0  0  0  0  0  0  0  0  0  0  0
   37.0050   29.8880   41.8060 O   0  0  0  0  0  0  0  0  0  0  0  0
   35.0620   30.2770   39.2820 H   0  0  0  0  0  0  0  0  0  0  0  0
   35.0480   27.7640   40.2980 H   0  0  0  0  0  0  0  0  0  0  0  0
   36.8520   27.5550   42.5870 C   0  0  2  0  0  0  0  0  0  0  0  0
   37.9620   27.7050   43.5500 C   0  0  0  0  0  0  0  0  0  0  0  0
   38.2350   26.9360   42.2980 C   0  0  1  0  0  0  0  0  0  0  0  0
   36.0460   26.8110   42.8080 H   0  0  0  0  0  0  0  0  0  0  0  0
   37.9640   27.1550   44.5260 H   0  0  0  0  0  0  0  0  0  0  0  0
   38.5010   28.6690   43.6550 H   0  0  0  0  0  0  0  0  0  0  0  0
   38.8220   27.3490   41.4720 H   0  0  0  0  0  0  0  0  0  0  0  0
   38.2620   25.4560   42.4150 C   0  0  0  0  0  0  0  0  0  0  0  0
   37.4860   24.8010   42.0260 H   0  0  0  0  0  0  0  0  0  0  0  0
   39.2280   24.9420   42.9920 O   0  0  0  0  0  0  0  0  0  0  0  0
   36.8410   32.0270   40.7340 O   0  0  0  0  0  0  0  0  0  0  0  0
   37.7460   32.4180   39.7190 C   0  0  0  0  0  0  0  0  0  0  0  0
   37.2740   32.5430   38.5650 O   0  0  0  0  0  0  0  0  0  0  0  0
   39.0940   32.6240   40.1400 C   0  0  0  0  0  0  0  0  0  0  0  0
   39.5830   33.8790   39.8930 C   0  0  0  0  0  0  0  0  0  0  0  0
   40.8980   34.1610   40.2820 C   0  0  0  0  0  0  0  0  0  0  0  0
   41.6170   33.1730   40.8840 N   0  0  0  0  0  0  0  0  0  0  0  0
   41.0870   31.9690   41.0990 C   0  0  0  0  0  0  0  0  0  0  0  0
   39.8390   31.6840   40.7350 N   0  0  0  0  0  0  0  0  0  0  0  0
   39.0460   34.6840   39.4220 H   0  0  0  0  0  0  0  0  0  0  0  0
   41.3330   35.1420   40.1090 H   0  0  0  0  0  0  0  0  0  0  0  0
   41.6470   31.1600   41.5810 H   0  0  0  0  0  0  0  0  0  0  0  0
  1  5  1  0  0  0  0
  2  3  1  0  0  0  0
  2  1  2  0  0  0  0
  3  4  2  0  0  0  0
  4  5  1  0  0  0  0
  4  8  1  0  0  0  0
  6  2  1  0  0  0  0
  7  3  1  0  0  0  0
  8 11  1  1  0  0  0
  8  9  1  0  0  0  0
  9 13  1  0  0  0  0
  9 12  1  0  0  0  0
 10 14  1  6  0  0  0
 10 15  1  0  0  0  0
 10  8  1  0  0  0  0
 10  9  1  0  0  0  0
 15 17  2  0  0  0  0
 16 15  1  0  0  0  0
 18  1  1  0  0  0  0
 19 21  1  0  0  0  0
 19 18  1  0  0  0  0
 20 19  2  0  0  0  0
 21 26  1  0  0  0  0
 22 21  2  0  0  0  0
 22 23  1  0  0  0  0
 23 24  2  0  0  0  0
 24 25  1  0  0  0  0
 25 29  1  0  0  0  0
 26 25  2  0  0  0  0
 27 22  1  0  0  0  0
 28 23  1  0  0  0  0
M  END
>  <minimizedAffinity>
-4.80651569

$$$$

 OpenBabel03242518373D

 29 31  0  0  1  0  0  0  0  0999 V2000
   36.9570   28.7810   42.1180 C   0  0  0  0  0  0  0  0  0  0  0  0
   37.9610   28.6130   43.0600 C   0  0  0  0  0  0  0  0  0  0  0  0
   38.1520   27.2570   43.2750 C   0  0  0  0  0  0  0  0  0  0  0  0
   37.2440   26.6590   42.4420 C   0  0  0  0  0  0  0  0  0  0  0  0
   36.5500   27.5580   41.7720 O   0  0  0  0  0  0  0  0  0  0  0  0
   38.4610   29.4660   43.5050 H   0  0  0  0  0  0  0  0  0  0  0  0
   38.8600   26.8220   43.9480 H   0  0  0  0  0  0  0  0  0  0  0  0
   37.0630   25.2070   42.3050 C   0  0  2  0  0  0  0  0  0  0  0  0
   38.2460   24.3320   42.1720 C   0  0  0  0  0  0  0  0  0  0  0  0
   37.4830   24.6550   40.9280 C   0  0  1  0  0  0  0  0  0  0  0  0
   36.1160   24.7710   42.7130 H   0  0  0  0  0  0  0  0  0  0  0  0
   38.2360   23.2770   42.5470 H   0  0  0  0  0  0  0  0  0  0  0  0
   39.2730   24.7480   42.2320 H   0  0  0  0  0  0  0  0  0  0  0  0
   37.8520   25.3610   40.1790 H   0  0  0  0  0  0  0  0  0  0  0  0
   36.5770   23.5980   40.4080 C   0  0  0  0  0  0  0  0  0  0  0  0
   36.3350   22.6860   40.9480 H   0  0  0  0  0  0  0  0  0  0  0  0
   36.0720   23.7710   39.2930 O   0  0  0  0  0  0  0  0  0  0  0  0
   36.3890   29.9410   41.5520 O   0  0  0  0  0  0  0  0  0  0  0  0
   35.7240   29.8500   40.3060 C   0  0  0  0  0  0  0  0  0  0  0  0
   34.5980   29.3010   40.3110 O   0  0  0  0  0  0  0  0  0  0  0  0
   36.4260   30.4010   39.1910 C   0  0  0  0  0  0  0  0  0  0  0  0
   36.9780   31.6330   39.4180 C   0  0  0  0  0  0  0  0  0  0  0  0
   37.6870   32.2380   38.3730 C   0  0  0  0  0  0  0  0  0  0  0  0
   37.7890   31.5680   37.1920 N   0  0  0  0  0  0  0  0  0  0  0  0
   37.2300   30.3690   37.0300 C   0  0  0  0  0  0  0  0  0  0  0  0
   36.5520   29.7800   38.0120 N   0  0  0  0  0  0  0  0  0  0  0  0
   36.9190   32.1920   40.3350 H   0  0  0  0  0  0  0  0  0  0  0  0
   38.1440   33.2160   38.5020 H   0  0  0  0  0  0  0  0  0  0  0  0
   37.3000   29.8120   36.0890 H   0  0  0  0  0  0  0  0  0  0  0  0
  1  2  2  0  0  0  0
  2  3  1  0  0  0  0
  2  6  1  0  0  0  0
  3  7  1  0  0  0  0
  4  3  2  0  0  0  0
  5  1  1  0  0  0  0
  5  4  1  0  0  0  0
  8  4  1  0  0  0  0
  8 11  1  1  0  0  0
  9 13  1  0  0  0  0
  9  8  1  0  0  0  0
  9 12  1  0  0  0  0
 10 14  1  6  0  0  0
 10  9  1  0  0  0  0
 10  8  1  0  0  0  0
 15 10  1  0  0  0  0
 15 16  1  0  0  0  0
 17 15  2  0  0  0  0
 18  1  1  0  0  0  0
 19 20  2  0  0  0  0
 19 18  1  0  0  0  0
 21 22  1  0  0  0  0
 21 19  1  0  0  0  0
 22 27  1  0  0  0  0
 23 28  1  0  0  0  0
 23 22  2  0  0  0  0
 24 23  1  0  0  0  0
 25 24  2  0  0  0  0
 25 26  1  0  0  0  0
 26 21  2  0  0  0  0
 29 25  1  0  0  0  0
M  END
>  <minimizedAffinity>
-4.77822399

$$$$

 OpenBabel03242518373D

 29 31  0  0  1  0  0  0  0  0999 V2000
   36.3700   28.7340   41.7160 C   0  0  0  0  0  0  0  0  0  0  0  0
   35.7060   28.6120   40.5040 C   0  0  0  0  0  0  0  0  0  0  0  0
   35.7760   29.8210   39.8300 C   0  0  0  0  0  0  0  0  0  0  0  0
   36.4890   30.6300   40.6760 C   0  0  0  0  0  0  0  0  0  0  0  0
   36.8290   29.9850   41.7740 O   0  0  0  0  0  0  0  0  0  0  0  0
   35.2350   27.6800   40.2130 H   0  0  0  0  0  0  0  0  0  0  0  0
   35.3550   30.0300   38.8690 H   0  0  0  0  0  0  0  0  0  0  0  0
   36.8350   32.0310   40.4000 C   0  0  2  0  0  0  0  0  0  0  0  0
   37.2430   32.4290   39.0370 C   0  0  0  0  0  0  0  0  0  0  0  0
   38.3230   32.2480   40.0540 C   0  0  1  0  0  0  0  0  0  0  0  0
   36.3960   32.8070   41.0760 H   0  0  0  0  0  0  0  0  0  0  0  0
   37.0440   33.4590   38.6460 H   0  0  0  0  0  0  0  0  0  0  0  0
   37.2350   31.6960   38.2020 H   0  0  0  0  0  0  0  0  0  0  0  0
   38.9850   31.3780   40.0580 H   0  0  0  0  0  0  0  0  0  0  0  0
   38.8980   33.4840   40.6430 C   0  0  0  0  0  0  0  0  0  0  0  0
   38.6940   33.8260   41.6550 H   0  0  0  0  0  0  0  0  0  0  0  0
   39.6530   34.1610   39.9370 O   0  0  0  0  0  0  0  0  0  0  0  0
   36.5900   27.8110   42.7590 O   0  0  0  0  0  0  0  0  0  0  0  0
   37.8350   27.1440   42.8410 C   0  0  0  0  0  0  0  0  0  0  0  0
   38.6580   27.5920   43.6730 O   0  0  0  0  0  0  0  0  0  0  0  0
   37.9990   26.0340   41.9580 C   0  0  0  0  0  0  0  0  0  0  0  0
   37.0580   25.0490   42.1010 C   0  0  0  0  0  0  0  0  0  0  0  0
   37.1480   23.9280   41.2660 C   0  0  0  0  0  0  0  0  0  0  0  0
   38.1640   23.8800   40.3610 N   0  0  0  0  0  0  0  0  0  0  0  0
   39.0510   24.8700   40.2670 C   0  0  0  0  0  0  0  0  0  0  0  0
   38.9800   25.9420   41.0530 N   0  0  0  0  0  0  0  0  0  0  0  0
   36.2430   25.0520   42.8030 H   0  0  0  0  0  0  0  0  0  0  0  0
   36.4260   23.1190   41.3400 H   0  0  0  0  0  0  0  0  0  0  0  0
   39.8760   24.8520   39.5460 H   0  0  0  0  0  0  0  0  0  0  0  0
  1  5  1  0  0  0  0
  1 18  1  0  0  0  0
  2  1  2  0  0  0  0
  3  2  1  0  0  0  0
  3  4  2  0  0  0  0
  4  5  1  0  0  0  0
  6  2  1  0  0  0  0
  7  3  1  0  0  0  0
  8  4  1  0  0  0  0
  8 11  1  1  0  0  0
  9 10  1  0  0  0  0
  9  8  1  0  0  0  0
 10 14  1  6  0  0  0
 10  8  1  0  0  0  0
 10 15  1  0  0  0  0
 12  9  1  0  0  0  0
 13  9  1  0  0  0  0
 15 16  1  0  0  0  0
 17 15  2  0  0  0  0
 18 19  1  0  0  0  0
 19 20  2  0  0  0  0
 21 22  1  0  0  0  0
 21 19  1  0  0  0  0
 22 27  1  0  0  0  0
 23 28  1  0  0  0  0
 23 22  2  0  0  0  0
 24 23  1  0  0  0  0
 25 24  2  0  0  0  0
 25 26  1  0  0  0  0
 26 21  2  0  0  0  0
 29 25  1  0  0  0  0
M  END
>  <minimizedAffinity>
-4.77401114

$$$$

 OpenBabel03242518373D

 29 31  0  0  1  0  0  0  0  0999 V2000
   38.5140   28.1500   42.6400 C   0  0  0  0  0  0  0  0  0  0  0  0
   37.3440   28.3560   43.3560 C   0  0  0  0  0  0  0  0  0  0  0  0
   36.5750   27.2040   43.3010 C   0  0  0  0  0  0  0  0  0  0  0  0
   37.3250   26.3430   42.5440 C   0  0  0  0  0  0  0  0  0  0  0  0
   38.4550   26.9060   42.1630 O   0  0  0  0  0  0  0  0  0  0  0  0
   37.1460   29.3020   43.8480 H   0  0  0  0  0  0  0  0  0  0  0  0
   35.6190   27.0640   43.7590 H   0  0  0  0  0  0  0  0  0  0  0  0
   36.9310   24.9680   42.2020 C   0  0  2  0  0  0  0  0  0  0  0  0
   37.9560   24.0030   41.7580 C   0  0  0  0  0  0  0  0  0  0  0  0
   37.0960   24.6280   40.7070 C   0  0  1  0  0  0  0  0  0  0  0  0
   35.9920   24.5770   42.6680 H   0  0  0  0  0  0  0  0  0  0  0  0
   37.8480   22.9050   41.9540 H   0  0  0  0  0  0  0  0  0  0  0  0
   39.0310   24.2820   41.7340 H   0  0  0  0  0  0  0  0  0  0  0  0
   37.4630   25.4100   40.0370 H   0  0  0  0  0  0  0  0  0  0  0  0
   35.9970   23.7920   40.1610 C   0  0  0  0  0  0  0  0  0  0  0  0
   35.6430   22.8750   40.6260 H   0  0  0  0  0  0  0  0  0  0  0  0
   35.4550   24.1650   39.1140 O   0  0  0  0  0  0  0  0  0  0  0  0
   39.6190   28.9900   42.3910 O   0  0  0  0  0  0  0  0  0  0  0  0
   39.3940   30.3390   42.0290 C   0  0  0  0  0  0  0  0  0  0  0  0
   39.7870   31.2100   42.8390 O   0  0  0  0  0  0  0  0  0  0  0  0
   38.7430   30.5410   40.7740 C   0  0  0  0  0  0  0  0  0  0  0  0
   37.6150   31.3160   40.8360 C   0  0  0  0  0  0  0  0  0  0  0  0
   36.9220   31.5640   39.6450 C   0  0  0  0  0  0  0  0  0  0  0  0
   37.4060   31.0220   38.4940 N   0  0  0  0  0  0  0  0  0  0  0  0
   38.5100   30.2750   38.4950 C   0  0  0  0  0  0  0  0  0  0  0  0
   39.1810   30.0290   39.6180 N   0  0  0  0  0  0  0  0  0  0  0  0
   37.2030   31.7600   41.7250 H   0  0  0  0  0  0  0  0  0  0  0  0
   36.0210   32.1720   39.6410 H   0  0  0  0  0  0  0  0  0  0  0  0
   38.9180   29.8300   37.5800 H   0  0  0  0  0  0  0  0  0  0  0  0
  1  2  2  0  0  0  0
  2  6  1  0  0  0  0
  3  2  1  0  0  0  0
  3  7  1  0  0  0  0
  4  3  2  0  0  0  0
  5  4  1  0  0  0  0
  5  1  1  0  0  0  0
  8  4  1  0  0  0  0
  8 11  1  1  0  0  0
  9 12  1  0  0  0  0
  9  8  1  0  0  0  0
 10 14  1  6  0  0  0
 10  9  1  0  0  0  0
 10  8  1  0  0  0  0
 13  9  1  0  0  0  0
 15 16  1  0  0  0  0
 15 10  1  0  0  0  0
 17 15  2  0  0  0  0
 18  1  1  0  0  0  0
 19 18  1  0  0  0  0
 19 20  2  0  0  0  0
 21 22  1  0  0  0  0
 21 19  1  0  0  0  0
 22 27  1  0  0  0  0
 23 22  2  0  0  0  0
 24 25  2  0  0  0  0
 24 23  1  0  0  0  0
 25 26  1  0  0  0  0
 26 21  2  0  0  0  0
 28 23  1  0  0  0  0
 29 25  1  0  0  0  0
M  END
>  <minimizedAffinity>
-4.55854607

$$$$

 OpenBabel03242518373D

 29 31  0  0  1  0  0  0  0  0999 V2000
   37.1760   29.4170   39.2040 C   0  0  0  0  0  0  0  0  0  0  0  0
   35.9150   29.6920   39.7120 C   0  0  0  0  0  0  0  0  0  0  0  0
   35.7150   28.9300   40.8530 C   0  0  0  0  0  0  0  0  0  0  0  0
   36.8800   28.2210   40.9840 C   0  0  0  0  0  0  0  0  0  0  0  0
   37.7250   28.5120   40.0140 O   0  0  0  0  0  0  0  0  0  0  0  0
   35.2570   30.4040   39.2280 H   0  0  0  0  0  0  0  0  0  0  0  0
   34.8370   28.9290   41.4620 H   0  0  0  0  0  0  0  0  0  0  0  0
   37.1600   27.2620   42.0630 C   0  0  2  0  0  0  0  0  0  0  0  0
   36.6380   27.5170   43.4200 C   0  0  0  0  0  0  0  0  0  0  0  0
   38.0800   27.8200   43.1680 C   0  0  1  0  0  0  0  0  0  0  0  0
   37.3800   26.2070   41.7610 H   0  0  0  0  0  0  0  0  0  0  0  0
   36.3820   26.6760   44.1140 H   0  0  0  0  0  0  0  0  0  0  0  0
   35.9880   28.3930   43.6270 H   0  0  0  0  0  0  0  0  0  0  0  0
   38.4550   28.8420   43.0600 H   0  0  0  0  0  0  0  0  0  0  0  0
   39.0680   26.8340   43.6750 C   0  0  0  0  0  0  0  0  0  0  0  0
   38.8050   25.8440   44.0420 H   0  0  0  0  0  0  0  0  0  0  0  0
   40.2590   27.1630   43.6800 O   0  0  0  0  0  0  0  0  0  0  0  0
   37.8590   29.9190   38.0760 O   0  0  0  0  0  0  0  0  0  0  0  0
   37.9500   31.3180   37.8870 C   0  0  0  0  0  0  0  0  0  0  0  0
   37.3260   31.7930   36.9090 O   0  0  0  0  0  0  0  0  0  0  0  0
   38.7460   32.0190   38.8420 C   0  0  0  0  0  0  0  0  0  0  0  0
   38.0770   32.9860   39.5420 C   0  0  0  0  0  0  0  0  0  0  0  0
   38.7890   33.7160   40.5020 C   0  0  0  0  0  0  0  0  0  0  0  0
   40.1060   33.4230   40.6850 N   0  0  0  0  0  0  0  0  0  0  0  0
   40.7060   32.4690   39.9730 C   0  0  0  0  0  0  0  0  0  0  0  0
   40.0430   31.7670   39.0560 N   0  0  0  0  0  0  0  0  0  0  0  0
   37.0390   33.2450   39.4260 H   0  0  0  0  0  0  0  0  0  0  0  0
   38.3030   34.4940   41.0840 H   0  0  0  0  0  0  0  0  0  0  0  0
   41.7640   32.2170   40.1040 H   0  0  0  0  0  0  0  0  0  0  0  0
  1  2  2  0  0  0  0
  1  5  1  0  0  0  0
  2  3  1  0  0  0  0
  3  4  2  0  0  0  0
  3  7  1  0  0  0  0
  4  8  1  0  0  0  0
  5  4  1  0  0  0  0
  6  2  1  0  0  0  0
  8 11  1  6  0  0  0
  8 10  1  0  0  0  0
  8  9  1  0  0  0  0
  9 13  1  0  0  0  0
  9 12  1  0  0  0  0
 10 14  1  6  0  0  0
 10  9  1  0  0  0  0
 10 15  1  0  0  0  0
 15 17  2  0  0  0  0
 15 16  1  0  0  0  0
 18  1  1  0  0  0  0
 19 18  1  0  0  0  0
 19 21  1  0  0  0  0
 20 19  2  0  0  0  0
 21 26  2  0  0  0  0
 21 22  1  0  0  0  0
 22 23  2  0  0  0  0
 23 24  1  0  0  0  0
 23 28  1  0  0  0  0
 25 29  1  0  0  0  0
 25 24  2  0  0  0  0
 26 25  1  0  0  0  0
 27 22  1  0  0  0  0
M  END
>  <minimizedAffinity>
-4.52209282

$$$$

 OpenBabel03242518373D

 29 31  0  0  1  0  0  0  0  0999 V2000
   36.9680   29.3160   42.0040 C   0  0  0  0  0  0  0  0  0  0  0  0
   38.0130   29.1840   42.9070 C   0  0  0  0  0  0  0  0  0  0  0  0
   38.1900   27.8400   43.1950 C   0  0  0  0  0  0  0  0  0  0  0  0
   37.2310   27.2120   42.4430 C   0  0  0  0  0  0  0  0  0  0  0  0
   36.5230   28.0840   41.7520 O   0  0  0  0  0  0  0  0  0  0  0  0
   38.5490   30.0510   43.2750 H   0  0  0  0  0  0  0  0  0  0  0  0
   38.9210   27.4300   43.8580 H   0  0  0  0  0  0  0  0  0  0  0  0
   37.0180   25.7580   42.4030 C   0  0  2  0  0  0  0  0  0  0  0  0
   38.1780   24.8520   42.2770 C   0  0  0  0  0  0  0  0  0  0  0  0
   37.3710   25.1150   41.0460 C   0  0  1  0  0  0  0  0  0  0  0  0
   36.0810   25.3680   42.8740 H   0  0  0  0  0  0  0  0  0  0  0  0
   38.1630   23.8220   42.7160 H   0  0  0  0  0  0  0  0  0  0  0  0
   39.2140   25.2500   42.2700 H   0  0  0  0  0  0  0  0  0  0  0  0
   37.7220   25.7670   40.2420 H   0  0  0  0  0  0  0  0  0  0  0  0
   36.4250   24.0480   40.6290 C   0  0  0  0  0  0  0  0  0  0  0  0
   36.2340   23.1460   41.2050 H   0  0  0  0  0  0  0  0  0  0  0  0
   35.8220   24.2000   39.5600 O   0  0  0  0  0  0  0  0  0  0  0  0
   36.3940   30.4520   41.3970 O   0  0  0  0  0  0  0  0  0  0  0  0
   37.1220   31.1490   40.4040 C   0  0  0  0  0  0  0  0  0  0  0  0
   37.4630   32.3230   40.6780 O   0  0  0  0  0  0  0  0  0  0  0  0
   37.3810   30.4200   39.2040 C   0  0  0  0  0  0  0  0  0  0  0  0
   36.2650   30.1200   38.4680 C   0  0  0  0  0  0  0  0  0  0  0  0
   36.4360   29.4100   37.2730 C   0  0  0  0  0  0  0  0  0  0  0  0
   37.7010   29.0580   36.9100 N   0  0  0  0  0  0  0  0  0  0  0  0
   38.7500   29.3780   37.6670 C   0  0  0  0  0  0  0  0  0  0  0  0
   38.6050   30.0520   38.8060 N   0  0  0  0  0  0  0  0  0  0  0  0
   35.2530   30.3810   38.7220 H   0  0  0  0  0  0  0  0  0  0  0  0
   35.5830   29.1480   36.6540 H   0  0  0  0  0  0  0  0  0  0  0  0
   39.7750   29.1050   37.3930 H   0  0  0  0  0  0  0  0  0  0  0  0
  1  2  2  0  0  0  0
  2  3  1  0  0  0  0
  2  6  1  0  0  0  0
  3  7  1  0  0  0  0
  4  3  2  0  0  0  0
  5  1  1  0  0  0  0
  5  4  1  0  0  0  0
  8  4  1  0  0  0  0
  8 11  1  1  0  0  0
  9  8  1  0  0  0  0
  9 12  1  0  0  0  0
 10 14  1  6  0  0  0
 10  9  1  0  0  0  0
 10  8  1  0  0  0  0
 13  9  1  0  0  0  0
 15 10  1  0  0  0  0
 15 16  1  0  0  0  0
 17 15  2  0  0  0  0
 18  1  1  0  0  0  0
 19 20  2  0  0  0  0
 19 18  1  0  0  0  0
 21 19  1  0  0  0  0
 22 27  1  0  0  0  0
 22 21  2  0  0  0  0
 23 22  1  0  0  0  0
 24 23  2  0  0  0  0
 24 25  1  0  0  0  0
 25 26  2  0  0  0  0
 26 21  1  0  0  0  0
 28 23  1  0  0  0  0
 29 25  1  0  0  0  0
M  END
>  <minimizedAffinity>
-4.52150917

$$$$

 OpenBabel03242518373D

 29 31  0  0  1  0  0  0  0  0999 V2000
   34.8170   29.0700   39.2570 C   0  0  0  0  0  0  0  0  0  0  0  0
   35.6960   29.1140   38.1850 C   0  0  0  0  0  0  0  0  0  0  0  0
   34.9720   29.0150   37.0070 C   0  0  0  0  0  0  0  0  0  0  0  0
   33.6710   28.9150   37.4270 C   0  0  0  0  0  0  0  0  0  0  0  0
   33.5930   28.9460   38.7430 O   0  0  0  0  0  0  0  0  0  0  0  0
   36.7640   29.2120   38.3380 H   0  0  0  0  0  0  0  0  0  0  0  0
   35.3770   29.0210   36.0180 H   0  0  0  0  0  0  0  0  0  0  0  0
   32.5100   28.7910   36.5330 C   0  0  2  0  0  0  0  0  0  0  0  0
   32.4440   29.6080   35.3050 C   0  0  0  0  0  0  0  0  0  0  0  0
   31.6320   30.0570   36.4760 C   0  0  1  0  0  0  0  0  0  0  0  0
   31.9400   27.8290   36.5690 H   0  0  0  0  0  0  0  0  0  0  0  0
   31.9080   29.2440   34.3900 H   0  0  0  0  0  0  0  0  0  0  0  0
   33.2840   30.2720   35.0140 H   0  0  0  0  0  0  0  0  0  0  0  0
   31.9170   30.9120   37.0960 H   0  0  0  0  0  0  0  0  0  0  0  0
   30.1750   29.7700   36.4280 C   0  0  0  0  0  0  0  0  0  0  0  0
   29.7260   29.0110   35.7910 H   0  0  0  0  0  0  0  0  0  0  0  0
   29.4320   30.4370   37.1570 O   0  0  0  0  0  0  0  0  0  0  0  0
   35.0350   29.1340   40.6490 O   0  0  0  0  0  0  0  0  0  0  0  0
   36.1270   29.8850   41.1450 C   0  0  0  0  0  0  0  0  0  0  0  0
   36.1350   31.1080   40.8730 O   0  0  0  0  0  0  0  0  0  0  0  0
   37.0900   29.1490   41.8990 C   0  0  0  0  0  0  0  0  0  0  0  0
   36.6730   27.9080   42.3000 C   0  0  0  0  0  0  0  0  0  0  0  0
   37.5640   27.1220   43.0400 C   0  0  0  0  0  0  0  0  0  0  0  0
   38.7940   27.6340   43.3200 N   0  0  0  0  0  0  0  0  0  0  0  0
   39.1460   28.8500   42.9030 C   0  0  0  0  0  0  0  0  0  0  0  0
   38.3110   29.6110   42.1980 N   0  0  0  0  0  0  0  0  0  0  0  0
   35.7110   27.4700   42.0970 H   0  0  0  0  0  0  0  0  0  0  0  0
   37.2810   26.1300   43.3820 H   0  0  0  0  0  0  0  0  0  0  0  0
   40.1300   29.2810   43.1160 H   0  0  0  0  0  0  0  0  0  0  0  0
  1 18  1  0  0  0  0
  2  6  1  0  0  0  0
  2  1  2  0  0  0  0
  3  4  2  0  0  0  0
  3  2  1  0  0  0  0
  4  5  1  0  0  0  0
  5  1  1  0  0  0  0
  7  3  1  0  0  0  0
  8 11  1  6  0  0  0
  8  4  1  0  0  0  0
  9 10  1  0  0  0  0
  9  8  1  0  0  0  0
 10  8  1  0  0  0  0
 10 14  1  1  0  0  0
 12  9  1  0  0  0  0
 13  9  1  0  0  0  0
 15 10  1  0  0  0  0
 15 17  2  0  0  0  0
 16 15  1  0  0  0  0
 18 19  1  0  0  0  0
 19 21  1  0  0  0  0
 20 19  2  0  0  0  0
 21 26  2  0  0  0  0
 21 22  1  0  0  0  0
 22 23  2  0  0  0  0
 23 24  1  0  0  0  0
 23 28  1  0  0  0  0
 25 29  1  0  0  0  0
 25 24  2  0  0  0  0
 26 25  1  0  0  0  0
 27 22  1  0  0  0  0
M  END
>  <minimizedAffinity>
-4.51499653

$$$$
