
 OpenBabel03242520403D

 33 35  0  0  1  0  0  0  0  0999 V2000
   45.9190   33.5210   45.8260 C   0  0  0  0  0  0  0  0  0  0  0  0
   46.6720   33.6280   44.6360 C   0  0  0  0  0  0  0  0  0  0  0  0
   47.2830   32.4470   44.1180 C   0  0  0  0  0  0  0  0  0  0  0  0
   47.1160   31.2670   44.7910 N   0  0  0  0  0  0  0  0  0  0  0  0
   46.3820   31.2260   45.9280 C   0  0  0  0  0  0  0  0  0  0  0  0
   45.7960   32.3400   46.4320 N   0  0  0  0  0  0  0  0  0  0  0  0
   46.2650   29.9770   46.5510 N   0  0  0  0  0  0  0  0  0  0  0  0
   47.4210   29.2700   46.9970 C   0  0  2  0  0  0  0  0  0  0  0  0
   47.1780   27.8570   47.3990 C   0  0  0  0  0  0  0  0  0  0  0  0
   45.8970   27.5450   47.9020 N   0  0  0  0  0  0  0  0  0  0  0  0
   45.0330   28.6570   48.0640 C   0  0  0  0  0  0  0  0  0  0  0  0
   44.9560   29.3900   46.7510 C   0  0  0  0  0  0  0  0  0  0  0  0
   45.5000   34.4460   46.1400 H   0  0  0  0  0  0  0  0  0  0  0  0
   46.8530   34.5060   44.0500 H   0  0  0  0  0  0  0  0  0  0  0  0
   47.8700   32.4440   43.2210 H   0  0  0  0  0  0  0  0  0  0  0  0
   48.0900   29.1820   46.0850 H   0  0  0  0  0  0  0  0  0  0  0  0
   47.4040   27.1280   46.5930 H   0  0  0  0  0  0  0  0  0  0  0  0
   47.9350   27.6120   48.2000 H   0  0  0  0  0  0  0  0  0  0  0  0
   45.8590   26.8310   48.6460 H   0  0  0  0  0  0  0  0  0  0  0  0
   44.0060   28.2230   48.2690 H   0  0  0  0  0  0  0  0  0  0  0  0
   45.2320   29.2960   48.9300 H   0  0  0  0  0  0  0  0  0  0  0  0
   44.2410   30.2270   46.8820 H   0  0  0  0  0  0  0  0  0  0  0  0
   44.6830   28.6680   45.9730 H   0  0  0  0  0  0  0  0  0  0  0  0
   48.1820   30.0370   48.0160 C   0  0  0  0  0  0  0  0  0  0  0  0
   47.7890   30.7970   49.0980 C   0  0  0  0  0  0  0  0  0  0  0  0
   48.8340   31.3050   49.7560 N   0  0  0  0  0  0  0  0  0  0  0  0
   49.9110   30.8690   49.0910 C   0  0  0  0  0  0  0  0  0  0  0  0
   49.5220   30.1160   48.0580 N   0  0  0  0  0  0  0  0  0  0  0  0
   46.7590   30.9630   49.3770 H   0  0  0  0  0  0  0  0  0  0  0  0
   48.7810   31.9150   50.6100 H   0  0  0  0  0  0  0  0  0  0  0  0
   51.2750   31.2020   49.4890 C   0  0  0  0  0  0  0  0  0  0  0  0
   52.0340   30.4370   49.6740 H   0  0  0  0  0  0  0  0  0  0  0  0
   51.6120   32.4000   49.6300 O   0  0  0  0  0  0  0  0  0  0  0  0
  1 13  1  0  0  0  0
  1  6  1  0  0  0  0
  2  1  2  0  0  0  0
  3  2  1  0  0  0  0
  3  4  2  0  0  0  0
  4  5  1  0  0  0  0
  5  6  2  0  0  0  0
  5  7  1  0  0  0  0
  7 12  1  0  0  0  0
  7  8  1  0  0  0  0
  8 16  1  6  0  0  0
  8  9  1  0  0  0  0
  8 24  1  0  0  0  0
  9 10  1  0  0  0  0
  9 18  1  0  0  0  0
 10 11  1  0  0  0  0
 10 19  1  0  0  0  0
 11 20  1  0  0  0  0
 11 21  1  0  0  0  0
 12 22  1  0  0  0  0
 12 11  1  0  0  0  0
 14  2  1  0  0  0  0
 15  3  1  0  0  0  0
 17  9  1  0  0  0  0
 23 12  1  0  0  0  0
 24 28  1  0  0  0  0
 24 25  2  0  0  0  0
 25 29  1  0  0  0  0
 25 26  1  0  0  0  0
 26 30  1  0  0  0  0
 27 31  1  0  0  0  0
 27 26  1  0  0  0  0
 28 27  2  0  0  0  0
 31 33  2  0  0  0  0
 31 32  1  0  0  0  0
M  END
>  <minimizedAffinity>
-4.40621424

>  <minimizedRMSD>
0.0813328624

$$$$
