
 OpenBabel03252506403D

 34 36  0  0  1  0  0  0  0  0999 V2000
   49.4190   33.3170   41.5130 N   0  0  1  0  0  0  0  0  0  0  0  0
   50.7060   33.1410   42.1380 C   0  0  0  0  0  0  0  0  0  0  0  0
   51.3510   31.8290   41.8410 C   0  0  0  0  0  0  0  0  0  0  0  0
   50.5260   30.7300   42.4890 C   0  0  0  0  0  0  0  0  0  0  0  0
   49.0610   31.0400   42.3900 C   0  0  0  0  0  0  0  0  0  0  0  0
   48.8120   32.0370   41.2850 C   0  0  2  0  0  0  0  0  0  0  0  0
   50.5650   33.1830   43.2480 H   0  0  0  0  0  0  0  0  0  0  0  0
   51.3910   33.9960   41.8970 H   0  0  0  0  0  0  0  0  0  0  0  0
   52.3190   31.8340   42.4190 H   0  0  0  0  0  0  0  0  0  0  0  0
   51.6250   31.6420   40.8060 H   0  0  0  0  0  0  0  0  0  0  0  0
   50.7560   30.7050   43.5930 H   0  0  0  0  0  0  0  0  0  0  0  0
   50.7680   29.7250   42.1260 H   0  0  0  0  0  0  0  0  0  0  0  0
   48.5350   30.1150   42.0780 H   0  0  0  0  0  0  0  0  0  0  0  0
   48.6020   31.3980   43.3200 H   0  0  0  0  0  0  0  0  0  0  0  0
   47.7030   32.2450   41.3550 H   0  0  0  0  0  0  0  0  0  0  0  0
   47.2470   34.6110   42.0060 C   0  0  1  0  0  0  0  0  0  0  0  0
   48.3270   35.5230   41.6970 C   0  0  0  0  0  0  0  0  0  0  0  0
   48.6760   34.2140   42.3530 C   0  0  2  0  0  0  0  0  0  0  0  0
   46.8090   33.9300   41.2340 H   0  0  0  0  0  0  0  0  0  0  0  0
   48.4510   36.4220   42.3430 H   0  0  0  0  0  0  0  0  0  0  0  0
   48.6270   35.7090   40.6570 H   0  0  0  0  0  0  0  0  0  0  0  0
   48.9170   34.1550   43.4220 H   0  0  0  0  0  0  0  0  0  0  0  0
   45.5210   36.0400   43.1740 C   0  0  0  0  0  0  0  0  0  0  0  0
   46.3230   34.8610   43.1330 C   0  0  0  0  0  0  0  0  0  0  0  0
   46.2000   33.9770   44.1890 C   0  0  0  0  0  0  0  0  0  0  0  0
   45.3270   34.2860   45.1900 N   0  0  0  0  0  0  0  0  0  0  0  0
   44.5810   35.4080   45.2010 C   0  0  0  0  0  0  0  0  0  0  0  0
   44.6690   36.3050   44.1870 N   0  0  0  0  0  0  0  0  0  0  0  0
   45.6250   36.7160   42.3520 H   0  0  0  0  0  0  0  0  0  0  0  0
   46.7760   33.0690   44.2210 H   0  0  0  0  0  0  0  0  0  0  0  0
   43.9000   35.6310   45.9990 H   0  0  0  0  0  0  0  0  0  0  0  0
   49.0100   31.4900   39.9290 C   0  0  0  0  0  0  0  0  0  0  0  0
   48.7770   30.4160   39.9170 H   0  0  0  0  0  0  0  0  0  0  0  0
   49.3800   32.0450   38.8850 O   0  0  0  0  0  0  0  0  0  0  0  0
  1  2  1  1  0  0  0
  1 18  1  0  0  0  0
  2  7  1  0  0  0  0
  3  2  1  0  0  0  0
  3  9  1  0  0  0  0
  3  4  1  0  0  0  0
  4 11  1  0  0  0  0
  5  4  1  0  0  0  0
  5 14  1  0  0  0  0
  6 15  1  1  0  0  0
  6  1  1  0  0  0  0
  6  5  1  0  0  0  0
  8  2  1  0  0  0  0
 10  3  1  0  0  0  0
 12  4  1  0  0  0  0
 13  5  1  0  0  0  0
 16 19  1  6  0  0  0
 16 18  1  0  0  0  0
 16 24  1  0  0  0  0
 17 16  1  0  0  0  0
 17 20  1  0  0  0  0
 17 18  1  0  0  0  0
 18 22  1  1  0  0  0
 21 17  1  0  0  0  0
 23 28  1  0  0  0  0
 24 23  2  0  0  0  0
 24 25  1  0  0  0  0
 25 30  1  0  0  0  0
 25 26  2  0  0  0  0
 26 27  1  0  0  0  0
 27 31  1  0  0  0  0
 28 27  2  0  0  0  0
 29 23  1  0  0  0  0
 32  6  1  0  0  0  0
 33 32  1  0  0  0  0
 34 32  2  0  0  0  0
M  END
>  <minimizedAffinity>
-4.55873728

>  <minimizedRMSD>
0.290652901

$$$$
