
 OpenBabel03252509233D

 21 22  0  0  1  0  0  0  0  0999 V2000
   44.6900   35.3070   45.1100 C   0  0  0  0  0  0  0  0  0  0  0  0
   45.1630   35.6440   43.8150 C   0  0  0  0  0  0  0  0  0  0  0  0
   46.1590   34.8300   43.3380 C   0  0  0  0  0  0  0  0  0  0  0  0
   46.6420   33.7720   44.0910 N   0  0  0  0  0  0  0  0  0  0  0  0
   46.1600   33.4960   45.3080 C   0  0  0  0  0  0  0  0  0  0  0  0
   45.1710   34.2750   45.8250 N   0  0  0  0  0  0  0  0  0  0  0  0
   43.9060   35.9180   45.5290 H   0  0  0  0  0  0  0  0  0  0  0  0
   46.6580   32.6410   45.7320 H   0  0  0  0  0  0  0  0  0  0  0  0
   46.6780   35.0760   41.9400 C   0  0  1  0  0  0  0  0  0  0  0  0
   48.1940   35.4100   41.9810 C   0  0  0  0  0  0  0  0  0  0  0  0
   47.5630   34.1260   41.3670 C   0  0  2  0  0  0  0  0  0  0  0  0
   46.1000   35.8270   41.3760 H   0  0  0  0  0  0  0  0  0  0  0  0
   48.5730   36.1050   41.2270 H   0  0  0  0  0  0  0  0  0  0  0  0
   48.7450   35.2960   42.9080 H   0  0  0  0  0  0  0  0  0  0  0  0
   47.9230   33.2000   41.8450 H   0  0  0  0  0  0  0  0  0  0  0  0
   47.5780   34.0360   39.8600 C   0  0  0  0  0  0  0  0  0  0  0  0
   47.0090   34.7190   39.2110 H   0  0  0  0  0  0  0  0  0  0  0  0
   48.2420   33.1760   39.2700 O   0  0  0  0  0  0  0  0  0  0  0  0
   44.6660   36.7530   43.0670 N   0  0  0  0  0  0  0  0  0  0  0  0
   43.6700   36.6940   42.7260 H   0  0  0  0  0  0  0  0  0  0  0  0
   45.1180   37.6490   42.7800 H   0  0  0  0  0  0  0  0  0  0  0  0
  1  7  1  0  0  0  0
  1  6  1  0  0  0  0
  2  1  2  0  0  0  0
  3  2  1  0  0  0  0
  3  4  2  0  0  0  0
  4  5  1  0  0  0  0
  5  8  1  0  0  0  0
  5  6  2  0  0  0  0
  9 12  1  6  0  0  0
  9 10  1  0  0  0  0
  9  3  1  0  0  0  0
 10 14  1  0  0  0  0
 11 15  1  1  0  0  0
 11  9  1  0  0  0  0
 11 10  1  0  0  0  0
 13 10  1  0  0  0  0
 16 11  1  0  0  0  0
 17 16  1  0  0  0  0
 18 16  2  0  0  0  0
 19  2  1  0  0  0  0
 20 19  1  0  0  0  0
 21 19  1  0  0  0  0
M  END
>  <minimizedAffinity>
-4.15020037

>  <minimizedRMSD>
0.528619468

$$$$
