
 OpenBabel03252509233D

 21 22  0  0  1  0  0  0  0  0999 V2000
   44.6410   35.4260   45.1400 C   0  0  0  0  0  0  0  0  0  0  0  0
   45.1090   35.7120   43.8310 C   0  0  0  0  0  0  0  0  0  0  0  0
   46.0630   34.8460   43.3600 C   0  0  0  0  0  0  0  0  0  0  0  0
   46.5120   33.7860   44.1310 N   0  0  0  0  0  0  0  0  0  0  0  0
   46.0370   33.5590   45.3610 C   0  0  0  0  0  0  0  0  0  0  0  0
   45.0890   34.3900   45.8720 N   0  0  0  0  0  0  0  0  0  0  0  0
   43.8910   36.0780   45.5550 H   0  0  0  0  0  0  0  0  0  0  0  0
   46.5050   32.6940   45.7980 H   0  0  0  0  0  0  0  0  0  0  0  0
   46.5710   35.0380   41.9500 C   0  0  1  0  0  0  0  0  0  0  0  0
   48.1020   35.2980   41.9610 C   0  0  0  0  0  0  0  0  0  0  0  0
   47.3990   34.0340   41.3840 C   0  0  2  0  0  0  0  0  0  0  0  0
   46.0210   35.8040   41.3780 H   0  0  0  0  0  0  0  0  0  0  0  0
   48.5020   35.9580   41.1860 H   0  0  0  0  0  0  0  0  0  0  0  0
   48.6620   35.1770   42.8810 H   0  0  0  0  0  0  0  0  0  0  0  0
   47.7220   33.1010   41.8760 H   0  0  0  0  0  0  0  0  0  0  0  0
   47.3870   33.9120   39.8790 C   0  0  0  0  0  0  0  0  0  0  0  0
   47.2790   34.7780   39.2060 H   0  0  0  0  0  0  0  0  0  0  0  0
   47.4990   32.8170   39.3180 O   0  0  0  0  0  0  0  0  0  0  0  0
   44.6480   36.8230   43.0650 N   0  0  0  0  0  0  0  0  0  0  0  0
   43.6460   36.7990   42.7390 H   0  0  0  0  0  0  0  0  0  0  0  0
   45.1330   37.6930   42.7500 H   0  0  0  0  0  0  0  0  0  0  0  0
  1  7  1  0  0  0  0
  1  6  1  0  0  0  0
  2  1  2  0  0  0  0
  3  2  1  0  0  0  0
  3  4  2  0  0  0  0
  4  5  1  0  0  0  0
  5  8  1  0  0  0  0
  5  6  2  0  0  0  0
  9 12  1  6  0  0  0
  9 10  1  0  0  0  0
  9  3  1  0  0  0  0
 10 14  1  0  0  0  0
 11 15  1  1  0  0  0
 11  9  1  0  0  0  0
 11 10  1  0  0  0  0
 13 10  1  0  0  0  0
 16 11  1  0  0  0  0
 17 16  1  0  0  0  0
 18 16  2  0  0  0  0
 19  2  1  0  0  0  0
 20 19  1  0  0  0  0
 21 19  1  0  0  0  0
M  END
>  <minimizedAffinity>
-4.11624765

>  <minimizedRMSD>
0.0685128123

$$$$
