
 OpenBabel03252502023D

 28 30  0  0  0  0  0  0  0  0999 V2000
   37.5620   27.4390   40.7880 C   0  0  0  0  0  0  0  0  0  0  0  0
   36.7860   26.5580   40.1130 N   0  0  0  0  0  0  0  0  0  0  0  0
   36.7680   25.2470   40.3000 C   0  0  0  0  0  0  0  0  0  0  0  0
   37.5770   24.6900   41.2330 N   0  0  0  0  0  0  0  0  0  0  0  0
   38.3980   25.4660   41.9710 C   0  0  0  0  0  0  0  0  0  0  0  0
   39.2240   24.8990   42.9230 C   0  0  0  0  0  0  0  0  0  0  0  0
   40.0610   25.6750   43.6800 C   0  0  0  0  0  0  0  0  0  0  0  0
   40.0440   27.0280   43.4510 C   0  0  0  0  0  0  0  0  0  0  0  0
   39.2110   27.5560   42.4960 C   0  0  0  0  0  0  0  0  0  0  0  0
   38.3610   26.8230   41.7200 C   0  0  0  0  0  0  0  0  0  0  0  0
   36.1340   24.5840   39.7400 H   0  0  0  0  0  0  0  0  0  0  0  0
   39.2250   23.8270   43.0930 H   0  0  0  0  0  0  0  0  0  0  0  0
   40.7260   25.2830   44.4370 H   0  0  0  0  0  0  0  0  0  0  0  0
   40.6910   27.6860   44.0250 H   0  0  0  0  0  0  0  0  0  0  0  0
   39.2420   28.6420   42.3590 H   0  0  0  0  0  0  0  0  0  0  0  0
   36.2680   30.7780   41.0670 C   0  0  0  0  0  0  0  0  0  0  0  0
   37.1200   31.6070   40.3530 C   0  0  0  0  0  0  0  0  0  0  0  0
   38.1830   30.9990   39.7480 C   0  0  0  0  0  0  0  0  0  0  0  0
   38.3590   29.6870   39.8610 N   0  0  0  0  0  0  0  0  0  0  0  0
   37.5450   28.8940   40.5440 C   0  0  0  0  0  0  0  0  0  0  0  0
   36.5020   29.4730   41.1400 N   0  0  0  0  0  0  0  0  0  0  0  0
   35.4100   31.2640   41.5570 H   0  0  0  0  0  0  0  0  0  0  0  0
   36.8600   32.9890   40.2840 N   0  0  0  0  0  0  0  0  0  0  0  0
   36.9050   33.5140   39.3800 H   0  0  0  0  0  0  0  0  0  0  0  0
   36.6180   33.5140   41.1480 H   0  0  0  0  0  0  0  0  0  0  0  0
   39.1200   31.7630   38.9880 C   0  0  0  0  0  0  0  0  0  0  0  0
   39.3460   31.5570   37.9390 H   0  0  0  0  0  0  0  0  0  0  0  0
   39.8030   32.7400   39.3700 O   0  0  0  0  0  0  0  0  0  0  0  0
  1 10  1  0  0  0  0
  2  3  1  0  0  0  0
  2  1  2  0  0  0  0
  3  4  2  0  0  0  0
  4  5  1  0  0  0  0
  5  6  1  0  0  0  0
  6 12  1  0  0  0  0
  6  7  2  0  0  0  0
  7 13  1  0  0  0  0
  8  7  1  0  0  0  0
  8 14  1  0  0  0  0
  9  8  2  0  0  0  0
 10  5  2  0  0  0  0
 10  9  1  0  0  0  0
 11  3  1  0  0  0  0
 15  9  1  0  0  0  0
 16 21  1  0  0  0  0
 16 22  1  0  0  0  0
 17 16  2  0  0  0  0
 18 19  2  0  0  0  0
 18 17  1  0  0  0  0
 19 20  1  0  0  0  0
 20  1  1  0  0  0  0
 20 21  2  0  0  0  0
 23 17  1  0  0  0  0
 23 25  1  0  0  0  0
 24 23  1  0  0  0  0
 26 28  2  0  0  0  0
 26 18  1  0  0  0  0
 27 26  1  0  0  0  0
M  END
>  <minimizedAffinity>
-5.34631729

$$$$

 OpenBabel03252502023D

 28 30  0  0  0  0  0  0  0  0999 V2000
   38.4220   28.0840   41.9750 C   0  0  0  0  0  0  0  0  0  0  0  0
   39.1700   27.9120   43.0910 N   0  0  0  0  0  0  0  0  0  0  0  0
   39.4190   26.7520   43.6780 C   0  0  0  0  0  0  0  0  0  0  0  0
   38.9060   25.6110   43.1600 N   0  0  0  0  0  0  0  0  0  0  0  0
   38.1420   25.6540   42.0480 C   0  0  0  0  0  0  0  0  0  0  0  0
   37.6170   24.4910   41.5170 C   0  0  0  0  0  0  0  0  0  0  0  0
   36.8410   24.5200   40.3890 C   0  0  0  0  0  0  0  0  0  0  0  0
   36.6110   25.7450   39.8150 C   0  0  0  0  0  0  0  0  0  0  0  0
   37.1480   26.8800   40.3700 C   0  0  0  0  0  0  0  0  0  0  0  0
   37.9260   26.8990   41.4910 C   0  0  0  0  0  0  0  0  0  0  0  0
   40.0200   26.6610   44.5650 H   0  0  0  0  0  0  0  0  0  0  0  0
   37.8080   23.5290   41.9830 H   0  0  0  0  0  0  0  0  0  0  0  0
   36.4060   23.6410   39.9330 H   0  0  0  0  0  0  0  0  0  0  0  0
   36.0010   25.8210   38.9190 H   0  0  0  0  0  0  0  0  0  0  0  0
   36.9290   27.8270   39.8660 H   0  0  0  0  0  0  0  0  0  0  0  0
   36.5040   31.0280   41.2290 C   0  0  0  0  0  0  0  0  0  0  0  0
   37.2870   31.8300   40.4140 C   0  0  0  0  0  0  0  0  0  0  0  0
   38.5260   31.3440   40.1030 C   0  0  0  0  0  0  0  0  0  0  0  0
   38.9220   30.1670   40.5750 N   0  0  0  0  0  0  0  0  0  0  0  0
   38.1740   29.4000   41.3560 C   0  0  0  0  0  0  0  0  0  0  0  0
   36.9610   29.8610   41.6680 N   0  0  0  0  0  0  0  0  0  0  0  0
   35.5050   31.4160   41.4820 H   0  0  0  0  0  0  0  0  0  0  0  0
   36.7900   33.0650   39.9560 N   0  0  0  0  0  0  0  0  0  0  0  0
   36.8760   33.3580   38.9550 H   0  0  0  0  0  0  0  0  0  0  0  0
   36.3230   33.7140   40.6210 H   0  0  0  0  0  0  0  0  0  0  0  0
   39.4110   32.0920   39.2690 C   0  0  0  0  0  0  0  0  0  0  0  0
   39.9710   31.6470   38.4420 H   0  0  0  0  0  0  0  0  0  0  0  0
   39.6830   33.3120   39.3380 O   0  0  0  0  0  0  0  0  0  0  0  0
  1  2  1  0  0  0  0
  2  3  2  0  0  0  0
  3 11  1  0  0  0  0
  4  3  1  0  0  0  0
  5  4  2  0  0  0  0
  6 12  1  0  0  0  0
  6  5  1  0  0  0  0
  7  6  2  0  0  0  0
  8  9  2  0  0  0  0
  8  7  1  0  0  0  0
  9 10  1  0  0  0  0
 10  1  2  0  0  0  0
 10  5  1  0  0  0  0
 13  7  1  0  0  0  0
 14  8  1  0  0  0  0
 15  9  1  0  0  0  0
 16 22  1  0  0  0  0
 16 21  1  0  0  0  0
 17 16  2  0  0  0  0
 18 17  1  0  0  0  0
 18 19  2  0  0  0  0
 19 20  1  0  0  0  0
 20 21  2  0  0  0  0
 20  1  1  0  0  0  0
 23 17  1  0  0  0  0
 23 25  1  0  0  0  0
 24 23  1  0  0  0  0
 26 28  2  0  0  0  0
 26 18  1  0  0  0  0
 27 26  1  0  0  0  0
M  END
>  <minimizedAffinity>
-5.31087589

$$$$

 OpenBabel03252502023D

 28 30  0  0  0  0  0  0  0  0999 V2000
   37.3520   28.6620   40.9670 C   0  0  0  0  0  0  0  0  0  0  0  0
   37.5100   29.2580   42.1720 N   0  0  0  0  0  0  0  0  0  0  0  0
   37.4970   28.6400   43.3440 C   0  0  0  0  0  0  0  0  0  0  0  0
   37.3120   27.3000   43.3960 N   0  0  0  0  0  0  0  0  0  0  0  0
   37.1430   26.5930   42.2590 C   0  0  0  0  0  0  0  0  0  0  0  0
   36.9540   25.2250   42.3100 C   0  0  0  0  0  0  0  0  0  0  0  0
   36.7820   24.4960   41.1640 C   0  0  0  0  0  0  0  0  0  0  0  0
   36.8030   25.1790   39.9740 C   0  0  0  0  0  0  0  0  0  0  0  0
   36.9930   26.5380   39.9610 C   0  0  0  0  0  0  0  0  0  0  0  0
   37.1690   27.3050   41.0760 C   0  0  0  0  0  0  0  0  0  0  0  0
   37.6270   29.1550   44.2790 H   0  0  0  0  0  0  0  0  0  0  0  0
   36.9390   24.6990   43.2590 H   0  0  0  0  0  0  0  0  0  0  0  0
   36.6300   23.4240   41.1470 H   0  0  0  0  0  0  0  0  0  0  0  0
   36.6700   24.6450   39.0360 H   0  0  0  0  0  0  0  0  0  0  0  0
   37.0000   27.0270   38.9810 H   0  0  0  0  0  0  0  0  0  0  0  0
   38.3620   31.2790   38.7240 C   0  0  0  0  0  0  0  0  0  0  0  0
   37.7210   31.0520   37.5160 C   0  0  0  0  0  0  0  0  0  0  0  0
   36.9060   29.9570   37.4650 C   0  0  0  0  0  0  0  0  0  0  0  0
   36.7620   29.1770   38.5310 N   0  0  0  0  0  0  0  0  0  0  0  0
   37.3760   29.3930   39.6860 C   0  0  0  0  0  0  0  0  0  0  0  0
   38.1760   30.4590   39.7520 N   0  0  0  0  0  0  0  0  0  0  0  0
   39.0210   32.1600   38.7700 H   0  0  0  0  0  0  0  0  0  0  0  0
   37.9290   31.9290   36.4350 N   0  0  0  0  0  0  0  0  0  0  0  0
   37.1340   32.2970   35.8620 H   0  0  0  0  0  0  0  0  0  0  0  0
   38.8940   32.2270   36.1870 H   0  0  0  0  0  0  0  0  0  0  0  0
   36.1980   29.6340   36.2680 C   0  0  0  0  0  0  0  0  0  0  0  0
   35.1270   29.4150   36.2480 H   0  0  0  0  0  0  0  0  0  0  0  0
   36.6550   29.5510   35.1050 O   0  0  0  0  0  0  0  0  0  0  0  0
  1 10  2  0  0  0  0
  1  2  1  0  0  0  0
  2  3  2  0  0  0  0
  3  4  1  0  0  0  0
  3 11  1  0  0  0  0
  5  6  1  0  0  0  0
  5  4  2  0  0  0  0
  6 12  1  0  0  0  0
  7  6  2  0  0  0  0
  8  7  1  0  0  0  0
  9  8  2  0  0  0  0
  9 10  1  0  0  0  0
 10  5  1  0  0  0  0
 13  7  1  0  0  0  0
 14  8  1  0  0  0  0
 15  9  1  0  0  0  0
 16 22  1  0  0  0  0
 16 21  1  0  0  0  0
 17 16  2  0  0  0  0
 18 17  1  0  0  0  0
 18 19  2  0  0  0  0
 19 20  1  0  0  0  0
 20 21  2  0  0  0  0
 20  1  1  0  0  0  0
 23 17  1  0  0  0  0
 24 23  1  0  0  0  0
 25 23  1  0  0  0  0
 26 18  1  0  0  0  0
 27 26  1  0  0  0  0
 28 26  2  0  0  0  0
M  END
>  <minimizedAffinity>
-5.26312304

$$$$

 OpenBabel03252502023D

 28 30  0  0  0  0  0  0  0  0999 V2000
   39.3100   30.7870   40.4200 C   0  0  0  0  0  0  0  0  0  0  0  0
   39.6990   30.5770   41.7000 N   0  0  0  0  0  0  0  0  0  0  0  0
   38.9660   30.0060   42.6430 C   0  0  0  0  0  0  0  0  0  0  0  0
   37.7130   29.5790   42.3560 N   0  0  0  0  0  0  0  0  0  0  0  0
   37.2110   29.7330   41.1120 C   0  0  0  0  0  0  0  0  0  0  0  0
   35.9330   29.2980   40.8170 C   0  0  0  0  0  0  0  0  0  0  0  0
   35.4130   29.4480   39.5590 C   0  0  0  0  0  0  0  0  0  0  0  0
   36.2100   30.0450   38.6150 C   0  0  0  0  0  0  0  0  0  0  0  0
   37.4740   30.4650   38.9440 C   0  0  0  0  0  0  0  0  0  0  0  0
   38.0340   30.3360   40.1820 C   0  0  0  0  0  0  0  0  0  0  0  0
   39.3160   29.8590   43.6490 H   0  0  0  0  0  0  0  0  0  0  0  0
   35.3150   28.8280   41.5750 H   0  0  0  0  0  0  0  0  0  0  0  0
   34.4200   29.1260   39.2740 H   0  0  0  0  0  0  0  0  0  0  0  0
   35.8420   30.1870   37.6020 H   0  0  0  0  0  0  0  0  0  0  0  0
   38.0620   30.9340   38.1480 H   0  0  0  0  0  0  0  0  0  0  0  0
   40.8250   33.5570   38.7080 C   0  0  0  0  0  0  0  0  0  0  0  0
   41.6190   33.0300   37.7020 C   0  0  0  0  0  0  0  0  0  0  0  0
   41.6380   31.6680   37.6020 C   0  0  0  0  0  0  0  0  0  0  0  0
   40.9240   30.9240   38.4390 N   0  0  0  0  0  0  0  0  0  0  0  0
   40.1650   31.4270   39.4030 C   0  0  0  0  0  0  0  0  0  0  0  0
   40.1360   32.7570   39.5130 N   0  0  0  0  0  0  0  0  0  0  0  0
   40.8070   34.6550   38.7940 H   0  0  0  0  0  0  0  0  0  0  0  0
   42.3440   33.8910   36.8560 N   0  0  0  0  0  0  0  0  0  0  0  0
   42.3530   33.7660   35.8170 H   0  0  0  0  0  0  0  0  0  0  0  0
   42.8920   34.6760   37.2630 H   0  0  0  0  0  0  0  0  0  0  0  0
   42.4240   31.0250   36.5980 C   0  0  0  0  0  0  0  0  0  0  0  0
   42.0290   30.2490   35.9370 H   0  0  0  0  0  0  0  0  0  0  0  0
   43.6280   31.2260   36.3190 O   0  0  0  0  0  0  0  0  0  0  0  0
  1  2  1  0  0  0  0
  2  3  2  0  0  0  0
  3 11  1  0  0  0  0
  4  3  1  0  0  0  0
  5  4  2  0  0  0  0
  6  5  1  0  0  0  0
  6 12  1  0  0  0  0
  7  6  2  0  0  0  0
  8  9  2  0  0  0  0
  8  7  1  0  0  0  0
  9 10  1  0  0  0  0
 10  1  2  0  0  0  0
 10  5  1  0  0  0  0
 13  7  1  0  0  0  0
 14  8  1  0  0  0  0
 15  9  1  0  0  0  0
 16 22  1  0  0  0  0
 16 21  1  0  0  0  0
 17 16  2  0  0  0  0
 18 17  1  0  0  0  0
 18 19  2  0  0  0  0
 19 20  1  0  0  0  0
 20 21  2  0  0  0  0
 20  1  1  0  0  0  0
 23 25  1  0  0  0  0
 23 17  1  0  0  0  0
 24 23  1  0  0  0  0
 26 18  1  0  0  0  0
 27 26  1  0  0  0  0
 28 26  2  0  0  0  0
M  END
>  <minimizedAffinity>
-5.23093367

$$$$

 OpenBabel03252502023D

 28 30  0  0  0  0  0  0  0  0999 V2000
   38.0040   29.0870   41.1390 C   0  0  0  0  0  0  0  0  0  0  0  0
   38.0020   29.6120   42.3870 N   0  0  0  0  0  0  0  0  0  0  0  0
   37.7120   28.9540   43.4980 C   0  0  0  0  0  0  0  0  0  0  0  0
   37.3800   27.6430   43.4370 N   0  0  0  0  0  0  0  0  0  0  0  0
   37.3460   27.0060   42.2480 C   0  0  0  0  0  0  0  0  0  0  0  0
   37.0080   25.6670   42.1830 C   0  0  0  0  0  0  0  0  0  0  0  0
   36.9710   25.0090   40.9830 C   0  0  0  0  0  0  0  0  0  0  0  0
   37.2810   25.7320   39.8580 C   0  0  0  0  0  0  0  0  0  0  0  0
   37.6110   27.0600   39.9600 C   0  0  0  0  0  0  0  0  0  0  0  0
   37.6620   27.7570   41.1330 C   0  0  0  0  0  0  0  0  0  0  0  0
   37.7230   29.4130   44.4710 H   0  0  0  0  0  0  0  0  0  0  0  0
   36.7660   25.1090   43.0810 H   0  0  0  0  0  0  0  0  0  0  0  0
   36.7140   23.9640   40.8750 H   0  0  0  0  0  0  0  0  0  0  0  0
   37.2650   25.2550   38.8810 H   0  0  0  0  0  0  0  0  0  0  0  0
   37.8480   27.5830   39.0280 H   0  0  0  0  0  0  0  0  0  0  0  0
   37.3060   31.2410   38.3510 C   0  0  0  0  0  0  0  0  0  0  0  0
   38.4990   31.4250   37.6690 C   0  0  0  0  0  0  0  0  0  0  0  0
   39.5900   30.7840   38.1820 C   0  0  0  0  0  0  0  0  0  0  0  0
   39.4770   30.0370   39.2750 N   0  0  0  0  0  0  0  0  0  0  0  0
   38.3370   29.8610   39.9290 C   0  0  0  0  0  0  0  0  0  0  0  0
   37.2610   30.4810   39.4390 N   0  0  0  0  0  0  0  0  0  0  0  0
   36.4230   31.7560   37.9410 H   0  0  0  0  0  0  0  0  0  0  0  0
   38.5310   32.2340   36.5170 N   0  0  0  0  0  0  0  0  0  0  0  0
   39.0160   31.9280   35.6410 H   0  0  0  0  0  0  0  0  0  0  0  0
   38.0660   33.1640   36.5230 H   0  0  0  0  0  0  0  0  0  0  0  0
   40.8670   30.9080   37.5550 C   0  0  0  0  0  0  0  0  0  0  0  0
   41.5420   30.0620   37.4040 H   0  0  0  0  0  0  0  0  0  0  0  0
   41.4010   31.9440   37.0980 O   0  0  0  0  0  0  0  0  0  0  0  0
  1  2  1  0  0  0  0
  2  3  2  0  0  0  0
  3 11  1  0  0  0  0
  4  3  1  0  0  0  0
  5  4  2  0  0  0  0
  6  5  1  0  0  0  0
  6 12  1  0  0  0  0
  7  6  2  0  0  0  0
  8  9  2  0  0  0  0
  8  7  1  0  0  0  0
  9 10  1  0  0  0  0
 10  1  2  0  0  0  0
 10  5  1  0  0  0  0
 13  7  1  0  0  0  0
 14  8  1  0  0  0  0
 15  9  1  0  0  0  0
 16 21  1  0  0  0  0
 17 18  1  0  0  0  0
 17 16  2  0  0  0  0
 18 19  2  0  0  0  0
 19 20  1  0  0  0  0
 20  1  1  0  0  0  0
 21 20  2  0  0  0  0
 22 16  1  0  0  0  0
 23 25  1  0  0  0  0
 23 17  1  0  0  0  0
 24 23  1  0  0  0  0
 26 18  1  0  0  0  0
 27 26  1  0  0  0  0
 28 26  2  0  0  0  0
M  END
>  <minimizedAffinity>
-5.20596552

$$$$

 OpenBabel03252502023D

 28 30  0  0  0  0  0  0  0  0999 V2000
   36.4380   27.3210   39.2230 C   0  0  0  0  0  0  0  0  0  0  0  0
   35.8440   26.8180   38.1150 N   0  0  0  0  0  0  0  0  0  0  0  0
   35.5550   25.5420   37.9080 C   0  0  0  0  0  0  0  0  0  0  0  0
   35.8610   24.6210   38.8530 N   0  0  0  0  0  0  0  0  0  0  0  0
   36.4560   25.0000   40.0030 C   0  0  0  0  0  0  0  0  0  0  0  0
   36.7690   24.0630   40.9690 C   0  0  0  0  0  0  0  0  0  0  0  0
   37.3720   24.4340   42.1410 C   0  0  0  0  0  0  0  0  0  0  0  0
   37.6510   25.7670   42.3100 C   0  0  0  0  0  0  0  0  0  0  0  0
   37.3270   26.6710   41.3300 C   0  0  0  0  0  0  0  0  0  0  0  0
   36.7260   26.3470   40.1480 C   0  0  0  0  0  0  0  0  0  0  0  0
   35.0820   25.1870   37.0100 H   0  0  0  0  0  0  0  0  0  0  0  0
   36.5420   23.0120   40.8200 H   0  0  0  0  0  0  0  0  0  0  0  0
   37.6380   23.7420   42.9290 H   0  0  0  0  0  0  0  0  0  0  0  0
   38.1310   26.1120   43.2230 H   0  0  0  0  0  0  0  0  0  0  0  0
   37.5750   27.7200   41.5230 H   0  0  0  0  0  0  0  0  0  0  0  0
   35.9580   30.6020   40.6030 C   0  0  0  0  0  0  0  0  0  0  0  0
   36.9310   31.4220   40.0540 C   0  0  0  0  0  0  0  0  0  0  0  0
   37.7890   30.8290   39.1720 C   0  0  0  0  0  0  0  0  0  0  0  0
   37.6680   29.5380   38.8820 N   0  0  0  0  0  0  0  0  0  0  0  0
   36.7380   28.7530   39.4080 C   0  0  0  0  0  0  0  0  0  0  0  0
   35.8920   29.3180   40.2710 N   0  0  0  0  0  0  0  0  0  0  0  0
   35.2640   31.0750   41.3150 H   0  0  0  0  0  0  0  0  0  0  0  0
   36.9890   32.7820   40.4150 N   0  0  0  0  0  0  0  0  0  0  0  0
   37.0980   33.5390   39.7000 H   0  0  0  0  0  0  0  0  0  0  0  0
   36.9250   33.0550   41.4160 H   0  0  0  0  0  0  0  0  0  0  0  0
   38.8280   31.5860   38.5500 C   0  0  0  0  0  0  0  0  0  0  0  0
   39.0030   31.5840   37.4700 H   0  0  0  0  0  0  0  0  0  0  0  0
   39.6660   32.3370   39.0990 O   0  0  0  0  0  0  0  0  0  0  0  0
  1 20  1  0  0  0  0
  1 10  1  0  0  0  0
  2  1  2  0  0  0  0
  3  2  1  0  0  0  0
  3  4  2  0  0  0  0
  4  5  1  0  0  0  0
  5 10  2  0  0  0  0
  5  6  1  0  0  0  0
  6  7  2  0  0  0  0
  7  8  1  0  0  0  0
  7 13  1  0  0  0  0
  8 14  1  0  0  0  0
  9 15  1  0  0  0  0
  9  8  2  0  0  0  0
 10  9  1  0  0  0  0
 11  3  1  0  0  0  0
 12  6  1  0  0  0  0
 16 22  1  0  0  0  0
 17 23  1  0  0  0  0
 17 16  2  0  0  0  0
 18 17  1  0  0  0  0
 19 18  2  0  0  0  0
 19 20  1  0  0  0  0
 20 21  2  0  0  0  0
 21 16  1  0  0  0  0
 23 25  1  0  0  0  0
 24 23  1  0  0  0  0
 26 28  2  0  0  0  0
 26 18  1  0  0  0  0
 27 26  1  0  0  0  0
M  END
>  <minimizedAffinity>
-5.06908178

$$$$

 OpenBabel03252502023D

 28 30  0  0  0  0  0  0  0  0999 V2000
   39.3150   27.3630   42.3840 C   0  0  0  0  0  0  0  0  0  0  0  0
   40.2340   26.9170   43.2730 N   0  0  0  0  0  0  0  0  0  0  0  0
   40.3670   25.6630   43.6780 C   0  0  0  0  0  0  0  0  0  0  0  0
   39.5380   24.7080   43.1940 N   0  0  0  0  0  0  0  0  0  0  0  0
   38.5790   25.0300   42.3010 C   0  0  0  0  0  0  0  0  0  0  0  0
   37.7320   24.0570   41.8060 C   0  0  0  0  0  0  0  0  0  0  0  0
   36.7550   24.3700   40.8990 C   0  0  0  0  0  0  0  0  0  0  0  0
   36.6550   25.6810   40.5090 C   0  0  0  0  0  0  0  0  0  0  0  0
   37.5130   26.6220   41.0210 C   0  0  0  0  0  0  0  0  0  0  0  0
   38.5010   26.3560   41.9250 C   0  0  0  0  0  0  0  0  0  0  0  0
   41.1140   25.3530   44.3870 H   0  0  0  0  0  0  0  0  0  0  0  0
   37.8230   23.0230   42.1250 H   0  0  0  0  0  0  0  0  0  0  0  0
   36.0660   23.6480   40.4800 H   0  0  0  0  0  0  0  0  0  0  0  0
   35.8950   25.9810   39.7910 H   0  0  0  0  0  0  0  0  0  0  0  0
   37.3850   27.6510   40.6720 H   0  0  0  0  0  0  0  0  0  0  0  0
   39.9890   30.8860   42.5740 C   0  0  0  0  0  0  0  0  0  0  0  0
   39.2940   31.4910   41.5390 C   0  0  0  0  0  0  0  0  0  0  0  0
   38.5610   30.6600   40.7400 C   0  0  0  0  0  0  0  0  0  0  0  0
   38.5410   29.3520   40.9730 N   0  0  0  0  0  0  0  0  0  0  0  0
   39.2060   28.7720   41.9620 C   0  0  0  0  0  0  0  0  0  0  0  0
   39.9270   29.5710   42.7510 N   0  0  0  0  0  0  0  0  0  0  0  0
   40.5820   31.5520   43.2210 H   0  0  0  0  0  0  0  0  0  0  0  0
   39.3700   32.8860   41.3630 N   0  0  0  0  0  0  0  0  0  0  0  0
   38.5170   33.4680   41.1960 H   0  0  0  0  0  0  0  0  0  0  0  0
   40.2930   33.3630   41.3960 H   0  0  0  0  0  0  0  0  0  0  0  0
   37.8080   31.1830   39.6460 C   0  0  0  0  0  0  0  0  0  0  0  0
   38.0590   30.9840   38.6000 H   0  0  0  0  0  0  0  0  0  0  0  0
   36.7940   31.9160   39.6910 O   0  0  0  0  0  0  0  0  0  0  0  0
  1  2  1  0  0  0  0
  2  3  2  0  0  0  0
  3 11  1  0  0  0  0
  4  3  1  0  0  0  0
  5  4  2  0  0  0  0
  6 12  1  0  0  0  0
  6  5  1  0  0  0  0
  7  6  2  0  0  0  0
  8  7  1  0  0  0  0
  8  9  2  0  0  0  0
  9 10  1  0  0  0  0
 10  5  1  0  0  0  0
 10  1  2  0  0  0  0
 13  7  1  0  0  0  0
 14  8  1  0  0  0  0
 15  9  1  0  0  0  0
 16 21  1  0  0  0  0
 16 22  1  0  0  0  0
 17 16  2  0  0  0  0
 18 19  2  0  0  0  0
 18 17  1  0  0  0  0
 19 20  1  0  0  0  0
 20  1  1  0  0  0  0
 20 21  2  0  0  0  0
 23 25  1  0  0  0  0
 23 17  1  0  0  0  0
 24 23  1  0  0  0  0
 26 28  2  0  0  0  0
 26 18  1  0  0  0  0
 27 26  1  0  0  0  0
M  END
>  <minimizedAffinity>
-4.9146657

$$$$

 OpenBabel03252502023D

 28 30  0  0  0  0  0  0  0  0999 V2000
   38.0960   29.2130   42.0100 C   0  0  0  0  0  0  0  0  0  0  0  0
   37.7410   28.9150   43.2830 N   0  0  0  0  0  0  0  0  0  0  0  0
   37.1780   27.7840   43.6790 C   0  0  0  0  0  0  0  0  0  0  0  0
   36.9120   26.8110   42.7750 N   0  0  0  0  0  0  0  0  0  0  0  0
   37.2190   26.9920   41.4730 C   0  0  0  0  0  0  0  0  0  0  0  0
   36.9480   26.0010   40.5490 C   0  0  0  0  0  0  0  0  0  0  0  0
   37.2560   26.1710   39.2250 C   0  0  0  0  0  0  0  0  0  0  0  0
   37.8390   27.3590   38.8620 C   0  0  0  0  0  0  0  0  0  0  0  0
   38.0930   28.3210   39.8070 C   0  0  0  0  0  0  0  0  0  0  0  0
   37.8050   28.1960   41.1350 C   0  0  0  0  0  0  0  0  0  0  0  0
   36.9130   27.5890   44.7030 H   0  0  0  0  0  0  0  0  0  0  0  0
   36.4870   25.0670   40.8520 H   0  0  0  0  0  0  0  0  0  0  0  0
   37.0660   25.4280   38.4610 H   0  0  0  0  0  0  0  0  0  0  0  0
   38.1010   27.5420   37.8230 H   0  0  0  0  0  0  0  0  0  0  0  0
   38.5590   29.2470   39.4560 H   0  0  0  0  0  0  0  0  0  0  0  0
   40.8080   31.5410   41.6540 C   0  0  0  0  0  0  0  0  0  0  0  0
   40.2930   32.6790   41.0540 C   0  0  0  0  0  0  0  0  0  0  0  0
   38.9590   32.6530   40.7600 C   0  0  0  0  0  0  0  0  0  0  0  0
   38.2300   31.5790   41.0450 N   0  0  0  0  0  0  0  0  0  0  0  0
   38.7230   30.4890   41.6170 C   0  0  0  0  0  0  0  0  0  0  0  0
   40.0240   30.5000   41.9110 N   0  0  0  0  0  0  0  0  0  0  0  0
   41.8830   31.5570   41.8930 H   0  0  0  0  0  0  0  0  0  0  0  0
   41.1350   33.7750   40.7870 N   0  0  0  0  0  0  0  0  0  0  0  0
   40.8580   34.7560   41.0230 H   0  0  0  0  0  0  0  0  0  0  0  0
   42.0620   33.6190   40.3410 H   0  0  0  0  0  0  0  0  0  0  0  0
   38.3300   33.7760   40.1410 C   0  0  0  0  0  0  0  0  0  0  0  0
   38.7780   34.7730   40.1190 H   0  0  0  0  0  0  0  0  0  0  0  0
   37.2250   33.8100   39.5550 O   0  0  0  0  0  0  0  0  0  0  0  0
  1  2  1  0  0  0  0
  2  3  2  0  0  0  0
  3 11  1  0  0  0  0
  4  3  1  0  0  0  0
  5  4  2  0  0  0  0
  6 12  1  0  0  0  0
  6  5  1  0  0  0  0
  7  6  2  0  0  0  0
  8  7  1  0  0  0  0
  8  9  2  0  0  0  0
  9 10  1  0  0  0  0
 10  5  1  0  0  0  0
 10  1  2  0  0  0  0
 13  7  1  0  0  0  0
 14  8  1  0  0  0  0
 15  9  1  0  0  0  0
 16 22  1  0  0  0  0
 16 21  1  0  0  0  0
 17 16  2  0  0  0  0
 18 19  2  0  0  0  0
 18 17  1  0  0  0  0
 19 20  1  0  0  0  0
 20 21  2  0  0  0  0
 20  1  1  0  0  0  0
 23 24  1  0  0  0  0
 23 17  1  0  0  0  0
 25 23  1  0  0  0  0
 26 18  1  0  0  0  0
 27 26  1  0  0  0  0
 28 26  2  0  0  0  0
M  END
>  <minimizedAffinity>
-4.82871103

$$$$

 OpenBabel03252502023D

 28 30  0  0  0  0  0  0  0  0999 V2000
   40.3930   31.1910   38.3480 C   0  0  0  0  0  0  0  0  0  0  0  0
   40.9380   32.3930   38.0430 N   0  0  0  0  0  0  0  0  0  0  0  0
   41.9630   32.5880   37.2270 C   0  0  0  0  0  0  0  0  0  0  0  0
   42.5510   31.5290   36.6210 N   0  0  0  0  0  0  0  0  0  0  0  0
   42.0970   30.2790   36.8460 C   0  0  0  0  0  0  0  0  0  0  0  0
   42.6960   29.1970   36.2280 C   0  0  0  0  0  0  0  0  0  0  0  0
   42.2450   27.9230   36.4470 C   0  0  0  0  0  0  0  0  0  0  0  0
   41.1800   27.7700   37.3000 C   0  0  0  0  0  0  0  0  0  0  0  0
   40.6100   28.8670   37.8960 C   0  0  0  0  0  0  0  0  0  0  0  0
   41.0250   30.1540   37.7080 C   0  0  0  0  0  0  0  0  0  0  0  0
   42.3640   33.5620   37.0130 H   0  0  0  0  0  0  0  0  0  0  0  0
   43.5370   29.3350   35.5560 H   0  0  0  0  0  0  0  0  0  0  0  0
   42.6760   27.0430   35.9900 H   0  0  0  0  0  0  0  0  0  0  0  0
   40.7850   26.7790   37.5070 H   0  0  0  0  0  0  0  0  0  0  0  0
   39.7640   28.6820   38.5670 H   0  0  0  0  0  0  0  0  0  0  0  0
   36.9920   31.6050   39.4280 C   0  0  0  0  0  0  0  0  0  0  0  0
   36.8710   30.9630   40.6500 C   0  0  0  0  0  0  0  0  0  0  0  0
   38.0020   30.3630   41.1280 C   0  0  0  0  0  0  0  0  0  0  0  0
   39.1330   30.4110   40.4330 N   0  0  0  0  0  0  0  0  0  0  0  0
   39.2490   31.0250   39.2630 C   0  0  0  0  0  0  0  0  0  0  0  0
   38.1540   31.6160   38.7830 N   0  0  0  0  0  0  0  0  0  0  0  0
   36.0840   32.0900   39.0380 H   0  0  0  0  0  0  0  0  0  0  0  0
   35.6340   30.9590   41.3220 N   0  0  0  0  0  0  0  0  0  0  0  0
   35.5600   31.1750   42.3430 H   0  0  0  0  0  0  0  0  0  0  0  0
   34.7620   30.7360   40.8010 H   0  0  0  0  0  0  0  0  0  0  0  0
   37.9840   29.6740   42.3790 C   0  0  0  0  0  0  0  0  0  0  0  0
   38.7150   29.8570   43.1710 H   0  0  0  0  0  0  0  0  0  0  0  0
   37.1780   28.7960   42.7610 O   0  0  0  0  0  0  0  0  0  0  0  0
  1 20  1  0  0  0  0
  2  1  1  0  0  0  0
  3  2  2  0  0  0  0
  4  5  2  0  0  0  0
  4  3  1  0  0  0  0
  5 10  1  0  0  0  0
  6  7  2  0  0  0  0
  6  5  1  0  0  0  0
  7  8  1  0  0  0  0
  8 14  1  0  0  0  0
  8  9  2  0  0  0  0
  9 15  1  0  0  0  0
 10  9  1  0  0  0  0
 10  1  2  0  0  0  0
 11  3  1  0  0  0  0
 12  6  1  0  0  0  0
 13  7  1  0  0  0  0
 16 17  1  0  0  0  0
 17 18  2  0  0  0  0
 17 23  1  0  0  0  0
 18 26  1  0  0  0  0
 19 18  1  0  0  0  0
 20 19  2  0  0  0  0
 21 20  1  0  0  0  0
 21 16  2  0  0  0  0
 22 16  1  0  0  0  0
 23 24  1  0  0  0  0
 25 23  1  0  0  0  0
 26 28  2  0  0  0  0
 26 27  1  0  0  0  0
M  END
>  <minimizedAffinity>
-4.80184317

$$$$
