
 OpenBabel03252508353D

 25 26  0  0  0  0  0  0  0  0999 V2000
   47.2330   34.1070   40.0600 C   0  0  0  0  0  0  0  0  0  0  0  0
   46.1630   33.5200   40.7090 C   0  0  0  0  0  0  0  0  0  0  0  0
   45.3280   32.7170   39.9690 C   0  0  0  0  0  0  0  0  0  0  0  0
   45.5130   32.4790   38.6210 C   0  0  0  0  0  0  0  0  0  0  0  0
   46.5910   33.0800   38.0030 C   0  0  0  0  0  0  0  0  0  0  0  0
   47.4430   33.8880   38.7180 C   0  0  0  0  0  0  0  0  0  0  0  0
   44.4830   32.2570   40.4940 H   0  0  0  0  0  0  0  0  0  0  0  0
   44.8350   31.8490   38.0980 H   0  0  0  0  0  0  0  0  0  0  0  0
   46.7250   32.8840   36.9410 H   0  0  0  0  0  0  0  0  0  0  0  0
   44.8910   34.9170   43.9710 C   0  0  0  0  0  0  0  0  0  0  0  0
   45.0050   34.6700   42.5950 C   0  0  0  0  0  0  0  0  0  0  0  0
   46.0120   33.8020   42.1290 C   0  0  0  0  0  0  0  0  0  0  0  0
   46.8030   33.2710   43.0770 N   0  0  0  0  0  0  0  0  0  0  0  0
   46.6840   33.5140   44.3820 C   0  0  0  0  0  0  0  0  0  0  0  0
   45.7290   34.3370   44.8330 N   0  0  0  0  0  0  0  0  0  0  0  0
   43.8550   35.8020   44.3860 N   0  0  0  0  0  0  0  0  0  0  0  0
   44.3320   35.1360   41.9000 H   0  0  0  0  0  0  0  0  0  0  0  0
   47.3690   33.0380   45.0700 H   0  0  0  0  0  0  0  0  0  0  0  0
   43.8380   36.8140   44.6390 H   0  0  0  0  0  0  0  0  0  0  0  0
   43.0440   35.1160   44.3690 H   0  0  0  0  0  0  0  0  0  0  0  0
   48.5800   34.5200   38.0580 C   0  0  0  0  0  0  0  0  0  0  0  0
   49.0190   35.4270   38.4330 H   0  0  0  0  0  0  0  0  0  0  0  0
   49.0610   33.9840   37.0130 O   0  0  0  0  0  0  0  0  0  0  0  0
   48.9040   35.6380   41.3520 N   0  0  0  0  0  0  0  0  0  0  0  0
   48.1400   34.9530   40.7710 C   0  0  0  0  0  0  0  0  0  0  0  0
  1  2  1  0  0  0  0
  1 25  1  0  0  0  0
  2 12  1  0  0  0  0
  3  7  1  0  0  0  0
  3  2  2  0  0  0  0
  4  3  1  0  0  0  0
  5  4  2  0  0  0  0
  5  6  1  0  0  0  0
  6  1  2  0  0  0  0
  8  4  1  0  0  0  0
  9  5  1  0  0  0  0
 10 16  1  0  0  0  0
 10 15  1  0  0  0  0
 11 10  2  0  0  0  0
 12 11  1  0  0  0  0
 12 13  2  0  0  0  0
 13 14  1  0  0  0  0
 14 15  2  0  0  0  0
 14 18  1  0  0  0  0
 16 19  1  0  0  0  0
 17 11  1  0  0  0  0
 20 16  1  0  0  0  0
 21 22  1  0  0  0  0
 21  6  1  0  0  0  0
 23 21  2  0  0  0  0
 25 24  3  0  0  0  0
M  END
>  <minimizedAffinity>
-4.54071999

>  <minimizedRMSD>
0.932164192

$$$$
