
 OpenBabel03242522243D

 22 23  0  0  0  0  0  0  0  0999 V2000
   36.5640   30.9770   39.5680 Cl  0  0  0  0  0  0  0  0  0  0  0  0
   37.3230   30.2370   40.9690 C   0  0  0  0  0  0  0  0  0  0  0  0
   38.5580   30.6900   41.4010 C   0  0  0  0  0  0  0  0  0  0  0  0
   39.1240   30.0850   42.5080 C   0  0  0  0  0  0  0  0  0  0  0  0
   38.4740   29.0520   43.1640 C   0  0  0  0  0  0  0  0  0  0  0  0
   37.2380   28.6370   42.6870 C   0  0  0  0  0  0  0  0  0  0  0  0
   36.4260   27.3350   43.5220 Cl  0  0  0  0  0  0  0  0  0  0  0  0
   36.6390   29.2090   41.5960 C   0  0  0  0  0  0  0  0  0  0  0  0
   40.0810   30.4630   42.8130 H   0  0  0  0  0  0  0  0  0  0  0  0
   38.9390   28.5910   44.0310 H   0  0  0  0  0  0  0  0  0  0  0  0
   35.6750   28.8710   41.2400 H   0  0  0  0  0  0  0  0  0  0  0  0
   39.5950   34.1610   40.3010 C   0  0  0  0  0  0  0  0  0  0  0  0
   39.0060   33.1130   41.0270 C   0  0  0  0  0  0  0  0  0  0  0  0
   39.1660   31.7790   40.6520 C   0  0  0  0  0  0  0  0  0  0  0  0
   39.9240   31.5720   39.5460 N   0  0  0  0  0  0  0  0  0  0  0  0
   40.4870   32.5700   38.8490 C   0  0  0  0  0  0  0  0  0  0  0  0
   40.3220   33.8380   39.2250 N   0  0  0  0  0  0  0  0  0  0  0  0
   39.4610   35.1890   40.6060 H   0  0  0  0  0  0  0  0  0  0  0  0
   38.4130   33.3120   41.8990 H   0  0  0  0  0  0  0  0  0  0  0  0
   41.2870   32.2540   37.6710 C   0  0  0  0  0  0  0  0  0  0  0  0
   41.2930   31.2580   37.2490 H   0  0  0  0  0  0  0  0  0  0  0  0
   41.9910   33.1570   37.1230 O   0  0  0  0  0  0  0  0  0  0  0  0
  1  2  1  0  0  0  0
  2  3  2  0  0  0  0
  2  8  1  0  0  0  0
  3  4  1  0  0  0  0
  4  9  1  0  0  0  0
  4  5  2  0  0  0  0
  5 10  1  0  0  0  0
  6  5  1  0  0  0  0
  6  7  1  0  0  0  0
  8  6  2  0  0  0  0
 11  8  1  0  0  0  0
 12 18  1  0  0  0  0
 12 13  1  0  0  0  0
 13 19  1  0  0  0  0
 14 13  2  0  0  0  0
 14  3  1  0  0  0  0
 15 14  1  0  0  0  0
 16 17  1  0  0  0  0
 16 15  2  0  0  0  0
 17 12  2  0  0  0  0
 20 16  1  0  0  0  0
 21 20  1  0  0  0  0
 22 20  2  0  0  0  0
M  END
>  <minimizedAffinity>
-4.71444321

$$$$

 OpenBabel03242522243D

 22 23  0  0  0  0  0  0  0  0999 V2000
   38.3490   28.6100   38.8020 Cl  0  0  0  0  0  0  0  0  0  0  0  0
   37.8140   28.1450   40.4090 C   0  0  0  0  0  0  0  0  0  0  0  0
   37.6860   29.1080   41.3970 C   0  0  0  0  0  0  0  0  0  0  0  0
   37.2620   28.7040   42.6490 C   0  0  0  0  0  0  0  0  0  0  0  0
   36.9740   27.3730   42.9090 C   0  0  0  0  0  0  0  0  0  0  0  0
   37.1200   26.4510   41.8820 C   0  0  0  0  0  0  0  0  0  0  0  0
   36.7540   24.7770   42.2180 Cl  0  0  0  0  0  0  0  0  0  0  0  0
   37.5360   26.8060   40.6260 C   0  0  0  0  0  0  0  0  0  0  0  0
   37.1750   29.4770   43.3880 H   0  0  0  0  0  0  0  0  0  0  0  0
   36.6430   27.0810   43.9010 H   0  0  0  0  0  0  0  0  0  0  0  0
   37.6430   26.0720   39.8380 H   0  0  0  0  0  0  0  0  0  0  0  0
   37.3520   32.6970   40.2410 C   0  0  0  0  0  0  0  0  0  0  0  0
   37.0360   31.3740   40.5890 C   0  0  0  0  0  0  0  0  0  0  0  0
   38.0100   30.4790   41.0340 C   0  0  0  0  0  0  0  0  0  0  0  0
   39.2700   30.9760   41.1040 N   0  0  0  0  0  0  0  0  0  0  0  0
   39.5760   32.2390   40.7710 C   0  0  0  0  0  0  0  0  0  0  0  0
   38.6300   33.0780   40.3480 N   0  0  0  0  0  0  0  0  0  0  0  0
   36.5860   33.3770   39.8980 H   0  0  0  0  0  0  0  0  0  0  0  0
   36.0280   31.0120   40.5230 H   0  0  0  0  0  0  0  0  0  0  0  0
   40.9600   32.6890   40.8770 C   0  0  0  0  0  0  0  0  0  0  0  0
   41.6950   32.1160   41.4270 H   0  0  0  0  0  0  0  0  0  0  0  0
   41.3180   33.7700   40.3160 O   0  0  0  0  0  0  0  0  0  0  0  0
  1  2  1  0  0  0  0
  2  8  2  0  0  0  0
  2  3  1  0  0  0  0
  3  4  2  0  0  0  0
  4  5  1  0  0  0  0
  4  9  1  0  0  0  0
  5 10  1  0  0  0  0
  6  7  1  0  0  0  0
  6  5  2  0  0  0  0
  8  6  1  0  0  0  0
 11  8  1  0  0  0  0
 12 17  2  0  0  0  0
 12 13  1  0  0  0  0
 13 14  2  0  0  0  0
 14 15  1  0  0  0  0
 14  3  1  0  0  0  0
 16 20  1  0  0  0  0
 16 15  2  0  0  0  0
 17 16  1  0  0  0  0
 18 12  1  0  0  0  0
 19 13  1  0  0  0  0
 20 21  1  0  0  0  0
 22 20  2  0  0  0  0
M  END
>  <minimizedAffinity>
-4.39154863

$$$$

 OpenBabel03242522243D

 22 23  0  0  0  0  0  0  0  0999 V2000
   37.6890   26.5230   39.4590 Cl  0  0  0  0  0  0  0  0  0  0  0  0
   36.2420   27.4640   39.1370 C   0  0  0  0  0  0  0  0  0  0  0  0
   35.8460   28.4450   40.0320 C   0  0  0  0  0  0  0  0  0  0  0  0
   34.7020   29.1660   39.7440 C   0  0  0  0  0  0  0  0  0  0  0  0
   33.9720   28.9140   38.5940 C   0  0  0  0  0  0  0  0  0  0  0  0
   34.4150   27.9190   37.7320 C   0  0  0  0  0  0  0  0  0  0  0  0
   33.4880   27.6090   36.2840 Cl  0  0  0  0  0  0  0  0  0  0  0  0
   35.5420   27.1810   37.9760 C   0  0  0  0  0  0  0  0  0  0  0  0
   34.4270   29.9160   40.4600 H   0  0  0  0  0  0  0  0  0  0  0  0
   33.0760   29.4940   38.3900 H   0  0  0  0  0  0  0  0  0  0  0  0
   35.8710   26.4100   37.2920 H   0  0  0  0  0  0  0  0  0  0  0  0
   37.2700   28.1060   43.5230 C   0  0  0  0  0  0  0  0  0  0  0  0
   36.4690   27.9140   42.3860 C   0  0  0  0  0  0  0  0  0  0  0  0
   36.6730   28.6400   41.2130 C   0  0  0  0  0  0  0  0  0  0  0  0
   37.6910   29.5360   41.2520 N   0  0  0  0  0  0  0  0  0  0  0  0
   38.4580   29.7230   42.3370 C   0  0  0  0  0  0  0  0  0  0  0  0
   38.2460   29.0180   43.4470 N   0  0  0  0  0  0  0  0  0  0  0  0
   37.0980   27.5350   44.4240 H   0  0  0  0  0  0  0  0  0  0  0  0
   35.6710   27.1960   42.3880 H   0  0  0  0  0  0  0  0  0  0  0  0
   39.5320   30.7100   42.2880 C   0  0  0  0  0  0  0  0  0  0  0  0
   40.4890   30.5190   42.7550 H   0  0  0  0  0  0  0  0  0  0  0  0
   39.3500   31.8140   41.6890 O   0  0  0  0  0  0  0  0  0  0  0  0
  2  1  1  0  0  0  0
  2  3  1  0  0  0  0
  3 14  1  0  0  0  0
  4  3  2  0  0  0  0
  4  9  1  0  0  0  0
  5  4  1  0  0  0  0
  6  8  1  0  0  0  0
  6  5  2  0  0  0  0
  7  6  1  0  0  0  0
  8  2  2  0  0  0  0
 10  5  1  0  0  0  0
 11  8  1  0  0  0  0
 12 18  1  0  0  0  0
 13 19  1  0  0  0  0
 13 12  2  0  0  0  0
 14 15  2  0  0  0  0
 14 13  1  0  0  0  0
 15 16  1  0  0  0  0
 16 17  2  0  0  0  0
 17 12  1  0  0  0  0
 20 16  1  0  0  0  0
 20 21  1  0  0  0  0
 22 20  2  0  0  0  0
M  END
>  <minimizedAffinity>
-4.33363247

$$$$

 OpenBabel03242522243D

 22 23  0  0  0  0  0  0  0  0999 V2000
   37.9320   27.4960   39.4290 Cl  0  0  0  0  0  0  0  0  0  0  0  0
   38.4520   27.2600   41.0900 C   0  0  0  0  0  0  0  0  0  0  0  0
   38.4670   28.3340   41.9650 C   0  0  0  0  0  0  0  0  0  0  0  0
   38.8820   28.1100   43.2650 C   0  0  0  0  0  0  0  0  0  0  0  0
   39.2730   26.8460   43.6800 C   0  0  0  0  0  0  0  0  0  0  0  0
   39.2380   25.8070   42.7610 C   0  0  0  0  0  0  0  0  0  0  0  0
   39.7310   24.2180   43.2930 Cl  0  0  0  0  0  0  0  0  0  0  0  0
   38.8340   25.9820   41.4640 C   0  0  0  0  0  0  0  0  0  0  0  0
   38.8810   28.9650   43.9130 H   0  0  0  0  0  0  0  0  0  0  0  0
   39.5950   26.6960   44.7060 H   0  0  0  0  0  0  0  0  0  0  0  0
   38.8130   25.1580   40.7630 H   0  0  0  0  0  0  0  0  0  0  0  0
   36.2870   31.2330   40.8840 C   0  0  0  0  0  0  0  0  0  0  0  0
   36.6950   29.9870   41.3880 C   0  0  0  0  0  0  0  0  0  0  0  0
   38.0400   29.6230   41.4430 C   0  0  0  0  0  0  0  0  0  0  0  0
   38.9150   30.5490   40.9780 N   0  0  0  0  0  0  0  0  0  0  0  0
   38.5290   31.7400   40.4940 C   0  0  0  0  0  0  0  0  0  0  0  0
   37.2380   32.0680   40.4510 N   0  0  0  0  0  0  0  0  0  0  0  0
   35.2400   31.4990   40.8480 H   0  0  0  0  0  0  0  0  0  0  0  0
   35.9760   29.2760   41.7490 H   0  0  0  0  0  0  0  0  0  0  0  0
   39.5400   32.6760   40.0140 C   0  0  0  0  0  0  0  0  0  0  0  0
   40.4740   32.3260   39.5950 H   0  0  0  0  0  0  0  0  0  0  0  0
   39.3280   33.9260   40.0850 O   0  0  0  0  0  0  0  0  0  0  0  0
  1  2  1  0  0  0  0
  2  8  2  0  0  0  0
  2  3  1  0  0  0  0
  3  4  2  0  0  0  0
  4  5  1  0  0  0  0
  4  9  1  0  0  0  0
  5 10  1  0  0  0  0
  6  7  1  0  0  0  0
  6  5  2  0  0  0  0
  8  6  1  0  0  0  0
 11  8  1  0  0  0  0
 12 13  1  0  0  0  0
 13 14  2  0  0  0  0
 13 19  1  0  0  0  0
 14  3  1  0  0  0  0
 15 14  1  0  0  0  0
 16 15  2  0  0  0  0
 17 16  1  0  0  0  0
 17 12  2  0  0  0  0
 18 12  1  0  0  0  0
 20 22  2  0  0  0  0
 20 16  1  0  0  0  0
 21 20  1  0  0  0  0
M  END
>  <minimizedAffinity>
-4.32559347

$$$$

 OpenBabel03242522243D

 22 23  0  0  0  0  0  0  0  0999 V2000
   39.2490   28.2740   39.3010 Cl  0  0  0  0  0  0  0  0  0  0  0  0
   38.4010   27.8660   40.7840 C   0  0  0  0  0  0  0  0  0  0  0  0
   38.2390   28.8250   41.7700 C   0  0  0  0  0  0  0  0  0  0  0  0
   37.5650   28.4680   42.9230 C   0  0  0  0  0  0  0  0  0  0  0  0
   37.0670   27.1850   43.0880 C   0  0  0  0  0  0  0  0  0  0  0  0
   37.2590   26.2630   42.0680 C   0  0  0  0  0  0  0  0  0  0  0  0
   36.6270   24.6490   42.2840 Cl  0  0  0  0  0  0  0  0  0  0  0  0
   37.9190   26.5740   40.9090 C   0  0  0  0  0  0  0  0  0  0  0  0
   37.4600   29.2370   43.6640 H   0  0  0  0  0  0  0  0  0  0  0  0
   36.5430   26.9280   44.0040 H   0  0  0  0  0  0  0  0  0  0  0  0
   38.0570   25.8410   40.1240 H   0  0  0  0  0  0  0  0  0  0  0  0
   40.6210   31.7650   41.6450 C   0  0  0  0  0  0  0  0  0  0  0  0
   40.0890   30.4900   41.8970 C   0  0  0  0  0  0  0  0  0  0  0  0
   38.7940   30.1450   41.5110 C   0  0  0  0  0  0  0  0  0  0  0  0
   38.0940   31.1220   40.8820 N   0  0  0  0  0  0  0  0  0  0  0  0
   38.5980   32.3420   40.6400 C   0  0  0  0  0  0  0  0  0  0  0  0
   39.8380   32.6500   41.0170 N   0  0  0  0  0  0  0  0  0  0  0  0
   41.6260   32.0150   41.9510 H   0  0  0  0  0  0  0  0  0  0  0  0
   40.6710   29.7390   42.3970 H   0  0  0  0  0  0  0  0  0  0  0  0
   37.7720   33.3310   39.9570 C   0  0  0  0  0  0  0  0  0  0  0  0
   37.7730   34.3690   40.2610 H   0  0  0  0  0  0  0  0  0  0  0  0
   37.0350   32.9770   38.9860 O   0  0  0  0  0  0  0  0  0  0  0  0
  1  2  1  0  0  0  0
  2  8  2  0  0  0  0
  2  3  1  0  0  0  0
  3  4  2  0  0  0  0
  4  5  1  0  0  0  0
  4  9  1  0  0  0  0
  5 10  1  0  0  0  0
  6  7  1  0  0  0  0
  6  5  2  0  0  0  0
  8  6  1  0  0  0  0
 11  8  1  0  0  0  0
 12 13  1  0  0  0  0
 12 18  1  0  0  0  0
 13 19  1  0  0  0  0
 14  3  1  0  0  0  0
 14 13  2  0  0  0  0
 15 14  1  0  0  0  0
 16 15  2  0  0  0  0
 16 17  1  0  0  0  0
 17 12  2  0  0  0  0
 20 21  1  0  0  0  0
 20 16  1  0  0  0  0
 22 20  2  0  0  0  0
M  END
>  <minimizedAffinity>
-4.32123661

$$$$

 OpenBabel03242522243D

 22 23  0  0  0  0  0  0  0  0999 V2000
   38.7450   29.7310   42.9680 Cl  0  0  0  0  0  0  0  0  0  0  0  0
   37.9790   28.5580   41.9090 C   0  0  0  0  0  0  0  0  0  0  0  0
   37.6070   28.9270   40.6270 C   0  0  0  0  0  0  0  0  0  0  0  0
   37.0080   27.9770   39.8220 C   0  0  0  0  0  0  0  0  0  0  0  0
   36.7840   26.6890   40.2860 C   0  0  0  0  0  0  0  0  0  0  0  0
   37.1770   26.3740   41.5790 C   0  0  0  0  0  0  0  0  0  0  0  0
   36.8930   24.7490   42.1550 Cl  0  0  0  0  0  0  0  0  0  0  0  0
   37.7750   27.2830   42.4110 C   0  0  0  0  0  0  0  0  0  0  0  0
   36.7330   28.3000   38.8370 H   0  0  0  0  0  0  0  0  0  0  0  0
   36.3110   25.9600   39.6350 H   0  0  0  0  0  0  0  0  0  0  0  0
   38.0740   27.0170   43.4160 H   0  0  0  0  0  0  0  0  0  0  0  0
   37.1970   32.6330   39.9710 C   0  0  0  0  0  0  0  0  0  0  0  0
   36.9290   31.3110   40.3600 C   0  0  0  0  0  0  0  0  0  0  0  0
   37.8800   30.2990   40.2250 C   0  0  0  0  0  0  0  0  0  0  0  0
   39.0690   30.6820   39.6970 N   0  0  0  0  0  0  0  0  0  0  0  0
   39.3280   31.9450   39.3230 C   0  0  0  0  0  0  0  0  0  0  0  0
   38.4060   32.8960   39.4600 N   0  0  0  0  0  0  0  0  0  0  0  0
   36.4490   33.4050   40.0810 H   0  0  0  0  0  0  0  0  0  0  0  0
   35.9770   31.0400   40.7750 H   0  0  0  0  0  0  0  0  0  0  0  0
   40.6360   32.2670   38.7630 C   0  0  0  0  0  0  0  0  0  0  0  0
   41.4890   32.4540   39.4020 H   0  0  0  0  0  0  0  0  0  0  0  0
   40.7870   32.3320   37.5040 O   0  0  0  0  0  0  0  0  0  0  0  0
  2  8  1  0  0  0  0
  2  1  1  0  0  0  0
  3  2  2  0  0  0  0
  4  5  2  0  0  0  0
  4  3  1  0  0  0  0
  5  6  1  0  0  0  0
  6  7  1  0  0  0  0
  6  8  2  0  0  0  0
  8 11  1  0  0  0  0
  9  4  1  0  0  0  0
 10  5  1  0  0  0  0
 12 18  1  0  0  0  0
 12 13  1  0  0  0  0
 13 19  1  0  0  0  0
 14 13  2  0  0  0  0
 14  3  1  0  0  0  0
 15 14  1  0  0  0  0
 16 17  1  0  0  0  0
 16 15  2  0  0  0  0
 17 12  2  0  0  0  0
 20 16  1  0  0  0  0
 20 21  1  0  0  0  0
 22 20  2  0  0  0  0
M  END
>  <minimizedAffinity>
-4.3171196

$$$$

 OpenBabel03242522243D

 22 23  0  0  0  0  0  0  0  0999 V2000
   40.1820   28.5100   39.7110 Cl  0  0  0  0  0  0  0  0  0  0  0  0
   38.8210   29.4770   40.2550 C   0  0  0  0  0  0  0  0  0  0  0  0
   38.0840   29.0710   41.3550 C   0  0  0  0  0  0  0  0  0  0  0  0
   37.0200   29.8590   41.7540 C   0  0  0  0  0  0  0  0  0  0  0  0
   36.6990   31.0220   41.0710 C   0  0  0  0  0  0  0  0  0  0  0  0
   37.4720   31.3800   39.9740 C   0  0  0  0  0  0  0  0  0  0  0  0
   37.0610   32.8470   39.1200 Cl  0  0  0  0  0  0  0  0  0  0  0  0
   38.5350   30.6310   39.5450 C   0  0  0  0  0  0  0  0  0  0  0  0
   36.4730   29.5120   42.6090 H   0  0  0  0  0  0  0  0  0  0  0  0
   35.8580   31.6230   41.4030 H   0  0  0  0  0  0  0  0  0  0  0  0
   39.1250   30.9290   38.6880 H   0  0  0  0  0  0  0  0  0  0  0  0
   39.8190   26.6360   43.6760 C   0  0  0  0  0  0  0  0  0  0  0  0
   39.4270   27.8280   43.0460 C   0  0  0  0  0  0  0  0  0  0  0  0
   38.4920   27.8380   42.0110 C   0  0  0  0  0  0  0  0  0  0  0  0
   37.9960   26.6250   41.6610 N   0  0  0  0  0  0  0  0  0  0  0  0
   38.3680   25.4840   42.2610 C   0  0  0  0  0  0  0  0  0  0  0  0
   39.2630   25.4970   43.2480 N   0  0  0  0  0  0  0  0  0  0  0  0
   40.5450   26.6460   44.4760 H   0  0  0  0  0  0  0  0  0  0  0  0
   39.8400   28.7720   43.3470 H   0  0  0  0  0  0  0  0  0  0  0  0
   37.7810   24.2230   41.8200 C   0  0  0  0  0  0  0  0  0  0  0  0
   38.3740   23.3210   41.7560 H   0  0  0  0  0  0  0  0  0  0  0  0
   36.5530   24.1750   41.5040 O   0  0  0  0  0  0  0  0  0  0  0  0
  1  2  1  0  0  0  0
  2  3  1  0  0  0  0
  3  4  2  0  0  0  0
  3 14  1  0  0  0  0
  4  9  1  0  0  0  0
  5 10  1  0  0  0  0
  5  4  1  0  0  0  0
  6  5  2  0  0  0  0
  7  6  1  0  0  0  0
  8  6  1  0  0  0  0
  8  2  2  0  0  0  0
 11  8  1  0  0  0  0
 12 18  1  0  0  0  0
 13 19  1  0  0  0  0
 13 12  2  0  0  0  0
 14 13  1  0  0  0  0
 15 14  2  0  0  0  0
 15 16  1  0  0  0  0
 16 17  2  0  0  0  0
 17 12  1  0  0  0  0
 20 16  1  0  0  0  0
 21 20  1  0  0  0  0
 22 20  2  0  0  0  0
M  END
>  <minimizedAffinity>
-4.19809008

$$$$

 OpenBabel03242522243D

 22 23  0  0  0  0  0  0  0  0999 V2000
   39.3930   29.9660   37.9770 Cl  0  0  0  0  0  0  0  0  0  0  0  0
   40.0090   31.5260   38.4990 C   0  0  0  0  0  0  0  0  0  0  0  0
   39.5300   32.1000   39.6650 C   0  0  0  0  0  0  0  0  0  0  0  0
   40.0390   33.3280   40.0450 C   0  0  0  0  0  0  0  0  0  0  0  0
   41.0020   33.9670   39.2780 C   0  0  0  0  0  0  0  0  0  0  0  0
   41.4460   33.3460   38.1190 C   0  0  0  0  0  0  0  0  0  0  0  0
   42.6590   34.1580   37.1610 Cl  0  0  0  0  0  0  0  0  0  0  0  0
   40.9700   32.1300   37.7050 C   0  0  0  0  0  0  0  0  0  0  0  0
   39.6440   33.7400   40.9520 H   0  0  0  0  0  0  0  0  0  0  0  0
   41.3860   34.9310   39.5970 H   0  0  0  0  0  0  0  0  0  0  0  0
   41.3290   31.6620   36.7980 H   0  0  0  0  0  0  0  0  0  0  0  0
   36.1870   30.8040   40.8790 C   0  0  0  0  0  0  0  0  0  0  0  0
   37.1570   31.5230   40.1620 C   0  0  0  0  0  0  0  0  0  0  0  0
   38.5210   31.3580   40.4050 C   0  0  0  0  0  0  0  0  0  0  0  0
   38.8360   30.4630   41.3750 N   0  0  0  0  0  0  0  0  0  0  0  0
   37.9120   29.7750   42.0620 C   0  0  0  0  0  0  0  0  0  0  0  0
   36.6140   29.9470   41.8140 N   0  0  0  0  0  0  0  0  0  0  0  0
   35.1340   30.9440   40.6780 H   0  0  0  0  0  0  0  0  0  0  0  0
   36.8740   32.2240   39.4010 H   0  0  0  0  0  0  0  0  0  0  0  0
   38.3430   28.8320   43.0880 C   0  0  0  0  0  0  0  0  0  0  0  0
   39.1160   29.0910   43.7990 H   0  0  0  0  0  0  0  0  0  0  0  0
   37.8060   27.6830   43.1570 O   0  0  0  0  0  0  0  0  0  0  0  0
  1  2  1  0  0  0  0
  2  3  1  0  0  0  0
  3  4  2  0  0  0  0
  3 14  1  0  0  0  0
  4  9  1  0  0  0  0
  5 10  1  0  0  0  0
  5  4  1  0  0  0  0
  6  5  2  0  0  0  0
  7  6  1  0  0  0  0
  8  6  1  0  0  0  0
  8  2  2  0  0  0  0
 11  8  1  0  0  0  0
 12 17  1  0  0  0  0
 13 14  1  0  0  0  0
 13 12  2  0  0  0  0
 14 15  2  0  0  0  0
 15 16  1  0  0  0  0
 16 20  1  0  0  0  0
 17 16  2  0  0  0  0
 18 12  1  0  0  0  0
 19 13  1  0  0  0  0
 20 22  2  0  0  0  0
 20 21  1  0  0  0  0
M  END
>  <minimizedAffinity>
-4.17302179

$$$$

 OpenBabel03242522243D

 22 23  0  0  0  0  0  0  0  0999 V2000
   35.4150   29.3220   39.7950 Cl  0  0  0  0  0  0  0  0  0  0  0  0
   36.7430   30.3440   40.3210 C   0  0  0  0  0  0  0  0  0  0  0  0
   37.7520   29.8120   41.1060 C   0  0  0  0  0  0  0  0  0  0  0  0
   38.7810   30.6460   41.5000 C   0  0  0  0  0  0  0  0  0  0  0  0
   38.8010   31.9790   41.1210 C   0  0  0  0  0  0  0  0  0  0  0  0
   37.7640   32.4600   40.3340 C   0  0  0  0  0  0  0  0  0  0  0  0
   37.7980   34.1410   39.8600 Cl  0  0  0  0  0  0  0  0  0  0  0  0
   36.7250   31.6700   39.9200 C   0  0  0  0  0  0  0  0  0  0  0  0
   39.5440   30.1980   42.1070 H   0  0  0  0  0  0  0  0  0  0  0  0
   39.6200   32.6160   41.4440 H   0  0  0  0  0  0  0  0  0  0  0  0
   35.9260   32.0630   39.3060 H   0  0  0  0  0  0  0  0  0  0  0  0
   36.8730   26.6130   42.9300 C   0  0  0  0  0  0  0  0  0  0  0  0
   36.9700   27.9730   42.5960 C   0  0  0  0  0  0  0  0  0  0  0  0
   37.6490   28.4030   41.4560 C   0  0  0  0  0  0  0  0  0  0  0  0
   38.2020   27.4200   40.7020 N   0  0  0  0  0  0  0  0  0  0  0  0
   38.1120   26.1190   41.0170 C   0  0  0  0  0  0  0  0  0  0  0  0
   37.4590   25.7300   42.1120 N   0  0  0  0  0  0  0  0  0  0  0  0
   36.3440   26.2970   43.8170 H   0  0  0  0  0  0  0  0  0  0  0  0
   36.5210   28.7260   43.2150 H   0  0  0  0  0  0  0  0  0  0  0  0
   38.7380   25.1300   40.1470 C   0  0  0  0  0  0  0  0  0  0  0  0
   39.2320   25.4230   39.2300 H   0  0  0  0  0  0  0  0  0  0  0  0
   38.7090   23.9010   40.4630 O   0  0  0  0  0  0  0  0  0  0  0  0
  1  2  1  0  0  0  0
  2  3  1  0  0  0  0
  3 14  1  0  0  0  0
  3  4  2  0  0  0  0
  4  9  1  0  0  0  0
  5 10  1  0  0  0  0
  5  4  1  0  0  0  0
  6  5  2  0  0  0  0
  7  6  1  0  0  0  0
  8  2  2  0  0  0  0
  8  6  1  0  0  0  0
 11  8  1  0  0  0  0
 12 18  1  0  0  0  0
 13 12  1  0  0  0  0
 13 19  1  0  0  0  0
 14 13  2  0  0  0  0
 15 16  2  0  0  0  0
 15 14  1  0  0  0  0
 16 17  1  0  0  0  0
 17 12  2  0  0  0  0
 20 22  2  0  0  0  0
 20 16  1  0  0  0  0
 21 20  1  0  0  0  0
M  END
>  <minimizedAffinity>
-4.11386681

$$$$
