
 OpenBabel03242513503D

 25 26  0  0  1  0  0  0  0  0999 V2000
   37.5290   28.7970   41.4480 C   0  0  2  0  0  0  0  0  0  0  0  0
   36.2240   28.1620   41.8190 C   0  0  0  0  0  0  0  0  0  0  0  0
   36.6650   27.3310   43.0260 C   0  0  0  0  0  0  0  0  0  0  0  0
   37.7610   28.1250   43.6780 C   0  0  0  0  0  0  0  0  0  0  0  0
   37.9600   29.3560   42.8060 C   0  0  1  0  0  0  0  0  0  0  0  0
   38.2580   28.0170   41.1440 H   0  0  0  0  0  0  0  0  0  0  0  0
   35.8210   27.5210   41.0080 H   0  0  0  0  0  0  0  0  0  0  0  0
   35.5010   28.9590   42.1310 H   0  0  0  0  0  0  0  0  0  0  0  0
   36.9730   26.3280   42.6900 H   0  0  0  0  0  0  0  0  0  0  0  0
   35.7660   27.2860   43.6790 H   0  0  0  0  0  0  0  0  0  0  0  0
   37.4250   28.5100   44.6620 H   0  0  0  0  0  0  0  0  0  0  0  0
   38.6500   27.4980   43.7200 H   0  0  0  0  0  0  0  0  0  0  0  0
   37.3020   30.1830   43.0960 H   0  0  0  0  0  0  0  0  0  0  0  0
   36.8480   31.9350   39.4880 C   0  0  0  0  0  0  0  0  0  0  0  0
   36.8150   31.0440   40.5670 C   0  0  0  0  0  0  0  0  0  0  0  0
   37.4620   29.8270   40.4110 C   0  0  0  0  0  0  0  0  0  0  0  0
   38.0850   29.5740   39.2240 N   0  0  0  0  0  0  0  0  0  0  0  0
   38.1070   30.4430   38.1970 C   0  0  0  0  0  0  0  0  0  0  0  0
   37.4840   31.6310   38.3320 N   0  0  0  0  0  0  0  0  0  0  0  0
   36.3420   32.8980   39.5990 H   0  0  0  0  0  0  0  0  0  0  0  0
   36.3180   31.2560   41.4990 H   0  0  0  0  0  0  0  0  0  0  0  0
   38.6120   30.2090   37.2690 H   0  0  0  0  0  0  0  0  0  0  0  0
   39.3860   29.7350   42.8270 C   0  0  0  0  0  0  0  0  0  0  0  0
   40.1110   28.9350   42.8860 H   0  0  0  0  0  0  0  0  0  0  0  0
   39.8000   30.8860   42.7820 O   0  0  0  0  0  0  0  0  0  0  0  0
  1  6  1  6  0  0  0
  1  2  1  0  0  0  0
  1  5  1  0  0  0  0
  2  8  1  0  0  0  0
  2  3  1  0  0  0  0
  3  4  1  0  0  0  0
  3 10  1  0  0  0  0
  4 12  1  0  0  0  0
  4 11  1  0  0  0  0
  5 23  1  0  0  0  0
  5 13  1  1  0  0  0
  5  4  1  0  0  0  0
  7  2  1  0  0  0  0
  9  3  1  0  0  0  0
 14 20  1  0  0  0  0
 14 15  1  0  0  0  0
 15 21  1  0  0  0  0
 16 15  2  0  0  0  0
 16  1  1  0  0  0  0
 17 16  1  0  0  0  0
 18 19  1  0  0  0  0
 18 17  2  0  0  0  0
 19 14  2  0  0  0  0
 22 18  1  0  0  0  0
 23 24  1  0  0  0  0
 25 23  2  0  0  0  0
M  END
>  <minimizedAffinity>
-3.96043301

$$$$

 OpenBabel03242513503D

 25 26  0  0  1  0  0  0  0  0999 V2000
   37.5710   27.5250   41.1450 C   0  0  2  0  0  0  0  0  0  0  0  0
   36.7600   26.6830   40.2070 C   0  0  0  0  0  0  0  0  0  0  0  0
   37.0040   25.2980   40.8130 C   0  0  0  0  0  0  0  0  0  0  0  0
   37.1440   25.5290   42.2910 C   0  0  0  0  0  0  0  0  0  0  0  0
   37.0330   27.0330   42.4910 C   0  0  1  0  0  0  0  0  0  0  0  0
   38.6430   27.2470   41.0740 H   0  0  0  0  0  0  0  0  0  0  0  0
   37.1290   26.7410   39.1620 H   0  0  0  0  0  0  0  0  0  0  0  0
   35.6810   26.9680   40.2940 H   0  0  0  0  0  0  0  0  0  0  0  0
   37.8890   24.8410   40.3420 H   0  0  0  0  0  0  0  0  0  0  0  0
   36.0780   24.7270   40.5870 H   0  0  0  0  0  0  0  0  0  0  0  0
   36.2790   25.0930   42.8320 H   0  0  0  0  0  0  0  0  0  0  0  0
   38.1120   25.1390   42.6010 H   0  0  0  0  0  0  0  0  0  0  0  0
   35.9960   27.3620   42.6230 H   0  0  0  0  0  0  0  0  0  0  0  0
   36.2490   31.0330   40.8300 C   0  0  0  0  0  0  0  0  0  0  0  0
   36.2190   29.6420   40.9880 C   0  0  0  0  0  0  0  0  0  0  0  0
   37.4340   28.9720   40.9780 C   0  0  0  0  0  0  0  0  0  0  0  0
   38.5730   29.7020   40.8160 N   0  0  0  0  0  0  0  0  0  0  0  0
   38.5840   31.0390   40.6660 C   0  0  0  0  0  0  0  0  0  0  0  0
   37.4130   31.7070   40.6730 N   0  0  0  0  0  0  0  0  0  0  0  0
   35.2980   31.5720   40.8350 H   0  0  0  0  0  0  0  0  0  0  0  0
   35.3110   29.0770   41.1140 H   0  0  0  0  0  0  0  0  0  0  0  0
   39.5090   31.5870   40.5400 H   0  0  0  0  0  0  0  0  0  0  0  0
   37.8990   27.4330   43.6170 C   0  0  0  0  0  0  0  0  0  0  0  0
   37.4320   27.9540   44.4420 H   0  0  0  0  0  0  0  0  0  0  0  0
   39.1020   27.2150   43.6800 O   0  0  0  0  0  0  0  0  0  0  0  0
  1  6  1  6  0  0  0
  1  5  1  0  0  0  0
  2  8  1  0  0  0  0
  2  3  1  0  0  0  0
  2  1  1  0  0  0  0
  3  4  1  0  0  0  0
  4  5  1  0  0  0  0
  4 12  1  0  0  0  0
  4 11  1  0  0  0  0
  5 13  1  1  0  0  0
  5 23  1  0  0  0  0
  7  2  1  0  0  0  0
  9  3  1  0  0  0  0
 10  3  1  0  0  0  0
 14 20  1  0  0  0  0
 14 15  1  0  0  0  0
 15 21  1  0  0  0  0
 16 15  2  0  0  0  0
 16  1  1  0  0  0  0
 17 16  1  0  0  0  0
 18 19  1  0  0  0  0
 18 17  2  0  0  0  0
 19 14  2  0  0  0  0
 22 18  1  0  0  0  0
 23 25  2  0  0  0  0
 23 24  1  0  0  0  0
M  END
>  <minimizedAffinity>
-3.90438104

$$$$

 OpenBabel03242513503D

 25 26  0  0  1  0  0  0  0  0999 V2000
   37.6200   28.8370   41.3270 C   0  0  2  0  0  0  0  0  0  0  0  0
   36.2840   28.2380   41.6440 C   0  0  0  0  0  0  0  0  0  0  0  0
   36.6230   27.5000   42.9420 C   0  0  0  0  0  0  0  0  0  0  0  0
   37.6750   28.3370   43.6130 C   0  0  0  0  0  0  0  0  0  0  0  0
   37.9520   29.4970   42.6670 C   0  0  1  0  0  0  0  0  0  0  0  0
   38.3610   28.0320   41.1400 H   0  0  0  0  0  0  0  0  0  0  0  0
   35.9370   27.5380   40.8560 H   0  0  0  0  0  0  0  0  0  0  0  0
   35.5470   29.0600   41.8380 H   0  0  0  0  0  0  0  0  0  0  0  0
   36.9450   26.4730   42.7080 H   0  0  0  0  0  0  0  0  0  0  0  0
   35.6770   27.5100   43.5260 H   0  0  0  0  0  0  0  0  0  0  0  0
   37.2700   28.7980   44.5370 H   0  0  0  0  0  0  0  0  0  0  0  0
   38.5520   27.7110   43.7700 H   0  0  0  0  0  0  0  0  0  0  0  0
   37.2830   30.3470   42.8420 H   0  0  0  0  0  0  0  0  0  0  0  0
   38.1760   30.5280   38.0130 C   0  0  0  0  0  0  0  0  0  0  0  0
   38.2480   29.5280   38.9900 C   0  0  0  0  0  0  0  0  0  0  0  0
   37.6420   29.7840   40.2120 C   0  0  0  0  0  0  0  0  0  0  0  0
   37.0200   30.9840   40.3850 N   0  0  0  0  0  0  0  0  0  0  0  0
   36.9590   31.9340   39.4350 C   0  0  0  0  0  0  0  0  0  0  0  0
   37.5420   31.7030   38.2410 N   0  0  0  0  0  0  0  0  0  0  0  0
   38.6490   30.3390   37.0460 H   0  0  0  0  0  0  0  0  0  0  0  0
   38.7440   28.5840   38.8400 H   0  0  0  0  0  0  0  0  0  0  0  0
   36.4550   32.8760   39.6080 H   0  0  0  0  0  0  0  0  0  0  0  0
   39.3760   29.8690   42.7680 C   0  0  0  0  0  0  0  0  0  0  0  0
   40.0980   29.0650   42.8110 H   0  0  0  0  0  0  0  0  0  0  0  0
   39.7930   31.0200   42.8050 O   0  0  0  0  0  0  0  0  0  0  0  0
  1  6  1  6  0  0  0
  1  2  1  0  0  0  0
  1  5  1  0  0  0  0
  2  8  1  0  0  0  0
  2  3  1  0  0  0  0
  3 10  1  0  0  0  0
  3  4  1  0  0  0  0
  4 12  1  0  0  0  0
  4 11  1  0  0  0  0
  5 23  1  0  0  0  0
  5 13  1  1  0  0  0
  5  4  1  0  0  0  0
  7  2  1  0  0  0  0
  9  3  1  0  0  0  0
 14 19  2  0  0  0  0
 14 15  1  0  0  0  0
 15 16  2  0  0  0  0
 16 17  1  0  0  0  0
 16  1  1  0  0  0  0
 18 22  1  0  0  0  0
 18 17  2  0  0  0  0
 19 18  1  0  0  0  0
 20 14  1  0  0  0  0
 21 15  1  0  0  0  0
 23 25  2  0  0  0  0
 23 24  1  0  0  0  0
M  END
>  <minimizedAffinity>
-3.87844872

$$$$

 OpenBabel03242513503D

 25 26  0  0  1  0  0  0  0  0999 V2000
   37.1150   28.2000   41.4660 C   0  0  2  0  0  0  0  0  0  0  0  0
   36.5890   27.5370   42.7020 C   0  0  0  0  0  0  0  0  0  0  0  0
   37.7240   27.8540   43.6800 C   0  0  0  0  0  0  0  0  0  0  0  0
   38.2540   29.1940   43.2540 C   0  0  0  0  0  0  0  0  0  0  0  0
   37.4540   29.5860   42.0200 C   0  0  1  0  0  0  0  0  0  0  0  0
   38.0590   27.7110   41.1460 H   0  0  0  0  0  0  0  0  0  0  0  0
   36.4580   26.4430   42.5710 H   0  0  0  0  0  0  0  0  0  0  0  0
   35.6420   28.0440   43.0190 H   0  0  0  0  0  0  0  0  0  0  0  0
   38.4710   27.0440   43.6510 H   0  0  0  0  0  0  0  0  0  0  0  0
   37.2290   27.9200   44.6720 H   0  0  0  0  0  0  0  0  0  0  0  0
   38.0170   29.9620   44.0180 H   0  0  0  0  0  0  0  0  0  0  0  0
   39.3160   29.0820   43.0420 H   0  0  0  0  0  0  0  0  0  0  0  0
   36.5330   30.1240   42.2730 H   0  0  0  0  0  0  0  0  0  0  0  0
   35.3820   27.6850   38.1670 C   0  0  0  0  0  0  0  0  0  0  0  0
   36.3590   27.5370   39.1590 C   0  0  0  0  0  0  0  0  0  0  0  0
   36.1910   28.2570   40.3340 C   0  0  0  0  0  0  0  0  0  0  0  0
   35.0930   29.0570   40.4490 N   0  0  0  0  0  0  0  0  0  0  0  0
   34.1630   29.1870   39.4860 C   0  0  0  0  0  0  0  0  0  0  0  0
   34.3100   28.4950   38.3380 N   0  0  0  0  0  0  0  0  0  0  0  0
   35.5030   27.1240   37.2370 H   0  0  0  0  0  0  0  0  0  0  0  0
   37.2220   26.9020   39.0550 H   0  0  0  0  0  0  0  0  0  0  0  0
   33.3040   29.8320   39.6130 H   0  0  0  0  0  0  0  0  0  0  0  0
   38.3240   30.3540   41.1080 C   0  0  0  0  0  0  0  0  0  0  0  0
   38.5360   29.9190   40.1410 H   0  0  0  0  0  0  0  0  0  0  0  0
   38.8170   31.4430   41.3720 O   0  0  0  0  0  0  0  0  0  0  0  0
  1  6  1  6  0  0  0
  1  5  1  0  0  0  0
  1  2  1  0  0  0  0
  2  8  1  0  0  0  0
  2  3  1  0  0  0  0
  3 10  1  0  0  0  0
  4  3  1  0  0  0  0
  4 11  1  0  0  0  0
  5 13  1  1  0  0  0
  5  4  1  0  0  0  0
  7  2  1  0  0  0  0
  9  3  1  0  0  0  0
 12  4  1  0  0  0  0
 14 19  2  0  0  0  0
 14 15  1  0  0  0  0
 15 16  2  0  0  0  0
 16 17  1  0  0  0  0
 16  1  1  0  0  0  0
 18 22  1  0  0  0  0
 18 17  2  0  0  0  0
 19 18  1  0  0  0  0
 20 14  1  0  0  0  0
 21 15  1  0  0  0  0
 23 25  2  0  0  0  0
 23  5  1  0  0  0  0
 24 23  1  0  0  0  0
M  END
>  <minimizedAffinity>
-3.82635021

$$$$

 OpenBabel03242513503D

 25 26  0  0  1  0  0  0  0  0999 V2000
   37.2380   30.2330   39.7830 C   0  0  2  0  0  0  0  0  0  0  0  0
   36.1170   30.1550   38.7930 C   0  0  0  0  0  0  0  0  0  0  0  0
   35.4760   28.8310   39.2170 C   0  0  0  0  0  0  0  0  0  0  0  0
   35.6790   28.7470   40.7030 C   0  0  0  0  0  0  0  0  0  0  0  0
   36.4720   29.9890   41.0860 C   0  0  1  0  0  0  0  0  0  0  0  0
   37.9400   29.3880   39.6280 H   0  0  0  0  0  0  0  0  0  0  0  0
   36.4810   30.1150   37.7450 H   0  0  0  0  0  0  0  0  0  0  0  0
   35.4110   31.0080   38.9660 H   0  0  0  0  0  0  0  0  0  0  0  0
   35.9350   28.0030   38.6520 H   0  0  0  0  0  0  0  0  0  0  0  0
   34.3990   28.9480   38.9690 H   0  0  0  0  0  0  0  0  0  0  0  0
   34.7080   28.8420   41.2300 H   0  0  0  0  0  0  0  0  0  0  0  0
   36.2200   27.8270   40.9170 H   0  0  0  0  0  0  0  0  0  0  0  0
   35.8250   30.8460   41.3060 H   0  0  0  0  0  0  0  0  0  0  0  0
   38.2600   33.8470   40.0010 C   0  0  0  0  0  0  0  0  0  0  0  0
   37.4090   32.7340   40.0020 C   0  0  0  0  0  0  0  0  0  0  0  0
   37.9870   31.4890   39.7970 C   0  0  0  0  0  0  0  0  0  0  0  0
   39.3360   31.4260   39.6100 N   0  0  0  0  0  0  0  0  0  0  0  0
   40.1380   32.5050   39.6130 C   0  0  0  0  0  0  0  0  0  0  0  0
   39.5940   33.7240   39.8100 N   0  0  0  0  0  0  0  0  0  0  0  0
   37.8160   34.8330   40.1610 H   0  0  0  0  0  0  0  0  0  0  0  0
   36.3450   32.7980   40.1510 H   0  0  0  0  0  0  0  0  0  0  0  0
   41.2060   32.4180   39.4610 H   0  0  0  0  0  0  0  0  0  0  0  0
   37.3710   29.6570   42.2080 C   0  0  0  0  0  0  0  0  0  0  0  0
   38.2370   30.2870   42.3540 H   0  0  0  0  0  0  0  0  0  0  0  0
   37.2010   28.7220   42.9810 O   0  0  0  0  0  0  0  0  0  0  0  0
  1  6  1  6  0  0  0
  1 16  1  0  0  0  0
  1  5  1  0  0  0  0
  2  8  1  0  0  0  0
  2  3  1  0  0  0  0
  2  1  1  0  0  0  0
  3  4  1  0  0  0  0
  4 12  1  0  0  0  0
  4  5  1  0  0  0  0
  4 11  1  0  0  0  0
  5 13  1  1  0  0  0
  5 23  1  0  0  0  0
  7  2  1  0  0  0  0
  9  3  1  0  0  0  0
 10  3  1  0  0  0  0
 14 15  1  0  0  0  0
 14 20  1  0  0  0  0
 15 21  1  0  0  0  0
 16 15  2  0  0  0  0
 17 18  2  0  0  0  0
 17 16  1  0  0  0  0
 18 19  1  0  0  0  0
 19 14  2  0  0  0  0
 22 18  1  0  0  0  0
 23 24  1  0  0  0  0
 23 25  2  0  0  0  0
M  END
>  <minimizedAffinity>
-3.81655145

$$$$

 OpenBabel03242513503D

 25 26  0  0  1  0  0  0  0  0999 V2000
   37.3500   26.1080   42.2610 C   0  0  2  0  0  0  0  0  0  0  0  0
   36.6460   27.4090   42.4950 C   0  0  0  0  0  0  0  0  0  0  0  0
   37.4570   27.9420   43.6800 C   0  0  0  0  0  0  0  0  0  0  0  0
   38.8550   27.4350   43.4670 C   0  0  0  0  0  0  0  0  0  0  0  0
   38.8030   26.5850   42.2050 C   0  0  1  0  0  0  0  0  0  0  0  0
   37.2320   25.4490   43.1470 H   0  0  0  0  0  0  0  0  0  0  0  0
   35.5780   27.2700   42.7610 H   0  0  0  0  0  0  0  0  0  0  0  0
   36.7790   28.0680   41.5980 H   0  0  0  0  0  0  0  0  0  0  0  0
   36.9940   27.6070   44.6220 H   0  0  0  0  0  0  0  0  0  0  0  0
   37.4150   29.0480   43.5730 H   0  0  0  0  0  0  0  0  0  0  0  0
   39.5380   28.2760   43.2300 H   0  0  0  0  0  0  0  0  0  0  0  0
   39.1390   26.8580   44.3450 H   0  0  0  0  0  0  0  0  0  0  0  0
   38.9680   27.1760   41.2970 H   0  0  0  0  0  0  0  0  0  0  0  0
   36.2150   23.4790   39.8200 C   0  0  0  0  0  0  0  0  0  0  0  0
   36.5860   24.0380   41.0500 C   0  0  0  0  0  0  0  0  0  0  0  0
   36.9500   25.3770   41.0580 C   0  0  0  0  0  0  0  0  0  0  0  0
   36.9250   26.0610   39.8790 N   0  0  0  0  0  0  0  0  0  0  0  0
   36.5650   25.5080   38.7070 C   0  0  0  0  0  0  0  0  0  0  0  0
   36.2070   24.2080   38.6790 N   0  0  0  0  0  0  0  0  0  0  0  0
   35.9260   22.4250   39.8010 H   0  0  0  0  0  0  0  0  0  0  0  0
   36.6020   23.4860   41.9740 H   0  0  0  0  0  0  0  0  0  0  0  0
   36.5560   26.0820   37.7890 H   0  0  0  0  0  0  0  0  0  0  0  0
   39.7620   25.4720   42.3370 C   0  0  0  0  0  0  0  0  0  0  0  0
   40.4770   25.3350   41.5370 H   0  0  0  0  0  0  0  0  0  0  0  0
   39.8020   24.6970   43.2840 O   0  0  0  0  0  0  0  0  0  0  0  0
  1  2  1  0  0  0  0
  1  6  1  1  0  0  0
  2  7  1  0  0  0  0
  2  3  1  0  0  0  0
  3  9  1  0  0  0  0
  4  3  1  0  0  0  0
  4 12  1  0  0  0  0
  5 13  1  6  0  0  0
  5  1  1  0  0  0  0
  5 23  1  0  0  0  0
  5  4  1  0  0  0  0
  8  2  1  0  0  0  0
 10  3  1  0  0  0  0
 11  4  1  0  0  0  0
 14 15  1  0  0  0  0
 15 16  2  0  0  0  0
 15 21  1  0  0  0  0
 16  1  1  0  0  0  0
 17 16  1  0  0  0  0
 18 17  2  0  0  0  0
 19 18  1  0  0  0  0
 19 14  2  0  0  0  0
 20 14  1  0  0  0  0
 22 18  1  0  0  0  0
 23 25  2  0  0  0  0
 24 23  1  0  0  0  0
M  END
>  <minimizedAffinity>
-3.80912542

$$$$

 OpenBabel03242513503D

 25 26  0  0  1  0  0  0  0  0999 V2000
   37.9410   25.6660   41.0750 C   0  0  2  0  0  0  0  0  0  0  0  0
   36.6360   25.3710   40.4010 C   0  0  0  0  0  0  0  0  0  0  0  0
   36.9200   23.9610   39.8760 C   0  0  0  0  0  0  0  0  0  0  0  0
   37.8370   23.3350   40.8880 C   0  0  0  0  0  0  0  0  0  0  0  0
   38.0990   24.4090   41.9340 C   0  0  1  0  0  0  0  0  0  0  0  0
   38.7600   25.6830   40.3250 H   0  0  0  0  0  0  0  0  0  0  0  0
   36.4190   26.0780   39.5740 H   0  0  0  0  0  0  0  0  0  0  0  0
   35.8210   25.3490   41.1690 H   0  0  0  0  0  0  0  0  0  0  0  0
   37.3450   24.0250   38.8610 H   0  0  0  0  0  0  0  0  0  0  0  0
   35.9290   23.4580   39.8740 H   0  0  0  0  0  0  0  0  0  0  0  0
   37.3150   22.5180   41.4270 H   0  0  0  0  0  0  0  0  0  0  0  0
   38.7450   23.0270   40.3730 H   0  0  0  0  0  0  0  0  0  0  0  0
   37.3500   24.4060   42.7330 H   0  0  0  0  0  0  0  0  0  0  0  0
   37.3270   28.3700   43.6180 C   0  0  0  0  0  0  0  0  0  0  0  0
   37.1600   27.1490   42.9520 C   0  0  0  0  0  0  0  0  0  0  0  0
   37.9840   26.8970   41.8640 C   0  0  0  0  0  0  0  0  0  0  0  0
   38.8980   27.8450   41.5130 N   0  0  0  0  0  0  0  0  0  0  0  0
   39.0460   29.0120   42.1650 C   0  0  0  0  0  0  0  0  0  0  0  0
   38.2540   29.2750   43.2250 N   0  0  0  0  0  0  0  0  0  0  0  0
   36.6840   28.5800   44.4760 H   0  0  0  0  0  0  0  0  0  0  0  0
   36.4320   26.4090   43.2390 H   0  0  0  0  0  0  0  0  0  0  0  0
   39.7840   29.7430   41.8590 H   0  0  0  0  0  0  0  0  0  0  0  0
   39.4740   24.2540   42.4480 C   0  0  0  0  0  0  0  0  0  0  0  0
   40.2210   23.8770   41.7620 H   0  0  0  0  0  0  0  0  0  0  0  0
   39.8230   24.5210   43.5900 O   0  0  0  0  0  0  0  0  0  0  0  0
  1  6  1  6  0  0  0
  1 16  1  0  0  0  0
  1  5  1  0  0  0  0
  2  1  1  0  0  0  0
  2  8  1  0  0  0  0
  3  2  1  0  0  0  0
  3  4  1  0  0  0  0
  4 11  1  0  0  0  0
  4  5  1  0  0  0  0
  5 23  1  0  0  0  0
  5 13  1  1  0  0  0
  7  2  1  0  0  0  0
  9  3  1  0  0  0  0
 10  3  1  0  0  0  0
 12  4  1  0  0  0  0
 14 20  1  0  0  0  0
 15 21  1  0  0  0  0
 15 14  2  0  0  0  0
 16 15  1  0  0  0  0
 17 16  2  0  0  0  0
 17 18  1  0  0  0  0
 18 19  2  0  0  0  0
 19 14  1  0  0  0  0
 22 18  1  0  0  0  0
 23 25  2  0  0  0  0
 24 23  1  0  0  0  0
M  END
>  <minimizedAffinity>
-3.77056766

$$$$

 OpenBabel03242513503D

 25 26  0  0  1  0  0  0  0  0999 V2000
   37.4440   32.0690   40.3210 C   0  0  2  0  0  0  0  0  0  0  0  0
   37.2990   33.3440   39.5500 C   0  0  0  0  0  0  0  0  0  0  0  0
   38.4370   34.1610   40.1670 C   0  0  0  0  0  0  0  0  0  0  0  0
   39.5060   33.1610   40.5080 C   0  0  0  0  0  0  0  0  0  0  0  0
   38.9390   31.8000   40.1320 C   0  0  1  0  0  0  0  0  0  0  0  0
   37.2560   32.2540   41.4000 H   0  0  0  0  0  0  0  0  0  0  0  0
   36.3140   33.8280   39.7150 H   0  0  0  0  0  0  0  0  0  0  0  0
   37.4990   33.1450   38.4660 H   0  0  0  0  0  0  0  0  0  0  0  0
   38.0570   34.7270   41.0330 H   0  0  0  0  0  0  0  0  0  0  0  0
   38.7720   34.8370   39.3510 H   0  0  0  0  0  0  0  0  0  0  0  0
   40.3900   33.3050   39.8550 H   0  0  0  0  0  0  0  0  0  0  0  0
   39.7150   33.2440   41.5730 H   0  0  0  0  0  0  0  0  0  0  0  0
   39.1430   31.5370   39.0880 H   0  0  0  0  0  0  0  0  0  0  0  0
   35.0590   29.1660   40.1290 C   0  0  0  0  0  0  0  0  0  0  0  0
   35.8130   30.1920   40.7110 C   0  0  0  0  0  0  0  0  0  0  0  0
   36.6100   30.9550   39.8700 C   0  0  0  0  0  0  0  0  0  0  0  0
   36.6110   30.6600   38.5390 N   0  0  0  0  0  0  0  0  0  0  0  0
   35.8790   29.6710   37.9960 C   0  0  0  0  0  0  0  0  0  0  0  0
   35.0980   28.9190   38.7990 N   0  0  0  0  0  0  0  0  0  0  0  0
   34.4270   28.5580   40.7820 H   0  0  0  0  0  0  0  0  0  0  0  0
   35.8040   30.4140   41.7650 H   0  0  0  0  0  0  0  0  0  0  0  0
   35.9040   29.4650   36.9340 H   0  0  0  0  0  0  0  0  0  0  0  0
   39.4490   30.7890   41.0790 C   0  0  0  0  0  0  0  0  0  0  0  0
   40.0440   29.9830   40.6720 H   0  0  0  0  0  0  0  0  0  0  0  0
   39.2450   30.8030   42.2860 O   0  0  0  0  0  0  0  0  0  0  0  0
  1  6  1  1  0  0  0
  2  7  1  0  0  0  0
  2  3  1  0  0  0  0
  2  1  1  0  0  0  0
  3  4  1  0  0  0  0
  3  9  1  0  0  0  0
  4 12  1  0  0  0  0
  5 13  1  6  0  0  0
  5  1  1  0  0  0  0
  5  4  1  0  0  0  0
  5 23  1  0  0  0  0
  8  2  1  0  0  0  0
 10  3  1  0  0  0  0
 11  4  1  0  0  0  0
 14 15  1  0  0  0  0
 14 20  1  0  0  0  0
 15 21  1  0  0  0  0
 16  1  1  0  0  0  0
 16 15  2  0  0  0  0
 17 16  1  0  0  0  0
 18 17  2  0  0  0  0
 18 19  1  0  0  0  0
 19 14  2  0  0  0  0
 22 18  1  0  0  0  0
 23 25  2  0  0  0  0
 24 23  1  0  0  0  0
M  END
>  <minimizedAffinity>
-3.76454735

$$$$

 OpenBabel03242513503D

 25 26  0  0  1  0  0  0  0  0999 V2000
   36.5060   27.8320   41.1840 C   0  0  2  0  0  0  0  0  0  0  0  0
   35.8930   28.0710   39.8390 C   0  0  0  0  0  0  0  0  0  0  0  0
   35.2860   29.4590   40.0640 C   0  0  0  0  0  0  0  0  0  0  0  0
   36.2160   30.1500   41.0220 C   0  0  0  0  0  0  0  0  0  0  0  0
   37.2940   29.1320   41.3630 C   0  0  1  0  0  0  0  0  0  0  0  0
   35.7140   27.7950   41.9610 H   0  0  0  0  0  0  0  0  0  0  0  0
   35.1130   27.3210   39.5910 H   0  0  0  0  0  0  0  0  0  0  0  0
   36.7030   28.1150   39.0660 H   0  0  0  0  0  0  0  0  0  0  0  0
   34.2540   29.3530   40.4350 H   0  0  0  0  0  0  0  0  0  0  0  0
   35.3150   29.9430   39.0640 H   0  0  0  0  0  0  0  0  0  0  0  0
   36.7430   30.9820   40.5130 H   0  0  0  0  0  0  0  0  0  0  0  0
   35.6360   30.4490   41.8930 H   0  0  0  0  0  0  0  0  0  0  0  0
   38.1330   29.1610   40.6580 H   0  0  0  0  0  0  0  0  0  0  0  0
   37.9870   24.5110   42.1480 C   0  0  0  0  0  0  0  0  0  0  0  0
   37.0950   25.5910   42.1640 C   0  0  0  0  0  0  0  0  0  0  0  0
   37.3500   26.6420   41.2960 C   0  0  0  0  0  0  0  0  0  0  0  0
   38.4440   26.5620   40.4870 N   0  0  0  0  0  0  0  0  0  0  0  0
   39.2910   25.5170   40.4840 C   0  0  0  0  0  0  0  0  0  0  0  0
   39.0590   24.4850   41.3210 N   0  0  0  0  0  0  0  0  0  0  0  0
   37.7980   23.6760   42.8270 H   0  0  0  0  0  0  0  0  0  0  0  0
   36.2340   25.6410   42.8090 H   0  0  0  0  0  0  0  0  0  0  0  0
   40.1500   25.4870   39.8270 H   0  0  0  0  0  0  0  0  0  0  0  0
   37.7230   29.3380   42.7600 C   0  0  0  0  0  0  0  0  0  0  0  0
   36.9570   29.5800   43.4840 H   0  0  0  0  0  0  0  0  0  0  0  0
   38.8800   29.2520   43.1510 O   0  0  0  0  0  0  0  0  0  0  0  0
  1 16  1  0  0  0  0
  1  5  1  0  0  0  0
  1  6  1  1  0  0  0
  2  3  1  0  0  0  0
  2  1  1  0  0  0  0
  3  9  1  0  0  0  0
  3  4  1  0  0  0  0
  4  5  1  0  0  0  0
  4 12  1  0  0  0  0
  5 13  1  6  0  0  0
  5 23  1  0  0  0  0
  7  2  1  0  0  0  0
  8  2  1  0  0  0  0
 10  3  1  0  0  0  0
 11  4  1  0  0  0  0
 14 15  1  0  0  0  0
 14 20  1  0  0  0  0
 15 21  1  0  0  0  0
 16 15  2  0  0  0  0
 17 16  1  0  0  0  0
 18 17  2  0  0  0  0
 18 19  1  0  0  0  0
 19 14  2  0  0  0  0
 22 18  1  0  0  0  0
 23 25  2  0  0  0  0
 23 24  1  0  0  0  0
M  END
>  <minimizedAffinity>
-3.69815326

$$$$
