
 OpenBabel03252505553D

 27 28  0  0  0  0  0  0  0  0999 V2000
   36.6390   27.6270   42.9950 C   0  0  0  0  0  0  0  0  0  0  0  0
   36.0380   27.5370   43.9140 H   0  0  0  0  0  0  0  0  0  0  0  0
   35.9370   27.7690   42.1640 H   0  0  0  0  0  0  0  0  0  0  0  0
   37.4680   26.4380   42.7540 C   0  0  0  0  0  0  0  0  0  0  0  0
   37.1320   25.2340   42.1760 C   0  0  0  0  0  0  0  0  0  0  0  0
   38.0660   24.2610   42.0510 C   0  0  0  0  0  0  0  0  0  0  0  0
   39.3220   24.4540   42.4850 N   0  0  0  0  0  0  0  0  0  0  0  0
   39.6590   25.6220   43.0480 C   0  0  0  0  0  0  0  0  0  0  0  0
   38.7400   26.6150   43.1850 N   0  0  0  0  0  0  0  0  0  0  0  0
   36.0870   25.2050   41.8670 H   0  0  0  0  0  0  0  0  0  0  0  0
   37.7280   23.3450   41.5880 H   0  0  0  0  0  0  0  0  0  0  0  0
   41.0430   25.8310   43.5250 C   0  0  0  0  0  0  0  0  0  0  0  0
   41.2570   26.6640   44.1740 H   0  0  0  0  0  0  0  0  0  0  0  0
   41.8810   24.9960   43.1220 O   0  0  0  0  0  0  0  0  0  0  0  0
   37.5020   28.7350   43.0880 O   0  0  0  0  0  0  0  0  0  0  0  0
   38.6860   31.3400   40.9690 C   0  0  0  0  0  0  0  0  0  0  0  0
   37.5550   31.7410   40.2610 C   0  0  0  0  0  0  0  0  0  0  0  0
   36.3600   31.0780   40.5410 C   0  0  0  0  0  0  0  0  0  0  0  0
   36.3600   30.0950   41.4690 N   0  0  0  0  0  0  0  0  0  0  0  0
   37.4780   29.7420   42.1280 C   0  0  0  0  0  0  0  0  0  0  0  0
   38.6360   30.3560   41.8850 N   0  0  0  0  0  0  0  0  0  0  0  0
   39.6440   31.8280   40.7860 H   0  0  0  0  0  0  0  0  0  0  0  0
   35.5090   31.4020   39.9870 H   0  0  0  0  0  0  0  0  0  0  0  0
   37.7010   32.8440   39.2610 C   0  0  0  0  0  0  0  0  0  0  0  0
   39.0470   33.0850   39.1800 F   0  0  0  0  0  0  0  0  0  0  0  0
   37.0430   33.9470   39.8030 F   0  0  0  0  0  0  0  0  0  0  0  0
   37.1440   32.4410   38.0830 F   0  0  0  0  0  0  0  0  0  0  0  0
  1 15  1  0  0  0  0
  1  2  1  0  0  0  0
  3  1  1  0  0  0  0
  4  1  1  0  0  0  0
  4  9  1  0  0  0  0
  5  4  2  0  0  0  0
  6  5  1  0  0  0  0
  6  7  2  0  0  0  0
  7  8  1  0  0  0  0
  8  9  2  0  0  0  0
  8 12  1  0  0  0  0
 10  5  1  0  0  0  0
 11  6  1  0  0  0  0
 12 13  1  0  0  0  0
 14 12  2  0  0  0  0
 16 21  1  0  0  0  0
 17 18  1  0  0  0  0
 17 16  2  0  0  0  0
 18 19  2  0  0  0  0
 19 20  1  0  0  0  0
 20 15  1  0  0  0  0
 21 20  2  0  0  0  0
 22 16  1  0  0  0  0
 23 18  1  0  0  0  0
 24 26  1  0  0  0  0
 24 17  1  0  0  0  0
 25 24  1  0  0  0  0
 27 24  1  0  0  0  0
M  END
>  <minimizedAffinity>
-5.12740088

$$$$

 OpenBabel03252505553D

 27 28  0  0  0  0  0  0  0  0999 V2000
   37.3200   27.9060   43.5160 C   0  0  0  0  0  0  0  0  0  0  0  0
   37.8690   28.7140   44.0270 H   0  0  0  0  0  0  0  0  0  0  0  0
   36.4950   27.6100   44.1760 H   0  0  0  0  0  0  0  0  0  0  0  0
   38.1760   26.7460   43.2300 C   0  0  0  0  0  0  0  0  0  0  0  0
   39.4460   26.4600   43.6790 C   0  0  0  0  0  0  0  0  0  0  0  0
   40.0590   25.3180   43.2860 C   0  0  0  0  0  0  0  0  0  0  0  0
   39.4430   24.4570   42.4610 N   0  0  0  0  0  0  0  0  0  0  0  0
   38.2080   24.7260   42.0190 C   0  0  0  0  0  0  0  0  0  0  0  0
   37.5700   25.8650   42.3990 N   0  0  0  0  0  0  0  0  0  0  0  0
   39.8320   27.2360   44.3410 H   0  0  0  0  0  0  0  0  0  0  0  0
   41.0540   25.1630   43.6790 H   0  0  0  0  0  0  0  0  0  0  0  0
   37.5330   23.7740   41.1100 C   0  0  0  0  0  0  0  0  0  0  0  0
   38.0980   22.9660   40.6780 H   0  0  0  0  0  0  0  0  0  0  0  0
   36.3190   23.9940   40.9090 O   0  0  0  0  0  0  0  0  0  0  0  0
   36.8100   28.3690   42.2880 O   0  0  0  0  0  0  0  0  0  0  0  0
   36.5890   31.5360   40.6740 C   0  0  0  0  0  0  0  0  0  0  0  0
   37.8970   32.0150   40.6890 C   0  0  0  0  0  0  0  0  0  0  0  0
   38.8660   31.2040   41.2790 C   0  0  0  0  0  0  0  0  0  0  0  0
   38.4940   30.0120   41.7980 N   0  0  0  0  0  0  0  0  0  0  0  0
   37.2170   29.5910   41.7610 C   0  0  0  0  0  0  0  0  0  0  0  0
   36.2660   30.3420   41.2040 N   0  0  0  0  0  0  0  0  0  0  0  0
   35.7940   32.1330   40.2250 H   0  0  0  0  0  0  0  0  0  0  0  0
   39.8590   31.5910   41.2770 H   0  0  0  0  0  0  0  0  0  0  0  0
   38.1660   33.3530   40.0760 C   0  0  0  0  0  0  0  0  0  0  0  0
   38.5480   34.1590   41.1160 F   0  0  0  0  0  0  0  0  0  0  0  0
   36.9520   33.7870   39.5470 F   0  0  0  0  0  0  0  0  0  0  0  0
   39.1230   33.2080   39.1160 F   0  0  0  0  0  0  0  0  0  0  0  0
  1  2  1  0  0  0  0
  1  3  1  0  0  0  0
  4  1  1  0  0  0  0
  4  5  1  0  0  0  0
  5 10  1  0  0  0  0
  6  5  2  0  0  0  0
  6 11  1  0  0  0  0
  7  6  1  0  0  0  0
  8  9  1  0  0  0  0
  8  7  2  0  0  0  0
  9  4  2  0  0  0  0
 12  8  1  0  0  0  0
 13 12  1  0  0  0  0
 14 12  2  0  0  0  0
 15  1  1  0  0  0  0
 16 17  2  0  0  0  0
 16 21  1  0  0  0  0
 17 18  1  0  0  0  0
 18 19  2  0  0  0  0
 20 19  1  0  0  0  0
 20 15  1  0  0  0  0
 21 20  2  0  0  0  0
 22 16  1  0  0  0  0
 23 18  1  0  0  0  0
 24 17  1  0  0  0  0
 24 25  1  0  0  0  0
 26 24  1  0  0  0  0
 27 24  1  0  0  0  0
M  END
>  <minimizedAffinity>
-5.09439135

$$$$

 OpenBabel03252505553D

 27 28  0  0  0  0  0  0  0  0999 V2000
   36.5660   31.1470   40.1100 C   0  0  0  0  0  0  0  0  0  0  0  0
   36.7590   30.4180   39.3060 H   0  0  0  0  0  0  0  0  0  0  0  0
   35.6390   31.6720   39.8530 H   0  0  0  0  0  0  0  0  0  0  0  0
   37.6650   32.1110   40.2620 C   0  0  0  0  0  0  0  0  0  0  0  0
   37.7130   33.4470   39.9300 C   0  0  0  0  0  0  0  0  0  0  0  0
   38.8430   34.1580   40.1600 C   0  0  0  0  0  0  0  0  0  0  0  0
   39.9210   33.5770   40.7100 N   0  0  0  0  0  0  0  0  0  0  0  0
   39.8830   32.2790   41.0370 C   0  0  0  0  0  0  0  0  0  0  0  0
   38.7620   31.5420   40.8160 N   0  0  0  0  0  0  0  0  0  0  0  0
   36.7770   33.7950   39.4930 H   0  0  0  0  0  0  0  0  0  0  0  0
   38.8060   35.2000   39.8720 H   0  0  0  0  0  0  0  0  0  0  0  0
   41.0730   31.6430   41.6420 C   0  0  0  0  0  0  0  0  0  0  0  0
   42.0460   31.8370   41.2220 H   0  0  0  0  0  0  0  0  0  0  0  0
   40.8460   30.9060   42.6250 O   0  0  0  0  0  0  0  0  0  0  0  0
   36.4140   30.4800   41.3410 O   0  0  0  0  0  0  0  0  0  0  0  0
   36.5910   27.0670   40.3400 C   0  0  0  0  0  0  0  0  0  0  0  0
   36.9540   26.3920   41.5030 C   0  0  0  0  0  0  0  0  0  0  0  0
   37.1370   27.1580   42.6540 C   0  0  0  0  0  0  0  0  0  0  0  0
   36.9570   28.4960   42.5840 N   0  0  0  0  0  0  0  0  0  0  0  0
   36.6060   29.1050   41.4370 C   0  0  0  0  0  0  0  0  0  0  0  0
   36.4220   28.4020   40.3200 N   0  0  0  0  0  0  0  0  0  0  0  0
   36.4360   26.5140   39.4130 H   0  0  0  0  0  0  0  0  0  0  0  0
   37.4140   26.6190   43.5310 H   0  0  0  0  0  0  0  0  0  0  0  0
   37.1190   24.9070   41.4350 C   0  0  0  0  0  0  0  0  0  0  0  0
   36.5470   24.4240   42.5830 F   0  0  0  0  0  0  0  0  0  0  0  0
   38.4920   24.6700   41.4400 F   0  0  0  0  0  0  0  0  0  0  0  0
   36.5230   24.4540   40.2950 F   0  0  0  0  0  0  0  0  0  0  0  0
  1  4  1  0  0  0  0
  1 15  1  0  0  0  0
  2  1  1  0  0  0  0
  3  1  1  0  0  0  0
  4  9  1  0  0  0  0
  5  6  1  0  0  0  0
  5  4  2  0  0  0  0
  6  7  2  0  0  0  0
  7  8  1  0  0  0  0
  8 12  1  0  0  0  0
  9  8  2  0  0  0  0
 10  5  1  0  0  0  0
 11  6  1  0  0  0  0
 12 14  2  0  0  0  0
 13 12  1  0  0  0  0
 15 20  1  0  0  0  0
 16 17  1  0  0  0  0
 17 18  2  0  0  0  0
 18 23  1  0  0  0  0
 19 18  1  0  0  0  0
 20 19  2  0  0  0  0
 21 16  2  0  0  0  0
 21 20  1  0  0  0  0
 22 16  1  0  0  0  0
 24 26  1  0  0  0  0
 24 17  1  0  0  0  0
 24 25  1  0  0  0  0
 27 24  1  0  0  0  0
M  END
>  <minimizedAffinity>
-4.77712727

$$$$

 OpenBabel03252505553D

 27 28  0  0  0  0  0  0  0  0999 V2000
   36.1390   30.2900   41.1040 C   0  0  0  0  0  0  0  0  0  0  0  0
   35.5540   29.3920   40.8440 H   0  0  0  0  0  0  0  0  0  0  0  0
   35.4310   31.0370   41.4830 H   0  0  0  0  0  0  0  0  0  0  0  0
   36.8690   30.8310   39.9490 C   0  0  0  0  0  0  0  0  0  0  0  0
   36.7630   30.5100   38.6140 C   0  0  0  0  0  0  0  0  0  0  0  0
   37.5440   31.1420   37.7050 C   0  0  0  0  0  0  0  0  0  0  0  0
   38.4240   32.0800   38.0880 N   0  0  0  0  0  0  0  0  0  0  0  0
   38.5340   32.3990   39.3840 C   0  0  0  0  0  0  0  0  0  0  0  0
   37.7620   31.7800   40.3170 N   0  0  0  0  0  0  0  0  0  0  0  0
   36.0150   29.7370   38.4360 H   0  0  0  0  0  0  0  0  0  0  0  0
   37.4050   30.8370   36.6770 H   0  0  0  0  0  0  0  0  0  0  0  0
   39.5050   33.4330   39.8030 C   0  0  0  0  0  0  0  0  0  0  0  0
   39.4750   34.4040   39.3380 H   0  0  0  0  0  0  0  0  0  0  0  0
   40.3100   33.0840   40.6920 O   0  0  0  0  0  0  0  0  0  0  0  0
   37.0860   29.9800   42.0980 O   0  0  0  0  0  0  0  0  0  0  0  0
   37.2980   26.4450   41.7210 C   0  0  0  0  0  0  0  0  0  0  0  0
   38.4320   26.0940   42.4520 C   0  0  0  0  0  0  0  0  0  0  0  0
   39.1260   27.1250   43.0840 C   0  0  0  0  0  0  0  0  0  0  0  0
   38.6720   28.3920   42.9580 N   0  0  0  0  0  0  0  0  0  0  0  0
   37.5730   28.6830   42.2410 C   0  0  0  0  0  0  0  0  0  0  0  0
   36.8850   27.7220   41.6250 N   0  0  0  0  0  0  0  0  0  0  0  0
   36.7210   25.6750   41.2080 H   0  0  0  0  0  0  0  0  0  0  0  0
   39.9890   26.8320   43.6380 H   0  0  0  0  0  0  0  0  0  0  0  0
   38.8180   24.6500   42.5060 C   0  0  0  0  0  0  0  0  0  0  0  0
   39.5920   24.5220   43.6300 F   0  0  0  0  0  0  0  0  0  0  0  0
   39.5800   24.4110   41.3630 F   0  0  0  0  0  0  0  0  0  0  0  0
   37.6830   23.8960   42.5340 F   0  0  0  0  0  0  0  0  0  0  0  0
  1  3  1  0  0  0  0
  1 15  1  0  0  0  0
  2  1  1  0  0  0  0
  4  9  1  0  0  0  0
  4  1  1  0  0  0  0
  5  4  2  0  0  0  0
  6  7  2  0  0  0  0
  6  5  1  0  0  0  0
  7  8  1  0  0  0  0
  8 12  1  0  0  0  0
  8  9  2  0  0  0  0
 10  5  1  0  0  0  0
 11  6  1  0  0  0  0
 12 14  2  0  0  0  0
 13 12  1  0  0  0  0
 15 20  1  0  0  0  0
 16 17  1  0  0  0  0
 17 24  1  0  0  0  0
 17 18  2  0  0  0  0
 18 23  1  0  0  0  0
 19 18  1  0  0  0  0
 20 19  2  0  0  0  0
 21 16  2  0  0  0  0
 21 20  1  0  0  0  0
 22 16  1  0  0  0  0
 24 27  1  0  0  0  0
 24 25  1  0  0  0  0
 26 24  1  0  0  0  0
M  END
>  <minimizedAffinity>
-4.72439861

$$$$

 OpenBabel03252505553D

 27 28  0  0  0  0  0  0  0  0999 V2000
   37.6000   31.1600   37.9460 C   0  0  0  0  0  0  0  0  0  0  0  0
   37.7020   31.3830   36.8710 H   0  0  0  0  0  0  0  0  0  0  0  0
   36.5260   31.1240   38.1670 H   0  0  0  0  0  0  0  0  0  0  0  0
   38.2530   32.1720   38.7880 C   0  0  0  0  0  0  0  0  0  0  0  0
   37.7210   32.9650   39.7800 C   0  0  0  0  0  0  0  0  0  0  0  0
   38.5150   33.8430   40.4400 C   0  0  0  0  0  0  0  0  0  0  0  0
   39.8190   33.9500   40.1400 N   0  0  0  0  0  0  0  0  0  0  0  0
   40.3450   33.1820   39.1770 C   0  0  0  0  0  0  0  0  0  0  0  0
   39.5700   32.2930   38.5000 N   0  0  0  0  0  0  0  0  0  0  0  0
   36.6560   32.7820   39.9260 H   0  0  0  0  0  0  0  0  0  0  0  0
   38.0260   34.4310   41.2040 H   0  0  0  0  0  0  0  0  0  0  0  0
   41.7820   33.3030   38.8490 C   0  0  0  0  0  0  0  0  0  0  0  0
   42.1510   34.2230   38.4270 H   0  0  0  0  0  0  0  0  0  0  0  0
   42.4760   32.2940   39.0960 O   0  0  0  0  0  0  0  0  0  0  0  0
   38.1910   29.9170   38.2400 O   0  0  0  0  0  0  0  0  0  0  0  0
   38.5790   28.0650   41.2560 C   0  0  0  0  0  0  0  0  0  0  0  0
   37.2720   27.8100   41.6670 C   0  0  0  0  0  0  0  0  0  0  0  0
   36.2440   28.3010   40.8630 C   0  0  0  0  0  0  0  0  0  0  0  0
   36.5620   28.9900   39.7430 N   0  0  0  0  0  0  0  0  0  0  0  0
   37.8400   29.2120   39.3870 C   0  0  0  0  0  0  0  0  0  0  0  0
   38.8460   28.7550   40.1330 N   0  0  0  0  0  0  0  0  0  0  0  0
   39.4180   27.7020   41.8510 H   0  0  0  0  0  0  0  0  0  0  0  0
   35.2530   28.0930   41.1970 H   0  0  0  0  0  0  0  0  0  0  0  0
   37.0670   27.0330   42.9290 C   0  0  0  0  0  0  0  0  0  0  0  0
   38.2010   27.2370   43.6700 F   0  0  0  0  0  0  0  0  0  0  0  0
   36.9690   25.6960   42.5490 F   0  0  0  0  0  0  0  0  0  0  0  0
   35.9300   27.4800   43.5350 F   0  0  0  0  0  0  0  0  0  0  0  0
  1  3  1  0  0  0  0
  1 15  1  0  0  0  0
  1  4  1  0  0  0  0
  2  1  1  0  0  0  0
  4  5  1  0  0  0  0
  5 10  1  0  0  0  0
  5  6  2  0  0  0  0
  6 11  1  0  0  0  0
  7  6  1  0  0  0  0
  8  7  2  0  0  0  0
  9  4  2  0  0  0  0
  9  8  1  0  0  0  0
 12 14  2  0  0  0  0
 12  8  1  0  0  0  0
 13 12  1  0  0  0  0
 15 20  1  0  0  0  0
 16 17  1  0  0  0  0
 16 22  1  0  0  0  0
 17 24  1  0  0  0  0
 18 23  1  0  0  0  0
 18 17  2  0  0  0  0
 19 18  1  0  0  0  0
 20 19  2  0  0  0  0
 20 21  1  0  0  0  0
 21 16  2  0  0  0  0
 24 27  1  0  0  0  0
 24 25  1  0  0  0  0
 26 24  1  0  0  0  0
M  END
>  <minimizedAffinity>
-4.63112545

$$$$

 OpenBabel03252505553D

 27 28  0  0  0  0  0  0  0  0999 V2000
   35.9400   30.2550   41.0560 C   0  0  0  0  0  0  0  0  0  0  0  0
   35.4540   29.3120   40.7540 H   0  0  0  0  0  0  0  0  0  0  0  0
   35.1540   30.9090   41.4530 H   0  0  0  0  0  0  0  0  0  0  0  0
   36.6230   30.9130   39.9340 C   0  0  0  0  0  0  0  0  0  0  0  0
   37.3270   32.0960   39.9060 C   0  0  0  0  0  0  0  0  0  0  0  0
   37.8840   32.5230   38.7470 C   0  0  0  0  0  0  0  0  0  0  0  0
   37.7600   31.8050   37.6200 N   0  0  0  0  0  0  0  0  0  0  0  0
   37.0780   30.6520   37.6370 C   0  0  0  0  0  0  0  0  0  0  0  0
   36.5080   30.2020   38.7870 N   0  0  0  0  0  0  0  0  0  0  0  0
   37.3540   32.5810   40.8820 H   0  0  0  0  0  0  0  0  0  0  0  0
   38.4200   33.4590   38.8030 H   0  0  0  0  0  0  0  0  0  0  0  0
   36.9420   29.8640   36.3930 C   0  0  0  0  0  0  0  0  0  0  0  0
   37.0700   30.3530   35.4420 H   0  0  0  0  0  0  0  0  0  0  0  0
   36.6810   28.6530   36.5510 O   0  0  0  0  0  0  0  0  0  0  0  0
   36.9040   30.0050   42.0510 O   0  0  0  0  0  0  0  0  0  0  0  0
   37.2920   26.4820   41.7090 C   0  0  0  0  0  0  0  0  0  0  0  0
   38.4230   26.1910   42.4680 C   0  0  0  0  0  0  0  0  0  0  0  0
   39.0530   27.2580   43.1090 C   0  0  0  0  0  0  0  0  0  0  0  0
   38.5420   28.5010   42.9620 N   0  0  0  0  0  0  0  0  0  0  0  0
   37.4470   28.7340   42.2170 C   0  0  0  0  0  0  0  0  0  0  0  0
   36.8210   27.7370   41.5930 N   0  0  0  0  0  0  0  0  0  0  0  0
   36.7630   25.6820   41.1880 H   0  0  0  0  0  0  0  0  0  0  0  0
   39.9150   27.0100   43.6840 H   0  0  0  0  0  0  0  0  0  0  0  0
   38.8760   24.7670   42.5430 C   0  0  0  0  0  0  0  0  0  0  0  0
   39.6370   24.6870   43.6800 F   0  0  0  0  0  0  0  0  0  0  0  0
   39.6650   24.5530   41.4150 F   0  0  0  0  0  0  0  0  0  0  0  0
   37.7770   23.9600   42.5620 F   0  0  0  0  0  0  0  0  0  0  0  0
  1  3  1  0  0  0  0
  1 15  1  0  0  0  0
  2  1  1  0  0  0  0
  4  1  1  0  0  0  0
  5  4  1  0  0  0  0
  5 10  1  0  0  0  0
  6 11  1  0  0  0  0
  6  5  2  0  0  0  0
  7  8  2  0  0  0  0
  7  6  1  0  0  0  0
  8  9  1  0  0  0  0
  9  4  2  0  0  0  0
 12 14  2  0  0  0  0
 12  8  1  0  0  0  0
 13 12  1  0  0  0  0
 15 20  1  0  0  0  0
 16 17  1  0  0  0  0
 17 24  1  0  0  0  0
 17 18  2  0  0  0  0
 18 23  1  0  0  0  0
 19 18  1  0  0  0  0
 20 19  2  0  0  0  0
 21 16  2  0  0  0  0
 21 20  1  0  0  0  0
 22 16  1  0  0  0  0
 24 27  1  0  0  0  0
 24 25  1  0  0  0  0
 26 24  1  0  0  0  0
M  END
>  <minimizedAffinity>
-4.60156679

$$$$

 OpenBabel03252505553D

 27 28  0  0  0  0  0  0  0  0999 V2000
   37.0970   27.5110   42.9870 C   0  0  0  0  0  0  0  0  0  0  0  0
   37.8850   28.1270   43.4510 H   0  0  0  0  0  0  0  0  0  0  0  0
   36.3790   27.2590   43.7770 H   0  0  0  0  0  0  0  0  0  0  0  0
   37.6330   26.2830   42.3850 C   0  0  0  0  0  0  0  0  0  0  0  0
   38.7780   25.5810   42.6920 C   0  0  0  0  0  0  0  0  0  0  0  0
   39.0860   24.4570   42.0000 C   0  0  0  0  0  0  0  0  0  0  0  0
   38.2880   24.0160   41.0160 N   0  0  0  0  0  0  0  0  0  0  0  0
   37.1720   24.6910   40.7100 C   0  0  0  0  0  0  0  0  0  0  0  0
   36.8400   25.8220   41.3890 N   0  0  0  0  0  0  0  0  0  0  0  0
   39.3360   26.0420   43.5070 H   0  0  0  0  0  0  0  0  0  0  0  0
   39.9990   23.9620   42.2970 H   0  0  0  0  0  0  0  0  0  0  0  0
   36.2950   24.2010   39.6250 C   0  0  0  0  0  0  0  0  0  0  0  0
   36.0240   24.8690   38.8240 H   0  0  0  0  0  0  0  0  0  0  0  0
   35.9260   23.0130   39.7280 O   0  0  0  0  0  0  0  0  0  0  0  0
   36.4530   28.2370   41.9670 O   0  0  0  0  0  0  0  0  0  0  0  0
   36.5100   31.4600   40.4530 C   0  0  0  0  0  0  0  0  0  0  0  0
   37.8160   31.9050   40.6540 C   0  0  0  0  0  0  0  0  0  0  0  0
   38.6830   31.0500   41.3330 C   0  0  0  0  0  0  0  0  0  0  0  0
   38.2210   29.8520   41.7570 N   0  0  0  0  0  0  0  0  0  0  0  0
   36.9510   29.4650   41.5410 C   0  0  0  0  0  0  0  0  0  0  0  0
   36.0970   30.2580   40.8940 N   0  0  0  0  0  0  0  0  0  0  0  0
   35.7940   32.0910   39.9270 H   0  0  0  0  0  0  0  0  0  0  0  0
   39.6760   31.4120   41.4740 H   0  0  0  0  0  0  0  0  0  0  0  0
   38.1900   33.2550   40.1290 C   0  0  0  0  0  0  0  0  0  0  0  0
   37.0350   33.7750   39.6070 F   0  0  0  0  0  0  0  0  0  0  0  0
   39.1230   33.0320   39.1180 F   0  0  0  0  0  0  0  0  0  0  0  0
   38.7080   33.9910   41.1540 F   0  0  0  0  0  0  0  0  0  0  0  0
  1  2  1  0  0  0  0
  1  3  1  0  0  0  0
  4  5  1  0  0  0  0
  4  1  1  0  0  0  0
  5 10  1  0  0  0  0
  6 11  1  0  0  0  0
  6  5  2  0  0  0  0
  7  6  1  0  0  0  0
  8  7  2  0  0  0  0
  8  9  1  0  0  0  0
  9  4  2  0  0  0  0
 12 14  2  0  0  0  0
 12  8  1  0  0  0  0
 13 12  1  0  0  0  0
 15  1  1  0  0  0  0
 16 17  2  0  0  0  0
 16 21  1  0  0  0  0
 17 18  1  0  0  0  0
 18 23  1  0  0  0  0
 18 19  2  0  0  0  0
 20 19  1  0  0  0  0
 20 15  1  0  0  0  0
 21 20  2  0  0  0  0
 22 16  1  0  0  0  0
 24 17  1  0  0  0  0
 24 27  1  0  0  0  0
 25 24  1  0  0  0  0
 26 24  1  0  0  0  0
M  END
>  <minimizedAffinity>
-4.57653999

$$$$

 OpenBabel03252505553D

 27 28  0  0  0  0  0  0  0  0999 V2000
   40.8630   30.1570   40.9970 C   0  0  0  0  0  0  0  0  0  0  0  0
   41.9400   30.0300   41.1930 H   0  0  0  0  0  0  0  0  0  0  0  0
   40.6090   29.5060   40.1520 H   0  0  0  0  0  0  0  0  0  0  0  0
   40.5160   31.5500   40.6810 C   0  0  0  0  0  0  0  0  0  0  0  0
   41.3010   32.6810   40.7190 C   0  0  0  0  0  0  0  0  0  0  0  0
   40.7710   33.8820   40.3820 C   0  0  0  0  0  0  0  0  0  0  0  0
   39.4860   33.9850   40.0090 N   0  0  0  0  0  0  0  0  0  0  0  0
   38.7150   32.8910   39.9680 C   0  0  0  0  0  0  0  0  0  0  0  0
   39.2220   31.6740   40.3010 N   0  0  0  0  0  0  0  0  0  0  0  0
   42.3210   32.4620   41.0370 H   0  0  0  0  0  0  0  0  0  0  0  0
   41.4470   34.7230   40.4370 H   0  0  0  0  0  0  0  0  0  0  0  0
   37.2990   33.0080   39.5560 C   0  0  0  0  0  0  0  0  0  0  0  0
   36.6810   32.1260   39.5330 H   0  0  0  0  0  0  0  0  0  0  0  0
   36.9210   34.1610   39.2580 O   0  0  0  0  0  0  0  0  0  0  0  0
   40.1180   29.7820   42.1310 O   0  0  0  0  0  0  0  0  0  0  0  0
   38.6990   26.7340   40.9590 C   0  0  0  0  0  0  0  0  0  0  0  0
   37.9690   26.2600   42.0470 C   0  0  0  0  0  0  0  0  0  0  0  0
   37.9820   27.0320   43.2080 C   0  0  0  0  0  0  0  0  0  0  0  0
   38.6910   28.1840   43.2190 N   0  0  0  0  0  0  0  0  0  0  0  0
   39.3820   28.6010   42.1430 C   0  0  0  0  0  0  0  0  0  0  0  0
   39.3900   27.8870   41.0180 N   0  0  0  0  0  0  0  0  0  0  0  0
   38.7220   26.1660   40.0280 H   0  0  0  0  0  0  0  0  0  0  0  0
   37.4160   26.6500   44.0260 H   0  0  0  0  0  0  0  0  0  0  0  0
   37.2300   24.9680   41.8930 C   0  0  0  0  0  0  0  0  0  0  0  0
   36.6600   25.0210   40.6480 F   0  0  0  0  0  0  0  0  0  0  0  0
   36.2440   24.9670   42.8780 F   0  0  0  0  0  0  0  0  0  0  0  0
   38.1130   23.9400   42.0480 F   0  0  0  0  0  0  0  0  0  0  0  0
  1  2  1  0  0  0  0
  1 15  1  0  0  0  0
  3  1  1  0  0  0  0
  4  5  1  0  0  0  0
  4  1  1  0  0  0  0
  5 10  1  0  0  0  0
  6 11  1  0  0  0  0
  6  5  2  0  0  0  0
  7  6  1  0  0  0  0
  8  7  2  0  0  0  0
  8  9  1  0  0  0  0
  9  4  2  0  0  0  0
 12  8  1  0  0  0  0
 13 12  1  0  0  0  0
 14 12  2  0  0  0  0
 15 20  1  0  0  0  0
 16 21  2  0  0  0  0
 16 17  1  0  0  0  0
 17 18  2  0  0  0  0
 18 19  1  0  0  0  0
 18 23  1  0  0  0  0
 20 19  2  0  0  0  0
 21 20  1  0  0  0  0
 22 16  1  0  0  0  0
 24 17  1  0  0  0  0
 24 27  1  0  0  0  0
 24 26  1  0  0  0  0
 25 24  1  0  0  0  0
M  END
>  <minimizedAffinity>
-4.26759005

$$$$

 OpenBabel03252505553D

 27 28  0  0  0  0  0  0  0  0999 V2000
   39.7080   30.1230   37.9530 C   0  0  0  0  0  0  0  0  0  0  0  0
   40.1610   29.1820   38.3060 H   0  0  0  0  0  0  0  0  0  0  0  0
   39.2260   29.9080   36.9920 H   0  0  0  0  0  0  0  0  0  0  0  0
   40.7020   31.1930   37.7900 C   0  0  0  0  0  0  0  0  0  0  0  0
   40.6340   32.5180   38.1550 C   0  0  0  0  0  0  0  0  0  0  0  0
   41.6810   33.3420   37.9070 C   0  0  0  0  0  0  0  0  0  0  0  0
   42.7900   32.8810   37.3060 N   0  0  0  0  0  0  0  0  0  0  0  0
   42.8660   31.5930   36.9470 C   0  0  0  0  0  0  0  0  0  0  0  0
   41.8290   30.7460   37.1850 N   0  0  0  0  0  0  0  0  0  0  0  0
   39.6850   32.7650   38.6320 H   0  0  0  0  0  0  0  0  0  0  0  0
   41.5540   34.3680   38.2210 H   0  0  0  0  0  0  0  0  0  0  0  0
   44.0890   31.0880   36.2850 C   0  0  0  0  0  0  0  0  0  0  0  0
   44.9010   31.7680   36.0920 H   0  0  0  0  0  0  0  0  0  0  0  0
   44.0780   29.8740   35.9930 O   0  0  0  0  0  0  0  0  0  0  0  0
   38.7490   30.5740   38.8800 O   0  0  0  0  0  0  0  0  0  0  0  0
   38.6240   27.7960   41.1050 C   0  0  0  0  0  0  0  0  0  0  0  0
   37.4770   28.0220   41.8630 C   0  0  0  0  0  0  0  0  0  0  0  0
   36.7420   29.1730   41.5800 C   0  0  0  0  0  0  0  0  0  0  0  0
   37.1720   29.9990   40.6000 N   0  0  0  0  0  0  0  0  0  0  0  0
   38.2870   29.7400   39.8940 C   0  0  0  0  0  0  0  0  0  0  0  0
   39.0120   28.6480   40.1380 N   0  0  0  0  0  0  0  0  0  0  0  0
   39.2330   26.9110   41.2870 H   0  0  0  0  0  0  0  0  0  0  0  0
   35.8690   29.3230   42.1730 H   0  0  0  0  0  0  0  0  0  0  0  0
   37.1190   27.0220   42.9170 C   0  0  0  0  0  0  0  0  0  0  0  0
   38.2480   26.8780   43.6800 F   0  0  0  0  0  0  0  0  0  0  0  0
   36.8330   25.8360   42.2440 F   0  0  0  0  0  0  0  0  0  0  0  0
   36.0440   27.4900   43.6140 F   0  0  0  0  0  0  0  0  0  0  0  0
  1  2  1  0  0  0  0
  1 15  1  0  0  0  0
  3  1  1  0  0  0  0
  4  1  1  0  0  0  0
  4  5  1  0  0  0  0
  5 10  1  0  0  0  0
  6  5  2  0  0  0  0
  6 11  1  0  0  0  0
  7  6  1  0  0  0  0
  8  9  1  0  0  0  0
  8  7  2  0  0  0  0
  9  4  2  0  0  0  0
 12  8  1  0  0  0  0
 13 12  1  0  0  0  0
 14 12  2  0  0  0  0
 15 20  1  0  0  0  0
 16 22  1  0  0  0  0
 16 17  1  0  0  0  0
 17 24  1  0  0  0  0
 18 17  2  0  0  0  0
 18 23  1  0  0  0  0
 19 18  1  0  0  0  0
 20 21  1  0  0  0  0
 20 19  2  0  0  0  0
 21 16  2  0  0  0  0
 24 27  1  0  0  0  0
 24 25  1  0  0  0  0
 26 24  1  0  0  0  0
M  END
>  <minimizedAffinity>
-4.24200106

$$$$
