
 OpenBabel03242521303D

 41 43  0  0  1  0  0  0  0  0999 V2000
   47.9520   33.3510   42.4620 C   0  0  1  0  0  0  0  0  0  0  0  0
   46.4800   33.6800   42.2140 C   0  0  2  0  0  0  0  0  0  0  0  0
   46.3190   34.5750   41.1990 O   0  0  0  0  0  0  0  0  0  0  0  0
   46.6610   33.9590   40.0250 C   0  0  0  0  0  0  0  0  0  0  0  0
   48.1370   33.7400   39.9850 C   0  0  2  0  0  0  0  0  0  0  0  0
   48.7410   33.1460   41.2430 C   0  0  2  0  0  0  0  0  0  0  0  0
   47.9290   32.3710   43.0300 H   0  0  0  0  0  0  0  0  0  0  0  0
   46.0220   32.6990   41.9110 H   0  0  0  0  0  0  0  0  0  0  0  0
   46.0770   33.0290   39.8730 H   0  0  0  0  0  0  0  0  0  0  0  0
   46.4070   34.6330   39.1830 H   0  0  0  0  0  0  0  0  0  0  0  0
   48.3570   33.0700   39.1550 H   0  0  0  0  0  0  0  0  0  0  0  0
   49.7270   33.6500   41.3120 H   0  0  0  0  0  0  0  0  0  0  0  0
   44.5290   35.8530   44.6270 C   0  0  0  0  0  0  0  0  0  0  0  0
   45.1040   35.3950   43.4330 C   0  0  0  0  0  0  0  0  0  0  0  0
   45.8590   34.1760   43.4490 C   0  0  0  0  0  0  0  0  0  0  0  0
   45.9890   33.5130   44.6080 N   0  0  0  0  0  0  0  0  0  0  0  0
   45.4120   33.9920   45.7570 C   0  0  0  0  0  0  0  0  0  0  0  0
   44.6940   35.1440   45.7680 N   0  0  0  0  0  0  0  0  0  0  0  0
   43.9800   36.7790   44.5120 H   0  0  0  0  0  0  0  0  0  0  0  0
   44.9900   35.9420   42.5010 H   0  0  0  0  0  0  0  0  0  0  0  0
   45.5150   33.4590   46.7020 H   0  0  0  0  0  0  0  0  0  0  0  0
   48.5390   34.2360   43.3520 O   0  0  0  0  0  0  0  0  0  0  0  0
   48.4120   33.9740   44.3000 H   0  0  0  0  0  0  0  0  0  0  0  0
   48.6860   35.0120   39.7300 O   0  0  0  0  0  0  0  0  0  0  0  0
   48.8120   35.1870   38.7800 H   0  0  0  0  0  0  0  0  0  0  0  0
   49.0760   31.7940   41.0100 O   0  0  0  0  0  0  0  0  0  0  0  0
   51.3300   32.4200   41.4170 N   0  0  0  0  0  0  0  0  0  0  0  0
   51.2430   31.6770   42.6970 C   0  0  0  0  0  0  0  0  0  0  0  0
   51.6930   30.3160   42.2030 C   0  0  0  0  0  0  0  0  0  0  0  0
   50.8870   30.2060   40.9190 C   0  0  0  0  0  0  0  0  0  0  0  0
   50.3950   31.6370   40.6490 C   0  0  1  0  0  0  0  0  0  0  0  0
   52.2750   32.2170   41.0200 H   0  0  0  0  0  0  0  0  0  0  0  0
   51.9300   32.1250   43.4300 H   0  0  0  0  0  0  0  0  0  0  0  0
   50.2000   31.6080   43.0130 H   0  0  0  0  0  0  0  0  0  0  0  0
   51.4460   29.5120   42.9260 H   0  0  0  0  0  0  0  0  0  0  0  0
   52.7940   30.3240   42.0180 H   0  0  0  0  0  0  0  0  0  0  0  0
   50.0200   29.5240   41.0610 H   0  0  0  0  0  0  0  0  0  0  0  0
   51.5040   29.8130   40.0980 H   0  0  0  0  0  0  0  0  0  0  0  0
   50.5900   31.8020   39.1700 C   0  0  0  0  0  0  0  0  0  0  0  0
   49.9880   32.0340   38.3360 H   0  0  0  0  0  0  0  0  0  0  0  0
   51.7370   31.6300   38.7590 O   0  0  0  0  0  0  0  0  0  0  0  0
  1  7  1  1  0  0  0
  1 22  1  0  0  0  0
  2  8  1  6  0  0  0
  2  1  1  0  0  0  0
  2 15  1  0  0  0  0
  3  2  1  0  0  0  0
  4  3  1  0  0  0  0
  5 11  1  6  0  0  0
  5  4  1  0  0  0  0
  5  6  1  0  0  0  0
  6 12  1  1  0  0  0
  6  1  1  0  0  0  0
  9  4  1  0  0  0  0
 10  4  1  0  0  0  0
 13 18  1  0  0  0  0
 14 15  1  0  0  0  0
 14 13  2  0  0  0  0
 15 16  2  0  0  0  0
 16 17  1  0  0  0  0
 17 18  2  0  0  0  0
 17 21  1  0  0  0  0
 19 13  1  0  0  0  0
 20 14  1  0  0  0  0
 22 23  1  0  0  0  0
 24  5  1  0  0  0  0
 25 24  1  0  0  0  0
 26  6  1  0  0  0  0
 27 28  1  0  0  0  0
 28 34  1  0  0  0  0
 28 33  1  0  0  0  0
 29 28  1  0  0  0  0
 29 35  1  0  0  0  0
 30 37  1  0  0  0  0
 30 29  1  0  0  0  0
 31 39  1  6  0  0  0
 31 30  1  0  0  0  0
 31 26  1  0  0  0  0
 31 27  1  0  0  0  0
 32 27  1  0  0  0  0
 36 29  1  0  0  0  0
 38 30  1  0  0  0  0
 40 39  1  0  0  0  0
 41 39  2  0  0  0  0
M  END
>  <minimizedAffinity>
-5.29048491

>  <minimizedRMSD>
0.621747553

$$$$
