
 OpenBabel03242521483D

 14 14  0  0  0  0  0  0  0  0999 V2000
   44.5020   36.0000   44.5790 C   0  0  0  0  0  0  0  0  0  0  0  0
   45.1700   35.9410   43.3420 C   0  0  0  0  0  0  0  0  0  0  0  0
   46.0740   34.9050   43.1390 C   0  0  0  0  0  0  0  0  0  0  0  0
   46.2680   34.0080   44.1360 N   0  0  0  0  0  0  0  0  0  0  0  0
   45.6080   34.0990   45.3070 C   0  0  0  0  0  0  0  0  0  0  0  0
   44.7370   35.0790   45.5300 N   0  0  0  0  0  0  0  0  0  0  0  0
   43.7970   36.8010   44.7490 H   0  0  0  0  0  0  0  0  0  0  0  0
   44.9940   36.6680   42.5740 H   0  0  0  0  0  0  0  0  0  0  0  0
   46.7590   34.8130   41.9180 N   0  0  0  0  0  0  0  0  0  0  0  0
   47.1470   33.9380   41.4980 H   0  0  0  0  0  0  0  0  0  0  0  0
   46.9370   35.6530   41.3160 H   0  0  0  0  0  0  0  0  0  0  0  0
   45.8710   33.0950   46.3310 C   0  0  0  0  0  0  0  0  0  0  0  0
   46.6760   32.3650   46.1810 H   0  0  0  0  0  0  0  0  0  0  0  0
   45.1970   33.0420   47.3890 O   0  0  0  0  0  0  0  0  0  0  0  0
  1  7  1  0  0  0  0
  1  6  1  0  0  0  0
  2  1  2  0  0  0  0
  3  2  1  0  0  0  0
  3  4  2  0  0  0  0
  4  5  1  0  0  0  0
  5  6  2  0  0  0  0
  5 12  1  0  0  0  0
  8  2  1  0  0  0  0
  9  3  1  0  0  0  0
 10  9  1  0  0  0  0
 11  9  1  0  0  0  0
 12 14  2  0  0  0  0
 13 12  1  0  0  0  0
M  END
>  <minimizedAffinity>
-3.48516822

>  <minimizedRMSD>
0.206973642

$$$$
