
 OpenBabel03252503113D

 28 30  0  0  0  0  0  0  0  0999 V2000
   45.2440   36.1620   43.4800 C   0  0  0  0  0  0  0  0  0  0  0  0
   45.8810   34.9510   43.1580 C   0  0  0  0  0  0  0  0  0  0  0  0
   45.8160   33.9730   44.1320 C   0  0  0  0  0  0  0  0  0  0  0  0
   45.1860   34.1640   45.3090 N   0  0  0  0  0  0  0  0  0  0  0  0
   44.5860   35.3560   45.5710 C   0  0  0  0  0  0  0  0  0  0  0  0
   44.6170   36.3410   44.6620 N   0  0  0  0  0  0  0  0  0  0  0  0
   45.2550   36.9720   42.7620 H   0  0  0  0  0  0  0  0  0  0  0  0
   44.0920   35.4670   46.5280 H   0  0  0  0  0  0  0  0  0  0  0  0
   46.4320   32.7350   43.8880 C   0  0  0  0  0  0  0  0  0  0  0  0
   47.6970   32.2410   44.0210 C   0  0  0  0  0  0  0  0  0  0  0  0
   48.0280   30.9990   43.7130 C   0  0  0  0  0  0  0  0  0  0  0  0
   47.0270   30.2050   43.2430 C   0  0  0  0  0  0  0  0  0  0  0  0
   45.5610   31.3110   43.2550 S   0  0  0  0  0  0  0  0  0  0  0  0
   48.4210   32.9870   44.4130 H   0  0  0  0  0  0  0  0  0  0  0  0
   49.0210   30.5770   43.8050 H   0  0  0  0  0  0  0  0  0  0  0  0
   47.1250   29.0840   42.9210 H   0  0  0  0  0  0  0  0  0  0  0  0
   46.5300   34.8020   41.8990 C   0  0  0  0  0  0  0  0  0  0  0  0
   47.7420   35.1890   41.8620 O   0  0  0  0  0  0  0  0  0  0  0  0
   45.7900   34.2240   40.7320 C   0  0  0  0  0  0  0  0  0  0  0  0
   44.4210   34.2580   40.5320 C   0  0  0  0  0  0  0  0  0  0  0  0
   44.2120   33.6220   39.3640 N   0  0  0  0  0  0  0  0  0  0  0  0
   45.4230   33.2150   38.8720 C   0  0  0  0  0  0  0  0  0  0  0  0
   46.3990   33.5880   39.7180 N   0  0  0  0  0  0  0  0  0  0  0  0
   43.7420   34.7300   41.2410 H   0  0  0  0  0  0  0  0  0  0  0  0
   43.2550   33.4890   38.9470 H   0  0  0  0  0  0  0  0  0  0  0  0
   45.6120   32.4900   37.6230 C   0  0  0  0  0  0  0  0  0  0  0  0
   45.8800   31.4460   37.6230 H   0  0  0  0  0  0  0  0  0  0  0  0
   45.4640   33.0850   36.5130 O   0  0  0  0  0  0  0  0  0  0  0  0
  1  6  1  0  0  0  0
  2  1  2  0  0  0  0
  2  3  1  0  0  0  0
  3  4  2  0  0  0  0
  4  5  1  0  0  0  0
  5  8  1  0  0  0  0
  6  5  2  0  0  0  0
  7  1  1  0  0  0  0
  9 10  2  0  0  0  0
  9  3  1  0  0  0  0
 10 14  1  0  0  0  0
 11 15  1  0  0  0  0
 11 10  1  0  0  0  0
 12 13  1  0  0  0  0
 12 11  2  0  0  0  0
 13  9  1  0  0  0  0
 16 12  1  0  0  0  0
 17  2  1  0  0  0  0
 18 17  2  0  0  0  0
 19 17  1  0  0  0  0
 20 19  2  0  0  0  0
 20 24  1  0  0  0  0
 21 20  1  0  0  0  0
 22 21  1  0  0  0  0
 22 23  2  0  0  0  0
 23 19  1  0  0  0  0
 25 21  1  0  0  0  0
 26 22  1  0  0  0  0
 27 26  1  0  0  0  0
 28 26  2  0  0  0  0
M  END
>  <minimizedAffinity>
-4.40121603

>  <minimizedRMSD>
0.109804139

$$$$
