
 OpenBabel03252507343D

 43 45  0  0  1  0  0  0  0  0999 V2000
   38.5580   32.1700   40.8730 C   0  0  2  0  0  0  0  0  0  0  0  0
   37.7190   33.2310   40.1110 C   0  0  0  0  0  0  0  0  0  0  0  0
   38.4480   34.5350   40.1250 C   0  0  0  0  0  0  0  0  0  0  0  0
   39.9040   34.4700   39.8190 C   0  0  0  0  0  0  0  0  0  0  0  0
   40.5790   33.3250   40.3770 C   0  0  0  0  0  0  0  0  0  0  0  0
   39.8200   31.9950   40.1810 C   0  0  2  0  0  0  0  0  0  0  0  0
   38.6740   32.6360   41.8750 H   0  0  0  0  0  0  0  0  0  0  0  0
   36.7320   33.3680   40.5950 H   0  0  0  0  0  0  0  0  0  0  0  0
   37.5260   32.9460   39.0740 H   0  0  0  0  0  0  0  0  0  0  0  0
   38.1580   35.0290   41.0730 H   0  0  0  0  0  0  0  0  0  0  0  0
   37.9740   35.1720   39.3230 H   0  0  0  0  0  0  0  0  0  0  0  0
   40.2780   35.0200   38.9560 H   0  0  0  0  0  0  0  0  0  0  0  0
   40.2770   35.2820   40.5660 H   0  0  0  0  0  0  0  0  0  0  0  0
   41.5610   33.1670   39.8500 H   0  0  0  0  0  0  0  0  0  0  0  0
   40.8380   33.3140   41.4560 H   0  0  0  0  0  0  0  0  0  0  0  0
   40.5630   31.2830   40.5450 H   0  0  0  0  0  0  0  0  0  0  0  0
   37.8310   30.9280   41.0390 C   0  0  0  0  0  0  0  0  0  0  0  0
   36.4930   30.9170   40.6660 C   0  0  0  0  0  0  0  0  0  0  0  0
   35.7340   29.7340   40.8280 C   0  0  0  0  0  0  0  0  0  0  0  0
   36.4020   28.6360   41.3610 N   0  0  0  0  0  0  0  0  0  0  0  0
   37.6910   28.7130   41.6960 C   0  0  0  0  0  0  0  0  0  0  0  0
   38.3940   29.8350   41.5400 N   0  0  0  0  0  0  0  0  0  0  0  0
   35.8060   31.6070   40.2180 H   0  0  0  0  0  0  0  0  0  0  0  0
   34.7180   29.5430   40.6050 H   0  0  0  0  0  0  0  0  0  0  0  0
   38.3440   27.5140   42.2360 C   0  0  0  0  0  0  0  0  0  0  0  0
   39.2280   27.5980   43.2890 C   0  0  0  0  0  0  0  0  0  0  0  0
   39.8840   26.5390   43.8610 C   0  0  0  0  0  0  0  0  0  0  0  0
   39.5940   25.3260   43.2930 C   0  0  0  0  0  0  0  0  0  0  0  0
   38.7050   25.2020   42.2260 C   0  0  0  0  0  0  0  0  0  0  0  0
   38.0860   26.3080   41.7050 N   0  0  0  0  0  0  0  0  0  0  0  0
   39.4030   28.6060   43.6840 H   0  0  0  0  0  0  0  0  0  0  0  0
   40.5720   26.6370   44.6890 H   0  0  0  0  0  0  0  0  0  0  0  0
   40.0520   24.4150   43.6610 H   0  0  0  0  0  0  0  0  0  0  0  0
   38.4300   23.8950   41.6570 C   0  0  0  0  0  0  0  0  0  0  0  0
   39.2000   23.1560   41.6050 H   0  0  0  0  0  0  0  0  0  0  0  0
   37.2840   23.6280   41.2240 O   0  0  0  0  0  0  0  0  0  0  0  0
   39.5740   31.8060   38.7480 N   0  0  0  0  0  0  0  0  0  0  0  0
   40.4450   31.5250   37.6830 C   0  0  0  0  0  0  0  0  0  0  0  0
   40.9270   30.3560   37.4640 O   0  0  0  0  0  0  0  0  0  0  0  0
   40.7520   32.6430   36.8500 N   0  0  0  0  0  0  0  0  0  0  0  0
   38.5840   31.9450   38.3140 H   0  0  0  0  0  0  0  0  0  0  0  0
   40.0990   33.3060   36.3700 H   0  0  0  0  0  0  0  0  0  0  0  0
   41.7460   32.8930   36.6500 H   0  0  0  0  0  0  0  0  0  0  0  0
  1 17  1  0  0  0  0
  1  7  1  1  0  0  0
  2  3  1  0  0  0  0
  2  8  1  0  0  0  0
  2  1  1  0  0  0  0
  3 10  1  0  0  0  0
  4  3  1  0  0  0  0
  4  5  1  0  0  0  0
  4 13  1  0  0  0  0
  5 15  1  0  0  0  0
  6  5  1  0  0  0  0
  6 16  1  1  0  0  0
  6  1  1  0  0  0  0
  9  2  1  0  0  0  0
 11  3  1  0  0  0  0
 12  4  1  0  0  0  0
 14  5  1  0  0  0  0
 17 22  1  0  0  0  0
 18 19  1  0  0  0  0
 18 17  2  0  0  0  0
 19 20  2  0  0  0  0
 20 21  1  0  0  0  0
 21 25  1  0  0  0  0
 22 21  2  0  0  0  0
 23 18  1  0  0  0  0
 24 19  1  0  0  0  0
 25 26  1  0  0  0  0
 26 31  1  0  0  0  0
 26 27  2  0  0  0  0
 27 32  1  0  0  0  0
 28 33  1  0  0  0  0
 28 27  1  0  0  0  0
 29 28  2  0  0  0  0
 30 29  1  0  0  0  0
 30 25  2  0  0  0  0
 34 29  1  0  0  0  0
 35 34  1  0  0  0  0
 36 34  2  0  0  0  0
 37  6  1  0  0  0  0
 38 37  1  0  0  0  0
 39 38  2  0  0  0  0
 40 38  1  0  0  0  0
 41 37  1  0  0  0  0
 42 40  1  0  0  0  0
 43 40  1  0  0  0  0
M  END
>  <minimizedAffinity>
-6.46177578

$$$$

 OpenBabel03252507343D

 43 45  0  0  1  0  0  0  0  0999 V2000
   38.2470   31.6930   40.7920 C   0  0  2  0  0  0  0  0  0  0  0  0
   37.4940   32.8240   40.0400 C   0  0  0  0  0  0  0  0  0  0  0  0
   38.2700   34.0940   40.1600 C   0  0  0  0  0  0  0  0  0  0  0  0
   39.7380   33.9840   39.9310 C   0  0  0  0  0  0  0  0  0  0  0  0
   40.3360   32.7870   40.4650 C   0  0  0  0  0  0  0  0  0  0  0  0
   39.5390   31.5000   40.1610 C   0  0  2  0  0  0  0  0  0  0  0  0
   38.3250   32.1050   41.8210 H   0  0  0  0  0  0  0  0  0  0  0  0
   36.4870   32.9780   40.4770 H   0  0  0  0  0  0  0  0  0  0  0  0
   37.3490   32.5980   38.9810 H   0  0  0  0  0  0  0  0  0  0  0  0
   37.9470   34.5530   41.1150 H   0  0  0  0  0  0  0  0  0  0  0  0
   37.8670   34.7890   39.3680 H   0  0  0  0  0  0  0  0  0  0  0  0
   40.1800   34.5600   39.1180 H   0  0  0  0  0  0  0  0  0  0  0  0
   40.1000   34.7430   40.7370 H   0  0  0  0  0  0  0  0  0  0  0  0
   41.3390   32.6150   39.9850 H   0  0  0  0  0  0  0  0  0  0  0  0
   40.5330   32.7130   41.5550 H   0  0  0  0  0  0  0  0  0  0  0  0
   40.2320   30.7410   40.5280 H   0  0  0  0  0  0  0  0  0  0  0  0
   37.4650   30.4760   40.8550 C   0  0  0  0  0  0  0  0  0  0  0  0
   36.1270   30.5580   40.4930 C   0  0  0  0  0  0  0  0  0  0  0  0
   35.3150   29.4010   40.5570 C   0  0  0  0  0  0  0  0  0  0  0  0
   35.9340   28.2310   40.9870 N   0  0  0  0  0  0  0  0  0  0  0  0
   37.2270   28.2210   41.3180 C   0  0  0  0  0  0  0  0  0  0  0  0
   37.9800   29.3190   41.2550 N   0  0  0  0  0  0  0  0  0  0  0  0
   35.4700   31.3140   40.1110 H   0  0  0  0  0  0  0  0  0  0  0  0
   34.2900   29.2760   40.3260 H   0  0  0  0  0  0  0  0  0  0  0  0
   37.8260   26.9510   41.7460 C   0  0  0  0  0  0  0  0  0  0  0  0
   37.1000   25.7810   41.7340 C   0  0  0  0  0  0  0  0  0  0  0  0
   37.5700   24.5500   42.1120 C   0  0  0  0  0  0  0  0  0  0  0  0
   38.8770   24.5510   42.5270 C   0  0  0  0  0  0  0  0  0  0  0  0
   39.6430   25.7170   42.5540 C   0  0  0  0  0  0  0  0  0  0  0  0
   39.1030   26.9130   42.1600 N   0  0  0  0  0  0  0  0  0  0  0  0
   36.0620   25.8680   41.3880 H   0  0  0  0  0  0  0  0  0  0  0  0
   36.9750   23.6480   42.0900 H   0  0  0  0  0  0  0  0  0  0  0  0
   39.3600   23.6370   42.8510 H   0  0  0  0  0  0  0  0  0  0  0  0
   41.0230   25.6680   43.0020 C   0  0  0  0  0  0  0  0  0  0  0  0
   41.2760   25.9440   44.0020 H   0  0  0  0  0  0  0  0  0  0  0  0
   41.9260   25.3010   42.2120 O   0  0  0  0  0  0  0  0  0  0  0  0
   39.3660   31.3920   38.7100 N   0  0  0  0  0  0  0  0  0  0  0  0
   40.3000   31.2570   37.6680 C   0  0  0  0  0  0  0  0  0  0  0  0
   40.8870   30.1490   37.3950 O   0  0  0  0  0  0  0  0  0  0  0  0
   40.5440   32.4520   36.9260 N   0  0  0  0  0  0  0  0  0  0  0  0
   38.3860   31.4790   38.2410 H   0  0  0  0  0  0  0  0  0  0  0  0
   39.8560   33.0910   36.4610 H   0  0  0  0  0  0  0  0  0  0  0  0
   41.5200   32.7950   36.7880 H   0  0  0  0  0  0  0  0  0  0  0  0
  1 17  1  0  0  0  0
  1  7  1  1  0  0  0
  2  3  1  0  0  0  0
  2  8  1  0  0  0  0
  2  1  1  0  0  0  0
  3 10  1  0  0  0  0
  4  3  1  0  0  0  0
  4  5  1  0  0  0  0
  4 13  1  0  0  0  0
  5 15  1  0  0  0  0
  6  5  1  0  0  0  0
  6 16  1  1  0  0  0
  6  1  1  0  0  0  0
  9  2  1  0  0  0  0
 11  3  1  0  0  0  0
 12  4  1  0  0  0  0
 14  5  1  0  0  0  0
 17 22  1  0  0  0  0
 18 19  1  0  0  0  0
 18 17  2  0  0  0  0
 19 20  2  0  0  0  0
 20 21  1  0  0  0  0
 21 25  1  0  0  0  0
 22 21  2  0  0  0  0
 23 18  1  0  0  0  0
 24 19  1  0  0  0  0
 25 30  1  0  0  0  0
 26 25  2  0  0  0  0
 26 27  1  0  0  0  0
 27 28  2  0  0  0  0
 28 29  1  0  0  0  0
 28 33  1  0  0  0  0
 29 34  1  0  0  0  0
 30 29  2  0  0  0  0
 31 26  1  0  0  0  0
 32 27  1  0  0  0  0
 34 35  1  0  0  0  0
 36 34  2  0  0  0  0
 37  6  1  0  0  0  0
 38 37  1  0  0  0  0
 39 38  2  0  0  0  0
 40 38  1  0  0  0  0
 41 37  1  0  0  0  0
 42 40  1  0  0  0  0
 43 40  1  0  0  0  0
M  END
>  <minimizedAffinity>
-6.12773418

$$$$

 OpenBabel03252507343D

 43 45  0  0  1  0  0  0  0  0999 V2000
   39.0680   28.0640   43.0800 C   0  0  2  0  0  0  0  0  0  0  0  0
   38.8620   26.8920   42.0820 C   0  0  0  0  0  0  0  0  0  0  0  0
   37.7700   26.0060   42.5860 C   0  0  0  0  0  0  0  0  0  0  0  0
   36.5490   26.6970   43.0880 C   0  0  0  0  0  0  0  0  0  0  0  0
   36.8110   27.9120   43.8180 C   0  0  0  0  0  0  0  0  0  0  0  0
   37.8440   28.8390   43.1420 C   0  0  2  0  0  0  0  0  0  0  0  0
   39.2920   27.5300   44.0280 H   0  0  0  0  0  0  0  0  0  0  0  0
   39.7900   26.2960   41.9850 H   0  0  0  0  0  0  0  0  0  0  0  0
   38.6000   27.2380   41.0790 H   0  0  0  0  0  0  0  0  0  0  0  0
   38.2590   25.2930   43.2780 H   0  0  0  0  0  0  0  0  0  0  0  0
   37.4490   25.3690   41.7120 H   0  0  0  0  0  0  0  0  0  0  0  0
   35.5980   26.4890   42.5980 H   0  0  0  0  0  0  0  0  0  0  0  0
   36.3050   25.9950   43.9830 H   0  0  0  0  0  0  0  0  0  0  0  0
   35.8730   28.5310   43.8750 H   0  0  0  0  0  0  0  0  0  0  0  0
   37.1680   27.8530   44.8670 H   0  0  0  0  0  0  0  0  0  0  0  0
   37.7730   29.7200   43.7820 H   0  0  0  0  0  0  0  0  0  0  0  0
   40.2240   28.8660   42.7340 C   0  0  0  0  0  0  0  0  0  0  0  0
   41.4750   28.3470   43.0370 C   0  0  0  0  0  0  0  0  0  0  0  0
   42.6340   29.1010   42.7380 C   0  0  0  0  0  0  0  0  0  0  0  0
   42.4300   30.3430   42.1430 N   0  0  0  0  0  0  0  0  0  0  0  0
   41.1990   30.7820   41.8760 C   0  0  0  0  0  0  0  0  0  0  0  0
   40.1150   30.0610   42.1650 N   0  0  0  0  0  0  0  0  0  0  0  0
   41.8580   27.4340   43.4470 H   0  0  0  0  0  0  0  0  0  0  0  0
   43.6540   28.8710   42.8980 H   0  0  0  0  0  0  0  0  0  0  0  0
   41.0510   32.0920   41.2290 C   0  0  0  0  0  0  0  0  0  0  0  0
   42.1530   32.8350   40.8690 C   0  0  0  0  0  0  0  0  0  0  0  0
   42.1170   34.0640   40.2620 C   0  0  0  0  0  0  0  0  0  0  0  0
   40.8520   34.5350   40.0210 C   0  0  0  0  0  0  0  0  0  0  0  0
   39.7140   33.8100   40.3730 C   0  0  0  0  0  0  0  0  0  0  0  0
   39.8290   32.5860   40.9790 N   0  0  0  0  0  0  0  0  0  0  0  0
   43.1270   32.3860   41.0970 H   0  0  0  0  0  0  0  0  0  0  0  0
   43.0010   34.6240   39.9890 H   0  0  0  0  0  0  0  0  0  0  0  0
   40.6960   35.4960   39.5450 H   0  0  0  0  0  0  0  0  0  0  0  0
   38.3950   34.3510   40.0980 C   0  0  0  0  0  0  0  0  0  0  0  0
   38.2090   35.3990   40.1950 H   0  0  0  0  0  0  0  0  0  0  0  0
   37.4660   33.5870   39.7440 O   0  0  0  0  0  0  0  0  0  0  0  0
   37.3810   29.1390   41.7840 N   0  0  0  0  0  0  0  0  0  0  0  0
   36.3270   29.9410   41.3160 C   0  0  0  0  0  0  0  0  0  0  0  0
   36.3910   31.2220   41.2720 O   0  0  0  0  0  0  0  0  0  0  0  0
   35.1740   29.2200   40.8820 N   0  0  0  0  0  0  0  0  0  0  0  0
   37.8230   28.6620   40.9100 H   0  0  0  0  0  0  0  0  0  0  0  0
   35.1100   28.4320   40.1960 H   0  0  0  0  0  0  0  0  0  0  0  0
   34.2310   29.4610   41.2600 H   0  0  0  0  0  0  0  0  0  0  0  0
  1  6  1  0  0  0  0
  1  7  1  1  0  0  0
  2  3  1  0  0  0  0
  2  1  1  0  0  0  0
  3  4  1  0  0  0  0
  3 10  1  0  0  0  0
  4  5  1  0  0  0  0
  4 13  1  0  0  0  0
  5 14  1  0  0  0  0
  5 15  1  0  0  0  0
  6 16  1  1  0  0  0
  6  5  1  0  0  0  0
  8  2  1  0  0  0  0
  9  2  1  0  0  0  0
 11  3  1  0  0  0  0
 12  4  1  0  0  0  0
 17 18  1  0  0  0  0
 17  1  1  0  0  0  0
 18 23  1  0  0  0  0
 19 24  1  0  0  0  0
 19 18  2  0  0  0  0
 20 19  1  0  0  0  0
 21 20  2  0  0  0  0
 21 22  1  0  0  0  0
 22 17  2  0  0  0  0
 25 21  1  0  0  0  0
 26 31  1  0  0  0  0
 26 25  2  0  0  0  0
 27 26  1  0  0  0  0
 28 27  2  0  0  0  0
 28 29  1  0  0  0  0
 29 30  2  0  0  0  0
 30 25  1  0  0  0  0
 32 27  1  0  0  0  0
 33 28  1  0  0  0  0
 34 35  1  0  0  0  0
 34 29  1  0  0  0  0
 36 34  2  0  0  0  0
 37  6  1  0  0  0  0
 38 37  1  0  0  0  0
 39 38  2  0  0  0  0
 40 43  1  0  0  0  0
 40 38  1  0  0  0  0
 41 37  1  0  0  0  0
 42 40  1  0  0  0  0
M  END
>  <minimizedAffinity>
-6.01758528

$$$$

 OpenBabel03252507343D

 43 45  0  0  1  0  0  0  0  0999 V2000
   37.8950   31.6650   39.7960 C   0  0  2  0  0  0  0  0  0  0  0  0
   37.2280   32.9190   39.1680 C   0  0  0  0  0  0  0  0  0  0  0  0
   37.7250   34.1410   39.8690 C   0  0  0  0  0  0  0  0  0  0  0  0
   39.1930   34.2000   40.1130 C   0  0  0  0  0  0  0  0  0  0  0  0
   39.7880   32.9380   40.4750 C   0  0  0  0  0  0  0  0  0  0  0  0
   39.3280   31.7550   39.5950 C   0  0  2  0  0  0  0  0  0  0  0  0
   37.6000   31.7510   40.8630 H   0  0  0  0  0  0  0  0  0  0  0  0
   36.1260   32.8690   39.2750 H   0  0  0  0  0  0  0  0  0  0  0  0
   37.4390   33.0150   38.1010 H   0  0  0  0  0  0  0  0  0  0  0  0
   37.0660   34.2680   40.7510 H   0  0  0  0  0  0  0  0  0  0  0  0
   37.4690   35.0150   39.2030 H   0  0  0  0  0  0  0  0  0  0  0  0
   39.7590   35.0220   39.6740 H   0  0  0  0  0  0  0  0  0  0  0  0
   39.1770   34.7010   41.1640 H   0  0  0  0  0  0  0  0  0  0  0  0
   40.9020   32.9850   40.3220 H   0  0  0  0  0  0  0  0  0  0  0  0
   39.6650   32.5510   41.5070 H   0  0  0  0  0  0  0  0  0  0  0  0
   39.9930   30.9670   39.9540 H   0  0  0  0  0  0  0  0  0  0  0  0
   37.3300   30.4380   39.2720 C   0  0  0  0  0  0  0  0  0  0  0  0
   36.7520   30.4890   38.0120 C   0  0  0  0  0  0  0  0  0  0  0  0
   36.1680   29.3210   37.4650 C   0  0  0  0  0  0  0  0  0  0  0  0
   36.2200   28.1740   38.2510 N   0  0  0  0  0  0  0  0  0  0  0  0
   36.7950   28.1940   39.4550 C   0  0  0  0  0  0  0  0  0  0  0  0
   37.3390   29.3020   39.9590 N   0  0  0  0  0  0  0  0  0  0  0  0
   36.6330   31.2230   37.2400 H   0  0  0  0  0  0  0  0  0  0  0  0
   35.6870   29.1740   36.5350 H   0  0  0  0  0  0  0  0  0  0  0  0
   36.8350   26.9460   40.2280 C   0  0  0  0  0  0  0  0  0  0  0  0
   37.1180   26.9530   41.5760 C   0  0  0  0  0  0  0  0  0  0  0  0
   37.1770   25.8450   42.3810 C   0  0  0  0  0  0  0  0  0  0  0  0
   36.9240   24.6650   41.7310 C   0  0  0  0  0  0  0  0  0  0  0  0
   36.6340   24.6190   40.3670 C   0  0  0  0  0  0  0  0  0  0  0  0
   36.5940   25.7710   39.6260 N   0  0  0  0  0  0  0  0  0  0  0  0
   37.3080   27.9390   42.0180 H   0  0  0  0  0  0  0  0  0  0  0  0
   37.4000   25.8830   43.4370 H   0  0  0  0  0  0  0  0  0  0  0  0
   36.9410   23.7210   42.2620 H   0  0  0  0  0  0  0  0  0  0  0  0
   36.3740   23.3440   39.7230 C   0  0  0  0  0  0  0  0  0  0  0  0
   36.1870   22.4710   40.3090 H   0  0  0  0  0  0  0  0  0  0  0  0
   36.3670   23.2650   38.4720 O   0  0  0  0  0  0  0  0  0  0  0  0
   39.6100   32.0800   38.1940 N   0  0  0  0  0  0  0  0  0  0  0  0
   40.8110   32.0950   37.4650 C   0  0  0  0  0  0  0  0  0  0  0  0
   41.3820   31.0290   37.0370 O   0  0  0  0  0  0  0  0  0  0  0  0
   41.3500   33.3960   37.2280 N   0  0  0  0  0  0  0  0  0  0  0  0
   38.8330   32.4440   37.5230 H   0  0  0  0  0  0  0  0  0  0  0  0
   40.8840   34.2360   36.8130 H   0  0  0  0  0  0  0  0  0  0  0  0
   42.3410   33.6080   37.4810 H   0  0  0  0  0  0  0  0  0  0  0  0
  1  7  1  1  0  0  0
  2  8  1  0  0  0  0
  2  1  1  0  0  0  0
  2  3  1  0  0  0  0
  3  4  1  0  0  0  0
  3 10  1  0  0  0  0
  4  5  1  0  0  0  0
  4 13  1  0  0  0  0
  5 15  1  0  0  0  0
  6  1  1  0  0  0  0
  6 16  1  1  0  0  0
  6  5  1  0  0  0  0
  9  2  1  0  0  0  0
 11  3  1  0  0  0  0
 12  4  1  0  0  0  0
 14  5  1  0  0  0  0
 17  1  1  0  0  0  0
 17 22  1  0  0  0  0
 18 17  2  0  0  0  0
 19 18  1  0  0  0  0
 19 20  2  0  0  0  0
 20 21  1  0  0  0  0
 21 22  2  0  0  0  0
 21 25  1  0  0  0  0
 23 18  1  0  0  0  0
 24 19  1  0  0  0  0
 25 26  1  0  0  0  0
 26 31  1  0  0  0  0
 26 27  2  0  0  0  0
 27 32  1  0  0  0  0
 28 33  1  0  0  0  0
 28 27  1  0  0  0  0
 29 28  2  0  0  0  0
 30 25  2  0  0  0  0
 30 29  1  0  0  0  0
 34 35  1  0  0  0  0
 34 29  1  0  0  0  0
 36 34  2  0  0  0  0
 37  6  1  0  0  0  0
 38 37  1  0  0  0  0
 39 38  2  0  0  0  0
 40 38  1  0  0  0  0
 40 43  1  0  0  0  0
 41 37  1  0  0  0  0
 42 40  1  0  0  0  0
M  END
>  <minimizedAffinity>
-5.83834696

$$$$

 OpenBabel03252507343D

 43 45  0  0  1  0  0  0  0  0999 V2000
   39.3050   28.0590   42.7420 C   0  0  2  0  0  0  0  0  0  0  0  0
   38.6550   26.9550   41.8640 C   0  0  0  0  0  0  0  0  0  0  0  0
   37.4970   26.3620   42.5970 C   0  0  0  0  0  0  0  0  0  0  0  0
   36.5820   27.3310   43.2620 C   0  0  0  0  0  0  0  0  0  0  0  0
   37.2450   28.4590   43.8660 C   0  0  0  0  0  0  0  0  0  0  0  0
   38.3240   29.1030   42.9700 C   0  0  2  0  0  0  0  0  0  0  0  0
   39.5660   27.5000   43.6660 H   0  0  0  0  0  0  0  0  0  0  0  0
   39.3870   26.1530   41.6420 H   0  0  0  0  0  0  0  0  0  0  0  0
   38.3040   27.3380   40.9030 H   0  0  0  0  0  0  0  0  0  0  0  0
   37.9260   25.5620   43.2340 H   0  0  0  0  0  0  0  0  0  0  0  0
   36.8850   25.8060   41.8300 H   0  0  0  0  0  0  0  0  0  0  0  0
   35.5350   27.3470   42.9570 H   0  0  0  0  0  0  0  0  0  0  0  0
   36.3470   26.7200   44.2250 H   0  0  0  0  0  0  0  0  0  0  0  0
   36.5020   29.2840   44.0480 H   0  0  0  0  0  0  0  0  0  0  0  0
   37.7630   28.3320   44.8390 H   0  0  0  0  0  0  0  0  0  0  0  0
   38.5760   29.9860   43.5600 H   0  0  0  0  0  0  0  0  0  0  0  0
   40.5320   28.5580   42.1570 C   0  0  0  0  0  0  0  0  0  0  0  0
   41.7180   28.2670   42.8170 C   0  0  0  0  0  0  0  0  0  0  0  0
   42.9420   28.7490   42.2970 C   0  0  0  0  0  0  0  0  0  0  0  0
   42.8670   29.4990   41.1280 N   0  0  0  0  0  0  0  0  0  0  0  0
   41.6930   29.7400   40.5410 C   0  0  0  0  0  0  0  0  0  0  0  0
   40.5470   29.2810   41.0430 N   0  0  0  0  0  0  0  0  0  0  0  0
   42.0080   27.6990   43.6790 H   0  0  0  0  0  0  0  0  0  0  0  0
   43.9280   28.6310   42.6610 H   0  0  0  0  0  0  0  0  0  0  0  0
   41.6820   30.5220   39.2990 C   0  0  0  0  0  0  0  0  0  0  0  0
   40.7560   31.5200   39.0940 C   0  0  0  0  0  0  0  0  0  0  0  0
   40.6660   32.3030   37.9720 C   0  0  0  0  0  0  0  0  0  0  0  0
   41.6040   32.0190   37.0130 C   0  0  0  0  0  0  0  0  0  0  0  0
   42.5570   31.0160   37.1850 C   0  0  0  0  0  0  0  0  0  0  0  0
   42.5850   30.2720   38.3370 N   0  0  0  0  0  0  0  0  0  0  0  0
   40.0410   31.6820   39.9110 H   0  0  0  0  0  0  0  0  0  0  0  0
   39.9270   33.0800   37.8420 H   0  0  0  0  0  0  0  0  0  0  0  0
   41.6330   32.5720   36.0810 H   0  0  0  0  0  0  0  0  0  0  0  0
   43.5300   30.7520   36.1400 C   0  0  0  0  0  0  0  0  0  0  0  0
   44.5110   31.1720   36.1970 H   0  0  0  0  0  0  0  0  0  0  0  0
   43.2210   30.0280   35.1650 O   0  0  0  0  0  0  0  0  0  0  0  0
   37.7060   29.4850   41.6970 N   0  0  0  0  0  0  0  0  0  0  0  0
   37.1380   30.6940   41.2640 C   0  0  0  0  0  0  0  0  0  0  0  0
   37.8400   31.7050   40.9000 O   0  0  0  0  0  0  0  0  0  0  0  0
   35.7100   30.7140   41.2510 N   0  0  0  0  0  0  0  0  0  0  0  0
   37.5540   28.7620   40.8950 H   0  0  0  0  0  0  0  0  0  0  0  0
   35.0460   30.0400   40.8030 H   0  0  0  0  0  0  0  0  0  0  0  0
   35.1910   31.4790   41.7370 H   0  0  0  0  0  0  0  0  0  0  0  0
  1  6  1  0  0  0  0
  1  7  1  1  0  0  0
  2  3  1  0  0  0  0
  2  1  1  0  0  0  0
  3 10  1  0  0  0  0
  3  4  1  0  0  0  0
  4  5  1  0  0  0  0
  4 13  1  0  0  0  0
  5 14  1  0  0  0  0
  5 15  1  0  0  0  0
  6 16  1  1  0  0  0
  6  5  1  0  0  0  0
  8  2  1  0  0  0  0
  9  2  1  0  0  0  0
 11  3  1  0  0  0  0
 12  4  1  0  0  0  0
 17  1  1  0  0  0  0
 17 18  1  0  0  0  0
 18 23  1  0  0  0  0
 19 24  1  0  0  0  0
 19 18  2  0  0  0  0
 20 19  1  0  0  0  0
 21 22  1  0  0  0  0
 21 20  2  0  0  0  0
 22 17  2  0  0  0  0
 25 21  1  0  0  0  0
 26 25  1  0  0  0  0
 26 31  1  0  0  0  0
 27 26  2  0  0  0  0
 28 29  2  0  0  0  0
 28 27  1  0  0  0  0
 29 30  1  0  0  0  0
 30 25  2  0  0  0  0
 32 27  1  0  0  0  0
 33 28  1  0  0  0  0
 34 35  1  0  0  0  0
 34 29  1  0  0  0  0
 36 34  2  0  0  0  0
 37  6  1  0  0  0  0
 38 37  1  0  0  0  0
 39 38  2  0  0  0  0
 40 38  1  0  0  0  0
 40 43  1  0  0  0  0
 41 37  1  0  0  0  0
 42 40  1  0  0  0  0
M  END
>  <minimizedAffinity>
-5.81642389

$$$$

 OpenBabel03252507343D

 43 45  0  0  1  0  0  0  0  0999 V2000
   36.5630   29.1440   37.7560 C   0  0  2  0  0  0  0  0  0  0  0  0
   37.3370   27.9400   37.1540 C   0  0  0  0  0  0  0  0  0  0  0  0
   36.9650   27.7870   35.7160 C   0  0  0  0  0  0  0  0  0  0  0  0
   36.9300   29.0430   34.9150 C   0  0  0  0  0  0  0  0  0  0  0  0
   36.4030   30.1840   35.6210 C   0  0  0  0  0  0  0  0  0  0  0  0
   36.9620   30.3480   37.0510 C   0  0  2  0  0  0  0  0  0  0  0  0
   35.5050   28.8620   37.5680 H   0  0  0  0  0  0  0  0  0  0  0  0
   37.0800   27.0050   37.6910 H   0  0  0  0  0  0  0  0  0  0  0  0
   38.4200   28.0600   37.2270 H   0  0  0  0  0  0  0  0  0  0  0  0
   36.0480   27.1650   35.7090 H   0  0  0  0  0  0  0  0  0  0  0  0
   37.7530   27.1260   35.2520 H   0  0  0  0  0  0  0  0  0  0  0  0
   37.5940   29.1280   34.0550 H   0  0  0  0  0  0  0  0  0  0  0  0
   36.0070   28.8010   34.2480 H   0  0  0  0  0  0  0  0  0  0  0  0
   36.7050   31.1310   35.0930 H   0  0  0  0  0  0  0  0  0  0  0  0
   35.3070   30.2820   35.7620 H   0  0  0  0  0  0  0  0  0  0  0  0
   36.5420   31.3180   37.3220 H   0  0  0  0  0  0  0  0  0  0  0  0
   36.7530   29.2430   39.1890 C   0  0  0  0  0  0  0  0  0  0  0  0
   36.2540   30.3730   39.8210 C   0  0  0  0  0  0  0  0  0  0  0  0
   36.4320   30.5270   41.2170 C   0  0  0  0  0  0  0  0  0  0  0  0
   37.1120   29.5040   41.8720 N   0  0  0  0  0  0  0  0  0  0  0  0
   37.5630   28.4420   41.2030 C   0  0  0  0  0  0  0  0  0  0  0  0
   37.3900   28.3110   39.8880 N   0  0  0  0  0  0  0  0  0  0  0  0
   35.6890   31.2380   39.5360 H   0  0  0  0  0  0  0  0  0  0  0  0
   36.1270   31.3100   41.8580 H   0  0  0  0  0  0  0  0  0  0  0  0
   38.2560   27.3880   41.9550 C   0  0  0  0  0  0  0  0  0  0  0  0
   38.9650   27.6780   43.0980 C   0  0  0  0  0  0  0  0  0  0  0  0
   39.6420   26.7660   43.8670 C   0  0  0  0  0  0  0  0  0  0  0  0
   39.5660   25.4770   43.4050 C   0  0  0  0  0  0  0  0  0  0  0  0
   38.8570   25.1460   42.2510 C   0  0  0  0  0  0  0  0  0  0  0  0
   38.2050   26.1140   41.5330 N   0  0  0  0  0  0  0  0  0  0  0  0
   38.9750   28.7340   43.3980 H   0  0  0  0  0  0  0  0  0  0  0  0
   40.1890   27.0250   44.7610 H   0  0  0  0  0  0  0  0  0  0  0  0
   40.0600   24.6670   43.9290 H   0  0  0  0  0  0  0  0  0  0  0  0
   38.8060   23.7660   41.8010 C   0  0  0  0  0  0  0  0  0  0  0  0
   39.6510   23.1250   41.9280 H   0  0  0  0  0  0  0  0  0  0  0  0
   37.7660   23.3220   41.2600 O   0  0  0  0  0  0  0  0  0  0  0  0
   38.4240   30.4130   36.9750 N   0  0  0  0  0  0  0  0  0  0  0  0
   39.3510   31.2700   37.5920 C   0  0  0  0  0  0  0  0  0  0  0  0
   39.7030   31.1500   38.8200 O   0  0  0  0  0  0  0  0  0  0  0  0
   39.8810   32.2870   36.7420 N   0  0  0  0  0  0  0  0  0  0  0  0
   38.9920   29.7670   36.3060 H   0  0  0  0  0  0  0  0  0  0  0  0
   40.3320   32.1910   35.8020 H   0  0  0  0  0  0  0  0  0  0  0  0
   39.8480   33.2880   37.0370 H   0  0  0  0  0  0  0  0  0  0  0  0
  1  7  1  6  0  0  0
  1 17  1  0  0  0  0
  2  9  1  0  0  0  0
  2  8  1  0  0  0  0
  2  1  1  0  0  0  0
  3  2  1  0  0  0  0
  4  5  1  0  0  0  0
  4  3  1  0  0  0  0
  5 15  1  0  0  0  0
  5  6  1  0  0  0  0
  6 16  1  1  0  0  0
  6  1  1  0  0  0  0
 10  3  1  0  0  0  0
 11  3  1  0  0  0  0
 12  4  1  0  0  0  0
 13  4  1  0  0  0  0
 14  5  1  0  0  0  0
 17 18  2  0  0  0  0
 17 22  1  0  0  0  0
 18 19  1  0  0  0  0
 19 24  1  0  0  0  0
 19 20  2  0  0  0  0
 21 20  1  0  0  0  0
 21 25  1  0  0  0  0
 22 21  2  0  0  0  0
 23 18  1  0  0  0  0
 25 26  1  0  0  0  0
 26 31  1  0  0  0  0
 26 27  2  0  0  0  0
 27 32  1  0  0  0  0
 28 27  1  0  0  0  0
 28 33  1  0  0  0  0
 29 28  2  0  0  0  0
 30 25  2  0  0  0  0
 30 29  1  0  0  0  0
 34 35  1  0  0  0  0
 34 29  1  0  0  0  0
 36 34  2  0  0  0  0
 37  6  1  0  0  0  0
 37 38  1  0  0  0  0
 38 39  2  0  0  0  0
 40 43  1  0  0  0  0
 40 38  1  0  0  0  0
 41 37  1  0  0  0  0
 42 40  1  0  0  0  0
M  END
>  <minimizedAffinity>
-5.81136036

$$$$

 OpenBabel03252507343D

 43 45  0  0  1  0  0  0  0  0999 V2000
   38.0520   32.1050   40.5380 C   0  0  2  0  0  0  0  0  0  0  0  0
   37.4610   33.3220   39.7760 C   0  0  0  0  0  0  0  0  0  0  0  0
   38.2750   34.5360   40.0830 C   0  0  0  0  0  0  0  0  0  0  0  0
   39.7530   34.3570   40.0400 C   0  0  0  0  0  0  0  0  0  0  0  0
   40.2160   33.0970   40.5630 C   0  0  0  0  0  0  0  0  0  0  0  0
   39.4060   31.8790   40.0690 C   0  0  2  0  0  0  0  0  0  0  0  0
   38.0110   32.4470   41.5940 H   0  0  0  0  0  0  0  0  0  0  0  0
   36.4140   33.5050   40.0870 H   0  0  0  0  0  0  0  0  0  0  0  0
   37.4480   33.1710   38.6940 H   0  0  0  0  0  0  0  0  0  0  0  0
   37.8490   34.9520   41.0180 H   0  0  0  0  0  0  0  0  0  0  0  0
   38.0150   35.3010   39.2950 H   0  0  0  0  0  0  0  0  0  0  0  0
   40.3270   34.9570   39.3330 H   0  0  0  0  0  0  0  0  0  0  0  0
   40.0400   35.0420   40.9370 H   0  0  0  0  0  0  0  0  0  0  0  0
   41.2650   32.8990   40.2060 H   0  0  0  0  0  0  0  0  0  0  0  0
   40.2620   32.9440   41.6610 H   0  0  0  0  0  0  0  0  0  0  0  0
   40.0060   31.0610   40.4690 H   0  0  0  0  0  0  0  0  0  0  0  0
   37.2110   30.9330   40.4140 C   0  0  0  0  0  0  0  0  0  0  0  0
   37.1050   30.1040   41.5220 C   0  0  0  0  0  0  0  0  0  0  0  0
   36.3110   28.9340   41.4450 C   0  0  0  0  0  0  0  0  0  0  0  0
   35.6750   28.6960   40.2300 N   0  0  0  0  0  0  0  0  0  0  0  0
   35.8170   29.5360   39.2040 C   0  0  0  0  0  0  0  0  0  0  0  0
   36.5700   30.6330   39.2900 N   0  0  0  0  0  0  0  0  0  0  0  0
   37.4620   30.1080   42.5320 H   0  0  0  0  0  0  0  0  0  0  0  0
   36.1180   28.1950   42.1750 H   0  0  0  0  0  0  0  0  0  0  0  0
   35.1050   29.2390   37.9550 C   0  0  0  0  0  0  0  0  0  0  0  0
   33.7730   28.8890   37.9620 C   0  0  0  0  0  0  0  0  0  0  0  0
   33.0230   28.5960   36.8520 C   0  0  0  0  0  0  0  0  0  0  0  0
   33.7140   28.6750   35.6710 C   0  0  0  0  0  0  0  0  0  0  0  0
   35.0640   29.0250   35.6250 C   0  0  0  0  0  0  0  0  0  0  0  0
   35.7490   29.3050   36.7790 N   0  0  0  0  0  0  0  0  0  0  0  0
   33.2950   28.8500   38.9490 H   0  0  0  0  0  0  0  0  0  0  0  0
   31.9770   28.3260   36.8900 H   0  0  0  0  0  0  0  0  0  0  0  0
   33.2280   28.4650   34.7250 H   0  0  0  0  0  0  0  0  0  0  0  0
   35.7530   29.0950   34.3490 C   0  0  0  0  0  0  0  0  0  0  0  0
   36.2800   29.9800   34.0680 H   0  0  0  0  0  0  0  0  0  0  0  0
   35.7320   28.1120   33.5710 O   0  0  0  0  0  0  0  0  0  0  0  0
   39.4230   31.8720   38.6030 N   0  0  0  0  0  0  0  0  0  0  0  0
   40.4690   31.6720   37.6860 C   0  0  0  0  0  0  0  0  0  0  0  0
   40.9490   30.5130   37.4140 O   0  0  0  0  0  0  0  0  0  0  0  0
   40.9570   32.8630   37.0670 N   0  0  0  0  0  0  0  0  0  0  0  0
   38.5350   32.1110   38.0180 H   0  0  0  0  0  0  0  0  0  0  0  0
   40.4230   33.6100   36.5630 H   0  0  0  0  0  0  0  0  0  0  0  0
   41.9770   33.0820   37.0820 H   0  0  0  0  0  0  0  0  0  0  0  0
  1  7  1  1  0  0  0
  2  3  1  0  0  0  0
  2  8  1  0  0  0  0
  2  1  1  0  0  0  0
  3 10  1  0  0  0  0
  4  3  1  0  0  0  0
  4  5  1  0  0  0  0
  4 13  1  0  0  0  0
  5 15  1  0  0  0  0
  6 16  1  1  0  0  0
  6  1  1  0  0  0  0
  6  5  1  0  0  0  0
  9  2  1  0  0  0  0
 11  3  1  0  0  0  0
 12  4  1  0  0  0  0
 14  5  1  0  0  0  0
 17  1  1  0  0  0  0
 17 18  1  0  0  0  0
 18 23  1  0  0  0  0
 19 18  2  0  0  0  0
 19 24  1  0  0  0  0
 20 19  1  0  0  0  0
 21 22  1  0  0  0  0
 21 20  2  0  0  0  0
 22 17  2  0  0  0  0
 25 26  1  0  0  0  0
 25 21  1  0  0  0  0
 26 31  1  0  0  0  0
 27 32  1  0  0  0  0
 27 26  2  0  0  0  0
 28 27  1  0  0  0  0
 29 28  2  0  0  0  0
 29 30  1  0  0  0  0
 30 25  2  0  0  0  0
 33 28  1  0  0  0  0
 34 29  1  0  0  0  0
 35 34  1  0  0  0  0
 36 34  2  0  0  0  0
 37  6  1  0  0  0  0
 38 37  1  0  0  0  0
 39 38  2  0  0  0  0
 40 43  1  0  0  0  0
 40 38  1  0  0  0  0
 41 37  1  0  0  0  0
 42 40  1  0  0  0  0
M  END
>  <minimizedAffinity>
-5.6908288

$$$$

 OpenBabel03252507343D

 43 45  0  0  1  0  0  0  0  0999 V2000
   38.1100   27.3130   42.3950 C   0  0  2  0  0  0  0  0  0  0  0  0
   39.4470   27.7310   43.0650 C   0  0  0  0  0  0  0  0  0  0  0  0
   39.9730   26.5870   43.8670 C   0  0  0  0  0  0  0  0  0  0  0  0
   39.9310   25.2530   43.2050 C   0  0  0  0  0  0  0  0  0  0  0  0
   38.7520   25.0210   42.4080 C   0  0  0  0  0  0  0  0  0  0  0  0
   38.3710   26.2060   41.4950 C   0  0  2  0  0  0  0  0  0  0  0  0
   37.4890   27.0230   43.2700 H   0  0  0  0  0  0  0  0  0  0  0  0
   39.2900   28.5970   43.7380 H   0  0  0  0  0  0  0  0  0  0  0  0
   40.2040   28.0280   42.3360 H   0  0  0  0  0  0  0  0  0  0  0  0
   39.4850   26.6670   44.8580 H   0  0  0  0  0  0  0  0  0  0  0  0
   41.0580   26.8150   44.0730 H   0  0  0  0  0  0  0  0  0  0  0  0
   40.8700   24.7220   43.0490 H   0  0  0  0  0  0  0  0  0  0  0  0
   39.6550   24.6040   44.1310 H   0  0  0  0  0  0  0  0  0  0  0  0
   38.9350   24.1670   41.6980 H   0  0  0  0  0  0  0  0  0  0  0  0
   37.7950   24.7660   42.9090 H   0  0  0  0  0  0  0  0  0  0  0  0
   37.5650   25.7590   40.9110 H   0  0  0  0  0  0  0  0  0  0  0  0
   37.4650   28.4310   41.7380 C   0  0  0  0  0  0  0  0  0  0  0  0
   36.1400   28.2680   41.3560 C   0  0  0  0  0  0  0  0  0  0  0  0
   35.4710   29.3240   40.6930 C   0  0  0  0  0  0  0  0  0  0  0  0
   36.2100   30.4820   40.4670 N   0  0  0  0  0  0  0  0  0  0  0  0
   37.4800   30.5730   40.8630 C   0  0  0  0  0  0  0  0  0  0  0  0
   38.0990   29.5690   41.4860 N   0  0  0  0  0  0  0  0  0  0  0  0
   35.3900   27.5090   41.4550 H   0  0  0  0  0  0  0  0  0  0  0  0
   34.4790   29.3790   40.3310 H   0  0  0  0  0  0  0  0  0  0  0  0
   38.2000   31.8280   40.6130 C   0  0  0  0  0  0  0  0  0  0  0  0
   37.5410   32.9460   40.1520 C   0  0  0  0  0  0  0  0  0  0  0  0
   38.1230   34.1600   39.8910 C   0  0  0  0  0  0  0  0  0  0  0  0
   39.4730   34.1980   40.1280 C   0  0  0  0  0  0  0  0  0  0  0  0
   40.1730   33.0850   40.5940 C   0  0  0  0  0  0  0  0  0  0  0  0
   39.5220   31.9030   40.8330 N   0  0  0  0  0  0  0  0  0  0  0  0
   36.4620   32.8300   39.9890 H   0  0  0  0  0  0  0  0  0  0  0  0
   37.5780   35.0210   39.5300 H   0  0  0  0  0  0  0  0  0  0  0  0
   40.0440   35.1030   39.9580 H   0  0  0  0  0  0  0  0  0  0  0  0
   41.6030   33.1740   40.8300 C   0  0  0  0  0  0  0  0  0  0  0  0
   42.1600   32.3050   41.1070 H   0  0  0  0  0  0  0  0  0  0  0  0
   42.1910   34.2750   40.7080 O   0  0  0  0  0  0  0  0  0  0  0  0
   39.5190   26.5250   40.6430 N   0  0  0  0  0  0  0  0  0  0  0  0
   39.6190   26.7460   39.2580 C   0  0  0  0  0  0  0  0  0  0  0  0
   39.2600   27.8430   38.6990 O   0  0  0  0  0  0  0  0  0  0  0  0
   40.1600   25.6540   38.5160 N   0  0  0  0  0  0  0  0  0  0  0  0
   40.5340   26.5630   41.0390 H   0  0  0  0  0  0  0  0  0  0  0  0
   41.0520   25.1280   38.6720 H   0  0  0  0  0  0  0  0  0  0  0  0
   39.6470   25.2750   37.6890 H   0  0  0  0  0  0  0  0  0  0  0  0
  1  2  1  0  0  0  0
  1  7  1  1  0  0  0
  2  8  1  0  0  0  0
  2  3  1  0  0  0  0
  3 11  1  0  0  0  0
  3 10  1  0  0  0  0
  4  3  1  0  0  0  0
  4 13  1  0  0  0  0
  5 15  1  0  0  0  0
  5  4  1  0  0  0  0
  6 16  1  6  0  0  0
  6  1  1  0  0  0  0
  6  5  1  0  0  0  0
  9  2  1  0  0  0  0
 12  4  1  0  0  0  0
 14  5  1  0  0  0  0
 17  1  1  0  0  0  0
 18 23  1  0  0  0  0
 18 17  2  0  0  0  0
 19 18  1  0  0  0  0
 20 19  2  0  0  0  0
 20 21  1  0  0  0  0
 21 22  2  0  0  0  0
 22 17  1  0  0  0  0
 24 19  1  0  0  0  0
 25 30  1  0  0  0  0
 25 21  1  0  0  0  0
 26 25  2  0  0  0  0
 27 28  2  0  0  0  0
 27 26  1  0  0  0  0
 28 29  1  0  0  0  0
 29 34  1  0  0  0  0
 29 30  2  0  0  0  0
 31 26  1  0  0  0  0
 32 27  1  0  0  0  0
 33 28  1  0  0  0  0
 34 35  1  0  0  0  0
 36 34  2  0  0  0  0
 37 41  1  0  0  0  0
 37  6  1  0  0  0  0
 38 37  1  0  0  0  0
 39 38  2  0  0  0  0
 40 42  1  0  0  0  0
 40 38  1  0  0  0  0
 43 40  1  0  0  0  0
M  END
>  <minimizedAffinity>
-5.68683815

$$$$

 OpenBabel03252507343D

 43 45  0  0  1  0  0  0  0  0999 V2000
   39.5510   32.7430   39.0560 C   0  0  2  0  0  0  0  0  0  0  0  0
   40.8250   32.5210   38.1970 C   0  0  0  0  0  0  0  0  0  0  0  0
   41.6050   33.7930   38.1350 C   0  0  0  0  0  0  0  0  0  0  0  0
   41.7720   34.5180   39.4260 C   0  0  0  0  0  0  0  0  0  0  0  0
   40.6110   34.4890   40.2790 C   0  0  0  0  0  0  0  0  0  0  0  0
   39.9590   33.0950   40.4030 C   0  0  2  0  0  0  0  0  0  0  0  0
   39.0510   33.5800   38.5220 H   0  0  0  0  0  0  0  0  0  0  0  0
   40.5520   32.2190   37.1660 H   0  0  0  0  0  0  0  0  0  0  0  0
   41.4680   31.7330   38.5970 H   0  0  0  0  0  0  0  0  0  0  0  0
   41.1720   34.3680   37.2930 H   0  0  0  0  0  0  0  0  0  0  0  0
   42.6390   33.5150   37.7800 H   0  0  0  0  0  0  0  0  0  0  0  0
   42.7820   34.6850   39.8000 H   0  0  0  0  0  0  0  0  0  0  0  0
   41.6800   35.6080   39.0300 H   0  0  0  0  0  0  0  0  0  0  0  0
   40.9050   34.7550   41.3320 H   0  0  0  0  0  0  0  0  0  0  0  0
   39.7510   35.1540   40.0550 H   0  0  0  0  0  0  0  0  0  0  0  0
   39.2160   33.2880   41.1780 H   0  0  0  0  0  0  0  0  0  0  0  0
   38.6690   31.5950   39.0170 C   0  0  0  0  0  0  0  0  0  0  0  0
   37.9570   31.3780   37.8460 C   0  0  0  0  0  0  0  0  0  0  0  0
   37.0660   30.2810   37.7650 C   0  0  0  0  0  0  0  0  0  0  0  0
   36.9680   29.4770   38.8970 N   0  0  0  0  0  0  0  0  0  0  0  0
   37.6850   29.7410   39.9900 C   0  0  0  0  0  0  0  0  0  0  0  0
   38.5190   30.7790   40.0530 N   0  0  0  0  0  0  0  0  0  0  0  0
   37.9020   31.8280   36.8750 H   0  0  0  0  0  0  0  0  0  0  0  0
   36.4470   29.9660   36.9680 H   0  0  0  0  0  0  0  0  0  0  0  0
   37.5520   28.8430   41.1450 C   0  0  0  0  0  0  0  0  0  0  0  0
   37.5720   29.3320   42.4320 C   0  0  0  0  0  0  0  0  0  0  0  0
   37.4540   28.5770   43.5700 C   0  0  0  0  0  0  0  0  0  0  0  0
   37.3060   27.2330   43.3400 C   0  0  0  0  0  0  0  0  0  0  0  0
   37.2810   26.7020   42.0500 C   0  0  0  0  0  0  0  0  0  0  0  0
   37.4060   27.5220   40.9580 N   0  0  0  0  0  0  0  0  0  0  0  0
   37.6940   30.4180   42.5270 H   0  0  0  0  0  0  0  0  0  0  0  0
   37.4720   28.9900   44.5680 H   0  0  0  0  0  0  0  0  0  0  0  0
   37.2030   26.5340   44.1620 H   0  0  0  0  0  0  0  0  0  0  0  0
   37.1230   25.2720   41.8560 C   0  0  0  0  0  0  0  0  0  0  0  0
   36.3060   24.8920   41.2830 H   0  0  0  0  0  0  0  0  0  0  0  0
   37.9480   24.4760   42.3640 O   0  0  0  0  0  0  0  0  0  0  0  0
   40.9730   32.1470   40.8740 N   0  0  0  0  0  0  0  0  0  0  0  0
   41.3160   31.7170   42.1660 C   0  0  0  0  0  0  0  0  0  0  0  0
   40.6210   30.8640   42.8260 O   0  0  0  0  0  0  0  0  0  0  0  0
   42.5090   32.2980   42.6930 N   0  0  0  0  0  0  0  0  0  0  0  0
   41.6810   31.6800   40.1900 H   0  0  0  0  0  0  0  0  0  0  0  0
   43.4630   32.3440   42.2660 H   0  0  0  0  0  0  0  0  0  0  0  0
   42.4990   32.7590   43.6300 H   0  0  0  0  0  0  0  0  0  0  0  0
  1  7  1  6  0  0  0
  1  6  1  0  0  0  0
  2  9  1  0  0  0  0
  2  1  1  0  0  0  0
  3  2  1  0  0  0  0
  3  4  1  0  0  0  0
  4 12  1  0  0  0  0
  4  5  1  0  0  0  0
  5  6  1  0  0  0  0
  5 14  1  0  0  0  0
  6 37  1  0  0  0  0
  6 16  1  1  0  0  0
  8  2  1  0  0  0  0
 10  3  1  0  0  0  0
 11  3  1  0  0  0  0
 13  4  1  0  0  0  0
 15  5  1  0  0  0  0
 17  1  1  0  0  0  0
 17 22  1  0  0  0  0
 18 17  2  0  0  0  0
 19 18  1  0  0  0  0
 19 20  2  0  0  0  0
 20 21  1  0  0  0  0
 21 22  2  0  0  0  0
 21 25  1  0  0  0  0
 23 18  1  0  0  0  0
 24 19  1  0  0  0  0
 25 26  1  0  0  0  0
 26 31  1  0  0  0  0
 26 27  2  0  0  0  0
 27 32  1  0  0  0  0
 28 27  1  0  0  0  0
 28 33  1  0  0  0  0
 29 28  2  0  0  0  0
 30 25  2  0  0  0  0
 30 29  1  0  0  0  0
 34 29  1  0  0  0  0
 34 36  2  0  0  0  0
 35 34  1  0  0  0  0
 37 38  1  0  0  0  0
 38 40  1  0  0  0  0
 38 39  2  0  0  0  0
 40 43  1  0  0  0  0
 41 37  1  0  0  0  0
 42 40  1  0  0  0  0
M  END
>  <minimizedAffinity>
-5.65454435

$$$$
