
     RDKit          3D

 21 22  0  0  0  0  0  0  0  0999 V2000
   44.6333   35.4598   45.1261 C   0  0  0  0  0  0  0  0  0  0  0  0
   45.0964   35.7123   43.8093 C   0  0  0  0  0  0  0  0  0  0  0  0
   46.0402   34.8272   43.3533 C   0  0  0  0  0  0  0  0  0  0  0  0
   46.4846   33.7805   44.1457 N   0  0  0  0  0  0  0  0  0  0  0  0
   46.0144   33.5872   45.3827 C   0  0  0  0  0  0  0  0  0  0  0  0
   45.0757   34.4384   45.8797 N   0  0  0  0  0  0  0  0  0  0  0  0
   46.5418   34.9819   41.9361 C   0  0  1  0  0  0  0  0  0  0  0  0
   48.0695   35.2693   41.9351 C   0  0  0  0  0  0  0  0  0  0  0  0
   47.3870   33.9750   41.4015 C   0  0  2  0  0  0  0  0  0  0  0  0
   44.6400   36.8094   43.0185 N   0  0  0  0  0  0  0  0  0  0  0  0
   43.8901   36.1280   45.5296 H   0  0  0  0  0  0  0  0  0  0  0  0
   46.4772   32.7282   45.8383 H   0  0  0  0  0  0  0  0  0  0  0  0
   45.9782   35.7196   41.3414 H   0  0  0  0  0  0  0  0  0  0  0  0
   48.4564   35.9105   41.1395 H   0  0  0  0  0  0  0  0  0  0  0  0
   48.6317   35.1873   42.8578 H   0  0  0  0  0  0  0  0  0  0  0  0
   47.7273   33.0644   41.9224 H   0  0  0  0  0  0  0  0  0  0  0  0
   43.6357   36.7865   42.6990 H   0  0  0  0  0  0  0  0  0  0  0  0
   45.1312   37.6667   42.6817 H   0  0  0  0  0  0  0  0  0  0  0  0
   47.3740   33.8040   39.9011 C   0  0  0  0  0  0  0  0  0  0  0  0
   46.4620   33.9078   39.2919 H   0  0  0  0  0  0  0  0  0  0  0  0
   48.4023   33.5348   39.2715 O   0  0  0  0  0  0  0  0  0  0  0  0
  1  6  2  0
  2  1  1  0
  3  2  2  0
  3  4  1  0
  4  5  2  0
  5  6  1  0
  7  3  1  0
  8  7  1  0
  9  8  1  0
  9  7  1  0
 10  2  1  0
  1 11  1  0
  5 12  1  0
  7 13  1  6
  8 14  1  0
  8 15  1  0
  9 16  1  1
 10 17  1  0
 10 18  1  0
 19 20  1  0
 19 21  2  0
  9 19  1  0
M  ISO  7  11  14  12  14  13  13  14  13  15  13  16  13  20   6
M  END
>  <DihAtoms>  (1) 
7,8,18,19

>  <DihDeg>  (1) 
131.84089059464094

$$$$
