
 OpenBabel03252504083D

 13 13  0  0  0  0  0  0  0  0999 V2000
   36.8160   31.1560   40.8940 C   0  0  0  0  0  0  0  0  0  0  0  0
   37.7980   30.2840   41.3890 C   0  0  0  0  0  0  0  0  0  0  0  0
   39.1040   30.4210   40.8960 C   0  0  0  0  0  0  0  0  0  0  0  0
   39.3490   31.3770   39.9760 N   0  0  0  0  0  0  0  0  0  0  0  0
   38.3760   32.2060   39.5150 C   0  0  0  0  0  0  0  0  0  0  0  0
   37.1250   32.0830   39.9820 N   0  0  0  0  0  0  0  0  0  0  0  0
   39.8520   29.7460   41.2830 H   0  0  0  0  0  0  0  0  0  0  0  0
   38.6900   32.9350   38.7780 H   0  0  0  0  0  0  0  0  0  0  0  0
   37.4660   29.2930   42.3660 C   0  0  0  0  0  0  0  0  0  0  0  0
   37.9500   29.3270   43.3330 H   0  0  0  0  0  0  0  0  0  0  0  0
   36.6220   28.4170   42.0690 O   0  0  0  0  0  0  0  0  0  0  0  0
   35.5500   31.0240   41.3730 O   0  0  0  0  0  0  0  0  0  0  0  0
   34.7090   30.8900   40.8110 H   0  0  0  0  0  0  0  0  0  0  0  0
  1 12  1  0  0  0  0
  1  2  1  0  0  0  0
  2  9  1  0  0  0  0
  3  7  1  0  0  0  0
  3  2  2  0  0  0  0
  4  3  1  0  0  0  0
  5  4  2  0  0  0  0
  5  6  1  0  0  0  0
  6  1  2  0  0  0  0
  8  5  1  0  0  0  0
  9 10  1  0  0  0  0
 11  9  2  0  0  0  0
 13 12  1  0  0  0  0
M  END
>  <minimizedAffinity>
-3.27858758

$$$$

 OpenBabel03252504083D

 13 13  0  0  0  0  0  0  0  0999 V2000
   36.3350   31.1280   40.3260 C   0  0  0  0  0  0  0  0  0  0  0  0
   36.1800   30.1600   39.3210 C   0  0  0  0  0  0  0  0  0  0  0  0
   36.8490   30.3650   38.1060 C   0  0  0  0  0  0  0  0  0  0  0  0
   37.6040   31.4730   37.9640 N   0  0  0  0  0  0  0  0  0  0  0  0
   37.7340   32.3940   38.9550 C   0  0  0  0  0  0  0  0  0  0  0  0
   37.0970   32.2060   40.1210 N   0  0  0  0  0  0  0  0  0  0  0  0
   36.7250   29.6150   37.3400 H   0  0  0  0  0  0  0  0  0  0  0  0
   38.3650   33.2440   38.7280 H   0  0  0  0  0  0  0  0  0  0  0  0
   35.3630   29.0060   39.5420 C   0  0  0  0  0  0  0  0  0  0  0  0
   35.8250   28.0280   39.5340 H   0  0  0  0  0  0  0  0  0  0  0  0
   34.1370   29.1680   39.7390 O   0  0  0  0  0  0  0  0  0  0  0  0
   35.6860   30.9300   41.5040 O   0  0  0  0  0  0  0  0  0  0  0  0
   35.0460   31.5860   41.9530 H   0  0  0  0  0  0  0  0  0  0  0  0
  1 12  1  0  0  0  0
  2  9  1  0  0  0  0
  2  1  2  0  0  0  0
  3  2  1  0  0  0  0
  4  3  2  0  0  0  0
  4  5  1  0  0  0  0
  5  6  2  0  0  0  0
  6  1  1  0  0  0  0
  7  3  1  0  0  0  0
  8  5  1  0  0  0  0
  9 11  2  0  0  0  0
 10  9  1  0  0  0  0
 12 13  1  0  0  0  0
M  END
>  <minimizedAffinity>
-3.27767491

$$$$

 OpenBabel03252504083D

 13 13  0  0  0  0  0  0  0  0999 V2000
   36.8500   30.6190   41.4710 C   0  0  0  0  0  0  0  0  0  0  0  0
   37.8290   31.4290   40.8720 C   0  0  0  0  0  0  0  0  0  0  0  0
   39.1740   31.1300   41.1310 C   0  0  0  0  0  0  0  0  0  0  0  0
   39.4600   30.0860   41.9370 N   0  0  0  0  0  0  0  0  0  0  0  0
   38.4900   29.3210   42.5030 C   0  0  0  0  0  0  0  0  0  0  0  0
   37.2000   29.6000   42.2600 N   0  0  0  0  0  0  0  0  0  0  0  0
   39.9190   31.7570   40.6660 H   0  0  0  0  0  0  0  0  0  0  0  0
   38.8380   28.5110   43.1310 H   0  0  0  0  0  0  0  0  0  0  0  0
   37.4530   32.5200   40.0270 C   0  0  0  0  0  0  0  0  0  0  0  0
   37.6140   33.5320   40.3740 H   0  0  0  0  0  0  0  0  0  0  0  0
   36.9480   32.2660   38.9080 O   0  0  0  0  0  0  0  0  0  0  0  0
   35.5460   30.9090   41.2200 O   0  0  0  0  0  0  0  0  0  0  0  0
   34.8250   31.0800   41.9210 H   0  0  0  0  0  0  0  0  0  0  0  0
  1  6  1  0  0  0  0
  2  3  1  0  0  0  0
  2  1  2  0  0  0  0
  3  4  2  0  0  0  0
  4  5  1  0  0  0  0
  5  8  1  0  0  0  0
  6  5  2  0  0  0  0
  7  3  1  0  0  0  0
  9 10  1  0  0  0  0
  9  2  1  0  0  0  0
 11  9  2  0  0  0  0
 12  1  1  0  0  0  0
 12 13  1  0  0  0  0
M  END
>  <minimizedAffinity>
-3.23233652

$$$$

 OpenBabel03252504083D

 13 13  0  0  0  0  0  0  0  0999 V2000
   36.3920   29.7820   41.4290 C   0  0  0  0  0  0  0  0  0  0  0  0
   36.1220   28.7850   40.4790 C   0  0  0  0  0  0  0  0  0  0  0  0
   36.8400   27.5840   40.5670 C   0  0  0  0  0  0  0  0  0  0  0  0
   37.7480   27.4470   41.5550 N   0  0  0  0  0  0  0  0  0  0  0  0
   37.9890   28.4310   42.4610 C   0  0  0  0  0  0  0  0  0  0  0  0
   37.3060   29.5830   42.3830 N   0  0  0  0  0  0  0  0  0  0  0  0
   36.6250   26.8230   39.8330 H   0  0  0  0  0  0  0  0  0  0  0  0
   38.7400   28.2090   43.2080 H   0  0  0  0  0  0  0  0  0  0  0  0
   35.1430   28.9990   39.4580 C   0  0  0  0  0  0  0  0  0  0  0  0
   35.4520   28.9770   38.4210 H   0  0  0  0  0  0  0  0  0  0  0  0
   33.9550   29.2060   39.7990 O   0  0  0  0  0  0  0  0  0  0  0  0
   35.6960   30.9470   41.3430 O   0  0  0  0  0  0  0  0  0  0  0  0
   36.0990   31.8830   41.2860 H   0  0  0  0  0  0  0  0  0  0  0  0
  1  6  1  0  0  0  0
  2  3  1  0  0  0  0
  2  1  2  0  0  0  0
  3  4  2  0  0  0  0
  4  5  1  0  0  0  0
  5  8  1  0  0  0  0
  6  5  2  0  0  0  0
  7  3  1  0  0  0  0
  9 11  2  0  0  0  0
  9  2  1  0  0  0  0
 10  9  1  0  0  0  0
 12  1  1  0  0  0  0
 13 12  1  0  0  0  0
M  END
>  <minimizedAffinity>
-3.23021221

$$$$

 OpenBabel03252504083D

 13 13  0  0  0  0  0  0  0  0999 V2000
   36.7690   30.4070   41.2350 C   0  0  0  0  0  0  0  0  0  0  0  0
   37.4960   30.6130   40.0520 C   0  0  0  0  0  0  0  0  0  0  0  0
   38.7150   29.9360   39.9060 C   0  0  0  0  0  0  0  0  0  0  0  0
   39.1250   29.1240   40.9020 N   0  0  0  0  0  0  0  0  0  0  0  0
   38.3990   28.9450   42.0370 C   0  0  0  0  0  0  0  0  0  0  0  0
   37.2320   29.5890   42.1850 N   0  0  0  0  0  0  0  0  0  0  0  0
   39.2660   30.1000   38.9930 H   0  0  0  0  0  0  0  0  0  0  0  0
   38.8280   28.2700   42.7670 H   0  0  0  0  0  0  0  0  0  0  0  0
   36.9990   31.4890   39.0360 C   0  0  0  0  0  0  0  0  0  0  0  0
   36.6530   31.0650   38.1020 H   0  0  0  0  0  0  0  0  0  0  0  0
   36.9790   32.7210   39.2620 O   0  0  0  0  0  0  0  0  0  0  0  0
   35.5870   31.0650   41.3770 O   0  0  0  0  0  0  0  0  0  0  0  0
   35.3290   31.6690   42.1580 H   0  0  0  0  0  0  0  0  0  0  0  0
  1 12  1  0  0  0  0
  1  6  1  0  0  0  0
  2  1  2  0  0  0  0
  3  2  1  0  0  0  0
  3  4  2  0  0  0  0
  4  5  1  0  0  0  0
  5  6  2  0  0  0  0
  5  8  1  0  0  0  0
  7  3  1  0  0  0  0
  9 11  2  0  0  0  0
  9  2  1  0  0  0  0
 10  9  1  0  0  0  0
 12 13  1  0  0  0  0
M  END
>  <minimizedAffinity>
-3.20411706

$$$$

 OpenBabel03252504083D

 13 13  0  0  0  0  0  0  0  0999 V2000
   35.8080   29.7470   40.7610 C   0  0  0  0  0  0  0  0  0  0  0  0
   36.6340   28.7690   41.3390 C   0  0  0  0  0  0  0  0  0  0  0  0
   36.7940   27.5580   40.6510 C   0  0  0  0  0  0  0  0  0  0  0  0
   36.1520   27.3920   39.4770 N   0  0  0  0  0  0  0  0  0  0  0  0
   35.3580   28.3570   38.9430 C   0  0  0  0  0  0  0  0  0  0  0  0
   35.1990   29.5190   39.5930 N   0  0  0  0  0  0  0  0  0  0  0  0
   37.4310   26.8130   41.1030 H   0  0  0  0  0  0  0  0  0  0  0  0
   34.8930   28.1120   37.9960 H   0  0  0  0  0  0  0  0  0  0  0  0
   37.2860   29.0140   42.5880 C   0  0  0  0  0  0  0  0  0  0  0  0
   36.9530   28.4770   43.4670 H   0  0  0  0  0  0  0  0  0  0  0  0
   38.2240   29.8440   42.6240 O   0  0  0  0  0  0  0  0  0  0  0  0
   35.6530   30.9220   41.4270 O   0  0  0  0  0  0  0  0  0  0  0  0
   34.7640   31.3420   41.6990 H   0  0  0  0  0  0  0  0  0  0  0  0
  1  2  1  0  0  0  0
  1 12  1  0  0  0  0
  2  9  1  0  0  0  0
  3  7  1  0  0  0  0
  3  2  2  0  0  0  0
  4  3  1  0  0  0  0
  5  4  2  0  0  0  0
  5  6  1  0  0  0  0
  6  1  2  0  0  0  0
  8  5  1  0  0  0  0
  9 11  2  0  0  0  0
  9 10  1  0  0  0  0
 12 13  1  0  0  0  0
M  END
>  <minimizedAffinity>
-3.17881989

$$$$

 OpenBabel03252504083D

 13 13  0  0  0  0  0  0  0  0999 V2000
   36.3500   31.0240   39.7840 C   0  0  0  0  0  0  0  0  0  0  0  0
   37.1710   31.9750   39.1590 C   0  0  0  0  0  0  0  0  0  0  0  0
   37.6010   31.7110   37.8510 C   0  0  0  0  0  0  0  0  0  0  0  0
   37.2070   30.5630   37.2620 N   0  0  0  0  0  0  0  0  0  0  0  0
   36.4120   29.6600   37.8930 C   0  0  0  0  0  0  0  0  0  0  0  0
   35.9950   29.9050   39.1450 N   0  0  0  0  0  0  0  0  0  0  0  0
   38.2310   32.4480   37.3790 H   0  0  0  0  0  0  0  0  0  0  0  0
   36.1600   28.7750   37.3220 H   0  0  0  0  0  0  0  0  0  0  0  0
   37.5490   33.1720   39.8450 C   0  0  0  0  0  0  0  0  0  0  0  0
   37.1350   34.1170   39.5180 H   0  0  0  0  0  0  0  0  0  0  0  0
   38.3490   33.0870   40.8050 O   0  0  0  0  0  0  0  0  0  0  0  0
   35.9320   31.2800   41.0530 O   0  0  0  0  0  0  0  0  0  0  0  0
   36.0550   30.6660   41.8590 H   0  0  0  0  0  0  0  0  0  0  0  0
  1 12  1  0  0  0  0
  2  1  1  0  0  0  0
  2  9  1  0  0  0  0
  3  2  2  0  0  0  0
  4  3  1  0  0  0  0
  4  5  2  0  0  0  0
  5  6  1  0  0  0  0
  6  1  2  0  0  0  0
  7  3  1  0  0  0  0
  8  5  1  0  0  0  0
  9 11  2  0  0  0  0
 10  9  1  0  0  0  0
 12 13  1  0  0  0  0
M  END
>  <minimizedAffinity>
-3.1605432

$$$$

 OpenBabel03252504083D

 13 13  0  0  0  0  0  0  0  0999 V2000
   37.1840   32.0230   40.5640 C   0  0  0  0  0  0  0  0  0  0  0  0
   38.5540   31.9310   40.8590 C   0  0  0  0  0  0  0  0  0  0  0  0
   39.0070   30.7760   41.5120 C   0  0  0  0  0  0  0  0  0  0  0  0
   38.1110   29.8170   41.8220 N   0  0  0  0  0  0  0  0  0  0  0  0
   36.7900   29.9350   41.5240 C   0  0  0  0  0  0  0  0  0  0  0  0
   36.3480   31.0360   40.8990 N   0  0  0  0  0  0  0  0  0  0  0  0
   40.0610   30.7140   41.7340 H   0  0  0  0  0  0  0  0  0  0  0  0
   36.1650   29.1020   41.8210 H   0  0  0  0  0  0  0  0  0  0  0  0
   39.4480   32.9880   40.4990 C   0  0  0  0  0  0  0  0  0  0  0  0
   40.3230   32.7560   39.9050 H   0  0  0  0  0  0  0  0  0  0  0  0
   39.1880   34.1520   40.8830 O   0  0  0  0  0  0  0  0  0  0  0  0
   36.7450   33.1430   39.9300 O   0  0  0  0  0  0  0  0  0  0  0  0
   35.9960   33.7570   40.2510 H   0  0  0  0  0  0  0  0  0  0  0  0
  1  2  2  0  0  0  0
  1  6  1  0  0  0  0
  2  3  1  0  0  0  0
  3  7  1  0  0  0  0
  3  4  2  0  0  0  0
  5  8  1  0  0  0  0
  5  4  1  0  0  0  0
  6  5  2  0  0  0  0
  9  2  1  0  0  0  0
  9 11  2  0  0  0  0
 10  9  1  0  0  0  0
 12 13  1  0  0  0  0
 12  1  1  0  0  0  0
M  END
>  <minimizedAffinity>
-3.13902283

$$$$

 OpenBabel03252504083D

 13 13  0  0  0  0  0  0  0  0999 V2000
   37.5190   28.1590   43.0510 C   0  0  0  0  0  0  0  0  0  0  0  0
   36.9850   27.8190   41.7970 C   0  0  0  0  0  0  0  0  0  0  0  0
   37.5050   26.6900   41.1490 C   0  0  0  0  0  0  0  0  0  0  0  0
   38.4860   25.9910   41.7570 N   0  0  0  0  0  0  0  0  0  0  0  0
   38.9830   26.3460   42.9710 C   0  0  0  0  0  0  0  0  0  0  0  0
   38.4910   27.4240   43.5990 N   0  0  0  0  0  0  0  0  0  0  0  0
   37.0890   26.4360   40.1870 H   0  0  0  0  0  0  0  0  0  0  0  0
   39.7680   25.7100   43.3610 H   0  0  0  0  0  0  0  0  0  0  0  0
   35.9440   28.6060   41.2120 C   0  0  0  0  0  0  0  0  0  0  0  0
   35.0410   28.1140   40.8760 H   0  0  0  0  0  0  0  0  0  0  0  0
   36.1130   29.8440   41.1090 O   0  0  0  0  0  0  0  0  0  0  0  0
   37.0150   29.2540   43.6800 O   0  0  0  0  0  0  0  0  0  0  0  0
   37.5540   30.0490   44.0220 H   0  0  0  0  0  0  0  0  0  0  0  0
  1  6  1  0  0  0  0
  1 12  1  0  0  0  0
  2  1  2  0  0  0  0
  3  4  2  0  0  0  0
  3  2  1  0  0  0  0
  4  5  1  0  0  0  0
  5  8  1  0  0  0  0
  5  6  2  0  0  0  0
  7  3  1  0  0  0  0
  9  2  1  0  0  0  0
 10  9  1  0  0  0  0
 11  9  2  0  0  0  0
 12 13  1  0  0  0  0
M  END
>  <minimizedAffinity>
-3.13472915

$$$$
