
 OpenBabel03252508173D

 41 44  0  0  1  0  0  0  0  0999 V2000
   46.0690   33.0450   46.1520 C   0  0  0  0  0  0  0  0  0  0  0  0
   46.9050   32.1470   45.8360 C   0  0  0  0  0  0  0  0  0  0  0  0
   44.5520   35.9170   44.4110 C   0  0  0  0  0  0  0  0  0  0  0  0
   45.1820   35.9030   43.1740 C   0  0  0  0  0  0  0  0  0  0  0  0
   46.0950   34.9190   42.9770 C   0  0  0  0  0  0  0  0  0  0  0  0
   46.3610   34.0090   43.9590 N   0  0  0  0  0  0  0  0  0  0  0  0
   45.7280   34.0550   45.1500 C   0  0  0  0  0  0  0  0  0  0  0  0
   44.8370   35.0150   45.3430 N   0  0  0  0  0  0  0  0  0  0  0  0
   43.8140   36.6840   44.6160 H   0  0  0  0  0  0  0  0  0  0  0  0
   44.9670   36.6230   42.4050 H   0  0  0  0  0  0  0  0  0  0  0  0
   46.8380   34.7730   41.7290 C   0  0  0  0  0  0  0  0  0  0  0  0
   48.0470   35.3580   41.4720 C   0  0  0  0  0  0  0  0  0  0  0  0
   48.7420   35.2130   40.2890 C   0  0  0  0  0  0  0  0  0  0  0  0
   48.2110   34.4330   39.2750 C   0  0  0  0  0  0  0  0  0  0  0  0
   47.0020   33.8220   39.4760 C   0  0  0  0  0  0  0  0  0  0  0  0
   46.3540   34.0040   40.6820 C   0  0  0  0  0  0  0  0  0  0  0  0
   48.4930   35.9810   42.2550 H   0  0  0  0  0  0  0  0  0  0  0  0
   49.6960   35.7240   40.1940 H   0  0  0  0  0  0  0  0  0  0  0  0
   48.8280   34.3780   38.3810 H   0  0  0  0  0  0  0  0  0  0  0  0
   46.6070   33.2230   38.6790 H   0  0  0  0  0  0  0  0  0  0  0  0
   45.3970   33.4930   40.7820 H   0  0  0  0  0  0  0  0  0  0  0  0
   47.1780   31.0980   46.8910 C   0  0  0  0  0  0  0  0  0  0  0  0
   48.2100   30.8240   46.7350 H   0  0  0  0  0  0  0  0  0  0  0  0
   46.5670   30.1880   46.6920 H   0  0  0  0  0  0  0  0  0  0  0  0
   46.7880   31.6030   48.2410 C   0  0  1  0  0  0  0  0  0  0  0  0
   46.3840   30.5520   49.2190 C   0  0  0  0  0  0  0  0  0  0  0  0
   47.6250   31.2960   49.4150 C   0  0  1  0  0  0  0  0  0  0  0  0
   46.0010   32.4130   48.2330 H   0  0  0  0  0  0  0  0  0  0  0  0
   45.5730   30.6930   49.9500 H   0  0  0  0  0  0  0  0  0  0  0  0
   46.5120   29.4720   48.9430 H   0  0  0  0  0  0  0  0  0  0  0  0
   47.6290   32.0650   50.2160 H   0  0  0  0  0  0  0  0  0  0  0  0
   48.9630   30.6670   49.1800 C   0  0  2  0  0  0  0  0  0  0  0  0
   49.6480   30.1960   50.4890 C   0  0  0  0  0  0  0  0  0  0  0  0
   50.1890   31.3620   49.7680 C   0  0  1  0  0  0  0  0  0  0  0  0
   49.1000   29.9010   48.3930 H   0  0  0  0  0  0  0  0  0  0  0  0
   49.1530   30.4350   51.4500 H   0  0  0  0  0  0  0  0  0  0  0  0
   50.1970   29.2610   50.5140 H   0  0  0  0  0  0  0  0  0  0  0  0
   50.0360   32.3980   50.1140 H   0  0  0  0  0  0  0  0  0  0  0  0
   51.4580   31.0830   49.0080 C   0  0  0  0  0  0  0  0  0  0  0  0
   51.8660   30.2740   48.4130 H   0  0  0  0  0  0  0  0  0  0  0  0
   52.4700   31.7750   48.8490 O   0  0  0  0  0  0  0  0  0  0  0  0
  2  1  2  0  0  0  0
  2 22  1  0  0  0  0
  3  9  1  0  0  0  0
  3  8  1  0  0  0  0
  4  3  2  0  0  0  0
  5  4  1  0  0  0  0
  5  6  2  0  0  0  0
  6  7  1  0  0  0  0
  7  8  2  0  0  0  0
  7  1  1  0  0  0  0
 10  4  1  0  0  0  0
 11  5  1  0  0  0  0
 12 11  1  0  0  0  0
 12 17  1  0  0  0  0
 13 12  2  0  0  0  0
 14 15  2  0  0  0  0
 14 13  1  0  0  0  0
 15 16  1  0  0  0  0
 16 21  1  0  0  0  0
 16 11  2  0  0  0  0
 18 13  1  0  0  0  0
 19 14  1  0  0  0  0
 20 15  1  0  0  0  0
 22 25  1  0  0  0  0
 23 22  1  0  0  0  0
 24 22  1  0  0  0  0
 25 28  1  1  0  0  0
 25 26  1  0  0  0  0
 25 27  1  0  0  0  0
 26 27  1  0  0  0  0
 26 29  1  0  0  0  0
 27 31  1  1  0  0  0
 30 26  1  0  0  0  0
 32 35  1  6  0  0  0
 32 27  1  0  0  0  0
 32 34  1  0  0  0  0
 32 33  1  0  0  0  0
 33 37  1  0  0  0  0
 33 36  1  0  0  0  0
 34 38  1  1  0  0  0
 34 33  1  0  0  0  0
 39 34  1  0  0  0  0
 40 39  1  0  0  0  0
 41 39  2  0  0  0  0
M  END
>  <minimizedAffinity>
-6.07835722

>  <minimizedRMSD>
0.670654058

$$$$
