
 OpenBabel03252507573D

 21 22  0  0  1  0  0  0  0  0999 V2000
   46.0360   34.7400   43.4280 C   0  0  0  0  0  0  0  0  0  0  0  0
   45.1490   35.7700   43.8260 C   0  0  0  0  0  0  0  0  0  0  0  0
   44.5560   35.6530   45.0890 C   0  0  0  0  0  0  0  0  0  0  0  0
   44.8750   34.5550   45.8420 N   0  0  0  0  0  0  0  0  0  0  0  0
   45.7240   33.6120   45.4070 C   0  0  0  0  0  0  0  0  0  0  0  0
   46.3110   33.6770   44.2220 N   0  0  0  0  0  0  0  0  0  0  0  0
   44.9400   36.6090   43.1860 H   0  0  0  0  0  0  0  0  0  0  0  0
   43.8710   36.4170   45.4350 H   0  0  0  0  0  0  0  0  0  0  0  0
   46.0240   32.4560   46.3060 C   0  0  1  0  0  0  0  0  0  0  0  0
   46.9870   32.6040   47.4400 C   0  0  0  0  0  0  0  0  0  0  0  0
   45.5170   32.6160   47.7020 C   0  0  2  0  0  0  0  0  0  0  0  0
   45.9200   31.4870   45.8210 H   0  0  0  0  0  0  0  0  0  0  0  0
   47.5760   33.5370   47.4740 H   0  0  0  0  0  0  0  0  0  0  0  0
   47.5890   31.6950   47.6470 H   0  0  0  0  0  0  0  0  0  0  0  0
   45.1370   33.6250   48.0340 H   0  0  0  0  0  0  0  0  0  0  0  0
   44.9720   31.4670   48.4490 C   0  0  0  0  0  0  0  0  0  0  0  0
   44.4180   30.6790   47.9490 H   0  0  0  0  0  0  0  0  0  0  0  0
   45.2140   31.5150   49.6530 O   0  0  0  0  0  0  0  0  0  0  0  0
   46.6240   34.9170   42.1310 C   0  0  0  0  0  0  0  0  0  0  0  0
   47.7870   35.3810   41.9170 O   0  0  0  0  0  0  0  0  0  0  0  0
   45.9140   34.5920   41.3630 H   0  0  0  0  0  0  0  0  0  0  0  0
  1  2  2  0  0  0  0
  1  6  1  0  0  0  0
  2  3  1  0  0  0  0
  3  8  1  0  0  0  0
  3  4  2  0  0  0  0
  5  4  1  0  0  0  0
  5  9  1  0  0  0  0
  6  5  2  0  0  0  0
  7  2  1  0  0  0  0
  9 12  1  6  0  0  0
  9 10  1  0  0  0  0
  9 11  1  0  0  0  0
 10 13  1  0  0  0  0
 10 14  1  0  0  0  0
 10 11  1  0  0  0  0
 11 15  1  1  0  0  0
 11 16  1  0  0  0  0
 16 18  2  0  0  0  0
 17 16  1  0  0  0  0
 19  1  1  0  0  0  0
 20 19  2  0  0  0  0
 21 19  1  0  0  0  0
M  END
>  <minimizedAffinity>
-4.41087198

>  <minimizedRMSD>
0.51379329

$$$$
