
 OpenBabel03252509203D

 19 20  0  0  0  0  0  0  0  0999 V2000
   45.3470   34.3650   44.7050 C   0  0  0  0  0  0  0  0  0  0  0  0
   45.7710   35.0050   43.5020 C   0  0  0  0  0  0  0  0  0  0  0  0
   46.9180   34.4760   42.9380 C   0  0  0  0  0  0  0  0  0  0  0  0
   47.5780   33.4070   43.5240 N   0  0  0  0  0  0  0  0  0  0  0  0
   47.1340   32.8480   44.6480 C   0  0  0  0  0  0  0  0  0  0  0  0
   46.0160   33.3220   45.2490 N   0  0  0  0  0  0  0  0  0  0  0  0
   44.4640   34.7010   45.2280 H   0  0  0  0  0  0  0  0  0  0  0  0
   47.7770   32.0390   44.9400 H   0  0  0  0  0  0  0  0  0  0  0  0
   47.3540   35.0450   41.6060 C   0  0  0  0  0  0  0  0  0  0  0  0
   48.7760   35.6240   41.7170 C   0  0  0  0  0  0  0  0  0  0  0  0
   48.4040   34.3540   40.9100 C   0  0  0  0  0  0  0  0  0  0  0  0
   46.6810   35.8100   41.1670 H   0  0  0  0  0  0  0  0  0  0  0  0
   48.9430   36.5420   41.1520 H   0  0  0  0  0  0  0  0  0  0  0  0
   49.2960   35.5310   42.6590 H   0  0  0  0  0  0  0  0  0  0  0  0
   48.6170   34.4500   39.8260 H   0  0  0  0  0  0  0  0  0  0  0  0
   48.8380   33.4370   41.4030 H   0  0  0  0  0  0  0  0  0  0  0  0
   45.0000   36.1210   42.9810 C   0  0  0  0  0  0  0  0  0  0  0  0
   44.2280   35.9980   42.2580 H   0  0  0  0  0  0  0  0  0  0  0  0
   45.2270   37.2930   43.3790 O   0  0  0  0  0  0  0  0  0  0  0  0
  1  7  1  0  0  0  0
  1  6  1  0  0  0  0
  2  1  2  0  0  0  0
  3  2  1  0  0  0  0
  3  4  2  0  0  0  0
  4  5  1  0  0  0  0
  5  8  1  0  0  0  0
  5  6  2  0  0  0  0
  9 10  1  0  0  0  0
  9  3  1  0  0  0  0
 10 14  1  0  0  0  0
 11 16  1  0  0  0  0
 11  9  1  0  0  0  0
 11 10  1  0  0  0  0
 12  9  1  0  0  0  0
 13 10  1  0  0  0  0
 15 11  1  0  0  0  0
 17 19  2  0  0  0  0
 17  2  1  0  0  0  0
 18 17  1  0  0  0  0
M  END
>  <minimizedAffinity>
-3.79764485

>  <minimizedRMSD>
1.37676811

$$$$
