
 OpenBabel03252503523D

 15 15  0  0  0  0  0  0  0  0999 V2000
   36.8790   28.7160   41.9870 C   0  0  0  0  0  0  0  0  0  0  0  0
   37.9390   29.6380   42.0410 C   0  0  0  0  0  0  0  0  0  0  0  0
   37.8640   30.7640   41.2170 C   0  0  0  0  0  0  0  0  0  0  0  0
   36.7820   30.8970   40.4220 N   0  0  0  0  0  0  0  0  0  0  0  0
   35.7780   29.9990   40.3870 C   0  0  0  0  0  0  0  0  0  0  0  0
   35.8370   28.9100   41.1750 N   0  0  0  0  0  0  0  0  0  0  0  0
   38.7870   29.4970   42.6910 H   0  0  0  0  0  0  0  0  0  0  0  0
   34.9330   30.1840   39.7100 H   0  0  0  0  0  0  0  0  0  0  0  0
   36.9930   27.5140   42.8890 C   0  0  0  0  0  0  0  0  0  0  0  0
   35.8890   27.3570   43.6790 F   0  0  0  0  0  0  0  0  0  0  0  0
   37.1890   26.3960   42.0750 F   0  0  0  0  0  0  0  0  0  0  0  0
   38.1590   27.6250   43.6470 F   0  0  0  0  0  0  0  0  0  0  0  0
   38.9610   31.7220   41.2710 C   0  0  0  0  0  0  0  0  0  0  0  0
   39.9710   31.3830   41.4700 H   0  0  0  0  0  0  0  0  0  0  0  0
   38.7880   32.9490   41.0950 O   0  0  0  0  0  0  0  0  0  0  0  0
  1  2  1  0  0  0  0
  1  9  1  0  0  0  0
  2  7  1  0  0  0  0
  3 13  1  0  0  0  0
  3  2  2  0  0  0  0
  4  3  1  0  0  0  0
  5  4  2  0  0  0  0
  5  6  1  0  0  0  0
  6  1  2  0  0  0  0
  8  5  1  0  0  0  0
  9 12  1  0  0  0  0
  9 10  1  0  0  0  0
 11  9  1  0  0  0  0
 13 14  1  0  0  0  0
 15 13  2  0  0  0  0
M  END
>  <minimizedAffinity>
-3.84480548

$$$$

 OpenBabel03252503523D

 15 15  0  0  0  0  0  0  0  0999 V2000
   37.3200   26.7170   42.0330 C   0  0  0  0  0  0  0  0  0  0  0  0
   36.6490   27.6720   41.2500 C   0  0  0  0  0  0  0  0  0  0  0  0
   36.7480   29.0120   41.6330 C   0  0  0  0  0  0  0  0  0  0  0  0
   37.4800   29.3070   42.7270 N   0  0  0  0  0  0  0  0  0  0  0  0
   38.1140   28.3730   43.4630 C   0  0  0  0  0  0  0  0  0  0  0  0
   38.0270   27.0790   43.1070 N   0  0  0  0  0  0  0  0  0  0  0  0
   36.0740   27.3970   40.3810 H   0  0  0  0  0  0  0  0  0  0  0  0
   38.6890   28.6990   44.3410 H   0  0  0  0  0  0  0  0  0  0  0  0
   37.1910   25.2820   41.5920 C   0  0  0  0  0  0  0  0  0  0  0  0
   38.4080   24.6820   41.4290 F   0  0  0  0  0  0  0  0  0  0  0  0
   36.4290   24.6140   42.5520 F   0  0  0  0  0  0  0  0  0  0  0  0
   36.4330   25.2330   40.4220 F   0  0  0  0  0  0  0  0  0  0  0  0
   36.0550   30.0060   40.8230 C   0  0  0  0  0  0  0  0  0  0  0  0
   35.3640   29.6910   40.0480 H   0  0  0  0  0  0  0  0  0  0  0  0
   36.2220   31.2350   40.9820 O   0  0  0  0  0  0  0  0  0  0  0  0
  1  6  1  0  0  0  0
  2  3  1  0  0  0  0
  2  1  2  0  0  0  0
  3  4  2  0  0  0  0
  4  5  1  0  0  0  0
  5  8  1  0  0  0  0
  6  5  2  0  0  0  0
  7  2  1  0  0  0  0
  9  1  1  0  0  0  0
  9 11  1  0  0  0  0
 10  9  1  0  0  0  0
 12  9  1  0  0  0  0
 13 15  2  0  0  0  0
 13  3  1  0  0  0  0
 14 13  1  0  0  0  0
M  END
>  <minimizedAffinity>
-3.80883431

$$$$

 OpenBabel03252503523D

 15 15  0  0  0  0  0  0  0  0999 V2000
   37.8900   26.6090   42.8700 C   0  0  0  0  0  0  0  0  0  0  0  0
   37.3920   25.5540   42.0870 C   0  0  0  0  0  0  0  0  0  0  0  0
   38.2000   24.4260   41.9280 C   0  0  0  0  0  0  0  0  0  0  0  0
   39.4060   24.4180   42.5340 N   0  0  0  0  0  0  0  0  0  0  0  0
   39.8620   25.4430   43.2800 C   0  0  0  0  0  0  0  0  0  0  0  0
   39.0960   26.5360   43.4420 N   0  0  0  0  0  0  0  0  0  0  0  0
   36.4230   25.5970   41.6190 H   0  0  0  0  0  0  0  0  0  0  0  0
   40.8570   25.3550   43.7380 H   0  0  0  0  0  0  0  0  0  0  0  0
   36.9930   27.8100   43.0210 C   0  0  0  0  0  0  0  0  0  0  0  0
   37.6170   28.8430   43.6630 F   0  0  0  0  0  0  0  0  0  0  0  0
   36.5840   28.1920   41.7410 F   0  0  0  0  0  0  0  0  0  0  0  0
   35.8250   27.4250   43.6790 F   0  0  0  0  0  0  0  0  0  0  0  0
   37.6870   23.3280   41.1170 C   0  0  0  0  0  0  0  0  0  0  0  0
   36.6460   23.0350   41.1950 H   0  0  0  0  0  0  0  0  0  0  0  0
   38.4080   22.6930   40.3160 O   0  0  0  0  0  0  0  0  0  0  0  0
  1  9  1  0  0  0  0
  1  6  1  0  0  0  0
  2  1  2  0  0  0  0
  3  2  1  0  0  0  0
  3  4  2  0  0  0  0
  4  5  1  0  0  0  0
  5  6  2  0  0  0  0
  5  8  1  0  0  0  0
  7  2  1  0  0  0  0
  9 10  1  0  0  0  0
  9 12  1  0  0  0  0
 11  9  1  0  0  0  0
 13 14  1  0  0  0  0
 13  3  1  0  0  0  0
 15 13  2  0  0  0  0
M  END
>  <minimizedAffinity>
-3.78908706

$$$$

 OpenBabel03252503523D

 15 15  0  0  0  0  0  0  0  0999 V2000
   37.7750   26.3690   42.6930 C   0  0  0  0  0  0  0  0  0  0  0  0
   39.0730   26.5460   43.2030 C   0  0  0  0  0  0  0  0  0  0  0  0
   39.9450   25.4560   43.1530 C   0  0  0  0  0  0  0  0  0  0  0  0
   39.4900   24.3040   42.6190 N   0  0  0  0  0  0  0  0  0  0  0  0
   38.2400   24.1580   42.1360 C   0  0  0  0  0  0  0  0  0  0  0  0
   37.3890   25.1980   42.1790 N   0  0  0  0  0  0  0  0  0  0  0  0
   39.4000   27.4840   43.6220 H   0  0  0  0  0  0  0  0  0  0  0  0
   37.9500   23.1830   41.7190 H   0  0  0  0  0  0  0  0  0  0  0  0
   36.8610   27.5650   42.7640 C   0  0  0  0  0  0  0  0  0  0  0  0
   36.3400   27.8880   41.5430 F   0  0  0  0  0  0  0  0  0  0  0  0
   35.8470   27.2660   43.6770 F   0  0  0  0  0  0  0  0  0  0  0  0
   37.5560   28.6350   43.3270 F   0  0  0  0  0  0  0  0  0  0  0  0
   41.2920   25.6360   43.6800 C   0  0  0  0  0  0  0  0  0  0  0  0
   41.4490   26.1980   44.5940 H   0  0  0  0  0  0  0  0  0  0  0  0
   42.3020   25.1610   43.1140 O   0  0  0  0  0  0  0  0  0  0  0  0
  1  9  1  0  0  0  0
  1  2  1  0  0  0  0
  2  7  1  0  0  0  0
  3  2  2  0  0  0  0
  3 13  1  0  0  0  0
  4  3  1  0  0  0  0
  5  6  1  0  0  0  0
  5  4  2  0  0  0  0
  6  1  2  0  0  0  0
  8  5  1  0  0  0  0
  9 12  1  0  0  0  0
  9 11  1  0  0  0  0
 10  9  1  0  0  0  0
 13 14  1  0  0  0  0
 15 13  2  0  0  0  0
M  END
>  <minimizedAffinity>
-3.76317906

$$$$

 OpenBabel03252503523D

 15 15  0  0  0  0  0  0  0  0999 V2000
   36.6550   28.5520   41.8040 C   0  0  0  0  0  0  0  0  0  0  0  0
   35.9070   28.2480   40.6530 C   0  0  0  0  0  0  0  0  0  0  0  0
   35.6440   29.2860   39.7570 C   0  0  0  0  0  0  0  0  0  0  0  0
   36.1210   30.5140   40.0500 N   0  0  0  0  0  0  0  0  0  0  0  0
   36.8360   30.7810   41.1600 C   0  0  0  0  0  0  0  0  0  0  0  0
   37.0970   29.7910   42.0330 N   0  0  0  0  0  0  0  0  0  0  0  0
   35.5430   27.2540   40.4540 H   0  0  0  0  0  0  0  0  0  0  0  0
   37.1870   31.8100   41.3230 H   0  0  0  0  0  0  0  0  0  0  0  0
   36.9200   27.4080   42.7490 C   0  0  0  0  0  0  0  0  0  0  0  0
   37.0880   26.2230   42.0900 F   0  0  0  0  0  0  0  0  0  0  0  0
   38.0570   27.7320   43.4920 F   0  0  0  0  0  0  0  0  0  0  0  0
   35.8830   27.3380   43.6790 F   0  0  0  0  0  0  0  0  0  0  0  0
   34.8700   28.9750   38.5620 C   0  0  0  0  0  0  0  0  0  0  0  0
   33.9820   28.3560   38.6340 H   0  0  0  0  0  0  0  0  0  0  0  0
   35.1870   29.3990   37.4280 O   0  0  0  0  0  0  0  0  0  0  0  0
  1  6  1  0  0  0  0
  1  9  1  0  0  0  0
  2  1  2  0  0  0  0
  3  4  2  0  0  0  0
  3  2  1  0  0  0  0
  4  5  1  0  0  0  0
  5  8  1  0  0  0  0
  5  6  2  0  0  0  0
  7  2  1  0  0  0  0
  9 11  1  0  0  0  0
  9 12  1  0  0  0  0
 10  9  1  0  0  0  0
 13 14  1  0  0  0  0
 13  3  1  0  0  0  0
 15 13  2  0  0  0  0
M  END
>  <minimizedAffinity>
-3.74030542

$$$$

 OpenBabel03252503523D

 15 15  0  0  0  0  0  0  0  0999 V2000
   36.6790   28.9080   41.5110 C   0  0  0  0  0  0  0  0  0  0  0  0
   36.7390   27.5240   41.2700 C   0  0  0  0  0  0  0  0  0  0  0  0
   37.5360   26.7510   42.1170 C   0  0  0  0  0  0  0  0  0  0  0  0
   38.1980   27.3760   43.1120 N   0  0  0  0  0  0  0  0  0  0  0  0
   38.1250   28.7050   43.3240 C   0  0  0  0  0  0  0  0  0  0  0  0
   37.3630   29.4630   42.5160 N   0  0  0  0  0  0  0  0  0  0  0  0
   36.1950   27.0610   40.4640 H   0  0  0  0  0  0  0  0  0  0  0  0
   38.6980   29.1350   44.1580 H   0  0  0  0  0  0  0  0  0  0  0  0
   35.8110   29.7120   40.5790 C   0  0  0  0  0  0  0  0  0  0  0  0
   34.5450   29.2040   40.4870 F   0  0  0  0  0  0  0  0  0  0  0  0
   35.7890   31.0250   41.0530 F   0  0  0  0  0  0  0  0  0  0  0  0
   36.4290   29.7830   39.3300 F   0  0  0  0  0  0  0  0  0  0  0  0
   37.6000   25.3160   41.8700 C   0  0  0  0  0  0  0  0  0  0  0  0
   38.4250   24.8960   41.3050 H   0  0  0  0  0  0  0  0  0  0  0  0
   36.7260   24.5240   42.2900 O   0  0  0  0  0  0  0  0  0  0  0  0
  1  6  1  0  0  0  0
  2  1  2  0  0  0  0
  2  3  1  0  0  0  0
  3  4  2  0  0  0  0
  4  5  1  0  0  0  0
  5  8  1  0  0  0  0
  6  5  2  0  0  0  0
  7  2  1  0  0  0  0
  9 11  1  0  0  0  0
  9  1  1  0  0  0  0
 10  9  1  0  0  0  0
 12  9  1  0  0  0  0
 13  3  1  0  0  0  0
 13 15  2  0  0  0  0
 14 13  1  0  0  0  0
M  END
>  <minimizedAffinity>
-3.73739672

$$$$

 OpenBabel03252503523D

 15 15  0  0  0  0  0  0  0  0999 V2000
   36.9000   27.6830   41.5830 C   0  0  0  0  0  0  0  0  0  0  0  0
   36.7720   29.0770   41.7140 C   0  0  0  0  0  0  0  0  0  0  0  0
   36.7430   29.8400   40.5440 C   0  0  0  0  0  0  0  0  0  0  0  0
   36.8390   29.1950   39.3630 N   0  0  0  0  0  0  0  0  0  0  0  0
   36.9610   27.8560   39.2620 C   0  0  0  0  0  0  0  0  0  0  0  0
   36.9910   27.1090   40.3800 N   0  0  0  0  0  0  0  0  0  0  0  0
   36.6980   29.5560   42.6760 H   0  0  0  0  0  0  0  0  0  0  0  0
   37.0340   27.4110   38.2600 H   0  0  0  0  0  0  0  0  0  0  0  0
   36.9280   26.8910   42.8640 C   0  0  0  0  0  0  0  0  0  0  0  0
   36.8990   25.5440   42.6380 F   0  0  0  0  0  0  0  0  0  0  0  0
   38.0840   27.2570   43.5580 F   0  0  0  0  0  0  0  0  0  0  0  0
   35.8690   27.3010   43.6740 F   0  0  0  0  0  0  0  0  0  0  0  0
   36.6090   31.2850   40.6760 C   0  0  0  0  0  0  0  0  0  0  0  0
   35.6250   31.7400   40.7050 H   0  0  0  0  0  0  0  0  0  0  0  0
   37.6000   32.0450   40.7600 O   0  0  0  0  0  0  0  0  0  0  0  0
  1  2  1  0  0  0  0
  1  9  1  0  0  0  0
  2  7  1  0  0  0  0
  3 13  1  0  0  0  0
  3  2  2  0  0  0  0
  4  3  1  0  0  0  0
  5  4  2  0  0  0  0
  5  6  1  0  0  0  0
  6  1  2  0  0  0  0
  8  5  1  0  0  0  0
  9 11  1  0  0  0  0
  9 12  1  0  0  0  0
 10  9  1  0  0  0  0
 13 14  1  0  0  0  0
 13 15  2  0  0  0  0
M  END
>  <minimizedAffinity>
-3.64355779

$$$$

 OpenBabel03252503523D

 15 15  0  0  0  0  0  0  0  0999 V2000
   37.8210   32.0100   40.6660 C   0  0  0  0  0  0  0  0  0  0  0  0
   38.8090   31.2970   41.3690 C   0  0  0  0  0  0  0  0  0  0  0  0
   38.4470   30.0710   41.9320 C   0  0  0  0  0  0  0  0  0  0  0  0
   37.1770   29.6470   41.7680 N   0  0  0  0  0  0  0  0  0  0  0  0
   36.2470   30.3480   41.0900 C   0  0  0  0  0  0  0  0  0  0  0  0
   36.5800   31.5310   40.5430 N   0  0  0  0  0  0  0  0  0  0  0  0
   39.8140   31.6690   41.4780 H   0  0  0  0  0  0  0  0  0  0  0  0
   35.2350   29.9300   41.0040 H   0  0  0  0  0  0  0  0  0  0  0  0
   38.2450   33.3280   40.0720 C   0  0  0  0  0  0  0  0  0  0  0  0
   39.1800   33.1720   39.0870 F   0  0  0  0  0  0  0  0  0  0  0  0
   37.0990   33.9540   39.5780 F   0  0  0  0  0  0  0  0  0  0  0  0
   38.7060   34.1590   41.0930 F   0  0  0  0  0  0  0  0  0  0  0  0
   39.4680   29.3290   42.6610 C   0  0  0  0  0  0  0  0  0  0  0  0
   40.4680   29.7370   42.7650 H   0  0  0  0  0  0  0  0  0  0  0  0
   39.2420   28.2150   43.1840 O   0  0  0  0  0  0  0  0  0  0  0  0
  1  2  1  0  0  0  0
  2  7  1  0  0  0  0
  2  3  2  0  0  0  0
  3 13  1  0  0  0  0
  4  3  1  0  0  0  0
  5  4  2  0  0  0  0
  6  1  2  0  0  0  0
  6  5  1  0  0  0  0
  8  5  1  0  0  0  0
  9  1  1  0  0  0  0
  9 12  1  0  0  0  0
 10  9  1  0  0  0  0
 11  9  1  0  0  0  0
 13 14  1  0  0  0  0
 13 15  2  0  0  0  0
M  END
>  <minimizedAffinity>
-3.57000184

$$$$

 OpenBabel03252503523D

 15 15  0  0  0  0  0  0  0  0999 V2000
   37.9620   28.0440   42.5940 C   0  0  0  0  0  0  0  0  0  0  0  0
   38.9850   27.1600   42.9820 C   0  0  0  0  0  0  0  0  0  0  0  0
   40.2680   27.6860   43.1500 C   0  0  0  0  0  0  0  0  0  0  0  0
   40.4470   29.0050   42.9310 N   0  0  0  0  0  0  0  0  0  0  0  0
   39.4510   29.8330   42.5590 C   0  0  0  0  0  0  0  0  0  0  0  0
   38.2100   29.3410   42.3930 N   0  0  0  0  0  0  0  0  0  0  0  0
   38.8020   26.1120   43.1480 H   0  0  0  0  0  0  0  0  0  0  0  0
   39.6840   30.8950   42.4010 H   0  0  0  0  0  0  0  0  0  0  0  0
   36.5910   27.4430   42.4210 C   0  0  0  0  0  0  0  0  0  0  0  0
   35.7800   28.2250   41.6480 F   0  0  0  0  0  0  0  0  0  0  0  0
   36.7550   26.1780   41.8530 F   0  0  0  0  0  0  0  0  0  0  0  0
   36.0350   27.2110   43.6800 F   0  0  0  0  0  0  0  0  0  0  0  0
   41.3310   26.7730   43.5530 C   0  0  0  0  0  0  0  0  0  0  0  0
   42.3170   27.1570   43.7890 H   0  0  0  0  0  0  0  0  0  0  0  0
   41.1550   25.5380   43.6420 O   0  0  0  0  0  0  0  0  0  0  0  0
  1  2  1  0  0  0  0
  2  7  1  0  0  0  0
  2  3  2  0  0  0  0
  3 13  1  0  0  0  0
  4  3  1  0  0  0  0
  5  4  2  0  0  0  0
  6  5  1  0  0  0  0
  6  1  2  0  0  0  0
  8  5  1  0  0  0  0
  9  1  1  0  0  0  0
  9 12  1  0  0  0  0
 10  9  1  0  0  0  0
 11  9  1  0  0  0  0
 13 15  2  0  0  0  0
 13 14  1  0  0  0  0
M  END
>  <minimizedAffinity>
-3.55545688

$$$$
