
 OpenBabel03252509123D

 25 27  0  0  0  0  0  0  0  0999 V2000
   39.5060   30.3420   42.0470 C   0  0  0  0  0  0  0  0  0  0  0  0
   38.2380   29.9300   41.6530 C   0  0  0  0  0  0  0  0  0  0  0  0
   37.3430   30.7540   40.9730 C   0  0  0  0  0  0  0  0  0  0  0  0
   37.7230   32.0650   40.6650 C   0  0  0  0  0  0  0  0  0  0  0  0
   37.1640   33.1210   40.0430 N   0  0  0  0  0  0  0  0  0  0  0  0
   38.0360   34.1590   40.0420 C   0  0  0  0  0  0  0  0  0  0  0  0
   39.1440   33.7240   40.6740 N   0  0  0  0  0  0  0  0  0  0  0  0
   38.9790   32.4480   41.0640 C   0  0  0  0  0  0  0  0  0  0  0  0
   39.8890   31.6490   41.7410 C   0  0  0  0  0  0  0  0  0  0  0  0
   40.1690   29.6690   42.5730 H   0  0  0  0  0  0  0  0  0  0  0  0
   36.1870   33.0940   39.6340 H   0  0  0  0  0  0  0  0  0  0  0  0
   37.8530   35.1310   39.6120 H   0  0  0  0  0  0  0  0  0  0  0  0
   40.8670   32.0060   42.0310 H   0  0  0  0  0  0  0  0  0  0  0  0
   36.6820   27.0670   43.3630 C   0  0  0  0  0  0  0  0  0  0  0  0
   36.9990   26.0000   42.5100 C   0  0  0  0  0  0  0  0  0  0  0  0
   37.7540   26.2740   41.3400 C   0  0  0  0  0  0  0  0  0  0  0  0
   38.1170   27.5760   41.1340 N   0  0  0  0  0  0  0  0  0  0  0  0
   37.8060   28.5790   41.9560 C   0  0  0  0  0  0  0  0  0  0  0  0
   37.0950   28.3090   43.0540 N   0  0  0  0  0  0  0  0  0  0  0  0
   36.1020   26.8290   44.2520 H   0  0  0  0  0  0  0  0  0  0  0  0
   36.6840   24.9890   42.7230 H   0  0  0  0  0  0  0  0  0  0  0  0
   38.0240   25.4820   40.6490 H   0  0  0  0  0  0  0  0  0  0  0  0
   36.0270   30.3360   40.5600 C   0  0  0  0  0  0  0  0  0  0  0  0
   35.1670   30.0870   41.1970 H   0  0  0  0  0  0  0  0  0  0  0  0
   35.8460   30.2460   39.3130 O   0  0  0  0  0  0  0  0  0  0  0  0
  1 10  1  0  0  0  0
  2 18  1  0  0  0  0
  2  1  2  0  0  0  0
  3  2  1  0  0  0  0
  4  3  2  0  0  0  0
  4  8  1  0  0  0  0
  5  4  1  0  0  0  0
  6  5  1  0  0  0  0
  6  7  2  0  0  0  0
  7  8  1  0  0  0  0
  8  9  2  0  0  0  0
  9 13  1  0  0  0  0
  9  1  1  0  0  0  0
 11  5  1  0  0  0  0
 12  6  1  0  0  0  0
 14 20  1  0  0  0  0
 15 21  1  0  0  0  0
 15 14  2  0  0  0  0
 16 15  1  0  0  0  0
 17 16  2  0  0  0  0
 17 18  1  0  0  0  0
 18 19  2  0  0  0  0
 19 14  1  0  0  0  0
 22 16  1  0  0  0  0
 23  3  1  0  0  0  0
 23 24  1  0  0  0  0
 25 23  2  0  0  0  0
M  END
>  <minimizedAffinity>
-5.01197767

$$$$

 OpenBabel03252509123D

 25 27  0  0  0  0  0  0  0  0999 V2000
   36.7070   30.8700   40.4320 C   0  0  0  0  0  0  0  0  0  0  0  0
   37.7100   30.2350   41.1560 C   0  0  0  0  0  0  0  0  0  0  0  0
   38.9360   30.8320   41.4500 C   0  0  0  0  0  0  0  0  0  0  0  0
   39.1850   32.1330   41.0000 C   0  0  0  0  0  0  0  0  0  0  0  0
   40.2020   33.0130   41.0790 N   0  0  0  0  0  0  0  0  0  0  0  0
   39.8620   34.1560   40.4340 C   0  0  0  0  0  0  0  0  0  0  0  0
   38.6170   33.9650   39.9560 N   0  0  0  0  0  0  0  0  0  0  0  0
   38.1810   32.7380   40.2870 C   0  0  0  0  0  0  0  0  0  0  0  0
   36.9530   32.1680   39.9820 C   0  0  0  0  0  0  0  0  0  0  0  0
   35.7700   30.3700   40.2270 H   0  0  0  0  0  0  0  0  0  0  0  0
   41.1100   32.7960   41.5810 H   0  0  0  0  0  0  0  0  0  0  0  0
   40.4860   35.0310   40.3390 H   0  0  0  0  0  0  0  0  0  0  0  0
   36.1970   32.6950   39.4150 H   0  0  0  0  0  0  0  0  0  0  0  0
   36.7340   27.4170   43.3100 C   0  0  0  0  0  0  0  0  0  0  0  0
   37.0860   26.3060   42.5280 C   0  0  0  0  0  0  0  0  0  0  0  0
   37.6630   26.5360   41.2520 C   0  0  0  0  0  0  0  0  0  0  0  0
   37.8320   27.8410   40.8810 N   0  0  0  0  0  0  0  0  0  0  0  0
   37.4900   28.8850   41.6370 C   0  0  0  0  0  0  0  0  0  0  0  0
   36.9480   28.6570   42.8360 N   0  0  0  0  0  0  0  0  0  0  0  0
   36.2930   27.2120   44.2830 H   0  0  0  0  0  0  0  0  0  0  0  0
   36.9290   25.2950   42.8740 H   0  0  0  0  0  0  0  0  0  0  0  0
   37.9520   25.7100   40.6110 H   0  0  0  0  0  0  0  0  0  0  0  0
   39.9810   30.1830   42.1990 C   0  0  0  0  0  0  0  0  0  0  0  0
   40.2470   29.1160   42.2030 H   0  0  0  0  0  0  0  0  0  0  0  0
   40.6730   30.9360   42.9410 O   0  0  0  0  0  0  0  0  0  0  0  0
  1  2  1  0  0  0  0
  2  3  2  0  0  0  0
  2 18  1  0  0  0  0
  3 23  1  0  0  0  0
  4  5  1  0  0  0  0
  4  3  1  0  0  0  0
  5 11  1  0  0  0  0
  6  5  1  0  0  0  0
  7  8  1  0  0  0  0
  7  6  2  0  0  0  0
  8  4  2  0  0  0  0
  9  8  1  0  0  0  0
  9  1  2  0  0  0  0
 10  1  1  0  0  0  0
 12  6  1  0  0  0  0
 13  9  1  0  0  0  0
 14 20  1  0  0  0  0
 15 21  1  0  0  0  0
 15 14  2  0  0  0  0
 16 15  1  0  0  0  0
 17 16  2  0  0  0  0
 17 18  1  0  0  0  0
 18 19  2  0  0  0  0
 19 14  1  0  0  0  0
 22 16  1  0  0  0  0
 23 24  1  0  0  0  0
 23 25  2  0  0  0  0
M  END
>  <minimizedAffinity>
-4.84975624

$$$$

 OpenBabel03252509123D

 25 27  0  0  0  0  0  0  0  0999 V2000
   40.3920   29.5990   42.1480 C   0  0  0  0  0  0  0  0  0  0  0  0
   39.4640   30.2960   41.3810 C   0  0  0  0  0  0  0  0  0  0  0  0
   38.0970   30.0200   41.3980 C   0  0  0  0  0  0  0  0  0  0  0  0
   37.6190   28.9940   42.2220 C   0  0  0  0  0  0  0  0  0  0  0  0
   36.4200   28.4520   42.5040 N   0  0  0  0  0  0  0  0  0  0  0  0
   36.5760   27.4540   43.4080 C   0  0  0  0  0  0  0  0  0  0  0  0
   37.8950   27.3920   43.6790 N   0  0  0  0  0  0  0  0  0  0  0  0
   38.5540   28.3220   42.9680 C   0  0  0  0  0  0  0  0  0  0  0  0
   39.9180   28.5760   42.9700 C   0  0  0  0  0  0  0  0  0  0  0  0
   41.4440   29.8470   42.1040 H   0  0  0  0  0  0  0  0  0  0  0  0
   35.5190   28.7880   42.0590 H   0  0  0  0  0  0  0  0  0  0  0  0
   35.7830   26.8460   43.8140 H   0  0  0  0  0  0  0  0  0  0  0  0
   40.6100   28.0120   43.5810 H   0  0  0  0  0  0  0  0  0  0  0  0
   40.7190   32.0920   38.4250 C   0  0  0  0  0  0  0  0  0  0  0  0
   40.7870   33.4150   38.8850 C   0  0  0  0  0  0  0  0  0  0  0  0
   40.3970   33.6850   40.2230 C   0  0  0  0  0  0  0  0  0  0  0  0
   39.9800   32.6160   40.9680 N   0  0  0  0  0  0  0  0  0  0  0  0
   39.9200   31.3640   40.5130 C   0  0  0  0  0  0  0  0  0  0  0  0
   40.2900   31.1230   39.2530 N   0  0  0  0  0  0  0  0  0  0  0  0
   41.0230   31.9140   37.3960 H   0  0  0  0  0  0  0  0  0  0  0  0
   41.1260   34.2210   38.2510 H   0  0  0  0  0  0  0  0  0  0  0  0
   40.4330   34.6920   40.6250 H   0  0  0  0  0  0  0  0  0  0  0  0
   37.1280   30.7360   40.6080 C   0  0  0  0  0  0  0  0  0  0  0  0
   37.2040   31.0340   39.5530 H   0  0  0  0  0  0  0  0  0  0  0  0
   36.0620   31.0580   41.2060 O   0  0  0  0  0  0  0  0  0  0  0  0
  1  9  1  0  0  0  0
  2  3  1  0  0  0  0
  2  1  2  0  0  0  0
  3  4  2  0  0  0  0
  4  5  1  0  0  0  0
  4  8  1  0  0  0  0
  5  6  1  0  0  0  0
  6  7  2  0  0  0  0
  6 12  1  0  0  0  0
  8  9  2  0  0  0  0
  8  7  1  0  0  0  0
  9 13  1  0  0  0  0
 10  1  1  0  0  0  0
 11  5  1  0  0  0  0
 14 15  2  0  0  0  0
 14 19  1  0  0  0  0
 15 16  1  0  0  0  0
 16 22  1  0  0  0  0
 16 17  2  0  0  0  0
 18 17  1  0  0  0  0
 18  2  1  0  0  0  0
 19 18  2  0  0  0  0
 20 14  1  0  0  0  0
 21 15  1  0  0  0  0
 23 25  2  0  0  0  0
 23  3  1  0  0  0  0
 24 23  1  0  0  0  0
M  END
>  <minimizedAffinity>
-4.58179617

$$$$

 OpenBabel03252509123D

 25 27  0  0  0  0  0  0  0  0999 V2000
   36.5590   26.7530   39.5920 C   0  0  0  0  0  0  0  0  0  0  0  0
   36.0960   28.0530   39.4190 C   0  0  0  0  0  0  0  0  0  0  0  0
   36.1710   29.0300   40.4120 C   0  0  0  0  0  0  0  0  0  0  0  0
   36.7380   28.7020   41.6480 C   0  0  0  0  0  0  0  0  0  0  0  0
   36.9820   29.3420   42.8080 N   0  0  0  0  0  0  0  0  0  0  0  0
   37.5720   28.4880   43.6800 C   0  0  0  0  0  0  0  0  0  0  0  0
   37.6890   27.3100   43.0370 N   0  0  0  0  0  0  0  0  0  0  0  0
   37.1870   27.4130   41.7940 C   0  0  0  0  0  0  0  0  0  0  0  0
   37.1250   26.4230   40.8240 C   0  0  0  0  0  0  0  0  0  0  0  0
   36.4800   26.0260   38.7950 H   0  0  0  0  0  0  0  0  0  0  0  0
   36.7300   30.3590   42.9650 H   0  0  0  0  0  0  0  0  0  0  0  0
   37.8790   28.7320   44.6850 H   0  0  0  0  0  0  0  0  0  0  0  0
   37.4960   25.4220   40.9960 H   0  0  0  0  0  0  0  0  0  0  0  0
   33.5960   28.7260   36.8040 C   0  0  0  0  0  0  0  0  0  0  0  0
   34.3930   29.1520   35.7310 C   0  0  0  0  0  0  0  0  0  0  0  0
   35.7990   29.2060   35.9150 C   0  0  0  0  0  0  0  0  0  0  0  0
   36.2720   28.8330   37.1430 N   0  0  0  0  0  0  0  0  0  0  0  0
   35.5000   28.4300   38.1520 C   0  0  0  0  0  0  0  0  0  0  0  0
   34.1780   28.3840   37.9670 N   0  0  0  0  0  0  0  0  0  0  0  0
   32.5220   28.6940   36.6350 H   0  0  0  0  0  0  0  0  0  0  0  0
   33.9630   29.4360   34.7820 H   0  0  0  0  0  0  0  0  0  0  0  0
   36.4570   29.5290   35.1150 H   0  0  0  0  0  0  0  0  0  0  0  0
   35.6940   30.3780   40.2430 C   0  0  0  0  0  0  0  0  0  0  0  0
   34.7470   30.7090   39.7940 H   0  0  0  0  0  0  0  0  0  0  0  0
   36.4640   31.2890   40.6620 O   0  0  0  0  0  0  0  0  0  0  0  0
  1  9  1  0  0  0  0
  2  1  2  0  0  0  0
  2  3  1  0  0  0  0
  3  4  2  0  0  0  0
  4  8  1  0  0  0  0
  4  5  1  0  0  0  0
  5 11  1  0  0  0  0
  5  6  1  0  0  0  0
  6 12  1  0  0  0  0
  7  6  2  0  0  0  0
  8  7  1  0  0  0  0
  9 13  1  0  0  0  0
  9  8  2  0  0  0  0
 10  1  1  0  0  0  0
 14 19  1  0  0  0  0
 15 16  1  0  0  0  0
 15 14  2  0  0  0  0
 16 17  2  0  0  0  0
 17 18  1  0  0  0  0
 18  2  1  0  0  0  0
 19 18  2  0  0  0  0
 20 14  1  0  0  0  0
 21 15  1  0  0  0  0
 22 16  1  0  0  0  0
 23  3  1  0  0  0  0
 23 25  2  0  0  0  0
 24 23  1  0  0  0  0
M  END
>  <minimizedAffinity>
-4.52939224

$$$$

 OpenBabel03252509123D

 25 27  0  0  0  0  0  0  0  0999 V2000
   37.3770   28.6170   42.9900 C   0  0  0  0  0  0  0  0  0  0  0  0
   37.6590   28.9170   41.6610 C   0  0  0  0  0  0  0  0  0  0  0  0
   37.6600   27.9620   40.6450 C   0  0  0  0  0  0  0  0  0  0  0  0
   37.3670   26.6310   40.9610 C   0  0  0  0  0  0  0  0  0  0  0  0
   37.2710   25.4690   40.2870 N   0  0  0  0  0  0  0  0  0  0  0  0
   36.9440   24.4740   41.1480 C   0  0  0  0  0  0  0  0  0  0  0  0
   36.8400   25.0430   42.3640 N   0  0  0  0  0  0  0  0  0  0  0  0
   37.0930   26.3600   42.2780 C   0  0  0  0  0  0  0  0  0  0  0  0
   37.0840   27.2900   43.3080 C   0  0  0  0  0  0  0  0  0  0  0  0
   37.3870   29.3890   43.7460 H   0  0  0  0  0  0  0  0  0  0  0  0
   37.4360   25.3960   39.2430 H   0  0  0  0  0  0  0  0  0  0  0  0
   36.8010   23.4380   40.8830 H   0  0  0  0  0  0  0  0  0  0  0  0
   36.8600   27.0180   44.3300 H   0  0  0  0  0  0  0  0  0  0  0  0
   37.3150   32.3460   40.3710 C   0  0  0  0  0  0  0  0  0  0  0  0
   38.5900   32.8840   40.6060 C   0  0  0  0  0  0  0  0  0  0  0  0
   39.5690   32.0550   41.2120 C   0  0  0  0  0  0  0  0  0  0  0  0
   39.1870   30.7800   41.5240 N   0  0  0  0  0  0  0  0  0  0  0  0
   37.9700   30.2850   41.2950 C   0  0  0  0  0  0  0  0  0  0  0  0
   37.0560   31.0740   40.7240 N   0  0  0  0  0  0  0  0  0  0  0  0
   36.5840   33.0030   39.9050 H   0  0  0  0  0  0  0  0  0  0  0  0
   38.8360   33.9000   40.3370 H   0  0  0  0  0  0  0  0  0  0  0  0
   40.5690   32.4250   41.4130 H   0  0  0  0  0  0  0  0  0  0  0  0
   37.9500   28.2630   39.2670 C   0  0  0  0  0  0  0  0  0  0  0  0
   38.8470   28.7470   38.8550 H   0  0  0  0  0  0  0  0  0  0  0  0
   37.0610   27.9290   38.4330 O   0  0  0  0  0  0  0  0  0  0  0  0
  1  9  1  0  0  0  0
  1 10  1  0  0  0  0
  2  1  2  0  0  0  0
  3  4  2  0  0  0  0
  3  2  1  0  0  0  0
  4  8  1  0  0  0  0
  5  4  1  0  0  0  0
  5  6  1  0  0  0  0
  6  7  2  0  0  0  0
  8  7  1  0  0  0  0
  8  9  2  0  0  0  0
  9 13  1  0  0  0  0
 11  5  1  0  0  0  0
 12  6  1  0  0  0  0
 14 15  2  0  0  0  0
 14 19  1  0  0  0  0
 15 16  1  0  0  0  0
 16 22  1  0  0  0  0
 16 17  2  0  0  0  0
 18 17  1  0  0  0  0
 18  2  1  0  0  0  0
 19 18  2  0  0  0  0
 20 14  1  0  0  0  0
 21 15  1  0  0  0  0
 23  3  1  0  0  0  0
 24 23  1  0  0  0  0
 25 23  2  0  0  0  0
M  END
>  <minimizedAffinity>
-4.4253912

$$$$

 OpenBabel03252509123D

 25 27  0  0  0  0  0  0  0  0999 V2000
   36.9690   30.1040   36.9160 C   0  0  0  0  0  0  0  0  0  0  0  0
   36.1590   29.5190   37.8840 C   0  0  0  0  0  0  0  0  0  0  0  0
   36.0060   30.0390   39.1690 C   0  0  0  0  0  0  0  0  0  0  0  0
   36.6960   31.2050   39.5190 C   0  0  0  0  0  0  0  0  0  0  0  0
   36.8020   31.9830   40.6130 N   0  0  0  0  0  0  0  0  0  0  0  0
   37.6420   33.0140   40.3550 C   0  0  0  0  0  0  0  0  0  0  0  0
   38.0520   32.8600   39.0810 N   0  0  0  0  0  0  0  0  0  0  0  0
   37.4890   31.7620   38.5470 C   0  0  0  0  0  0  0  0  0  0  0  0
   37.6580   31.2670   37.2620 C   0  0  0  0  0  0  0  0  0  0  0  0
   37.0580   29.6670   35.9320 H   0  0  0  0  0  0  0  0  0  0  0  0
   36.2870   31.7760   41.5160 H   0  0  0  0  0  0  0  0  0  0  0  0
   37.9120   33.7930   41.0520 H   0  0  0  0  0  0  0  0  0  0  0  0
   38.2980   31.7500   36.5370 H   0  0  0  0  0  0  0  0  0  0  0  0
   35.2850   25.9620   37.5390 C   0  0  0  0  0  0  0  0  0  0  0  0
   34.0210   26.0210   36.9330 C   0  0  0  0  0  0  0  0  0  0  0  0
   33.4710   27.2970   36.6450 C   0  0  0  0  0  0  0  0  0  0  0  0
   34.2290   28.3840   36.9850 N   0  0  0  0  0  0  0  0  0  0  0  0
   35.4290   28.3080   37.5610 C   0  0  0  0  0  0  0  0  0  0  0  0
   35.9360   27.1020   37.8280 N   0  0  0  0  0  0  0  0  0  0  0  0
   35.6820   24.9710   37.7490 H   0  0  0  0  0  0  0  0  0  0  0  0
   33.4670   25.1280   36.6860 H   0  0  0  0  0  0  0  0  0  0  0  0
   32.4970   27.3950   36.1770 H   0  0  0  0  0  0  0  0  0  0  0  0
   35.1690   29.4410   40.1780 C   0  0  0  0  0  0  0  0  0  0  0  0
   34.0800   29.3000   40.1570 H   0  0  0  0  0  0  0  0  0  0  0  0
   35.7670   29.0320   41.2140 O   0  0  0  0  0  0  0  0  0  0  0  0
  1  9  2  0  0  0  0
  1  2  1  0  0  0  0
  2  3  2  0  0  0  0
  3  4  1  0  0  0  0
  3 23  1  0  0  0  0
  4  5  1  0  0  0  0
  5 11  1  0  0  0  0
  6  5  1  0  0  0  0
  6 12  1  0  0  0  0
  7  6  2  0  0  0  0
  8  7  1  0  0  0  0
  8  4  2  0  0  0  0
  9  8  1  0  0  0  0
 10  1  1  0  0  0  0
 13  9  1  0  0  0  0
 14 20  1  0  0  0  0
 14 19  1  0  0  0  0
 15 14  2  0  0  0  0
 16 15  1  0  0  0  0
 16 17  2  0  0  0  0
 17 18  1  0  0  0  0
 18 19  2  0  0  0  0
 18  2  1  0  0  0  0
 21 15  1  0  0  0  0
 22 16  1  0  0  0  0
 23 25  2  0  0  0  0
 24 23  1  0  0  0  0
M  END
>  <minimizedAffinity>
-4.31642818

$$$$

 OpenBabel03252509123D

 25 27  0  0  0  0  0  0  0  0999 V2000
   39.6830   28.7700   42.7490 C   0  0  0  0  0  0  0  0  0  0  0  0
   38.7610   28.4770   41.7500 C   0  0  0  0  0  0  0  0  0  0  0  0
   38.3980   27.1760   41.4020 C   0  0  0  0  0  0  0  0  0  0  0  0
   38.9820   26.1010   42.0820 C   0  0  0  0  0  0  0  0  0  0  0  0
   38.8940   24.7580   42.0380 N   0  0  0  0  0  0  0  0  0  0  0  0
   39.7230   24.2210   42.9660 C   0  0  0  0  0  0  0  0  0  0  0  0
   40.3240   25.2570   43.5840 N   0  0  0  0  0  0  0  0  0  0  0  0
   39.8890   26.4160   43.0620 C   0  0  0  0  0  0  0  0  0  0  0  0
   40.2670   27.7000   43.4280 C   0  0  0  0  0  0  0  0  0  0  0  0
   39.9350   29.7950   42.9870 H   0  0  0  0  0  0  0  0  0  0  0  0
   38.2590   24.2470   41.3620 H   0  0  0  0  0  0  0  0  0  0  0  0
   39.8560   23.1660   43.1530 H   0  0  0  0  0  0  0  0  0  0  0  0
   40.9890   27.8890   44.2110 H   0  0  0  0  0  0  0  0  0  0  0  0
   38.1340   31.0720   39.2190 C   0  0  0  0  0  0  0  0  0  0  0  0
   36.9240   31.6320   39.6570 C   0  0  0  0  0  0  0  0  0  0  0  0
   36.3260   31.1080   40.8320 C   0  0  0  0  0  0  0  0  0  0  0  0
   36.9860   30.0840   41.4530 N   0  0  0  0  0  0  0  0  0  0  0  0
   38.1350   29.5630   41.0220 C   0  0  0  0  0  0  0  0  0  0  0  0
   38.6890   30.0640   39.9140 N   0  0  0  0  0  0  0  0  0  0  0  0
   38.5700   31.4930   38.3150 H   0  0  0  0  0  0  0  0  0  0  0  0
   36.4470   32.4420   39.1250 H   0  0  0  0  0  0  0  0  0  0  0  0
   35.3910   31.5080   41.2110 H   0  0  0  0  0  0  0  0  0  0  0  0
   37.4440   26.8620   40.3690 C   0  0  0  0  0  0  0  0  0  0  0  0
   37.3030   27.3660   39.4030 H   0  0  0  0  0  0  0  0  0  0  0  0
   36.6770   25.8860   40.6090 O   0  0  0  0  0  0  0  0  0  0  0  0
  1 10  1  0  0  0  0
  1  9  1  0  0  0  0
  2  1  2  0  0  0  0
  3  2  1  0  0  0  0
  3  4  2  0  0  0  0
  4  8  1  0  0  0  0
  5  4  1  0  0  0  0
  5  6  1  0  0  0  0
  6 12  1  0  0  0  0
  6  7  2  0  0  0  0
  8  9  2  0  0  0  0
  8  7  1  0  0  0  0
  9 13  1  0  0  0  0
 11  5  1  0  0  0  0
 14 15  2  0  0  0  0
 14 19  1  0  0  0  0
 15 16  1  0  0  0  0
 16 22  1  0  0  0  0
 16 17  2  0  0  0  0
 18 17  1  0  0  0  0
 18  2  1  0  0  0  0
 19 18  2  0  0  0  0
 20 14  1  0  0  0  0
 21 15  1  0  0  0  0
 23 25  2  0  0  0  0
 23  3  1  0  0  0  0
 24 23  1  0  0  0  0
M  END
>  <minimizedAffinity>
-4.28839827

$$$$

 OpenBabel03252509123D

 25 27  0  0  0  0  0  0  0  0999 V2000
   37.0080   26.7970   40.5410 C   0  0  0  0  0  0  0  0  0  0  0  0
   37.7660   27.8230   41.0940 C   0  0  0  0  0  0  0  0  0  0  0  0
   38.7800   27.6080   42.0270 C   0  0  0  0  0  0  0  0  0  0  0  0
   39.0590   26.3000   42.4380 C   0  0  0  0  0  0  0  0  0  0  0  0
   39.9260   25.7100   43.2840 N   0  0  0  0  0  0  0  0  0  0  0  0
   39.7280   24.3690   43.2710 C   0  0  0  0  0  0  0  0  0  0  0  0
   38.7230   24.1430   42.4020 N   0  0  0  0  0  0  0  0  0  0  0  0
   38.2980   25.3050   41.8790 C   0  0  0  0  0  0  0  0  0  0  0  0
   37.2850   25.4920   40.9490 C   0  0  0  0  0  0  0  0  0  0  0  0
   36.2310   27.0090   39.8190 H   0  0  0  0  0  0  0  0  0  0  0  0
   40.6350   26.2550   43.8510 H   0  0  0  0  0  0  0  0  0  0  0  0
   40.2810   23.6480   43.8520 H   0  0  0  0  0  0  0  0  0  0  0  0
   36.7160   24.6670   40.5420 H   0  0  0  0  0  0  0  0  0  0  0  0
   36.2850   31.1880   40.9360 C   0  0  0  0  0  0  0  0  0  0  0  0
   37.0270   31.7940   39.9120 C   0  0  0  0  0  0  0  0  0  0  0  0
   38.0420   31.0350   39.2750 C   0  0  0  0  0  0  0  0  0  0  0  0
   38.2190   29.7530   39.7170 N   0  0  0  0  0  0  0  0  0  0  0  0
   37.5050   29.1930   40.6940 C   0  0  0  0  0  0  0  0  0  0  0  0
   36.5520   29.9170   41.2860 N   0  0  0  0  0  0  0  0  0  0  0  0
   35.5130   31.7930   41.4070 H   0  0  0  0  0  0  0  0  0  0  0  0
   36.8430   32.8130   39.6030 H   0  0  0  0  0  0  0  0  0  0  0  0
   38.6430   31.4590   38.4770 H   0  0  0  0  0  0  0  0  0  0  0  0
   39.5710   28.6640   42.6050 C   0  0  0  0  0  0  0  0  0  0  0  0
   39.2180   29.5870   43.0860 H   0  0  0  0  0  0  0  0  0  0  0  0
   40.8230   28.5050   42.5490 O   0  0  0  0  0  0  0  0  0  0  0  0
  1  9  2  0  0  0  0
  1  2  1  0  0  0  0
  2  3  2  0  0  0  0
  3  4  1  0  0  0  0
  3 23  1  0  0  0  0
  4  5  1  0  0  0  0
  5 11  1  0  0  0  0
  6  5  1  0  0  0  0
  6 12  1  0  0  0  0
  7  6  2  0  0  0  0
  8  7  1  0  0  0  0
  8  4  2  0  0  0  0
  9  8  1  0  0  0  0
 10  1  1  0  0  0  0
 13  9  1  0  0  0  0
 14 19  1  0  0  0  0
 14 20  1  0  0  0  0
 15 14  2  0  0  0  0
 16 17  2  0  0  0  0
 16 15  1  0  0  0  0
 17 18  1  0  0  0  0
 18  2  1  0  0  0  0
 18 19  2  0  0  0  0
 21 15  1  0  0  0  0
 22 16  1  0  0  0  0
 23 24  1  0  0  0  0
 25 23  2  0  0  0  0
M  END
>  <minimizedAffinity>
-4.28661203

$$$$

 OpenBabel03252509123D

 25 27  0  0  0  0  0  0  0  0999 V2000
   35.7560   28.9680   40.6920 C   0  0  0  0  0  0  0  0  0  0  0  0
   36.9500   28.2680   40.8370 C   0  0  0  0  0  0  0  0  0  0  0  0
   38.1960   28.8890   40.9170 C   0  0  0  0  0  0  0  0  0  0  0  0
   38.2660   30.2850   40.8490 C   0  0  0  0  0  0  0  0  0  0  0  0
   39.2410   31.2140   40.8900 N   0  0  0  0  0  0  0  0  0  0  0  0
   38.6940   32.4480   40.7740 C   0  0  0  0  0  0  0  0  0  0  0  0
   37.3640   32.2650   40.6620 N   0  0  0  0  0  0  0  0  0  0  0  0
   37.0760   30.9530   40.7050 C   0  0  0  0  0  0  0  0  0  0  0  0
   35.8240   30.3600   40.6240 C   0  0  0  0  0  0  0  0  0  0  0  0
   34.8110   28.4460   40.6340 H   0  0  0  0  0  0  0  0  0  0  0  0
   40.2660   30.9650   40.9960 H   0  0  0  0  0  0  0  0  0  0  0  0
   39.2400   33.3790   40.7760 H   0  0  0  0  0  0  0  0  0  0  0  0
   34.9180   30.9390   40.5100 H   0  0  0  0  0  0  0  0  0  0  0  0
   36.9480   24.8430   42.1810 C   0  0  0  0  0  0  0  0  0  0  0  0
   36.8560   24.0650   41.0170 C   0  0  0  0  0  0  0  0  0  0  0  0
   36.7950   24.7290   39.7650 C   0  0  0  0  0  0  0  0  0  0  0  0
   36.8310   26.0960   39.7930 N   0  0  0  0  0  0  0  0  0  0  0  0
   36.9170   26.8200   40.9090 C   0  0  0  0  0  0  0  0  0  0  0  0
   36.9750   26.1840   42.0820 N   0  0  0  0  0  0  0  0  0  0  0  0
   36.9940   24.3080   43.1270 H   0  0  0  0  0  0  0  0  0  0  0  0
   36.8320   22.9860   41.0560 H   0  0  0  0  0  0  0  0  0  0  0  0
   36.7230   24.1710   38.8370 H   0  0  0  0  0  0  0  0  0  0  0  0
   39.4370   28.1740   41.0670 C   0  0  0  0  0  0  0  0  0  0  0  0
   39.8340   27.3700   40.4320 H   0  0  0  0  0  0  0  0  0  0  0  0
   40.1510   28.5140   42.0530 O   0  0  0  0  0  0  0  0  0  0  0  0
  1  2  1  0  0  0  0
  2 18  1  0  0  0  0
  2  3  2  0  0  0  0
  3 23  1  0  0  0  0
  4  5  1  0  0  0  0
  4  3  1  0  0  0  0
  5 11  1  0  0  0  0
  6 12  1  0  0  0  0
  6  5  1  0  0  0  0
  7  8  1  0  0  0  0
  7  6  2  0  0  0  0
  8  4  2  0  0  0  0
  9  1  2  0  0  0  0
  9  8  1  0  0  0  0
 10  1  1  0  0  0  0
 13  9  1  0  0  0  0
 14 20  1  0  0  0  0
 15 21  1  0  0  0  0
 15 14  2  0  0  0  0
 16 17  2  0  0  0  0
 16 15  1  0  0  0  0
 17 18  1  0  0  0  0
 18 19  2  0  0  0  0
 19 14  1  0  0  0  0
 22 16  1  0  0  0  0
 23 25  2  0  0  0  0
 24 23  1  0  0  0  0
M  END
>  <minimizedAffinity>
-4.27613497

$$$$
