
 OpenBabel03242515363D

 26 28  0  0  0  0  0  0  0  0999 V2000
   37.9100   28.7480   42.6100 C   0  0  0  0  0  0  0  0  0  0  0  0
   37.0240   28.0270   41.8270 C   0  0  0  0  0  0  0  0  0  0  0  0
   37.1530   26.6620   41.7010 C   0  0  0  0  0  0  0  0  0  0  0  0
   38.1610   25.9860   42.3460 C   0  0  0  0  0  0  0  0  0  0  0  0
   39.0610   26.6930   43.1360 C   0  0  0  0  0  0  0  0  0  0  0  0
   38.9470   28.0790   43.2770 C   0  0  0  0  0  0  0  0  0  0  0  0
   39.9850   25.7880   43.6800 O   0  0  0  0  0  0  0  0  0  0  0  0
   39.8490   24.6070   42.8940 C   0  0  0  0  0  0  0  0  0  0  0  0
   38.5300   24.6280   42.4000 O   0  0  0  0  0  0  0  0  0  0  0  0
   37.8970   29.8120   42.7750 H   0  0  0  0  0  0  0  0  0  0  0  0
   36.4380   26.1360   41.0790 H   0  0  0  0  0  0  0  0  0  0  0  0
   39.6520   28.5950   43.8900 H   0  0  0  0  0  0  0  0  0  0  0  0
   40.6070   24.5390   42.1050 H   0  0  0  0  0  0  0  0  0  0  0  0
   39.9140   23.7540   43.5880 H   0  0  0  0  0  0  0  0  0  0  0  0
   35.7410   28.9800   41.0210 S   0  0  0  0  0  0  0  0  0  0  0  0
   36.4890   30.2340   39.9510 C   0  0  0  0  0  0  0  0  0  0  0  0
   36.7320   29.8220   38.6460 C   0  0  0  0  0  0  0  0  0  0  0  0
   37.3190   30.7810   37.7760 C   0  0  0  0  0  0  0  0  0  0  0  0
   37.5980   32.0130   38.2670 N   0  0  0  0  0  0  0  0  0  0  0  0
   37.3410   32.3530   39.5340 C   0  0  0  0  0  0  0  0  0  0  0  0
   36.7910   31.4780   40.3760 N   0  0  0  0  0  0  0  0  0  0  0  0
   36.4910   28.8190   38.2910 H   0  0  0  0  0  0  0  0  0  0  0  0
   37.5260   30.5040   36.7480 H   0  0  0  0  0  0  0  0  0  0  0  0
   37.6850   33.7050   39.9480 C   0  0  0  0  0  0  0  0  0  0  0  0
   37.1820   34.6110   39.6650 H   0  0  0  0  0  0  0  0  0  0  0  0
   38.6570   33.8860   40.7100 O   0  0  0  0  0  0  0  0  0  0  0  0
  1 10  1  0  0  0  0
  1  6  1  0  0  0  0
  2  1  2  0  0  0  0
  3  2  1  0  0  0  0
  3  4  2  0  0  0  0
  4  9  1  0  0  0  0
  4  5  1  0  0  0  0
  5  6  2  0  0  0  0
  5  7  1  0  0  0  0
  6 12  1  0  0  0  0
  8 14  1  0  0  0  0
  8  7  1  0  0  0  0
  9  8  1  0  0  0  0
 11  3  1  0  0  0  0
 13  8  1  0  0  0  0
 15  2  1  0  0  0  0
 16 21  1  0  0  0  0
 16 15  1  0  0  0  0
 17 16  2  0  0  0  0
 18 19  2  0  0  0  0
 18 17  1  0  0  0  0
 19 20  1  0  0  0  0
 20 24  1  0  0  0  0
 20 21  2  0  0  0  0
 22 17  1  0  0  0  0
 23 18  1  0  0  0  0
 24 26  2  0  0  0  0
 25 24  1  0  0  0  0
M  END
>  <minimizedAffinity>
-4.94107914

$$$$

 OpenBabel03242515363D

 26 28  0  0  0  0  0  0  0  0999 V2000
   39.0850   30.0370   42.6020 C   0  0  0  0  0  0  0  0  0  0  0  0
   37.8050   29.5160   42.5190 C   0  0  0  0  0  0  0  0  0  0  0  0
   36.9140   29.9980   41.5860 C   0  0  0  0  0  0  0  0  0  0  0  0
   37.2720   31.0030   40.7210 C   0  0  0  0  0  0  0  0  0  0  0  0
   38.5530   31.5390   40.7890 C   0  0  0  0  0  0  0  0  0  0  0  0
   39.4720   31.0640   41.7280 C   0  0  0  0  0  0  0  0  0  0  0  0
   38.6710   32.5400   39.8130 O   0  0  0  0  0  0  0  0  0  0  0  0
   37.3320   32.8460   39.4360 C   0  0  0  0  0  0  0  0  0  0  0  0
   36.5880   31.6780   39.6910 O   0  0  0  0  0  0  0  0  0  0  0  0
   39.8550   29.7330   43.2900 H   0  0  0  0  0  0  0  0  0  0  0  0
   35.9210   29.5620   41.5540 H   0  0  0  0  0  0  0  0  0  0  0  0
   40.4490   31.4940   41.7580 H   0  0  0  0  0  0  0  0  0  0  0  0
   36.9430   33.7300   39.9530 H   0  0  0  0  0  0  0  0  0  0  0  0
   37.3340   32.9890   38.3440 H   0  0  0  0  0  0  0  0  0  0  0  0
   37.4160   28.2110   43.6800 S   0  0  0  0  0  0  0  0  0  0  0  0
   38.2240   26.6740   43.1670 C   0  0  0  0  0  0  0  0  0  0  0  0
   39.5020   26.4830   43.6800 C   0  0  0  0  0  0  0  0  0  0  0  0
   40.1680   25.2860   43.2980 C   0  0  0  0  0  0  0  0  0  0  0  0
   39.5230   24.4240   42.4740 N   0  0  0  0  0  0  0  0  0  0  0  0
   38.2920   24.6600   42.0130 C   0  0  0  0  0  0  0  0  0  0  0  0
   37.6390   25.7730   42.3500 N   0  0  0  0  0  0  0  0  0  0  0  0
   39.9840   27.2050   44.3410 H   0  0  0  0  0  0  0  0  0  0  0  0
   41.1660   25.0950   43.6740 H   0  0  0  0  0  0  0  0  0  0  0  0
   37.7020   23.6620   41.1340 C   0  0  0  0  0  0  0  0  0  0  0  0
   38.1790   22.7750   40.7580 H   0  0  0  0  0  0  0  0  0  0  0  0
   36.5240   23.8030   40.7470 O   0  0  0  0  0  0  0  0  0  0  0  0
  1 10  1  0  0  0  0
  2  1  1  0  0  0  0
  2 15  1  0  0  0  0
  3  2  2  0  0  0  0
  4  5  2  0  0  0  0
  4  3  1  0  0  0  0
  5  6  1  0  0  0  0
  6 12  1  0  0  0  0
  6  1  2  0  0  0  0
  7  5  1  0  0  0  0
  8  9  1  0  0  0  0
  8  7  1  0  0  0  0
  8 13  1  0  0  0  0
  9  4  1  0  0  0  0
 11  3  1  0  0  0  0
 14  8  1  0  0  0  0
 16 17  1  0  0  0  0
 16 15  1  0  0  0  0
 17 22  1  0  0  0  0
 18 23  1  0  0  0  0
 18 17  2  0  0  0  0
 19 18  1  0  0  0  0
 20 21  1  0  0  0  0
 20 19  2  0  0  0  0
 21 16  2  0  0  0  0
 24 20  1  0  0  0  0
 25 24  1  0  0  0  0
 26 24  2  0  0  0  0
M  END
>  <minimizedAffinity>
-4.93244123

$$$$

 OpenBabel03242515363D

 26 28  0  0  0  0  0  0  0  0999 V2000
   39.1380   26.2900   43.0410 C   0  0  0  0  0  0  0  0  0  0  0  0
   37.8540   26.7910   42.9050 C   0  0  0  0  0  0  0  0  0  0  0  0
   36.8930   26.0750   42.2280 C   0  0  0  0  0  0  0  0  0  0  0  0
   37.1840   24.8520   41.6720 C   0  0  0  0  0  0  0  0  0  0  0  0
   38.4680   24.3320   41.7990 C   0  0  0  0  0  0  0  0  0  0  0  0
   39.4570   25.0440   42.4820 C   0  0  0  0  0  0  0  0  0  0  0  0
   38.5110   23.0870   41.1540 O   0  0  0  0  0  0  0  0  0  0  0  0
   37.3530   23.0620   40.3230 C   0  0  0  0  0  0  0  0  0  0  0  0
   36.4220   23.9190   40.9430 O   0  0  0  0  0  0  0  0  0  0  0  0
   39.9590   26.7670   43.5490 H   0  0  0  0  0  0  0  0  0  0  0  0
   35.9000   26.5030   42.1440 H   0  0  0  0  0  0  0  0  0  0  0  0
   40.4340   24.6200   42.5640 H   0  0  0  0  0  0  0  0  0  0  0  0
   37.5750   23.3390   39.2870 H   0  0  0  0  0  0  0  0  0  0  0  0
   36.9380   22.0440   40.3870 H   0  0  0  0  0  0  0  0  0  0  0  0
   37.5560   28.3880   43.6550 S   0  0  0  0  0  0  0  0  0  0  0  0
   38.0720   29.7030   42.5240 C   0  0  0  0  0  0  0  0  0  0  0  0
   39.3620   30.1800   42.7270 C   0  0  0  0  0  0  0  0  0  0  0  0
   39.8030   31.2140   41.8560 C   0  0  0  0  0  0  0  0  0  0  0  0
   38.9500   31.6590   40.9000 N   0  0  0  0  0  0  0  0  0  0  0  0
   37.7200   31.1610   40.7510 C   0  0  0  0  0  0  0  0  0  0  0  0
   37.2750   30.1910   41.5510 N   0  0  0  0  0  0  0  0  0  0  0  0
   40.0150   29.7930   43.5100 H   0  0  0  0  0  0  0  0  0  0  0  0
   40.8020   31.6160   41.9780 H   0  0  0  0  0  0  0  0  0  0  0  0
   36.8940   31.7190   39.6900 C   0  0  0  0  0  0  0  0  0  0  0  0
   36.1130   31.2140   39.1510 H   0  0  0  0  0  0  0  0  0  0  0  0
   37.0730   32.9010   39.3290 O   0  0  0  0  0  0  0  0  0  0  0  0
  1 10  1  0  0  0  0
  2  1  1  0  0  0  0
  2 15  1  0  0  0  0
  3  2  2  0  0  0  0
  4  5  2  0  0  0  0
  4  3  1  0  0  0  0
  5  6  1  0  0  0  0
  6 12  1  0  0  0  0
  6  1  2  0  0  0  0
  7  5  1  0  0  0  0
  8 14  1  0  0  0  0
  8  9  1  0  0  0  0
  8  7  1  0  0  0  0
  9  4  1  0  0  0  0
 11  3  1  0  0  0  0
 13  8  1  0  0  0  0
 16 17  1  0  0  0  0
 16 15  1  0  0  0  0
 17 22  1  0  0  0  0
 18 23  1  0  0  0  0
 18 17  2  0  0  0  0
 19 18  1  0  0  0  0
 20 19  2  0  0  0  0
 20 21  1  0  0  0  0
 21 16  2  0  0  0  0
 24 20  1  0  0  0  0
 25 24  1  0  0  0  0
 26 24  2  0  0  0  0
M  END
>  <minimizedAffinity>
-4.77252388

$$$$

 OpenBabel03242515363D

 26 28  0  0  0  0  0  0  0  0999 V2000
   36.8790   30.0180   41.6070 C   0  0  0  0  0  0  0  0  0  0  0  0
   37.8610   29.6120   42.4950 C   0  0  0  0  0  0  0  0  0  0  0  0
   39.1080   30.1960   42.4720 C   0  0  0  0  0  0  0  0  0  0  0  0
   39.4060   31.1890   41.5710 C   0  0  0  0  0  0  0  0  0  0  0  0
   38.4320   31.6110   40.6710 C   0  0  0  0  0  0  0  0  0  0  0  0
   37.1610   31.0310   40.6790 C   0  0  0  0  0  0  0  0  0  0  0  0
   38.9760   32.6230   39.8670 O   0  0  0  0  0  0  0  0  0  0  0  0
   40.3860   32.5190   40.0460 C   0  0  0  0  0  0  0  0  0  0  0  0
   40.5660   31.9490   41.3220 O   0  0  0  0  0  0  0  0  0  0  0  0
   35.8770   29.6300   41.5420 H   0  0  0  0  0  0  0  0  0  0  0  0
   39.8480   29.8490   43.1840 H   0  0  0  0  0  0  0  0  0  0  0  0
   36.4330   31.3750   39.9770 H   0  0  0  0  0  0  0  0  0  0  0  0
   40.8700   31.9510   39.2440 H   0  0  0  0  0  0  0  0  0  0  0  0
   40.7760   33.5480   40.1010 H   0  0  0  0  0  0  0  0  0  0  0  0
   37.3950   28.3140   43.6350 S   0  0  0  0  0  0  0  0  0  0  0  0
   38.2190   26.7690   43.1750 C   0  0  0  0  0  0  0  0  0  0  0  0
   39.5060   26.6180   43.6800 C   0  0  0  0  0  0  0  0  0  0  0  0
   40.1840   25.4150   43.3390 C   0  0  0  0  0  0  0  0  0  0  0  0
   39.5430   24.5110   42.5580 N   0  0  0  0  0  0  0  0  0  0  0  0
   38.3030   24.7110   42.1020 C   0  0  0  0  0  0  0  0  0  0  0  0
   37.6380   25.8280   42.4020 N   0  0  0  0  0  0  0  0  0  0  0  0
   39.9840   27.3720   44.3050 H   0  0  0  0  0  0  0  0  0  0  0  0
   41.1900   25.2540   43.7100 H   0  0  0  0  0  0  0  0  0  0  0  0
   37.7180   23.6700   41.2710 C   0  0  0  0  0  0  0  0  0  0  0  0
   36.6720   23.5160   41.0760 H   0  0  0  0  0  0  0  0  0  0  0  0
   38.4630   22.8440   40.7040 O   0  0  0  0  0  0  0  0  0  0  0  0
  1  2  1  0  0  0  0
  2 15  1  0  0  0  0
  3  2  2  0  0  0  0
  3 11  1  0  0  0  0
  4  3  1  0  0  0  0
  5  6  1  0  0  0  0
  5  4  2  0  0  0  0
  6  1  2  0  0  0  0
  7  8  1  0  0  0  0
  7  5  1  0  0  0  0
  8 14  1  0  0  0  0
  8  9  1  0  0  0  0
  9  4  1  0  0  0  0
 10  1  1  0  0  0  0
 12  6  1  0  0  0  0
 13  8  1  0  0  0  0
 16 15  1  0  0  0  0
 16 17  1  0  0  0  0
 17 22  1  0  0  0  0
 18 17  2  0  0  0  0
 18 23  1  0  0  0  0
 19 18  1  0  0  0  0
 20 21  1  0  0  0  0
 20 19  2  0  0  0  0
 21 16  2  0  0  0  0
 24 20  1  0  0  0  0
 25 24  1  0  0  0  0
 26 24  2  0  0  0  0
M  END
>  <minimizedAffinity>
-4.73089218

$$$$

 OpenBabel03242515363D

 26 28  0  0  0  0  0  0  0  0999 V2000
   37.3280   28.4490   43.2320 C   0  0  0  0  0  0  0  0  0  0  0  0
   38.4170   28.5980   42.3890 C   0  0  0  0  0  0  0  0  0  0  0  0
   38.8630   27.5400   41.6300 C   0  0  0  0  0  0  0  0  0  0  0  0
   38.2420   26.3160   41.6910 C   0  0  0  0  0  0  0  0  0  0  0  0
   37.1470   26.1470   42.5320 C   0  0  0  0  0  0  0  0  0  0  0  0
   36.6790   27.2090   43.3100 C   0  0  0  0  0  0  0  0  0  0  0  0
   36.6950   24.8230   42.4160 O   0  0  0  0  0  0  0  0  0  0  0  0
   37.7690   24.1210   41.7960 C   0  0  0  0  0  0  0  0  0  0  0  0
   38.4710   25.0850   41.0470 O   0  0  0  0  0  0  0  0  0  0  0  0
   36.9010   29.2090   43.8640 H   0  0  0  0  0  0  0  0  0  0  0  0
   39.7180   27.6990   40.9830 H   0  0  0  0  0  0  0  0  0  0  0  0
   35.8360   27.0500   43.9470 H   0  0  0  0  0  0  0  0  0  0  0  0
   38.3970   23.5920   42.5210 H   0  0  0  0  0  0  0  0  0  0  0  0
   37.3170   23.4240   41.0730 H   0  0  0  0  0  0  0  0  0  0  0  0
   39.1700   30.2220   42.3670 S   0  0  0  0  0  0  0  0  0  0  0  0
   38.7830   31.0550   40.8080 C   0  0  0  0  0  0  0  0  0  0  0  0
   37.4500   31.4200   40.6520 C   0  0  0  0  0  0  0  0  0  0  0  0
   37.1090   32.0780   39.4380 C   0  0  0  0  0  0  0  0  0  0  0  0
   38.0880   32.3030   38.5280 N   0  0  0  0  0  0  0  0  0  0  0  0
   39.3550   31.9300   38.7340 C   0  0  0  0  0  0  0  0  0  0  0  0
   39.7090   31.3110   39.8600 N   0  0  0  0  0  0  0  0  0  0  0  0
   36.6930   31.2180   41.4110 H   0  0  0  0  0  0  0  0  0  0  0  0
   36.0810   32.3810   39.2740 H   0  0  0  0  0  0  0  0  0  0  0  0
   40.3190   32.2250   37.6840 C   0  0  0  0  0  0  0  0  0  0  0  0
   40.4580   33.1670   37.1860 H   0  0  0  0  0  0  0  0  0  0  0  0
   41.0870   31.3260   37.2850 O   0  0  0  0  0  0  0  0  0  0  0  0
  1  6  1  0  0  0  0
  1 10  1  0  0  0  0
  2  1  2  0  0  0  0
  3  4  2  0  0  0  0
  3  2  1  0  0  0  0
  4  5  1  0  0  0  0
  5  6  2  0  0  0  0
  6 12  1  0  0  0  0
  7  5  1  0  0  0  0
  8  7  1  0  0  0  0
  8 13  1  0  0  0  0
  9  4  1  0  0  0  0
  9  8  1  0  0  0  0
 11  3  1  0  0  0  0
 14  8  1  0  0  0  0
 15  2  1  0  0  0  0
 16 15  1  0  0  0  0
 17 16  1  0  0  0  0
 17 22  1  0  0  0  0
 18 17  2  0  0  0  0
 19 20  2  0  0  0  0
 19 18  1  0  0  0  0
 20 21  1  0  0  0  0
 21 16  2  0  0  0  0
 23 18  1  0  0  0  0
 24 20  1  0  0  0  0
 25 24  1  0  0  0  0
 26 24  2  0  0  0  0
M  END
>  <minimizedAffinity>
-4.61768007

$$$$

 OpenBabel03242515363D

 26 28  0  0  0  0  0  0  0  0999 V2000
   37.3180   28.5350   43.2160 C   0  0  0  0  0  0  0  0  0  0  0  0
   38.4480   28.6220   42.4190 C   0  0  0  0  0  0  0  0  0  0  0  0
   38.8960   27.5240   41.7190 C   0  0  0  0  0  0  0  0  0  0  0  0
   38.2370   26.3210   41.7960 C   0  0  0  0  0  0  0  0  0  0  0  0
   37.1000   26.2140   42.5910 C   0  0  0  0  0  0  0  0  0  0  0  0
   36.6290   27.3160   43.3080 C   0  0  0  0  0  0  0  0  0  0  0  0
   36.6160   24.9000   42.5020 O   0  0  0  0  0  0  0  0  0  0  0  0
   37.6950   24.1450   41.9570 C   0  0  0  0  0  0  0  0  0  0  0  0
   38.4580   25.0610   41.2070 O   0  0  0  0  0  0  0  0  0  0  0  0
   36.8860   29.3290   43.8000 H   0  0  0  0  0  0  0  0  0  0  0  0
   39.7840   27.6350   41.1070 H   0  0  0  0  0  0  0  0  0  0  0  0
   35.7550   27.2050   43.9100 H   0  0  0  0  0  0  0  0  0  0  0  0
   38.2740   23.6260   42.7280 H   0  0  0  0  0  0  0  0  0  0  0  0
   37.2550   23.4350   41.2390 H   0  0  0  0  0  0  0  0  0  0  0  0
   39.2490   30.2220   42.3730 S   0  0  0  0  0  0  0  0  0  0  0  0
   38.6370   31.1730   40.9610 C   0  0  0  0  0  0  0  0  0  0  0  0
   38.8250   32.5480   41.0540 C   0  0  0  0  0  0  0  0  0  0  0  0
   38.3570   33.3280   39.9610 C   0  0  0  0  0  0  0  0  0  0  0  0
   37.7680   32.6920   38.9190 N   0  0  0  0  0  0  0  0  0  0  0  0
   37.6150   31.3650   38.8840 C   0  0  0  0  0  0  0  0  0  0  0  0
   38.0430   30.6040   39.8920 N   0  0  0  0  0  0  0  0  0  0  0  0
   39.3040   33.0190   41.9130 H   0  0  0  0  0  0  0  0  0  0  0  0
   38.4820   34.4050   39.9900 H   0  0  0  0  0  0  0  0  0  0  0  0
   36.9680   30.7950   37.7120 C   0  0  0  0  0  0  0  0  0  0  0  0
   37.0740   31.1260   36.6950 H   0  0  0  0  0  0  0  0  0  0  0  0
   36.2000   29.8200   37.8480 O   0  0  0  0  0  0  0  0  0  0  0  0
  1  6  1  0  0  0  0
  1 10  1  0  0  0  0
  2  1  2  0  0  0  0
  3  4  2  0  0  0  0
  3  2  1  0  0  0  0
  4  5  1  0  0  0  0
  5  6  2  0  0  0  0
  6 12  1  0  0  0  0
  7  5  1  0  0  0  0
  8  7  1  0  0  0  0
  8 13  1  0  0  0  0
  9  4  1  0  0  0  0
  9  8  1  0  0  0  0
 11  3  1  0  0  0  0
 14  8  1  0  0  0  0
 15  2  1  0  0  0  0
 16 17  1  0  0  0  0
 16 15  1  0  0  0  0
 17 22  1  0  0  0  0
 18 23  1  0  0  0  0
 18 17  2  0  0  0  0
 19 18  1  0  0  0  0
 20 19  2  0  0  0  0
 20 21  1  0  0  0  0
 21 16  2  0  0  0  0
 24 26  2  0  0  0  0
 24 20  1  0  0  0  0
 25 24  1  0  0  0  0
M  END
>  <minimizedAffinity>
-4.61337423

$$$$

 OpenBabel03242515363D

 26 28  0  0  0  0  0  0  0  0999 V2000
   39.0310   29.9980   42.5220 C   0  0  0  0  0  0  0  0  0  0  0  0
   37.7410   29.5950   42.2180 C   0  0  0  0  0  0  0  0  0  0  0  0
   36.9760   30.3150   41.3280 C   0  0  0  0  0  0  0  0  0  0  0  0
   37.4710   31.4460   40.7250 C   0  0  0  0  0  0  0  0  0  0  0  0
   38.7640   31.8670   41.0190 C   0  0  0  0  0  0  0  0  0  0  0  0
   39.5570   31.1490   41.9190 C   0  0  0  0  0  0  0  0  0  0  0  0
   39.0320   33.0320   40.2850 O   0  0  0  0  0  0  0  0  0  0  0  0
   37.7560   33.5010   39.8590 C   0  0  0  0  0  0  0  0  0  0  0  0
   36.9320   32.3600   39.7990 O   0  0  0  0  0  0  0  0  0  0  0  0
   39.7090   29.5090   43.2000 H   0  0  0  0  0  0  0  0  0  0  0  0
   35.9720   29.9650   41.1170 H   0  0  0  0  0  0  0  0  0  0  0  0
   40.5450   31.4950   42.1250 H   0  0  0  0  0  0  0  0  0  0  0  0
   37.3600   34.2880   40.5100 H   0  0  0  0  0  0  0  0  0  0  0  0
   37.8770   33.8600   38.8250 H   0  0  0  0  0  0  0  0  0  0  0  0
   37.1700   28.1140   43.0440 S   0  0  0  0  0  0  0  0  0  0  0  0
   36.9870   26.7730   41.8420 C   0  0  0  0  0  0  0  0  0  0  0  0
   37.1420   25.4930   42.3620 C   0  0  0  0  0  0  0  0  0  0  0  0
   37.0040   24.4140   41.4460 C   0  0  0  0  0  0  0  0  0  0  0  0
   36.7370   24.6990   40.1480 N   0  0  0  0  0  0  0  0  0  0  0  0
   36.5980   25.9520   39.7040 C   0  0  0  0  0  0  0  0  0  0  0  0
   36.7200   26.9870   40.5360 N   0  0  0  0  0  0  0  0  0  0  0  0
   37.3580   25.3080   43.4150 H   0  0  0  0  0  0  0  0  0  0  0  0
   37.1160   23.3980   41.8070 H   0  0  0  0  0  0  0  0  0  0  0  0
   36.3120   26.1350   38.2890 C   0  0  0  0  0  0  0  0  0  0  0  0
   36.8590   25.7160   37.4640 H   0  0  0  0  0  0  0  0  0  0  0  0
   35.3430   26.8430   37.9440 O   0  0  0  0  0  0  0  0  0  0  0  0
  1 10  1  0  0  0  0
  2  1  1  0  0  0  0
  2 15  1  0  0  0  0
  3  2  2  0  0  0  0
  4  5  2  0  0  0  0
  4  3  1  0  0  0  0
  5  6  1  0  0  0  0
  6 12  1  0  0  0  0
  6  1  2  0  0  0  0
  7  5  1  0  0  0  0
  8  7  1  0  0  0  0
  8 13  1  0  0  0  0
  9  8  1  0  0  0  0
  9  4  1  0  0  0  0
 11  3  1  0  0  0  0
 14  8  1  0  0  0  0
 16 17  1  0  0  0  0
 16 15  1  0  0  0  0
 17 22  1  0  0  0  0
 18 23  1  0  0  0  0
 18 17  2  0  0  0  0
 19 18  1  0  0  0  0
 20 19  2  0  0  0  0
 20 21  1  0  0  0  0
 21 16  2  0  0  0  0
 24 20  1  0  0  0  0
 25 24  1  0  0  0  0
 26 24  2  0  0  0  0
M  END
>  <minimizedAffinity>
-4.5544982

$$$$

 OpenBabel03242515363D

 26 28  0  0  0  0  0  0  0  0999 V2000
   36.4720   27.9550   42.1800 C   0  0  0  0  0  0  0  0  0  0  0  0
   36.3430   27.9810   40.8010 C   0  0  0  0  0  0  0  0  0  0  0  0
   36.7150   26.8940   40.0440 C   0  0  0  0  0  0  0  0  0  0  0  0
   37.2220   25.7620   40.6350 C   0  0  0  0  0  0  0  0  0  0  0  0
   37.3590   25.7160   42.0180 C   0  0  0  0  0  0  0  0  0  0  0  0
   36.9860   26.8090   42.8050 C   0  0  0  0  0  0  0  0  0  0  0  0
   37.8920   24.4680   42.3730 O   0  0  0  0  0  0  0  0  0  0  0  0
   38.4240   23.9370   41.1620 C   0  0  0  0  0  0  0  0  0  0  0  0
   37.6750   24.5290   40.1270 O   0  0  0  0  0  0  0  0  0  0  0  0
   36.2110   28.7460   42.8610 H   0  0  0  0  0  0  0  0  0  0  0  0
   36.5990   26.9560   38.9680 H   0  0  0  0  0  0  0  0  0  0  0  0
   37.1020   26.7460   43.8640 H   0  0  0  0  0  0  0  0  0  0  0  0
   39.5020   24.1040   41.0690 H   0  0  0  0  0  0  0  0  0  0  0  0
   38.1820   22.8620   41.1540 H   0  0  0  0  0  0  0  0  0  0  0  0
   35.6760   29.4910   40.1090 S   0  0  0  0  0  0  0  0  0  0  0  0
   37.0170   30.6650   39.7930 C   0  0  0  0  0  0  0  0  0  0  0  0
   36.9440   31.8490   40.5200 C   0  0  0  0  0  0  0  0  0  0  0  0
   37.9810   32.7960   40.2980 C   0  0  0  0  0  0  0  0  0  0  0  0
   38.9560   32.4880   39.4080 N   0  0  0  0  0  0  0  0  0  0  0  0
   38.9750   31.3320   38.7380 C   0  0  0  0  0  0  0  0  0  0  0  0
   38.0180   30.4220   38.9220 N   0  0  0  0  0  0  0  0  0  0  0  0
   36.1390   32.0560   41.2270 H   0  0  0  0  0  0  0  0  0  0  0  0
   37.9650   33.7330   40.8430 H   0  0  0  0  0  0  0  0  0  0  0  0
   40.0730   31.1140   37.8080 C   0  0  0  0  0  0  0  0  0  0  0  0
   40.5300   30.1720   37.5650 H   0  0  0  0  0  0  0  0  0  0  0  0
   40.5720   32.0870   37.2070 O   0  0  0  0  0  0  0  0  0  0  0  0
  1  6  1  0  0  0  0
  1 10  1  0  0  0  0
  2  1  2  0  0  0  0
  3  4  2  0  0  0  0
  3  2  1  0  0  0  0
  4  5  1  0  0  0  0
  5  7  1  0  0  0  0
  5  6  2  0  0  0  0
  6 12  1  0  0  0  0
  8  7  1  0  0  0  0
  9  4  1  0  0  0  0
  9  8  1  0  0  0  0
 11  3  1  0  0  0  0
 13  8  1  0  0  0  0
 14  8  1  0  0  0  0
 15  2  1  0  0  0  0
 16 15  1  0  0  0  0
 16 17  1  0  0  0  0
 17 22  1  0  0  0  0
 18 17  2  0  0  0  0
 18 23  1  0  0  0  0
 19 18  1  0  0  0  0
 20 21  1  0  0  0  0
 20 19  2  0  0  0  0
 21 16  2  0  0  0  0
 24 20  1  0  0  0  0
 25 24  1  0  0  0  0
 26 24  2  0  0  0  0
M  END
>  <minimizedAffinity>
-4.54498625

$$$$

 OpenBabel03242515363D

 26 28  0  0  0  0  0  0  0  0999 V2000
   34.5360   29.1420   39.4720 C   0  0  0  0  0  0  0  0  0  0  0  0
   35.7920   29.7240   39.5110 C   0  0  0  0  0  0  0  0  0  0  0  0
   36.4920   29.9560   38.3480 C   0  0  0  0  0  0  0  0  0  0  0  0
   35.9630   29.6160   37.1260 C   0  0  0  0  0  0  0  0  0  0  0  0
   34.7020   29.0310   37.0670 C   0  0  0  0  0  0  0  0  0  0  0  0
   33.9770   28.7870   38.2350 C   0  0  0  0  0  0  0  0  0  0  0  0
   34.3900   28.7810   35.7220 O   0  0  0  0  0  0  0  0  0  0  0  0
   35.6340   28.8710   35.0320 C   0  0  0  0  0  0  0  0  0  0  0  0
   36.4360   29.7320   35.8050 O   0  0  0  0  0  0  0  0  0  0  0  0
   33.9090   28.9190   40.3170 H   0  0  0  0  0  0  0  0  0  0  0  0
   37.4720   30.4130   38.4240 H   0  0  0  0  0  0  0  0  0  0  0  0
   33.0120   28.3370   38.1590 H   0  0  0  0  0  0  0  0  0  0  0  0
   36.0890   27.8890   34.8600 H   0  0  0  0  0  0  0  0  0  0  0  0
   35.4330   29.3910   34.0820 H   0  0  0  0  0  0  0  0  0  0  0  0
   36.4110   30.1360   41.1390 S   0  0  0  0  0  0  0  0  0  0  0  0
   37.2110   28.6890   41.8750 C   0  0  0  0  0  0  0  0  0  0  0  0
   38.2270   28.9770   42.7800 C   0  0  0  0  0  0  0  0  0  0  0  0
   38.8790   27.8640   43.3790 C   0  0  0  0  0  0  0  0  0  0  0  0
   38.4750   26.6170   43.0340 N   0  0  0  0  0  0  0  0  0  0  0  0
   37.4900   26.4010   42.1580 C   0  0  0  0  0  0  0  0  0  0  0  0
   36.8570   27.4220   41.5780 N   0  0  0  0  0  0  0  0  0  0  0  0
   38.5210   29.9980   43.0280 H   0  0  0  0  0  0  0  0  0  0  0  0
   39.6780   28.0410   44.0910 H   0  0  0  0  0  0  0  0  0  0  0  0
   37.1430   25.0180   41.8660 C   0  0  0  0  0  0  0  0  0  0  0  0
   36.3590   24.6760   41.2160 H   0  0  0  0  0  0  0  0  0  0  0  0
   37.7920   24.0960   42.4010 O   0  0  0  0  0  0  0  0  0  0  0  0
  1  2  1  0  0  0  0
  1 10  1  0  0  0  0
  2 15  1  0  0  0  0
  3 11  1  0  0  0  0
  3  2  2  0  0  0  0
  4  3  1  0  0  0  0
  5  4  2  0  0  0  0
  5  6  1  0  0  0  0
  6  1  2  0  0  0  0
  7  5  1  0  0  0  0
  8  7  1  0  0  0  0
  8  9  1  0  0  0  0
  9  4  1  0  0  0  0
 12  6  1  0  0  0  0
 13  8  1  0  0  0  0
 14  8  1  0  0  0  0
 15 16  1  0  0  0  0
 16 17  1  0  0  0  0
 17 22  1  0  0  0  0
 17 18  2  0  0  0  0
 18 23  1  0  0  0  0
 19 18  1  0  0  0  0
 20 19  2  0  0  0  0
 21 16  2  0  0  0  0
 21 20  1  0  0  0  0
 24 20  1  0  0  0  0
 24 26  2  0  0  0  0
 25 24  1  0  0  0  0
M  END
>  <minimizedAffinity>
-4.53735685

$$$$
