
 OpenBabel03252504213D

 13 13  0  0  0  0  0  0  0  0999 V2000
   37.2090   26.7680   42.1550 C   0  0  0  0  0  0  0  0  0  0  0  0
   37.9980   27.2350   43.2050 C   0  0  0  0  0  0  0  0  0  0  0  0
   38.0830   28.6200   43.4100 C   0  0  0  0  0  0  0  0  0  0  0  0
   37.3900   29.4320   42.5720 N   0  0  0  0  0  0  0  0  0  0  0  0
   36.6410   28.9510   41.5720 C   0  0  0  0  0  0  0  0  0  0  0  0
   36.5370   27.6290   41.3480 N   0  0  0  0  0  0  0  0  0  0  0  0
   38.5480   26.5580   43.8670 H   0  0  0  0  0  0  0  0  0  0  0  0
   38.6650   29.0560   44.1900 H   0  0  0  0  0  0  0  0  0  0  0  0
   35.9320   29.9030   40.7250 C   0  0  0  0  0  0  0  0  0  0  0  0
   35.1550   29.5870   40.0260 H   0  0  0  0  0  0  0  0  0  0  0  0
   36.2310   31.1210   40.8070 O   0  0  0  0  0  0  0  0  0  0  0  0
   37.1600   24.9820   41.9680 S   0  0  0  0  0  0  0  0  0  0  0  0
   38.4050   24.4100   42.2970 H   0  0  0  0  0  0  0  0  0  0  0  0
  1  2  1  0  0  0  0
  2  3  2  0  0  0  0
  2  7  1  0  0  0  0
  3  8  1  0  0  0  0
  4  3  1  0  0  0  0
  5  4  2  0  0  0  0
  6  5  1  0  0  0  0
  6  1  2  0  0  0  0
  9 11  2  0  0  0  0
  9  5  1  0  0  0  0
 10  9  1  0  0  0  0
 12  1  1  0  0  0  0
 12 13  1  0  0  0  0
M  END
>  <minimizedAffinity>
-3.06461906

$$$$

 OpenBabel03252504213D

 13 13  0  0  0  0  0  0  0  0999 V2000
   36.9550   30.7910   40.7490 C   0  0  0  0  0  0  0  0  0  0  0  0
   35.8600   30.1290   40.1950 C   0  0  0  0  0  0  0  0  0  0  0  0
   35.4940   28.8840   40.7290 C   0  0  0  0  0  0  0  0  0  0  0  0
   36.2280   28.3910   41.7580 N   0  0  0  0  0  0  0  0  0  0  0  0
   37.2750   29.0530   42.2670 C   0  0  0  0  0  0  0  0  0  0  0  0
   37.6530   30.2480   41.7790 N   0  0  0  0  0  0  0  0  0  0  0  0
   35.2840   30.5490   39.3650 H   0  0  0  0  0  0  0  0  0  0  0  0
   34.6700   28.3160   40.3620 H   0  0  0  0  0  0  0  0  0  0  0  0
   38.0020   28.4420   43.3730 C   0  0  0  0  0  0  0  0  0  0  0  0
   38.4770   29.0420   44.1540 H   0  0  0  0  0  0  0  0  0  0  0  0
   38.0820   27.1880   43.4230 O   0  0  0  0  0  0  0  0  0  0  0  0
   37.3510   32.3760   40.0030 S   0  0  0  0  0  0  0  0  0  0  0  0
   37.0950   32.3550   38.6170 H   0  0  0  0  0  0  0  0  0  0  0  0
  1  6  1  0  0  0  0
  2  3  1  0  0  0  0
  2  1  2  0  0  0  0
  3  4  2  0  0  0  0
  4  5  1  0  0  0  0
  5  9  1  0  0  0  0
  6  5  2  0  0  0  0
  7  2  1  0  0  0  0
  8  3  1  0  0  0  0
  9 11  2  0  0  0  0
  9 10  1  0  0  0  0
 12  1  1  0  0  0  0
 13 12  1  0  0  0  0
M  END
>  <minimizedAffinity>
-2.97494459

$$$$

 OpenBabel03252504213D

 13 13  0  0  0  0  0  0  0  0999 V2000
   37.2840   28.8910   42.0840 C   0  0  0  0  0  0  0  0  0  0  0  0
   36.1430   28.3100   41.5330 C   0  0  0  0  0  0  0  0  0  0  0  0
   35.4020   29.0510   40.6010 C   0  0  0  0  0  0  0  0  0  0  0  0
   35.8370   30.2960   40.2850 N   0  0  0  0  0  0  0  0  0  0  0  0
   36.9380   30.8260   40.8330 C   0  0  0  0  0  0  0  0  0  0  0  0
   37.6720   30.1440   41.7300 N   0  0  0  0  0  0  0  0  0  0  0  0
   35.8130   27.3030   41.8060 H   0  0  0  0  0  0  0  0  0  0  0  0
   34.5190   28.6770   40.1350 H   0  0  0  0  0  0  0  0  0  0  0  0
   37.3270   32.1720   40.4300 C   0  0  0  0  0  0  0  0  0  0  0  0
   36.7110   32.7740   39.7570 H   0  0  0  0  0  0  0  0  0  0  0  0
   38.4030   32.6470   40.8730 O   0  0  0  0  0  0  0  0  0  0  0  0
   38.1690   27.8710   43.2690 S   0  0  0  0  0  0  0  0  0  0  0  0
   37.2730   27.0890   44.0240 H   0  0  0  0  0  0  0  0  0  0  0  0
  1 12  1  0  0  0  0
  2  7  1  0  0  0  0
  2  1  2  0  0  0  0
  3  2  1  0  0  0  0
  4  3  2  0  0  0  0
  4  5  1  0  0  0  0
  5  6  2  0  0  0  0
  6  1  1  0  0  0  0
  8  3  1  0  0  0  0
  9  5  1  0  0  0  0
  9 11  2  0  0  0  0
 10  9  1  0  0  0  0
 12 13  1  0  0  0  0
M  END
>  <minimizedAffinity>
-2.95089388

$$$$

 OpenBabel03252504213D

 13 13  0  0  0  0  0  0  0  0999 V2000
   38.4750   31.9750   40.7830 C   0  0  0  0  0  0  0  0  0  0  0  0
   37.1380   31.9300   40.3930 C   0  0  0  0  0  0  0  0  0  0  0  0
   36.3340   30.8930   40.8880 C   0  0  0  0  0  0  0  0  0  0  0  0
   36.9050   29.9870   41.7220 N   0  0  0  0  0  0  0  0  0  0  0  0
   38.1940   30.0590   42.0770 C   0  0  0  0  0  0  0  0  0  0  0  0
   38.9930   31.0400   41.6210 N   0  0  0  0  0  0  0  0  0  0  0  0
   36.7030   32.6740   39.7180 H   0  0  0  0  0  0  0  0  0  0  0  0
   35.3030   30.7890   40.6380 H   0  0  0  0  0  0  0  0  0  0  0  0
   38.7160   29.0390   42.9790 C   0  0  0  0  0  0  0  0  0  0  0  0
   39.7870   28.8480   43.0770 H   0  0  0  0  0  0  0  0  0  0  0  0
   37.9030   28.3640   43.6600 O   0  0  0  0  0  0  0  0  0  0  0  0
   39.4280   33.3360   40.1000 S   0  0  0  0  0  0  0  0  0  0  0  0
   39.0070   33.6330   38.7890 H   0  0  0  0  0  0  0  0  0  0  0  0
  1  6  1  0  0  0  0
  2  1  2  0  0  0  0
  2  3  1  0  0  0  0
  3  4  2  0  0  0  0
  4  5  1  0  0  0  0
  5  9  1  0  0  0  0
  6  5  2  0  0  0  0
  7  2  1  0  0  0  0
  8  3  1  0  0  0  0
  9 10  1  0  0  0  0
  9 11  2  0  0  0  0
 12  1  1  0  0  0  0
 13 12  1  0  0  0  0
M  END
>  <minimizedAffinity>
-2.94959974

$$$$

 OpenBabel03252504213D

 13 13  0  0  0  0  0  0  0  0999 V2000
   36.9370   29.0000   41.6900 C   0  0  0  0  0  0  0  0  0  0  0  0
   37.6360   29.1280   42.8890 C   0  0  0  0  0  0  0  0  0  0  0  0
   38.1250   27.9640   43.5020 C   0  0  0  0  0  0  0  0  0  0  0  0
   37.8890   26.7750   42.8930 N   0  0  0  0  0  0  0  0  0  0  0  0
   37.2130   26.6880   41.7400 C   0  0  0  0  0  0  0  0  0  0  0  0
   36.7310   27.7820   41.1250 N   0  0  0  0  0  0  0  0  0  0  0  0
   37.8130   30.0990   43.3600 H   0  0  0  0  0  0  0  0  0  0  0  0
   38.6680   27.9770   44.4190 H   0  0  0  0  0  0  0  0  0  0  0  0
   37.0100   25.3650   41.1610 C   0  0  0  0  0  0  0  0  0  0  0  0
   36.9130   25.2150   40.0830 H   0  0  0  0  0  0  0  0  0  0  0  0
   36.9460   24.3730   41.9310 O   0  0  0  0  0  0  0  0  0  0  0  0
   36.3490   30.5410   40.9770 S   0  0  0  0  0  0  0  0  0  0  0  0
   35.9690   31.4460   41.9880 H   0  0  0  0  0  0  0  0  0  0  0  0
  1  2  1  0  0  0  0
  2  7  1  0  0  0  0
  2  3  2  0  0  0  0
  3  8  1  0  0  0  0
  4  3  1  0  0  0  0
  5  4  2  0  0  0  0
  6  1  2  0  0  0  0
  6  5  1  0  0  0  0
  9  5  1  0  0  0  0
  9 11  2  0  0  0  0
 10  9  1  0  0  0  0
 12  1  1  0  0  0  0
 12 13  1  0  0  0  0
M  END
>  <minimizedAffinity>
-2.88560271

$$$$

 OpenBabel03252504213D

 13 13  0  0  0  0  0  0  0  0999 V2000
   38.3750   27.0730   43.0570 C   0  0  0  0  0  0  0  0  0  0  0  0
   39.5550   26.6710   43.6790 C   0  0  0  0  0  0  0  0  0  0  0  0
   39.9670   25.3380   43.5280 C   0  0  0  0  0  0  0  0  0  0  0  0
   39.1910   24.5120   42.7830 N   0  0  0  0  0  0  0  0  0  0  0  0
   38.0610   24.9310   42.1990 C   0  0  0  0  0  0  0  0  0  0  0  0
   37.6370   26.2010   42.3220 N   0  0  0  0  0  0  0  0  0  0  0  0
   40.1630   27.3580   44.2760 H   0  0  0  0  0  0  0  0  0  0  0  0
   40.8570   24.9540   43.9720 H   0  0  0  0  0  0  0  0  0  0  0  0
   37.2950   23.9680   41.4170 C   0  0  0  0  0  0  0  0  0  0  0  0
   36.2230   24.0890   41.2410 H   0  0  0  0  0  0  0  0  0  0  0  0
   37.8910   22.9710   40.9360 O   0  0  0  0  0  0  0  0  0  0  0  0
   37.9250   28.7950   43.3050 S   0  0  0  0  0  0  0  0  0  0  0  0
   38.2920   29.2270   44.5950 H   0  0  0  0  0  0  0  0  0  0  0  0
  1 12  1  0  0  0  0
  1  2  1  0  0  0  0
  2  7  1  0  0  0  0
  3  2  2  0  0  0  0
  3  8  1  0  0  0  0
  4  3  1  0  0  0  0
  5  6  1  0  0  0  0
  5  4  2  0  0  0  0
  6  1  2  0  0  0  0
  9  5  1  0  0  0  0
 10  9  1  0  0  0  0
 11  9  2  0  0  0  0
 12 13  1  0  0  0  0
M  END
>  <minimizedAffinity>
-2.8835721

$$$$

 OpenBabel03252504213D

 13 13  0  0  0  0  0  0  0  0999 V2000
   37.9710   25.2360   42.1430 C   0  0  0  0  0  0  0  0  0  0  0  0
   39.0760   24.6240   42.7310 C   0  0  0  0  0  0  0  0  0  0  0  0
   39.9370   25.4120   43.5100 C   0  0  0  0  0  0  0  0  0  0  0  0
   39.6460   26.7300   43.6480 N   0  0  0  0  0  0  0  0  0  0  0  0
   38.5750   27.2870   43.0680 C   0  0  0  0  0  0  0  0  0  0  0  0
   37.7290   26.5610   42.3150 N   0  0  0  0  0  0  0  0  0  0  0  0
   39.2890   23.5580   42.6050 H   0  0  0  0  0  0  0  0  0  0  0  0
   40.8030   25.0200   43.9930 H   0  0  0  0  0  0  0  0  0  0  0  0
   38.3450   28.7120   43.2750 C   0  0  0  0  0  0  0  0  0  0  0  0
   39.0400   29.3320   43.8450 H   0  0  0  0  0  0  0  0  0  0  0  0
   37.3140   29.2340   42.7800 O   0  0  0  0  0  0  0  0  0  0  0  0
   36.9250   24.1510   41.1640 S   0  0  0  0  0  0  0  0  0  0  0  0
   37.6970   23.1750   40.5040 H   0  0  0  0  0  0  0  0  0  0  0  0
  1  6  2  0  0  0  0
  1  2  1  0  0  0  0
  2  3  2  0  0  0  0
  3  4  1  0  0  0  0
  3  8  1  0  0  0  0
  5  9  1  0  0  0  0
  5  4  2  0  0  0  0
  6  5  1  0  0  0  0
  7  2  1  0  0  0  0
  9 10  1  0  0  0  0
 11  9  2  0  0  0  0
 12  1  1  0  0  0  0
 13 12  1  0  0  0  0
M  END
>  <minimizedAffinity>
-2.82396245

$$$$

 OpenBabel03252504213D

 13 13  0  0  0  0  0  0  0  0999 V2000
   39.1330   29.1520   42.7470 C   0  0  0  0  0  0  0  0  0  0  0  0
   37.7500   29.0450   42.6130 C   0  0  0  0  0  0  0  0  0  0  0  0
   37.1530   27.7960   42.8440 C   0  0  0  0  0  0  0  0  0  0  0  0
   37.9580   26.7590   43.1860 N   0  0  0  0  0  0  0  0  0  0  0  0
   39.2850   26.8960   43.3070 C   0  0  0  0  0  0  0  0  0  0  0  0
   39.8890   28.0780   43.0920 N   0  0  0  0  0  0  0  0  0  0  0  0
   37.1230   29.8980   42.3350 H   0  0  0  0  0  0  0  0  0  0  0  0
   36.1030   27.6320   42.7620 H   0  0  0  0  0  0  0  0  0  0  0  0
   40.0660   25.7230   43.6800 C   0  0  0  0  0  0  0  0  0  0  0  0
   41.0220   25.8080   44.2010 H   0  0  0  0  0  0  0  0  0  0  0  0
   39.6190   24.5840   43.3890 O   0  0  0  0  0  0  0  0  0  0  0  0
   39.8100   30.7870   42.4320 S   0  0  0  0  0  0  0  0  0  0  0  0
   39.0910   31.4370   41.4090 H   0  0  0  0  0  0  0  0  0  0  0  0
  1  6  1  0  0  0  0
  2  1  2  0  0  0  0
  2  3  1  0  0  0  0
  3  4  2  0  0  0  0
  4  5  1  0  0  0  0
  5  9  1  0  0  0  0
  6  5  2  0  0  0  0
  7  2  1  0  0  0  0
  8  3  1  0  0  0  0
  9 10  1  0  0  0  0
 11  9  2  0  0  0  0
 12  1  1  0  0  0  0
 13 12  1  0  0  0  0
M  END
>  <minimizedAffinity>
-2.82365704

$$$$

 OpenBabel03252504213D

 13 13  0  0  0  0  0  0  0  0999 V2000
   38.4500   29.7070   42.3690 C   0  0  0  0  0  0  0  0  0  0  0  0
   38.4930   28.6400   43.2640 C   0  0  0  0  0  0  0  0  0  0  0  0
   37.4500   27.7020   43.2340 C   0  0  0  0  0  0  0  0  0  0  0  0
   36.4540   27.8860   42.3310 N   0  0  0  0  0  0  0  0  0  0  0  0
   36.4430   28.9240   41.4850 C   0  0  0  0  0  0  0  0  0  0  0  0
   37.4260   29.8410   41.4870 N   0  0  0  0  0  0  0  0  0  0  0  0
   39.3090   28.5140   43.9830 H   0  0  0  0  0  0  0  0  0  0  0  0
   37.4100   26.8590   43.8850 H   0  0  0  0  0  0  0  0  0  0  0  0
   35.3290   29.0360   40.5510 C   0  0  0  0  0  0  0  0  0  0  0  0
   34.3720   28.5390   40.7300 H   0  0  0  0  0  0  0  0  0  0  0  0
   35.4810   29.7250   39.5100 O   0  0  0  0  0  0  0  0  0  0  0  0
   39.8260   30.8580   42.4800 S   0  0  0  0  0  0  0  0  0  0  0  0
   40.2510   31.0000   43.8160 H   0  0  0  0  0  0  0  0  0  0  0  0
  1 12  1  0  0  0  0
  1  2  1  0  0  0  0
  2  7  1  0  0  0  0
  3  2  2  0  0  0  0
  3  8  1  0  0  0  0
  4  3  1  0  0  0  0
  5  6  1  0  0  0  0
  5  4  2  0  0  0  0
  6  1  2  0  0  0  0
  9 10  1  0  0  0  0
  9  5  1  0  0  0  0
 11  9  2  0  0  0  0
 12 13  1  0  0  0  0
M  END
>  <minimizedAffinity>
-2.81169057

$$$$
