
 OpenBabel03242513193D

 31 33  0  0  0  0  0  0  0  0999 V2000
   39.5380   27.4440   40.3180 Cl  0  0  0  0  0  0  0  0  0  0  0  0
   38.3820   27.4630   41.6560 C   0  0  0  0  0  0  0  0  0  0  0  0
   38.2810   28.5660   42.4680 C   0  0  0  0  0  0  0  0  0  0  0  0
   37.3700   28.5340   43.4780 C   0  0  0  0  0  0  0  0  0  0  0  0
   36.5750   27.4300   43.6800 C   0  0  0  0  0  0  0  0  0  0  0  0
   36.6720   26.3130   42.8650 C   0  0  0  0  0  0  0  0  0  0  0  0
   37.6050   26.3490   41.8300 C   0  0  0  0  0  0  0  0  0  0  0  0
   37.2830   29.3970   44.1220 H   0  0  0  0  0  0  0  0  0  0  0  0
   35.8680   27.4600   44.4980 H   0  0  0  0  0  0  0  0  0  0  0  0
   36.0370   25.4880   43.0620 H   0  0  0  0  0  0  0  0  0  0  0  0
   37.6340   25.1270   41.0320 C   0  0  0  0  0  0  0  0  0  0  0  0
   38.1980   23.8950   41.3250 C   0  0  0  0  0  0  0  0  0  0  0  0
   38.0120   22.9820   40.3020 C   0  0  0  0  0  0  0  0  0  0  0  0
   37.3050   23.7440   39.3870 C   0  0  0  0  0  0  0  0  0  0  0  0
   37.1210   24.9430   39.8490 O   0  0  0  0  0  0  0  0  0  0  0  0
   38.7270   23.7030   42.2730 H   0  0  0  0  0  0  0  0  0  0  0  0
   38.3280   21.9620   40.2340 H   0  0  0  0  0  0  0  0  0  0  0  0
   36.9430   23.4040   38.4040 H   0  0  0  0  0  0  0  0  0  0  0  0
   39.1590   29.7040   42.2050 C   0  0  0  0  0  0  0  0  0  0  0  0
   40.3190   29.6650   42.6720 O   0  0  0  0  0  0  0  0  0  0  0  0
   36.9690   31.7580   40.1680 C   0  0  0  0  0  0  0  0  0  0  0  0
   37.6770   32.9430   39.9160 C   0  0  0  0  0  0  0  0  0  0  0  0
   38.9340   32.9960   40.4780 C   0  0  0  0  0  0  0  0  0  0  0  0
   39.3840   31.9250   41.2150 N   0  0  0  0  0  0  0  0  0  0  0  0
   38.6780   30.8270   41.4270 C   0  0  0  0  0  0  0  0  0  0  0  0
   37.4530   30.7650   40.8850 N   0  0  0  0  0  0  0  0  0  0  0  0
   35.9690   31.7420   39.7090 H   0  0  0  0  0  0  0  0  0  0  0  0
   37.3570   33.7910   39.3480 H   0  0  0  0  0  0  0  0  0  0  0  0
   39.7930   34.1610   40.3050 C   0  0  0  0  0  0  0  0  0  0  0  0
   39.6340   35.0340   40.9200 H   0  0  0  0  0  0  0  0  0  0  0  0
   40.7010   34.1160   39.4370 O   0  0  0  0  0  0  0  0  0  0  0  0
  1  2  1  0  0  0  0
  2  7  2  0  0  0  0
  2  3  1  0  0  0  0
  3  4  2  0  0  0  0
  4  5  1  0  0  0  0
  4  8  1  0  0  0  0
  5  9  1  0  0  0  0
  6 10  1  0  0  0  0
  6  5  2  0  0  0  0
  7  6  1  0  0  0  0
 11 12  2  0  0  0  0
 11  7  1  0  0  0  0
 12 16  1  0  0  0  0
 13 12  1  0  0  0  0
 14 15  1  0  0  0  0
 14 13  2  0  0  0  0
 15 11  1  0  0  0  0
 17 13  1  0  0  0  0
 18 14  1  0  0  0  0
 19  3  1  0  0  0  0
 19 20  2  0  0  0  0
 21 26  1  0  0  0  0
 22 21  2  0  0  0  0
 22 23  1  0  0  0  0
 23 24  2  0  0  0  0
 24 25  1  0  0  0  0
 25 19  1  0  0  0  0
 26 25  2  0  0  0  0
 27 21  1  0  0  0  0
 28 22  1  0  0  0  0
 29 23  1  0  0  0  0
 29 30  1  0  0  0  0
 31 29  2  0  0  0  0
M  END
>  <minimizedAffinity>
-5.47764921

$$$$

 OpenBabel03242513193D

 31 33  0  0  0  0  0  0  0  0999 V2000
   36.1970   26.6160   38.7780 Cl  0  0  0  0  0  0  0  0  0  0  0  0
   36.6130   27.0010   40.4530 C   0  0  0  0  0  0  0  0  0  0  0  0
   36.2560   28.2110   40.9940 C   0  0  0  0  0  0  0  0  0  0  0  0
   36.5930   28.4540   42.2900 C   0  0  0  0  0  0  0  0  0  0  0  0
   37.2690   27.5160   43.0350 C   0  0  0  0  0  0  0  0  0  0  0  0
   37.6320   26.2930   42.4940 C   0  0  0  0  0  0  0  0  0  0  0  0
   37.2860   26.0460   41.1670 C   0  0  0  0  0  0  0  0  0  0  0  0
   36.3170   29.4040   42.7260 H   0  0  0  0  0  0  0  0  0  0  0  0
   37.5100   27.7630   44.0600 H   0  0  0  0  0  0  0  0  0  0  0  0
   38.1530   25.6040   43.1090 H   0  0  0  0  0  0  0  0  0  0  0  0
   37.7150   24.7340   40.6890 C   0  0  0  0  0  0  0  0  0  0  0  0
   37.0900   23.5040   40.8090 C   0  0  0  0  0  0  0  0  0  0  0  0
   37.8210   22.4880   40.2190 C   0  0  0  0  0  0  0  0  0  0  0  0
   38.9160   23.1900   39.7420 C   0  0  0  0  0  0  0  0  0  0  0  0
   38.8050   24.4490   40.0350 O   0  0  0  0  0  0  0  0  0  0  0  0
   36.1210   23.3860   41.3240 H   0  0  0  0  0  0  0  0  0  0  0  0
   37.6020   21.4430   40.1490 H   0  0  0  0  0  0  0  0  0  0  0  0
   39.7690   22.7610   39.1920 H   0  0  0  0  0  0  0  0  0  0  0  0
   35.5460   29.1670   40.1500 C   0  0  0  0  0  0  0  0  0  0  0  0
   34.2980   29.0910   40.1060 O   0  0  0  0  0  0  0  0  0  0  0  0
   37.2650   30.7800   37.3910 C   0  0  0  0  0  0  0  0  0  0  0  0
   37.7030   32.0190   37.8820 C   0  0  0  0  0  0  0  0  0  0  0  0
   37.3790   32.2660   39.1980 C   0  0  0  0  0  0  0  0  0  0  0  0
   36.6770   31.3180   39.9060 N   0  0  0  0  0  0  0  0  0  0  0  0
   36.2850   30.1620   39.3980 C   0  0  0  0  0  0  0  0  0  0  0  0
   36.5940   29.9100   38.1190 N   0  0  0  0  0  0  0  0  0  0  0  0
   37.5370   30.6070   36.3390 H   0  0  0  0  0  0  0  0  0  0  0  0
   38.2490   32.7760   37.3610 H   0  0  0  0  0  0  0  0  0  0  0  0
   37.7650   33.5110   39.8520 C   0  0  0  0  0  0  0  0  0  0  0  0
   37.3630   34.4460   39.4930 H   0  0  0  0  0  0  0  0  0  0  0  0
   38.5610   33.4590   40.8230 O   0  0  0  0  0  0  0  0  0  0  0  0
  1  2  1  0  0  0  0
  2  3  2  0  0  0  0
  2  7  1  0  0  0  0
  3  4  1  0  0  0  0
  4  8  1  0  0  0  0
  4  5  2  0  0  0  0
  5  9  1  0  0  0  0
  6  5  1  0  0  0  0
  6 10  1  0  0  0  0
  7  6  2  0  0  0  0
 11 12  2  0  0  0  0
 11  7  1  0  0  0  0
 12 16  1  0  0  0  0
 13 12  1  0  0  0  0
 14 15  1  0  0  0  0
 14 13  2  0  0  0  0
 15 11  1  0  0  0  0
 17 13  1  0  0  0  0
 18 14  1  0  0  0  0
 19  3  1  0  0  0  0
 20 19  2  0  0  0  0
 21 22  2  0  0  0  0
 21 26  1  0  0  0  0
 22 23  1  0  0  0  0
 23 29  1  0  0  0  0
 23 24  2  0  0  0  0
 25 24  1  0  0  0  0
 25 19  1  0  0  0  0
 26 25  2  0  0  0  0
 27 21  1  0  0  0  0
 28 22  1  0  0  0  0
 29 31  2  0  0  0  0
 30 29  1  0  0  0  0
M  END
>  <minimizedAffinity>
-5.47066879

$$$$

 OpenBabel03242513193D

 31 33  0  0  0  0  0  0  0  0999 V2000
   39.1530   27.2260   39.8770 Cl  0  0  0  0  0  0  0  0  0  0  0  0
   38.2650   27.4980   41.3810 C   0  0  0  0  0  0  0  0  0  0  0  0
   38.3170   28.7200   42.0040 C   0  0  0  0  0  0  0  0  0  0  0  0
   37.6080   28.8810   43.1550 C   0  0  0  0  0  0  0  0  0  0  0  0
   36.8620   27.8500   43.6760 C   0  0  0  0  0  0  0  0  0  0  0  0
   36.8050   26.6140   43.0520 C   0  0  0  0  0  0  0  0  0  0  0  0
   37.5310   26.4520   41.8740 C   0  0  0  0  0  0  0  0  0  0  0  0
   37.6430   29.8390   43.6530 H   0  0  0  0  0  0  0  0  0  0  0  0
   36.3180   28.0350   44.5940 H   0  0  0  0  0  0  0  0  0  0  0  0
   36.2150   25.8520   43.4950 H   0  0  0  0  0  0  0  0  0  0  0  0
   37.4100   25.1170   41.2960 C   0  0  0  0  0  0  0  0  0  0  0  0
   38.2250   24.0080   41.4590 C   0  0  0  0  0  0  0  0  0  0  0  0
   37.7710   22.9180   40.7370 C   0  0  0  0  0  0  0  0  0  0  0  0
   36.6380   23.4460   40.1380 C   0  0  0  0  0  0  0  0  0  0  0  0
   36.4830   24.6860   40.4870 O   0  0  0  0  0  0  0  0  0  0  0  0
   39.1240   24.0300   42.0970 H   0  0  0  0  0  0  0  0  0  0  0  0
   38.1810   21.9330   40.6610 H   0  0  0  0  0  0  0  0  0  0  0  0
   35.9560   22.9100   39.4610 H   0  0  0  0  0  0  0  0  0  0  0  0
   39.1330   29.7720   41.4030 C   0  0  0  0  0  0  0  0  0  0  0  0
   40.3500   29.8010   41.6910 O   0  0  0  0  0  0  0  0  0  0  0  0
   37.6730   32.8680   40.2010 C   0  0  0  0  0  0  0  0  0  0  0  0
   37.3660   32.6500   38.8490 C   0  0  0  0  0  0  0  0  0  0  0  0
   37.6850   31.3940   38.3800 C   0  0  0  0  0  0  0  0  0  0  0  0
   38.2580   30.4830   39.2370 N   0  0  0  0  0  0  0  0  0  0  0  0
   38.5300   30.7360   40.5060 C   0  0  0  0  0  0  0  0  0  0  0  0
   38.2240   31.9550   40.9740 N   0  0  0  0  0  0  0  0  0  0  0  0
   37.4080   33.8770   40.5500 H   0  0  0  0  0  0  0  0  0  0  0  0
   36.9220   33.3330   38.1580 H   0  0  0  0  0  0  0  0  0  0  0  0
   37.4270   31.0150   36.9960 C   0  0  0  0  0  0  0  0  0  0  0  0
   37.7630   31.6590   36.1970 H   0  0  0  0  0  0  0  0  0  0  0  0
   36.8160   29.9400   36.7710 O   0  0  0  0  0  0  0  0  0  0  0  0
  1  2  1  0  0  0  0
  2  7  2  0  0  0  0
  2  3  1  0  0  0  0
  3  4  2  0  0  0  0
  4  8  1  0  0  0  0
  4  5  1  0  0  0  0
  5  9  1  0  0  0  0
  6 10  1  0  0  0  0
  6  5  2  0  0  0  0
  7  6  1  0  0  0  0
 11 12  2  0  0  0  0
 11  7  1  0  0  0  0
 12 16  1  0  0  0  0
 13 12  1  0  0  0  0
 14 15  1  0  0  0  0
 14 13  2  0  0  0  0
 15 11  1  0  0  0  0
 17 13  1  0  0  0  0
 18 14  1  0  0  0  0
 19 20  2  0  0  0  0
 19  3  1  0  0  0  0
 21 27  1  0  0  0  0
 21 26  1  0  0  0  0
 22 21  2  0  0  0  0
 23 22  1  0  0  0  0
 23 24  2  0  0  0  0
 24 25  1  0  0  0  0
 25 26  2  0  0  0  0
 25 19  1  0  0  0  0
 28 22  1  0  0  0  0
 29 23  1  0  0  0  0
 30 29  1  0  0  0  0
 31 29  2  0  0  0  0
M  END
>  <minimizedAffinity>
-5.28500986

$$$$

 OpenBabel03242513193D

 31 33  0  0  0  0  0  0  0  0999 V2000
   39.6060   28.1670   41.9120 Cl  0  0  0  0  0  0  0  0  0  0  0  0
   38.0860   28.9320   41.4350 C   0  0  0  0  0  0  0  0  0  0  0  0
   38.0080   30.2970   41.3070 C   0  0  0  0  0  0  0  0  0  0  0  0
   36.8170   30.8360   40.9280 C   0  0  0  0  0  0  0  0  0  0  0  0
   35.7250   30.0380   40.6820 C   0  0  0  0  0  0  0  0  0  0  0  0
   35.7960   28.6600   40.8090 C   0  0  0  0  0  0  0  0  0  0  0  0
   37.0170   28.1100   41.1960 C   0  0  0  0  0  0  0  0  0  0  0  0
   36.7460   31.9100   40.8250 H   0  0  0  0  0  0  0  0  0  0  0  0
   34.8040   30.5210   40.3830 H   0  0  0  0  0  0  0  0  0  0  0  0
   34.9260   28.0890   40.6080 H   0  0  0  0  0  0  0  0  0  0  0  0
   36.9890   26.6540   41.3060 C   0  0  0  0  0  0  0  0  0  0  0  0
   36.9730   25.6950   40.3070 C   0  0  0  0  0  0  0  0  0  0  0  0
   36.9480   24.4100   40.8200 C   0  0  0  0  0  0  0  0  0  0  0  0
   36.9500   24.6650   42.1820 C   0  0  0  0  0  0  0  0  0  0  0  0
   36.9740   25.9440   42.3990 O   0  0  0  0  0  0  0  0  0  0  0  0
   36.9790   25.9610   39.2370 H   0  0  0  0  0  0  0  0  0  0  0  0
   36.9310   23.4710   40.3070 H   0  0  0  0  0  0  0  0  0  0  0  0
   36.9340   23.9080   42.9820 H   0  0  0  0  0  0  0  0  0  0  0  0
   39.2020   31.0900   41.5900 C   0  0  0  0  0  0  0  0  0  0  0  0
   39.5860   31.1600   42.7780 O   0  0  0  0  0  0  0  0  0  0  0  0
   40.6680   33.7540   39.6090 C   0  0  0  0  0  0  0  0  0  0  0  0
   41.2270   33.1320   38.4820 C   0  0  0  0  0  0  0  0  0  0  0  0
   41.0740   31.7630   38.4410 C   0  0  0  0  0  0  0  0  0  0  0  0
   40.4100   31.1320   39.4670 N   0  0  0  0  0  0  0  0  0  0  0  0
   39.9000   31.7620   40.5120 C   0  0  0  0  0  0  0  0  0  0  0  0
   40.0430   33.0940   40.5630 N   0  0  0  0  0  0  0  0  0  0  0  0
   40.8040   34.8450   39.6170 H   0  0  0  0  0  0  0  0  0  0  0  0
   41.7470   33.5920   37.6690 H   0  0  0  0  0  0  0  0  0  0  0  0
   41.6000   30.9750   37.3330 C   0  0  0  0  0  0  0  0  0  0  0  0
   41.2670   29.9570   37.2010 H   0  0  0  0  0  0  0  0  0  0  0  0
   42.4320   31.5080   36.5570 O   0  0  0  0  0  0  0  0  0  0  0  0
  2  1  1  0  0  0  0
  3  2  1  0  0  0  0
  3 19  1  0  0  0  0
  4  3  2  0  0  0  0
  5  6  2  0  0  0  0
  5  4  1  0  0  0  0
  6  7  1  0  0  0  0
  7 11  1  0  0  0  0
  7  2  2  0  0  0  0
  8  4  1  0  0  0  0
  9  5  1  0  0  0  0
 10  6  1  0  0  0  0
 11 15  1  0  0  0  0
 12 13  1  0  0  0  0
 12 11  2  0  0  0  0
 13 14  2  0  0  0  0
 14 15  1  0  0  0  0
 14 18  1  0  0  0  0
 16 12  1  0  0  0  0
 17 13  1  0  0  0  0
 19 20  2  0  0  0  0
 21 27  1  0  0  0  0
 21 26  1  0  0  0  0
 22 21  2  0  0  0  0
 23 22  1  0  0  0  0
 23 24  2  0  0  0  0
 24 25  1  0  0  0  0
 25 26  2  0  0  0  0
 25 19  1  0  0  0  0
 28 22  1  0  0  0  0
 29 23  1  0  0  0  0
 30 29  1  0  0  0  0
 31 29  2  0  0  0  0
M  END
>  <minimizedAffinity>
-5.12026119

$$$$

 OpenBabel03242513193D

 31 33  0  0  0  0  0  0  0  0999 V2000
   36.9410   27.8030   39.2510 Cl  0  0  0  0  0  0  0  0  0  0  0  0
   37.3310   27.9750   40.9670 C   0  0  0  0  0  0  0  0  0  0  0  0
   37.2840   29.2090   41.5670 C   0  0  0  0  0  0  0  0  0  0  0  0
   37.5850   29.2860   42.8920 C   0  0  0  0  0  0  0  0  0  0  0  0
   37.9240   28.1610   43.6080 C   0  0  0  0  0  0  0  0  0  0  0  0
   37.9740   26.9130   43.0080 C   0  0  0  0  0  0  0  0  0  0  0  0
   37.6650   26.8370   41.6520 C   0  0  0  0  0  0  0  0  0  0  0  0
   37.5520   30.2520   43.3740 H   0  0  0  0  0  0  0  0  0  0  0  0
   38.1530   28.2820   44.6590 H   0  0  0  0  0  0  0  0  0  0  0  0
   38.2410   26.0770   43.6040 H   0  0  0  0  0  0  0  0  0  0  0  0
   37.7490   25.4820   41.1120 C   0  0  0  0  0  0  0  0  0  0  0  0
   36.8770   24.4170   41.2650 C   0  0  0  0  0  0  0  0  0  0  0  0
   37.3110   23.2880   40.5920 C   0  0  0  0  0  0  0  0  0  0  0  0
   38.4910   23.7480   40.0310 C   0  0  0  0  0  0  0  0  0  0  0  0
   38.6890   24.9890   40.3560 O   0  0  0  0  0  0  0  0  0  0  0  0
   35.9530   24.4950   41.8630 H   0  0  0  0  0  0  0  0  0  0  0  0
   36.8590   22.3210   40.5220 H   0  0  0  0  0  0  0  0  0  0  0  0
   39.1770   23.1630   39.3990 H   0  0  0  0  0  0  0  0  0  0  0  0
   36.9240   30.3650   40.7510 C   0  0  0  0  0  0  0  0  0  0  0  0
   35.7110   30.5520   40.5090 O   0  0  0  0  0  0  0  0  0  0  0  0
   38.8620   33.3830   40.2040 C   0  0  0  0  0  0  0  0  0  0  0  0
   39.9010   33.0210   39.3350 C   0  0  0  0  0  0  0  0  0  0  0  0
   39.8990   31.6970   38.9500 C   0  0  0  0  0  0  0  0  0  0  0  0
   38.9160   30.8620   39.4300 N   0  0  0  0  0  0  0  0  0  0  0  0
   37.9550   31.2510   40.2500 C   0  0  0  0  0  0  0  0  0  0  0  0
   37.9470   32.5360   40.6310 N   0  0  0  0  0  0  0  0  0  0  0  0
   38.8860   34.4440   40.4950 H   0  0  0  0  0  0  0  0  0  0  0  0
   40.6780   33.6430   38.9440 H   0  0  0  0  0  0  0  0  0  0  0  0
   40.9150   31.1690   38.0490 C   0  0  0  0  0  0  0  0  0  0  0  0
   41.6790   31.8280   37.6650 H   0  0  0  0  0  0  0  0  0  0  0  0
   40.8720   29.9510   37.7420 O   0  0  0  0  0  0  0  0  0  0  0  0
  1  2  1  0  0  0  0
  2  3  2  0  0  0  0
  2  7  1  0  0  0  0
  3  4  1  0  0  0  0
  4  8  1  0  0  0  0
  4  5  2  0  0  0  0
  5  9  1  0  0  0  0
  6 10  1  0  0  0  0
  6  5  1  0  0  0  0
  7  6  2  0  0  0  0
 11 12  2  0  0  0  0
 11  7  1  0  0  0  0
 12 16  1  0  0  0  0
 13 12  1  0  0  0  0
 14 15  1  0  0  0  0
 14 13  2  0  0  0  0
 15 11  1  0  0  0  0
 17 13  1  0  0  0  0
 18 14  1  0  0  0  0
 19  3  1  0  0  0  0
 20 19  2  0  0  0  0
 21 27  1  0  0  0  0
 21 26  1  0  0  0  0
 22 21  2  0  0  0  0
 23 22  1  0  0  0  0
 23 24  2  0  0  0  0
 24 25  1  0  0  0  0
 25 26  2  0  0  0  0
 25 19  1  0  0  0  0
 28 22  1  0  0  0  0
 29 23  1  0  0  0  0
 30 29  1  0  0  0  0
 31 29  2  0  0  0  0
M  END
>  <minimizedAffinity>
-5.08747196

$$$$

 OpenBabel03242513193D

 31 33  0  0  0  0  0  0  0  0999 V2000
   38.8260   31.0620   41.8220 Cl  0  0  0  0  0  0  0  0  0  0  0  0
   37.9580   30.7450   40.3150 C   0  0  0  0  0  0  0  0  0  0  0  0
   37.8560   31.7220   39.3550 C   0  0  0  0  0  0  0  0  0  0  0  0
   37.1840   31.4230   38.2100 C   0  0  0  0  0  0  0  0  0  0  0  0
   36.6250   30.1810   38.0200 C   0  0  0  0  0  0  0  0  0  0  0  0
   36.7240   29.1910   38.9840 C   0  0  0  0  0  0  0  0  0  0  0  0
   37.4120   29.4980   40.1560 C   0  0  0  0  0  0  0  0  0  0  0  0
   37.0980   32.1850   37.4490 H   0  0  0  0  0  0  0  0  0  0  0  0
   36.1030   30.0000   37.0890 H   0  0  0  0  0  0  0  0  0  0  0  0
   36.2750   28.2510   38.7890 H   0  0  0  0  0  0  0  0  0  0  0  0
   37.4580   28.3940   41.1090 C   0  0  0  0  0  0  0  0  0  0  0  0
   36.5690   28.0620   42.1190 C   0  0  0  0  0  0  0  0  0  0  0  0
   36.9660   26.9330   42.8130 C   0  0  0  0  0  0  0  0  0  0  0  0
   38.1430   26.6150   42.1540 C   0  0  0  0  0  0  0  0  0  0  0  0
   38.3720   27.4700   41.2050 O   0  0  0  0  0  0  0  0  0  0  0  0
   35.6600   28.6540   42.3170 H   0  0  0  0  0  0  0  0  0  0  0  0
   36.4940   26.4370   43.6350 H   0  0  0  0  0  0  0  0  0  0  0  0
   38.8050   25.7650   42.3870 H   0  0  0  0  0  0  0  0  0  0  0  0
   38.4660   33.0220   39.6210 C   0  0  0  0  0  0  0  0  0  0  0  0
   37.7190   33.9460   40.0130 O   0  0  0  0  0  0  0  0  0  0  0  0
   41.8660   34.1580   40.1820 C   0  0  0  0  0  0  0  0  0  0  0  0
   42.6290   33.6190   39.1360 C   0  0  0  0  0  0  0  0  0  0  0  0
   41.9190   32.8520   38.2380 C   0  0  0  0  0  0  0  0  0  0  0  0
   40.5680   32.6790   38.4260 N   0  0  0  0  0  0  0  0  0  0  0  0
   39.8900   33.2090   39.4300 C   0  0  0  0  0  0  0  0  0  0  0  0
   40.5700   33.9560   40.3100 N   0  0  0  0  0  0  0  0  0  0  0  0
   42.4560   34.7660   40.8840 H   0  0  0  0  0  0  0  0  0  0  0  0
   43.6780   33.7340   38.9620 H   0  0  0  0  0  0  0  0  0  0  0  0
   42.5730   32.2240   37.0960 C   0  0  0  0  0  0  0  0  0  0  0  0
   43.4290   32.7020   36.6450 H   0  0  0  0  0  0  0  0  0  0  0  0
   42.1160   31.1350   36.6660 O   0  0  0  0  0  0  0  0  0  0  0  0
  2  1  1  0  0  0  0
  3 19  1  0  0  0  0
  3  2  2  0  0  0  0
  4  3  1  0  0  0  0
  5  4  2  0  0  0  0
  5  6  1  0  0  0  0
  6  7  2  0  0  0  0
  7  2  1  0  0  0  0
  7 11  1  0  0  0  0
  8  4  1  0  0  0  0
  9  5  1  0  0  0  0
 10  6  1  0  0  0  0
 11 15  1  0  0  0  0
 11 12  2  0  0  0  0
 12 16  1  0  0  0  0
 12 13  1  0  0  0  0
 13 17  1  0  0  0  0
 14 18  1  0  0  0  0
 14 13  2  0  0  0  0
 15 14  1  0  0  0  0
 19 20  2  0  0  0  0
 21 26  1  0  0  0  0
 21 27  1  0  0  0  0
 22 21  2  0  0  0  0
 23 24  2  0  0  0  0
 23 22  1  0  0  0  0
 24 25  1  0  0  0  0
 25 19  1  0  0  0  0
 25 26  2  0  0  0  0
 28 22  1  0  0  0  0
 29 23  1  0  0  0  0
 30 29  1  0  0  0  0
 31 29  2  0  0  0  0
M  END
>  <minimizedAffinity>
-5.07249165

$$$$

 OpenBabel03242513193D

 31 33  0  0  0  0  0  0  0  0999 V2000
   40.4790   30.1220   39.0180 Cl  0  0  0  0  0  0  0  0  0  0  0  0
   39.2400   31.3280   39.3840 C   0  0  0  0  0  0  0  0  0  0  0  0
   37.9740   30.9340   39.7420 C   0  0  0  0  0  0  0  0  0  0  0  0
   37.0590   31.9010   40.0210 C   0  0  0  0  0  0  0  0  0  0  0  0
   37.3920   33.2340   39.9480 C   0  0  0  0  0  0  0  0  0  0  0  0
   38.6670   33.6390   39.5860 C   0  0  0  0  0  0  0  0  0  0  0  0
   39.6020   32.6460   39.3010 C   0  0  0  0  0  0  0  0  0  0  0  0
   36.0600   31.6010   40.3040 H   0  0  0  0  0  0  0  0  0  0  0  0
   36.6240   33.9600   40.1810 H   0  0  0  0  0  0  0  0  0  0  0  0
   38.8730   34.6780   39.5430 H   0  0  0  0  0  0  0  0  0  0  0  0
   40.9120   33.1730   38.9270 C   0  0  0  0  0  0  0  0  0  0  0  0
   41.9880   33.5130   39.7310 C   0  0  0  0  0  0  0  0  0  0  0  0
   43.0610   33.9810   38.9940 C   0  0  0  0  0  0  0  0  0  0  0  0
   42.5580   33.8960   37.7060 C   0  0  0  0  0  0  0  0  0  0  0  0
   41.3450   33.4360   37.7270 O   0  0  0  0  0  0  0  0  0  0  0  0
   41.9560   33.4110   40.8290 H   0  0  0  0  0  0  0  0  0  0  0  0
   44.0210   34.3160   39.3260 H   0  0  0  0  0  0  0  0  0  0  0  0
   43.0920   34.1750   36.7840 H   0  0  0  0  0  0  0  0  0  0  0  0
   37.6820   29.5040   39.7960 C   0  0  0  0  0  0  0  0  0  0  0  0
   37.3360   28.9400   38.7340 O   0  0  0  0  0  0  0  0  0  0  0  0
   38.0190   28.8790   43.3550 C   0  0  0  0  0  0  0  0  0  0  0  0
   38.0230   27.4840   43.5020 C   0  0  0  0  0  0  0  0  0  0  0  0
   37.9050   26.7780   42.3240 C   0  0  0  0  0  0  0  0  0  0  0  0
   37.7960   27.4670   41.1380 N   0  0  0  0  0  0  0  0  0  0  0  0
   37.7970   28.7860   41.0490 C   0  0  0  0  0  0  0  0  0  0  0  0
   37.9110   29.4830   42.1880 N   0  0  0  0  0  0  0  0  0  0  0  0
   38.1150   29.4190   44.3090 H   0  0  0  0  0  0  0  0  0  0  0  0
   38.1060   26.9200   44.4060 H   0  0  0  0  0  0  0  0  0  0  0  0
   37.8930   25.3200   42.3130 C   0  0  0  0  0  0  0  0  0  0  0  0
   38.8260   24.7820   42.3800 H   0  0  0  0  0  0  0  0  0  0  0  0
   36.7880   24.7280   42.2260 O   0  0  0  0  0  0  0  0  0  0  0  0
  1  2  1  0  0  0  0
  2  3  1  0  0  0  0
  3 19  1  0  0  0  0
  3  4  2  0  0  0  0
  4  8  1  0  0  0  0
  5  4  1  0  0  0  0
  5  9  1  0  0  0  0
  6  5  2  0  0  0  0
  7  2  2  0  0  0  0
  7  6  1  0  0  0  0
 10  6  1  0  0  0  0
 11  7  1  0  0  0  0
 11 12  2  0  0  0  0
 12 16  1  0  0  0  0
 13 17  1  0  0  0  0
 13 12  1  0  0  0  0
 14 15  1  0  0  0  0
 14 13  2  0  0  0  0
 15 11  1  0  0  0  0
 18 14  1  0  0  0  0
 19 25  1  0  0  0  0
 20 19  2  0  0  0  0
 21 22  1  0  0  0  0
 21 27  1  0  0  0  0
 22 28  1  0  0  0  0
 23 22  2  0  0  0  0
 24 23  1  0  0  0  0
 25 24  2  0  0  0  0
 25 26  1  0  0  0  0
 26 21  2  0  0  0  0
 29 23  1  0  0  0  0
 29 30  1  0  0  0  0
 31 29  2  0  0  0  0
M  END
>  <minimizedAffinity>
-5.06551313

$$$$

 OpenBabel03242513193D

 31 33  0  0  0  0  0  0  0  0999 V2000
   36.8710   26.2170   40.5540 Cl  0  0  0  0  0  0  0  0  0  0  0  0
   38.1200   25.9310   41.7730 C   0  0  0  0  0  0  0  0  0  0  0  0
   38.3800   26.8790   42.7320 C   0  0  0  0  0  0  0  0  0  0  0  0
   39.3450   26.6060   43.6520 C   0  0  0  0  0  0  0  0  0  0  0  0
   40.0370   25.4190   43.6220 C   0  0  0  0  0  0  0  0  0  0  0  0
   39.7800   24.4590   42.6570 C   0  0  0  0  0  0  0  0  0  0  0  0
   38.7910   24.7390   41.7160 C   0  0  0  0  0  0  0  0  0  0  0  0
   39.5580   27.3450   44.4110 H   0  0  0  0  0  0  0  0  0  0  0  0
   40.7930   25.2560   44.3800 H   0  0  0  0  0  0  0  0  0  0  0  0
   40.3410   23.5590   42.6770 H   0  0  0  0  0  0  0  0  0  0  0  0
   38.5970   23.6700   40.7410 C   0  0  0  0  0  0  0  0  0  0  0  0
   39.1270   23.5290   39.4680 C   0  0  0  0  0  0  0  0  0  0  0  0
   38.7000   22.3660   38.8520 C   0  0  0  0  0  0  0  0  0  0  0  0
   37.8870   21.8250   39.8350 C   0  0  0  0  0  0  0  0  0  0  0  0
   37.8650   22.6000   40.8760 O   0  0  0  0  0  0  0  0  0  0  0  0
   39.8060   24.2790   39.0300 H   0  0  0  0  0  0  0  0  0  0  0  0
   38.9340   21.9850   37.8800 H   0  0  0  0  0  0  0  0  0  0  0  0
   37.3300   20.8780   39.7640 H   0  0  0  0  0  0  0  0  0  0  0  0
   37.6150   28.1220   42.7050 C   0  0  0  0  0  0  0  0  0  0  0  0
   36.4870   28.1240   43.2470 O   0  0  0  0  0  0  0  0  0  0  0  0
   39.4990   31.1890   42.2420 C   0  0  0  0  0  0  0  0  0  0  0  0
   39.2670   31.5860   40.9160 C   0  0  0  0  0  0  0  0  0  0  0  0
   38.4370   30.7510   40.1990 C   0  0  0  0  0  0  0  0  0  0  0  0
   37.9180   29.6350   40.8120 N   0  0  0  0  0  0  0  0  0  0  0  0
   38.1660   29.3000   42.0670 C   0  0  0  0  0  0  0  0  0  0  0  0
   38.9720   30.1050   42.7740 N   0  0  0  0  0  0  0  0  0  0  0  0
   40.1640   31.8710   42.7910 H   0  0  0  0  0  0  0  0  0  0  0  0
   39.6540   32.4450   40.4110 H   0  0  0  0  0  0  0  0  0  0  0  0
   38.1010   31.0300   38.8080 C   0  0  0  0  0  0  0  0  0  0  0  0
   38.6130   30.4980   38.0210 H   0  0  0  0  0  0  0  0  0  0  0  0
   37.2170   31.8890   38.5630 O   0  0  0  0  0  0  0  0  0  0  0  0
  1  2  1  0  0  0  0
  2  3  1  0  0  0  0
  3  4  2  0  0  0  0
  4  8  1  0  0  0  0
  5  4  1  0  0  0  0
  5  9  1  0  0  0  0
  6 10  1  0  0  0  0
  6  5  2  0  0  0  0
  7  2  2  0  0  0  0
  7  6  1  0  0  0  0
 11 15  1  0  0  0  0
 11  7  1  0  0  0  0
 12 11  2  0  0  0  0
 13 12  1  0  0  0  0
 13 14  2  0  0  0  0
 14 15  1  0  0  0  0
 16 12  1  0  0  0  0
 17 13  1  0  0  0  0
 18 14  1  0  0  0  0
 19  3  1  0  0  0  0
 19 20  2  0  0  0  0
 21 26  1  0  0  0  0
 21 27  1  0  0  0  0
 22 21  2  0  0  0  0
 23 24  2  0  0  0  0
 23 22  1  0  0  0  0
 24 25  1  0  0  0  0
 25 19  1  0  0  0  0
 25 26  2  0  0  0  0
 28 22  1  0  0  0  0
 29 23  1  0  0  0  0
 30 29  1  0  0  0  0
 31 29  2  0  0  0  0
M  END
>  <minimizedAffinity>
-5.03429556

$$$$

 OpenBabel03242513193D

 31 33  0  0  0  0  0  0  0  0999 V2000
   40.6260   29.9350   40.7620 Cl  0  0  0  0  0  0  0  0  0  0  0  0
   39.0470   30.6770   40.4760 C   0  0  0  0  0  0  0  0  0  0  0  0
   37.9470   30.2580   41.1830 C   0  0  0  0  0  0  0  0  0  0  0  0
   36.7570   30.8680   40.9310 C   0  0  0  0  0  0  0  0  0  0  0  0
   36.6590   31.8730   39.9980 C   0  0  0  0  0  0  0  0  0  0  0  0
   37.7650   32.3000   39.2800 C   0  0  0  0  0  0  0  0  0  0  0  0
   38.9830   31.6750   39.5400 C   0  0  0  0  0  0  0  0  0  0  0  0
   35.8850   30.5450   41.4820 H   0  0  0  0  0  0  0  0  0  0  0  0
   35.6870   32.3220   39.8390 H   0  0  0  0  0  0  0  0  0  0  0  0
   37.6370   33.0780   38.5720 H   0  0  0  0  0  0  0  0  0  0  0  0
   40.0850   32.1920   38.7330 C   0  0  0  0  0  0  0  0  0  0  0  0
   40.8210   33.3550   38.8880 C   0  0  0  0  0  0  0  0  0  0  0  0
   41.7900   33.4920   37.9090 C   0  0  0  0  0  0  0  0  0  0  0  0
   41.5840   32.3410   37.1650 C   0  0  0  0  0  0  0  0  0  0  0  0
   40.6120   31.6460   37.6740 O   0  0  0  0  0  0  0  0  0  0  0  0
   40.6290   34.0660   39.7080 H   0  0  0  0  0  0  0  0  0  0  0  0
   42.5050   34.2740   37.7630 H   0  0  0  0  0  0  0  0  0  0  0  0
   42.1490   32.0400   36.2690 H   0  0  0  0  0  0  0  0  0  0  0  0
   38.1160   29.1820   42.1560 C   0  0  0  0  0  0  0  0  0  0  0  0
   38.4300   29.4970   43.3250 O   0  0  0  0  0  0  0  0  0  0  0  0
   36.8470   26.2970   40.3570 C   0  0  0  0  0  0  0  0  0  0  0  0
   37.4820   25.1820   40.9220 C   0  0  0  0  0  0  0  0  0  0  0  0
   38.3610   25.4720   41.9430 C   0  0  0  0  0  0  0  0  0  0  0  0
   38.5420   26.7830   42.3190 N   0  0  0  0  0  0  0  0  0  0  0  0
   37.9190   27.8040   41.7550 C   0  0  0  0  0  0  0  0  0  0  0  0
   37.0620   27.5330   40.7600 N   0  0  0  0  0  0  0  0  0  0  0  0
   36.1510   26.0380   39.5450 H   0  0  0  0  0  0  0  0  0  0  0  0
   37.3640   24.1530   40.6540 H   0  0  0  0  0  0  0  0  0  0  0  0
   39.0980   24.4190   42.6300 C   0  0  0  0  0  0  0  0  0  0  0  0
   38.7100   23.4110   42.6280 H   0  0  0  0  0  0  0  0  0  0  0  0
   40.1730   24.7160   43.2090 O   0  0  0  0  0  0  0  0  0  0  0  0
  2  1  1  0  0  0  0
  2  3  1  0  0  0  0
  3 19  1  0  0  0  0
  4  3  2  0  0  0  0
  4  8  1  0  0  0  0
  5  4  1  0  0  0  0
  6  7  1  0  0  0  0
  6  5  2  0  0  0  0
  7  2  2  0  0  0  0
  9  5  1  0  0  0  0
 10  6  1  0  0  0  0
 11 12  2  0  0  0  0
 11  7  1  0  0  0  0
 12 16  1  0  0  0  0
 13 12  1  0  0  0  0
 14 15  1  0  0  0  0
 14 13  2  0  0  0  0
 15 11  1  0  0  0  0
 17 13  1  0  0  0  0
 18 14  1  0  0  0  0
 19 20  2  0  0  0  0
 21 26  2  0  0  0  0
 21 22  1  0  0  0  0
 22 23  2  0  0  0  0
 23 24  1  0  0  0  0
 23 29  1  0  0  0  0
 25 19  1  0  0  0  0
 25 24  2  0  0  0  0
 26 25  1  0  0  0  0
 27 21  1  0  0  0  0
 28 22  1  0  0  0  0
 29 31  2  0  0  0  0
 30 29  1  0  0  0  0
M  END
>  <minimizedAffinity>
-4.88315725

$$$$
