
     RDKit          3D

 19 20  0  0  0  0  0  0  0  0999 V2000
   44.5986   35.7978   44.7323 C   0  0  0  0  0  0  0  0  0  0  0  0
   45.2755   35.5630   43.5063 C   0  0  0  0  0  0  0  0  0  0  0  0
   46.1203   34.4536   43.4182 C   0  0  0  0  0  0  0  0  0  0  0  0
   46.2429   33.6587   44.5249 N   0  0  0  0  0  0  0  0  0  0  0  0
   45.5763   33.9248   45.6704 C   0  0  0  0  0  0  0  0  0  0  0  0
   44.7507   34.9966   45.7787 N   0  0  0  0  0  0  0  0  0  0  0  0
   45.8710   32.9302   46.7082 C   0  0  0  0  0  0  0  0  0  0  0  0
   45.1134   32.7666   47.8928 C   0  0  0  0  0  0  0  0  0  0  0  0
   45.4820   31.8141   48.7762 C   0  0  0  0  0  0  0  0  0  0  0  0
   46.6147   31.0109   48.4870 C   0  0  0  0  0  0  0  0  0  0  0  0
   47.1655   31.6628   46.8720 S   0  0  0  0  0  0  0  0  0  0  0  0
   43.9461   36.6553   44.7996 H   0  0  0  0  0  0  0  0  0  0  0  0
   45.1578   36.2160   42.6383 H   0  0  0  0  0  0  0  0  0  0  0  0
   46.6690   34.2076   42.5226 H   0  0  0  0  0  0  0  0  0  0  0  0
   44.2547   33.3973   48.0811 H   0  0  0  0  0  0  0  0  0  0  0  0
   45.0113   31.5851   49.6908 H   0  0  0  0  0  0  0  0  0  0  0  0
   47.2770   29.9254   49.1890 C   0  0  0  0  0  0  0  0  0  0  0  0
   47.9503   29.3761   48.5793 H   0  0  0  0  0  0  0  0  0  0  0  0
   46.9564   29.8086   50.3827 O   0  0  0  0  0  0  0  0  0  0  0  0
  1  6  2  0
  2  1  1  0
  3  2  2  0
  3  4  1  0
  4  5  2  0
  5  6  1  0
  5  7  1  0
  7 11  1  0
  7  8  2  0
  8  9  1  0
 10  9  2  0
 11 10  1  0
  1 12  1  0
  2 13  1  0
  3 14  1  0
  8 15  1  0
  9 16  1  0
 17 18  1  0
 17 19  2  0
 10 17  1  0
M  ISO  6  12  14  13  14  14  14  15  14  16  14  18   6
M  END
>  <DihAtoms>  (1) 
8,9,16,17

>  <DihDeg>  (1) 
-0.0003214517177070869

$$$$
