REMARK  Name = 
REMARK  2 active torsions:
REMARK  status: ('A' for Active; 'I' for Inactive)
REMARK    1  A    between atoms: C_2  and  C_17
REMARK    2  A    between atoms: C_3  and  C_7
REMARK                            x       y       z     vdW  Elec       q    Type
REMARK                         _______ _______ _______ _____ _____    ______ ____
ROOT
ATOM      1  C   UNL     1      44.582  35.912  44.313  0.00  0.00    +0.000 A 
ATOM      2  C   UNL     1      45.349  35.911  43.110  0.00  0.00    +0.000 A 
ATOM      3  C   UNL     1      46.307  34.916  43.036  0.00  0.00    +0.000 A 
ATOM      4  N   UNL     1      46.481  34.008  44.069  0.00  0.00    +0.000 NA
ATOM      5  C   UNL     1      45.733  34.057  45.170  0.00  0.00    +0.000 A 
ATOM      6  N   UNL     1      44.778  35.009  45.302  0.00  0.00    +0.000 NA
ATOM      7  H   UNL     1      43.808  36.648  44.475  0.00  0.00    +0.000 HD
ATOM      8  H   UNL     1      46.017  33.274  45.847  0.00  0.00    +0.000 HD
ENDROOT
BRANCH   3   9
ATOM      9  C   UNL     1      47.078  34.800  41.739  0.00  0.00    +0.000 C 
ATOM     10  C   UNL     1      48.460  35.464  41.883  0.00  0.00    +0.000 C 
ATOM     11  C   UNL     1      48.228  33.938  41.735  0.00  0.00    +0.000 C 
ATOM     12  H   UNL     1      46.570  35.205  40.840  0.00  0.00    +0.000 HD
ATOM     13  H   UNL     1      48.804  36.003  40.999  0.00  0.00    +0.000 HD
ATOM     14  H   UNL     1      48.734  35.877  42.842  0.00  0.00    +0.000 HD
ATOM     15  H   UNL     1      48.699  33.513  40.825  0.00  0.00    +0.000 HD
ATOM     16  H   UNL     1      48.484  33.409  42.697  0.00  0.00    +0.000 HD
ENDBRANCH   3   9
BRANCH   2  17
ATOM     17  C   UNL     1      45.080  36.915  42.095  0.00  0.00    +0.000 C 
ATOM     18  H   UNL     1      45.816  37.612  41.768  0.00  0.00    +0.000 HD
ATOM     19  O   UNL     1      43.944  36.990  41.560  0.00  0.00    +0.000 OA
ENDBRANCH   2  17
TORSDOF 2
