
 OpenBabel03252509203D

 19 20  0  0  0  0  0  0  0  0999 V2000
   45.2900   34.4410   44.7250 C   0  0  0  0  0  0  0  0  0  0  0  0
   45.7620   35.0340   43.5160 C   0  0  0  0  0  0  0  0  0  0  0  0
   46.9250   34.4760   43.0150 C   0  0  0  0  0  0  0  0  0  0  0  0
   47.5550   33.4250   43.6630 N   0  0  0  0  0  0  0  0  0  0  0  0
   47.0650   32.9100   44.7890 C   0  0  0  0  0  0  0  0  0  0  0  0
   45.9300   33.4140   45.3310 N   0  0  0  0  0  0  0  0  0  0  0  0
   44.3900   34.8010   45.2030 H   0  0  0  0  0  0  0  0  0  0  0  0
   47.6900   32.1080   45.1330 H   0  0  0  0  0  0  0  0  0  0  0  0
   47.4140   34.9940   41.6800 C   0  0  0  0  0  0  0  0  0  0  0  0
   48.8220   35.5990   41.8300 C   0  0  0  0  0  0  0  0  0  0  0  0
   48.5040   34.2890   41.0630 C   0  0  0  0  0  0  0  0  0  0  0  0
   46.7520   35.7290   41.1770 H   0  0  0  0  0  0  0  0  0  0  0  0
   49.0030   36.4930   41.2320 H   0  0  0  0  0  0  0  0  0  0  0  0
   49.3000   35.5550   42.7970 H   0  0  0  0  0  0  0  0  0  0  0  0
   48.7660   34.3410   39.9870 H   0  0  0  0  0  0  0  0  0  0  0  0
   48.9270   33.4010   41.6150 H   0  0  0  0  0  0  0  0  0  0  0  0
   45.0200   36.1350   42.9280 C   0  0  0  0  0  0  0  0  0  0  0  0
   45.2320   37.1540   43.1500 H   0  0  0  0  0  0  0  0  0  0  0  0
   44.0830   35.9090   42.1190 O   0  0  0  0  0  0  0  0  0  0  0  0
  1  7  1  0  0  0  0
  1  6  1  0  0  0  0
  2  1  2  0  0  0  0
  3  2  1  0  0  0  0
  3  4  2  0  0  0  0
  4  5  1  0  0  0  0
  5  8  1  0  0  0  0
  5  6  2  0  0  0  0
  9 10  1  0  0  0  0
  9  3  1  0  0  0  0
 10 14  1  0  0  0  0
 11 16  1  0  0  0  0
 11  9  1  0  0  0  0
 11 10  1  0  0  0  0
 12  9  1  0  0  0  0
 13 10  1  0  0  0  0
 15 11  1  0  0  0  0
 17 18  1  0  0  0  0
 17  2  1  0  0  0  0
 19 17  2  0  0  0  0
M  END
>  <minimizedAffinity>
-3.77011776

>  <minimizedRMSD>
1.27163064

$$$$
