
 OpenBabel03252509163D

 19 20  0  0  0  0  0  0  0  0999 V2000
   45.8050   33.2250   46.4740 C   0  0  0  0  0  0  0  0  0  0  0  0
   45.1130   33.1010   47.7030 C   0  0  0  0  0  0  0  0  0  0  0  0
   45.5820   32.2390   48.6310 C   0  0  0  0  0  0  0  0  0  0  0  0
   46.7510   31.4890   48.3440 C   0  0  0  0  0  0  0  0  0  0  0  0
   47.1870   32.0560   46.6630 S   0  0  0  0  0  0  0  0  0  0  0  0
   44.2240   33.6880   47.8890 H   0  0  0  0  0  0  0  0  0  0  0  0
   45.1680   32.0480   49.5820 H   0  0  0  0  0  0  0  0  0  0  0  0
   44.4070   35.9610   44.4000 C   0  0  0  0  0  0  0  0  0  0  0  0
   44.8330   35.5310   43.1160 C   0  0  0  0  0  0  0  0  0  0  0  0
   45.5660   34.3460   43.0250 C   0  0  0  0  0  0  0  0  0  0  0  0
   45.8300   33.6700   44.1860 N   0  0  0  0  0  0  0  0  0  0  0  0
   45.4000   34.1220   45.3850 C   0  0  0  0  0  0  0  0  0  0  0  0
   44.6870   35.2710   45.4980 N   0  0  0  0  0  0  0  0  0  0  0  0
   43.8400   36.8770   44.4710 H   0  0  0  0  0  0  0  0  0  0  0  0
   44.6080   36.0920   42.2060 H   0  0  0  0  0  0  0  0  0  0  0  0
   45.9260   33.9520   42.0880 H   0  0  0  0  0  0  0  0  0  0  0  0
   47.5140   30.5000   49.0860 C   0  0  0  0  0  0  0  0  0  0  0  0
   47.0400   29.5520   49.1350 H   0  0  0  0  0  0  0  0  0  0  0  0
   48.5910   30.9150   49.5440 O   0  0  0  0  0  0  0  0  0  0  0  0
  1  5  1  0  0  0  0
  1  2  2  0  0  0  0
  2  6  1  0  0  0  0
  2  3  1  0  0  0  0
  3  7  1  0  0  0  0
  4  3  2  0  0  0  0
  4 17  1  0  0  0  0
  5  4  1  0  0  0  0
  8 14  1  0  0  0  0
  8 13  1  0  0  0  0
  9  8  2  0  0  0  0
 10  9  1  0  0  0  0
 10 11  2  0  0  0  0
 11 12  1  0  0  0  0
 12 13  2  0  0  0  0
 12  1  1  0  0  0  0
 15  9  1  0  0  0  0
 16 10  1  0  0  0  0
 17 18  1  0  0  0  0
 17 19  2  0  0  0  0
M  END
>  <minimizedAffinity>
-4.08435059

>  <minimizedRMSD>
0.762501121

$$$$
