
 OpenBabel03242515353D

 26 28  0  0  0  0  0  0  0  0999 V2000
   40.9010   34.5870   41.4280 C   0  0  0  0  0  0  0  0  0  0  0  0
   41.7850   35.0550   40.4710 C   0  0  0  0  0  0  0  0  0  0  0  0
   41.4360   35.0600   39.1390 C   0  0  0  0  0  0  0  0  0  0  0  0
   40.2080   34.6000   38.7300 C   0  0  0  0  0  0  0  0  0  0  0  0
   39.3060   34.1250   39.6770 C   0  0  0  0  0  0  0  0  0  0  0  0
   39.6410   34.1130   41.0330 C   0  0  0  0  0  0  0  0  0  0  0  0
   38.1370   33.7180   39.0150 O   0  0  0  0  0  0  0  0  0  0  0  0
   38.5120   33.6000   37.6450 C   0  0  0  0  0  0  0  0  0  0  0  0
   39.5920   34.4870   37.4690 O   0  0  0  0  0  0  0  0  0  0  0  0
   41.0740   34.5410   42.4900 H   0  0  0  0  0  0  0  0  0  0  0  0
   42.1580   35.4350   38.4230 H   0  0  0  0  0  0  0  0  0  0  0  0
   38.9290   33.7430   41.7380 H   0  0  0  0  0  0  0  0  0  0  0  0
   38.7460   32.5680   37.3630 H   0  0  0  0  0  0  0  0  0  0  0  0
   37.6740   33.9980   37.0520 H   0  0  0  0  0  0  0  0  0  0  0  0
   43.3630   35.6360   41.0840 S   0  0  0  0  0  0  0  0  0  0  0  0
   44.1260   34.3600   42.1170 C   0  0  0  0  0  0  0  0  0  0  0  0
   44.1670   33.0910   41.5490 C   0  0  0  0  0  0  0  0  0  0  0  0
   44.7600   32.0630   42.3320 C   0  0  0  0  0  0  0  0  0  0  0  0
   45.2390   32.3820   43.5600 N   0  0  0  0  0  0  0  0  0  0  0  0
   45.1730   33.6210   44.0540 C   0  0  0  0  0  0  0  0  0  0  0  0
   44.6230   34.6090   43.3470 N   0  0  0  0  0  0  0  0  0  0  0  0
   43.7680   32.8790   40.5560 H   0  0  0  0  0  0  0  0  0  0  0  0
   44.8130   31.0580   41.9290 H   0  0  0  0  0  0  0  0  0  0  0  0
   45.7200   33.8430   45.3840 C   0  0  0  0  0  0  0  0  0  0  0  0
   46.7200   33.6260   45.7110 H   0  0  0  0  0  0  0  0  0  0  0  0
   44.9940   34.3320   46.2740 O   0  0  0  0  0  0  0  0  0  0  0  0
  1 10  1  0  0  0  0
  2 15  1  0  0  0  0
  2  1  2  0  0  0  0
  3  2  1  0  0  0  0
  4  3  2  0  0  0  0
  4  5  1  0  0  0  0
  5  6  2  0  0  0  0
  6  1  1  0  0  0  0
  6 12  1  0  0  0  0
  7  5  1  0  0  0  0
  8  7  1  0  0  0  0
  9  8  1  0  0  0  0
  9  4  1  0  0  0  0
 11  3  1  0  0  0  0
 13  8  1  0  0  0  0
 14  8  1  0  0  0  0
 15 16  1  0  0  0  0
 16 21  1  0  0  0  0
 17 16  2  0  0  0  0
 17 18  1  0  0  0  0
 18 19  2  0  0  0  0
 19 20  1  0  0  0  0
 20 24  1  0  0  0  0
 21 20  2  0  0  0  0
 22 17  1  0  0  0  0
 23 18  1  0  0  0  0
 24 25  1  0  0  0  0
 24 26  2  0  0  0  0
M  END
>  <minimizedAffinity>
-4.61055899

>  <minimizedRMSD>
2.02307987

$$$$
