
 OpenBabel03252502073D

 42 45  0  0  0  0  0  0  0  0999 V2000
   47.4340   32.0680   47.8650 C   0  0  0  0  0  0  0  0  0  0  0  0
   46.8940   30.7780   47.8960 C   0  0  0  0  0  0  0  0  0  0  0  0
   45.9140   30.5010   46.9840 C   0  0  0  0  0  0  0  0  0  0  0  0
   45.5220   31.4400   46.1200 N   0  0  0  0  0  0  0  0  0  0  0  0
   46.0190   32.6570   46.0720 C   0  0  0  0  0  0  0  0  0  0  0  0
   46.9890   32.9600   46.9660 N   0  0  0  0  0  0  0  0  0  0  0  0
   45.3260   29.2580   46.9740 N   0  0  0  0  0  0  0  0  0  0  0  0
   44.1330   28.9060   46.1540 C   0  0  0  0  0  0  0  0  0  0  0  0
   44.0240   27.4060   46.2120 C   0  0  0  0  0  0  0  0  0  0  0  0
   44.6700   27.0710   47.5090 C   0  0  0  0  0  0  0  0  0  0  0  0
   45.7170   28.1040   47.7190 C   0  0  0  0  0  0  0  0  0  0  0  0
   48.2200   32.3400   48.5770 H   0  0  0  0  0  0  0  0  0  0  0  0
   44.4010   29.2230   45.1270 H   0  0  0  0  0  0  0  0  0  0  0  0
   43.2550   29.4240   46.5570 H   0  0  0  0  0  0  0  0  0  0  0  0
   42.9380   27.1500   46.2250 H   0  0  0  0  0  0  0  0  0  0  0  0
   44.4760   26.8920   45.3460 H   0  0  0  0  0  0  0  0  0  0  0  0
   43.8760   27.0690   48.2840 H   0  0  0  0  0  0  0  0  0  0  0  0
   45.0940   26.0360   47.5400 H   0  0  0  0  0  0  0  0  0  0  0  0
   46.7040   27.7580   47.3600 H   0  0  0  0  0  0  0  0  0  0  0  0
   45.6950   28.2760   48.8360 H   0  0  0  0  0  0  0  0  0  0  0  0
   45.7480   33.8110   45.1800 C   0  0  0  0  0  0  0  0  0  0  0  0
   44.8620   34.7750   45.4590 N   0  0  0  0  0  0  0  0  0  0  0  0
   44.5990   35.8220   44.6860 C   0  0  0  0  0  0  0  0  0  0  0  0
   45.2540   35.9730   43.5100 N   0  0  0  0  0  0  0  0  0  0  0  0
   46.1670   35.0750   43.1160 C   0  0  0  0  0  0  0  0  0  0  0  0
   46.8370   35.2230   41.9220 C   0  0  0  0  0  0  0  0  0  0  0  0
   47.7650   34.3220   41.5100 C   0  0  0  0  0  0  0  0  0  0  0  0
   48.0240   33.2360   42.3290 C   0  0  0  0  0  0  0  0  0  0  0  0
   47.3260   33.1280   43.5230 C   0  0  0  0  0  0  0  0  0  0  0  0
   46.3930   34.0090   43.9660 C   0  0  0  0  0  0  0  0  0  0  0  0
   43.8670   36.5610   44.9800 H   0  0  0  0  0  0  0  0  0  0  0  0
   46.6250   36.0760   41.2910 H   0  0  0  0  0  0  0  0  0  0  0  0
   48.2710   34.4710   40.5660 H   0  0  0  0  0  0  0  0  0  0  0  0
   47.7090   31.9540   44.2420 N   0  0  0  0  0  0  0  0  0  0  0  0
   47.0640   31.2210   43.8260 H   0  0  0  0  0  0  0  0  0  0  0  0
   48.4090   31.7420   44.9780 H   0  0  0  0  0  0  0  0  0  0  0  0
   49.0190   32.2640   41.8900 C   0  0  0  0  0  0  0  0  0  0  0  0
   48.8140   31.2250   41.9090 H   0  0  0  0  0  0  0  0  0  0  0  0
   50.1490   32.6270   41.4760 O   0  0  0  0  0  0  0  0  0  0  0  0
   47.4220   29.8890   48.7890 N   0  0  0  0  0  0  0  0  0  0  0  0
   48.1320   29.1300   48.6990 H   0  0  0  0  0  0  0  0  0  0  0  0
   46.9130   30.1550   49.6850 H   0  0  0  0  0  0  0  0  0  0  0  0
  1  2  1  0  0  0  0
  1 12  1  0  0  0  0
  2 40  1  0  0  0  0
  3  2  2  0  0  0  0
  4  3  1  0  0  0  0
  5  4  2  0  0  0  0
  5  6  1  0  0  0  0
  6  1  2  0  0  0  0
  7  3  1  0  0  0  0
  7 11  1  0  0  0  0
  8  9  1  0  0  0  0
  8 14  1  0  0  0  0
  8  7  1  0  0  0  0
  9 15  1  0  0  0  0
  9 10  1  0  0  0  0
 10 18  1  0  0  0  0
 10 11  1  0  0  0  0
 10 17  1  0  0  0  0
 11 20  1  0  0  0  0
 13  8  1  0  0  0  0
 16  9  1  0  0  0  0
 19 11  1  0  0  0  0
 21 22  1  0  0  0  0
 21  5  1  0  0  0  0
 23 31  1  0  0  0  0
 23 22  2  0  0  0  0
 24 23  1  0  0  0  0
 25 24  2  0  0  0  0
 25 30  1  0  0  0  0
 26 25  1  0  0  0  0
 27 26  2  0  0  0  0
 27 28  1  0  0  0  0
 28 29  2  0  0  0  0
 29 30  1  0  0  0  0
 29 34  1  0  0  0  0
 30 21  2  0  0  0  0
 32 26  1  0  0  0  0
 33 27  1  0  0  0  0
 34 36  1  0  0  0  0
 35 34  1  0  0  0  0
 37 38  1  0  0  0  0
 37 28  1  0  0  0  0
 39 37  2  0  0  0  0
 40 42  1  0  0  0  0
 41 40  1  0  0  0  0
M  END
>  <minimizedAffinity>
-6.47223091

>  <minimizedRMSD>
0.0634452477

$$$$
