
 OpenBabel03252505013D

 26 27  0  0  1  0  0  0  0  0999 V2000
   37.1460   27.2500   42.4760 C   0  0  2  0  0  0  0  0  0  0  0  0
   37.9410   27.6340   43.6780 C   0  0  0  0  0  0  0  0  0  0  0  0
   39.3890   27.2960   43.6070 C   0  0  0  0  0  0  0  0  0  0  0  0
   39.4440   25.7960   43.3590 C   0  0  0  0  0  0  0  0  0  0  0  0
   38.9300   25.4500   42.0250 C   0  0  0  0  0  0  0  0  0  0  0  0
   37.7350   26.2380   41.6020 C   0  0  0  0  0  0  0  0  0  0  0  0
   36.1370   26.8750   42.8110 H   0  0  0  0  0  0  0  0  0  0  0  0
   37.8220   28.7110   43.9320 H   0  0  0  0  0  0  0  0  0  0  0  0
   37.5260   27.0840   44.5600 H   0  0  0  0  0  0  0  0  0  0  0  0
   39.8440   27.4370   44.6030 H   0  0  0  0  0  0  0  0  0  0  0  0
   39.9640   27.8550   42.8620 H   0  0  0  0  0  0  0  0  0  0  0  0
   38.9880   25.2700   44.1950 H   0  0  0  0  0  0  0  0  0  0  0  0
   40.5310   25.5580   43.3360 H   0  0  0  0  0  0  0  0  0  0  0  0
   39.3570   24.7170   41.3960 H   0  0  0  0  0  0  0  0  0  0  0  0
   35.4170   29.7860   40.4170 C   0  0  0  0  0  0  0  0  0  0  0  0
   36.3580   30.8460   40.3860 C   0  0  0  0  0  0  0  0  0  0  0  0
   37.5720   30.6610   41.0750 C   0  0  0  0  0  0  0  0  0  0  0  0
   37.7760   29.4840   41.7300 N   0  0  0  0  0  0  0  0  0  0  0  0
   36.8630   28.5000   41.7380 C   0  0  0  0  0  0  0  0  0  0  0  0
   35.6830   28.6480   41.0830 N   0  0  0  0  0  0  0  0  0  0  0  0
   34.4700   29.8450   39.9180 H   0  0  0  0  0  0  0  0  0  0  0  0
   36.1090   31.7470   39.8380 H   0  0  0  0  0  0  0  0  0  0  0  0
   38.2870   31.4680   41.0510 H   0  0  0  0  0  0  0  0  0  0  0  0
   37.3340   25.8280   40.3020 C   0  0  0  0  0  0  0  0  0  0  0  0
   37.9360   25.7450   39.4160 H   0  0  0  0  0  0  0  0  0  0  0  0
   36.3390   25.4460   39.6540 O   0  0  0  0  0  0  0  0  0  0  0  0
  1  7  1  1  0  0  0
  1  2  1  0  0  0  0
  2  8  1  0  0  0  0
  2  9  1  0  0  0  0
  3  2  1  0  0  0  0
  3 10  1  0  0  0  0
  4  3  1  0  0  0  0
  4 12  1  0  0  0  0
  5  4  1  0  0  0  0
  6  5  2  0  0  0  0
  6  1  1  0  0  0  0
 11  3  1  0  0  0  0
 13  4  1  0  0  0  0
 14  5  1  0  0  0  0
 15 20  1  0  0  0  0
 16 15  2  0  0  0  0
 16 17  1  0  0  0  0
 17 18  2  0  0  0  0
 18 19  1  0  0  0  0
 19  1  1  0  0  0  0
 20 19  2  0  0  0  0
 21 15  1  0  0  0  0
 22 16  1  0  0  0  0
 23 17  1  0  0  0  0
 24  6  1  0  0  0  0
 25 24  1  0  0  0  0
 26 24  2  0  0  0  0
M  END
>  <minimizedAffinity>
-4.28464556

$$$$

 OpenBabel03252505013D

 26 27  0  0  1  0  0  0  0  0999 V2000
   37.3250   29.8730   42.0840 C   0  0  2  0  0  0  0  0  0  0  0  0
   38.5350   29.6610   42.9300 C   0  0  0  0  0  0  0  0  0  0  0  0
   39.1340   28.3010   42.8390 C   0  0  0  0  0  0  0  0  0  0  0  0
   38.0170   27.3400   43.2150 C   0  0  0  0  0  0  0  0  0  0  0  0
   36.9490   27.3280   42.2040 C   0  0  0  0  0  0  0  0  0  0  0  0
   36.6250   28.6700   41.6350 C   0  0  0  0  0  0  0  0  0  0  0  0
   36.5900   30.5100   42.6530 H   0  0  0  0  0  0  0  0  0  0  0  0
   39.3200   30.4260   42.7360 H   0  0  0  0  0  0  0  0  0  0  0  0
   38.2440   29.8120   43.9990 H   0  0  0  0  0  0  0  0  0  0  0  0
   39.8910   28.1840   43.6340 H   0  0  0  0  0  0  0  0  0  0  0  0
   39.5810   28.0500   41.8720 H   0  0  0  0  0  0  0  0  0  0  0  0
   37.7000   27.5300   44.2390 H   0  0  0  0  0  0  0  0  0  0  0  0
   38.4900   26.3330   43.1690 H   0  0  0  0  0  0  0  0  0  0  0  0
   36.4450   26.4580   41.8830 H   0  0  0  0  0  0  0  0  0  0  0  0
   39.1670   31.0640   39.1100 C   0  0  0  0  0  0  0  0  0  0  0  0
   38.5020   32.2780   38.8050 C   0  0  0  0  0  0  0  0  0  0  0  0
   37.4320   32.6620   39.6370 C   0  0  0  0  0  0  0  0  0  0  0  0
   37.0950   31.8530   40.6800 N   0  0  0  0  0  0  0  0  0  0  0  0
   37.7480   30.7090   40.9390 C   0  0  0  0  0  0  0  0  0  0  0  0
   38.7830   30.3120   40.1570 N   0  0  0  0  0  0  0  0  0  0  0  0
   39.9910   30.7000   38.5280 H   0  0  0  0  0  0  0  0  0  0  0  0
   38.8390   32.8570   37.9550 H   0  0  0  0  0  0  0  0  0  0  0  0
   36.9260   33.5860   39.4040 H   0  0  0  0  0  0  0  0  0  0  0  0
   35.5940   28.5380   40.6670 C   0  0  0  0  0  0  0  0  0  0  0  0
   35.3130   27.6630   40.1110 H   0  0  0  0  0  0  0  0  0  0  0  0
   34.6970   29.1850   40.0900 O   0  0  0  0  0  0  0  0  0  0  0  0
  1  7  1  1  0  0  0
  1  2  1  0  0  0  0
  2  9  1  0  0  0  0
  3  2  1  0  0  0  0
  3  4  1  0  0  0  0
  3 10  1  0  0  0  0
  4 12  1  0  0  0  0
  5  4  1  0  0  0  0
  6  1  1  0  0  0  0
  6  5  2  0  0  0  0
  8  2  1  0  0  0  0
 11  3  1  0  0  0  0
 13  4  1  0  0  0  0
 14  5  1  0  0  0  0
 15 20  1  0  0  0  0
 16 15  2  0  0  0  0
 16 17  1  0  0  0  0
 17 18  2  0  0  0  0
 18 19  1  0  0  0  0
 19  1  1  0  0  0  0
 20 19  2  0  0  0  0
 21 15  1  0  0  0  0
 22 16  1  0  0  0  0
 23 17  1  0  0  0  0
 24  6  1  0  0  0  0
 25 24  1  0  0  0  0
 26 24  2  0  0  0  0
M  END
>  <minimizedAffinity>
-4.24305868

$$$$

 OpenBabel03252505013D

 26 27  0  0  1  0  0  0  0  0999 V2000
   37.1140   27.4550   42.4550 C   0  0  2  0  0  0  0  0  0  0  0  0
   38.0500   28.2800   43.2730 C   0  0  0  0  0  0  0  0  0  0  0  0
   39.4750   27.8480   43.2230 C   0  0  0  0  0  0  0  0  0  0  0  0
   39.4740   26.3960   43.6730 C   0  0  0  0  0  0  0  0  0  0  0  0
   38.8030   25.5260   42.6950 C   0  0  0  0  0  0  0  0  0  0  0  0
   37.5800   26.1210   42.0780 C   0  0  0  0  0  0  0  0  0  0  0  0
   36.1450   27.3380   43.0170 H   0  0  0  0  0  0  0  0  0  0  0  0
   37.9800   29.3620   43.0230 H   0  0  0  0  0  0  0  0  0  0  0  0
   37.7310   28.2100   44.3420 H   0  0  0  0  0  0  0  0  0  0  0  0
   40.0440   28.3880   43.9990 H   0  0  0  0  0  0  0  0  0  0  0  0
   39.9680   27.9770   42.2540 H   0  0  0  0  0  0  0  0  0  0  0  0
   39.1100   26.3300   44.6960 H   0  0  0  0  0  0  0  0  0  0  0  0
   40.5470   26.1000   43.6560 H   0  0  0  0  0  0  0  0  0  0  0  0
   39.1420   24.5630   42.4260 H   0  0  0  0  0  0  0  0  0  0  0  0
   37.4250   29.3270   39.2840 C   0  0  0  0  0  0  0  0  0  0  0  0
   36.0930   29.7470   39.0450 C   0  0  0  0  0  0  0  0  0  0  0  0
   35.1140   29.3770   39.9890 C   0  0  0  0  0  0  0  0  0  0  0  0
   35.4960   28.6410   41.0690 N   0  0  0  0  0  0  0  0  0  0  0  0
   36.7690   28.2600   41.2630 C   0  0  0  0  0  0  0  0  0  0  0  0
   37.7350   28.6020   40.3730 N   0  0  0  0  0  0  0  0  0  0  0  0
   38.2300   29.5670   38.6160 H   0  0  0  0  0  0  0  0  0  0  0  0
   35.8820   30.3310   38.1580 H   0  0  0  0  0  0  0  0  0  0  0  0
   34.1000   29.6970   39.8070 H   0  0  0  0  0  0  0  0  0  0  0  0
   37.0240   25.2030   41.1480 C   0  0  0  0  0  0  0  0  0  0  0  0
   36.9680   25.2920   40.0790 H   0  0  0  0  0  0  0  0  0  0  0  0
   36.4550   24.0960   41.0790 O   0  0  0  0  0  0  0  0  0  0  0  0
  1  7  1  1  0  0  0
  1  2  1  0  0  0  0
  2  9  1  0  0  0  0
  3  2  1  0  0  0  0
  3  4  1  0  0  0  0
  3 10  1  0  0  0  0
  4 12  1  0  0  0  0
  5  4  1  0  0  0  0
  6  1  1  0  0  0  0
  6  5  2  0  0  0  0
  8  2  1  0  0  0  0
 11  3  1  0  0  0  0
 13  4  1  0  0  0  0
 14  5  1  0  0  0  0
 15 20  1  0  0  0  0
 16 15  2  0  0  0  0
 16 17  1  0  0  0  0
 17 18  2  0  0  0  0
 18 19  1  0  0  0  0
 19  1  1  0  0  0  0
 20 19  2  0  0  0  0
 21 15  1  0  0  0  0
 22 16  1  0  0  0  0
 23 17  1  0  0  0  0
 24  6  1  0  0  0  0
 25 24  1  0  0  0  0
 26 24  2  0  0  0  0
M  END
>  <minimizedAffinity>
-4.20829201

$$$$

 OpenBabel03252505013D

 26 27  0  0  1  0  0  0  0  0999 V2000
   36.1070   29.7850   40.1910 C   0  0  2  0  0  0  0  0  0  0  0  0
   34.7780   29.1870   39.8700 C   0  0  0  0  0  0  0  0  0  0  0  0
   34.7300   28.4070   38.6020 C   0  0  0  0  0  0  0  0  0  0  0  0
   35.1830   29.3710   37.5170 C   0  0  0  0  0  0  0  0  0  0  0  0
   36.6030   29.7240   37.6650 C   0  0  0  0  0  0  0  0  0  0  0  0
   37.0440   29.9240   39.0780 C   0  0  0  0  0  0  0  0  0  0  0  0
   35.9480   30.8060   40.6410 H   0  0  0  0  0  0  0  0  0  0  0  0
   34.3880   28.5630   40.7050 H   0  0  0  0  0  0  0  0  0  0  0  0
   34.0390   30.0190   39.7640 H   0  0  0  0  0  0  0  0  0  0  0  0
   33.6780   28.1760   38.3580 H   0  0  0  0  0  0  0  0  0  0  0  0
   35.3160   27.4830   38.5990 H   0  0  0  0  0  0  0  0  0  0  0  0
   34.4890   30.2070   37.4570 H   0  0  0  0  0  0  0  0  0  0  0  0
   35.1140   28.7810   36.5750 H   0  0  0  0  0  0  0  0  0  0  0  0
   37.2770   29.8260   36.8590 H   0  0  0  0  0  0  0  0  0  0  0  0
   37.7580   28.8490   43.3620 C   0  0  0  0  0  0  0  0  0  0  0  0
   37.7410   27.4330   43.3090 C   0  0  0  0  0  0  0  0  0  0  0  0
   37.1610   26.8300   42.1750 C   0  0  0  0  0  0  0  0  0  0  0  0
   36.6520   27.6330   41.1990 N   0  0  0  0  0  0  0  0  0  0  0  0
   36.6860   28.9720   41.2830 C   0  0  0  0  0  0  0  0  0  0  0  0
   37.2380   29.5830   42.3620 N   0  0  0  0  0  0  0  0  0  0  0  0
   38.1810   29.3870   44.1880 H   0  0  0  0  0  0  0  0  0  0  0  0
   38.1700   26.8750   44.1320 H   0  0  0  0  0  0  0  0  0  0  0  0
   37.1480   25.7520   42.1350 H   0  0  0  0  0  0  0  0  0  0  0  0
   38.4270   30.2490   39.1010 C   0  0  0  0  0  0  0  0  0  0  0  0
   39.2450   29.7070   38.6640 H   0  0  0  0  0  0  0  0  0  0  0  0
   39.2290   31.1060   39.5230 O   0  0  0  0  0  0  0  0  0  0  0  0
  1  7  1  1  0  0  0
  1 19  1  0  0  0  0
  2  1  1  0  0  0  0
  2  8  1  0  0  0  0
  3  2  1  0  0  0  0
  4  5  1  0  0  0  0
  4  3  1  0  0  0  0
  5  6  2  0  0  0  0
  6 24  1  0  0  0  0
  6  1  1  0  0  0  0
  9  2  1  0  0  0  0
 10  3  1  0  0  0  0
 11  3  1  0  0  0  0
 12  4  1  0  0  0  0
 13  4  1  0  0  0  0
 14  5  1  0  0  0  0
 15 21  1  0  0  0  0
 16 15  1  0  0  0  0
 16 22  1  0  0  0  0
 17 16  2  0  0  0  0
 18 19  2  0  0  0  0
 18 17  1  0  0  0  0
 19 20  1  0  0  0  0
 20 15  2  0  0  0  0
 23 17  1  0  0  0  0
 24 26  2  0  0  0  0
 25 24  1  0  0  0  0
M  END
>  <minimizedAffinity>
-4.12958241

$$$$

 OpenBabel03252505013D

 26 27  0  0  1  0  0  0  0  0999 V2000
   37.4700   28.1240   40.8290 C   0  0  2  0  0  0  0  0  0  0  0  0
   37.1030   26.9160   41.6220 C   0  0  0  0  0  0  0  0  0  0  0  0
   36.6850   27.1890   43.0250 C   0  0  0  0  0  0  0  0  0  0  0  0
   37.8480   27.9380   43.6570 C   0  0  0  0  0  0  0  0  0  0  0  0
   38.0140   29.2750   43.0670 C   0  0  0  0  0  0  0  0  0  0  0  0
   37.8010   29.3280   41.5900 C   0  0  0  0  0  0  0  0  0  0  0  0
   38.3510   27.8760   40.1720 H   0  0  0  0  0  0  0  0  0  0  0  0
   36.3260   26.3020   41.1150 H   0  0  0  0  0  0  0  0  0  0  0  0
   38.0010   26.2520   41.6790 H   0  0  0  0  0  0  0  0  0  0  0  0
   36.6260   26.2350   43.5780 H   0  0  0  0  0  0  0  0  0  0  0  0
   35.7410   27.7320   43.1340 H   0  0  0  0  0  0  0  0  0  0  0  0
   38.7330   27.3050   43.6580 H   0  0  0  0  0  0  0  0  0  0  0  0
   37.5290   28.1080   44.7100 H   0  0  0  0  0  0  0  0  0  0  0  0
   38.2550   30.1410   43.6200 H   0  0  0  0  0  0  0  0  0  0  0  0
   35.4710   28.2710   37.7240 C   0  0  0  0  0  0  0  0  0  0  0  0
   34.2470   28.8280   38.1740 C   0  0  0  0  0  0  0  0  0  0  0  0
   34.1400   29.1450   39.5430 C   0  0  0  0  0  0  0  0  0  0  0  0
   35.2070   28.9000   40.3530 N   0  0  0  0  0  0  0  0  0  0  0  0
   36.3520   28.3710   39.8920 C   0  0  0  0  0  0  0  0  0  0  0  0
   36.4860   28.0560   38.5790 N   0  0  0  0  0  0  0  0  0  0  0  0
   35.6360   28.0030   36.6980 H   0  0  0  0  0  0  0  0  0  0  0  0
   33.4520   28.9870   37.4560 H   0  0  0  0  0  0  0  0  0  0  0  0
   33.2090   29.5680   39.8850 H   0  0  0  0  0  0  0  0  0  0  0  0
   37.9760   30.6610   41.1340 C   0  0  0  0  0  0  0  0  0  0  0  0
   38.8950   31.1960   40.9790 H   0  0  0  0  0  0  0  0  0  0  0  0
   37.3360   31.6670   40.7640 O   0  0  0  0  0  0  0  0  0  0  0  0
  1  7  1  6  0  0  0
  1  6  1  0  0  0  0
  1  2  1  0  0  0  0
  2  9  1  0  0  0  0
  2  3  1  0  0  0  0
  3 11  1  0  0  0  0
  3 10  1  0  0  0  0
  3  4  1  0  0  0  0
  4 12  1  0  0  0  0
  4 13  1  0  0  0  0
  5 14  1  0  0  0  0
  5  4  1  0  0  0  0
  6  5  2  0  0  0  0
  8  2  1  0  0  0  0
 15 16  2  0  0  0  0
 15 20  1  0  0  0  0
 16 17  1  0  0  0  0
 17 23  1  0  0  0  0
 17 18  2  0  0  0  0
 19 18  1  0  0  0  0
 19  1  1  0  0  0  0
 20 19  2  0  0  0  0
 21 15  1  0  0  0  0
 22 16  1  0  0  0  0
 24  6  1  0  0  0  0
 25 24  1  0  0  0  0
 26 24  2  0  0  0  0
M  END
>  <minimizedAffinity>
-4.0763483

$$$$

 OpenBabel03252505013D

 26 27  0  0  1  0  0  0  0  0999 V2000
   36.9970   30.4680   41.2580 C   0  0  2  0  0  0  0  0  0  0  0  0
   35.9920   30.4480   40.1560 C   0  0  0  0  0  0  0  0  0  0  0  0
   36.5600   30.5780   38.7850 C   0  0  0  0  0  0  0  0  0  0  0  0
   37.3500   31.8780   38.7960 C   0  0  0  0  0  0  0  0  0  0  0  0
   38.5320   31.7870   39.6660 C   0  0  0  0  0  0  0  0  0  0  0  0
   38.3050   31.0360   40.9360 C   0  0  0  0  0  0  0  0  0  0  0  0
   36.5720   31.0450   42.1280 H   0  0  0  0  0  0  0  0  0  0  0  0
   35.3370   29.5500   40.2030 H   0  0  0  0  0  0  0  0  0  0  0  0
   35.3010   31.3150   40.2990 H   0  0  0  0  0  0  0  0  0  0  0  0
   35.7400   30.7490   38.0670 H   0  0  0  0  0  0  0  0  0  0  0  0
   37.1690   29.7330   38.4490 H   0  0  0  0  0  0  0  0  0  0  0  0
   36.6790   32.7120   38.9920 H   0  0  0  0  0  0  0  0  0  0  0  0
   37.7430   31.9720   37.7580 H   0  0  0  0  0  0  0  0  0  0  0  0
   39.4750   32.1990   39.4310 H   0  0  0  0  0  0  0  0  0  0  0  0
   37.3560   27.5710   43.5240 C   0  0  0  0  0  0  0  0  0  0  0  0
   37.3290   26.4750   42.6250 C   0  0  0  0  0  0  0  0  0  0  0  0
   37.1900   26.7610   41.2520 C   0  0  0  0  0  0  0  0  0  0  0  0
   37.0890   28.0630   40.8650 N   0  0  0  0  0  0  0  0  0  0  0  0
   37.1190   29.0770   41.7460 C   0  0  0  0  0  0  0  0  0  0  0  0
   37.2530   28.8340   43.0740 N   0  0  0  0  0  0  0  0  0  0  0  0
   37.4600   27.4410   44.5830 H   0  0  0  0  0  0  0  0  0  0  0  0
   37.4160   25.4720   43.0240 H   0  0  0  0  0  0  0  0  0  0  0  0
   37.1690   25.9270   40.5690 H   0  0  0  0  0  0  0  0  0  0  0  0
   39.5100   31.0020   41.6880 C   0  0  0  0  0  0  0  0  0  0  0  0
   40.5070   30.8110   41.3380 H   0  0  0  0  0  0  0  0  0  0  0  0
   39.9510   31.1380   42.8470 O   0  0  0  0  0  0  0  0  0  0  0  0
  1 19  1  0  0  0  0
  1  7  1  1  0  0  0
  2  8  1  0  0  0  0
  2  9  1  0  0  0  0
  2  1  1  0  0  0  0
  3  4  1  0  0  0  0
  3  2  1  0  0  0  0
  4 12  1  0  0  0  0
  4  5  1  0  0  0  0
  5  6  2  0  0  0  0
  6  1  1  0  0  0  0
  6 24  1  0  0  0  0
 10  3  1  0  0  0  0
 11  3  1  0  0  0  0
 13  4  1  0  0  0  0
 14  5  1  0  0  0  0
 15 21  1  0  0  0  0
 16 22  1  0  0  0  0
 16 15  2  0  0  0  0
 17 16  1  0  0  0  0
 18 17  2  0  0  0  0
 18 19  1  0  0  0  0
 19 20  2  0  0  0  0
 20 15  1  0  0  0  0
 23 17  1  0  0  0  0
 24 26  2  0  0  0  0
 25 24  1  0  0  0  0
M  END
>  <minimizedAffinity>
-4.0733757

$$$$

 OpenBabel03252505013D

 26 27  0  0  1  0  0  0  0  0999 V2000
   36.3610   28.2180   41.5250 C   0  0  2  0  0  0  0  0  0  0  0  0
   36.8080   27.8340   42.8950 C   0  0  0  0  0  0  0  0  0  0  0  0
   37.8260   26.7470   42.9420 C   0  0  0  0  0  0  0  0  0  0  0  0
   37.1970   25.5710   42.2110 C   0  0  0  0  0  0  0  0  0  0  0  0
   37.0370   25.8500   40.7750 C   0  0  0  0  0  0  0  0  0  0  0  0
   36.6070   27.2450   40.4630 C   0  0  0  0  0  0  0  0  0  0  0  0
   35.2560   28.4340   41.5500 H   0  0  0  0  0  0  0  0  0  0  0  0
   37.1720   28.7090   43.4780 H   0  0  0  0  0  0  0  0  0  0  0  0
   35.9170   27.4630   43.4600 H   0  0  0  0  0  0  0  0  0  0  0  0
   37.9440   26.4050   43.9850 H   0  0  0  0  0  0  0  0  0  0  0  0
   38.8070   27.0080   42.5310 H   0  0  0  0  0  0  0  0  0  0  0  0
   36.2990   25.2520   42.7360 H   0  0  0  0  0  0  0  0  0  0  0  0
   37.9590   24.7620   42.2790 H   0  0  0  0  0  0  0  0  0  0  0  0
   37.2140   25.1440   40.0100 H   0  0  0  0  0  0  0  0  0  0  0  0
   36.8080   31.7550   40.5510 C   0  0  0  0  0  0  0  0  0  0  0  0
   38.2080   31.9320   40.6770 C   0  0  0  0  0  0  0  0  0  0  0  0
   38.9710   30.8230   41.0930 C   0  0  0  0  0  0  0  0  0  0  0  0
   38.3270   29.6500   41.3510 N   0  0  0  0  0  0  0  0  0  0  0  0
   36.9970   29.5190   41.2210 C   0  0  0  0  0  0  0  0  0  0  0  0
   36.2360   30.5690   40.8210 N   0  0  0  0  0  0  0  0  0  0  0  0
   36.1560   32.5480   40.2390 H   0  0  0  0  0  0  0  0  0  0  0  0
   38.6330   32.9020   40.4500 H   0  0  0  0  0  0  0  0  0  0  0  0
   40.0360   30.9580   41.1890 H   0  0  0  0  0  0  0  0  0  0  0  0
   36.4950   27.4020   39.0550 C   0  0  0  0  0  0  0  0  0  0  0  0
   37.0680   26.9200   38.2850 H   0  0  0  0  0  0  0  0  0  0  0  0
   35.8500   28.0150   38.1820 O   0  0  0  0  0  0  0  0  0  0  0  0
  1  7  1  1  0  0  0
  1  2  1  0  0  0  0
  2  3  1  0  0  0  0
  2  9  1  0  0  0  0
  2  8  1  0  0  0  0
  3 10  1  0  0  0  0
  4 13  1  0  0  0  0
  4 12  1  0  0  0  0
  4  3  1  0  0  0  0
  5  4  1  0  0  0  0
  6  5  2  0  0  0  0
  6  1  1  0  0  0  0
 11  3  1  0  0  0  0
 14  5  1  0  0  0  0
 15 16  2  0  0  0  0
 15 20  1  0  0  0  0
 16 17  1  0  0  0  0
 17 23  1  0  0  0  0
 17 18  2  0  0  0  0
 19 18  1  0  0  0  0
 19  1  1  0  0  0  0
 20 19  2  0  0  0  0
 21 15  1  0  0  0  0
 22 16  1  0  0  0  0
 24  6  1  0  0  0  0
 25 24  1  0  0  0  0
 26 24  2  0  0  0  0
M  END
>  <minimizedAffinity>
-4.06650734

$$$$

 OpenBabel03252505013D

 26 27  0  0  1  0  0  0  0  0999 V2000
   36.1620   29.0340   40.5100 C   0  0  2  0  0  0  0  0  0  0  0  0
   35.9540   27.9460   39.5110 C   0  0  0  0  0  0  0  0  0  0  0  0
   36.6350   28.1570   38.2030 C   0  0  0  0  0  0  0  0  0  0  0  0
   36.1190   29.4910   37.6880 C   0  0  0  0  0  0  0  0  0  0  0  0
   36.5890   30.6100   38.5190 C   0  0  0  0  0  0  0  0  0  0  0  0
   36.6020   30.3250   39.9840 C   0  0  0  0  0  0  0  0  0  0  0  0
   35.2010   29.1980   41.0750 H   0  0  0  0  0  0  0  0  0  0  0  0
   36.2300   26.9470   39.9170 H   0  0  0  0  0  0  0  0  0  0  0  0
   34.8590   27.8760   39.2950 H   0  0  0  0  0  0  0  0  0  0  0  0
   36.2660   27.4090   37.4780 H   0  0  0  0  0  0  0  0  0  0  0  0
   37.7280   28.1250   38.2340 H   0  0  0  0  0  0  0  0  0  0  0  0
   35.0430   29.4330   37.5330 H   0  0  0  0  0  0  0  0  0  0  0  0
   36.6150   29.6180   36.6990 H   0  0  0  0  0  0  0  0  0  0  0  0
   36.9040   31.5420   38.1360 H   0  0  0  0  0  0  0  0  0  0  0  0
   37.5350   27.7210   43.6800 C   0  0  0  0  0  0  0  0  0  0  0  0
   38.9020   27.5230   43.3620 C   0  0  0  0  0  0  0  0  0  0  0  0
   39.3220   27.8520   42.0580 C   0  0  0  0  0  0  0  0  0  0  0  0
   38.4010   28.3360   41.1790 N   0  0  0  0  0  0  0  0  0  0  0  0
   37.1130   28.5110   41.5150 C   0  0  0  0  0  0  0  0  0  0  0  0
   36.6770   28.2040   42.7640 N   0  0  0  0  0  0  0  0  0  0  0  0
   37.1340   27.4970   44.6490 H   0  0  0  0  0  0  0  0  0  0  0  0
   39.5630   27.1330   44.1250 H   0  0  0  0  0  0  0  0  0  0  0  0
   40.3630   27.7010   41.8170 H   0  0  0  0  0  0  0  0  0  0  0  0
   37.0810   31.4660   40.6840 C   0  0  0  0  0  0  0  0  0  0  0  0
   37.1580   31.6110   41.7450 H   0  0  0  0  0  0  0  0  0  0  0  0
   37.5450   32.6090   40.5000 O   0  0  0  0  0  0  0  0  0  0  0  0
  1  7  1  1  0  0  0
  1 19  1  0  0  0  0
  2  8  1  0  0  0  0
  2  1  1  0  0  0  0
  3 11  1  0  0  0  0
  3  2  1  0  0  0  0
  4  3  1  0  0  0  0
  4  5  1  0  0  0  0
  5  6  2  0  0  0  0
  6  1  1  0  0  0  0
  6 24  1  0  0  0  0
  9  2  1  0  0  0  0
 10  3  1  0  0  0  0
 12  4  1  0  0  0  0
 13  4  1  0  0  0  0
 14  5  1  0  0  0  0
 15 21  1  0  0  0  0
 16 15  1  0  0  0  0
 16 22  1  0  0  0  0
 17 16  2  0  0  0  0
 18 19  2  0  0  0  0
 18 17  1  0  0  0  0
 19 20  1  0  0  0  0
 20 15  2  0  0  0  0
 23 17  1  0  0  0  0
 24 25  1  0  0  0  0
 26 24  2  0  0  0  0
M  END
>  <minimizedAffinity>
-3.94983339

$$$$

 OpenBabel03252505013D

 26 27  0  0  1  0  0  0  0  0999 V2000
   36.5220   30.4180   41.1220 C   0  0  2  0  0  0  0  0  0  0  0  0
   37.4170   31.5440   40.7310 C   0  0  0  0  0  0  0  0  0  0  0  0
   38.8730   31.2310   40.7670 C   0  0  0  0  0  0  0  0  0  0  0  0
   39.1520   30.7660   42.1880 C   0  0  0  0  0  0  0  0  0  0  0  0
   38.5010   29.4780   42.4730 C   0  0  0  0  0  0  0  0  0  0  0  0
   37.1330   29.3360   41.8920 C   0  0  0  0  0  0  0  0  0  0  0  0
   35.6610   30.8290   41.7230 H   0  0  0  0  0  0  0  0  0  0  0  0
   37.1530   31.9630   39.7340 H   0  0  0  0  0  0  0  0  0  0  0  0
   37.2530   32.3860   41.4480 H   0  0  0  0  0  0  0  0  0  0  0  0
   39.4490   32.1660   40.6550 H   0  0  0  0  0  0  0  0  0  0  0  0
   39.2130   30.5030   40.0240 H   0  0  0  0  0  0  0  0  0  0  0  0
   38.9350   31.5720   42.8860 H   0  0  0  0  0  0  0  0  0  0  0  0
   40.2460   30.5630   42.2040 H   0  0  0  0  0  0  0  0  0  0  0  0
   38.9450   28.6990   43.0310 H   0  0  0  0  0  0  0  0  0  0  0  0
   36.0440   29.5120   37.5710 C   0  0  0  0  0  0  0  0  0  0  0  0
   34.7460   28.9420   37.5730 C   0  0  0  0  0  0  0  0  0  0  0  0
   34.0610   28.8870   38.8030 C   0  0  0  0  0  0  0  0  0  0  0  0
   34.6760   29.3770   39.9140 N   0  0  0  0  0  0  0  0  0  0  0  0
   35.9080   29.9100   39.8750 C   0  0  0  0  0  0  0  0  0  0  0  0
   36.5940   29.9790   38.7060 N   0  0  0  0  0  0  0  0  0  0  0  0
   36.6330   29.5940   36.6780 H   0  0  0  0  0  0  0  0  0  0  0  0
   34.3360   28.5780   36.6390 H   0  0  0  0  0  0  0  0  0  0  0  0
   33.0730   28.4530   38.8030 H   0  0  0  0  0  0  0  0  0  0  0  0
   36.6090   28.0570   42.2200 C   0  0  0  0  0  0  0  0  0  0  0  0
   36.1160   27.3550   41.5740 H   0  0  0  0  0  0  0  0  0  0  0  0
   36.4720   27.2650   43.1740 O   0  0  0  0  0  0  0  0  0  0  0  0
  1  7  1  1  0  0  0
  1  6  1  0  0  0  0
  2  3  1  0  0  0  0
  2  1  1  0  0  0  0
  2  9  1  0  0  0  0
  3  4  1  0  0  0  0
  4 13  1  0  0  0  0
  4  5  1  0  0  0  0
  4 12  1  0  0  0  0
  5 14  1  0  0  0  0
  6 24  1  0  0  0  0
  6  5  2  0  0  0  0
  8  2  1  0  0  0  0
 10  3  1  0  0  0  0
 11  3  1  0  0  0  0
 15 16  2  0  0  0  0
 15 20  1  0  0  0  0
 16 17  1  0  0  0  0
 17 23  1  0  0  0  0
 17 18  2  0  0  0  0
 19 18  1  0  0  0  0
 19  1  1  0  0  0  0
 20 19  2  0  0  0  0
 21 15  1  0  0  0  0
 22 16  1  0  0  0  0
 24 26  2  0  0  0  0
 25 24  1  0  0  0  0
M  END
>  <minimizedAffinity>
-3.91541576

$$$$
