
 OpenBabel03252508413D

 22 23  0  0  0  0  0  0  0  0999 V2000
   46.3060   34.2950   41.3520 C   0  0  0  0  0  0  0  0  0  0  0  0
   47.5720   34.6960   41.0400 C   0  0  0  0  0  0  0  0  0  0  0  0
   48.1280   34.3980   39.8150 C   0  0  0  0  0  0  0  0  0  0  0  0
   47.3740   33.6820   38.9060 C   0  0  0  0  0  0  0  0  0  0  0  0
   46.0880   33.2470   39.1610 C   0  0  0  0  0  0  0  0  0  0  0  0
   45.6010   33.5890   40.4200 C   0  0  0  0  0  0  0  0  0  0  0  0
   49.1200   34.7060   39.5550 H   0  0  0  0  0  0  0  0  0  0  0  0
   47.7900   33.4370   37.9410 H   0  0  0  0  0  0  0  0  0  0  0  0
   45.4910   32.6850   38.4540 H   0  0  0  0  0  0  0  0  0  0  0  0
   44.5920   33.2930   40.7240 H   0  0  0  0  0  0  0  0  0  0  0  0
   44.6670   36.0890   44.2430 C   0  0  0  0  0  0  0  0  0  0  0  0
   45.1300   35.8530   42.9300 C   0  0  0  0  0  0  0  0  0  0  0  0
   45.7860   34.6460   42.6660 C   0  0  0  0  0  0  0  0  0  0  0  0
   45.9440   33.7630   43.6820 N   0  0  0  0  0  0  0  0  0  0  0  0
   45.4950   34.0010   44.9390 C   0  0  0  0  0  0  0  0  0  0  0  0
   44.8520   35.1740   45.2150 N   0  0  0  0  0  0  0  0  0  0  0  0
   44.1770   37.0360   44.3590 H   0  0  0  0  0  0  0  0  0  0  0  0
   45.0030   36.5590   42.1210 H   0  0  0  0  0  0  0  0  0  0  0  0
   45.6400   33.2710   45.7260 H   0  0  0  0  0  0  0  0  0  0  0  0
   48.3640   35.4510   42.0000 C   0  0  0  0  0  0  0  0  0  0  0  0
   48.2290   35.3340   43.0670 H   0  0  0  0  0  0  0  0  0  0  0  0
   49.2430   36.2720   41.6190 O   0  0  0  0  0  0  0  0  0  0  0  0
  1 13  1  0  0  0  0
  2  1  1  0  0  0  0
  2 20  1  0  0  0  0
  3  2  2  0  0  0  0
  4  5  2  0  0  0  0
  4  3  1  0  0  0  0
  5  6  1  0  0  0  0
  6 10  1  0  0  0  0
  6  1  2  0  0  0  0
  7  3  1  0  0  0  0
  8  4  1  0  0  0  0
  9  5  1  0  0  0  0
 11 17  1  0  0  0  0
 11 16  1  0  0  0  0
 12 11  2  0  0  0  0
 13 12  1  0  0  0  0
 13 14  2  0  0  0  0
 14 15  1  0  0  0  0
 15 16  2  0  0  0  0
 15 19  1  0  0  0  0
 18 12  1  0  0  0  0
 20 21  1  0  0  0  0
 22 20  2  0  0  0  0
M  END
>  <minimizedAffinity>
-4.77816677

>  <minimizedRMSD>
1.01392269

$$$$
