
 OpenBabel03252509003D

 44 46  0  0  1  0  0  0  0  0999 V2000
   46.7240   34.5090   43.5050 N   0  0  0  0  0  0  0  0  0  0  0  0
   46.2430   35.5810   42.7110 C   0  0  0  0  0  0  0  0  0  0  0  0
   44.7450   35.7770   42.7220 C   0  0  0  0  0  0  0  0  0  0  0  0
   44.0900   35.4270   44.0320 C   0  0  0  0  0  0  0  0  0  0  0  0
   45.0970   35.0320   45.0810 C   0  0  0  0  0  0  0  0  0  0  0  0
   45.8900   33.8580   44.4000 C   0  0  2  0  0  0  0  0  0  0  0  0
   46.5610   35.5850   41.6640 H   0  0  0  0  0  0  0  0  0  0  0  0
   46.6740   36.5240   43.1430 H   0  0  0  0  0  0  0  0  0  0  0  0
   44.5200   36.8560   42.5200 H   0  0  0  0  0  0  0  0  0  0  0  0
   44.3320   35.2230   41.8590 H   0  0  0  0  0  0  0  0  0  0  0  0
   43.4510   34.5320   43.8680 H   0  0  0  0  0  0  0  0  0  0  0  0
   43.4800   36.2480   44.4570 H   0  0  0  0  0  0  0  0  0  0  0  0
   45.7960   35.8280   45.3560 H   0  0  0  0  0  0  0  0  0  0  0  0
   44.5730   34.5670   45.9330 H   0  0  0  0  0  0  0  0  0  0  0  0
   45.1230   33.1610   44.0000 H   0  0  0  0  0  0  0  0  0  0  0  0
   47.8090   33.7830   42.9150 C   0  0  0  0  0  0  0  0  0  0  0  0
   48.4190   33.2710   43.6920 H   0  0  0  0  0  0  0  0  0  0  0  0
   48.4700   34.4790   42.3950 H   0  0  0  0  0  0  0  0  0  0  0  0
   47.2470   32.7300   42.0080 C   0  0  0  0  0  0  0  0  0  0  0  0
   46.1350   32.8060   41.9480 H   0  0  0  0  0  0  0  0  0  0  0  0
   47.4600   31.7180   42.3710 H   0  0  0  0  0  0  0  0  0  0  0  0
   49.1200   32.0730   38.8180 C   0  0  0  0  0  0  0  0  0  0  0  0
   48.5860   31.9210   40.1100 C   0  0  0  0  0  0  0  0  0  0  0  0
   47.8020   32.9110   40.6400 C   0  0  0  0  0  0  0  0  0  0  0  0
   47.5790   33.9950   39.8900 N   0  0  0  0  0  0  0  0  0  0  0  0
   48.0910   34.1400   38.6520 C   0  0  0  0  0  0  0  0  0  0  0  0
   48.8580   33.1950   38.1080 N   0  0  0  0  0  0  0  0  0  0  0  0
   49.7370   31.2710   38.4270 H   0  0  0  0  0  0  0  0  0  0  0  0
   48.7800   31.0320   40.7000 H   0  0  0  0  0  0  0  0  0  0  0  0
   47.8110   35.0670   38.2000 H   0  0  0  0  0  0  0  0  0  0  0  0
   46.5940   33.3370   45.4770 O   0  0  0  0  0  0  0  0  0  0  0  0
   45.5190   31.0960   44.5860 O   0  0  0  0  0  0  0  0  0  0  0  0
   46.2750   31.7090   45.7420 P   0  0  2  0  0  0  0  0  0  0  0  0
   45.2000   31.6470   47.0730 O   0  0  0  0  0  0  0  0  0  0  0  0
   44.2750   31.8660   46.7600 H   0  0  0  0  0  0  0  0  0  0  0  0
   47.6660   30.8900   46.1530 O   0  0  0  0  0  0  0  0  0  0  0  0
   47.5290   29.9190   47.0930 C   0  0  2  0  0  3  0  0  0  0  0  0
   48.9220   29.5920   47.6140 C   0  0  0  0  0  3  0  0  0  0  0  0
   49.1840   30.2210   48.4880 H   0  0  0  0  0  0  0  0  0  0  0  0
   48.7990   28.1260   47.9450 C   0  0  0  0  0  3  0  0  0  0  0  0
   49.6140   27.5470   47.4810 H   0  0  0  0  0  0  0  0  0  0  0  0
   47.5460   27.6930   47.5480 O   0  0  0  0  0  0  0  0  0  0  0  0
   47.1060   28.5760   46.5600 C   0  0  0  0  0  3  0  0  0  0  0  0
   47.5860   28.3860   45.5880 H   0  0  0  0  0  0  0  0  0  0  0  0
  1  6  1  0  0  0  0
  2  3  1  0  0  0  0
  2  8  1  0  0  0  0
  2  1  1  0  0  0  0
  3  4  1  0  0  0  0
  4 12  1  0  0  0  0
  4  5  1  0  0  0  0
  5 13  1  0  0  0  0
  5 14  1  0  0  0  0
  6 15  1  6  0  0  0
  6  5  1  0  0  0  0
  6 31  1  0  0  0  0
  7  2  1  0  0  0  0
  9  3  1  0  0  0  0
 10  3  1  0  0  0  0
 11  4  1  0  0  0  0
 16  1  1  0  0  0  0
 16 17  1  0  0  0  0
 18 16  1  0  0  0  0
 19 21  1  0  0  0  0
 19 16  1  0  0  0  0
 20 19  1  0  0  0  0
 22 23  1  0  0  0  0
 23 24  2  0  0  0  0
 23 29  1  0  0  0  0
 24 19  1  0  0  0  0
 25 24  1  0  0  0  0
 26 25  2  0  0  0  0
 27 26  1  0  0  0  0
 27 22  2  0  0  0  0
 28 22  1  0  0  0  0
 30 26  1  0  0  0  0
 31 33  1  0  0  0  0
 33 32  2  6  0  0  0
 33 36  1  0  0  0  0
 33 34  1  0  0  0  0
 35 34  1  0  0  0  0
 37 36  1  6  0  0  0
 37 38  1  0  0  0  0
 38 40  1  0  0  0  0
 38 39  1  0  0  0  0
 41 40  1  0  0  0  0
 42 40  1  0  0  0  0
 43 37  1  0  0  0  0
 43 42  1  0  0  0  0
 44 43  1  0  0  0  0
M  END
>  <minimizedAffinity>
-4.22530556

>  <minimizedRMSD>
1.07923162

$$$$
