
 OpenBabel03242523543D

 44 47  0  0  1  0  0  0  0  0999 V2000
   42.8210   34.5440   38.7320 C   0  0  1  0  0  0  0  0  0  0  0  0
   42.9630   35.1890   40.1050 C   0  0  1  0  0  0  0  0  0  0  0  0
   41.6760   35.4050   40.6280 O   0  0  0  0  0  0  0  0  0  0  0  0
   40.7500   35.7620   39.6460 C   0  0  0  0  0  0  0  0  0  0  0  0
   40.4400   34.6080   38.7130 C   0  0  2  0  0  0  0  0  0  0  0  0
   41.6520   33.6190   38.8230 C   0  0  1  0  0  0  0  0  0  0  0  0
   43.7640   34.0340   38.4470 H   0  0  0  0  0  0  0  0  0  0  0  0
   43.5560   36.1090   40.0910 H   0  0  0  0  0  0  0  0  0  0  0  0
   41.0390   36.6890   39.1240 H   0  0  0  0  0  0  0  0  0  0  0  0
   39.8210   35.9840   40.1860 H   0  0  0  0  0  0  0  0  0  0  0  0
   39.5220   34.0710   38.9980 H   0  0  0  0  0  0  0  0  0  0  0  0
   41.4450   33.3160   39.9010 H   0  0  0  0  0  0  0  0  0  0  0  0
   42.6050   35.5180   37.7450 O   0  0  0  0  0  0  0  0  0  0  0  0
   43.4960   35.9330   37.5980 H   0  0  0  0  0  0  0  0  0  0  0  0
   40.4540   35.0530   37.3990 O   0  0  0  0  0  0  0  0  0  0  0  0
   40.7640   34.4050   36.7450 H   0  0  0  0  0  0  0  0  0  0  0  0
   43.4980   34.1890   40.9290 O   0  0  0  0  0  0  0  0  0  0  0  0
   44.6040   34.3160   41.6730 C   0  0  0  0  0  0  0  0  0  0  0  0
   45.8690   34.4290   41.0790 C   0  0  0  0  0  0  0  0  0  0  0  0
   46.9730   34.5590   41.9080 C   0  0  0  0  0  0  0  0  0  0  0  0
   46.7980   34.5740   43.2790 N   0  0  0  0  0  0  0  0  0  0  0  0
   45.5610   34.4630   43.8150 C   0  0  0  0  0  0  0  0  0  0  0  0
   44.4680   34.3340   43.0200 N   0  0  0  0  0  0  0  0  0  0  0  0
   46.0040   34.4170   40.0060 H   0  0  0  0  0  0  0  0  0  0  0  0
   45.5050   34.4820   44.8910 H   0  0  0  0  0  0  0  0  0  0  0  0
   48.3580   34.6690   41.3420 C   0  0  0  0  0  0  0  0  0  0  0  0
   49.0620   36.0140   41.5180 C   0  0  0  0  0  0  0  0  0  0  0  0
   49.4980   34.7060   42.2030 C   0  0  0  0  0  0  0  0  0  0  0  0
   48.3950   34.2730   40.3090 H   0  0  0  0  0  0  0  0  0  0  0  0
   49.6490   36.3700   40.6740 H   0  0  0  0  0  0  0  0  0  0  0  0
   48.5370   36.7130   42.1840 H   0  0  0  0  0  0  0  0  0  0  0  0
   49.3640   34.6480   43.3140 H   0  0  0  0  0  0  0  0  0  0  0  0
   50.5000   34.3660   41.8830 H   0  0  0  0  0  0  0  0  0  0  0  0
   41.5190   32.7040   37.8460 O   0  0  0  0  0  0  0  0  0  0  0  0
   40.8100   31.5520   37.8440 C   0  0  0  0  0  0  0  0  0  0  0  0
   39.5270   31.5450   37.5710 O   0  0  0  0  0  0  0  0  0  0  0  0
   40.8990   30.0740   38.0520 C   0  0  2  0  0  3  0  0  0  0  0  0
   40.9330   29.4340   36.6590 C   0  0  0  0  0  3  0  0  0  0  0  0
   41.9290   29.4190   36.2140 H   0  0  0  0  0  0  0  0  0  0  0  0
   40.4430   28.0330   36.9900 C   0  0  0  0  0  3  0  0  0  0  0  0
   39.8960   27.5620   36.1490 H   0  0  0  0  0  0  0  0  0  0  0  0
   39.5650   28.1670   38.0520 O   0  0  0  0  0  0  0  0  0  0  0  0
   39.7260   29.4060   38.6390 C   0  0  0  0  0  3  0  0  0  0  0  0
   39.7610   29.3050   39.7440 H   0  0  0  0  0  0  0  0  0  0  0  0
  1  7  1  6  0  0  0
  1  6  1  0  0  0  0
  1  2  1  0  0  0  0
  2  8  1  6  0  0  0
  2  3  1  0  0  0  0
  2 17  1  0  0  0  0
  4 10  1  0  0  0  0
  4  3  1  0  0  0  0
  5  6  1  0  0  0  0
  5 11  1  1  0  0  0
  5  4  1  0  0  0  0
  6 12  1  1  0  0  0
  9  4  1  0  0  0  0
 13  1  1  0  0  0  0
 14 13  1  0  0  0  0
 15  5  1  0  0  0  0
 16 15  1  0  0  0  0
 17 18  1  0  0  0  0
 18 23  1  0  0  0  0
 19 18  2  0  0  0  0
 19 20  1  0  0  0  0
 20 21  2  0  0  0  0
 21 22  1  0  0  0  0
 22 25  1  0  0  0  0
 23 22  2  0  0  0  0
 24 19  1  0  0  0  0
 26 27  1  0  0  0  0
 26 20  1  0  0  0  0
 26 28  1  0  0  0  0
 27 31  1  0  0  0  0
 27 28  1  0  0  0  0
 28 32  1  0  0  0  0
 29 26  1  0  0  0  0
 30 27  1  0  0  0  0
 33 28  1  0  0  0  0
 34  6  1  0  0  0  0
 35 34  1  0  0  0  0
 36 35  2  0  0  0  0
 37 35  1  6  0  0  0
 37 43  1  0  0  0  0
 38 40  1  0  0  0  0
 38 37  1  0  0  0  0
 39 38  1  0  0  0  0
 40 42  1  0  0  0  0
 41 40  1  0  0  0  0
 42 43  1  0  0  0  0
 43 44  1  0  0  0  0
M  END
>  <minimizedAffinity>
-5.73968697

>  <minimizedRMSD>
0.270971417

$$$$
