
 OpenBabel03252505503D

 21 22  0  0  1  0  0  0  0  0999 V2000
   44.5430   35.6120   44.9800 C   0  0  0  0  0  0  0  0  0  0  0  0
   45.0540   35.0970   43.7960 C   0  0  0  0  0  0  0  0  0  0  0  0
   45.6640   33.8550   43.8730 C   0  0  0  0  0  0  0  0  0  0  0  0
   45.7370   33.2110   45.0590 N   0  0  0  0  0  0  0  0  0  0  0  0
   45.2290   33.7460   46.1840 C   0  0  0  0  0  0  0  0  0  0  0  0
   44.6330   34.9380   46.1600 N   0  0  0  0  0  0  0  0  0  0  0  0
   44.0410   36.5860   45.0290 H   0  0  0  0  0  0  0  0  0  0  0  0
   46.0590   33.4570   42.9560 H   0  0  0  0  0  0  0  0  0  0  0  0
   44.9020   35.9150   42.5640 C   0  0  0  0  0  0  0  0  0  0  0  0
   45.1940   37.2160   42.9330 F   0  0  0  0  0  0  0  0  0  0  0  0
   43.6000   35.8230   42.1470 F   0  0  0  0  0  0  0  0  0  0  0  0
   45.7710   35.4020   41.6140 F   0  0  0  0  0  0  0  0  0  0  0  0
   45.2910   33.1070   47.4130 O   0  0  0  0  0  0  0  0  0  0  0  0
   46.0890   31.9910   47.6950 C   0  0  2  0  0  3  0  0  0  0  0  0
   45.8080   31.4200   49.0710 C   0  0  0  0  0  3  0  0  0  0  0  0
   45.6870   32.2440   49.7850 H   0  0  0  0  0  0  0  0  0  0  0  0
   47.1370   30.7430   49.3420 C   0  0  0  0  0  3  0  0  0  0  0  0
   47.2660   30.4840   50.4040 H   0  0  0  0  0  0  0  0  0  0  0  0
   48.0350   31.7410   48.9710 O   0  0  0  0  0  0  0  0  0  0  0  0
   47.5510   32.3110   47.8070 C   0  0  0  0  0  3  0  0  0  0  0  0
   48.1370   31.9000   46.9570 H   0  0  0  0  0  0  0  0  0  0  0  0
  1  7  1  0  0  0  0
  1  6  1  0  0  0  0
  2  3  1  0  0  0  0
  2  1  2  0  0  0  0
  3  4  2  0  0  0  0
  4  5  1  0  0  0  0
  5 13  1  0  0  0  0
  6  5  2  0  0  0  0
  8  3  1  0  0  0  0
  9 10  1  0  0  0  0
  9  2  1  0  0  0  0
 11  9  1  0  0  0  0
 12  9  1  0  0  0  0
 14 13  1  1  0  0  0
 14 20  1  0  0  0  0
 14 15  1  0  0  0  0
 15 17  1  0  0  0  0
 15 16  1  0  0  0  0
 17 18  1  0  0  0  0
 19 17  1  0  0  0  0
 20 19  1  0  0  0  0
 21 20  1  0  0  0  0
M  END
>  <minimizedAffinity>
-4.66071701

>  <minimizedRMSD>
0.848088503

$$$$
