REMARK  Name = 
REMARK  2 active torsions:
REMARK  status: ('A' for Active; 'I' for Inactive)
REMARK    1  A    between atoms: C_3  and  C_8
REMARK    2  A    between atoms: C_8  and  C_14
REMARK                            x       y       z     vdW  Elec       q    Type
REMARK                         _______ _______ _______ _____ _____    ______ ____
ROOT
ATOM      1  C   UNL     1      44.910  35.136  44.046  0.00  0.00    +0.000 A 
ATOM      2  C   UNL     1      45.744  35.387  42.929  0.00  0.00    +0.000 A 
ATOM      3  C   UNL     1      46.941  34.682  42.826  0.00  0.00    +0.000 A 
ATOM      4  N   UNL     1      47.255  33.797  43.785  0.00  0.00    +0.000 NA
ATOM      5  C   UNL     1      46.435  33.571  44.852  0.00  0.00    +0.000 A 
ATOM      6  N   UNL     1      45.275  34.243  44.968  0.00  0.00    +0.000 NA
ATOM      7  N   UNL     1      43.695  35.836  44.172  0.00  0.00    +0.000 N 
ATOM      8  H   UNL     1      45.421  36.118  42.197  0.00  0.00    +0.000 HD
ATOM      9  H   UNL     1      46.812  32.834  45.544  0.00  0.00    +0.000 HD
ATOM     10  H   UNL     1      43.378  36.379  45.008  0.00  0.00    +0.000 HD
ATOM     11  H   UNL     1      43.132  35.732  43.280  0.00  0.00    +0.000 HD
ENDROOT
BRANCH   3  12
ATOM     12  C   UNL     1      47.730  34.988  41.674  0.00  0.00    +0.000 C 
ATOM     13  O   UNL     1      48.683  35.796  41.639  0.00  0.00    +0.000 OA
BRANCH  12  14
ATOM     14  C   UNL     1      47.276  34.206  40.468  0.00  0.00    +0.000 C 
ATOM     15  C   UNL     1      47.029  32.767  40.791  0.00  0.00    +0.000 C 
ATOM     16  H   UNL     1      46.991  32.606  41.886  0.00  0.00    +0.000 HD
ATOM     17  C   UNL     1      48.200  32.075  40.124  0.00  0.00    +0.000 C 
ATOM     18  H   UNL     1      47.978  31.008  39.933  0.00  0.00    +0.000 HD
ATOM     19  O   UNL     1      48.377  32.812  38.970  0.00  0.00    +0.000 OA
ATOM     20  C   UNL     1      48.421  34.117  39.457  0.00  0.00    +0.000 C 
ATOM     21  H   UNL     1      48.337  34.891  38.669  0.00  0.00    +0.000 HD
ENDBRANCH  12  14
ENDBRANCH   3  12
TORSDOF 2
