
 OpenBabel03242523313D

 21 22  0  0  1  0  0  0  0  0999 V2000
   45.6510   33.3250   46.4050 C   0  0  0  0  0  0  0  0  0  0  0  0
   46.4850   33.7100   47.0400 H   0  0  0  0  0  0  0  0  0  0  0  0
   44.7060   33.1940   46.9710 H   0  0  0  0  0  0  0  0  0  0  0  0
   44.5490   36.1150   44.1970 C   0  0  0  0  0  0  0  0  0  0  0  0
   45.3340   35.8870   43.0570 C   0  0  0  0  0  0  0  0  0  0  0  0
   46.2060   34.8090   43.0640 C   0  0  0  0  0  0  0  0  0  0  0  0
   46.2800   34.0120   44.1540 N   0  0  0  0  0  0  0  0  0  0  0  0
   45.5030   34.2500   45.2600 C   0  0  0  0  0  0  0  0  0  0  0  0
   44.6720   35.2870   45.2380 N   0  0  0  0  0  0  0  0  0  0  0  0
   43.8810   36.9640   44.1550 H   0  0  0  0  0  0  0  0  0  0  0  0
   45.3320   36.4740   42.1560 H   0  0  0  0  0  0  0  0  0  0  0  0
   46.8320   34.5890   42.2120 H   0  0  0  0  0  0  0  0  0  0  0  0
   46.2520   31.7430   45.7240 S   0  0  0  0  0  0  0  0  0  0  0  0
   46.5210   30.5430   47.0850 C   0  0  2  0  0  3  0  0  0  0  0  0
   45.2920   30.4230   47.9240 C   0  0  0  0  0  3  0  0  0  0  0  0
   44.4740   31.0310   47.4620 H   0  0  0  0  0  0  0  0  0  0  0  0
   45.7010   30.9190   49.2830 C   0  0  0  0  0  3  0  0  0  0  0  0
   45.3130   30.2800   50.1050 H   0  0  0  0  0  0  0  0  0  0  0  0
   47.0860   30.8830   49.3320 O   0  0  0  0  0  0  0  0  0  0  0  0
   47.5360   31.0960   48.0330 C   0  0  0  0  0  3  0  0  0  0  0  0
   48.5530   30.7010   47.9210 H   0  0  0  0  0  0  0  0  0  0  0  0
  1  3  1  0  0  0  0
  1  2  1  0  0  0  0
  4  9  1  0  0  0  0
  5  6  1  0  0  0  0
  5  4  2  0  0  0  0
  6  7  2  0  0  0  0
  7  8  1  0  0  0  0
  8  1  1  0  0  0  0
  9  8  2  0  0  0  0
 10  4  1  0  0  0  0
 11  5  1  0  0  0  0
 12  6  1  0  0  0  0
 13  1  1  0  0  0  0
 14 13  1  6  0  0  0
 14 15  1  0  0  0  0
 14 20  1  0  0  0  0
 15 17  1  0  0  0  0
 16 15  1  0  0  0  0
 17 19  1  0  0  0  0
 17 18  1  0  0  0  0
 20 19  1  0  0  0  0
 21 20  1  0  0  0  0
M  END
>  <minimizedAffinity>
-4.04489136

>  <minimizedRMSD>
0.511909962

$$$$
