
 OpenBabel03242523543D

 44 47  0  0  1  0  0  0  0  0999 V2000
   42.7860   34.2290   39.0470 C   0  0  1  0  0  0  0  0  0  0  0  0
   43.0470   35.1510   40.2310 C   0  0  1  0  0  0  0  0  0  0  0  0
   41.8190   35.6880   40.6540 O   0  0  0  0  0  0  0  0  0  0  0  0
   40.9500   35.9430   39.5920 C   0  0  0  0  0  0  0  0  0  0  0  0
   40.4460   34.6640   38.9520 C   0  0  2  0  0  0  0  0  0  0  0  0
   41.4850   33.5500   39.3250 C   0  0  1  0  0  0  0  0  0  0  0  0
   43.6310   33.5220   38.9160 H   0  0  0  0  0  0  0  0  0  0  0  0
   43.7800   35.9350   40.0140 H   0  0  0  0  0  0  0  0  0  0  0  0
   41.3770   36.6610   38.8720 H   0  0  0  0  0  0  0  0  0  0  0  0
   40.0750   36.4330   40.0390 H   0  0  0  0  0  0  0  0  0  0  0  0
   39.4570   34.3640   39.3320 H   0  0  0  0  0  0  0  0  0  0  0  0
   41.2460   33.5500   40.4380 H   0  0  0  0  0  0  0  0  0  0  0  0
   42.7170   34.9610   37.8520 O   0  0  0  0  0  0  0  0  0  0  0  0
   43.6610   35.1820   37.6340 H   0  0  0  0  0  0  0  0  0  0  0  0
   40.5150   34.7740   37.5700 O   0  0  0  0  0  0  0  0  0  0  0  0
   40.7080   33.9480   37.0970 H   0  0  0  0  0  0  0  0  0  0  0  0
   43.4250   34.3050   41.2820 O   0  0  0  0  0  0  0  0  0  0  0  0
   44.5910   34.3690   41.9400 C   0  0  0  0  0  0  0  0  0  0  0  0
   45.8050   34.5080   41.2510 C   0  0  0  0  0  0  0  0  0  0  0  0
   46.9750   34.5690   41.9930 C   0  0  0  0  0  0  0  0  0  0  0  0
   46.9130   34.4910   43.3720 N   0  0  0  0  0  0  0  0  0  0  0  0
   45.7220   34.3570   43.9990 C   0  0  0  0  0  0  0  0  0  0  0  0
   44.5660   34.2950   43.2910 N   0  0  0  0  0  0  0  0  0  0  0  0
   45.8510   34.5680   40.1730 H   0  0  0  0  0  0  0  0  0  0  0  0
   45.7550   34.3030   45.0760 H   0  0  0  0  0  0  0  0  0  0  0  0
   48.3110   34.7020   41.3230 C   0  0  0  0  0  0  0  0  0  0  0  0
   49.0500   36.0220   41.5340 C   0  0  0  0  0  0  0  0  0  0  0  0
   49.5180   34.6640   42.0860 C   0  0  0  0  0  0  0  0  0  0  0  0
   48.2560   34.3800   40.2650 H   0  0  0  0  0  0  0  0  0  0  0  0
   49.5730   36.4310   40.6710 H   0  0  0  0  0  0  0  0  0  0  0  0
   48.5940   36.6780   42.2890 H   0  0  0  0  0  0  0  0  0  0  0  0
   49.4740   34.5280   43.1980 H   0  0  0  0  0  0  0  0  0  0  0  0
   50.4840   34.3350   41.6620 H   0  0  0  0  0  0  0  0  0  0  0  0
   41.1950   32.4620   38.5900 O   0  0  0  0  0  0  0  0  0  0  0  0
   40.2170   31.5440   38.7710 C   0  0  0  0  0  0  0  0  0  0  0  0
   39.5710   31.0300   37.7520 O   0  0  0  0  0  0  0  0  0  0  0  0
   39.4660   30.7620   39.8000 C   0  0  2  0  0  3  0  0  0  0  0  0
   38.2890   30.0970   39.0770 C   0  0  0  0  0  3  0  0  0  0  0  0
   38.5570   29.1620   38.5820 H   0  0  0  0  0  0  0  0  0  0  0  0
   37.3470   29.8620   40.2480 C   0  0  0  0  0  3  0  0  0  0  0  0
   36.2790   29.8880   39.9480 H   0  0  0  0  0  0  0  0  0  0  0  0
   37.5670   30.8960   41.1410 O   0  0  0  0  0  0  0  0  0  0  0  0
   38.7590   31.5250   40.8420 C   0  0  0  0  0  3  0  0  0  0  0  0
   39.3470   31.6920   41.7680 H   0  0  0  0  0  0  0  0  0  0  0  0
  1  7  1  6  0  0  0
  1  6  1  0  0  0  0
  1  2  1  0  0  0  0
  2  8  1  6  0  0  0
  2  3  1  0  0  0  0
  2 17  1  0  0  0  0
  4 10  1  0  0  0  0
  4  3  1  0  0  0  0
  5  6  1  0  0  0  0
  5 11  1  1  0  0  0
  5  4  1  0  0  0  0
  6 12  1  1  0  0  0
  9  4  1  0  0  0  0
 13  1  1  0  0  0  0
 14 13  1  0  0  0  0
 15  5  1  0  0  0  0
 16 15  1  0  0  0  0
 17 18  1  0  0  0  0
 18 23  1  0  0  0  0
 19 18  2  0  0  0  0
 19 20  1  0  0  0  0
 20 21  2  0  0  0  0
 21 22  1  0  0  0  0
 22 25  1  0  0  0  0
 23 22  2  0  0  0  0
 24 19  1  0  0  0  0
 26 27  1  0  0  0  0
 26 20  1  0  0  0  0
 26 28  1  0  0  0  0
 27 28  1  0  0  0  0
 27 31  1  0  0  0  0
 28 32  1  0  0  0  0
 29 26  1  0  0  0  0
 30 27  1  0  0  0  0
 33 28  1  0  0  0  0
 34 35  1  0  0  0  0
 34  6  1  0  0  0  0
 36 35  2  0  0  0  0
 37 35  1  6  0  0  0
 37 43  1  0  0  0  0
 38 37  1  0  0  0  0
 38 40  1  0  0  0  0
 39 38  1  0  0  0  0
 40 42  1  0  0  0  0
 41 40  1  0  0  0  0
 43 42  1  0  0  0  0
 43 44  1  0  0  0  0
M  END
>  <minimizedAffinity>
-6.13416147

>  <minimizedRMSD>
1.49764311

$$$$
