
     RDKit          3D

 25 26  0  0  0  0  0  0  0  0999 V2000
   44.5182   36.0049   44.5300 C   0  0  0  0  0  0  0  0  0  0  0  0
   45.2164   35.8800   43.3198 C   0  0  0  0  0  0  0  0  0  0  0  0
   46.1079   34.8266   43.1813 C   0  0  0  0  0  0  0  0  0  0  0  0
   46.2818   33.9559   44.1999 N   0  0  0  0  0  0  0  0  0  0  0  0
   45.5892   34.0940   45.3771 C   0  0  0  0  0  0  0  0  0  0  0  0
   44.7394   35.1078   45.4949 N   0  0  0  0  0  0  0  0  0  0  0  0
   45.8449   33.0935   46.4363 C   0  0  0  0  0  0  0  0  0  0  0  0
   46.5251   31.6174   45.6056 S   0  0  0  0  0  0  0  0  0  0  0  0
   43.8322   36.8381   44.6019 H   0  0  0  0  0  0  0  0  0  0  0  0
   45.1317   36.5308   42.4666 H   0  0  0  0  0  0  0  0  0  0  0  0
   46.6704   34.6861   42.2691 H   0  0  0  0  0  0  0  0  0  0  0  0
   46.6750   33.4839   47.0715 H   0  0  0  0  0  0  0  0  0  0  0  0
   44.9344   32.8499   47.0196 H   0  0  0  0  0  0  0  0  0  0  0  0
   46.8735   30.3125   46.8467 C   0  0  2  0  0  0  0  0  0  0  0  0
   46.3213   30.6993   48.1784 C   0  0  1  0  0  0  0  0  0  0  0  0
   45.7501   31.6556   48.0732 H   0  0  0  0  0  0  0  0  0  0  0  0
   47.5228   30.8260   49.0738 C   0  0  2  0  0  0  0  0  0  0  0  0
   47.3600   30.3689   50.0736 H   0  0  0  0  0  0  0  0  0  0  0  0
   48.5651   30.1481   48.4591 O   0  0  0  0  0  0  0  0  0  0  0  0
   48.3475   30.2454   47.0878 C   0  0  1  0  0  0  0  0  0  0  0  0
   48.8763   29.4367   46.5699 H   0  0  0  0  0  0  0  0  0  0  0  0
   46.4259   29.3683   46.5175 H   0  0  0  0  0  0  0  0  0  0  0  0
   45.5961   29.9483   48.5543 H   0  0  0  0  0  0  0  0  0  0  0  0
   47.7335   31.9096   49.2040 H   0  0  0  0  0  0  0  0  0  0  0  0
   48.8192   31.1958   46.7331 H   0  0  0  0  0  0  0  0  0  0  0  0
  1  6  2  0
  2  1  1  0
  3  2  2  0
  3  4  1  0
  4  5  2  0
  5  6  1  0
  5  7  1  0
  8  7  1  0
  1  9  1  0
  2 10  1  0
  3 11  1  0
  7 12  1  0
  7 13  1  0
 14 15  1  0
 15 16  1  6
 15 17  1  0
 17 18  1  1
 17 19  1  0
 19 20  1  0
 20 21  1  6
 20 14  1  0
 14 22  1  6
 15 23  1  0
 17 24  1  0
 20 25  1  0
  8 14  1  0
M  ISO  8   9  14  10  14  11  14  12   8  13   8  16  15  18  15  21  15
M  END
>  <DihAtoms>  (1) 
6,7,13,14

>  <DihDeg>  (1) 
-66.19726945141684

$$$$
