
 OpenBabel03252509003D

 44 46  0  0  1  0  0  0  0  0999 V2000
   46.6750   34.3810   43.4970 N   0  0  0  0  0  0  0  0  0  0  0  0
   46.4330   34.9330   42.2140 C   0  0  0  0  0  0  0  0  0  0  0  0
   44.9810   35.0000   41.7990 C   0  0  0  0  0  0  0  0  0  0  0  0
   44.0270   35.2390   42.9390 C   0  0  0  0  0  0  0  0  0  0  0  0
   44.7480   35.4420   44.2470 C   0  0  0  0  0  0  0  0  0  0  0  0
   45.6320   34.1490   44.3790 C   0  0  2  0  0  0  0  0  0  0  0  0
   46.9860   34.4830   41.3840 H   0  0  0  0  0  0  0  0  0  0  0  0
   46.7870   35.9990   42.2470 H   0  0  0  0  0  0  0  0  0  0  0  0
   44.8510   35.8480   41.0770 H   0  0  0  0  0  0  0  0  0  0  0  0
   44.7610   34.0840   41.2200 H   0  0  0  0  0  0  0  0  0  0  0  0
   43.4110   34.3220   43.0670 H   0  0  0  0  0  0  0  0  0  0  0  0
   43.3670   36.1150   42.7890 H   0  0  0  0  0  0  0  0  0  0  0  0
   45.3920   36.3250   44.2730 H   0  0  0  0  0  0  0  0  0  0  0  0
   44.0220   35.3790   45.0760 H   0  0  0  0  0  0  0  0  0  0  0  0
   44.9530   33.2920   44.1860 H   0  0  0  0  0  0  0  0  0  0  0  0
   47.8400   33.5480   43.5670 C   0  0  0  0  0  0  0  0  0  0  0  0
   48.0140   33.1890   44.6060 H   0  0  0  0  0  0  0  0  0  0  0  0
   48.7170   34.1290   43.2760 H   0  0  0  0  0  0  0  0  0  0  0  0
   47.6240   32.3460   42.6990 C   0  0  0  0  0  0  0  0  0  0  0  0
   46.7510   32.4930   42.0210 H   0  0  0  0  0  0  0  0  0  0  0  0
   47.4030   31.4480   43.2870 H   0  0  0  0  0  0  0  0  0  0  0  0
   51.2090   32.3050   41.5710 C   0  0  0  0  0  0  0  0  0  0  0  0
   50.0550   32.5070   42.3490 C   0  0  0  0  0  0  0  0  0  0  0  0
   48.8320   32.1240   41.8600 C   0  0  0  0  0  0  0  0  0  0  0  0
   48.7970   31.5690   40.6440 N   0  0  0  0  0  0  0  0  0  0  0  0
   49.9040   31.3760   39.9000 C   0  0  0  0  0  0  0  0  0  0  0  0
   51.1070   31.7370   40.3470 N   0  0  0  0  0  0  0  0  0  0  0  0
   52.1600   32.6190   41.9870 H   0  0  0  0  0  0  0  0  0  0  0  0
   50.1080   32.9590   43.3320 H   0  0  0  0  0  0  0  0  0  0  0  0
   49.6880   30.9210   38.9570 H   0  0  0  0  0  0  0  0  0  0  0  0
   46.0460   34.2310   45.7020 O   0  0  0  0  0  0  0  0  0  0  0  0
   45.5900   31.6340   45.5620 O   0  0  0  0  0  0  0  0  0  0  0  0
   46.0160   32.7480   46.4910 P   0  0  2  0  0  0  0  0  0  0  0  0
   44.7760   32.8600   47.6650 O   0  0  0  0  0  0  0  0  0  0  0  0
   43.8880   32.7390   47.2190 H   0  0  0  0  0  0  0  0  0  0  0  0
   47.4580   32.4630   47.2750 O   0  0  0  0  0  0  0  0  0  0  0  0
   47.5350   31.2990   47.9700 C   0  0  2  0  0  3  0  0  0  0  0  0
   48.5940   31.4870   49.0510 C   0  0  0  0  0  3  0  0  0  0  0  0
   48.1500   31.8680   49.9910 H   0  0  0  0  0  0  0  0  0  0  0  0
   49.1640   30.0960   49.1780 C   0  0  0  0  0  3  0  0  0  0  0  0
   50.2630   30.1100   49.1000 H   0  0  0  0  0  0  0  0  0  0  0  0
   48.5740   29.2930   48.2170 O   0  0  0  0  0  0  0  0  0  0  0  0
   48.1160   30.1410   47.2070 C   0  0  0  0  0  3  0  0  0  0  0  0
   48.9310   30.4880   46.5540 H   0  0  0  0  0  0  0  0  0  0  0  0
  1 16  1  0  0  0  0
  1  6  1  0  0  0  0
  2  8  1  0  0  0  0
  2  1  1  0  0  0  0
  3  2  1  0  0  0  0
  3  4  1  0  0  0  0
  4 11  1  0  0  0  0
  4  5  1  0  0  0  0
  5 13  1  0  0  0  0
  5  6  1  0  0  0  0
  5 14  1  0  0  0  0
  6 15  1  6  0  0  0
  6 31  1  0  0  0  0
  7  2  1  0  0  0  0
  9  3  1  0  0  0  0
 10  3  1  0  0  0  0
 12  4  1  0  0  0  0
 16 17  1  0  0  0  0
 18 16  1  0  0  0  0
 19 21  1  0  0  0  0
 19 16  1  0  0  0  0
 20 19  1  0  0  0  0
 22 28  1  0  0  0  0
 22 23  1  0  0  0  0
 23 29  1  0  0  0  0
 24 23  2  0  0  0  0
 24 19  1  0  0  0  0
 25 24  1  0  0  0  0
 26 27  1  0  0  0  0
 26 25  2  0  0  0  0
 27 22  2  0  0  0  0
 30 26  1  0  0  0  0
 31 33  1  0  0  0  0
 33 32  2  6  0  0  0
 33 36  1  0  0  0  0
 33 34  1  0  0  0  0
 35 34  1  0  0  0  0
 37 36  1  6  0  0  0
 37 38  1  0  0  0  0
 38 40  1  0  0  0  0
 38 39  1  0  0  0  0
 41 40  1  0  0  0  0
 42 40  1  0  0  0  0
 43 37  1  0  0  0  0
 43 42  1  0  0  0  0
 44 43  1  0  0  0  0
M  END
>  <minimizedAffinity>
-4.88489199

>  <minimizedRMSD>
2.51757169

$$$$
