
 OpenBabel03252505493D

 21 22  0  0  1  0  0  0  0  0999 V2000
   44.9670   34.6960   45.5930 C   0  0  0  0  0  0  0  0  0  0  0  0
   45.5110   34.8760   44.3290 C   0  0  0  0  0  0  0  0  0  0  0  0
   46.4190   33.9190   43.9030 C   0  0  0  0  0  0  0  0  0  0  0  0
   46.7320   32.8800   44.7090 N   0  0  0  0  0  0  0  0  0  0  0  0
   46.1830   32.7430   45.9290 C   0  0  0  0  0  0  0  0  0  0  0  0
   45.3040   33.6370   46.3820 N   0  0  0  0  0  0  0  0  0  0  0  0
   44.2400   35.3950   46.0260 H   0  0  0  0  0  0  0  0  0  0  0  0
   46.8390   34.0590   42.9240 H   0  0  0  0  0  0  0  0  0  0  0  0
   45.0740   36.0650   43.5510 C   0  0  0  0  0  0  0  0  0  0  0  0
   44.8840   37.0750   44.4770 F   0  0  0  0  0  0  0  0  0  0  0  0
   43.8900   35.7610   42.9330 F   0  0  0  0  0  0  0  0  0  0  0  0
   46.0670   36.3440   42.6260 F   0  0  0  0  0  0  0  0  0  0  0  0
   46.4870   31.6870   46.7750 O   0  0  0  0  0  0  0  0  0  0  0  0
   45.9440   30.4000   46.6730 C   0  0  2  0  0  3  0  0  0  0  0  0
   45.1090   30.0350   47.8850 C   0  0  0  0  0  3  0  0  0  0  0  0
   45.6190   30.3810   48.7920 H   0  0  0  0  0  0  0  0  0  0  0  0
   45.2160   28.5240   47.8210 C   0  0  0  0  0  3  0  0  0  0  0  0
   44.9070   28.0410   48.7630 H   0  0  0  0  0  0  0  0  0  0  0  0
   46.5810   28.3530   47.6120 O   0  0  0  0  0  0  0  0  0  0  0  0
   46.9740   29.3090   46.6930 C   0  0  0  0  0  3  0  0  0  0  0  0
   47.0770   28.8110   45.7050 H   0  0  0  0  0  0  0  0  0  0  0  0
  1  7  1  0  0  0  0
  1  6  1  0  0  0  0
  2  1  2  0  0  0  0
  3  2  1  0  0  0  0
  3  4  2  0  0  0  0
  4  5  1  0  0  0  0
  5  6  2  0  0  0  0
  5 13  1  0  0  0  0
  8  3  1  0  0  0  0
  9  2  1  0  0  0  0
  9 10  1  0  0  0  0
 11  9  1  0  0  0  0
 12  9  1  0  0  0  0
 14 20  1  0  0  0  0
 14 13  1  1  0  0  0
 14 15  1  0  0  0  0
 15 16  1  0  0  0  0
 17 15  1  0  0  0  0
 17 18  1  0  0  0  0
 19 17  1  0  0  0  0
 20 19  1  0  0  0  0
 21 20  1  0  0  0  0
M  END
>  <minimizedAffinity>
-4.34396696

>  <minimizedRMSD>
1.84398031

$$$$
