
 OpenBabel03252508513D

 27 29  0  0  1  0  0  0  0  0999 V2000
   45.9600   34.1400   41.0410 C   0  0  0  0  0  0  0  0  0  0  0  0
   46.5330   34.7980   42.1230 C   0  0  0  0  0  0  0  0  0  0  0  0
   47.8630   35.2020   41.9720 C   0  0  0  0  0  0  0  0  0  0  0  0
   48.5120   34.9390   40.8080 N   0  0  0  0  0  0  0  0  0  0  0  0
   47.9130   34.2970   39.7860 C   0  0  0  0  0  0  0  0  0  0  0  0
   46.6310   33.8960   39.9050 N   0  0  0  0  0  0  0  0  0  0  0  0
   48.3060   35.7140   42.8160 H   0  0  0  0  0  0  0  0  0  0  0  0
   48.4970   34.1250   38.8930 H   0  0  0  0  0  0  0  0  0  0  0  0
   45.7580   35.0340   43.3270 C   0  0  0  0  0  0  0  0  0  0  0  0
   45.0540   36.2170   43.5400 C   0  0  0  0  0  0  0  0  0  0  0  0
   44.4790   36.0070   44.7850 C   0  0  0  0  0  0  0  0  0  0  0  0
   44.8130   34.7850   45.2830 N   0  0  0  0  0  0  0  0  0  0  0  0
   45.5850   34.2300   44.3740 N   0  0  0  0  0  0  0  0  0  0  0  0
   44.9380   37.1100   42.9430 H   0  0  0  0  0  0  0  0  0  0  0  0
   43.8360   36.7450   45.2910 H   0  0  0  0  0  0  0  0  0  0  0  0
   44.4760   34.4420   46.2120 H   0  0  0  0  0  0  0  0  0  0  0  0
   44.6470   33.7250   41.1510 O   0  0  0  0  0  0  0  0  0  0  0  0
   43.5390   34.3540   40.6580 C   0  0  0  0  0  0  0  0  0  0  0  0
   43.3530   35.6080   40.5270 O   0  0  0  0  0  0  0  0  0  0  0  0
   42.2090   33.8960   40.1180 C   0  0  2  0  0  3  0  0  0  0  0  0
   42.3650   32.9090   39.0190 C   0  0  0  0  0  3  0  0  0  0  0  0
   43.2710   32.9670   38.4220 H   0  0  0  0  0  0  0  0  0  0  0  0
   41.1120   33.2270   38.1880 C   0  0  0  0  0  3  0  0  0  0  0  0
   41.1670   32.8290   37.1780 H   0  0  0  0  0  0  0  0  0  0  0  0
   41.2030   34.6370   38.1720 O   0  0  0  0  0  0  0  0  0  0  0  0
   41.4260   35.0130   39.4800 C   0  0  0  0  0  3  0  0  0  0  0  0
   41.9870   35.9660   39.5490 H   0  0  0  0  0  0  0  0  0  0  0  0
  1 17  1  0  0  0  0
  1  2  1  0  0  0  0
  2  9  1  0  0  0  0
  3  2  2  0  0  0  0
  3  7  1  0  0  0  0
  4  3  1  0  0  0  0
  5  6  1  0  0  0  0
  5  4  2  0  0  0  0
  6  1  2  0  0  0  0
  8  5  1  0  0  0  0
  9 10  1  0  0  0  0
  9 13  2  0  0  0  0
 10 11  2  0  0  0  0
 11 12  1  0  0  0  0
 11 15  1  0  0  0  0
 12 16  1  0  0  0  0
 13 12  1  0  0  0  0
 14 10  1  0  0  0  0
 18 17  1  0  0  0  0
 19 18  2  0  0  0  0
 20 18  1  6  0  0  0
 21 20  1  0  0  0  0
 22 21  1  0  0  0  0
 23 21  1  0  0  0  0
 24 23  1  0  0  0  0
 25 23  1  0  0  0  0
 25 26  1  0  0  0  0
 26 27  1  0  0  0  0
 26 20  1  0  0  0  0
M  END
>  <minimizedAffinity>
-5.15718603

>  <minimizedRMSD>
0.813396811

$$$$
