
 OpenBabel03252500543D

 29 30  0  0  1  0  0  0  0  0999 V2000
   47.6020   34.4440   40.4860 C   0  0  0  0  0  0  0  0  0  0  0  0
   46.4600   33.6550   40.4600 C   0  0  0  0  0  0  0  0  0  0  0  0
   46.0910   33.0750   39.2370 C   0  0  0  0  0  0  0  0  0  0  0  0
   46.8760   33.3250   38.1610 N   0  0  0  0  0  0  0  0  0  0  0  0
   47.9830   34.1000   38.2250 C   0  0  0  0  0  0  0  0  0  0  0  0
   48.3190   34.6400   39.3860 N   0  0  0  0  0  0  0  0  0  0  0  0
   45.2130   32.4740   39.2380 H   0  0  0  0  0  0  0  0  0  0  0  0
   48.5410   34.2330   37.2950 H   0  0  0  0  0  0  0  0  0  0  0  0
   48.0360   35.0740   41.7340 C   0  0  0  0  0  0  0  0  0  0  0  0
   47.1990   35.5680   42.2950 H   0  0  0  0  0  0  0  0  0  0  0  0
   48.4420   34.3040   42.4290 H   0  0  0  0  0  0  0  0  0  0  0  0
   49.1520   36.0440   41.4380 C   0  0  0  0  0  0  0  0  0  0  0  0
   49.1180   36.8300   42.2120 H   0  0  0  0  0  0  0  0  0  0  0  0
   50.1240   35.5510   41.3700 H   0  0  0  0  0  0  0  0  0  0  0  0
   48.9500   36.5170   40.4460 H   0  0  0  0  0  0  0  0  0  0  0  0
   45.7660   33.5000   41.6560 O   0  0  0  0  0  0  0  0  0  0  0  0
   43.2680   32.7390   41.9230 O   0  0  0  0  0  0  0  0  0  0  0  0
   44.1740   33.9690   41.9620 P   0  0  1  0  0  0  0  0  0  0  0  0
   44.1100   34.6400   43.5140 O   0  0  0  0  0  0  0  0  0  0  0  0
   43.6700   35.5140   43.5540 H   0  0  0  0  0  0  0  0  0  0  0  0
   43.6100   35.1220   40.8550 O   0  0  0  0  0  0  0  0  0  0  0  0
   42.2750   34.8610   40.5840 C   0  0  1  0  0  0  0  0  0  0  0  0
   41.3090   35.6230   41.4230 C   0  0  0  0  0  0  0  0  0  0  0  0
   41.7920   36.5090   41.8870 H   0  0  0  0  0  0  0  0  0  0  0  0
   40.2560   36.0510   40.4460 C   0  0  0  0  0  0  0  0  0  0  0  0
   39.3090   35.5110   40.5290 H   0  0  0  0  0  0  0  0  0  0  0  0
   40.7540   35.9510   39.1690 O   0  0  0  0  0  0  0  0  0  0  0  0
   41.8930   35.1950   39.1700 C   0  0  0  0  0  0  0  0  0  0  0  0
   41.6770   34.2570   38.5800 H   0  0  0  0  0  0  0  0  0  0  0  0
  1  9  1  0  0  0  0
  2  1  1  0  0  0  0
  2 16  1  0  0  0  0
  3  7  1  0  0  0  0
  3  2  2  0  0  0  0
  4  5  2  0  0  0  0
  4  3  1  0  0  0  0
  5  6  1  0  0  0  0
  6  1  2  0  0  0  0
  8  5  1  0  0  0  0
  9 10  1  0  0  0  0
  9 11  1  0  0  0  0
 12  9  1  0  0  0  0
 12 13  1  0  0  0  0
 14 12  1  0  0  0  0
 15 12  1  0  0  0  0
 16 18  1  0  0  0  0
 18 17  2  6  0  0  0
 18 19  1  0  0  0  0
 19 20  1  0  0  0  0
 21 18  1  0  0  0  0
 22 21  1  1  0  0  0
 22 23  1  0  0  0  0
 23 24  1  0  0  0  0
 25 26  1  0  0  0  0
 25 23  1  0  0  0  0
 27 28  1  0  0  0  0
 27 25  1  0  0  0  0
 28 22  1  0  0  0  0
 29 28  1  0  0  0  0
M  END
>  <minimizedAffinity>
-4.78602886

>  <minimizedRMSD>
3.57198167

$$$$
