
 OpenBabel03242512043D

 19 20  0  0  1  0  0  0  0  0999 V2000
   46.4590   33.5300   43.9350 C   0  0  0  0  0  0  0  0  0  0  0  0
   47.6910   33.7020   43.7740 O   0  0  0  0  0  0  0  0  0  0  0  0
   45.5750   33.7590   41.6410 C   0  0  0  0  0  0  0  0  0  0  0  0
   45.5780   34.1330   42.9920 C   0  0  0  0  0  0  0  0  0  0  0  0
   44.6740   35.1280   43.3860 C   0  0  0  0  0  0  0  0  0  0  0  0
   43.8420   35.6840   42.4510 N   0  0  0  0  0  0  0  0  0  0  0  0
   43.8840   35.2830   41.1590 C   0  0  0  0  0  0  0  0  0  0  0  0
   44.7390   34.3340   40.7630 N   0  0  0  0  0  0  0  0  0  0  0  0
   46.2380   33.0040   41.2670 H   0  0  0  0  0  0  0  0  0  0  0  0
   44.6700   35.4240   44.4300 H   0  0  0  0  0  0  0  0  0  0  0  0
   43.1490   35.8450   40.5860 H   0  0  0  0  0  0  0  0  0  0  0  0
   45.9610   32.7210   45.0790 C   0  0  1  0  0  3  0  0  0  0  0  0
   46.2190   31.2570   44.9510 C   0  0  0  0  0  3  0  0  0  0  0  0
   45.2530   30.7340   45.2150 H   0  0  0  0  0  0  0  0  0  0  0  0
   47.1930   30.9900   46.0690 C   0  0  0  0  0  3  0  0  0  0  0  0
   48.2550   30.9600   45.7420 H   0  0  0  0  0  0  0  0  0  0  0  0
   47.0010   31.9590   47.0210 O   0  0  0  0  0  0  0  0  0  0  0  0
   46.5880   33.1160   46.3770 C   0  0  0  0  0  3  0  0  0  0  0  0
   45.9090   33.6710   47.0660 H   0  0  0  0  0  0  0  0  0  0  0  0
  2  1  2  0  0  0  0
  3  4  1  0  0  0  0
  4  5  2  0  0  0  0
  4  1  1  0  0  0  0
  5 10  1  0  0  0  0
  6  5  1  0  0  0  0
  7  6  2  0  0  0  0
  8  7  1  0  0  0  0
  8  3  2  0  0  0  0
  9  3  1  0  0  0  0
 11  7  1  0  0  0  0
 12  1  1  6  0  0  0
 12 18  1  0  0  0  0
 13 12  1  0  0  0  0
 13 14  1  0  0  0  0
 13 15  1  0  0  0  0
 15 17  1  0  0  0  0
 16 15  1  0  0  0  0
 18 17  1  0  0  0  0
 18 19  1  0  0  0  0
M  END
>  <minimizedAffinity>
-3.15520549

>  <minimizedRMSD>
4.98767233

$$$$
