
     RDKit          3D

 25 26  0  0  0  0  0  0  0  0999 V2000
   44.5182   36.0049   44.5300 C   0  0  0  0  0  0  0  0  0  0  0  0
   45.2164   35.8800   43.3198 C   0  0  0  0  0  0  0  0  0  0  0  0
   46.1079   34.8266   43.1813 C   0  0  0  0  0  0  0  0  0  0  0  0
   46.2818   33.9559   44.1999 N   0  0  0  0  0  0  0  0  0  0  0  0
   45.5892   34.0940   45.3771 C   0  0  0  0  0  0  0  0  0  0  0  0
   44.7394   35.1078   45.4949 N   0  0  0  0  0  0  0  0  0  0  0  0
   45.8449   33.0935   46.4363 C   0  0  0  0  0  0  0  0  0  0  0  0
   46.5251   31.6174   45.6056 S   0  0  0  0  0  0  0  0  0  0  0  0
   43.8322   36.8381   44.6019 H   0  0  0  0  0  0  0  0  0  0  0  0
   45.1317   36.5308   42.4666 H   0  0  0  0  0  0  0  0  0  0  0  0
   46.6704   34.6861   42.2691 H   0  0  0  0  0  0  0  0  0  0  0  0
   46.6750   33.4839   47.0715 H   0  0  0  0  0  0  0  0  0  0  0  0
   44.9344   32.8499   47.0196 H   0  0  0  0  0  0  0  0  0  0  0  0
   46.8735   30.3125   46.8467 C   0  0  2  0  0  0  0  0  0  0  0  0
   46.2509   29.0205   46.4331 C   0  0  1  0  0  0  0  0  0  0  0  0
   45.7959   29.1427   45.4182 H   0  0  0  0  0  0  0  0  0  0  0  0
   45.2362   28.7201   47.5015 C   0  0  2  0  0  0  0  0  0  0  0  0
   45.2461   27.6528   47.8113 H   0  0  0  0  0  0  0  0  0  0  0  0
   45.5663   29.4889   48.6078 O   0  0  0  0  0  0  0  0  0  0  0  0
   46.1671   30.6463   48.1214 C   0  0  1  0  0  0  0  0  0  0  0  0
   46.7884   31.0986   48.9033 H   0  0  0  0  0  0  0  0  0  0  0  0
   47.9571   30.1880   46.9496 H   0  0  0  0  0  0  0  0  0  0  0  0
   47.0074   28.2147   46.3354 H   0  0  0  0  0  0  0  0  0  0  0  0
   44.2326   28.9662   47.0920 H   0  0  0  0  0  0  0  0  0  0  0  0
   45.3574   31.3878   47.9068 H   0  0  0  0  0  0  0  0  0  0  0  0
  1  6  2  0
  2  1  1  0
  3  2  2  0
  3  4  1  0
  4  5  2  0
  5  6  1  0
  5  7  1  0
  8  7  1  0
  1  9  1  0
  2 10  1  0
  3 11  1  0
  7 12  1  0
  7 13  1  0
 14 15  1  0
 15 16  1  6
 15 17  1  0
 17 18  1  1
 17 19  1  0
 19 20  1  0
 20 21  1  1
 20 14  1  0
 14 22  1  1
 15 23  1  0
 17 24  1  0
 20 25  1  0
  8 14  1  0
M  ISO  8   9  14  10  14  11  14  12   8  13   8  16  15  18  15  21  15
M  END
>  <DihAtoms>  (1) 
6,7,13,14

>  <DihDeg>  (1) 
-66.19726945141684

$$$$
