
 OpenBabel03252503013D

 29 30  0  0  1  0  0  0  0  0999 V2000
   43.6960   34.6210   42.3810 N   0  0  0  0  0  0  0  0  0  0  0  0
   43.3370   35.0140   43.3010 H   0  0  0  0  0  0  0  0  0  0  0  0
   42.9810   35.3630   41.3350 C   0  0  0  0  0  0  0  0  0  0  0  0
   43.2490   34.8650   40.3780 H   0  0  0  0  0  0  0  0  0  0  0  0
   43.3100   36.4270   41.2830 H   0  0  0  0  0  0  0  0  0  0  0  0
   41.2350   35.1500   41.6360 S   0  0  0  0  0  0  0  0  0  0  0  0
   39.1810   34.1330   40.0910 C   0  0  0  0  0  0  0  0  0  0  0  0
   40.3940   34.8100   40.0750 C   0  0  0  0  0  0  0  0  0  0  0  0
   40.9640   35.2270   38.8630 C   0  0  0  0  0  0  0  0  0  0  0  0
   40.2680   34.9320   37.7280 N   0  0  0  0  0  0  0  0  0  0  0  0
   39.1030   34.2780   37.7940 C   0  0  0  0  0  0  0  0  0  0  0  0
   38.5340   33.8680   38.9280 N   0  0  0  0  0  0  0  0  0  0  0  0
   38.7070   33.7930   41.0080 H   0  0  0  0  0  0  0  0  0  0  0  0
   41.9020   35.7420   38.9590 H   0  0  0  0  0  0  0  0  0  0  0  0
   38.7210   34.1490   36.7710 H   0  0  0  0  0  0  0  0  0  0  0  0
   45.4020   34.9080   42.2880 S   0  0  0  0  0  0  0  0  0  0  0  0
   45.9280   34.7520   40.9130 O   0  0  0  0  0  0  0  0  0  0  0  0
   45.8200   35.4420   40.2210 H   0  0  0  0  0  0  0  0  0  0  0  0
   45.6130   36.3200   42.7910 O   0  0  0  0  0  0  0  0  0  0  0  0
   45.5380   37.1530   42.2980 H   0  0  0  0  0  0  0  0  0  0  0  0
   46.1920   33.9230   43.3850 O   0  0  0  0  0  0  0  0  0  0  0  0
   45.3160   33.3930   44.3260 C   0  0  1  0  0  0  0  0  0  0  0  0
   45.9060   32.0960   44.8220 C   0  0  0  0  0  0  0  0  0  0  0  0
   45.1410   31.3150   44.9590 H   0  0  0  0  0  0  0  0  0  0  0  0
   46.4400   32.5090   46.1950 C   0  0  0  0  0  0  0  0  0  0  0  0
   47.3910   33.0970   46.0580 H   0  0  0  0  0  0  0  0  0  0  0  0
   45.4140   33.3460   46.6390 O   0  0  0  0  0  0  0  0  0  0  0  0
   45.3410   34.2610   45.5670 C   0  0  0  0  0  0  0  0  0  0  0  0
   44.4180   34.8850   45.6330 H   0  0  0  0  0  0  0  0  0  0  0  0
  1  2  1  0  0  0  0
  3  6  1  0  0  0  0
  3  1  1  0  0  0  0
  4  3  1  0  0  0  0
  5  3  1  0  0  0  0
  7 13  1  0  0  0  0
  8  7  1  0  0  0  0
  8  6  1  0  0  0  0
  9 14  1  0  0  0  0
  9  8  2  0  0  0  0
 10 11  2  0  0  0  0
 10  9  1  0  0  0  0
 11 12  1  0  0  0  0
 12  7  2  0  0  0  0
 15 11  1  0  0  0  0
 16  1  1  0  0  0  0
 16 19  1  0  0  0  0
 16 21  1  0  0  0  0
 17 16  1  0  0  0  0
 18 17  1  0  0  0  0
 20 19  1  0  0  0  0
 22 21  1  6  0  0  0
 22 23  1  0  0  0  0
 22 28  1  0  0  0  0
 23 24  1  0  0  0  0
 23 25  1  0  0  0  0
 25 27  1  0  0  0  0
 26 25  1  0  0  0  0
 28 29  1  0  0  0  0
 28 27  1  0  0  0  0
M  END
>  <minimizedAffinity>
-4.32213354

>  <minimizedRMSD>
2.92743134

$$$$
