
 OpenBabel03252509003D

 44 46  0  0  1  0  0  0  0  0999 V2000
   46.6410   34.5230   43.6020 N   0  0  0  0  0  0  0  0  0  0  0  0
   46.1740   35.5510   42.7450 C   0  0  0  0  0  0  0  0  0  0  0  0
   44.6760   35.7490   42.7250 C   0  0  0  0  0  0  0  0  0  0  0  0
   44.0020   35.4720   44.0430 C   0  0  0  0  0  0  0  0  0  0  0  0
   44.9940   35.1330   45.1250 C   0  0  0  0  0  0  0  0  0  0  0  0
   45.7930   33.9220   44.5190 C   0  0  2  0  0  0  0  0  0  0  0  0
   46.5060   35.4970   41.7040 H   0  0  0  0  0  0  0  0  0  0  0  0
   46.6010   36.5150   43.1310 H   0  0  0  0  0  0  0  0  0  0  0  0
   44.4570   36.8160   42.4610 H   0  0  0  0  0  0  0  0  0  0  0  0
   44.2740   35.1500   41.8870 H   0  0  0  0  0  0  0  0  0  0  0  0
   43.3630   34.5710   43.9180 H   0  0  0  0  0  0  0  0  0  0  0  0
   43.3890   36.3170   44.4140 H   0  0  0  0  0  0  0  0  0  0  0  0
   45.6910   35.9410   45.3670 H   0  0  0  0  0  0  0  0  0  0  0  0
   44.4570   34.7160   45.9940 H   0  0  0  0  0  0  0  0  0  0  0  0
   45.0290   33.2060   44.1480 H   0  0  0  0  0  0  0  0  0  0  0  0
   47.7320   33.7630   43.0670 C   0  0  0  0  0  0  0  0  0  0  0  0
   48.3120   33.2670   43.8780 H   0  0  0  0  0  0  0  0  0  0  0  0
   48.4180   34.4340   42.5460 H   0  0  0  0  0  0  0  0  0  0  0  0
   47.1810   32.6900   42.1780 C   0  0  0  0  0  0  0  0  0  0  0  0
   46.0700   32.7630   42.1030 H   0  0  0  0  0  0  0  0  0  0  0  0
   47.3920   31.6870   42.5640 H   0  0  0  0  0  0  0  0  0  0  0  0
   49.3140   32.1340   39.1350 C   0  0  0  0  0  0  0  0  0  0  0  0
   48.7620   32.0050   40.4210 C   0  0  0  0  0  0  0  0  0  0  0  0
   47.7510   32.8430   40.8120 C   0  0  0  0  0  0  0  0  0  0  0  0
   47.3320   33.7600   39.9340 N   0  0  0  0  0  0  0  0  0  0  0  0
   47.8610   33.8830   38.7010 C   0  0  0  0  0  0  0  0  0  0  0  0
   48.8450   33.0830   38.2910 N   0  0  0  0  0  0  0  0  0  0  0  0
   50.1130   31.4550   38.8560 H   0  0  0  0  0  0  0  0  0  0  0  0
   49.1190   31.2530   41.1170 H   0  0  0  0  0  0  0  0  0  0  0  0
   47.4040   34.6670   38.1370 H   0  0  0  0  0  0  0  0  0  0  0  0
   46.4810   33.4590   45.6330 O   0  0  0  0  0  0  0  0  0  0  0  0
   45.5230   31.1530   44.7750 O   0  0  0  0  0  0  0  0  0  0  0  0
   46.2110   31.8300   45.9390 P   0  0  2  0  0  0  0  0  0  0  0  0
   45.0870   31.7690   47.2290 O   0  0  0  0  0  0  0  0  0  0  0  0
   44.1680   31.9440   46.8740 H   0  0  0  0  0  0  0  0  0  0  0  0
   47.6130   31.0760   46.4280 O   0  0  0  0  0  0  0  0  0  0  0  0
   47.4560   29.9910   47.2310 C   0  0  2  0  0  3  0  0  0  0  0  0
   48.8020   29.7160   47.8880 C   0  0  0  0  0  3  0  0  0  0  0  0
   48.8970   30.2520   48.8530 H   0  0  0  0  0  0  0  0  0  0  0  0
   48.7800   28.2150   48.0370 C   0  0  0  0  0  3  0  0  0  0  0  0
   49.6950   27.7620   47.6210 H   0  0  0  0  0  0  0  0  0  0  0  0
   47.6290   27.7350   47.4370 O   0  0  0  0  0  0  0  0  0  0  0  0
   47.2290   28.6930   46.5030 C   0  0  0  0  0  3  0  0  0  0  0  0
   47.8360   28.6610   45.5860 H   0  0  0  0  0  0  0  0  0  0  0  0
  1  6  1  0  0  0  0
  2  8  1  0  0  0  0
  2  1  1  0  0  0  0
  3  2  1  0  0  0  0
  3  4  1  0  0  0  0
  4 12  1  0  0  0  0
  4  5  1  0  0  0  0
  5 13  1  0  0  0  0
  5 14  1  0  0  0  0
  6 15  1  6  0  0  0
  6  5  1  0  0  0  0
  6 31  1  0  0  0  0
  7  2  1  0  0  0  0
  9  3  1  0  0  0  0
 10  3  1  0  0  0  0
 11  4  1  0  0  0  0
 16  1  1  0  0  0  0
 16 17  1  0  0  0  0
 18 16  1  0  0  0  0
 19 21  1  0  0  0  0
 19 16  1  0  0  0  0
 20 19  1  0  0  0  0
 22 23  1  0  0  0  0
 23 24  2  0  0  0  0
 23 29  1  0  0  0  0
 24 19  1  0  0  0  0
 25 24  1  0  0  0  0
 26 25  2  0  0  0  0
 27 26  1  0  0  0  0
 27 22  2  0  0  0  0
 28 22  1  0  0  0  0
 30 26  1  0  0  0  0
 31 33  1  0  0  0  0
 33 32  2  6  0  0  0
 33 36  1  0  0  0  0
 33 34  1  0  0  0  0
 35 34  1  0  0  0  0
 37 36  1  6  0  0  0
 37 38  1  0  0  0  0
 38 40  1  0  0  0  0
 38 39  1  0  0  0  0
 41 40  1  0  0  0  0
 42 40  1  0  0  0  0
 43 37  1  0  0  0  0
 43 42  1  0  0  0  0
 44 43  1  0  0  0  0
M  END
>  <minimizedAffinity>
-4.24355936

>  <minimizedRMSD>
1.43666697

$$$$
