
     RDKit          3D

 46 49  0  0  0  0  0  0  0  0999 V2000
   48.0413   34.5664   41.7269 C   0  0  0  0  0  0  0  0  0  0  0  0
   48.8440   35.8293   41.3971 C   0  0  0  0  0  0  0  0  0  0  0  0
   49.4519   34.7094   42.0674 C   0  0  0  0  0  0  0  0  0  0  0  0
   47.6693   33.7642   40.5295 C   0  0  0  0  0  0  0  0  0  0  0  0
   48.1333   34.3449   39.2028 C   0  0  0  0  0  0  0  0  0  0  0  0
   47.7504   33.2808   38.1652 C   0  0  0  0  0  0  0  0  0  0  0  0
   46.3644   33.4049   37.9845 O   0  0  0  0  0  0  0  0  0  0  0  0
   45.8325   32.8290   39.1659 C   0  0  0  0  0  0  0  0  0  0  0  0
   46.1371   33.7081   40.3581 C   0  0  0  0  0  0  0  0  0  0  0  0
   46.1409   35.7995   42.7977 C   0  0  0  0  0  0  0  0  0  0  0  0
   47.0023   34.7173   42.7924 C   0  0  0  0  0  0  0  0  0  0  0  0
   46.8646   33.7915   43.8203 C   0  0  0  0  0  0  0  0  0  0  0  0
   45.9123   33.9628   44.7845 N   0  0  0  0  0  0  0  0  0  0  0  0
   45.1133   35.0339   44.7269 C   0  0  0  0  0  0  0  0  0  0  0  0
   45.2147   35.9340   43.7657 N   0  0  0  0  0  0  0  0  0  0  0  0
   44.0995   35.2790   45.6944 N   0  0  0  0  0  0  0  0  0  0  0  0
   47.7468   32.6562   43.9808 C   0  0  0  0  0  0  0  0  0  0  0  0
   47.4895   31.4718   44.3229 O   0  0  0  0  0  0  0  0  0  0  0  0
   48.5007   36.7589   41.9279 H   0  0  0  0  0  0  0  0  0  0  0  0
   49.0667   36.0558   40.3363 H   0  0  0  0  0  0  0  0  0  0  0  0
   50.1676   34.0817   41.4712 H   0  0  0  0  0  0  0  0  0  0  0  0
   49.8766   34.9240   43.0476 H   0  0  0  0  0  0  0  0  0  0  0  0
   48.0411   32.7251   40.5407 H   0  0  0  0  0  0  0  0  0  0  0  0
   49.2342   34.3546   39.2039 H   0  0  0  0  0  0  0  0  0  0  0  0
   47.6649   35.3040   38.9769 H   0  0  0  0  0  0  0  0  0  0  0  0
   47.9776   32.2917   38.5788 H   0  0  0  0  0  0  0  0  0  0  0  0
   48.2109   33.4742   37.1823 H   0  0  0  0  0  0  0  0  0  0  0  0
   44.7248   32.8777   39.0353 H   0  0  0  0  0  0  0  0  0  0  0  0
   46.2140   31.8121   39.3377 H   0  0  0  0  0  0  0  0  0  0  0  0
   45.7093   34.7072   40.2376 H   0  0  0  0  0  0  0  0  0  0  0  0
   45.7771   33.1449   41.2457 H   0  0  0  0  0  0  0  0  0  0  0  0
   46.2630   36.5070   41.9917 H   0  0  0  0  0  0  0  0  0  0  0  0
   43.2091   34.7715   45.5635 H   0  0  0  0  0  0  0  0  0  0  0  0
   44.5074   35.9629   46.3667 H   0  0  0  0  0  0  0  0  0  0  0  0
   49.0496   31.9722   43.9655 C   0  0  2  0  0  0  0  0  0  0  0  0
   49.7131   32.0198   42.6026 C   0  0  2  0  0  0  0  0  0  0  0  0
   50.7674   31.6879   42.8106 H   0  0  0  0  0  0  0  0  0  0  0  0
   49.0475   30.9043   41.8737 C   0  0  2  0  0  0  0  0  0  0  0  0
   49.7995   30.1465   41.5068 H   0  0  0  0  0  0  0  0  0  0  0  0
   48.2512   30.2057   42.7694 O   0  0  0  0  0  0  0  0  0  0  0  0
   48.8260   30.4301   44.0185 C   0  0  2  0  0  0  0  0  0  0  0  0
   48.1478   30.1797   44.8365 H   0  0  0  0  0  0  0  0  0  0  0  0
   49.7431   32.1456   44.7732 H   0  0  0  0  0  0  0  0  0  0  0  0
   49.7896   32.9783   42.1239 H   0  0  0  0  0  0  0  0  0  0  0  0
   48.4054   31.2509   41.0337 H   0  0  0  0  0  0  0  0  0  0  0  0
   49.8168   29.9623   44.0644 H   0  0  0  0  0  0  0  0  0  0  0  0
  1  3  1  0
  1 11  1  0
  2  1  1  0
  2  3  1  0
  4  1  1  0
  5  4  1  0
  6  5  1  0
  7  6  1  0
  7  8  1  0
  8  9  1  0
  9  4  1  0
 10 11  2  0
 10 15  1  0
 11 12  1  0
 12 17  1  0
 12 13  2  0
 14 13  1  0
 14 16  1  0
 15 14  2  0
 17 18  2  0
  2 19  1  0
  2 20  1  0
  3 21  1  0
  3 22  1  0
  4 23  1  0
  5 24  1  0
  5 25  1  0
  6 26  1  0
  6 27  1  0
  8 28  1  0
  8 29  1  0
  9 30  1  0
  9 31  1  0
 10 32  1  0
 16 33  1  0
 16 34  1  0
 35 36  1  0
 36 37  1  1
 36 38  1  0
 38 39  1  6
 38 40  1  0
 40 41  1  0
 41 42  1  1
 41 35  1  0
 35 43  1  1
 36 44  1  0
 38 45  1  0
 41 46  1  0
 17 35  1  0
M  ISO  8  19  13  20  13  21  13  22  13  23  13  24  13  25  13  26  13
M  ISO  8  27  13  28  13  29  13  30  13  31  13  32  14  37  15  39  15
M  ISO  1  42  15
M  END
>  <DihAtoms>  (1) 
11,16,34,35

>  <DihDeg>  (1) 
-179.20601713313997

$$$$
