
     RDKit          3D

 25 26  0  0  0  0  0  0  0  0999 V2000
   44.9098   35.1357   44.0456 C   0  0  0  0  0  0  0  0  0  0  0  0
   45.7442   35.3874   42.9289 C   0  0  0  0  0  0  0  0  0  0  0  0
   46.9413   34.6821   42.8263 C   0  0  0  0  0  0  0  0  0  0  0  0
   47.2547   33.7968   43.7850 N   0  0  0  0  0  0  0  0  0  0  0  0
   46.4349   33.5707   44.8524 C   0  0  0  0  0  0  0  0  0  0  0  0
   45.2745   34.2427   44.9681 N   0  0  0  0  0  0  0  0  0  0  0  0
   43.6948   35.8357   44.1724 N   0  0  0  0  0  0  0  0  0  0  0  0
   47.7301   34.9878   41.6740 C   0  0  0  0  0  0  0  0  0  0  0  0
   48.6827   35.7961   41.6385 O   0  0  0  0  0  0  0  0  0  0  0  0
   45.4209   36.1183   42.1965 H   0  0  0  0  0  0  0  0  0  0  0  0
   46.8118   32.8339   45.5439 H   0  0  0  0  0  0  0  0  0  0  0  0
   43.3776   36.3793   45.0076 H   0  0  0  0  0  0  0  0  0  0  0  0
   43.1322   35.7319   43.2799 H   0  0  0  0  0  0  0  0  0  0  0  0
   47.2759   34.2065   40.4676 C   0  0  2  0  0  0  0  0  0  0  0  0
   46.1184   33.3120   40.7803 C   0  0  1  0  0  0  0  0  0  0  0  0
   45.6682   33.5712   41.7593 H   0  0  0  0  0  0  0  0  0  0  0  0
   46.7520   31.9359   40.7589 C   0  0  2  0  0  0  0  0  0  0  0  0
   45.9931   31.1487   40.5889 H   0  0  0  0  0  0  0  0  0  0  0  0
   47.6739   32.0370   39.7367 O   0  0  0  0  0  0  0  0  0  0  0  0
   48.3605   33.2027   40.0719 C   0  0  1  0  0  0  0  0  0  0  0  0
   49.0051   33.5907   39.2592 H   0  0  0  0  0  0  0  0  0  0  0  0
   47.1005   34.8866   39.6092 H   0  0  0  0  0  0  0  0  0  0  0  0
   45.3542   33.3326   39.9601 H   0  0  0  0  0  0  0  0  0  0  0  0
   47.2867   31.6851   41.6891 H   0  0  0  0  0  0  0  0  0  0  0  0
   48.9960   32.9386   40.9650 H   0  0  0  0  0  0  0  0  0  0  0  0
  1  7  1  0
  1  6  2  0
  2  1  1  0
  3  2  2  0
  3  4  1  0
  4  5  2  0
  5  6  1  0
  8  3  1  0
  9  8  2  0
  2 10  1  0
  5 11  1  0
  7 12  1  0
  7 13  1  0
 14 15  1  0
 15 16  1  1
 15 17  1  0
 17 18  1  6
 17 19  1  0
 19 20  1  0
 20 21  1  6
 20 14  1  0
 14 22  1  6
 15 23  1  0
 17 24  1  0
 20 25  1  0
  8 14  1  0
M  ISO  5  10  14  11  14  16  15  18  15  21  15
M  END
>  <DihAtoms>  (1) 
2,7,13,14

>  <DihDeg>  (1) 
-59.994839097030095

$$$$
