
 OpenBabel03252508513D

 27 29  0  0  1  0  0  0  0  0999 V2000
   45.9600   34.1410   41.0410 C   0  0  0  0  0  0  0  0  0  0  0  0
   46.5330   34.7980   42.1230 C   0  0  0  0  0  0  0  0  0  0  0  0
   47.8630   35.2020   41.9730 C   0  0  0  0  0  0  0  0  0  0  0  0
   48.5120   34.9380   40.8090 N   0  0  0  0  0  0  0  0  0  0  0  0
   47.9130   34.2970   39.7870 C   0  0  0  0  0  0  0  0  0  0  0  0
   46.6300   33.8970   39.9050 N   0  0  0  0  0  0  0  0  0  0  0  0
   48.3060   35.7130   42.8170 H   0  0  0  0  0  0  0  0  0  0  0  0
   48.4970   34.1260   38.8940 H   0  0  0  0  0  0  0  0  0  0  0  0
   45.7580   35.0340   43.3280 C   0  0  0  0  0  0  0  0  0  0  0  0
   45.0540   36.2170   43.5410 C   0  0  0  0  0  0  0  0  0  0  0  0
   44.4790   36.0060   44.7850 C   0  0  0  0  0  0  0  0  0  0  0  0
   44.8130   34.7850   45.2840 N   0  0  0  0  0  0  0  0  0  0  0  0
   45.5850   34.2300   44.3750 N   0  0  0  0  0  0  0  0  0  0  0  0
   44.9370   37.1090   42.9430 H   0  0  0  0  0  0  0  0  0  0  0  0
   43.8350   36.7450   45.2920 H   0  0  0  0  0  0  0  0  0  0  0  0
   44.4760   34.4420   46.2130 H   0  0  0  0  0  0  0  0  0  0  0  0
   44.6460   33.7260   41.1510 O   0  0  0  0  0  0  0  0  0  0  0  0
   43.5390   34.3550   40.6580 C   0  0  0  0  0  0  0  0  0  0  0  0
   43.3530   35.6090   40.5260 O   0  0  0  0  0  0  0  0  0  0  0  0
   42.2090   33.8970   40.1180 C   0  0  2  0  0  3  0  0  0  0  0  0
   42.3640   32.9090   39.0190 C   0  0  0  0  0  3  0  0  0  0  0  0
   43.2700   32.9660   38.4220 H   0  0  0  0  0  0  0  0  0  0  0  0
   41.1120   33.2280   38.1880 C   0  0  0  0  0  3  0  0  0  0  0  0
   41.1670   32.8290   37.1780 H   0  0  0  0  0  0  0  0  0  0  0  0
   41.2030   34.6370   38.1710 O   0  0  0  0  0  0  0  0  0  0  0  0
   41.4260   35.0140   39.4790 C   0  0  0  0  0  3  0  0  0  0  0  0
   41.9860   35.9670   39.5480 H   0  0  0  0  0  0  0  0  0  0  0  0
  1 17  1  0  0  0  0
  1  2  1  0  0  0  0
  2  9  1  0  0  0  0
  3  2  2  0  0  0  0
  3  7  1  0  0  0  0
  4  3  1  0  0  0  0
  5  6  1  0  0  0  0
  5  4  2  0  0  0  0
  6  1  2  0  0  0  0
  8  5  1  0  0  0  0
  9 10  1  0  0  0  0
  9 13  2  0  0  0  0
 10 11  2  0  0  0  0
 11 12  1  0  0  0  0
 11 15  1  0  0  0  0
 12 16  1  0  0  0  0
 13 12  1  0  0  0  0
 14 10  1  0  0  0  0
 18 17  1  0  0  0  0
 19 18  2  0  0  0  0
 20 18  1  6  0  0  0
 21 20  1  0  0  0  0
 22 21  1  0  0  0  0
 23 21  1  0  0  0  0
 24 23  1  0  0  0  0
 25 23  1  0  0  0  0
 25 26  1  0  0  0  0
 26 27  1  0  0  0  0
 26 20  1  0  0  0  0
M  END
>  <minimizedAffinity>
-5.15682364

>  <minimizedRMSD>
0.626623929

$$$$
