
 OpenBabel03242523313D

 21 22  0  0  1  0  0  0  0  0999 V2000
   45.6280   33.1510   46.7180 C   0  0  0  0  0  0  0  0  0  0  0  0
   46.0900   33.7290   47.5540 H   0  0  0  0  0  0  0  0  0  0  0  0
   44.6660   32.6770   47.0030 H   0  0  0  0  0  0  0  0  0  0  0  0
   44.5750   35.9570   44.5070 C   0  0  0  0  0  0  0  0  0  0  0  0
   45.3310   35.6950   43.3550 C   0  0  0  0  0  0  0  0  0  0  0  0
   46.1670   34.5890   43.3550 C   0  0  0  0  0  0  0  0  0  0  0  0
   46.2350   33.7990   44.4500 N   0  0  0  0  0  0  0  0  0  0  0  0
   45.4880   34.0710   45.5680 C   0  0  0  0  0  0  0  0  0  0  0  0
   44.6920   35.1350   45.5530 N   0  0  0  0  0  0  0  0  0  0  0  0
   43.9350   36.8280   44.4700 H   0  0  0  0  0  0  0  0  0  0  0  0
   45.3310   36.2750   42.4480 H   0  0  0  0  0  0  0  0  0  0  0  0
   46.7700   34.3420   42.4920 H   0  0  0  0  0  0  0  0  0  0  0  0
   46.8750   31.9070   46.2430 S   0  0  0  0  0  0  0  0  0  0  0  0
   46.9960   30.6200   47.5440 C   0  0  2  0  0  3  0  0  0  0  0  0
   47.1500   31.2530   48.8880 C   0  0  0  0  0  3  0  0  0  0  0  0
   47.0650   32.3630   48.7820 H   0  0  0  0  0  0  0  0  0  0  0  0
   48.5030   30.8090   49.3720 C   0  0  0  0  0  3  0  0  0  0  0  0
   48.4950   30.5060   50.4410 H   0  0  0  0  0  0  0  0  0  0  0  0
   48.8650   29.7030   48.6180 O   0  0  0  0  0  0  0  0  0  0  0  0
   48.2730   29.8630   47.3680 C   0  0  0  0  0  3  0  0  0  0  0  0
   48.1820   28.8890   46.8730 H   0  0  0  0  0  0  0  0  0  0  0  0
  1  3  1  0  0  0  0
  1  2  1  0  0  0  0
  4  9  1  0  0  0  0
  5  6  1  0  0  0  0
  5  4  2  0  0  0  0
  6  7  2  0  0  0  0
  7  8  1  0  0  0  0
  8  1  1  0  0  0  0
  9  8  2  0  0  0  0
 10  4  1  0  0  0  0
 11  5  1  0  0  0  0
 12  6  1  0  0  0  0
 13  1  1  0  0  0  0
 14 13  1  6  0  0  0
 14 15  1  0  0  0  0
 15 17  1  0  0  0  0
 16 15  1  0  0  0  0
 17 18  1  0  0  0  0
 19 17  1  0  0  0  0
 20 14  1  0  0  0  0
 20 19  1  0  0  0  0
 21 20  1  0  0  0  0
M  END
>  <minimizedAffinity>
-3.90552711

>  <minimizedRMSD>
1.47783768

$$$$
