
     RDKit          3D

 25 26  0  0  0  0  0  0  0  0999 V2000
   44.5182   36.0049   44.5300 C   0  0  0  0  0  0  0  0  0  0  0  0
   45.2164   35.8800   43.3198 C   0  0  0  0  0  0  0  0  0  0  0  0
   46.1079   34.8266   43.1813 C   0  0  0  0  0  0  0  0  0  0  0  0
   46.2818   33.9559   44.1999 N   0  0  0  0  0  0  0  0  0  0  0  0
   45.5892   34.0940   45.3771 C   0  0  0  0  0  0  0  0  0  0  0  0
   44.7394   35.1078   45.4949 N   0  0  0  0  0  0  0  0  0  0  0  0
   45.8449   33.0935   46.4363 C   0  0  0  0  0  0  0  0  0  0  0  0
   46.5251   31.6174   45.6056 S   0  0  0  0  0  0  0  0  0  0  0  0
   43.8322   36.8381   44.6019 H   0  0  0  0  0  0  0  0  0  0  0  0
   45.1317   36.5308   42.4666 H   0  0  0  0  0  0  0  0  0  0  0  0
   46.6704   34.6861   42.2691 H   0  0  0  0  0  0  0  0  0  0  0  0
   46.6750   33.4839   47.0715 H   0  0  0  0  0  0  0  0  0  0  0  0
   44.9344   32.8499   47.0196 H   0  0  0  0  0  0  0  0  0  0  0  0
   46.8735   30.3125   46.8467 C   0  0  2  0  0  0  0  0  0  0  0  0
   47.6236   29.1844   46.2200 C   0  0  1  0  0  0  0  0  0  0  0  0
   47.8681   29.4517   45.1614 H   0  0  0  0  0  0  0  0  0  0  0  0
   46.7047   27.9993   46.3314 C   0  0  2  0  0  0  0  0  0  0  0  0
   47.2363   27.0752   46.6453 H   0  0  0  0  0  0  0  0  0  0  0  0
   45.7628   28.3011   47.3038 O   0  0  0  0  0  0  0  0  0  0  0  0
   45.5860   29.6812   47.2698 C   0  0  1  0  0  0  0  0  0  0  0  0
   45.1807   30.0270   48.2280 H   0  0  0  0  0  0  0  0  0  0  0  0
   47.4594   30.7388   47.6684 H   0  0  0  0  0  0  0  0  0  0  0  0
   48.5960   29.0094   46.7249 H   0  0  0  0  0  0  0  0  0  0  0  0
   46.2499   27.8302   45.3314 H   0  0  0  0  0  0  0  0  0  0  0  0
   44.8003   29.9068   46.5060 H   0  0  0  0  0  0  0  0  0  0  0  0
  1  6  2  0
  2  1  1  0
  3  2  2  0
  3  4  1  0
  4  5  2  0
  5  6  1  0
  5  7  1  0
  8  7  1  0
  1  9  1  0
  2 10  1  0
  3 11  1  0
  7 12  1  0
  7 13  1  0
 14 15  1  0
 15 16  1  6
 15 17  1  0
 17 18  1  1
 17 19  1  0
 19 20  1  0
 20 21  1  1
 20 14  1  0
 14 22  1  1
 15 23  1  0
 17 24  1  0
 20 25  1  0
  8 14  1  0
M  ISO  8   9  14  10  14  11  14  12   8  13   8  16  15  18  15  21  15
M  END
>  <DihAtoms>  (1) 
6,7,13,14

>  <DihDeg>  (1) 
-66.19726945141684

$$$$
