
 OpenBabel03242523553D

 44 47  0  0  1  0  0  0  0  0999 V2000
   42.8210   34.5450   38.7320 C   0  0  1  0  0  0  0  0  0  0  0  0
   42.9620   35.1890   40.1050 C   0  0  1  0  0  0  0  0  0  0  0  0
   41.6750   35.4040   40.6290 O   0  0  0  0  0  0  0  0  0  0  0  0
   40.7490   35.7620   39.6460 C   0  0  0  0  0  0  0  0  0  0  0  0
   40.4400   34.6070   38.7140 C   0  0  2  0  0  0  0  0  0  0  0  0
   41.6510   33.6190   38.8240 C   0  0  1  0  0  0  0  0  0  0  0  0
   43.7640   34.0340   38.4470 H   0  0  0  0  0  0  0  0  0  0  0  0
   43.5550   36.1090   40.0910 H   0  0  0  0  0  0  0  0  0  0  0  0
   41.0380   36.6890   39.1240 H   0  0  0  0  0  0  0  0  0  0  0  0
   39.8200   35.9840   40.1860 H   0  0  0  0  0  0  0  0  0  0  0  0
   39.5210   34.0700   38.9980 H   0  0  0  0  0  0  0  0  0  0  0  0
   41.4450   33.3160   39.9010 H   0  0  0  0  0  0  0  0  0  0  0  0
   42.6050   35.5180   37.7460 O   0  0  0  0  0  0  0  0  0  0  0  0
   43.4950   35.9340   37.5990 H   0  0  0  0  0  0  0  0  0  0  0  0
   40.4540   35.0520   37.3990 O   0  0  0  0  0  0  0  0  0  0  0  0
   40.7640   34.4040   36.7450 H   0  0  0  0  0  0  0  0  0  0  0  0
   43.4970   34.1890   40.9290 O   0  0  0  0  0  0  0  0  0  0  0  0
   44.6030   34.3170   41.6740 C   0  0  0  0  0  0  0  0  0  0  0  0
   45.8690   34.4300   41.0790 C   0  0  0  0  0  0  0  0  0  0  0  0
   46.9730   34.5600   41.9080 C   0  0  0  0  0  0  0  0  0  0  0  0
   46.7980   34.5750   43.2790 N   0  0  0  0  0  0  0  0  0  0  0  0
   45.5610   34.4640   43.8150 C   0  0  0  0  0  0  0  0  0  0  0  0
   44.4680   34.3350   43.0200 N   0  0  0  0  0  0  0  0  0  0  0  0
   46.0030   34.4170   40.0060 H   0  0  0  0  0  0  0  0  0  0  0  0
   45.5050   34.4830   44.8910 H   0  0  0  0  0  0  0  0  0  0  0  0
   48.3580   34.6700   41.3420 C   0  0  0  0  0  0  0  0  0  0  0  0
   49.0620   36.0140   41.5190 C   0  0  0  0  0  0  0  0  0  0  0  0
   49.4980   34.7050   42.2020 C   0  0  0  0  0  0  0  0  0  0  0  0
   48.3940   34.2740   40.3080 H   0  0  0  0  0  0  0  0  0  0  0  0
   49.6490   36.3700   40.6750 H   0  0  0  0  0  0  0  0  0  0  0  0
   48.5380   36.7120   42.1860 H   0  0  0  0  0  0  0  0  0  0  0  0
   49.3640   34.6450   43.3130 H   0  0  0  0  0  0  0  0  0  0  0  0
   50.4990   34.3640   41.8820 H   0  0  0  0  0  0  0  0  0  0  0  0
   41.5200   32.7040   37.8460 O   0  0  0  0  0  0  0  0  0  0  0  0
   40.8100   31.5520   37.8440 C   0  0  0  0  0  0  0  0  0  0  0  0
   39.5270   31.5450   37.5700 O   0  0  0  0  0  0  0  0  0  0  0  0
   40.8990   30.0740   38.0520 C   0  0  2  0  0  3  0  0  0  0  0  0
   40.9320   29.4340   36.6600 C   0  0  0  0  0  3  0  0  0  0  0  0
   41.9300   29.4190   36.2140 H   0  0  0  0  0  0  0  0  0  0  0  0
   40.4430   28.0340   36.9910 C   0  0  0  0  0  3  0  0  0  0  0  0
   39.8960   27.5620   36.1480 H   0  0  0  0  0  0  0  0  0  0  0  0
   39.5650   28.1660   38.0520 O   0  0  0  0  0  0  0  0  0  0  0  0
   39.7260   29.4060   38.6390 C   0  0  0  0  0  3  0  0  0  0  0  0
   39.7600   29.3050   39.7430 H   0  0  0  0  0  0  0  0  0  0  0  0
  1  7  1  6  0  0  0
  1  6  1  0  0  0  0
  1  2  1  0  0  0  0
  2  8  1  6  0  0  0
  2  3  1  0  0  0  0
  2 17  1  0  0  0  0
  4 10  1  0  0  0  0
  4  3  1  0  0  0  0
  5  6  1  0  0  0  0
  5 11  1  1  0  0  0
  5  4  1  0  0  0  0
  6 12  1  1  0  0  0
  9  4  1  0  0  0  0
 13  1  1  0  0  0  0
 14 13  1  0  0  0  0
 15  5  1  0  0  0  0
 16 15  1  0  0  0  0
 17 18  1  0  0  0  0
 18 23  1  0  0  0  0
 19 18  2  0  0  0  0
 19 20  1  0  0  0  0
 20 21  2  0  0  0  0
 21 22  1  0  0  0  0
 22 25  1  0  0  0  0
 23 22  2  0  0  0  0
 24 19  1  0  0  0  0
 26 27  1  0  0  0  0
 26 20  1  0  0  0  0
 26 28  1  0  0  0  0
 27 31  1  0  0  0  0
 27 28  1  0  0  0  0
 28 32  1  0  0  0  0
 29 26  1  0  0  0  0
 30 27  1  0  0  0  0
 33 28  1  0  0  0  0
 34  6  1  0  0  0  0
 35 34  1  0  0  0  0
 36 35  2  0  0  0  0
 37 35  1  6  0  0  0
 37 43  1  0  0  0  0
 38 40  1  0  0  0  0
 38 37  1  0  0  0  0
 39 38  1  0  0  0  0
 40 42  1  0  0  0  0
 41 40  1  0  0  0  0
 42 43  1  0  0  0  0
 43 44  1  0  0  0  0
M  END
>  <minimizedAffinity>
-5.73961115

>  <minimizedRMSD>
0.371179849

$$$$
