
     RDKit          3D

 25 26  0  0  0  0  0  0  0  0999 V2000
   44.9258   35.1064   44.9417 C   0  0  0  0  0  0  0  0  0  0  0  0
   45.8238   34.7586   43.9418 C   0  0  0  0  0  0  0  0  0  0  0  0
   46.6725   33.6965   44.2124 C   0  0  0  0  0  0  0  0  0  0  0  0
   46.5970   33.0586   45.4024 N   0  0  0  0  0  0  0  0  0  0  0  0
   45.7115   33.4278   46.3450 C   0  0  0  0  0  0  0  0  0  0  0  0
   44.8749   34.4430   46.1310 N   0  0  0  0  0  0  0  0  0  0  0  0
   45.7955   35.5485   42.6821 C   0  0  0  0  0  0  0  0  0  0  0  0
   45.3347   36.8047   43.0321 F   0  0  0  0  0  0  0  0  0  0  0  0
   44.9157   34.9461   41.8202 F   0  0  0  0  0  0  0  0  0  0  0  0
   47.0809   35.5542   42.1663 F   0  0  0  0  0  0  0  0  0  0  0  0
   45.6137   32.7907   47.5730 O   0  0  0  0  0  0  0  0  0  0  0  0
   44.2112   35.9305   44.8301 H   0  0  0  0  0  0  0  0  0  0  0  0
   47.3666   33.4287   43.4377 H   0  0  0  0  0  0  0  0  0  0  0  0
   46.4060   31.7077   47.9772 C   0  0  2  0  0  0  0  0  0  0  0  0
   47.8862   32.0295   47.9155 C   0  0  1  0  0  0  0  0  0  0  0  0
   48.0946   32.5922   46.9976 H   0  0  0  0  0  0  0  0  0  0  0  0
   48.4435   30.6290   47.7563 C   0  0  1  0  0  0  0  0  0  0  0  0
   49.4927   30.6313   47.4196 H   0  0  0  0  0  0  0  0  0  0  0  0
   47.6145   30.1132   46.7639 O   0  0  0  0  0  0  0  0  0  0  0  0
   46.3273   30.5272   47.0544 C   0  0  1  0  0  0  0  0  0  0  0  0
   45.7888   29.6706   47.5126 H   0  0  0  0  0  0  0  0  0  0  0  0
   46.1760   31.3381   48.9939 H   0  0  0  0  0  0  0  0  0  0  0  0
   48.2520   32.5217   48.8381 H   0  0  0  0  0  0  0  0  0  0  0  0
   48.2939   30.1075   48.7175 H   0  0  0  0  0  0  0  0  0  0  0  0
   45.8507   30.8430   46.1183 H   0  0  0  0  0  0  0  0  0  0  0  0
  1  6  2  0
  2  3  2  0
  2  1  1  0
  3  4  1  0
  4  5  2  0
  5 11  1  0
  6  5  1  0
  7  8  1  0
  7  2  1  0
  9  7  1  0
 10  7  1  0
  1 12  1  0
  3 13  1  0
 14 15  1  0
 15 16  1  6
 15 17  1  0
 17 18  1  6
 17 19  1  0
 19 20  1  0
 20 21  1  1
 20 14  1  0
 14 22  1  1
 15 23  1  0
 17 24  1  0
 20 25  1  0
 11 14  1  0
M  ISO  5  12  14  13  14  16  15  18  15  21  15
M  END
>  <DihAtoms>  (1) 
4,10,13,14

>  <DihDeg>  (1) 
-123.23200116670833

$$$$
