
     RDKit          3D

 25 26  0  0  0  0  0  0  0  0999 V2000
   44.9258   35.1064   44.9417 C   0  0  0  0  0  0  0  0  0  0  0  0
   45.8238   34.7586   43.9418 C   0  0  0  0  0  0  0  0  0  0  0  0
   46.6725   33.6965   44.2124 C   0  0  0  0  0  0  0  0  0  0  0  0
   46.5970   33.0586   45.4024 N   0  0  0  0  0  0  0  0  0  0  0  0
   45.7115   33.4278   46.3450 C   0  0  0  0  0  0  0  0  0  0  0  0
   44.8749   34.4430   46.1310 N   0  0  0  0  0  0  0  0  0  0  0  0
   45.7955   35.5485   42.6821 C   0  0  0  0  0  0  0  0  0  0  0  0
   45.3347   36.8047   43.0321 F   0  0  0  0  0  0  0  0  0  0  0  0
   44.9157   34.9461   41.8202 F   0  0  0  0  0  0  0  0  0  0  0  0
   47.0809   35.5542   42.1663 F   0  0  0  0  0  0  0  0  0  0  0  0
   45.6137   32.7907   47.5730 O   0  0  0  0  0  0  0  0  0  0  0  0
   44.2112   35.9305   44.8301 H   0  0  0  0  0  0  0  0  0  0  0  0
   47.3666   33.4287   43.4377 H   0  0  0  0  0  0  0  0  0  0  0  0
   46.4060   31.7077   47.9772 C   0  0  2  0  0  0  0  0  0  0  0  0
   47.3464   31.2483   46.8804 C   0  0  1  0  0  0  0  0  0  0  0  0
   46.8124   31.2530   45.9226 H   0  0  0  0  0  0  0  0  0  0  0  0
   47.5507   29.8087   47.3084 C   0  0  1  0  0  0  0  0  0  0  0  0
   47.9902   29.1920   46.5081 H   0  0  0  0  0  0  0  0  0  0  0  0
   46.2425   29.4097   47.5682 O   0  0  0  0  0  0  0  0  0  0  0  0
   45.6243   30.4528   48.2332 C   0  0  1  0  0  0  0  0  0  0  0  0
   45.5861   30.1942   49.3127 H   0  0  0  0  0  0  0  0  0  0  0  0
   47.0059   31.9048   48.8852 H   0  0  0  0  0  0  0  0  0  0  0  0
   48.2958   31.8190   46.8693 H   0  0  0  0  0  0  0  0  0  0  0  0
   48.1573   29.8257   48.2304 H   0  0  0  0  0  0  0  0  0  0  0  0
   44.6169   30.5741   47.8165 H   0  0  0  0  0  0  0  0  0  0  0  0
  1  6  2  0
  2  3  2  0
  2  1  1  0
  3  4  1  0
  4  5  2  0
  5 11  1  0
  6  5  1  0
  7  8  1  0
  7  2  1  0
  9  7  1  0
 10  7  1  0
  1 12  1  0
  3 13  1  0
 14 15  1  0
 15 16  1  6
 15 17  1  0
 17 18  1  6
 17 19  1  0
 19 20  1  0
 20 21  1  1
 20 14  1  0
 14 22  1  1
 15 23  1  0
 17 24  1  0
 20 25  1  0
 11 14  1  0
M  ISO  5  12  14  13  14  16  15  18  15  21  15
M  END
>  <DihAtoms>  (1) 
4,10,13,14

>  <DihDeg>  (1) 
-123.23200116670833

$$$$
