
     RDKit          3D

 25 26  0  0  0  0  0  0  0  0999 V2000
   44.5182   36.0049   44.5300 C   0  0  0  0  0  0  0  0  0  0  0  0
   45.2164   35.8800   43.3198 C   0  0  0  0  0  0  0  0  0  0  0  0
   46.1079   34.8266   43.1813 C   0  0  0  0  0  0  0  0  0  0  0  0
   46.2818   33.9559   44.1999 N   0  0  0  0  0  0  0  0  0  0  0  0
   45.5892   34.0940   45.3771 C   0  0  0  0  0  0  0  0  0  0  0  0
   44.7394   35.1078   45.4949 N   0  0  0  0  0  0  0  0  0  0  0  0
   45.8449   33.0935   46.4363 C   0  0  0  0  0  0  0  0  0  0  0  0
   46.5251   31.6174   45.6056 S   0  0  0  0  0  0  0  0  0  0  0  0
   43.8322   36.8381   44.6019 H   0  0  0  0  0  0  0  0  0  0  0  0
   45.1317   36.5308   42.4666 H   0  0  0  0  0  0  0  0  0  0  0  0
   46.6704   34.6861   42.2691 H   0  0  0  0  0  0  0  0  0  0  0  0
   46.6750   33.4839   47.0715 H   0  0  0  0  0  0  0  0  0  0  0  0
   44.9344   32.8499   47.0196 H   0  0  0  0  0  0  0  0  0  0  0  0
   46.8735   30.3125   46.8467 C   0  0  2  0  0  0  0  0  0  0  0  0
   45.9730   29.1406   46.6373 C   0  0  1  0  0  0  0  0  0  0  0  0
   45.3626   29.3093   45.7150 H   0  0  0  0  0  0  0  0  0  0  0  0
   45.1419   29.0626   47.8881 C   0  0  2  0  0  0  0  0  0  0  0  0
   45.0279   28.0217   48.2604 H   0  0  0  0  0  0  0  0  0  0  0  0
   45.8008   29.7954   48.8642 O   0  0  0  0  0  0  0  0  0  0  0  0
   46.4875   30.8094   48.2029 C   0  0  1  0  0  0  0  0  0  0  0  0
   47.3129   31.1680   48.8291 H   0  0  0  0  0  0  0  0  0  0  0  0
   47.9197   29.9988   46.7611 H   0  0  0  0  0  0  0  0  0  0  0  0
   46.5489   28.2092   46.4583 H   0  0  0  0  0  0  0  0  0  0  0  0
   44.1360   29.4715   47.6505 H   0  0  0  0  0  0  0  0  0  0  0  0
   45.7904   31.6770   48.0893 H   0  0  0  0  0  0  0  0  0  0  0  0
  1  6  2  0
  2  1  1  0
  3  2  2  0
  3  4  1  0
  4  5  2  0
  5  6  1  0
  5  7  1  0
  8  7  1  0
  1  9  1  0
  2 10  1  0
  3 11  1  0
  7 12  1  0
  7 13  1  0
 14 15  1  0
 15 16  1  6
 15 17  1  0
 17 18  1  1
 17 19  1  0
 19 20  1  0
 20 21  1  1
 20 14  1  0
 14 22  1  1
 15 23  1  0
 17 24  1  0
 20 25  1  0
  8 14  1  0
M  ISO  8   9  14  10  14  11  14  12   8  13   8  16  15  18  15  21  15
M  END
>  <DihAtoms>  (1) 
6,7,13,14

>  <DihDeg>  (1) 
-66.19726945141684

$$$$
