
 OpenBabel03242516173D

 42 46  0  0  1  0  0  0  0  0999 V2000
   37.7550   27.6660   42.6400 C   0  0  0  0  0  0  0  0  0  0  0  0
   36.6250   27.3640   43.6300 C   0  0  0  0  0  0  0  0  0  0  0  0
   37.3500   28.6070   43.6780 C   0  0  0  0  0  0  0  0  0  0  0  0
   36.8240   26.5020   44.3250 H   0  0  0  0  0  0  0  0  0  0  0  0
   35.5840   27.3180   43.2540 H   0  0  0  0  0  0  0  0  0  0  0  0
   36.8130   29.5280   43.3250 H   0  0  0  0  0  0  0  0  0  0  0  0
   37.8630   28.8150   44.6170 H   0  0  0  0  0  0  0  0  0  0  0  0
   37.2830   27.8890   41.2450 C   0  0  0  0  0  0  0  0  0  0  0  0
   38.3480   28.3940   40.2850 C   0  0  0  0  0  0  0  0  0  0  0  0
   37.6520   28.4090   38.9170 C   0  0  0  0  0  0  0  0  0  0  0  0
   36.8150   29.5360   38.9260 O   0  0  0  0  0  0  0  0  0  0  0  0
   35.7460   29.1340   39.7660 C   0  0  0  0  0  0  0  0  0  0  0  0
   36.2220   29.0080   41.1950 C   0  0  0  0  0  0  0  0  0  0  0  0
   36.8490   26.9970   40.7610 H   0  0  0  0  0  0  0  0  0  0  0  0
   39.1230   27.6160   40.1980 H   0  0  0  0  0  0  0  0  0  0  0  0
   38.7190   29.3840   40.5500 H   0  0  0  0  0  0  0  0  0  0  0  0
   37.0430   27.5020   38.8250 H   0  0  0  0  0  0  0  0  0  0  0  0
   38.3650   28.5570   38.0890 H   0  0  0  0  0  0  0  0  0  0  0  0
   35.0400   30.0000   39.7630 H   0  0  0  0  0  0  0  0  0  0  0  0
   35.2900   28.1900   39.4340 H   0  0  0  0  0  0  0  0  0  0  0  0
   36.6190   29.9550   41.5700 H   0  0  0  0  0  0  0  0  0  0  0  0
   35.3600   28.6000   41.7650 H   0  0  0  0  0  0  0  0  0  0  0  0
   40.1440   27.4240   43.3560 C   0  0  0  0  0  0  0  0  0  0  0  0
   39.0030   26.8600   42.8130 C   0  0  0  0  0  0  0  0  0  0  0  0
   39.0750   25.5260   42.4290 C   0  0  0  0  0  0  0  0  0  0  0  0
   40.2340   24.8200   42.5910 N   0  0  0  0  0  0  0  0  0  0  0  0
   41.2980   25.4290   43.1240 C   0  0  0  0  0  0  0  0  0  0  0  0
   41.2670   26.6950   43.5000 N   0  0  0  0  0  0  0  0  0  0  0  0
   42.5370   24.7590   43.3240 N   0  0  0  0  0  0  0  0  0  0  0  0
   40.0680   28.4600   43.6490 H   0  0  0  0  0  0  0  0  0  0  0  0
   42.6100   24.1760   44.1730 H   0  0  0  0  0  0  0  0  0  0  0  0
   43.1370   25.0230   42.5130 H   0  0  0  0  0  0  0  0  0  0  0  0
   37.9850   24.8340   41.7760 C   0  0  2  0  0  3  0  0  0  0  0  0
   36.9600   24.2930   42.2670 O   0  0  0  0  0  0  0  0  0  0  0  0
   37.2550   24.2980   40.6160 C   0  0  2  0  0  0  0  0  0  0  0  0
   37.4780   22.8100   40.4280 C   0  0  0  0  0  3  0  0  0  0  0  0
   36.6870   22.5180   39.6840 H   0  0  0  0  0  0  0  0  0  0  0  0
   38.7830   22.7600   39.7120 C   0  0  0  0  0  3  0  0  0  0  0  0
   38.6880   22.2240   38.7230 H   0  0  0  0  0  0  0  0  0  0  0  0
   39.1510   24.0550   39.3770 O   0  0  0  0  0  0  0  0  0  0  0  0
   37.9550   24.7660   39.3040 C   0  0  0  0  0  3  0  0  0  0  0  0
   38.1150   25.8460   39.3300 H   0  0  0  0  0  0  0  0  0  0  0  0
  1 24  1  0  0  0  0
  1  2  1  0  0  0  0
  1  3  1  0  0  0  0
  2  3  1  0  0  0  0
  2  4  1  0  0  0  0
  3  7  1  0  0  0  0
  5  2  1  0  0  0  0
  6  3  1  0  0  0  0
  8  1  1  0  0  0  0
  9 16  1  0  0  0  0
  9  8  1  0  0  0  0
 10 11  1  0  0  0  0
 10  9  1  0  0  0  0
 11 12  1  0  0  0  0
 12 13  1  0  0  0  0
 13  8  1  0  0  0  0
 13 21  1  0  0  0  0
 13 22  1  0  0  0  0
 14  8  1  0  0  0  0
 15  9  1  0  0  0  0
 17 10  1  0  0  0  0
 18 10  1  0  0  0  0
 19 12  1  0  0  0  0
 20 12  1  0  0  0  0
 23 28  1  0  0  0  0
 23 30  1  0  0  0  0
 24 23  2  0  0  0  0
 25 26  2  0  0  0  0
 25 24  1  0  0  0  0
 26 27  1  0  0  0  0
 27 29  1  0  0  0  0
 27 28  2  0  0  0  0
 29 31  1  0  0  0  0
 32 29  1  0  0  0  0
 33 34  1  0  0  0  0
 33 25  1  1  0  0  0
 35 41  1  6  0  0  0
 35 33  1  0  0  0  0
 35 34  1  0  0  0  0
 36 35  1  0  0  0  0
 37 36  1  0  0  0  0
 38 36  1  0  0  0  0
 39 38  1  0  0  0  0
 40 38  1  0  0  0  0
 41 42  1  0  0  0  0
 41 40  1  0  0  0  0
M  END
>  <minimizedAffinity>
-5.69060373

$$$$

 OpenBabel03242516173D

 42 46  0  0  1  0  0  0  0  0999 V2000
   37.4030   27.3740   42.3360 C   0  0  0  0  0  0  0  0  0  0  0  0
   36.4110   27.4570   43.5010 C   0  0  0  0  0  0  0  0  0  0  0  0
   37.8030   27.7780   43.6790 C   0  0  0  0  0  0  0  0  0  0  0  0
   35.9560   26.4750   43.8050 H   0  0  0  0  0  0  0  0  0  0  0  0
   35.6350   28.2480   43.4850 H   0  0  0  0  0  0  0  0  0  0  0  0
   38.0670   28.8620   43.8100 H   0  0  0  0  0  0  0  0  0  0  0  0
   38.3320   27.1770   44.4200 H   0  0  0  0  0  0  0  0  0  0  0  0
   37.1990   28.4250   41.3020 C   0  0  0  0  0  0  0  0  0  0  0  0
   37.6880   29.8100   41.6940 C   0  0  0  0  0  0  0  0  0  0  0  0
   37.4900   30.6580   40.4300 C   0  0  0  0  0  0  0  0  0  0  0  0
   36.1140   30.9240   40.3590 O   0  0  0  0  0  0  0  0  0  0  0  0
   35.5680   29.6840   39.9380 C   0  0  0  0  0  0  0  0  0  0  0  0
   35.6970   28.6560   41.0400 C   0  0  0  0  0  0  0  0  0  0  0  0
   37.6770   28.2090   40.3300 H   0  0  0  0  0  0  0  0  0  0  0  0
   38.7790   29.7590   41.8320 H   0  0  0  0  0  0  0  0  0  0  0  0
   37.1370   30.2270   42.5390 H   0  0  0  0  0  0  0  0  0  0  0  0
   37.7930   30.0620   39.5600 H   0  0  0  0  0  0  0  0  0  0  0  0
   37.9930   31.6360   40.5020 H   0  0  0  0  0  0  0  0  0  0  0  0
   34.4730   29.8740   39.8350 H   0  0  0  0  0  0  0  0  0  0  0  0
   36.0420   29.3140   39.0180 H   0  0  0  0  0  0  0  0  0  0  0  0
   35.1750   28.9730   41.9460 H   0  0  0  0  0  0  0  0  0  0  0  0
   35.3390   27.6990   40.6010 H   0  0  0  0  0  0  0  0  0  0  0  0
   36.7450   25.0160   41.8030 C   0  0  0  0  0  0  0  0  0  0  0  0
   37.7200   25.9960   41.8500 C   0  0  0  0  0  0  0  0  0  0  0  0
   39.0000   25.6380   41.4410 C   0  0  0  0  0  0  0  0  0  0  0  0
   39.2600   24.3670   41.0120 N   0  0  0  0  0  0  0  0  0  0  0  0
   38.2670   23.4710   40.9910 C   0  0  0  0  0  0  0  0  0  0  0  0
   37.0400   23.7750   41.3740 N   0  0  0  0  0  0  0  0  0  0  0  0
   38.4620   22.1300   40.5570 N   0  0  0  0  0  0  0  0  0  0  0  0
   35.7580   25.3130   42.1240 H   0  0  0  0  0  0  0  0  0  0  0  0
   38.4490   21.9730   39.5370 H   0  0  0  0  0  0  0  0  0  0  0  0
   38.5840   21.5650   41.4250 H   0  0  0  0  0  0  0  0  0  0  0  0
   40.1300   26.5380   41.5130 C   0  0  2  0  0  3  0  0  0  0  0  0
   40.6150   27.3010   40.6370 O   0  0  0  0  0  0  0  0  0  0  0  0
   41.2670   27.1940   42.1790 C   0  0  2  0  0  0  0  0  0  0  0  0
   42.5990   26.5910   41.7800 C   0  0  0  0  0  3  0  0  0  0  0  0
   43.3500   27.3350   42.1630 H   0  0  0  0  0  0  0  0  0  0  0  0
   42.6950   25.3910   42.6570 C   0  0  0  0  0  3  0  0  0  0  0  0
   43.6230   25.4240   43.2980 H   0  0  0  0  0  0  0  0  0  0  0  0
   41.6420   25.4230   43.5610 O   0  0  0  0  0  0  0  0  0  0  0  0
   41.3030   26.7680   43.6780 C   0  0  0  0  0  3  0  0  0  0  0  0
   40.3190   26.9080   44.1310 H   0  0  0  0  0  0  0  0  0  0  0  0
  1  2  1  0  0  0  0
  1  3  1  0  0  0  0
  2  3  1  0  0  0  0
  2  4  1  0  0  0  0
  3  6  1  0  0  0  0
  3  7  1  0  0  0  0
  5  2  1  0  0  0  0
  8  9  1  0  0  0  0
  8  1  1  0  0  0  0
  9 15  1  0  0  0  0
  9 16  1  0  0  0  0
 10 18  1  0  0  0  0
 10  9  1  0  0  0  0
 11 10  1  0  0  0  0
 12 11  1  0  0  0  0
 12 13  1  0  0  0  0
 13  8  1  0  0  0  0
 13 21  1  0  0  0  0
 14  8  1  0  0  0  0
 17 10  1  0  0  0  0
 19 12  1  0  0  0  0
 20 12  1  0  0  0  0
 22 13  1  0  0  0  0
 23 24  1  0  0  0  0
 23 30  1  0  0  0  0
 24  1  1  0  0  0  0
 25 24  2  0  0  0  0
 26 25  1  0  0  0  0
 27 26  2  0  0  0  0
 27 28  1  0  0  0  0
 28 23  2  0  0  0  0
 29 27  1  0  0  0  0
 29 32  1  0  0  0  0
 31 29  1  0  0  0  0
 33 25  1  6  0  0  0
 33 35  1  0  0  0  0
 34 33  1  0  0  0  0
 35 34  1  6  0  0  0
 35 41  1  0  0  0  0
 36 37  1  0  0  0  0
 36 35  1  0  0  0  0
 36 38  1  0  0  0  0
 38 39  1  0  0  0  0
 38 40  1  0  0  0  0
 40 41  1  0  0  0  0
 41 42  1  0  0  0  0
M  END
>  <minimizedAffinity>
-5.35032654

$$$$

 OpenBabel03242516173D

 42 46  0  0  1  0  0  0  0  0999 V2000
   37.4590   27.8770   42.3580 C   0  0  0  0  0  0  0  0  0  0  0  0
   38.3080   27.7820   43.6300 C   0  0  0  0  0  0  0  0  0  0  0  0
   36.8740   27.6610   43.6770 C   0  0  0  0  0  0  0  0  0  0  0  0
   38.8610   28.7230   43.9000 H   0  0  0  0  0  0  0  0  0  0  0  0
   38.9650   26.9010   43.7680 H   0  0  0  0  0  0  0  0  0  0  0  0
   36.4520   26.6380   43.8670 H   0  0  0  0  0  0  0  0  0  0  0  0
   36.3620   28.3940   44.3000 H   0  0  0  0  0  0  0  0  0  0  0  0
   37.6190   26.7120   41.4450 C   0  0  0  0  0  0  0  0  0  0  0  0
   36.9210   26.8540   40.1010 C   0  0  0  0  0  0  0  0  0  0  0  0
   37.3470   25.6060   39.3160 C   0  0  0  0  0  0  0  0  0  0  0  0
   36.5930   24.5460   39.8420 O   0  0  0  0  0  0  0  0  0  0  0  0
   37.2140   24.3000   41.0930 C   0  0  0  0  0  0  0  0  0  0  0  0
   36.9580   25.4510   42.0390 C   0  0  0  0  0  0  0  0  0  0  0  0
   38.6660   26.4580   41.2060 H   0  0  0  0  0  0  0  0  0  0  0  0
   37.3840   27.6970   39.5660 H   0  0  0  0  0  0  0  0  0  0  0  0
   35.8360   26.9100   40.1950 H   0  0  0  0  0  0  0  0  0  0  0  0
   38.4120   25.4250   39.5010 H   0  0  0  0  0  0  0  0  0  0  0  0
   37.0830   25.6760   38.2480 H   0  0  0  0  0  0  0  0  0  0  0  0
   36.6580   23.4320   41.5220 H   0  0  0  0  0  0  0  0  0  0  0  0
   38.2950   24.1270   40.9910 H   0  0  0  0  0  0  0  0  0  0  0  0
   35.8880   25.5990   42.2080 H   0  0  0  0  0  0  0  0  0  0  0  0
   37.5520   25.2280   42.9510 H   0  0  0  0  0  0  0  0  0  0  0  0
   36.1910   29.9250   41.6700 C   0  0  0  0  0  0  0  0  0  0  0  0
   37.3850   29.2300   41.7260 C   0  0  0  0  0  0  0  0  0  0  0  0
   38.5010   29.8370   41.1610 C   0  0  0  0  0  0  0  0  0  0  0  0
   38.3990   31.0710   40.5810 N   0  0  0  0  0  0  0  0  0  0  0  0
   37.2120   31.6860   40.5640 C   0  0  0  0  0  0  0  0  0  0  0  0
   36.1310   31.1390   41.0900 N   0  0  0  0  0  0  0  0  0  0  0  0
   37.0290   32.9700   39.9790 N   0  0  0  0  0  0  0  0  0  0  0  0
   35.3370   29.4370   42.1140 H   0  0  0  0  0  0  0  0  0  0  0  0
   37.2920   33.7800   40.5630 H   0  0  0  0  0  0  0  0  0  0  0  0
   36.6430   32.7960   39.0260 H   0  0  0  0  0  0  0  0  0  0  0  0
   39.7930   29.1920   41.0780 C   0  0  2  0  0  3  0  0  0  0  0  0
   40.2290   28.3560   40.2440 O   0  0  0  0  0  0  0  0  0  0  0  0
   41.1680   28.9090   41.5200 C   0  0  2  0  0  0  0  0  0  0  0  0
   41.4600   29.4650   42.8990 C   0  0  0  0  0  3  0  0  0  0  0  0
   42.4280   28.9680   43.1840 H   0  0  0  0  0  0  0  0  0  0  0  0
   41.7760   30.8930   42.6190 C   0  0  0  0  0  3  0  0  0  0  0  0
   42.8070   31.1660   42.9880 H   0  0  0  0  0  0  0  0  0  0  0  0
   41.8360   31.0690   41.2440 O   0  0  0  0  0  0  0  0  0  0  0  0
   42.1610   29.8150   40.7310 C   0  0  0  0  0  3  0  0  0  0  0  0
   41.9630   29.7440   39.6590 H   0  0  0  0  0  0  0  0  0  0  0  0
  1  2  1  0  0  0  0
  1  3  1  0  0  0  0
  2  3  1  0  0  0  0
  2  5  1  0  0  0  0
  2  4  1  0  0  0  0
  3  6  1  0  0  0  0
  3  7  1  0  0  0  0
  8 13  1  0  0  0  0
  8  1  1  0  0  0  0
  9 16  1  0  0  0  0
  9  8  1  0  0  0  0
 10 17  1  0  0  0  0
 10 11  1  0  0  0  0
 10  9  1  0  0  0  0
 11 12  1  0  0  0  0
 12 19  1  0  0  0  0
 12 13  1  0  0  0  0
 13 21  1  0  0  0  0
 13 22  1  0  0  0  0
 14  8  1  0  0  0  0
 15  9  1  0  0  0  0
 18 10  1  0  0  0  0
 20 12  1  0  0  0  0
 23 24  1  0  0  0  0
 23 30  1  0  0  0  0
 24  1  1  0  0  0  0
 25 24  2  0  0  0  0
 26 25  1  0  0  0  0
 27 26  2  0  0  0  0
 27 28  1  0  0  0  0
 28 23  2  0  0  0  0
 29 31  1  0  0  0  0
 29 27  1  0  0  0  0
 32 29  1  0  0  0  0
 33 25  1  1  0  0  0
 33 35  1  0  0  0  0
 34 33  1  0  0  0  0
 35 34  1  6  0  0  0
 35 36  1  0  0  0  0
 36 37  1  0  0  0  0
 38 36  1  0  0  0  0
 38 39  1  0  0  0  0
 40 38  1  0  0  0  0
 41 40  1  0  0  0  0
 41 35  1  0  0  0  0
 42 41  1  0  0  0  0
M  END
>  <minimizedAffinity>
-5.27347517

$$$$

 OpenBabel03242516173D

 42 46  0  0  1  0  0  0  0  0999 V2000
   36.5070   29.1370   37.6850 C   0  0  0  0  0  0  0  0  0  0  0  0
   35.0590   28.6480   37.7970 C   0  0  0  0  0  0  0  0  0  0  0  0
   35.5450   29.2800   36.5980 C   0  0  0  0  0  0  0  0  0  0  0  0
   34.4400   29.1780   38.5720 H   0  0  0  0  0  0  0  0  0  0  0  0
   34.8670   27.5580   37.8360 H   0  0  0  0  0  0  0  0  0  0  0  0
   35.7120   28.6230   35.7030 H   0  0  0  0  0  0  0  0  0  0  0  0
   35.0160   30.1860   36.2990 H   0  0  0  0  0  0  0  0  0  0  0  0
   37.5070   28.0360   37.6180 C   0  0  0  0  0  0  0  0  0  0  0  0
   38.9500   28.4710   37.8160 C   0  0  0  0  0  0  0  0  0  0  0  0
   39.7450   27.1580   37.8380 C   0  0  0  0  0  0  0  0  0  0  0  0
   39.8260   26.7380   36.5020 O   0  0  0  0  0  0  0  0  0  0  0  0
   38.5190   26.2550   36.2370 C   0  0  0  0  0  0  0  0  0  0  0  0
   37.5330   27.4010   36.2130 C   0  0  0  0  0  0  0  0  0  0  0  0
   37.3420   27.2240   38.3470 H   0  0  0  0  0  0  0  0  0  0  0  0
   39.0450   28.8760   38.8360 H   0  0  0  0  0  0  0  0  0  0  0  0
   39.3020   29.1330   37.0240 H   0  0  0  0  0  0  0  0  0  0  0  0
   39.1830   26.4200   38.4210 H   0  0  0  0  0  0  0  0  0  0  0  0
   40.7830   27.3060   38.1820 H   0  0  0  0  0  0  0  0  0  0  0  0
   38.5620   25.8760   35.1880 H   0  0  0  0  0  0  0  0  0  0  0  0
   38.2020   25.4980   36.9690 H   0  0  0  0  0  0  0  0  0  0  0  0
   37.7920   28.1350   35.4450 H   0  0  0  0  0  0  0  0  0  0  0  0
   36.5320   26.9330   36.0980 H   0  0  0  0  0  0  0  0  0  0  0  0
   37.2330   31.5220   37.9450 C   0  0  0  0  0  0  0  0  0  0  0  0
   36.8590   30.3230   38.5260 C   0  0  0  0  0  0  0  0  0  0  0  0
   36.8370   30.2690   39.9150 C   0  0  0  0  0  0  0  0  0  0  0  0
   37.1750   31.3680   40.6560 N   0  0  0  0  0  0  0  0  0  0  0  0
   37.5250   32.4940   40.0270 C   0  0  0  0  0  0  0  0  0  0  0  0
   37.5570   32.5810   38.7090 N   0  0  0  0  0  0  0  0  0  0  0  0
   37.8880   33.6770   40.7300 N   0  0  0  0  0  0  0  0  0  0  0  0
   37.2430   31.5430   36.8670 H   0  0  0  0  0  0  0  0  0  0  0  0
   37.1090   34.2640   41.0700 H   0  0  0  0  0  0  0  0  0  0  0  0
   38.9300   33.6890   40.7490 H   0  0  0  0  0  0  0  0  0  0  0  0
   36.5430   29.0600   40.6530 C   0  0  2  0  0  3  0  0  0  0  0  0
   35.4460   28.6310   41.0990 O   0  0  0  0  0  0  0  0  0  0  0  0
   36.8820   27.7880   41.3100 C   0  0  2  0  0  0  0  0  0  0  0  0
   36.6340   27.8250   42.8050 C   0  0  0  0  0  3  0  0  0  0  0  0
   36.7010   26.7440   43.1100 H   0  0  0  0  0  0  0  0  0  0  0  0
   37.8590   28.4940   43.3260 C   0  0  0  0  0  3  0  0  0  0  0  0
   38.3970   27.8420   44.0740 H   0  0  0  0  0  0  0  0  0  0  0  0
   38.7570   28.6440   42.2790 O   0  0  0  0  0  0  0  0  0  0  0  0
   38.4320   27.6360   41.3740 C   0  0  0  0  0  3  0  0  0  0  0  0
   38.8660   27.8120   40.3880 H   0  0  0  0  0  0  0  0  0  0  0  0
  1  2  1  0  0  0  0
  1 24  1  0  0  0  0
  2  5  1  0  0  0  0
  2  4  1  0  0  0  0
  3  1  1  0  0  0  0
  3  2  1  0  0  0  0
  6  3  1  0  0  0  0
  7  3  1  0  0  0  0
  8  1  1  0  0  0  0
  8  9  1  0  0  0  0
  8 14  1  0  0  0  0
  9 10  1  0  0  0  0
  9 15  1  0  0  0  0
 10 18  1  0  0  0  0
 10 17  1  0  0  0  0
 11 10  1  0  0  0  0
 12 11  1  0  0  0  0
 12 20  1  0  0  0  0
 13 12  1  0  0  0  0
 13  8  1  0  0  0  0
 16  9  1  0  0  0  0
 19 12  1  0  0  0  0
 21 13  1  0  0  0  0
 22 13  1  0  0  0  0
 23 24  2  0  0  0  0
 23 28  1  0  0  0  0
 24 25  1  0  0  0  0
 25 26  2  0  0  0  0
 27 26  1  0  0  0  0
 27 29  1  0  0  0  0
 28 27  2  0  0  0  0
 29 32  1  0  0  0  0
 29 31  1  0  0  0  0
 30 23  1  0  0  0  0
 33 25  1  1  0  0  0
 33 34  1  0  0  0  0
 33 35  1  0  0  0  0
 35 34  1  6  0  0  0
 35 41  1  0  0  0  0
 35 36  1  0  0  0  0
 36 37  1  0  0  0  0
 36 38  1  0  0  0  0
 38 39  1  0  0  0  0
 40 38  1  0  0  0  0
 41 40  1  0  0  0  0
 42 41  1  0  0  0  0
M  END
>  <minimizedAffinity>
-5.16372347

$$$$

 OpenBabel03242516173D

 42 46  0  0  1  0  0  0  0  0999 V2000
   36.8080   28.6560   37.7340 C   0  0  0  0  0  0  0  0  0  0  0  0
   37.6870   28.4700   36.4920 C   0  0  0  0  0  0  0  0  0  0  0  0
   37.9400   27.7370   37.7050 C   0  0  0  0  0  0  0  0  0  0  0  0
   38.2690   29.3810   36.1840 H   0  0  0  0  0  0  0  0  0  0  0  0
   37.2520   27.9770   35.6010 H   0  0  0  0  0  0  0  0  0  0  0  0
   37.6860   26.6430   37.7060 H   0  0  0  0  0  0  0  0  0  0  0  0
   38.9250   27.8880   38.1470 H   0  0  0  0  0  0  0  0  0  0  0  0
   35.4330   28.1070   37.5810 C   0  0  0  0  0  0  0  0  0  0  0  0
   35.3660   26.7100   36.9830 C   0  0  0  0  0  0  0  0  0  0  0  0
   33.8810   26.3320   37.0590 C   0  0  0  0  0  0  0  0  0  0  0  0
   33.2520   27.0420   36.0250 O   0  0  0  0  0  0  0  0  0  0  0  0
   33.2160   28.3700   36.5220 C   0  0  0  0  0  0  0  0  0  0  0  0
   34.6130   28.9450   36.5780 C   0  0  0  0  0  0  0  0  0  0  0  0
   34.8550   28.0520   38.5190 H   0  0  0  0  0  0  0  0  0  0  0  0
   35.8690   26.0200   37.6780 H   0  0  0  0  0  0  0  0  0  0  0  0
   35.7310   26.6750   35.9550 H   0  0  0  0  0  0  0  0  0  0  0  0
   33.4850   26.6660   38.0260 H   0  0  0  0  0  0  0  0  0  0  0  0
   33.7120   25.2630   36.8500 H   0  0  0  0  0  0  0  0  0  0  0  0
   32.6840   28.9560   35.7340 H   0  0  0  0  0  0  0  0  0  0  0  0
   32.7420   28.4280   37.5130 H   0  0  0  0  0  0  0  0  0  0  0  0
   35.0800   28.9580   35.5890 H   0  0  0  0  0  0  0  0  0  0  0  0
   34.5100   29.9390   37.0630 H   0  0  0  0  0  0  0  0  0  0  0  0
   37.2260   31.1270   37.7230 C   0  0  0  0  0  0  0  0  0  0  0  0
   36.9390   29.9730   38.4300 C   0  0  0  0  0  0  0  0  0  0  0  0
   36.7910   30.0930   39.8070 C   0  0  0  0  0  0  0  0  0  0  0  0
   36.9280   31.3090   40.4160 N   0  0  0  0  0  0  0  0  0  0  0  0
   37.2050   32.3830   39.6680 C   0  0  0  0  0  0  0  0  0  0  0  0
   37.3520   32.3070   38.3580 N   0  0  0  0  0  0  0  0  0  0  0  0
   37.3600   33.6810   40.2300 N   0  0  0  0  0  0  0  0  0  0  0  0
   37.3360   31.0140   36.6550 H   0  0  0  0  0  0  0  0  0  0  0  0
   36.4900   34.2030   40.4240 H   0  0  0  0  0  0  0  0  0  0  0  0
   38.3870   33.8270   40.3300 H   0  0  0  0  0  0  0  0  0  0  0  0
   36.5690   28.9590   40.6770 C   0  0  2  0  0  3  0  0  0  0  0  0
   35.4960   28.5000   41.1510 O   0  0  0  0  0  0  0  0  0  0  0  0
   36.9850   27.8020   41.4870 C   0  0  2  0  0  0  0  0  0  0  0  0
   36.9690   28.1000   42.9730 C   0  0  0  0  0  3  0  0  0  0  0  0
   37.0640   27.0840   43.4460 H   0  0  0  0  0  0  0  0  0  0  0  0
   38.2690   28.7960   43.1840 C   0  0  0  0  0  3  0  0  0  0  0  0
   38.9040   28.2580   43.9450 H   0  0  0  0  0  0  0  0  0  0  0  0
   38.9990   28.7300   42.0060 O   0  0  0  0  0  0  0  0  0  0  0  0
   38.5240   27.5990   41.3460 C   0  0  0  0  0  3  0  0  0  0  0  0
   38.8050   27.5890   40.2910 H   0  0  0  0  0  0  0  0  0  0  0  0
  1 24  1  0  0  0  0
  2  3  1  0  0  0  0
  2  1  1  0  0  0  0
  3  6  1  0  0  0  0
  3  1  1  0  0  0  0
  3  7  1  0  0  0  0
  4  2  1  0  0  0  0
  5  2  1  0  0  0  0
  8  1  1  0  0  0  0
  8 14  1  0  0  0  0
  9 10  1  0  0  0  0
  9  8  1  0  0  0  0
  9 15  1  0  0  0  0
 10 17  1  0  0  0  0
 11 12  1  0  0  0  0
 11 10  1  0  0  0  0
 12 13  1  0  0  0  0
 12 20  1  0  0  0  0
 13 22  1  0  0  0  0
 13  8  1  0  0  0  0
 16  9  1  0  0  0  0
 18 10  1  0  0  0  0
 19 12  1  0  0  0  0
 21 13  1  0  0  0  0
 23 28  2  0  0  0  0
 23 24  1  0  0  0  0
 24 25  2  0  0  0  0
 25 26  1  0  0  0  0
 27 29  1  0  0  0  0
 27 26  2  0  0  0  0
 28 27  1  0  0  0  0
 29 32  1  0  0  0  0
 29 31  1  0  0  0  0
 30 23  1  0  0  0  0
 33 25  1  1  0  0  0
 33 34  1  0  0  0  0
 33 35  1  0  0  0  0
 35 34  1  6  0  0  0
 35 36  1  0  0  0  0
 36 38  1  0  0  0  0
 36 37  1  0  0  0  0
 38 39  1  0  0  0  0
 40 38  1  0  0  0  0
 41 35  1  0  0  0  0
 41 40  1  0  0  0  0
 42 41  1  0  0  0  0
M  END
>  <minimizedAffinity>
-5.15298891

$$$$

 OpenBabel03242516173D

 42 46  0  0  1  0  0  0  0  0999 V2000
   35.6950   28.9260   39.0450 C   0  0  0  0  0  0  0  0  0  0  0  0
   34.2700   28.8810   38.4830 C   0  0  0  0  0  0  0  0  0  0  0  0
   34.5170   29.1430   39.8770 C   0  0  0  0  0  0  0  0  0  0  0  0
   33.9500   27.8780   38.0870 H   0  0  0  0  0  0  0  0  0  0  0  0
   33.9440   29.6850   37.7950 H   0  0  0  0  0  0  0  0  0  0  0  0
   34.3550   30.1940   40.2380 H   0  0  0  0  0  0  0  0  0  0  0  0
   34.0610   28.4390   40.5740 H   0  0  0  0  0  0  0  0  0  0  0  0
   36.4800   30.1070   38.5910 C   0  0  0  0  0  0  0  0  0  0  0  0
   37.9530   29.8330   38.3350 C   0  0  0  0  0  0  0  0  0  0  0  0
   38.4920   31.1500   37.7580 C   0  0  0  0  0  0  0  0  0  0  0  0
   38.6190   32.0220   38.8500 O   0  0  0  0  0  0  0  0  0  0  0  0
   37.2760   32.3820   39.1310 C   0  0  0  0  0  0  0  0  0  0  0  0
   36.5210   31.1940   39.6840 C   0  0  0  0  0  0  0  0  0  0  0  0
   36.1030   30.5780   37.6660 H   0  0  0  0  0  0  0  0  0  0  0  0
   38.0250   29.1120   37.5060 H   0  0  0  0  0  0  0  0  0  0  0  0
   38.4920   29.5490   39.2400 H   0  0  0  0  0  0  0  0  0  0  0  0
   37.7530   31.5500   37.0540 H   0  0  0  0  0  0  0  0  0  0  0  0
   39.5020   31.0350   37.3320 H   0  0  0  0  0  0  0  0  0  0  0  0
   37.3460   33.1090   39.9760 H   0  0  0  0  0  0  0  0  0  0  0  0
   36.7600   32.7800   38.2450 H   0  0  0  0  0  0  0  0  0  0  0  0
   36.9790   30.8220   40.6040 H   0  0  0  0  0  0  0  0  0  0  0  0
   35.4670   31.5300   39.7850 H   0  0  0  0  0  0  0  0  0  0  0  0
   36.4500   26.7760   38.0030 C   0  0  0  0  0  0  0  0  0  0  0  0
   36.4120   27.6150   39.1020 C   0  0  0  0  0  0  0  0  0  0  0  0
   37.0560   27.1800   40.2550 C   0  0  0  0  0  0  0  0  0  0  0  0
   37.6940   25.9720   40.2790 N   0  0  0  0  0  0  0  0  0  0  0  0
   37.6910   25.2130   39.1780 C   0  0  0  0  0  0  0  0  0  0  0  0
   37.0890   25.5930   38.0650 N   0  0  0  0  0  0  0  0  0  0  0  0
   38.3340   23.9450   39.1270 N   0  0  0  0  0  0  0  0  0  0  0  0
   35.9450   27.1310   37.1180 H   0  0  0  0  0  0  0  0  0  0  0  0
   39.3530   23.9540   38.9580 H   0  0  0  0  0  0  0  0  0  0  0  0
   37.5830   23.2380   39.2820 H   0  0  0  0  0  0  0  0  0  0  0  0
   37.0290   27.9190   41.4990 C   0  0  2  0  0  3  0  0  0  0  0  0
   36.2180   27.8570   42.4600 O   0  0  0  0  0  0  0  0  0  0  0  0
   37.5250   28.9090   42.4680 C   0  0  2  0  0  0  0  0  0  0  0  0
   38.7790   29.6130   41.9870 C   0  0  0  0  0  3  0  0  0  0  0  0
   38.8830   30.4780   42.6970 H   0  0  0  0  0  0  0  0  0  0  0  0
   39.8550   28.6420   42.3320 C   0  0  0  0  0  3  0  0  0  0  0  0
   40.6230   29.1060   43.0150 H   0  0  0  0  0  0  0  0  0  0  0  0
   39.2960   27.6130   43.0770 O   0  0  0  0  0  0  0  0  0  0  0  0
   38.1700   28.1690   43.6790 C   0  0  0  0  0  3  0  0  0  0  0  0
   37.4870   27.4070   44.0590 H   0  0  0  0  0  0  0  0  0  0  0  0
  1 24  1  0  0  0  0
  1  3  1  0  0  0  0
  2  1  1  0  0  0  0
  2  3  1  0  0  0  0
  3  6  1  0  0  0  0
  3  7  1  0  0  0  0
  4  2  1  0  0  0  0
  5  2  1  0  0  0  0
  8  1  1  0  0  0  0
  8 13  1  0  0  0  0
  9  8  1  0  0  0  0
  9 16  1  0  0  0  0
 10  9  1  0  0  0  0
 10 11  1  0  0  0  0
 11 12  1  0  0  0  0
 12 13  1  0  0  0  0
 12 19  1  0  0  0  0
 13 22  1  0  0  0  0
 13 21  1  0  0  0  0
 14  8  1  0  0  0  0
 15  9  1  0  0  0  0
 17 10  1  0  0  0  0
 18 10  1  0  0  0  0
 20 12  1  0  0  0  0
 23 28  2  0  0  0  0
 23 24  1  0  0  0  0
 24 25  2  0  0  0  0
 25 26  1  0  0  0  0
 27 26  2  0  0  0  0
 28 27  1  0  0  0  0
 29 27  1  0  0  0  0
 29 32  1  0  0  0  0
 30 23  1  0  0  0  0
 31 29  1  0  0  0  0
 33 25  1  6  0  0  0
 33 34  1  0  0  0  0
 33 35  1  0  0  0  0
 34 35  1  0  0  0  0
 35 36  1  6  0  0  0
 35 41  1  0  0  0  0
 36 38  1  0  0  0  0
 36 37  1  0  0  0  0
 38 39  1  0  0  0  0
 38 40  1  0  0  0  0
 40 41  1  0  0  0  0
 41 42  1  0  0  0  0
M  END
>  <minimizedAffinity>
-5.05951738

$$$$

 OpenBabel03242516173D

 42 46  0  0  1  0  0  0  0  0999 V2000
   39.8560   29.9650   41.6310 C   0  0  0  0  0  0  0  0  0  0  0  0
   40.6870   30.8520   42.5660 C   0  0  0  0  0  0  0  0  0  0  0  0
   39.2940   30.5930   42.8210 C   0  0  0  0  0  0  0  0  0  0  0  0
   41.0670   31.8020   42.1000 H   0  0  0  0  0  0  0  0  0  0  0  0
   41.4820   30.3820   43.1780 H   0  0  0  0  0  0  0  0  0  0  0  0
   39.0480   29.9030   43.6730 H   0  0  0  0  0  0  0  0  0  0  0  0
   38.6540   31.4750   42.8630 H   0  0  0  0  0  0  0  0  0  0  0  0
   40.2270   28.5240   41.6880 C   0  0  0  0  0  0  0  0  0  0  0  0
   40.1150   27.7840   40.3640 C   0  0  0  0  0  0  0  0  0  0  0  0
   40.6740   26.3860   40.6600 C   0  0  0  0  0  0  0  0  0  0  0  0
   39.6670   25.7150   41.3710 O   0  0  0  0  0  0  0  0  0  0  0  0
   39.7330   26.3070   42.6580 C   0  0  0  0  0  0  0  0  0  0  0  0
   39.2590   27.7420   42.5980 C   0  0  0  0  0  0  0  0  0  0  0  0
   41.2530   28.3300   42.0470 H   0  0  0  0  0  0  0  0  0  0  0  0
   40.8350   28.2330   39.6630 H   0  0  0  0  0  0  0  0  0  0  0  0
   39.0890   27.7310   39.9980 H   0  0  0  0  0  0  0  0  0  0  0  0
   41.5610   26.4920   41.2950 H   0  0  0  0  0  0  0  0  0  0  0  0
   40.8460   25.8030   39.7400 H   0  0  0  0  0  0  0  0  0  0  0  0
   38.9660   25.7650   43.2620 H   0  0  0  0  0  0  0  0  0  0  0  0
   40.7460   26.2600   43.0840 H   0  0  0  0  0  0  0  0  0  0  0  0
   38.2280   27.8080   42.2400 H   0  0  0  0  0  0  0  0  0  0  0  0
   39.4320   28.1580   43.6140 H   0  0  0  0  0  0  0  0  0  0  0  0
   40.5710   31.0950   39.5120 C   0  0  0  0  0  0  0  0  0  0  0  0
   39.5650   30.5390   40.2810 C   0  0  0  0  0  0  0  0  0  0  0  0
   38.2800   30.5500   39.7500 C   0  0  0  0  0  0  0  0  0  0  0  0
   38.0440   31.0910   38.5180 N   0  0  0  0  0  0  0  0  0  0  0  0
   39.0660   31.6100   37.8290 C   0  0  0  0  0  0  0  0  0  0  0  0
   40.2990   31.6180   38.3010 N   0  0  0  0  0  0  0  0  0  0  0  0
   38.8980   32.1900   36.5400 N   0  0  0  0  0  0  0  0  0  0  0  0
   41.5610   31.0760   39.9410 H   0  0  0  0  0  0  0  0  0  0  0  0
   38.8660   31.5340   35.7440 H   0  0  0  0  0  0  0  0  0  0  0  0
   38.8400   33.2190   36.6970 H   0  0  0  0  0  0  0  0  0  0  0  0
   37.1230   30.0750   40.4770 C   0  0  2  0  0  3  0  0  0  0  0  0
   36.3600   30.6840   41.2730 O   0  0  0  0  0  0  0  0  0  0  0  0
   36.1350   29.0650   40.8920 C   0  0  2  0  0  0  0  0  0  0  0  0
   36.4820   27.6770   40.3920 C   0  0  0  0  0  3  0  0  0  0  0  0
   35.7950   27.0070   40.9790 H   0  0  0  0  0  0  0  0  0  0  0  0
   35.9730   27.6930   38.9920 C   0  0  0  0  0  3  0  0  0  0  0  0
   35.2160   26.8740   38.8210 H   0  0  0  0  0  0  0  0  0  0  0  0
   35.2660   28.8720   38.7950 O   0  0  0  0  0  0  0  0  0  0  0  0
   34.8280   29.2500   40.0620 C   0  0  0  0  0  3  0  0  0  0  0  0
   34.5090   30.2930   40.0940 H   0  0  0  0  0  0  0  0  0  0  0  0
  1  8  1  0  0  0  0
  1  2  1  0  0  0  0
  1  3  1  0  0  0  0
  2  3  1  0  0  0  0
  2  5  1  0  0  0  0
  3  7  1  0  0  0  0
  3  6  1  0  0  0  0
  4  2  1  0  0  0  0
  8 14  1  0  0  0  0
  8 13  1  0  0  0  0
  9 10  1  0  0  0  0
  9  8  1  0  0  0  0
 10 17  1  0  0  0  0
 10 11  1  0  0  0  0
 11 12  1  0  0  0  0
 12 20  1  0  0  0  0
 12 19  1  0  0  0  0
 13 12  1  0  0  0  0
 13 22  1  0  0  0  0
 15  9  1  0  0  0  0
 16  9  1  0  0  0  0
 18 10  1  0  0  0  0
 21 13  1  0  0  0  0
 23 30  1  0  0  0  0
 23 24  1  0  0  0  0
 24  1  1  0  0  0  0
 25 24  2  0  0  0  0
 26 25  1  0  0  0  0
 27 28  1  0  0  0  0
 27 26  2  0  0  0  0
 28 23  2  0  0  0  0
 29 32  1  0  0  0  0
 29 27  1  0  0  0  0
 31 29  1  0  0  0  0
 33 25  1  1  0  0  0
 33 35  1  0  0  0  0
 33 34  1  0  0  0  0
 35 41  1  6  0  0  0
 35 34  1  0  0  0  0
 36 35  1  0  0  0  0
 36 37  1  0  0  0  0
 38 36  1  0  0  0  0
 39 38  1  0  0  0  0
 40 38  1  0  0  0  0
 40 41  1  0  0  0  0
 41 42  1  0  0  0  0
M  END
>  <minimizedAffinity>
-5.0482378

$$$$

 OpenBabel03242516173D

 42 46  0  0  1  0  0  0  0  0999 V2000
   37.8290   30.9890   39.9740 C   0  0  0  0  0  0  0  0  0  0  0  0
   36.4840   31.2050   40.6770 C   0  0  0  0  0  0  0  0  0  0  0  0
   36.9490   32.1080   39.6560 C   0  0  0  0  0  0  0  0  0  0  0  0
   36.5560   31.4230   41.7780 H   0  0  0  0  0  0  0  0  0  0  0  0
   35.6610   30.4900   40.4830 H   0  0  0  0  0  0  0  0  0  0  0  0
   36.4350   32.0610   38.6580 H   0  0  0  0  0  0  0  0  0  0  0  0
   37.0630   33.1470   39.9650 H   0  0  0  0  0  0  0  0  0  0  0  0
   37.8460   29.8080   39.0670 C   0  0  0  0  0  0  0  0  0  0  0  0
   39.2290   29.3800   38.6030 C   0  0  0  0  0  0  0  0  0  0  0  0
   38.9830   28.0890   37.8100 C   0  0  0  0  0  0  0  0  0  0  0  0
   38.4550   28.4950   36.5740 O   0  0  0  0  0  0  0  0  0  0  0  0
   37.1260   28.8670   36.8990 C   0  0  0  0  0  0  0  0  0  0  0  0
   37.1250   30.1230   37.7400 C   0  0  0  0  0  0  0  0  0  0  0  0
   37.3830   28.9000   39.4900 H   0  0  0  0  0  0  0  0  0  0  0  0
   39.8000   29.0620   39.4890 H   0  0  0  0  0  0  0  0  0  0  0  0
   39.7190   30.1350   37.9880 H   0  0  0  0  0  0  0  0  0  0  0  0
   38.2400   27.4870   38.3450 H   0  0  0  0  0  0  0  0  0  0  0  0
   39.9210   27.5530   37.5870 H   0  0  0  0  0  0  0  0  0  0  0  0
   36.6650   29.1600   35.9260 H   0  0  0  0  0  0  0  0  0  0  0  0
   36.5870   28.0620   37.4200 H   0  0  0  0  0  0  0  0  0  0  0  0
   37.5980   30.9570   37.2140 H   0  0  0  0  0  0  0  0  0  0  0  0
   36.0660   30.2900   38.0300 H   0  0  0  0  0  0  0  0  0  0  0  0
   39.9550   32.2080   40.4950 C   0  0  0  0  0  0  0  0  0  0  0  0
   39.0450   31.2170   40.8150 C   0  0  0  0  0  0  0  0  0  0  0  0
   39.3170   30.4420   41.9360 C   0  0  0  0  0  0  0  0  0  0  0  0
   40.4430   30.6680   42.6780 N   0  0  0  0  0  0  0  0  0  0  0  0
   41.2790   31.6450   42.3100 C   0  0  0  0  0  0  0  0  0  0  0  0
   41.0530   32.4000   41.2500 N   0  0  0  0  0  0  0  0  0  0  0  0
   42.4690   31.9400   43.0320 N   0  0  0  0  0  0  0  0  0  0  0  0
   39.7260   32.7980   39.6210 H   0  0  0  0  0  0  0  0  0  0  0  0
   42.3600   32.5290   43.8730 H   0  0  0  0  0  0  0  0  0  0  0  0
   43.2400   31.4620   42.5180 H   0  0  0  0  0  0  0  0  0  0  0  0
   38.4940   29.3230   42.3400 C   0  0  2  0  0  3  0  0  0  0  0  0
   37.5030   29.2850   43.1160 O   0  0  0  0  0  0  0  0  0  0  0  0
   38.0850   27.9100   42.3520 C   0  0  2  0  0  0  0  0  0  0  0  0
   38.3690   27.2350   43.6800 C   0  0  0  0  0  3  0  0  0  0  0  0
   37.7940   26.2710   43.6140 H   0  0  0  0  0  0  0  0  0  0  0  0
   39.8120   26.8830   43.5690 C   0  0  0  0  0  3  0  0  0  0  0  0
   39.9750   25.7740   43.6950 H   0  0  0  0  0  0  0  0  0  0  0  0
   40.2330   27.1570   42.2750 O   0  0  0  0  0  0  0  0  0  0  0  0
   39.0830   27.0750   41.4930 C   0  0  0  0  0  3  0  0  0  0  0  0
   39.2160   27.5420   40.5150 H   0  0  0  0  0  0  0  0  0  0  0  0
  1  2  1  0  0  0  0
  1 24  1  0  0  0  0
  2  4  1  0  0  0  0
  3  7  1  0  0  0  0
  3  1  1  0  0  0  0
  3  2  1  0  0  0  0
  5  2  1  0  0  0  0
  6  3  1  0  0  0  0
  8 14  1  0  0  0  0
  8  1  1  0  0  0  0
  9  8  1  0  0  0  0
  9 15  1  0  0  0  0
 10 17  1  0  0  0  0
 10  9  1  0  0  0  0
 11 12  1  0  0  0  0
 11 10  1  0  0  0  0
 12 20  1  0  0  0  0
 12 13  1  0  0  0  0
 13 22  1  0  0  0  0
 13  8  1  0  0  0  0
 16  9  1  0  0  0  0
 18 10  1  0  0  0  0
 19 12  1  0  0  0  0
 21 13  1  0  0  0  0
 23 24  2  0  0  0  0
 23 28  1  0  0  0  0
 24 25  1  0  0  0  0
 25 26  2  0  0  0  0
 27 26  1  0  0  0  0
 27 29  1  0  0  0  0
 28 27  2  0  0  0  0
 29 31  1  0  0  0  0
 30 23  1  0  0  0  0
 32 29  1  0  0  0  0
 33 25  1  1  0  0  0
 33 35  1  0  0  0  0
 33 34  1  0  0  0  0
 35 41  1  6  0  0  0
 35 34  1  0  0  0  0
 35 36  1  0  0  0  0
 37 36  1  0  0  0  0
 38 36  1  0  0  0  0
 38 39  1  0  0  0  0
 40 38  1  0  0  0  0
 41 40  1  0  0  0  0
 42 41  1  0  0  0  0
M  END
>  <minimizedAffinity>
-5.03944874

$$$$

 OpenBabel03242516173D

 42 46  0  0  1  0  0  0  0  0999 V2000
   36.3120   28.9800   39.9370 C   0  0  0  0  0  0  0  0  0  0  0  0
   34.8230   29.1750   39.6360 C   0  0  0  0  0  0  0  0  0  0  0  0
   35.5090   27.9650   39.2660 C   0  0  0  0  0  0  0  0  0  0  0  0
   34.5920   30.0050   38.9130 H   0  0  0  0  0  0  0  0  0  0  0  0
   34.1070   29.1960   40.4810 H   0  0  0  0  0  0  0  0  0  0  0  0
   35.2810   27.0420   39.8640 H   0  0  0  0  0  0  0  0  0  0  0  0
   35.4990   27.7270   38.2010 H   0  0  0  0  0  0  0  0  0  0  0  0
   36.6130   28.8140   41.3860 C   0  0  0  0  0  0  0  0  0  0  0  0
   37.9090   29.4610   41.8470 C   0  0  0  0  0  0  0  0  0  0  0  0
   37.9120   29.2670   43.3700 C   0  0  0  0  0  0  0  0  0  0  0  0
   38.2520   27.9220   43.5830 O   0  0  0  0  0  0  0  0  0  0  0  0
   37.0660   27.2310   43.2280 C   0  0  0  0  0  0  0  0  0  0  0  0
   36.8310   27.3280   41.7370 C   0  0  0  0  0  0  0  0  0  0  0  0
   35.8320   29.2050   42.0620 H   0  0  0  0  0  0  0  0  0  0  0  0
   37.8160   30.5490   41.7020 H   0  0  0  0  0  0  0  0  0  0  0  0
   38.7900   29.0100   41.3900 H   0  0  0  0  0  0  0  0  0  0  0  0
   36.9000   29.4530   43.7470 H   0  0  0  0  0  0  0  0  0  0  0  0
   38.6940   29.8680   43.8640 H   0  0  0  0  0  0  0  0  0  0  0  0
   37.2930   26.1550   43.4240 H   0  0  0  0  0  0  0  0  0  0  0  0
   36.1890   27.6060   43.7750 H   0  0  0  0  0  0  0  0  0  0  0  0
   37.6630   26.9000   41.1720 H   0  0  0  0  0  0  0  0  0  0  0  0
   35.8440   26.8510   41.5570 H   0  0  0  0  0  0  0  0  0  0  0  0
   36.9630   31.1550   38.8780 C   0  0  0  0  0  0  0  0  0  0  0  0
   37.2520   29.8290   39.1420 C   0  0  0  0  0  0  0  0  0  0  0  0
   38.4410   29.3230   38.6280 C   0  0  0  0  0  0  0  0  0  0  0  0
   39.2750   30.1220   37.8960 N   0  0  0  0  0  0  0  0  0  0  0  0
   38.9310   31.3970   37.6800 C   0  0  0  0  0  0  0  0  0  0  0  0
   37.8100   31.9100   38.1530 N   0  0  0  0  0  0  0  0  0  0  0  0
   39.7470   32.2870   36.9290 N   0  0  0  0  0  0  0  0  0  0  0  0
   36.0360   31.5290   39.2860 H   0  0  0  0  0  0  0  0  0  0  0  0
   40.5350   32.7230   37.4350 H   0  0  0  0  0  0  0  0  0  0  0  0
   39.3410   32.3040   35.9690 H   0  0  0  0  0  0  0  0  0  0  0  0
   38.8310   27.9360   38.7600 C   0  0  1  0  0  3  0  0  0  0  0  0
   39.6050   27.3880   39.5880 O   0  0  0  0  0  0  0  0  0  0  0  0
   38.8250   26.5130   38.3880 C   0  0  2  0  0  0  0  0  0  0  0  0
   40.1800   26.0350   37.9050 C   0  0  0  0  0  3  0  0  0  0  0  0
   40.0770   24.9150   37.8990 H   0  0  0  0  0  0  0  0  0  0  0  0
   40.1960   26.4730   36.4820 C   0  0  0  0  0  3  0  0  0  0  0  0
   40.3490   25.5990   35.7840 H   0  0  0  0  0  0  0  0  0  0  0  0
   38.9390   26.9650   36.1590 O   0  0  0  0  0  0  0  0  0  0  0  0
   38.0640   26.3340   37.0390 C   0  0  0  0  0  3  0  0  0  0  0  0
   37.0950   26.8350   37.0870 H   0  0  0  0  0  0  0  0  0  0  0  0
  1  8  1  0  0  0  0
  2  1  1  0  0  0  0
  2  5  1  0  0  0  0
  3  2  1  0  0  0  0
  3  6  1  0  0  0  0
  3  1  1  0  0  0  0
  4  2  1  0  0  0  0
  7  3  1  0  0  0  0
  8 13  1  0  0  0  0
  8  9  1  0  0  0  0
  8 14  1  0  0  0  0
  9 10  1  0  0  0  0
 10 11  1  0  0  0  0
 10 17  1  0  0  0  0
 10 18  1  0  0  0  0
 12 19  1  0  0  0  0
 12 11  1  0  0  0  0
 12 20  1  0  0  0  0
 13 12  1  0  0  0  0
 15  9  1  0  0  0  0
 16  9  1  0  0  0  0
 21 13  1  0  0  0  0
 22 13  1  0  0  0  0
 23 24  1  0  0  0  0
 23 30  1  0  0  0  0
 24  1  1  0  0  0  0
 25 24  2  0  0  0  0
 26 25  1  0  0  0  0
 27 26  2  0  0  0  0
 27 28  1  0  0  0  0
 28 23  2  0  0  0  0
 29 31  1  0  0  0  0
 29 27  1  0  0  0  0
 32 29  1  0  0  0  0
 33 25  1  1  0  0  0
 33 34  1  0  0  0  0
 35 41  1  1  0  0  0
 35 33  1  0  0  0  0
 35 34  1  0  0  0  0
 36 35  1  0  0  0  0
 37 36  1  0  0  0  0
 38 36  1  0  0  0  0
 39 38  1  0  0  0  0
 40 38  1  0  0  0  0
 40 41  1  0  0  0  0
 41 42  1  0  0  0  0
M  END
>  <minimizedAffinity>
-5.03141403

$$$$
