
 OpenBabel03252509003D

 44 46  0  0  1  0  0  0  0  0999 V2000
   46.7230   34.5050   43.5100 N   0  0  0  0  0  0  0  0  0  0  0  0
   46.2440   35.5770   42.7160 C   0  0  0  0  0  0  0  0  0  0  0  0
   44.7460   35.7760   42.7300 C   0  0  0  0  0  0  0  0  0  0  0  0
   44.0920   35.4290   44.0410 C   0  0  0  0  0  0  0  0  0  0  0  0
   45.1010   35.0330   45.0890 C   0  0  0  0  0  0  0  0  0  0  0  0
   45.8890   33.8560   44.4060 C   0  0  2  0  0  0  0  0  0  0  0  0
   46.5600   35.5790   41.6690 H   0  0  0  0  0  0  0  0  0  0  0  0
   46.6780   36.5190   43.1470 H   0  0  0  0  0  0  0  0  0  0  0  0
   44.5230   36.8560   42.5270 H   0  0  0  0  0  0  0  0  0  0  0  0
   44.3310   35.2230   41.8670 H   0  0  0  0  0  0  0  0  0  0  0  0
   43.4510   34.5350   43.8780 H   0  0  0  0  0  0  0  0  0  0  0  0
   43.4850   36.2520   44.4660 H   0  0  0  0  0  0  0  0  0  0  0  0
   45.8010   35.8270   45.3620 H   0  0  0  0  0  0  0  0  0  0  0  0
   44.5770   34.5690   45.9420 H   0  0  0  0  0  0  0  0  0  0  0  0
   45.1200   33.1610   44.0090 H   0  0  0  0  0  0  0  0  0  0  0  0
   47.8060   33.7750   42.9180 C   0  0  0  0  0  0  0  0  0  0  0  0
   48.4130   33.2580   43.6940 H   0  0  0  0  0  0  0  0  0  0  0  0
   48.4700   34.4700   42.4010 H   0  0  0  0  0  0  0  0  0  0  0  0
   47.2390   32.7270   42.0080 C   0  0  0  0  0  0  0  0  0  0  0  0
   46.1290   32.8090   41.9470 H   0  0  0  0  0  0  0  0  0  0  0  0
   47.4480   31.7140   42.3690 H   0  0  0  0  0  0  0  0  0  0  0  0
   49.1200   32.0740   38.8220 C   0  0  0  0  0  0  0  0  0  0  0  0
   48.5840   31.9210   40.1120 C   0  0  0  0  0  0  0  0  0  0  0  0
   47.7970   32.9100   40.6420 C   0  0  0  0  0  0  0  0  0  0  0  0
   47.5750   33.9930   39.8910 N   0  0  0  0  0  0  0  0  0  0  0  0
   48.0890   34.1400   38.6540 C   0  0  0  0  0  0  0  0  0  0  0  0
   48.8580   33.1960   38.1110 N   0  0  0  0  0  0  0  0  0  0  0  0
   49.7390   31.2730   38.4320 H   0  0  0  0  0  0  0  0  0  0  0  0
   48.7780   31.0320   40.7030 H   0  0  0  0  0  0  0  0  0  0  0  0
   47.8080   35.0660   38.2010 H   0  0  0  0  0  0  0  0  0  0  0  0
   46.5940   33.3340   45.4830 O   0  0  0  0  0  0  0  0  0  0  0  0
   45.5220   31.0930   44.5890 O   0  0  0  0  0  0  0  0  0  0  0  0
   46.2760   31.7060   45.7460 P   0  0  2  0  0  0  0  0  0  0  0  0
   45.2000   31.6420   47.0760 O   0  0  0  0  0  0  0  0  0  0  0  0
   44.2750   31.8610   46.7620 H   0  0  0  0  0  0  0  0  0  0  0  0
   47.6680   30.8870   46.1570 O   0  0  0  0  0  0  0  0  0  0  0  0
   47.5300   29.9160   47.0960 C   0  0  2  0  0  3  0  0  0  0  0  0
   48.9240   29.5870   47.6150 C   0  0  0  0  0  3  0  0  0  0  0  0
   49.1890   30.2140   48.4890 H   0  0  0  0  0  0  0  0  0  0  0  0
   48.8000   28.1210   47.9460 C   0  0  0  0  0  3  0  0  0  0  0  0
   49.6140   27.5400   47.4800 H   0  0  0  0  0  0  0  0  0  0  0  0
   47.5470   27.6900   47.5500 O   0  0  0  0  0  0  0  0  0  0  0  0
   47.1060   28.5740   46.5640 C   0  0  0  0  0  3  0  0  0  0  0  0
   47.5830   28.3840   45.5900 H   0  0  0  0  0  0  0  0  0  0  0  0
  1  6  1  0  0  0  0
  2  3  1  0  0  0  0
  2  8  1  0  0  0  0
  2  1  1  0  0  0  0
  3  4  1  0  0  0  0
  4 12  1  0  0  0  0
  4  5  1  0  0  0  0
  5 13  1  0  0  0  0
  5 14  1  0  0  0  0
  6 15  1  6  0  0  0
  6  5  1  0  0  0  0
  6 31  1  0  0  0  0
  7  2  1  0  0  0  0
  9  3  1  0  0  0  0
 10  3  1  0  0  0  0
 11  4  1  0  0  0  0
 16  1  1  0  0  0  0
 16 17  1  0  0  0  0
 18 16  1  0  0  0  0
 19 21  1  0  0  0  0
 19 16  1  0  0  0  0
 20 19  1  0  0  0  0
 22 23  1  0  0  0  0
 23 24  2  0  0  0  0
 23 29  1  0  0  0  0
 24 19  1  0  0  0  0
 25 24  1  0  0  0  0
 26 25  2  0  0  0  0
 27 26  1  0  0  0  0
 27 22  2  0  0  0  0
 28 22  1  0  0  0  0
 30 26  1  0  0  0  0
 31 33  1  0  0  0  0
 33 32  2  6  0  0  0
 33 36  1  0  0  0  0
 33 34  1  0  0  0  0
 35 34  1  0  0  0  0
 37 36  1  6  0  0  0
 37 38  1  0  0  0  0
 38 40  1  0  0  0  0
 38 39  1  0  0  0  0
 41 40  1  0  0  0  0
 42 40  1  0  0  0  0
 43 37  1  0  0  0  0
 43 42  1  0  0  0  0
 44 43  1  0  0  0  0
M  END
>  <minimizedAffinity>
-4.22742271

>  <minimizedRMSD>
0.968268096

$$$$
