
 OpenBabel03252503373D

 41 44  0  0  1  0  0  0  0  0999 V2000
   40.0760   27.6930   43.2940 C   0  0  0  0  0  0  0  0  0  0  0  0
   38.9210   28.1120   42.7770 C   0  0  0  0  0  0  0  0  0  0  0  0
   38.8390   29.3660   42.1220 N   0  0  0  0  0  0  0  0  0  0  0  0
   38.3080   30.1760   41.0920 C   0  0  0  0  0  0  0  0  0  0  0  0
   37.4270   30.0370   40.1870 O   0  0  0  0  0  0  0  0  0  0  0  0
   39.1370   31.3330   41.3860 C   0  0  1  0  0  0  0  0  0  0  0  0
   39.5980   30.5150   42.5660 C   0  0  2  0  0  0  0  0  0  0  0  0
   41.3290   30.0490   42.5880 S   0  0  0  0  0  0  0  0  0  0  0  0
   41.3900   28.3970   43.2840 C   0  0  0  0  0  0  0  0  0  0  0  0
   38.6440   32.2420   41.7970 H   0  0  0  0  0  0  0  0  0  0  0  0
   39.2730   30.8990   43.5670 H   0  0  0  0  0  0  0  0  0  0  0  0
   41.7110   28.4900   44.3420 H   0  0  0  0  0  0  0  0  0  0  0  0
   42.1310   27.7600   42.7610 H   0  0  0  0  0  0  0  0  0  0  0  0
   40.1270   31.6020   40.3400 C   0  0  0  0  0  0  0  0  0  0  0  0
   40.5210   30.9250   39.3720 O   0  0  0  0  0  0  0  0  0  0  0  0
   40.7570   32.8970   40.4640 N   0  0  0  0  0  0  0  0  0  0  0  0
   40.6150   33.6970   41.1180 H   0  0  0  0  0  0  0  0  0  0  0  0
   42.6360   34.2790   37.5710 C   0  0  0  0  0  0  0  0  0  0  0  0
   41.5450   33.9280   38.3780 C   0  0  0  0  0  0  0  0  0  0  0  0
   41.7880   33.2900   39.5810 C   0  0  0  0  0  0  0  0  0  0  0  0
   43.0630   33.0270   39.9370 N   0  0  0  0  0  0  0  0  0  0  0  0
   44.1170   33.3740   39.1410 C   0  0  0  0  0  0  0  0  0  0  0  0
   43.8730   33.9990   37.9650 N   0  0  0  0  0  0  0  0  0  0  0  0
   42.4990   34.7740   36.6300 H   0  0  0  0  0  0  0  0  0  0  0  0
   40.5420   34.1420   38.0830 H   0  0  0  0  0  0  0  0  0  0  0  0
   45.0860   33.1090   39.5370 H   0  0  0  0  0  0  0  0  0  0  0  0
   40.0240   26.3650   43.9530 C   0  0  0  0  0  0  0  0  0  0  0  0
   40.8190   26.2780   44.7260 H   0  0  0  0  0  0  0  0  0  0  0  0
   40.2240   25.5690   43.2060 H   0  0  0  0  0  0  0  0  0  0  0  0
   39.0600   26.2000   44.4890 H   0  0  0  0  0  0  0  0  0  0  0  0
   37.7140   27.3080   42.8630 C   0  0  0  0  0  0  0  0  0  0  0  0
   36.7780   27.5630   43.6680 O   0  0  0  0  0  0  0  0  0  0  0  0
   37.2820   26.1720   42.1840 O   0  0  0  0  0  0  0  0  0  0  0  0
   37.7690   25.7850   40.9410 C   0  0  1  0  0  3  0  0  0  0  0  0
   38.6430   24.5560   41.1750 C   0  0  0  0  0  3  0  0  0  0  0  0
   39.0800   24.6090   42.2080 H   0  0  0  0  0  0  0  0  0  0  0  0
   37.6620   23.4390   41.0250 C   0  0  0  0  0  3  0  0  0  0  0  0
   37.7470   22.9200   40.0440 H   0  0  0  0  0  0  0  0  0  0  0  0
   36.3830   24.0200   41.0400 O   0  0  0  0  0  0  0  0  0  0  0  0
   36.5920   25.1270   40.2090 C   0  0  0  0  0  3  0  0  0  0  0  0
   35.6840   25.7890   40.2410 H   0  0  0  0  0  0  0  0  0  0  0  0
  1 27  1  0  0  0  0
  2 31  1  0  0  0  0
  2  1  2  0  0  0  0
  3  7  1  0  0  0  0
  3  2  1  0  0  0  0
  4  6  1  0  0  0  0
  4  3  1  0  0  0  0
  5  4  2  0  0  0  0
  6 10  1  1  0  0  0
  6  7  1  0  0  0  0
  7  8  1  0  0  0  0
  7 11  1  1  0  0  0
  8  9  1  0  0  0  0
  9  1  1  0  0  0  0
  9 12  1  0  0  0  0
 13  9  1  0  0  0  0
 14 16  1  0  0  0  0
 14  6  1  0  0  0  0
 15 14  2  0  0  0  0
 16 17  1  0  0  0  0
 18 23  2  0  0  0  0
 18 19  1  0  0  0  0
 19 20  2  0  0  0  0
 20 21  1  0  0  0  0
 20 16  1  0  0  0  0
 22 26  1  0  0  0  0
 22 21  2  0  0  0  0
 23 22  1  0  0  0  0
 24 18  1  0  0  0  0
 25 19  1  0  0  0  0
 27 30  1  0  0  0  0
 27 28  1  0  0  0  0
 29 27  1  0  0  0  0
 31 32  2  0  0  0  0
 33 31  1  0  0  0  0
 34 35  1  0  0  0  0
 34 33  1  1  0  0  0
 35 36  1  0  0  0  0
 37 39  1  0  0  0  0
 37 35  1  0  0  0  0
 38 37  1  0  0  0  0
 40 41  1  0  0  0  0
 40 34  1  0  0  0  0
 40 39  1  0  0  0  0
M  END
>  <minimizedAffinity>
-5.53427124

$$$$

 OpenBabel03252503373D

 41 44  0  0  1  0  0  0  0  0999 V2000
   37.7380   32.6200   40.1900 C   0  0  0  0  0  0  0  0  0  0  0  0
   39.0440   32.4810   40.4180 C   0  0  0  0  0  0  0  0  0  0  0  0
   39.5470   31.3050   41.0280 N   0  0  0  0  0  0  0  0  0  0  0  0
   40.5590   30.3250   41.1480 C   0  0  0  0  0  0  0  0  0  0  0  0
   41.7190   30.1500   40.6590 O   0  0  0  0  0  0  0  0  0  0  0  0
   39.8290   29.4860   42.0820 C   0  0  1  0  0  0  0  0  0  0  0  0
   38.8130   30.6010   42.0580 C   0  0  2  0  0  0  0  0  0  0  0  0
   37.1970   30.1960   41.3960 S   0  0  0  0  0  0  0  0  0  0  0  0
   36.6480   31.6520   40.5020 C   0  0  0  0  0  0  0  0  0  0  0  0
   40.2030   29.4140   43.1270 H   0  0  0  0  0  0  0  0  0  0  0  0
   38.7220   31.1820   43.0110 H   0  0  0  0  0  0  0  0  0  0  0  0
   35.9190   32.1860   41.1460 H   0  0  0  0  0  0  0  0  0  0  0  0
   36.1310   31.3820   39.5600 H   0  0  0  0  0  0  0  0  0  0  0  0
   39.4190   28.2060   41.4950 C   0  0  0  0  0  0  0  0  0  0  0  0
   39.3770   27.8070   40.3170 O   0  0  0  0  0  0  0  0  0  0  0  0
   38.9890   27.2360   42.4750 N   0  0  0  0  0  0  0  0  0  0  0  0
   38.9550   27.2450   43.5180 H   0  0  0  0  0  0  0  0  0  0  0  0
   36.7490   24.3960   41.6210 C   0  0  0  0  0  0  0  0  0  0  0  0
   37.1430   25.6780   42.0290 C   0  0  0  0  0  0  0  0  0  0  0  0
   38.4920   25.9730   42.0780 C   0  0  0  0  0  0  0  0  0  0  0  0
   39.3850   25.0210   41.7330 N   0  0  0  0  0  0  0  0  0  0  0  0
   38.9880   23.7750   41.3380 C   0  0  0  0  0  0  0  0  0  0  0  0
   37.6650   23.4920   41.2910 N   0  0  0  0  0  0  0  0  0  0  0  0
   35.7160   24.1190   41.5670 H   0  0  0  0  0  0  0  0  0  0  0  0
   36.4250   26.4210   42.2990 H   0  0  0  0  0  0  0  0  0  0  0  0
   39.7970   23.1050   41.0890 H   0  0  0  0  0  0  0  0  0  0  0  0
   37.3450   33.8990   39.5490 C   0  0  0  0  0  0  0  0  0  0  0  0
   36.2920   34.1560   39.7970 H   0  0  0  0  0  0  0  0  0  0  0  0
   37.3900   33.7920   38.4450 H   0  0  0  0  0  0  0  0  0  0  0  0
   37.9600   34.7550   39.9100 H   0  0  0  0  0  0  0  0  0  0  0  0
   39.9930   33.5190   40.0550 C   0  0  0  0  0  0  0  0  0  0  0  0
   40.2020   34.5360   40.7690 O   0  0  0  0  0  0  0  0  0  0  0  0
   40.8400   33.6870   38.9630 O   0  0  0  0  0  0  0  0  0  0  0  0
   42.1180   34.2260   39.0540 C   0  0  1  0  0  3  0  0  0  0  0  0
   43.0630   33.0650   39.3510 C   0  0  0  0  0  3  0  0  0  0  0  0
   42.5030   32.2710   39.9140 H   0  0  0  0  0  0  0  0  0  0  0  0
   43.4590   32.6210   37.9790 C   0  0  0  0  0  3  0  0  0  0  0  0
   44.4780   32.9630   37.6940 H   0  0  0  0  0  0  0  0  0  0  0  0
   42.5800   33.2520   37.0830 O   0  0  0  0  0  0  0  0  0  0  0  0
   42.5490   34.5460   37.6160 C   0  0  0  0  0  3  0  0  0  0  0  0
   41.7570   35.1450   37.0890 H   0  0  0  0  0  0  0  0  0  0  0  0
  1  2  2  0  0  0  0
  1  9  1  0  0  0  0
  2  3  1  0  0  0  0
  3  4  1  0  0  0  0
  3  7  1  0  0  0  0
  4  6  1  0  0  0  0
  5  4  2  0  0  0  0
  6 10  1  1  0  0  0
  7  6  1  0  0  0  0
  7 11  1  1  0  0  0
  8  7  1  0  0  0  0
  9 12  1  0  0  0  0
  9  8  1  0  0  0  0
 13  9  1  0  0  0  0
 14  6  1  0  0  0  0
 14 16  1  0  0  0  0
 15 14  2  0  0  0  0
 16 17  1  0  0  0  0
 18 19  1  0  0  0  0
 19 20  2  0  0  0  0
 19 25  1  0  0  0  0
 20 16  1  0  0  0  0
 21 20  1  0  0  0  0
 22 21  2  0  0  0  0
 23 22  1  0  0  0  0
 23 18  2  0  0  0  0
 24 18  1  0  0  0  0
 26 22  1  0  0  0  0
 27 28  1  0  0  0  0
 27 30  1  0  0  0  0
 27  1  1  0  0  0  0
 29 27  1  0  0  0  0
 31  2  1  0  0  0  0
 31 32  2  0  0  0  0
 33 31  1  0  0  0  0
 34 33  1  6  0  0  0
 34 35  1  0  0  0  0
 35 36  1  0  0  0  0
 37 35  1  0  0  0  0
 38 37  1  0  0  0  0
 39 40  1  0  0  0  0
 39 37  1  0  0  0  0
 40 34  1  0  0  0  0
 41 40  1  0  0  0  0
M  END
>  <minimizedAffinity>
-5.49834633

$$$$

 OpenBabel03252503373D

 41 44  0  0  1  0  0  0  0  0999 V2000
   37.2480   30.8320   40.6240 C   0  0  0  0  0  0  0  0  0  0  0  0
   38.2930   30.4380   41.3520 C   0  0  0  0  0  0  0  0  0  0  0  0
   38.4140   29.0890   41.7670 N   0  0  0  0  0  0  0  0  0  0  0  0
   39.2200   27.9600   42.0400 C   0  0  0  0  0  0  0  0  0  0  0  0
   40.4680   27.7200   42.0800 O   0  0  0  0  0  0  0  0  0  0  0  0
   38.1110   27.0550   42.2880 C   0  0  1  0  0  0  0  0  0  0  0  0
   37.2630   28.2930   42.1330 C   0  0  2  0  0  0  0  0  0  0  0  0
   36.1240   28.3130   40.7490 S   0  0  0  0  0  0  0  0  0  0  0  0
   36.1040   30.0030   40.1470 C   0  0  0  0  0  0  0  0  0  0  0  0
   37.9550   26.6860   43.3260 H   0  0  0  0  0  0  0  0  0  0  0  0
   36.7610   28.6460   43.0710 H   0  0  0  0  0  0  0  0  0  0  0  0
   35.1790   30.4840   40.5280 H   0  0  0  0  0  0  0  0  0  0  0  0
   36.0730   30.0430   39.0400 H   0  0  0  0  0  0  0  0  0  0  0  0
   37.9750   26.0270   41.2530 C   0  0  0  0  0  0  0  0  0  0  0  0
   38.3620   25.9800   40.0700 O   0  0  0  0  0  0  0  0  0  0  0  0
   37.2590   24.8540   41.6980 N   0  0  0  0  0  0  0  0  0  0  0  0
   36.8610   24.5710   42.6200 H   0  0  0  0  0  0  0  0  0  0  0  0
   35.6320   22.6490   39.1870 C   0  0  0  0  0  0  0  0  0  0  0  0
   35.8230   23.7430   40.0430 C   0  0  0  0  0  0  0  0  0  0  0  0
   36.9750   23.7940   40.8060 C   0  0  0  0  0  0  0  0  0  0  0  0
   37.8740   22.7930   40.7050 N   0  0  0  0  0  0  0  0  0  0  0  0
   37.6750   21.7320   39.8670 C   0  0  0  0  0  0  0  0  0  0  0  0
   36.5460   21.6890   39.1200 N   0  0  0  0  0  0  0  0  0  0  0  0
   34.7560   22.5650   38.5750 H   0  0  0  0  0  0  0  0  0  0  0  0
   35.1030   24.5280   40.1130 H   0  0  0  0  0  0  0  0  0  0  0  0
   38.4660   20.9980   39.8760 H   0  0  0  0  0  0  0  0  0  0  0  0
   37.2420   32.2700   40.2580 C   0  0  0  0  0  0  0  0  0  0  0  0
   36.2040   32.6270   40.0820 H   0  0  0  0  0  0  0  0  0  0  0  0
   37.7900   32.4130   39.3040 H   0  0  0  0  0  0  0  0  0  0  0  0
   37.6500   32.9110   41.0740 H   0  0  0  0  0  0  0  0  0  0  0  0
   39.3390   31.3680   41.7420 C   0  0  0  0  0  0  0  0  0  0  0  0
   39.9270   31.3080   42.8560 O   0  0  0  0  0  0  0  0  0  0  0  0
   39.9280   32.4540   41.1020 O   0  0  0  0  0  0  0  0  0  0  0  0
   41.0310   32.3490   40.2620 C   0  0  1  0  0  3  0  0  0  0  0  0
   40.6780   33.0990   38.9800 C   0  0  0  0  0  3  0  0  0  0  0  0
   39.5670   33.0600   38.8260 H   0  0  0  0  0  0  0  0  0  0  0  0
   41.1660   34.4800   39.2790 C   0  0  0  0  0  3  0  0  0  0  0  0
   42.1300   34.7150   38.7750 H   0  0  0  0  0  0  0  0  0  0  0  0
   41.4360   34.5230   40.6570 O   0  0  0  0  0  0  0  0  0  0  0  0
   42.0930   33.2990   40.8310 C   0  0  0  0  0  3  0  0  0  0  0  0
   42.2430   33.1130   41.9290 H   0  0  0  0  0  0  0  0  0  0  0  0
  1  2  2  0  0  0  0
  2 31  1  0  0  0  0
  2  3  1  0  0  0  0
  3  4  1  0  0  0  0
  3  7  1  0  0  0  0
  4  5  2  0  0  0  0
  4  6  1  0  0  0  0
  6 10  1  1  0  0  0
  7  6  1  0  0  0  0
  7 11  1  1  0  0  0
  8  7  1  0  0  0  0
  9 12  1  0  0  0  0
  9  1  1  0  0  0  0
  9  8  1  0  0  0  0
 13  9  1  0  0  0  0
 14 16  1  0  0  0  0
 14  6  1  0  0  0  0
 15 14  2  0  0  0  0
 16 17  1  0  0  0  0
 18 19  1  0  0  0  0
 19 25  1  0  0  0  0
 19 20  2  0  0  0  0
 20 16  1  0  0  0  0
 21 20  1  0  0  0  0
 22 26  1  0  0  0  0
 22 21  2  0  0  0  0
 23 18  2  0  0  0  0
 23 22  1  0  0  0  0
 24 18  1  0  0  0  0
 27  1  1  0  0  0  0
 27 30  1  0  0  0  0
 28 27  1  0  0  0  0
 29 27  1  0  0  0  0
 31 32  2  0  0  0  0
 33 31  1  0  0  0  0
 34 40  1  0  0  0  0
 34 33  1  1  0  0  0
 35 37  1  0  0  0  0
 35 34  1  0  0  0  0
 36 35  1  0  0  0  0
 37 39  1  0  0  0  0
 38 37  1  0  0  0  0
 39 40  1  0  0  0  0
 40 41  1  0  0  0  0
M  END
>  <minimizedAffinity>
-5.41409206

$$$$

 OpenBabel03252503373D

 41 44  0  0  1  0  0  0  0  0999 V2000
   38.5620   29.5460   42.1020 C   0  0  0  0  0  0  0  0  0  0  0  0
   37.9490   29.0820   41.0130 C   0  0  0  0  0  0  0  0  0  0  0  0
   38.4260   29.4160   39.7210 N   0  0  0  0  0  0  0  0  0  0  0  0
   38.6660   29.0590   38.3750 C   0  0  0  0  0  0  0  0  0  0  0  0
   38.4040   28.0560   37.6390 O   0  0  0  0  0  0  0  0  0  0  0  0
   39.3680   30.2830   38.0300 C   0  0  1  0  0  0  0  0  0  0  0  0
   38.9880   30.7160   39.4240 C   0  0  2  0  0  0  0  0  0  0  0  0
   40.3380   31.0010   40.5690 S   0  0  0  0  0  0  0  0  0  0  0  0
   39.7610   30.4290   42.1680 C   0  0  0  0  0  0  0  0  0  0  0  0
   38.8760   30.9920   37.3270 H   0  0  0  0  0  0  0  0  0  0  0  0
   38.2360   31.5450   39.4760 H   0  0  0  0  0  0  0  0  0  0  0  0
   39.4700   31.3220   42.7590 H   0  0  0  0  0  0  0  0  0  0  0  0
   40.5600   29.9020   42.7260 H   0  0  0  0  0  0  0  0  0  0  0  0
   40.7940   30.0660   37.7710 C   0  0  0  0  0  0  0  0  0  0  0  0
   41.5930   29.2060   38.1850 O   0  0  0  0  0  0  0  0  0  0  0  0
   41.3670   31.0340   36.8650 N   0  0  0  0  0  0  0  0  0  0  0  0
   40.9620   31.8270   36.3210 H   0  0  0  0  0  0  0  0  0  0  0  0
   44.6760   30.2490   35.3650 C   0  0  0  0  0  0  0  0  0  0  0  0
   43.2940   30.1940   35.5920 C   0  0  0  0  0  0  0  0  0  0  0  0
   42.7480   31.0160   36.5610 C   0  0  0  0  0  0  0  0  0  0  0  0
   43.5610   31.8410   37.2550 N   0  0  0  0  0  0  0  0  0  0  0  0
   44.9060   31.8850   37.0230 C   0  0  0  0  0  0  0  0  0  0  0  0
   45.4350   31.0780   36.0720 N   0  0  0  0  0  0  0  0  0  0  0  0
   45.1460   29.6330   34.6250 H   0  0  0  0  0  0  0  0  0  0  0  0
   42.6630   29.5360   35.0360 H   0  0  0  0  0  0  0  0  0  0  0  0
   45.4460   32.5840   37.6430 H   0  0  0  0  0  0  0  0  0  0  0  0
   37.9610   29.1220   43.3900 C   0  0  0  0  0  0  0  0  0  0  0  0
   38.1870   29.8590   44.1920 H   0  0  0  0  0  0  0  0  0  0  0  0
   38.4090   28.1590   43.7120 H   0  0  0  0  0  0  0  0  0  0  0  0
   36.8490   29.0650   43.3350 H   0  0  0  0  0  0  0  0  0  0  0  0
   36.7820   28.2220   41.1070 C   0  0  0  0  0  0  0  0  0  0  0  0
   35.6030   28.6690   41.1370 O   0  0  0  0  0  0  0  0  0  0  0  0
   36.6270   26.8410   41.1830 O   0  0  0  0  0  0  0  0  0  0  0  0
   37.6710   25.9600   41.4410 C   0  0  1  0  0  3  0  0  0  0  0  0
   37.0460   24.7060   42.0470 C   0  0  0  0  0  3  0  0  0  0  0  0
   36.1060   24.9910   42.5910 H   0  0  0  0  0  0  0  0  0  0  0  0
   36.7770   23.8710   40.8370 C   0  0  0  0  0  3  0  0  0  0  0  0
   37.5200   23.0530   40.7050 H   0  0  0  0  0  0  0  0  0  0  0  0
   36.9340   24.7130   39.7240 O   0  0  0  0  0  0  0  0  0  0  0  0
   38.1020   25.3990   40.0800 C   0  0  0  0  0  3  0  0  0  0  0  0
   38.2800   26.2320   39.3460 H   0  0  0  0  0  0  0  0  0  0  0  0
  1  9  1  0  0  0  0
  1 27  1  0  0  0  0
  2 31  1  0  0  0  0
  2  1  2  0  0  0  0
  3  2  1  0  0  0  0
  4  3  1  0  0  0  0
  5  4  2  0  0  0  0
  6 10  1  6  0  0  0
  6  4  1  0  0  0  0
  6  7  1  0  0  0  0
  7 11  1  1  0  0  0
  7  3  1  0  0  0  0
  7  8  1  0  0  0  0
  8  9  1  0  0  0  0
  9 13  1  0  0  0  0
  9 12  1  0  0  0  0
 14  6  1  0  0  0  0
 14 15  2  0  0  0  0
 16 14  1  0  0  0  0
 17 16  1  0  0  0  0
 18 19  2  0  0  0  0
 18 23  1  0  0  0  0
 19 20  1  0  0  0  0
 20 16  1  0  0  0  0
 20 21  2  0  0  0  0
 22 21  1  0  0  0  0
 22 26  1  0  0  0  0
 23 22  2  0  0  0  0
 24 18  1  0  0  0  0
 25 19  1  0  0  0  0
 27 29  1  0  0  0  0
 27 28  1  0  0  0  0
 30 27  1  0  0  0  0
 31 32  2  0  0  0  0
 31 33  1  0  0  0  0
 34 33  1  6  0  0  0
 34 35  1  0  0  0  0
 35 36  1  0  0  0  0
 37 35  1  0  0  0  0
 38 37  1  0  0  0  0
 39 40  1  0  0  0  0
 39 37  1  0  0  0  0
 40 34  1  0  0  0  0
 41 40  1  0  0  0  0
M  END
>  <minimizedAffinity>
-5.39949036

$$$$

 OpenBabel03252503373D

 41 44  0  0  1  0  0  0  0  0999 V2000
   37.4120   31.0790   38.2960 C   0  0  0  0  0  0  0  0  0  0  0  0
   38.2200   31.4050   39.3050 C   0  0  0  0  0  0  0  0  0  0  0  0
   38.0530   30.8130   40.5810 N   0  0  0  0  0  0  0  0  0  0  0  0
   38.6110   30.2970   41.7740 C   0  0  0  0  0  0  0  0  0  0  0  0
   39.7750   30.2290   42.2790 O   0  0  0  0  0  0  0  0  0  0  0  0
   37.3530   29.8170   42.3190 C   0  0  1  0  0  0  0  0  0  0  0  0
   36.7460   30.4900   41.1130 C   0  0  2  0  0  0  0  0  0  0  0  0
   35.9250   29.4230   39.9290 S   0  0  0  0  0  0  0  0  0  0  0  0
   36.2780   30.1120   38.3110 C   0  0  0  0  0  0  0  0  0  0  0  0
   36.9380   30.3280   43.2150 H   0  0  0  0  0  0  0  0  0  0  0  0
   36.1240   31.3950   41.3360 H   0  0  0  0  0  0  0  0  0  0  0  0
   35.3780   30.6690   37.9800 H   0  0  0  0  0  0  0  0  0  0  0  0
   36.4770   29.3180   37.5640 H   0  0  0  0  0  0  0  0  0  0  0  0
   37.2770   28.3540   42.3670 C   0  0  0  0  0  0  0  0  0  0  0  0
   36.4330   27.5800   42.8560 O   0  0  0  0  0  0  0  0  0  0  0  0
   38.3900   27.6990   41.7210 N   0  0  0  0  0  0  0  0  0  0  0  0
   39.2130   28.0540   41.1870 H   0  0  0  0  0  0  0  0  0  0  0  0
   38.1000   24.0870   40.8930 C   0  0  0  0  0  0  0  0  0  0  0  0
   37.9190   25.4740   40.7920 C   0  0  0  0  0  0  0  0  0  0  0  0
   38.5130   26.2900   41.7370 C   0  0  0  0  0  0  0  0  0  0  0  0
   39.2440   25.7280   42.7230 N   0  0  0  0  0  0  0  0  0  0  0  0
   39.4120   24.3760   42.8100 C   0  0  0  0  0  0  0  0  0  0  0  0
   38.8290   23.5810   41.8810 N   0  0  0  0  0  0  0  0  0  0  0  0
   37.6600   23.4130   40.1860 H   0  0  0  0  0  0  0  0  0  0  0  0
   37.3380   25.9040   40.0070 H   0  0  0  0  0  0  0  0  0  0  0  0
   40.0170   24.0510   43.6430 H   0  0  0  0  0  0  0  0  0  0  0  0
   37.6940   31.7740   37.0160 C   0  0  0  0  0  0  0  0  0  0  0  0
   36.7770   31.8310   36.3890 H   0  0  0  0  0  0  0  0  0  0  0  0
   38.4380   31.1920   36.4330 H   0  0  0  0  0  0  0  0  0  0  0  0
   38.0200   32.8280   37.1740 H   0  0  0  0  0  0  0  0  0  0  0  0
   39.2920   32.3720   39.1380 C   0  0  0  0  0  0  0  0  0  0  0  0
   39.2300   33.5470   39.5890 O   0  0  0  0  0  0  0  0  0  0  0  0
   40.5360   32.3080   38.5160 O   0  0  0  0  0  0  0  0  0  0  0  0
   41.4690   31.3070   38.7610 C   0  0  1  0  0  3  0  0  0  0  0  0
   41.3910   30.3380   37.5850 C   0  0  0  0  0  3  0  0  0  0  0  0
   40.3500   30.3550   37.1640 H   0  0  0  0  0  0  0  0  0  0  0  0
   42.3990   30.9060   36.6390 C   0  0  0  0  0  3  0  0  0  0  0  0
   43.3550   30.3360   36.6350 H   0  0  0  0  0  0  0  0  0  0  0  0
   42.7210   32.1880   37.1150 O   0  0  0  0  0  0  0  0  0  0  0  0
   42.8440   31.9310   38.4870 C   0  0  0  0  0  3  0  0  0  0  0  0
   42.9540   32.9060   39.0360 H   0  0  0  0  0  0  0  0  0  0  0  0
  1  9  1  0  0  0  0
  1  2  2  0  0  0  0
  2  3  1  0  0  0  0
  3  7  1  0  0  0  0
  3  4  1  0  0  0  0
  4  5  2  0  0  0  0
  4  6  1  0  0  0  0
  6 14  1  0  0  0  0
  6 10  1  1  0  0  0
  7 11  1  1  0  0  0
  7  6  1  0  0  0  0
  8  7  1  0  0  0  0
  9  8  1  0  0  0  0
 12  9  1  0  0  0  0
 13  9  1  0  0  0  0
 14 15  2  0  0  0  0
 16 20  1  0  0  0  0
 16 14  1  0  0  0  0
 17 16  1  0  0  0  0
 18 23  1  0  0  0  0
 19 18  2  0  0  0  0
 19 20  1  0  0  0  0
 20 21  2  0  0  0  0
 21 22  1  0  0  0  0
 22 26  1  0  0  0  0
 23 22  2  0  0  0  0
 24 18  1  0  0  0  0
 25 19  1  0  0  0  0
 27 30  1  0  0  0  0
 27  1  1  0  0  0  0
 28 27  1  0  0  0  0
 29 27  1  0  0  0  0
 31  2  1  0  0  0  0
 31 32  2  0  0  0  0
 33 31  1  0  0  0  0
 34 33  1  6  0  0  0
 35 34  1  0  0  0  0
 36 35  1  0  0  0  0
 37 39  1  0  0  0  0
 37 35  1  0  0  0  0
 38 37  1  0  0  0  0
 39 40  1  0  0  0  0
 40 34  1  0  0  0  0
 40 41  1  0  0  0  0
M  END
>  <minimizedAffinity>
-5.27300882

$$$$

 OpenBabel03252503373D

 41 44  0  0  1  0  0  0  0  0999 V2000
   37.0410   29.1410   41.5240 C   0  0  0  0  0  0  0  0  0  0  0  0
   36.5240   29.5180   40.3550 C   0  0  0  0  0  0  0  0  0  0  0  0
   37.0680   30.6190   39.6490 N   0  0  0  0  0  0  0  0  0  0  0  0
   37.4130   31.2390   38.4260 C   0  0  0  0  0  0  0  0  0  0  0  0
   37.2470   30.9760   37.1930 O   0  0  0  0  0  0  0  0  0  0  0  0
   38.0800   32.3790   39.0320 C   0  0  1  0  0  0  0  0  0  0  0  0
   37.5890   31.7860   40.3290 C   0  0  2  0  0  0  0  0  0  0  0  0
   38.8460   31.2290   41.4800 S   0  0  0  0  0  0  0  0  0  0  0  0
   38.1920   29.7490   42.2520 C   0  0  0  0  0  0  0  0  0  0  0  0
   37.6030   33.3790   38.9350 H   0  0  0  0  0  0  0  0  0  0  0  0
   36.7980   32.3800   40.8550 H   0  0  0  0  0  0  0  0  0  0  0  0
   37.8210   30.0300   43.2590 H   0  0  0  0  0  0  0  0  0  0  0  0
   38.9760   28.9770   42.3850 H   0  0  0  0  0  0  0  0  0  0  0  0
   39.5280   32.3740   38.8090 C   0  0  0  0  0  0  0  0  0  0  0  0
   40.3140   31.4720   38.4630 O   0  0  0  0  0  0  0  0  0  0  0  0
   40.1480   33.6590   39.0320 N   0  0  0  0  0  0  0  0  0  0  0  0
   39.7680   34.6010   39.2730 H   0  0  0  0  0  0  0  0  0  0  0  0
   43.7670   33.9520   39.8260 C   0  0  0  0  0  0  0  0  0  0  0  0
   42.3900   33.7870   40.0290 C   0  0  0  0  0  0  0  0  0  0  0  0
   41.5500   33.8170   38.9310 C   0  0  0  0  0  0  0  0  0  0  0  0
   42.0800   34.0050   37.7040 N   0  0  0  0  0  0  0  0  0  0  0  0
   43.4250   34.1650   37.5210 C   0  0  0  0  0  0  0  0  0  0  0  0
   44.2420   34.1340   38.6000 N   0  0  0  0  0  0  0  0  0  0  0  0
   44.4580   33.9370   40.6450 H   0  0  0  0  0  0  0  0  0  0  0  0
   41.9840   33.6390   41.0060 H   0  0  0  0  0  0  0  0  0  0  0  0
   43.7240   34.3070   36.4930 H   0  0  0  0  0  0  0  0  0  0  0  0
   36.3760   27.9770   42.1590 C   0  0  0  0  0  0  0  0  0  0  0  0
   36.5160   27.9970   43.2620 H   0  0  0  0  0  0  0  0  0  0  0  0
   36.8460   27.0380   41.8000 H   0  0  0  0  0  0  0  0  0  0  0  0
   35.2740   27.9810   41.9920 H   0  0  0  0  0  0  0  0  0  0  0  0
   35.3930   28.8220   39.7650 C   0  0  0  0  0  0  0  0  0  0  0  0
   34.1990   29.1930   39.9300 O   0  0  0  0  0  0  0  0  0  0  0  0
   35.2930   27.6950   38.9550 O   0  0  0  0  0  0  0  0  0  0  0  0
   36.3790   27.1000   38.3230 C   0  0  1  0  0  3  0  0  0  0  0  0
   36.7550   25.8780   39.1560 C   0  0  0  0  0  3  0  0  0  0  0  0
   36.4750   26.0630   40.2280 H   0  0  0  0  0  0  0  0  0  0  0  0
   35.9300   24.8010   38.5280 C   0  0  0  0  0  3  0  0  0  0  0  0
   36.5250   24.1370   37.8620 H   0  0  0  0  0  0  0  0  0  0  0  0
   35.0000   25.4420   37.6930 O   0  0  0  0  0  0  0  0  0  0  0  0
   35.8170   26.3990   37.0790 C   0  0  0  0  0  3  0  0  0  0  0  0
   35.1770   27.1040   36.4820 H   0  0  0  0  0  0  0  0  0  0  0  0
  1 27  1  0  0  0  0
  1  9  1  0  0  0  0
  2  1  2  0  0  0  0
  3  7  1  0  0  0  0
  3  2  1  0  0  0  0
  4  6  1  0  0  0  0
  4  3  1  0  0  0  0
  5  4  2  0  0  0  0
  6 10  1  6  0  0  0
  6  7  1  0  0  0  0
  7 11  1  1  0  0  0
  7  8  1  0  0  0  0
  8  9  1  0  0  0  0
  9 13  1  0  0  0  0
  9 12  1  0  0  0  0
 14  6  1  0  0  0  0
 14 16  1  0  0  0  0
 15 14  2  0  0  0  0
 16 17  1  0  0  0  0
 18 19  1  0  0  0  0
 18 24  1  0  0  0  0
 19 25  1  0  0  0  0
 20 16  1  0  0  0  0
 20 19  2  0  0  0  0
 21 20  1  0  0  0  0
 22 21  2  0  0  0  0
 22 23  1  0  0  0  0
 23 18  2  0  0  0  0
 26 22  1  0  0  0  0
 27 28  1  0  0  0  0
 29 27  1  0  0  0  0
 30 27  1  0  0  0  0
 31 32  2  0  0  0  0
 31  2  1  0  0  0  0
 33 31  1  0  0  0  0
 34 33  1  1  0  0  0
 34 35  1  0  0  0  0
 35 36  1  0  0  0  0
 37 35  1  0  0  0  0
 38 37  1  0  0  0  0
 39 37  1  0  0  0  0
 40 39  1  0  0  0  0
 40 34  1  0  0  0  0
 41 40  1  0  0  0  0
M  END
>  <minimizedAffinity>
-5.24724102

$$$$

 OpenBabel03252503373D

 41 44  0  0  1  0  0  0  0  0999 V2000
   37.3960   31.9670   39.7230 C   0  0  0  0  0  0  0  0  0  0  0  0
   38.3480   31.9130   40.6550 C   0  0  0  0  0  0  0  0  0  0  0  0
   38.5310   30.7410   41.4300 N   0  0  0  0  0  0  0  0  0  0  0  0
   39.3880   29.8350   42.0960 C   0  0  0  0  0  0  0  0  0  0  0  0
   40.6310   29.7820   42.3560 O   0  0  0  0  0  0  0  0  0  0  0  0
   38.3450   28.8840   42.4370 C   0  0  1  0  0  0  0  0  0  0  0  0
   37.4170   29.9170   41.8500 C   0  0  2  0  0  0  0  0  0  0  0  0
   36.5120   29.4350   40.3790 S   0  0  0  0  0  0  0  0  0  0  0  0
   36.4250   30.9000   39.3470 C   0  0  0  0  0  0  0  0  0  0  0  0
   38.0650   28.7720   43.5080 H   0  0  0  0  0  0  0  0  0  0  0  0
   36.7440   30.4260   42.5860 H   0  0  0  0  0  0  0  0  0  0  0  0
   35.4110   31.3340   39.4640 H   0  0  0  0  0  0  0  0  0  0  0  0
   36.5650   30.6540   38.2750 H   0  0  0  0  0  0  0  0  0  0  0  0
   38.4710   27.6180   41.7090 C   0  0  0  0  0  0  0  0  0  0  0  0
   39.1770   27.2830   40.7390 O   0  0  0  0  0  0  0  0  0  0  0  0
   37.6150   26.5730   42.2200 N   0  0  0  0  0  0  0  0  0  0  0  0
   36.9610   26.5220   43.0320 H   0  0  0  0  0  0  0  0  0  0  0  0
   38.3160   23.0740   41.1810 C   0  0  0  0  0  0  0  0  0  0  0  0
   38.4580   24.2940   41.8570 C   0  0  0  0  0  0  0  0  0  0  0  0
   37.5570   25.3080   41.5900 C   0  0  0  0  0  0  0  0  0  0  0  0
   36.5750   25.0930   40.6900 N   0  0  0  0  0  0  0  0  0  0  0  0
   36.4490   23.9000   40.0370 C   0  0  0  0  0  0  0  0  0  0  0  0
   37.3340   22.9090   40.3040 N   0  0  0  0  0  0  0  0  0  0  0  0
   38.9890   22.2580   41.3530 H   0  0  0  0  0  0  0  0  0  0  0  0
   39.2400   24.4500   42.5670 H   0  0  0  0  0  0  0  0  0  0  0  0
   35.6240   23.8530   39.3420 H   0  0  0  0  0  0  0  0  0  0  0  0
   37.3110   33.2510   38.9850 C   0  0  0  0  0  0  0  0  0  0  0  0
   36.2840   33.4110   38.5910 H   0  0  0  0  0  0  0  0  0  0  0  0
   37.9860   33.2210   38.1040 H   0  0  0  0  0  0  0  0  0  0  0  0
   37.5240   34.1270   39.6420 H   0  0  0  0  0  0  0  0  0  0  0  0
   39.2270   33.0420   40.9090 C   0  0  0  0  0  0  0  0  0  0  0  0
   38.8260   34.1170   41.4310 O   0  0  0  0  0  0  0  0  0  0  0  0
   40.5840   33.2540   40.6850 O   0  0  0  0  0  0  0  0  0  0  0  0
   41.3280   32.5600   39.7380 C   0  0  1  0  0  3  0  0  0  0  0  0
   41.0520   33.2230   38.3920 C   0  0  0  0  0  3  0  0  0  0  0  0
   40.0220   33.6700   38.4080 H   0  0  0  0  0  0  0  0  0  0  0  0
   42.1260   34.2600   38.3250 C   0  0  0  0  0  3  0  0  0  0  0  0
   42.9630   33.9700   37.6520 H   0  0  0  0  0  0  0  0  0  0  0  0
   42.6830   34.3470   39.6120 O   0  0  0  0  0  0  0  0  0  0  0  0
   42.7860   32.9900   39.9420 C   0  0  0  0  0  3  0  0  0  0  0  0
   43.0810   32.8950   41.0230 H   0  0  0  0  0  0  0  0  0  0  0  0
  1  2  2  0  0  0  0
  2 31  1  0  0  0  0
  2  3  1  0  0  0  0
  3  7  1  0  0  0  0
  3  4  1  0  0  0  0
  4  5  2  0  0  0  0
  4  6  1  0  0  0  0
  6 10  1  1  0  0  0
  7  6  1  0  0  0  0
  7 11  1  1  0  0  0
  8  7  1  0  0  0  0
  9 12  1  0  0  0  0
  9  1  1  0  0  0  0
  9  8  1  0  0  0  0
 13  9  1  0  0  0  0
 14 16  1  0  0  0  0
 14  6  1  0  0  0  0
 15 14  2  0  0  0  0
 16 17  1  0  0  0  0
 18 24  1  0  0  0  0
 18 19  1  0  0  0  0
 19 25  1  0  0  0  0
 20 19  2  0  0  0  0
 20 16  1  0  0  0  0
 21 20  1  0  0  0  0
 22 23  1  0  0  0  0
 22 21  2  0  0  0  0
 23 18  2  0  0  0  0
 26 22  1  0  0  0  0
 27 30  1  0  0  0  0
 27  1  1  0  0  0  0
 28 27  1  0  0  0  0
 29 27  1  0  0  0  0
 31 32  2  0  0  0  0
 33 31  1  0  0  0  0
 34 40  1  0  0  0  0
 34 33  1  1  0  0  0
 35 36  1  0  0  0  0
 35 34  1  0  0  0  0
 37 35  1  0  0  0  0
 37 39  1  0  0  0  0
 38 37  1  0  0  0  0
 39 40  1  0  0  0  0
 40 41  1  0  0  0  0
M  END
>  <minimizedAffinity>
-5.22310019

$$$$

 OpenBabel03252503373D

 41 44  0  0  1  0  0  0  0  0999 V2000
   37.4270   31.3450   40.1170 C   0  0  0  0  0  0  0  0  0  0  0  0
   38.7250   31.0600   40.0210 C   0  0  0  0  0  0  0  0  0  0  0  0
   39.3040   30.0580   40.8400 N   0  0  0  0  0  0  0  0  0  0  0  0
   40.2290   29.0030   41.0140 C   0  0  0  0  0  0  0  0  0  0  0  0
   41.1650   28.4900   40.3230 O   0  0  0  0  0  0  0  0  0  0  0  0
   39.7650   28.6290   42.3380 C   0  0  1  0  0  0  0  0  0  0  0  0
   38.8770   29.8410   42.2050 C   0  0  2  0  0  0  0  0  0  0  0  0
   37.1100   29.5390   42.1810 S   0  0  0  0  0  0  0  0  0  0  0  0
   36.4190   30.7220   41.0220 C   0  0  0  0  0  0  0  0  0  0  0  0
   40.4380   28.8180   43.2040 H   0  0  0  0  0  0  0  0  0  0  0  0
   39.1280   30.6930   42.8880 H   0  0  0  0  0  0  0  0  0  0  0  0
   35.9670   31.5450   41.6130 H   0  0  0  0  0  0  0  0  0  0  0  0
   35.6180   30.2700   40.4050 H   0  0  0  0  0  0  0  0  0  0  0  0
   39.1010   27.3230   42.3600 C   0  0  0  0  0  0  0  0  0  0  0  0
   38.6960   26.6110   43.2980 O   0  0  0  0  0  0  0  0  0  0  0  0
   38.8790   26.7690   41.0440 N   0  0  0  0  0  0  0  0  0  0  0  0
   39.0520   27.1310   40.0810 H   0  0  0  0  0  0  0  0  0  0  0  0
   36.4880   23.9480   40.6760 C   0  0  0  0  0  0  0  0  0  0  0  0
   36.9500   25.2610   40.8390 C   0  0  0  0  0  0  0  0  0  0  0  0
   38.3140   25.4830   40.8830 C   0  0  0  0  0  0  0  0  0  0  0  0
   39.1540   24.4320   40.7690 N   0  0  0  0  0  0  0  0  0  0  0  0
   38.6900   23.1570   40.6110 C   0  0  0  0  0  0  0  0  0  0  0  0
   37.3530   22.9460   40.5680 N   0  0  0  0  0  0  0  0  0  0  0  0
   35.4410   23.7250   40.6360 H   0  0  0  0  0  0  0  0  0  0  0  0
   36.2740   26.0830   40.9280 H   0  0  0  0  0  0  0  0  0  0  0  0
   39.4610   22.4050   40.5320 H   0  0  0  0  0  0  0  0  0  0  0  0
   36.9490   32.4140   39.2050 C   0  0  0  0  0  0  0  0  0  0  0  0
   36.0470   32.9120   39.6220 H   0  0  0  0  0  0  0  0  0  0  0  0
   36.6430   31.9680   38.2370 H   0  0  0  0  0  0  0  0  0  0  0  0
   37.7080   33.2200   39.0710 H   0  0  0  0  0  0  0  0  0  0  0  0
   39.5880   31.7560   39.0830 C   0  0  0  0  0  0  0  0  0  0  0  0
   39.9460   31.2570   37.9820 O   0  0  0  0  0  0  0  0  0  0  0  0
   40.2000   33.0060   39.1070 O   0  0  0  0  0  0  0  0  0  0  0  0
   41.5510   33.2090   38.8540 C   0  0  1  0  0  3  0  0  0  0  0  0
   41.8230   34.6930   39.0860 C   0  0  0  0  0  3  0  0  0  0  0  0
   40.8870   35.2750   38.8700 H   0  0  0  0  0  0  0  0  0  0  0  0
   42.1950   34.7240   40.5330 C   0  0  0  0  0  3  0  0  0  0  0  0
   43.2920   34.8230   40.6940 H   0  0  0  0  0  0  0  0  0  0  0  0
   41.8430   33.4720   41.0660 O   0  0  0  0  0  0  0  0  0  0  0  0
   42.3040   32.6200   40.0550 C   0  0  0  0  0  3  0  0  0  0  0  0
   41.9550   31.5730   40.2660 H   0  0  0  0  0  0  0  0  0  0  0  0
  1  9  1  0  0  0  0
  2  1  2  0  0  0  0
  2  3  1  0  0  0  0
  3  4  1  0  0  0  0
  3  7  1  0  0  0  0
  4  6  1  0  0  0  0
  5  4  2  0  0  0  0
  6 14  1  0  0  0  0
  6 10  1  1  0  0  0
  7  6  1  0  0  0  0
  7 11  1  1  0  0  0
  8  7  1  0  0  0  0
  9 12  1  0  0  0  0
  9  8  1  0  0  0  0
 13  9  1  0  0  0  0
 14 15  2  0  0  0  0
 16 14  1  0  0  0  0
 17 16  1  0  0  0  0
 18 19  1  0  0  0  0
 19 20  2  0  0  0  0
 19 25  1  0  0  0  0
 20 16  1  0  0  0  0
 21 20  1  0  0  0  0
 22 21  2  0  0  0  0
 23 22  1  0  0  0  0
 23 18  2  0  0  0  0
 24 18  1  0  0  0  0
 26 22  1  0  0  0  0
 27 28  1  0  0  0  0
 27  1  1  0  0  0  0
 29 27  1  0  0  0  0
 30 27  1  0  0  0  0
 31 33  1  0  0  0  0
 31  2  1  0  0  0  0
 32 31  2  0  0  0  0
 34 35  1  0  0  0  0
 34 33  1  1  0  0  0
 34 40  1  0  0  0  0
 35 37  1  0  0  0  0
 36 35  1  0  0  0  0
 37 38  1  0  0  0  0
 37 39  1  0  0  0  0
 40 41  1  0  0  0  0
 40 39  1  0  0  0  0
M  END
>  <minimizedAffinity>
-5.19382954

$$$$

 OpenBabel03252503373D

 41 44  0  0  1  0  0  0  0  0999 V2000
   38.9940   25.7390   42.8560 C   0  0  0  0  0  0  0  0  0  0  0  0
   38.1810   25.5930   41.8100 C   0  0  0  0  0  0  0  0  0  0  0  0
   37.3260   26.6490   41.4090 N   0  0  0  0  0  0  0  0  0  0  0  0
   36.6840   27.3830   40.3850 C   0  0  0  0  0  0  0  0  0  0  0  0
   36.5700   27.2770   39.1240 O   0  0  0  0  0  0  0  0  0  0  0  0
   36.1340   28.3980   41.2670 C   0  0  1  0  0  0  0  0  0  0  0  0
   36.7020   27.5370   42.3670 C   0  0  2  0  0  0  0  0  0  0  0  0
   38.0030   28.2660   43.3620 S   0  0  0  0  0  0  0  0  0  0  0  0
   39.1500   26.9370   43.7300 C   0  0  0  0  0  0  0  0  0  0  0  0
   35.0320   28.4240   41.4150 H   0  0  0  0  0  0  0  0  0  0  0  0
   35.9420   27.0260   43.0120 H   0  0  0  0  0  0  0  0  0  0  0  0
   38.9550   26.6020   44.7690 H   0  0  0  0  0  0  0  0  0  0  0  0
   40.2030   27.2790   43.6780 H   0  0  0  0  0  0  0  0  0  0  0  0
   36.7500   29.7140   41.0730 C   0  0  0  0  0  0  0  0  0  0  0  0
   36.3720   30.8620   41.3700 O   0  0  0  0  0  0  0  0  0  0  0  0
   38.0350   29.6550   40.4160 N   0  0  0  0  0  0  0  0  0  0  0  0
   38.6350   28.8640   40.0940 H   0  0  0  0  0  0  0  0  0  0  0  0
   39.4480   32.5690   38.5900 C   0  0  0  0  0  0  0  0  0  0  0  0
   38.7200   31.3920   38.8190 C   0  0  0  0  0  0  0  0  0  0  0  0
   38.7370   30.8380   40.0850 C   0  0  0  0  0  0  0  0  0  0  0  0
   39.4520   31.4430   41.0570 N   0  0  0  0  0  0  0  0  0  0  0  0
   40.1570   32.5890   40.8210 C   0  0  0  0  0  0  0  0  0  0  0  0
   40.1360   33.1280   39.5780 N   0  0  0  0  0  0  0  0  0  0  0  0
   39.4660   33.0360   37.6260 H   0  0  0  0  0  0  0  0  0  0  0  0
   38.1590   30.9240   38.0400 H   0  0  0  0  0  0  0  0  0  0  0  0
   40.6880   32.9740   41.6780 H   0  0  0  0  0  0  0  0  0  0  0  0
   39.8330   24.5570   43.1690 C   0  0  0  0  0  0  0  0  0  0  0  0
   40.1170   24.5490   44.2440 H   0  0  0  0  0  0  0  0  0  0  0  0
   40.7810   24.6100   42.5940 H   0  0  0  0  0  0  0  0  0  0  0  0
   39.2910   23.5990   42.9910 H   0  0  0  0  0  0  0  0  0  0  0  0
   38.1390   24.3570   41.0470 C   0  0  0  0  0  0  0  0  0  0  0  0
   37.2790   23.4570   41.2470 O   0  0  0  0  0  0  0  0  0  0  0  0
   38.9240   23.8560   40.0120 O   0  0  0  0  0  0  0  0  0  0  0  0
   39.2710   24.5890   38.8830 C   0  0  1  0  0  3  0  0  0  0  0  0
   40.7340   24.9910   39.0540 C   0  0  0  0  0  3  0  0  0  0  0  0
   40.9640   25.0800   40.1490 H   0  0  0  0  0  0  0  0  0  0  0  0
   41.4520   23.8510   38.4080 C   0  0  0  0  0  3  0  0  0  0  0  0
   41.8310   24.1010   37.3920 H   0  0  0  0  0  0  0  0  0  0  0  0
   40.5030   22.8310   38.2210 O   0  0  0  0  0  0  0  0  0  0  0  0
   39.4160   23.5730   37.7430 C   0  0  0  0  0  3  0  0  0  0  0  0
   38.5110   22.9080   37.6860 H   0  0  0  0  0  0  0  0  0  0  0  0
  1 27  1  0  0  0  0
  1  9  1  0  0  0  0
  2  1  2  0  0  0  0
  3  2  1  0  0  0  0
  3  7  1  0  0  0  0
  4  6  1  0  0  0  0
  4  3  1  0  0  0  0
  5  4  2  0  0  0  0
  6 10  1  6  0  0  0
  6  7  1  0  0  0  0
  7 11  1  1  0  0  0
  7  8  1  0  0  0  0
  8  9  1  0  0  0  0
  9 12  1  0  0  0  0
 13  9  1  0  0  0  0
 14  6  1  0  0  0  0
 14 15  2  0  0  0  0
 16 14  1  0  0  0  0
 17 16  1  0  0  0  0
 18 19  2  0  0  0  0
 18 23  1  0  0  0  0
 19 20  1  0  0  0  0
 20 16  1  0  0  0  0
 20 21  2  0  0  0  0
 22 21  1  0  0  0  0
 22 26  1  0  0  0  0
 23 22  2  0  0  0  0
 24 18  1  0  0  0  0
 25 19  1  0  0  0  0
 27 28  1  0  0  0  0
 29 27  1  0  0  0  0
 30 27  1  0  0  0  0
 31 32  2  0  0  0  0
 31  2  1  0  0  0  0
 33 31  1  0  0  0  0
 34 35  1  0  0  0  0
 34 33  1  1  0  0  0
 35 36  1  0  0  0  0
 37 35  1  0  0  0  0
 38 37  1  0  0  0  0
 39 37  1  0  0  0  0
 40 39  1  0  0  0  0
 40 34  1  0  0  0  0
 41 40  1  0  0  0  0
M  END
>  <minimizedAffinity>
-5.15995169

$$$$
