
 OpenBabel03252503013D

 29 30  0  0  1  0  0  0  0  0999 V2000
   36.3580   30.2110   38.9130 N   0  0  0  0  0  0  0  0  0  0  0  0
   36.3190   31.2630   38.7690 H   0  0  0  0  0  0  0  0  0  0  0  0
   37.7760   29.8530   38.7860 C   0  0  0  0  0  0  0  0  0  0  0  0
   37.7940   28.8830   38.2440 H   0  0  0  0  0  0  0  0  0  0  0  0
   38.2590   29.7090   39.7810 H   0  0  0  0  0  0  0  0  0  0  0  0
   38.5480   31.1020   37.7730 S   0  0  0  0  0  0  0  0  0  0  0  0
   38.6220   32.8610   39.9040 C   0  0  0  0  0  0  0  0  0  0  0  0
   39.3330   32.3340   38.8340 C   0  0  0  0  0  0  0  0  0  0  0  0
   40.6470   32.7500   38.5750 C   0  0  0  0  0  0  0  0  0  0  0  0
   41.1700   33.6840   39.4220 N   0  0  0  0  0  0  0  0  0  0  0  0
   40.4460   34.1610   40.4400 C   0  0  0  0  0  0  0  0  0  0  0  0
   39.1960   33.7870   40.7120 N   0  0  0  0  0  0  0  0  0  0  0  0
   37.6020   32.5650   40.1380 H   0  0  0  0  0  0  0  0  0  0  0  0
   41.1100   32.2830   37.7260 H   0  0  0  0  0  0  0  0  0  0  0  0
   41.0580   34.8940   40.9850 H   0  0  0  0  0  0  0  0  0  0  0  0
   35.7700   29.8520   40.5030 S   0  0  0  0  0  0  0  0  0  0  0  0
   35.7460   31.0450   41.3800 O   0  0  0  0  0  0  0  0  0  0  0  0
   35.0440   31.7310   41.3240 H   0  0  0  0  0  0  0  0  0  0  0  0
   34.3770   29.2920   40.3140 O   0  0  0  0  0  0  0  0  0  0  0  0
   33.5410   29.7750   40.2130 H   0  0  0  0  0  0  0  0  0  0  0  0
   36.6660   28.6010   41.1590 O   0  0  0  0  0  0  0  0  0  0  0  0
   37.2180   28.9520   42.3870 C   0  0  1  0  0  3  0  0  0  0  0  0
   37.0100   27.7920   43.3300 C   0  0  0  0  0  3  0  0  0  0  0  0
   36.7390   28.1240   44.3450 H   0  0  0  0  0  0  0  0  0  0  0  0
   38.4100   27.1770   43.3690 C   0  0  0  0  0  3  0  0  0  0  0  0
   38.5860   26.6030   42.4170 H   0  0  0  0  0  0  0  0  0  0  0  0
   39.2060   28.3240   43.3970 O   0  0  0  0  0  0  0  0  0  0  0  0
   38.7260   29.0010   42.2540 C   0  0  0  0  0  3  0  0  0  0  0  0
   39.0880   30.0560   42.2300 H   0  0  0  0  0  0  0  0  0  0  0  0
  1 16  1  0  0  0  0
  2  1  1  0  0  0  0
  3  1  1  0  0  0  0
  3  5  1  0  0  0  0
  4  3  1  0  0  0  0
  6  3  1  0  0  0  0
  6  8  1  0  0  0  0
  7 13  1  0  0  0  0
  7 12  1  0  0  0  0
  8  7  2  0  0  0  0
  9  8  1  0  0  0  0
  9 10  2  0  0  0  0
 10 11  1  0  0  0  0
 11 12  2  0  0  0  0
 11 15  1  0  0  0  0
 14  9  1  0  0  0  0
 16 21  1  0  0  0  0
 16 17  1  0  0  0  0
 18 17  1  0  0  0  0
 19 16  1  0  0  0  0
 20 19  1  0  0  0  0
 22 21  1  6  0  0  0
 22 23  1  0  0  0  0
 23 25  1  0  0  0  0
 23 24  1  0  0  0  0
 25 27  1  0  0  0  0
 26 25  1  0  0  0  0
 28 22  1  0  0  0  0
 28 27  1  0  0  0  0
 29 28  1  0  0  0  0
M  END
>  <minimizedAffinity>
-4.70662022

$$$$

 OpenBabel03252503013D

 29 30  0  0  1  0  0  0  0  0999 V2000
   37.3340   29.6840   42.7880 N   0  0  0  0  0  0  0  0  0  0  0  0
   36.8500   30.3010   43.5040 H   0  0  0  0  0  0  0  0  0  0  0  0
   37.2920   28.3290   43.3490 C   0  0  0  0  0  0  0  0  0  0  0  0
   36.4280   27.8280   42.8620 H   0  0  0  0  0  0  0  0  0  0  0  0
   37.1170   28.3400   44.4500 H   0  0  0  0  0  0  0  0  0  0  0  0
   38.7970   27.5060   42.8560 S   0  0  0  0  0  0  0  0  0  0  0  0
   37.0780   25.4580   42.1540 C   0  0  0  0  0  0  0  0  0  0  0  0
   38.3950   25.9010   42.1330 C   0  0  0  0  0  0  0  0  0  0  0  0
   39.4040   25.1150   41.5580 C   0  0  0  0  0  0  0  0  0  0  0  0
   39.0200   23.9160   41.0320 N   0  0  0  0  0  0  0  0  0  0  0  0
   37.7390   23.5330   41.0760 C   0  0  0  0  0  0  0  0  0  0  0  0
   36.7560   24.2550   41.6150 N   0  0  0  0  0  0  0  0  0  0  0  0
   36.2680   26.0370   42.5890 H   0  0  0  0  0  0  0  0  0  0  0  0
   40.3870   25.5470   41.5910 H   0  0  0  0  0  0  0  0  0  0  0  0
   37.6590   22.5450   40.6010 H   0  0  0  0  0  0  0  0  0  0  0  0
   36.4450   29.7660   41.3020 S   0  0  0  0  0  0  0  0  0  0  0  0
   35.6460   28.5450   41.0530 O   0  0  0  0  0  0  0  0  0  0  0  0
   34.7900   28.3700   41.5030 H   0  0  0  0  0  0  0  0  0  0  0  0
   35.5530   30.9830   41.4180 O   0  0  0  0  0  0  0  0  0  0  0  0
   34.6800   31.0520   41.8390 H   0  0  0  0  0  0  0  0  0  0  0  0
   37.4950   30.1040   40.0440 O   0  0  0  0  0  0  0  0  0  0  0  0
   36.8600   30.7910   39.0150 C   0  0  1  0  0  3  0  0  0  0  0  0
   37.6720   32.0290   38.7210 C   0  0  0  0  0  3  0  0  0  0  0  0
   37.0360   32.9060   38.5200 H   0  0  0  0  0  0  0  0  0  0  0  0
   38.3840   31.6280   37.4280 C   0  0  0  0  0  3  0  0  0  0  0  0
   39.2230   30.9190   37.6750 H   0  0  0  0  0  0  0  0  0  0  0  0
   37.3600   30.9530   36.7590 O   0  0  0  0  0  0  0  0  0  0  0  0
   36.9990   29.9960   37.7330 C   0  0  0  0  0  3  0  0  0  0  0  0
   36.0360   29.4980   37.4690 H   0  0  0  0  0  0  0  0  0  0  0  0
  1  3  1  0  0  0  0
  1  2  1  0  0  0  0
  3  5  1  0  0  0  0
  4  3  1  0  0  0  0
  6  3  1  0  0  0  0
  7 13  1  0  0  0  0
  8  7  1  0  0  0  0
  8  6  1  0  0  0  0
  9 14  1  0  0  0  0
  9  8  2  0  0  0  0
 10 11  2  0  0  0  0
 10  9  1  0  0  0  0
 11 12  1  0  0  0  0
 12  7  2  0  0  0  0
 15 11  1  0  0  0  0
 16 19  1  0  0  0  0
 16  1  1  0  0  0  0
 17 16  1  0  0  0  0
 17 18  1  0  0  0  0
 19 20  1  0  0  0  0
 21 16  1  0  0  0  0
 22 21  1  1  0  0  0
 23 22  1  0  0  0  0
 24 23  1  0  0  0  0
 25 26  1  0  0  0  0
 25 23  1  0  0  0  0
 27 25  1  0  0  0  0
 27 28  1  0  0  0  0
 28 22  1  0  0  0  0
 29 28  1  0  0  0  0
M  END
>  <minimizedAffinity>
-4.6768117

$$$$

 OpenBabel03252503013D

 29 30  0  0  1  0  0  0  0  0999 V2000
   38.1520   30.4040   41.2190 N   0  0  0  0  0  0  0  0  0  0  0  0
   38.8380   31.1380   41.5660 H   0  0  0  0  0  0  0  0  0  0  0  0
   37.8060   29.6060   42.4010 C   0  0  0  0  0  0  0  0  0  0  0  0
   36.9390   28.9800   42.0980 H   0  0  0  0  0  0  0  0  0  0  0  0
   37.4940   30.2470   43.2590 H   0  0  0  0  0  0  0  0  0  0  0  0
   39.1980   28.5460   42.7500 S   0  0  0  0  0  0  0  0  0  0  0  0
   37.4510   26.5300   42.0260 C   0  0  0  0  0  0  0  0  0  0  0  0
   38.7040   26.8200   42.5510 C   0  0  0  0  0  0  0  0  0  0  0  0
   39.5800   25.7900   42.9240 C   0  0  0  0  0  0  0  0  0  0  0  0
   39.1340   24.5140   42.7430 N   0  0  0  0  0  0  0  0  0  0  0  0
   37.9190   24.2840   42.2320 C   0  0  0  0  0  0  0  0  0  0  0  0
   37.0630   25.2390   41.8680 N   0  0  0  0  0  0  0  0  0  0  0  0
   36.7450   27.2980   41.7240 H   0  0  0  0  0  0  0  0  0  0  0  0
   40.5230   26.1200   43.3180 H   0  0  0  0  0  0  0  0  0  0  0  0
   37.7690   23.1960   42.1760 H   0  0  0  0  0  0  0  0  0  0  0  0
   36.7550   31.2110   40.5870 S   0  0  0  0  0  0  0  0  0  0  0  0
   35.5360   30.9390   41.3820 O   0  0  0  0  0  0  0  0  0  0  0  0
   35.3500   31.3840   42.2380 H   0  0  0  0  0  0  0  0  0  0  0  0
   37.0880   32.6870   40.5960 O   0  0  0  0  0  0  0  0  0  0  0  0
   37.0090   33.3180   41.3300 H   0  0  0  0  0  0  0  0  0  0  0  0
   36.5630   30.8090   38.9740 O   0  0  0  0  0  0  0  0  0  0  0  0
   36.3800   29.4410   38.8030 C   0  0  1  0  0  3  0  0  0  0  0  0
   35.0610   29.2410   38.0970 C   0  0  0  0  0  3  0  0  0  0  0  0
   34.5020   28.3790   38.4950 H   0  0  0  0  0  0  0  0  0  0  0  0
   35.5230   28.9160   36.6750 C   0  0  0  0  0  3  0  0  0  0  0  0
   35.8540   29.8660   36.1690 H   0  0  0  0  0  0  0  0  0  0  0  0
   36.6250   28.0960   36.9330 O   0  0  0  0  0  0  0  0  0  0  0  0
   37.3790   28.9340   37.7840 C   0  0  0  0  0  3  0  0  0  0  0  0
   38.2000   28.3670   38.2820 H   0  0  0  0  0  0  0  0  0  0  0  0
  1  2  1  0  0  0  0
  1  3  1  0  0  0  0
  3  6  1  0  0  0  0
  3  5  1  0  0  0  0
  4  3  1  0  0  0  0
  7  8  1  0  0  0  0
  8  6  1  0  0  0  0
  8  9  2  0  0  0  0
  9 14  1  0  0  0  0
 10  9  1  0  0  0  0
 11 10  2  0  0  0  0
 12  7  2  0  0  0  0
 12 11  1  0  0  0  0
 13  7  1  0  0  0  0
 15 11  1  0  0  0  0
 16 19  1  0  0  0  0
 16  1  1  0  0  0  0
 16 17  1  0  0  0  0
 17 18  1  0  0  0  0
 19 20  1  0  0  0  0
 21 16  1  0  0  0  0
 22 21  1  6  0  0  0
 23 24  1  0  0  0  0
 23 22  1  0  0  0  0
 25 27  1  0  0  0  0
 25 23  1  0  0  0  0
 26 25  1  0  0  0  0
 27 28  1  0  0  0  0
 28 29  1  0  0  0  0
 28 22  1  0  0  0  0
M  END
>  <minimizedAffinity>
-4.64234638

$$$$

 OpenBabel03252503013D

 29 30  0  0  1  0  0  0  0  0999 V2000
   37.2300   29.4810   42.9980 N   0  0  0  0  0  0  0  0  0  0  0  0
   36.6110   30.0260   43.6670 H   0  0  0  0  0  0  0  0  0  0  0  0
   37.0550   28.0710   43.3650 C   0  0  0  0  0  0  0  0  0  0  0  0
   36.2890   27.6710   42.6650 H   0  0  0  0  0  0  0  0  0  0  0  0
   36.6740   27.9570   44.4060 H   0  0  0  0  0  0  0  0  0  0  0  0
   38.6090   27.2480   43.0600 S   0  0  0  0  0  0  0  0  0  0  0  0
   37.0060   25.2300   42.0610 C   0  0  0  0  0  0  0  0  0  0  0  0
   38.3070   25.7030   42.1750 C   0  0  0  0  0  0  0  0  0  0  0  0
   39.3770   24.9950   41.6100 C   0  0  0  0  0  0  0  0  0  0  0  0
   39.0680   23.8380   40.9570 N   0  0  0  0  0  0  0  0  0  0  0  0
   37.7990   23.4230   40.8730 C   0  0  0  0  0  0  0  0  0  0  0  0
   36.7590   24.0710   41.3990 N   0  0  0  0  0  0  0  0  0  0  0  0
   36.1500   25.7480   42.4840 H   0  0  0  0  0  0  0  0  0  0  0  0
   40.3420   25.4460   41.7530 H   0  0  0  0  0  0  0  0  0  0  0  0
   37.7820   22.4780   40.3100 H   0  0  0  0  0  0  0  0  0  0  0  0
   36.6820   29.7720   41.3800 S   0  0  0  0  0  0  0  0  0  0  0  0
   36.0860   28.5680   40.7600 O   0  0  0  0  0  0  0  0  0  0  0  0
   35.1750   28.2600   40.9650 H   0  0  0  0  0  0  0  0  0  0  0  0
   35.6650   30.8890   41.4810 O   0  0  0  0  0  0  0  0  0  0  0  0
   34.7200   30.8250   41.6940 H   0  0  0  0  0  0  0  0  0  0  0  0
   37.9390   30.3980   40.4710 O   0  0  0  0  0  0  0  0  0  0  0  0
   38.0840   31.7670   40.6680 C   0  0  1  0  0  3  0  0  0  0  0  0
   39.4070   31.9920   41.3590 C   0  0  0  0  0  3  0  0  0  0  0  0
   39.3450   32.7730   42.1340 H   0  0  0  0  0  0  0  0  0  0  0  0
   40.2700   32.5070   40.2060 C   0  0  0  0  0  3  0  0  0  0  0  0
   40.5580   31.6410   39.5470 H   0  0  0  0  0  0  0  0  0  0  0  0
   39.3630   33.3380   39.5440 O   0  0  0  0  0  0  0  0  0  0  0  0
   38.2970   32.4390   39.3270 C   0  0  0  0  0  3  0  0  0  0  0  0
   37.3750   32.9780   39.0030 H   0  0  0  0  0  0  0  0  0  0  0  0
  1  3  1  0  0  0  0
  1  2  1  0  0  0  0
  3  5  1  0  0  0  0
  4  3  1  0  0  0  0
  6  3  1  0  0  0  0
  7  8  1  0  0  0  0
  7 13  1  0  0  0  0
  8  6  1  0  0  0  0
  9 14  1  0  0  0  0
  9  8  2  0  0  0  0
 10  9  1  0  0  0  0
 11 10  2  0  0  0  0
 11 12  1  0  0  0  0
 12  7  2  0  0  0  0
 15 11  1  0  0  0  0
 16 19  1  0  0  0  0
 16  1  1  0  0  0  0
 17 18  1  0  0  0  0
 17 16  1  0  0  0  0
 19 20  1  0  0  0  0
 21 16  1  0  0  0  0
 22 21  1  6  0  0  0
 22 23  1  0  0  0  0
 23 24  1  0  0  0  0
 25 23  1  0  0  0  0
 26 25  1  0  0  0  0
 27 25  1  0  0  0  0
 28 27  1  0  0  0  0
 28 22  1  0  0  0  0
 29 28  1  0  0  0  0
M  END
>  <minimizedAffinity>
-4.627491

$$$$

 OpenBabel03252503013D

 29 30  0  0  1  0  0  0  0  0999 V2000
   36.6230   30.2720   39.2580 N   0  0  0  0  0  0  0  0  0  0  0  0
   37.5350   29.7530   39.0900 H   0  0  0  0  0  0  0  0  0  0  0  0
   35.6140   29.2280   39.4690 C   0  0  0  0  0  0  0  0  0  0  0  0
   34.9620   29.2540   38.5700 H   0  0  0  0  0  0  0  0  0  0  0  0
   34.9840   29.4340   40.3660 H   0  0  0  0  0  0  0  0  0  0  0  0
   36.4730   27.6650   39.5230 S   0  0  0  0  0  0  0  0  0  0  0  0
   36.6210   27.6500   42.2830 C   0  0  0  0  0  0  0  0  0  0  0  0
   37.3370   27.5090   41.1010 C   0  0  0  0  0  0  0  0  0  0  0  0
   38.7140   27.2470   41.1270 C   0  0  0  0  0  0  0  0  0  0  0  0
   39.2940   27.1430   42.3580 N   0  0  0  0  0  0  0  0  0  0  0  0
   38.5620   27.2860   43.4680 C   0  0  0  0  0  0  0  0  0  0  0  0
   37.2520   27.5350   43.4790 N   0  0  0  0  0  0  0  0  0  0  0  0
   35.5530   27.8530   42.3060 H   0  0  0  0  0  0  0  0  0  0  0  0
   39.1740   27.1550   40.1600 H   0  0  0  0  0  0  0  0  0  0  0  0
   39.2260   27.1650   44.3360 H   0  0  0  0  0  0  0  0  0  0  0  0
   36.8030   31.2540   40.6750 S   0  0  0  0  0  0  0  0  0  0  0  0
   36.9470   32.6910   40.3520 O   0  0  0  0  0  0  0  0  0  0  0  0
   36.1820   33.2600   40.1100 H   0  0  0  0  0  0  0  0  0  0  0  0
   35.5670   31.0080   41.5110 O   0  0  0  0  0  0  0  0  0  0  0  0
   34.6960   31.4320   41.4390 H   0  0  0  0  0  0  0  0  0  0  0  0
   38.0800   30.6790   41.5910 O   0  0  0  0  0  0  0  0  0  0  0  0
   39.2360   31.4250   41.3870 C   0  0  1  0  0  3  0  0  0  0  0  0
   40.1690   31.1490   42.5410 C   0  0  0  0  0  3  0  0  0  0  0  0
   40.6920   32.0570   42.8810 H   0  0  0  0  0  0  0  0  0  0  0  0
   41.1850   30.2070   41.8930 C   0  0  0  0  0  3  0  0  0  0  0  0
   40.7240   29.1850   41.7870 H   0  0  0  0  0  0  0  0  0  0  0  0
   41.3370   30.8010   40.6380 O   0  0  0  0  0  0  0  0  0  0  0  0
   39.9930   30.8500   40.2080 C   0  0  0  0  0  3  0  0  0  0  0  0
   39.8820   31.5010   39.3090 H   0  0  0  0  0  0  0  0  0  0  0  0
  1  3  1  0  0  0  0
  1 16  1  0  0  0  0
  2  1  1  0  0  0  0
  3  6  1  0  0  0  0
  3  5  1  0  0  0  0
  4  3  1  0  0  0  0
  6  8  1  0  0  0  0
  7 13  1  0  0  0  0
  7 12  1  0  0  0  0
  8  9  1  0  0  0  0
  8  7  2  0  0  0  0
  9 10  2  0  0  0  0
 10 11  1  0  0  0  0
 11 12  2  0  0  0  0
 11 15  1  0  0  0  0
 14  9  1  0  0  0  0
 16 19  1  0  0  0  0
 16 21  1  0  0  0  0
 17 16  1  0  0  0  0
 18 17  1  0  0  0  0
 20 19  1  0  0  0  0
 22 21  1  1  0  0  0
 22 23  1  0  0  0  0
 23 24  1  0  0  0  0
 25 23  1  0  0  0  0
 26 25  1  0  0  0  0
 27 25  1  0  0  0  0
 28 27  1  0  0  0  0
 28 22  1  0  0  0  0
 29 28  1  0  0  0  0
M  END
>  <minimizedAffinity>
-4.46367979

$$$$

 OpenBabel03252503013D

 29 30  0  0  1  0  0  0  0  0999 V2000
   38.0600   32.0400   40.9530 N   0  0  0  0  0  0  0  0  0  0  0  0
   39.0120   31.6030   40.7740 H   0  0  0  0  0  0  0  0  0  0  0  0
   37.9620   33.1590   40.0080 C   0  0  0  0  0  0  0  0  0  0  0  0
   37.2220   33.8610   40.4490 H   0  0  0  0  0  0  0  0  0  0  0  0
   37.5830   32.8290   39.0120 H   0  0  0  0  0  0  0  0  0  0  0  0
   39.5600   33.9500   39.9580 S   0  0  0  0  0  0  0  0  0  0  0  0
   41.9520   32.5910   39.6910 C   0  0  0  0  0  0  0  0  0  0  0  0
   40.7320   32.8830   39.0930 C   0  0  0  0  0  0  0  0  0  0  0  0
   40.4080   32.3570   37.8350 C   0  0  0  0  0  0  0  0  0  0  0  0
   41.3460   31.5590   37.2470 N   0  0  0  0  0  0  0  0  0  0  0  0
   42.5060   31.3060   37.8610 C   0  0  0  0  0  0  0  0  0  0  0  0
   42.8450   31.7900   39.0570 N   0  0  0  0  0  0  0  0  0  0  0  0
   42.2400   32.9780   40.6640 H   0  0  0  0  0  0  0  0  0  0  0  0
   39.4420   32.6410   37.4610 H   0  0  0  0  0  0  0  0  0  0  0  0
   43.1040   30.6480   37.2130 H   0  0  0  0  0  0  0  0  0  0  0  0
   36.8400   30.8520   40.6340 S   0  0  0  0  0  0  0  0  0  0  0  0
   35.5930   31.1060   41.3900 O   0  0  0  0  0  0  0  0  0  0  0  0
   34.9370   31.7850   41.1190 H   0  0  0  0  0  0  0  0  0  0  0  0
   36.5900   30.9030   39.1430 O   0  0  0  0  0  0  0  0  0  0  0  0
   36.0060   31.5020   38.6500 H   0  0  0  0  0  0  0  0  0  0  0  0
   37.4600   29.3260   40.9280 O   0  0  0  0  0  0  0  0  0  0  0  0
   37.2250   28.9180   42.2370 C   0  0  1  0  0  3  0  0  0  0  0  0
   36.7940   27.4720   42.1950 C   0  0  0  0  0  3  0  0  0  0  0  0
   35.9830   27.2590   42.9100 H   0  0  0  0  0  0  0  0  0  0  0  0
   38.0650   26.7620   42.6640 C   0  0  0  0  0  3  0  0  0  0  0  0
   38.8110   26.7490   41.8210 H   0  0  0  0  0  0  0  0  0  0  0  0
   38.4940   27.6220   43.6780 O   0  0  0  0  0  0  0  0  0  0  0  0
   38.5450   28.8460   42.9750 C   0  0  0  0  0  3  0  0  0  0  0  0
   38.6560   29.7070   43.6760 H   0  0  0  0  0  0  0  0  0  0  0  0
  2  1  1  0  0  0  0
  3  4  1  0  0  0  0
  3  1  1  0  0  0  0
  5  3  1  0  0  0  0
  6  3  1  0  0  0  0
  7 13  1  0  0  0  0
  8  7  1  0  0  0  0
  8  6  1  0  0  0  0
  9  8  2  0  0  0  0
 10  9  1  0  0  0  0
 10 11  2  0  0  0  0
 11 12  1  0  0  0  0
 12  7  2  0  0  0  0
 14  9  1  0  0  0  0
 15 11  1  0  0  0  0
 16 21  1  0  0  0  0
 16  1  1  0  0  0  0
 16 17  1  0  0  0  0
 18 17  1  0  0  0  0
 19 16  1  0  0  0  0
 20 19  1  0  0  0  0
 22 21  1  6  0  0  0
 22 28  1  0  0  0  0
 23 22  1  0  0  0  0
 23 25  1  0  0  0  0
 23 24  1  0  0  0  0
 25 27  1  0  0  0  0
 26 25  1  0  0  0  0
 28 29  1  0  0  0  0
 28 27  1  0  0  0  0
M  END
>  <minimizedAffinity>
-4.41259289

$$$$

 OpenBabel03252503013D

 29 30  0  0  1  0  0  0  0  0999 V2000
   36.5040   28.4760   41.1520 N   0  0  0  0  0  0  0  0  0  0  0  0
   37.3920   28.3330   40.5850 H   0  0  0  0  0  0  0  0  0  0  0  0
   36.9570   28.8290   42.5020 C   0  0  0  0  0  0  0  0  0  0  0  0
   36.5080   28.0690   43.1780 H   0  0  0  0  0  0  0  0  0  0  0  0
   36.5910   29.8350   42.8130 H   0  0  0  0  0  0  0  0  0  0  0  0
   38.7330   28.6560   42.5270 S   0  0  0  0  0  0  0  0  0  0  0  0
   40.4070   26.5790   43.2500 C   0  0  0  0  0  0  0  0  0  0  0  0
   39.1640   26.9140   42.7280 C   0  0  0  0  0  0  0  0  0  0  0  0
   38.2500   25.9160   42.3600 C   0  0  0  0  0  0  0  0  0  0  0  0
   38.6500   24.6250   42.5430 N   0  0  0  0  0  0  0  0  0  0  0  0
   39.8570   24.3510   43.0510 C   0  0  0  0  0  0  0  0  0  0  0  0
   40.7480   25.2760   43.4100 N   0  0  0  0  0  0  0  0  0  0  0  0
   41.1420   27.3220   43.5480 H   0  0  0  0  0  0  0  0  0  0  0  0
   37.3190   26.2790   41.9680 H   0  0  0  0  0  0  0  0  0  0  0  0
   39.9670   23.2590   43.1100 H   0  0  0  0  0  0  0  0  0  0  0  0
   35.6020   29.7740   40.4420 S   0  0  0  0  0  0  0  0  0  0  0  0
   34.2270   29.3700   40.0720 O   0  0  0  0  0  0  0  0  0  0  0  0
   33.5020   29.2880   40.7310 H   0  0  0  0  0  0  0  0  0  0  0  0
   35.5830   30.8800   41.4750 O   0  0  0  0  0  0  0  0  0  0  0  0
   34.9780   30.9910   42.2270 H   0  0  0  0  0  0  0  0  0  0  0  0
   36.4520   30.3960   39.1420 O   0  0  0  0  0  0  0  0  0  0  0  0
   37.6590   30.9620   39.5390 C   0  0  1  0  0  3  0  0  0  0  0  0
   38.7700   30.1440   38.9280 C   0  0  0  0  0  3  0  0  0  0  0  0
   39.6140   30.0020   39.6230 H   0  0  0  0  0  0  0  0  0  0  0  0
   39.2220   31.0520   37.7830 C   0  0  0  0  0  3  0  0  0  0  0  0
   38.4730   30.9880   36.9450 H   0  0  0  0  0  0  0  0  0  0  0  0
   39.1580   32.3060   38.3950 O   0  0  0  0  0  0  0  0  0  0  0  0
   37.8230   32.3030   38.8550 C   0  0  0  0  0  3  0  0  0  0  0  0
   37.6440   33.1390   39.5720 H   0  0  0  0  0  0  0  0  0  0  0  0
  1  3  1  0  0  0  0
  2  1  1  0  0  0  0
  3  6  1  0  0  0  0
  3  5  1  0  0  0  0
  3  4  1  0  0  0  0
  6  8  1  0  0  0  0
  7 12  1  0  0  0  0
  7 13  1  0  0  0  0
  8  7  2  0  0  0  0
  9 10  2  0  0  0  0
  9  8  1  0  0  0  0
 10 11  1  0  0  0  0
 11 15  1  0  0  0  0
 11 12  2  0  0  0  0
 14  9  1  0  0  0  0
 16  1  1  0  0  0  0
 16 19  1  0  0  0  0
 17 16  1  0  0  0  0
 17 18  1  0  0  0  0
 19 20  1  0  0  0  0
 21 16  1  0  0  0  0
 22 21  1  6  0  0  0
 23 22  1  0  0  0  0
 23 24  1  0  0  0  0
 25 27  1  0  0  0  0
 25 23  1  0  0  0  0
 26 25  1  0  0  0  0
 27 28  1  0  0  0  0
 28 22  1  0  0  0  0
 28 29  1  0  0  0  0
M  END
>  <minimizedAffinity>
-4.39940405

$$$$

 OpenBabel03252503013D

 29 30  0  0  1  0  0  0  0  0999 V2000
   38.3020   30.0450   40.9120 N   0  0  0  0  0  0  0  0  0  0  0  0
   38.5800   29.2290   40.2910 H   0  0  0  0  0  0  0  0  0  0  0  0
   37.9570   31.1350   39.9920 C   0  0  0  0  0  0  0  0  0  0  0  0
   36.8900   31.3720   40.1940 H   0  0  0  0  0  0  0  0  0  0  0  0
   38.0530   30.8240   38.9260 H   0  0  0  0  0  0  0  0  0  0  0  0
   38.9620   32.5410   40.4370 S   0  0  0  0  0  0  0  0  0  0  0  0
   40.3710   31.8790   38.1520 C   0  0  0  0  0  0  0  0  0  0  0  0
   40.1910   32.8330   39.1460 C   0  0  0  0  0  0  0  0  0  0  0  0
   40.9500   34.0110   39.1510 C   0  0  0  0  0  0  0  0  0  0  0  0
   41.8570   34.1580   38.1420 N   0  0  0  0  0  0  0  0  0  0  0  0
   41.9940   33.2120   37.2080 C   0  0  0  0  0  0  0  0  0  0  0  0
   41.2890   32.0810   37.1740 N   0  0  0  0  0  0  0  0  0  0  0  0
   39.8030   30.9530   38.1130 H   0  0  0  0  0  0  0  0  0  0  0  0
   40.7350   34.6840   39.9610 H   0  0  0  0  0  0  0  0  0  0  0  0
   42.7730   33.5350   36.5010 H   0  0  0  0  0  0  0  0  0  0  0  0
   36.9280   29.5740   41.8570 S   0  0  0  0  0  0  0  0  0  0  0  0
   37.1980   29.6240   43.3120 O   0  0  0  0  0  0  0  0  0  0  0  0
   37.2040   30.4640   43.8220 H   0  0  0  0  0  0  0  0  0  0  0  0
   35.8170   30.5300   41.4790 O   0  0  0  0  0  0  0  0  0  0  0  0
   35.6400   31.4180   41.8310 H   0  0  0  0  0  0  0  0  0  0  0  0
   36.4030   28.0650   41.3610 O   0  0  0  0  0  0  0  0  0  0  0  0
   37.4640   27.1840   41.1820 C   0  0  1  0  0  3  0  0  0  0  0  0
   37.5850   26.3530   42.4360 C   0  0  0  0  0  3  0  0  0  0  0  0
   38.6350   26.1820   42.7240 H   0  0  0  0  0  0  0  0  0  0  0  0
   36.9750   25.0250   41.9810 C   0  0  0  0  0  3  0  0  0  0  0  0
   35.8550   25.1290   41.9430 H   0  0  0  0  0  0  0  0  0  0  0  0
   37.4960   24.9210   40.6890 O   0  0  0  0  0  0  0  0  0  0  0  0
   37.0800   26.1540   40.1410 C   0  0  0  0  0  3  0  0  0  0  0  0
   37.5950   26.3570   39.1720 H   0  0  0  0  0  0  0  0  0  0  0  0
  1 16  1  0  0  0  0
  2  1  1  0  0  0  0
  3  4  1  0  0  0  0
  3  6  1  0  0  0  0
  3  1  1  0  0  0  0
  5  3  1  0  0  0  0
  7  8  1  0  0  0  0
  8  9  2  0  0  0  0
  8  6  1  0  0  0  0
  9 14  1  0  0  0  0
 10  9  1  0  0  0  0
 11 10  2  0  0  0  0
 12 11  1  0  0  0  0
 12  7  2  0  0  0  0
 13  7  1  0  0  0  0
 15 11  1  0  0  0  0
 16 17  1  0  0  0  0
 17 18  1  0  0  0  0
 19 20  1  0  0  0  0
 19 16  1  0  0  0  0
 21 16  1  0  0  0  0
 22 21  1  1  0  0  0
 22 23  1  0  0  0  0
 23 24  1  0  0  0  0
 25 23  1  0  0  0  0
 26 25  1  0  0  0  0
 27 25  1  0  0  0  0
 28 27  1  0  0  0  0
 28 22  1  0  0  0  0
 29 28  1  0  0  0  0
M  END
>  <minimizedAffinity>
-4.37635803

$$$$

 OpenBabel03252503013D

 29 30  0  0  1  0  0  0  0  0999 V2000
   37.2400   28.7980   40.4020 N   0  0  0  0  0  0  0  0  0  0  0  0
   37.8200   28.0910   40.9430 H   0  0  0  0  0  0  0  0  0  0  0  0
   36.0160   28.0850   40.0170 C   0  0  0  0  0  0  0  0  0  0  0  0
   35.5110   28.7350   39.2710 H   0  0  0  0  0  0  0  0  0  0  0  0
   35.3280   27.9430   40.8830 H   0  0  0  0  0  0  0  0  0  0  0  0
   36.5170   26.5660   39.2250 S   0  0  0  0  0  0  0  0  0  0  0  0
   38.9160   25.5460   40.1430 C   0  0  0  0  0  0  0  0  0  0  0  0
   37.5450   25.6080   40.3590 C   0  0  0  0  0  0  0  0  0  0  0  0
   36.9610   24.9380   41.4430 C   0  0  0  0  0  0  0  0  0  0  0  0
   37.8040   24.2360   42.2540 N   0  0  0  0  0  0  0  0  0  0  0  0
   39.1180   24.2060   42.0060 C   0  0  0  0  0  0  0  0  0  0  0  0
   39.7050   24.8310   40.9850 N   0  0  0  0  0  0  0  0  0  0  0  0
   39.4070   26.0510   39.3160 H   0  0  0  0  0  0  0  0  0  0  0  0
   35.8950   25.0500   41.5220 H   0  0  0  0  0  0  0  0  0  0  0  0
   39.6010   23.5880   42.7770 H   0  0  0  0  0  0  0  0  0  0  0  0
   36.8760   30.1290   41.4500 S   0  0  0  0  0  0  0  0  0  0  0  0
   35.5490   30.7230   41.1700 O   0  0  0  0  0  0  0  0  0  0  0  0
   34.7090   30.3130   41.4750 H   0  0  0  0  0  0  0  0  0  0  0  0
   36.9380   29.5790   42.8580 O   0  0  0  0  0  0  0  0  0  0  0  0
   36.2440   29.1160   43.3550 H   0  0  0  0  0  0  0  0  0  0  0  0
   38.1070   31.2590   41.3610 O   0  0  0  0  0  0  0  0  0  0  0  0
   38.2820   31.7280   40.0630 C   0  0  1  0  0  3  0  0  0  0  0  0
   37.8060   33.1600   40.0270 C   0  0  0  0  0  3  0  0  0  0  0  0
   37.2550   33.3930   39.1010 H   0  0  0  0  0  0  0  0  0  0  0  0
   39.1330   33.9220   40.0160 C   0  0  0  0  0  3  0  0  0  0  0  0
   39.5740   33.9080   41.0510 H   0  0  0  0  0  0  0  0  0  0  0  0
   39.8910   33.1250   39.1550 O   0  0  0  0  0  0  0  0  0  0  0  0
   39.7650   31.8680   39.7860 C   0  0  0  0  0  3  0  0  0  0  0  0
   40.1220   31.0470   39.1200 H   0  0  0  0  0  0  0  0  0  0  0  0
  1  2  1  0  0  0  0
  1 16  1  0  0  0  0
  3  1  1  0  0  0  0
  3  5  1  0  0  0  0
  4  3  1  0  0  0  0
  6  3  1  0  0  0  0
  6  8  1  0  0  0  0
  7  8  2  0  0  0  0
  7 12  1  0  0  0  0
  8  9  1  0  0  0  0
  9 14  1  0  0  0  0
  9 10  2  0  0  0  0
 11 10  1  0  0  0  0
 11 15  1  0  0  0  0
 12 11  2  0  0  0  0
 13  7  1  0  0  0  0
 16 19  1  0  0  0  0
 17 16  1  0  0  0  0
 17 18  1  0  0  0  0
 19 20  1  0  0  0  0
 21 16  1  0  0  0  0
 22 21  1  1  0  0  0
 23 22  1  0  0  0  0
 24 23  1  0  0  0  0
 25 23  1  0  0  0  0
 25 26  1  0  0  0  0
 27 28  1  0  0  0  0
 27 25  1  0  0  0  0
 28 22  1  0  0  0  0
 29 28  1  0  0  0  0
M  END
>  <minimizedAffinity>
-4.3646636

$$$$
