
 OpenBabel03252508503D

 27 29  0  0  1  0  0  0  0  0999 V2000
   45.9760   34.2160   41.0260 C   0  0  0  0  0  0  0  0  0  0  0  0
   46.5550   34.8170   42.1380 C   0  0  0  0  0  0  0  0  0  0  0  0
   47.9050   35.1630   42.0250 C   0  0  0  0  0  0  0  0  0  0  0  0
   48.5650   34.9040   40.8650 N   0  0  0  0  0  0  0  0  0  0  0  0
   47.9580   34.3210   39.8140 C   0  0  0  0  0  0  0  0  0  0  0  0
   46.6570   33.9750   39.8960 N   0  0  0  0  0  0  0  0  0  0  0  0
   48.3530   35.6300   42.8920 H   0  0  0  0  0  0  0  0  0  0  0  0
   48.5520   34.1480   38.9270 H   0  0  0  0  0  0  0  0  0  0  0  0
   45.7670   35.0530   43.3340 C   0  0  0  0  0  0  0  0  0  0  0  0
   45.0720   36.2410   43.5450 C   0  0  0  0  0  0  0  0  0  0  0  0
   44.4800   36.0280   44.7810 C   0  0  0  0  0  0  0  0  0  0  0  0
   44.7970   34.8010   45.2770 N   0  0  0  0  0  0  0  0  0  0  0  0
   45.5750   34.2440   44.3740 N   0  0  0  0  0  0  0  0  0  0  0  0
   44.9710   37.1370   42.9510 H   0  0  0  0  0  0  0  0  0  0  0  0
   43.8370   36.7700   45.2840 H   0  0  0  0  0  0  0  0  0  0  0  0
   44.4450   34.4560   46.1990 H   0  0  0  0  0  0  0  0  0  0  0  0
   44.6430   33.8580   41.0990 O   0  0  0  0  0  0  0  0  0  0  0  0
   43.5880   34.4760   40.4890 C   0  0  0  0  0  0  0  0  0  0  0  0
   43.1190   35.6350   40.7370 O   0  0  0  0  0  0  0  0  0  0  0  0
   42.6320   34.1030   39.3870 C   0  0  2  0  0  3  0  0  0  0  0  0
   42.2010   35.2850   38.5990 C   0  0  0  0  0  3  0  0  0  0  0  0
   42.1910   36.2460   39.1060 H   0  0  0  0  0  0  0  0  0  0  0  0
   40.7890   34.8410   38.1900 C   0  0  0  0  0  3  0  0  0  0  0  0
   40.1710   35.6690   37.8520 H   0  0  0  0  0  0  0  0  0  0  0  0
   40.3330   34.3580   39.4370 O   0  0  0  0  0  0  0  0  0  0  0  0
   41.3370   33.5380   39.9100 C   0  0  0  0  0  3  0  0  0  0  0  0
   41.3510   33.4960   41.0180 H   0  0  0  0  0  0  0  0  0  0  0  0
  1 17  1  0  0  0  0
  1  2  1  0  0  0  0
  2  9  1  0  0  0  0
  3  2  2  0  0  0  0
  3  7  1  0  0  0  0
  4  3  1  0  0  0  0
  5  6  1  0  0  0  0
  5  4  2  0  0  0  0
  6  1  2  0  0  0  0
  8  5  1  0  0  0  0
  9 10  1  0  0  0  0
  9 13  2  0  0  0  0
 10 11  2  0  0  0  0
 11 12  1  0  0  0  0
 11 15  1  0  0  0  0
 12 16  1  0  0  0  0
 13 12  1  0  0  0  0
 14 10  1  0  0  0  0
 18 19  2  0  0  0  0
 18 17  1  0  0  0  0
 20 26  1  0  0  0  0
 20 18  1  1  0  0  0
 21 22  1  0  0  0  0
 21 20  1  0  0  0  0
 23 21  1  0  0  0  0
 23 25  1  0  0  0  0
 24 23  1  0  0  0  0
 25 26  1  0  0  0  0
 26 27  1  0  0  0  0
M  END
>  <minimizedAffinity>
-5.38273525

>  <minimizedRMSD>
0.354155093

$$$$
