
 OpenBabel03252509023D

 44 46  0  0  1  0  0  0  0  0999 V2000
   36.8650   29.0510   40.4230 N   0  0  0  0  0  0  0  0  0  0  0  0
   35.8390   28.1840   39.9680 C   0  0  0  0  0  0  0  0  0  0  0  0
   34.9720   28.7310   38.8570 C   0  0  0  0  0  0  0  0  0  0  0  0
   35.6970   29.6420   37.9030 C   0  0  0  0  0  0  0  0  0  0  0  0
   37.1660   29.7430   38.2240 C   0  0  0  0  0  0  0  0  0  0  0  0
   37.1790   30.2070   39.7260 C   0  0  2  0  0  0  0  0  0  0  0  0
   35.1690   27.7880   40.7360 H   0  0  0  0  0  0  0  0  0  0  0  0
   36.3470   27.2800   39.5370 H   0  0  0  0  0  0  0  0  0  0  0  0
   34.5730   27.8740   38.2560 H   0  0  0  0  0  0  0  0  0  0  0  0
   34.0860   29.1960   39.3290 H   0  0  0  0  0  0  0  0  0  0  0  0
   35.2840   30.6670   38.0280 H   0  0  0  0  0  0  0  0  0  0  0  0
   35.6140   29.3320   36.8430 H   0  0  0  0  0  0  0  0  0  0  0  0
   37.7130   28.8010   38.1320 H   0  0  0  0  0  0  0  0  0  0  0  0
   37.6050   30.5850   37.6610 H   0  0  0  0  0  0  0  0  0  0  0  0
   36.4820   31.0710   39.7870 H   0  0  0  0  0  0  0  0  0  0  0  0
   37.0760   29.0180   41.8400 C   0  0  0  0  0  0  0  0  0  0  0  0
   36.4940   29.8160   42.3520 H   0  0  0  0  0  0  0  0  0  0  0  0
   38.1310   29.2020   42.0520 H   0  0  0  0  0  0  0  0  0  0  0  0
   36.6010   27.6970   42.3660 C   0  0  0  0  0  0  0  0  0  0  0  0
   36.0210   27.1430   41.5900 H   0  0  0  0  0  0  0  0  0  0  0  0
   35.9260   27.8140   43.2210 H   0  0  0  0  0  0  0  0  0  0  0  0
   38.9620   24.7860   42.6290 C   0  0  0  0  0  0  0  0  0  0  0  0
   37.8590   25.5840   42.2790 C   0  0  0  0  0  0  0  0  0  0  0  0
   37.7760   26.8690   42.7490 C   0  0  0  0  0  0  0  0  0  0  0  0
   38.7660   27.3080   43.5320 N   0  0  0  0  0  0  0  0  0  0  0  0
   39.8230   26.5420   43.8670 C   0  0  0  0  0  0  0  0  0  0  0  0
   39.9330   25.2890   43.4270 N   0  0  0  0  0  0  0  0  0  0  0  0
   38.9980   23.7740   42.2400 H   0  0  0  0  0  0  0  0  0  0  0  0
   37.0680   25.2060   41.6410 H   0  0  0  0  0  0  0  0  0  0  0  0
   40.5150   27.0550   44.4990 H   0  0  0  0  0  0  0  0  0  0  0  0
   38.5100   30.5660   39.8940 O   0  0  0  0  0  0  0  0  0  0  0  0
   39.4860   32.3930   41.5320 O   0  0  0  0  0  0  0  0  0  0  0  0
   38.7090   32.1960   40.2500 P   0  0  2  0  0  0  0  0  0  0  0  0
   37.1420   32.8070   40.5700 O   0  0  0  0  0  0  0  0  0  0  0  0
   36.8700   32.5480   41.4980 H   0  0  0  0  0  0  0  0  0  0  0  0
   39.3360   33.0180   38.9450 O   0  0  0  0  0  0  0  0  0  0  0  0
   40.6550   32.8160   38.6930 C   0  0  2  0  0  3  0  0  0  0  0  0
   41.3440   34.1730   38.7750 C   0  0  0  0  0  3  0  0  0  0  0  0
   41.7040   34.3840   39.8010 H   0  0  0  0  0  0  0  0  0  0  0  0
   42.4560   34.0230   37.7680 C   0  0  0  0  0  3  0  0  0  0  0  0
   42.4600   34.8620   37.0530 H   0  0  0  0  0  0  0  0  0  0  0  0
   42.3180   32.7950   37.1450 O   0  0  0  0  0  0  0  0  0  0  0  0
   40.9790   32.4220   37.2790 C   0  0  0  0  0  3  0  0  0  0  0  0
   40.3250   32.9600   36.5760 H   0  0  0  0  0  0  0  0  0  0  0  0
  1 16  1  0  0  0  0
  2  1  1  0  0  0  0
  2  7  1  0  0  0  0
  3 10  1  0  0  0  0
  3  2  1  0  0  0  0
  4 11  1  0  0  0  0
  4  5  1  0  0  0  0
  4  3  1  0  0  0  0
  5  6  1  0  0  0  0
  6 15  1  1  0  0  0
  6 31  1  0  0  0  0
  6  1  1  0  0  0  0
  8  2  1  0  0  0  0
  9  3  1  0  0  0  0
 12  4  1  0  0  0  0
 13  5  1  0  0  0  0
 14  5  1  0  0  0  0
 16 18  1  0  0  0  0
 16 17  1  0  0  0  0
 16 19  1  0  0  0  0
 19 24  1  0  0  0  0
 19 21  1  0  0  0  0
 20 19  1  0  0  0  0
 22 27  1  0  0  0  0
 23 22  2  0  0  0  0
 23 24  1  0  0  0  0
 24 25  2  0  0  0  0
 25 26  1  0  0  0  0
 26 30  1  0  0  0  0
 27 26  2  0  0  0  0
 28 22  1  0  0  0  0
 29 23  1  0  0  0  0
 31 33  1  0  0  0  0
 33 34  1  0  0  0  0
 33 32  2  1  0  0  0
 34 35  1  0  0  0  0
 36 33  1  0  0  0  0
 37 38  1  0  0  0  0
 37 36  1  6  0  0  0
 38 39  1  0  0  0  0
 40 38  1  0  0  0  0
 41 40  1  0  0  0  0
 42 43  1  0  0  0  0
 42 40  1  0  0  0  0
 43 37  1  0  0  0  0
 44 43  1  0  0  0  0
M  END
>  <minimizedAffinity>
-5.40838289

$$$$

 OpenBabel03252509023D

 44 46  0  0  1  0  0  0  0  0999 V2000
   36.9100   27.7880   38.8100 N   0  0  0  0  0  0  0  0  0  0  0  0
   36.1050   26.9950   37.9530 C   0  0  0  0  0  0  0  0  0  0  0  0
   34.6580   27.4180   37.8450 C   0  0  0  0  0  0  0  0  0  0  0  0
   34.4430   28.9040   37.9540 C   0  0  0  0  0  0  0  0  0  0  0  0
   35.7430   29.6570   38.0670 C   0  0  0  0  0  0  0  0  0  0  0  0
   36.4410   28.9940   39.3090 C   0  0  2  0  0  0  0  0  0  0  0  0
   36.1140   25.9180   38.1470 H   0  0  0  0  0  0  0  0  0  0  0  0
   36.5290   27.1020   36.9190 H   0  0  0  0  0  0  0  0  0  0  0  0
   34.2640   27.1000   36.8450 H   0  0  0  0  0  0  0  0  0  0  0  0
   34.0860   26.8310   38.5870 H   0  0  0  0  0  0  0  0  0  0  0  0
   33.8900   29.1010   38.8990 H   0  0  0  0  0  0  0  0  0  0  0  0
   33.8870   29.3360   37.0990 H   0  0  0  0  0  0  0  0  0  0  0  0
   36.3950   29.5640   37.1940 H   0  0  0  0  0  0  0  0  0  0  0  0
   35.5370   30.6960   38.3760 H   0  0  0  0  0  0  0  0  0  0  0  0
   35.6780   28.9730   40.1160 H   0  0  0  0  0  0  0  0  0  0  0  0
   37.8610   27.0420   39.5790 C   0  0  0  0  0  0  0  0  0  0  0  0
   38.6630   27.7030   39.9770 H   0  0  0  0  0  0  0  0  0  0  0  0
   38.3430   26.3020   38.9380 H   0  0  0  0  0  0  0  0  0  0  0  0
   37.1550   26.4270   40.7500 C   0  0  0  0  0  0  0  0  0  0  0  0
   36.7000   25.4470   40.4720 H   0  0  0  0  0  0  0  0  0  0  0  0
   36.3300   27.0520   41.1080 H   0  0  0  0  0  0  0  0  0  0  0  0
   39.5250   24.6790   43.0840 C   0  0  0  0  0  0  0  0  0  0  0  0
   38.6000   24.9200   42.0530 C   0  0  0  0  0  0  0  0  0  0  0  0
   38.1340   26.1930   41.8450 C   0  0  0  0  0  0  0  0  0  0  0  0
   38.5910   27.1590   42.6480 N   0  0  0  0  0  0  0  0  0  0  0  0
   39.4790   26.9270   43.6340 C   0  0  0  0  0  0  0  0  0  0  0  0
   39.9500   25.7010   43.8630 N   0  0  0  0  0  0  0  0  0  0  0  0
   39.8740   23.6610   43.2220 H   0  0  0  0  0  0  0  0  0  0  0  0
   38.2430   24.1200   41.4150 H   0  0  0  0  0  0  0  0  0  0  0  0
   39.7320   27.8140   44.1740 H   0  0  0  0  0  0  0  0  0  0  0  0
   37.4750   29.8870   39.5570 O   0  0  0  0  0  0  0  0  0  0  0  0
   37.8610   30.3820   42.1210 O   0  0  0  0  0  0  0  0  0  0  0  0
   37.1750   30.8870   40.8720 P   0  0  2  0  0  0  0  0  0  0  0  0
   35.4980   30.7620   41.1920 O   0  0  0  0  0  0  0  0  0  0  0  0
   35.3200   29.9110   41.6880 H   0  0  0  0  0  0  0  0  0  0  0  0
   37.5220   32.4740   40.5040 O   0  0  0  0  0  0  0  0  0  0  0  0
   38.7750   32.8970   40.8160 C   0  0  2  0  0  3  0  0  0  0  0  0
   38.8510   34.3790   40.4710 C   0  0  0  0  0  3  0  0  0  0  0  0
   38.5630   35.0110   41.3330 H   0  0  0  0  0  0  0  0  0  0  0  0
   40.2960   34.5350   40.0690 C   0  0  0  0  0  3  0  0  0  0  0  0
   40.3840   35.0330   39.0900 H   0  0  0  0  0  0  0  0  0  0  0  0
   40.8910   33.2850   40.0860 O   0  0  0  0  0  0  0  0  0  0  0  0
   39.8660   32.3480   39.9390 C   0  0  0  0  0  3  0  0  0  0  0  0
   39.5160   32.2740   38.8980 H   0  0  0  0  0  0  0  0  0  0  0  0
  1  6  1  0  0  0  0
  1 16  1  0  0  0  0
  2  7  1  0  0  0  0
  2  1  1  0  0  0  0
  3  2  1  0  0  0  0
  3  4  1  0  0  0  0
  3 10  1  0  0  0  0
  4  5  1  0  0  0  0
  4 11  1  0  0  0  0
  5 14  1  0  0  0  0
  5  6  1  0  0  0  0
  6 31  1  0  0  0  0
  6 15  1  1  0  0  0
  8  2  1  0  0  0  0
  9  3  1  0  0  0  0
 12  4  1  0  0  0  0
 13  5  1  0  0  0  0
 16 17  1  0  0  0  0
 16 19  1  0  0  0  0
 18 16  1  0  0  0  0
 19 21  1  0  0  0  0
 19 24  1  0  0  0  0
 20 19  1  0  0  0  0
 22 28  1  0  0  0  0
 22 27  1  0  0  0  0
 23 22  2  0  0  0  0
 24 23  1  0  0  0  0
 24 25  2  0  0  0  0
 25 26  1  0  0  0  0
 26 27  2  0  0  0  0
 26 30  1  0  0  0  0
 29 23  1  0  0  0  0
 31 33  1  0  0  0  0
 33 34  1  0  0  0  0
 33 32  2  1  0  0  0
 34 35  1  0  0  0  0
 36 33  1  0  0  0  0
 37 36  1  6  0  0  0
 38 37  1  0  0  0  0
 38 39  1  0  0  0  0
 40 42  1  0  0  0  0
 40 38  1  0  0  0  0
 41 40  1  0  0  0  0
 43 42  1  0  0  0  0
 43 37  1  0  0  0  0
 44 43  1  0  0  0  0
M  END
>  <minimizedAffinity>
-5.33400059

$$$$

 OpenBabel03252509023D

 44 46  0  0  1  0  0  0  0  0999 V2000
   38.8580   28.6360   41.9160 N   0  0  0  0  0  0  0  0  0  0  0  0
   39.0930   27.7640   43.0090 C   0  0  0  0  0  0  0  0  0  0  0  0
   37.8860   27.4570   43.8670 C   0  0  0  0  0  0  0  0  0  0  0  0
   36.5870   27.4160   43.1070 C   0  0  0  0  0  0  0  0  0  0  0  0
   36.7910   27.6110   41.6260 C   0  0  0  0  0  0  0  0  0  0  0  0
   37.5670   28.9760   41.5440 C   0  0  2  0  0  0  0  0  0  0  0  0
   39.9050   28.0470   43.6840 H   0  0  0  0  0  0  0  0  0  0  0  0
   39.4130   26.7790   42.5750 H   0  0  0  0  0  0  0  0  0  0  0  0
   38.0250   26.4500   44.3370 H   0  0  0  0  0  0  0  0  0  0  0  0
   37.8870   28.1770   44.7060 H   0  0  0  0  0  0  0  0  0  0  0  0
   35.9640   28.2720   43.4470 H   0  0  0  0  0  0  0  0  0  0  0  0
   36.0260   26.4700   43.2380 H   0  0  0  0  0  0  0  0  0  0  0  0
   37.3850   26.8280   41.1470 H   0  0  0  0  0  0  0  0  0  0  0  0
   35.8170   27.8070   41.1470 H   0  0  0  0  0  0  0  0  0  0  0  0
   37.0010   29.6900   42.1790 H   0  0  0  0  0  0  0  0  0  0  0  0
   39.9180   29.5680   41.6710 C   0  0  0  0  0  0  0  0  0  0  0  0
   39.9950   29.8140   40.5880 H   0  0  0  0  0  0  0  0  0  0  0  0
   40.8690   29.1200   41.9660 H   0  0  0  0  0  0  0  0  0  0  0  0
   39.6210   30.8390   42.4080 C   0  0  0  0  0  0  0  0  0  0  0  0
   40.3620   31.0110   43.2240 H   0  0  0  0  0  0  0  0  0  0  0  0
   38.6380   30.8140   42.8920 H   0  0  0  0  0  0  0  0  0  0  0  0
   40.9870   33.3370   39.9550 C   0  0  0  0  0  0  0  0  0  0  0  0
   40.8940   32.2590   40.8530 C   0  0  0  0  0  0  0  0  0  0  0  0
   39.6970   31.9840   41.4620 C   0  0  0  0  0  0  0  0  0  0  0  0
   38.6570   32.7710   41.1670 N   0  0  0  0  0  0  0  0  0  0  0  0
   38.7470   33.8040   40.3060 C   0  0  0  0  0  0  0  0  0  0  0  0
   39.8970   34.0960   39.6980 N   0  0  0  0  0  0  0  0  0  0  0  0
   41.9480   33.5260   39.4890 H   0  0  0  0  0  0  0  0  0  0  0  0
   41.7520   31.6340   41.0760 H   0  0  0  0  0  0  0  0  0  0  0  0
   37.8190   34.3210   40.1910 H   0  0  0  0  0  0  0  0  0  0  0  0
   37.4800   29.2630   40.1880 O   0  0  0  0  0  0  0  0  0  0  0  0
   36.6210   31.3570   38.8280 O   0  0  0  0  0  0  0  0  0  0  0  0
   36.2050   30.2920   39.8170 P   0  0  2  0  0  0  0  0  0  0  0  0
   35.8370   31.1320   41.2620 O   0  0  0  0  0  0  0  0  0  0  0  0
   36.5040   31.8660   41.3960 H   0  0  0  0  0  0  0  0  0  0  0  0
   34.8580   29.4280   39.3550 O   0  0  0  0  0  0  0  0  0  0  0  0
   34.9090   28.8620   38.1210 C   0  0  2  0  0  3  0  0  0  0  0  0
   33.4790   28.7860   37.5990 C   0  0  0  0  0  3  0  0  0  0  0  0
   33.2070   29.6950   37.0280 H   0  0  0  0  0  0  0  0  0  0  0  0
   33.5190   27.5380   36.7530 C   0  0  0  0  0  3  0  0  0  0  0  0
   32.7000   26.8500   37.0220 H   0  0  0  0  0  0  0  0  0  0  0  0
   34.7680   26.9560   36.8920 O   0  0  0  0  0  0  0  0  0  0  0  0
   35.2920   27.4080   38.1050 C   0  0  0  0  0  3  0  0  0  0  0  0
   34.8480   26.8890   38.9680 H   0  0  0  0  0  0  0  0  0  0  0  0
  1  2  1  0  0  0  0
  2  7  1  0  0  0  0
  2  3  1  0  0  0  0
  3  9  1  0  0  0  0
  3 10  1  0  0  0  0
  4 12  1  0  0  0  0
  4 11  1  0  0  0  0
  4  3  1  0  0  0  0
  5  4  1  0  0  0  0
  6  5  1  0  0  0  0
  6  1  1  0  0  0  0
  6 15  1  1  0  0  0
  8  2  1  0  0  0  0
 13  5  1  0  0  0  0
 14  5  1  0  0  0  0
 16  1  1  0  0  0  0
 16 18  1  0  0  0  0
 16 19  1  0  0  0  0
 17 16  1  0  0  0  0
 19 21  1  0  0  0  0
 19 20  1  0  0  0  0
 22 23  1  0  0  0  0
 23 29  1  0  0  0  0
 23 24  2  0  0  0  0
 24 19  1  0  0  0  0
 25 24  1  0  0  0  0
 26 25  2  0  0  0  0
 27 22  2  0  0  0  0
 27 26  1  0  0  0  0
 28 22  1  0  0  0  0
 30 26  1  0  0  0  0
 31  6  1  0  0  0  0
 33 32  2  6  0  0  0
 33 31  1  0  0  0  0
 33 34  1  0  0  0  0
 34 35  1  0  0  0  0
 36 33  1  0  0  0  0
 37 36  1  1  0  0  0
 38 37  1  0  0  0  0
 39 38  1  0  0  0  0
 40 42  1  0  0  0  0
 40 41  1  0  0  0  0
 40 38  1  0  0  0  0
 42 43  1  0  0  0  0
 43 37  1  0  0  0  0
 43 44  1  0  0  0  0
M  END
>  <minimizedAffinity>
-5.31796789

$$$$

 OpenBabel03252509023D

 44 46  0  0  1  0  0  0  0  0999 V2000
   37.3200   28.9740   42.3080 N   0  0  0  0  0  0  0  0  0  0  0  0
   36.4860   27.8270   42.3250 C   0  0  0  0  0  0  0  0  0  0  0  0
   37.1980   26.5040   42.1560 C   0  0  0  0  0  0  0  0  0  0  0  0
   38.5790   26.4690   42.7560 C   0  0  0  0  0  0  0  0  0  0  0  0
   38.9170   27.7500   43.4730 C   0  0  0  0  0  0  0  0  0  0  0  0
   38.6990   28.8510   42.3720 C   0  0  2  0  0  0  0  0  0  0  0  0
   35.6460   27.8330   41.6250 H   0  0  0  0  0  0  0  0  0  0  0  0
   36.0110   27.7860   43.3410 H   0  0  0  0  0  0  0  0  0  0  0  0
   36.5980   25.7050   42.6620 H   0  0  0  0  0  0  0  0  0  0  0  0
   37.1750   26.2520   41.0800 H   0  0  0  0  0  0  0  0  0  0  0  0
   39.3110   26.3790   41.9240 H   0  0  0  0  0  0  0  0  0  0  0  0
   38.7280   25.6410   43.4770 H   0  0  0  0  0  0  0  0  0  0  0  0
   38.2780   27.9680   44.3330 H   0  0  0  0  0  0  0  0  0  0  0  0
   39.9990   27.7720   43.6880 H   0  0  0  0  0  0  0  0  0  0  0  0
   39.2430   28.4960   41.4700 H   0  0  0  0  0  0  0  0  0  0  0  0
   36.7550   30.1000   41.6240 C   0  0  0  0  0  0  0  0  0  0  0  0
   37.5450   30.6990   41.1170 H   0  0  0  0  0  0  0  0  0  0  0  0
   36.2690   30.7560   42.3490 H   0  0  0  0  0  0  0  0  0  0  0  0
   35.8140   29.6000   40.5700 C   0  0  0  0  0  0  0  0  0  0  0  0
   34.7980   30.0410   40.6990 H   0  0  0  0  0  0  0  0  0  0  0  0
   35.6800   28.5130   40.6210 H   0  0  0  0  0  0  0  0  0  0  0  0
   37.5560   31.5280   37.8560 C   0  0  0  0  0  0  0  0  0  0  0  0
   37.0630   31.1410   39.1150 C   0  0  0  0  0  0  0  0  0  0  0  0
   36.3260   29.9910   39.2290 C   0  0  0  0  0  0  0  0  0  0  0  0
   36.1070   29.2810   38.1180 N   0  0  0  0  0  0  0  0  0  0  0  0
   36.5810   29.6530   36.9120 C   0  0  0  0  0  0  0  0  0  0  0  0
   37.3000   30.7660   36.7680 N   0  0  0  0  0  0  0  0  0  0  0  0
   38.1360   32.4430   37.7990 H   0  0  0  0  0  0  0  0  0  0  0  0
   37.2530   31.7330   40.0030 H   0  0  0  0  0  0  0  0  0  0  0  0
   36.3100   28.9680   36.1380 H   0  0  0  0  0  0  0  0  0  0  0  0
   39.2890   29.9580   42.9660 O   0  0  0  0  0  0  0  0  0  0  0  0
   41.6590   29.3750   41.9590 O   0  0  0  0  0  0  0  0  0  0  0  0
   40.6560   30.4900   42.1470 P   0  0  2  0  0  0  0  0  0  0  0  0
   41.4200   31.6200   43.1820 O   0  0  0  0  0  0  0  0  0  0  0  0
   41.9290   31.1270   43.8890 H   0  0  0  0  0  0  0  0  0  0  0  0
   40.2390   31.2700   40.7360 O   0  0  0  0  0  0  0  0  0  0  0  0
   40.4140   32.6170   40.7260 C   0  0  2  0  0  3  0  0  0  0  0  0
   39.0510   33.2520   40.9720 C   0  0  0  0  0  3  0  0  0  0  0  0
   38.8680   33.4140   42.0520 H   0  0  0  0  0  0  0  0  0  0  0  0
   39.1550   34.5340   40.1830 C   0  0  0  0  0  3  0  0  0  0  0  0
   38.2940   34.6530   39.5050 H   0  0  0  0  0  0  0  0  0  0  0  0
   40.3650   34.5360   39.5110 O   0  0  0  0  0  0  0  0  0  0  0  0
   40.7600   33.2030   39.3850 C   0  0  0  0  0  3  0  0  0  0  0  0
   40.2100   32.6790   38.5890 H   0  0  0  0  0  0  0  0  0  0  0  0
  1  2  1  0  0  0  0
  1  6  1  0  0  0  0
  2  8  1  0  0  0  0
  3  2  1  0  0  0  0
  3  9  1  0  0  0  0
  3  4  1  0  0  0  0
  4  5  1  0  0  0  0
  4 12  1  0  0  0  0
  5 14  1  0  0  0  0
  5 13  1  0  0  0  0
  6 15  1  6  0  0  0
  6 31  1  0  0  0  0
  6  5  1  0  0  0  0
  7  2  1  0  0  0  0
 10  3  1  0  0  0  0
 11  4  1  0  0  0  0
 16  1  1  0  0  0  0
 16 18  1  0  0  0  0
 17 16  1  0  0  0  0
 19 21  1  0  0  0  0
 19 20  1  0  0  0  0
 19 16  1  0  0  0  0
 22 23  1  0  0  0  0
 23 24  2  0  0  0  0
 23 29  1  0  0  0  0
 24 19  1  0  0  0  0
 25 24  1  0  0  0  0
 26 25  2  0  0  0  0
 27 26  1  0  0  0  0
 27 22  2  0  0  0  0
 28 22  1  0  0  0  0
 30 26  1  0  0  0  0
 33 32  2  6  0  0  0
 33 31  1  0  0  0  0
 33 34  1  0  0  0  0
 34 35  1  0  0  0  0
 36 33  1  0  0  0  0
 37 36  1  6  0  0  0
 37 38  1  0  0  0  0
 38 39  1  0  0  0  0
 40 38  1  0  0  0  0
 41 40  1  0  0  0  0
 42 40  1  0  0  0  0
 43 42  1  0  0  0  0
 43 37  1  0  0  0  0
 44 43  1  0  0  0  0
M  END
>  <minimizedAffinity>
-5.25195742

$$$$

 OpenBabel03252509023D

 44 46  0  0  1  0  0  0  0  0999 V2000
   38.6770   27.9930   43.0390 N   0  0  0  0  0  0  0  0  0  0  0  0
   39.8400   27.2600   43.3860 C   0  0  0  0  0  0  0  0  0  0  0  0
   41.0570   27.5330   42.5330 C   0  0  0  0  0  0  0  0  0  0  0  0
   41.1530   28.9500   42.0330 C   0  0  0  0  0  0  0  0  0  0  0  0
   40.0420   29.8150   42.5700 C   0  0  0  0  0  0  0  0  0  0  0  0
   38.7410   29.0450   42.1390 C   0  0  2  0  0  0  0  0  0  0  0  0
   39.7240   26.1740   43.4460 H   0  0  0  0  0  0  0  0  0  0  0  0
   40.1240   27.5760   44.4260 H   0  0  0  0  0  0  0  0  0  0  0  0
   41.9770   27.3350   43.1420 H   0  0  0  0  0  0  0  0  0  0  0  0
   41.0710   26.7760   41.7260 H   0  0  0  0  0  0  0  0  0  0  0  0
   41.0240   28.9340   40.9290 H   0  0  0  0  0  0  0  0  0  0  0  0
   42.1090   29.4480   42.2910 H   0  0  0  0  0  0  0  0  0  0  0  0
   40.0490   29.9330   43.6580 H   0  0  0  0  0  0  0  0  0  0  0  0
   40.0140   30.7630   42.0060 H   0  0  0  0  0  0  0  0  0  0  0  0
   38.8650   28.8140   41.0590 H   0  0  0  0  0  0  0  0  0  0  0  0
   37.4590   27.2450   43.1440 C   0  0  0  0  0  0  0  0  0  0  0  0
   36.6840   27.8140   43.7030 H   0  0  0  0  0  0  0  0  0  0  0  0
   37.6470   26.3250   43.7020 H   0  0  0  0  0  0  0  0  0  0  0  0
   36.9310   26.9890   41.7640 C   0  0  0  0  0  0  0  0  0  0  0  0
   37.1750   27.8360   41.0800 H   0  0  0  0  0  0  0  0  0  0  0  0
   35.8400   26.8950   41.7520 H   0  0  0  0  0  0  0  0  0  0  0  0
   37.6750   23.3590   41.1430 C   0  0  0  0  0  0  0  0  0  0  0  0
   37.0950   24.5370   41.6460 C   0  0  0  0  0  0  0  0  0  0  0  0
   37.5580   25.7550   41.2190 C   0  0  0  0  0  0  0  0  0  0  0  0
   38.5560   25.7620   40.3300 N   0  0  0  0  0  0  0  0  0  0  0  0
   39.1100   24.6330   39.8480 C   0  0  0  0  0  0  0  0  0  0  0  0
   38.6830   23.4330   40.2430 N   0  0  0  0  0  0  0  0  0  0  0  0
   37.2850   22.4110   41.5000 H   0  0  0  0  0  0  0  0  0  0  0  0
   36.2860   24.5060   42.3670 H   0  0  0  0  0  0  0  0  0  0  0  0
   39.8940   24.8280   39.1490 H   0  0  0  0  0  0  0  0  0  0  0  0
   37.7610   29.9970   42.3860 O   0  0  0  0  0  0  0  0  0  0  0  0
   37.8020   32.0850   40.7710 O   0  0  0  0  0  0  0  0  0  0  0  0
   37.1850   30.7220   40.9840 P   0  0  2  0  0  0  0  0  0  0  0  0
   35.5190   31.0130   41.2500 O   0  0  0  0  0  0  0  0  0  0  0  0
   35.4140   31.8300   41.8200 H   0  0  0  0  0  0  0  0  0  0  0  0
   37.3370   29.6990   39.6790 O   0  0  0  0  0  0  0  0  0  0  0  0
   36.4220   29.8590   38.6880 C   0  0  2  0  0  3  0  0  0  0  0  0
   35.6780   28.5370   38.5420 C   0  0  0  0  0  3  0  0  0  0  0  0
   34.7800   28.5030   39.1890 H   0  0  0  0  0  0  0  0  0  0  0  0
   35.3560   28.5180   37.0690 C   0  0  0  0  0  3  0  0  0  0  0  0
   35.6750   27.5700   36.6050 H   0  0  0  0  0  0  0  0  0  0  0  0
   35.9450   29.6230   36.4790 O   0  0  0  0  0  0  0  0  0  0  0  0
   37.0000   30.0090   37.3080 C   0  0  0  0  0  3  0  0  0  0  0  0
   37.8800   29.3590   37.1920 H   0  0  0  0  0  0  0  0  0  0  0  0
  1 16  1  0  0  0  0
  1  2  1  0  0  0  0
  2  7  1  0  0  0  0
  2  8  1  0  0  0  0
  3  9  1  0  0  0  0
  3  2  1  0  0  0  0
  4 12  1  0  0  0  0
  4  3  1  0  0  0  0
  4  5  1  0  0  0  0
  5 13  1  0  0  0  0
  6 15  1  6  0  0  0
  6 31  1  0  0  0  0
  6  5  1  0  0  0  0
  6  1  1  0  0  0  0
 10  3  1  0  0  0  0
 11  4  1  0  0  0  0
 14  5  1  0  0  0  0
 16 18  1  0  0  0  0
 16 17  1  0  0  0  0
 19 16  1  0  0  0  0
 20 19  1  0  0  0  0
 21 19  1  0  0  0  0
 22 28  1  0  0  0  0
 22 23  1  0  0  0  0
 23 29  1  0  0  0  0
 24 23  2  0  0  0  0
 24 19  1  0  0  0  0
 25 24  1  0  0  0  0
 26 27  1  0  0  0  0
 26 25  2  0  0  0  0
 27 22  2  0  0  0  0
 30 26  1  0  0  0  0
 33 32  2  6  0  0  0
 33 34  1  0  0  0  0
 33 31  1  0  0  0  0
 34 35  1  0  0  0  0
 36 33  1  0  0  0  0
 37 36  1  1  0  0  0
 38 37  1  0  0  0  0
 38 39  1  0  0  0  0
 40 38  1  0  0  0  0
 41 40  1  0  0  0  0
 42 40  1  0  0  0  0
 42 43  1  0  0  0  0
 43 37  1  0  0  0  0
 44 43  1  0  0  0  0
M  END
>  <minimizedAffinity>
-5.09127665

$$$$

 OpenBabel03252509023D

 44 46  0  0  1  0  0  0  0  0999 V2000
   36.6840   30.1070   39.8400 N   0  0  0  0  0  0  0  0  0  0  0  0
   36.7650   30.3620   38.4480 C   0  0  0  0  0  0  0  0  0  0  0  0
   37.1400   29.1740   37.5910 C   0  0  0  0  0  0  0  0  0  0  0  0
   36.6280   27.8570   38.1100 C   0  0  0  0  0  0  0  0  0  0  0  0
   35.7750   28.0260   39.3410 C   0  0  0  0  0  0  0  0  0  0  0  0
   36.7140   28.8100   40.3280 C   0  0  2  0  0  0  0  0  0  0  0  0
   37.4100   31.1920   38.1480 H   0  0  0  0  0  0  0  0  0  0  0  0
   35.7370   30.6640   38.1120 H   0  0  0  0  0  0  0  0  0  0  0  0
   36.7050   29.3160   36.5680 H   0  0  0  0  0  0  0  0  0  0  0  0
   38.2360   29.2000   37.4510 H   0  0  0  0  0  0  0  0  0  0  0  0
   37.5040   27.2490   38.4250 H   0  0  0  0  0  0  0  0  0  0  0  0
   36.0270   27.2910   37.3710 H   0  0  0  0  0  0  0  0  0  0  0  0
   34.8600   28.6030   39.1790 H   0  0  0  0  0  0  0  0  0  0  0  0
   35.6190   27.0420   39.8150 H   0  0  0  0  0  0  0  0  0  0  0  0
   37.6820   28.2650   40.3290 H   0  0  0  0  0  0  0  0  0  0  0  0
   37.1870   31.1680   40.6610 C   0  0  0  0  0  0  0  0  0  0  0  0
   36.6470   31.2150   41.6330 H   0  0  0  0  0  0  0  0  0  0  0  0
   37.0250   32.1230   40.1570 H   0  0  0  0  0  0  0  0  0  0  0  0
   38.6330   30.9050   40.9550 C   0  0  0  0  0  0  0  0  0  0  0  0
   39.0490   30.1370   40.2600 H   0  0  0  0  0  0  0  0  0  0  0  0
   38.7820   30.5090   41.9660 H   0  0  0  0  0  0  0  0  0  0  0  0
   39.4390   34.5290   40.3780 C   0  0  0  0  0  0  0  0  0  0  0  0
   38.7260   33.3300   40.5480 C   0  0  0  0  0  0  0  0  0  0  0  0
   39.4070   32.1620   40.7770 C   0  0  0  0  0  0  0  0  0  0  0  0
   40.7410   32.2240   40.8280 N   0  0  0  0  0  0  0  0  0  0  0  0
   41.4240   33.3740   40.6650 C   0  0  0  0  0  0  0  0  0  0  0  0
   40.7910   34.5250   40.4410 N   0  0  0  0  0  0  0  0  0  0  0  0
   38.8700   35.4350   40.1990 H   0  0  0  0  0  0  0  0  0  0  0  0
   37.6430   33.3050   40.5030 H   0  0  0  0  0  0  0  0  0  0  0  0
   42.4810   33.2350   40.7360 H   0  0  0  0  0  0  0  0  0  0  0  0
   36.0190   28.6930   41.5240 O   0  0  0  0  0  0  0  0  0  0  0  0
   36.1300   26.9650   43.5180 O   0  0  0  0  0  0  0  0  0  0  0  0
   36.9320   27.9880   42.7460 P   0  0  2  0  0  0  0  0  0  0  0  0
   37.2730   29.2370   43.8650 O   0  0  0  0  0  0  0  0  0  0  0  0
   36.4680   29.3940   44.4390 H   0  0  0  0  0  0  0  0  0  0  0  0
   38.3750   27.4080   42.1500 O   0  0  0  0  0  0  0  0  0  0  0  0
   38.8880   26.3240   42.7880 C   0  0  2  0  0  3  0  0  0  0  0  0
   40.0330   26.8160   43.6660 C   0  0  0  0  0  3  0  0  0  0  0  0
   39.6790   27.0830   44.6810 H   0  0  0  0  0  0  0  0  0  0  0  0
   40.9720   25.6360   43.6500 C   0  0  0  0  0  3  0  0  0  0  0  0
   41.9940   25.9450   43.3780 H   0  0  0  0  0  0  0  0  0  0  0  0
   40.4580   24.6810   42.7890 O   0  0  0  0  0  0  0  0  0  0  0  0
   39.6140   25.3500   41.9010 C   0  0  0  0  0  3  0  0  0  0  0  0
   40.1730   25.8900   41.1220 H   0  0  0  0  0  0  0  0  0  0  0  0
  1  6  1  0  0  0  0
  1 16  1  0  0  0  0
  2  1  1  0  0  0  0
  3  4  1  0  0  0  0
  3  2  1  0  0  0  0
  4 11  1  0  0  0  0
  4  5  1  0  0  0  0
  5 14  1  0  0  0  0
  5  6  1  0  0  0  0
  6 15  1  1  0  0  0
  6 31  1  0  0  0  0
  7  2  1  0  0  0  0
  8  2  1  0  0  0  0
  9  3  1  0  0  0  0
 10  3  1  0  0  0  0
 12  4  1  0  0  0  0
 13  5  1  0  0  0  0
 16 19  1  0  0  0  0
 16 17  1  0  0  0  0
 18 16  1  0  0  0  0
 19 21  1  0  0  0  0
 20 19  1  0  0  0  0
 22 27  2  0  0  0  0
 22 23  1  0  0  0  0
 23 24  2  0  0  0  0
 24 25  1  0  0  0  0
 24 19  1  0  0  0  0
 26 30  1  0  0  0  0
 26 25  2  0  0  0  0
 27 26  1  0  0  0  0
 28 22  1  0  0  0  0
 29 23  1  0  0  0  0
 31 33  1  0  0  0  0
 33 32  2  1  0  0  0
 33 34  1  0  0  0  0
 34 35  1  0  0  0  0
 36 33  1  0  0  0  0
 37 36  1  6  0  0  0
 37 38  1  0  0  0  0
 38 39  1  0  0  0  0
 40 38  1  0  0  0  0
 41 40  1  0  0  0  0
 42 40  1  0  0  0  0
 43 37  1  0  0  0  0
 43 42  1  0  0  0  0
 44 43  1  0  0  0  0
M  END
>  <minimizedAffinity>
-5.08343029

$$$$

 OpenBabel03252509023D

 44 46  0  0  1  0  0  0  0  0999 V2000
   37.9770   28.0590   42.8590 N   0  0  0  0  0  0  0  0  0  0  0  0
   39.0340   27.4430   43.5760 C   0  0  0  0  0  0  0  0  0  0  0  0
   40.4280   27.8050   43.1160 C   0  0  0  0  0  0  0  0  0  0  0  0
   40.5570   29.2130   42.5990 C   0  0  0  0  0  0  0  0  0  0  0  0
   39.2710   29.9860   42.7330 C   0  0  0  0  0  0  0  0  0  0  0  0
   38.2280   29.0910   41.9690 C   0  0  2  0  0  0  0  0  0  0  0  0
   38.9920   26.3530   43.6530 H   0  0  0  0  0  0  0  0  0  0  0  0
   38.9620   27.8070   44.6360 H   0  0  0  0  0  0  0  0  0  0  0  0
   41.1310   27.7060   43.9830 H   0  0  0  0  0  0  0  0  0  0  0  0
   40.7460   27.0350   42.3900 H   0  0  0  0  0  0  0  0  0  0  0  0
   40.7720   29.1600   41.5090 H   0  0  0  0  0  0  0  0  0  0  0  0
   41.3470   29.8020   43.1060 H   0  0  0  0  0  0  0  0  0  0  0  0
   38.9370   30.1300   43.7640 H   0  0  0  0  0  0  0  0  0  0  0  0
   39.3400   30.9140   42.1400 H   0  0  0  0  0  0  0  0  0  0  0  0
   38.6920   28.8470   40.9900 H   0  0  0  0  0  0  0  0  0  0  0  0
   36.8490   27.2060   42.6300 C   0  0  0  0  0  0  0  0  0  0  0  0
   36.2610   27.5450   41.7480 H   0  0  0  0  0  0  0  0  0  0  0  0
   36.1830   27.2460   43.4950 H   0  0  0  0  0  0  0  0  0  0  0  0
   37.3440   25.8200   42.3420 C   0  0  0  0  0  0  0  0  0  0  0  0
   36.9830   25.0990   43.1120 H   0  0  0  0  0  0  0  0  0  0  0  0
   38.4380   25.7630   42.3630 H   0  0  0  0  0  0  0  0  0  0  0  0
   36.0170   23.6290   39.5940 C   0  0  0  0  0  0  0  0  0  0  0  0
   36.5020   24.0630   40.8400 C   0  0  0  0  0  0  0  0  0  0  0  0
   36.8320   25.3820   41.0160 C   0  0  0  0  0  0  0  0  0  0  0  0
   36.6740   26.2050   39.9750 N   0  0  0  0  0  0  0  0  0  0  0  0
   36.2080   25.7880   38.7820 C   0  0  0  0  0  0  0  0  0  0  0  0
   35.8790   24.5120   38.5780 N   0  0  0  0  0  0  0  0  0  0  0  0
   35.7640   22.5790   39.4870 H   0  0  0  0  0  0  0  0  0  0  0  0
   36.6220   23.3760   41.6700 H   0  0  0  0  0  0  0  0  0  0  0  0
   36.1470   26.5800   38.0670 H   0  0  0  0  0  0  0  0  0  0  0  0
   37.1470   29.9550   41.8620 O   0  0  0  0  0  0  0  0  0  0  0  0
   35.1590   29.5990   40.1610 O   0  0  0  0  0  0  0  0  0  0  0  0
   36.5790   30.1010   40.2880 P   0  0  2  0  0  0  0  0  0  0  0  0
   37.5250   29.0340   39.3410 O   0  0  0  0  0  0  0  0  0  0  0  0
   37.1920   28.0990   39.4660 H   0  0  0  0  0  0  0  0  0  0  0  0
   36.8030   31.6490   39.7160 O   0  0  0  0  0  0  0  0  0  0  0  0
   37.7500   32.3870   40.3510 C   0  0  2  0  0  3  0  0  0  0  0  0
   37.5700   33.8330   39.9070 C   0  0  0  0  0  3  0  0  0  0  0  0
   36.8790   34.3800   40.5780 H   0  0  0  0  0  0  0  0  0  0  0  0
   38.9850   34.3540   39.9510 C   0  0  0  0  0  3  0  0  0  0  0  0
   39.2560   34.8450   39.0020 H   0  0  0  0  0  0  0  0  0  0  0  0
   39.8280   33.3020   40.2650 O   0  0  0  0  0  0  0  0  0  0  0  0
   39.1620   32.1290   39.9030 C   0  0  0  0  0  3  0  0  0  0  0  0
   39.1890   31.9530   38.8170 H   0  0  0  0  0  0  0  0  0  0  0  0
  1  2  1  0  0  0  0
  2  7  1  0  0  0  0
  2  8  1  0  0  0  0
  3  2  1  0  0  0  0
  3  9  1  0  0  0  0
  4  5  1  0  0  0  0
  4 12  1  0  0  0  0
  4  3  1  0  0  0  0
  5 13  1  0  0  0  0
  6 15  1  6  0  0  0
  6  5  1  0  0  0  0
  6  1  1  0  0  0  0
 10  3  1  0  0  0  0
 11  4  1  0  0  0  0
 14  5  1  0  0  0  0
 16  1  1  0  0  0  0
 16 18  1  0  0  0  0
 17 16  1  0  0  0  0
 19 21  1  0  0  0  0
 19 16  1  0  0  0  0
 19 20  1  0  0  0  0
 22 23  1  0  0  0  0
 23 24  2  0  0  0  0
 23 29  1  0  0  0  0
 24 19  1  0  0  0  0
 25 24  1  0  0  0  0
 26 25  2  0  0  0  0
 27 26  1  0  0  0  0
 27 22  2  0  0  0  0
 28 22  1  0  0  0  0
 30 26  1  0  0  0  0
 31  6  1  0  0  0  0
 33 32  2  6  0  0  0
 33 31  1  0  0  0  0
 34 35  1  0  0  0  0
 34 33  1  0  0  0  0
 36 33  1  0  0  0  0
 37 36  1  6  0  0  0
 38 40  1  0  0  0  0
 38 37  1  0  0  0  0
 38 39  1  0  0  0  0
 40 42  1  0  0  0  0
 41 40  1  0  0  0  0
 43 42  1  0  0  0  0
 43 37  1  0  0  0  0
 44 43  1  0  0  0  0
M  END
>  <minimizedAffinity>
-5.0677495

$$$$

 OpenBabel03252509023D

 44 46  0  0  1  0  0  0  0  0999 V2000
   36.4000   30.2220   39.9160 N   0  0  0  0  0  0  0  0  0  0  0  0
   36.4950   30.6120   38.5560 C   0  0  0  0  0  0  0  0  0  0  0  0
   37.1800   29.6210   37.6430 C   0  0  0  0  0  0  0  0  0  0  0  0
   36.9620   28.1810   38.0240 C   0  0  0  0  0  0  0  0  0  0  0  0
   36.0290   28.0420   39.1990 C   0  0  0  0  0  0  0  0  0  0  0  0
   36.7060   28.9280   40.3080 C   0  0  2  0  0  0  0  0  0  0  0  0
   36.9440   31.5900   38.3660 H   0  0  0  0  0  0  0  0  0  0  0  0
   35.4440   30.7000   38.1700 H   0  0  0  0  0  0  0  0  0  0  0  0
   36.7800   29.7510   36.6040 H   0  0  0  0  0  0  0  0  0  0  0  0
   38.2470   29.9080   37.5860 H   0  0  0  0  0  0  0  0  0  0  0  0
   37.9380   27.7630   38.3560 H   0  0  0  0  0  0  0  0  0  0  0  0
   36.5500   27.5620   37.2040 H   0  0  0  0  0  0  0  0  0  0  0  0
   35.0150   28.4070   39.0140 H   0  0  0  0  0  0  0  0  0  0  0  0
   36.0820   27.0100   39.5860 H   0  0  0  0  0  0  0  0  0  0  0  0
   37.7730   28.6200   40.3380 H   0  0  0  0  0  0  0  0  0  0  0  0
   36.5980   31.2930   40.8480 C   0  0  0  0  0  0  0  0  0  0  0  0
   36.9680   30.9110   41.8260 H   0  0  0  0  0  0  0  0  0  0  0  0
   35.6440   31.7890   41.0370 H   0  0  0  0  0  0  0  0  0  0  0  0
   37.6370   32.2230   40.2990 C   0  0  0  0  0  0  0  0  0  0  0  0
   37.3670   33.2870   40.4970 H   0  0  0  0  0  0  0  0  0  0  0  0
   37.7350   32.1340   39.2110 H   0  0  0  0  0  0  0  0  0  0  0  0
   41.3090   32.3210   41.0910 C   0  0  0  0  0  0  0  0  0  0  0  0
   40.0660   32.5720   40.4840 C   0  0  0  0  0  0  0  0  0  0  0  0
   38.9430   31.9430   40.9550 C   0  0  0  0  0  0  0  0  0  0  0  0
   39.0880   31.1060   41.9870 N   0  0  0  0  0  0  0  0  0  0  0  0
   40.2790   30.8660   42.5680 C   0  0  0  0  0  0  0  0  0  0  0  0
   41.3900   31.4620   42.1330 N   0  0  0  0  0  0  0  0  0  0  0  0
   42.1790   32.8350   40.6940 H   0  0  0  0  0  0  0  0  0  0  0  0
   39.9730   33.2550   39.6470 H   0  0  0  0  0  0  0  0  0  0  0  0
   40.2070   30.1720   43.3770 H   0  0  0  0  0  0  0  0  0  0  0  0
   35.9940   28.5490   41.4380 O   0  0  0  0  0  0  0  0  0  0  0  0
   36.2560   26.9400   43.5150 O   0  0  0  0  0  0  0  0  0  0  0  0
   36.9790   27.9590   42.6640 P   0  0  2  0  0  0  0  0  0  0  0  0
   37.2880   29.2830   43.7050 O   0  0  0  0  0  0  0  0  0  0  0  0
   36.4930   29.4300   44.2950 H   0  0  0  0  0  0  0  0  0  0  0  0
   38.4320   27.4220   42.0530 O   0  0  0  0  0  0  0  0  0  0  0  0
   38.9990   26.3730   42.7040 C   0  0  2  0  0  3  0  0  0  0  0  0
   39.9190   26.9480   43.7740 C   0  0  0  0  0  3  0  0  0  0  0  0
   39.3860   27.0870   44.7340 H   0  0  0  0  0  0  0  0  0  0  0  0
   41.0110   25.9100   43.8410 C   0  0  0  0  0  3  0  0  0  0  0  0
   42.0060   26.3750   43.7470 H   0  0  0  0  0  0  0  0  0  0  0  0
   40.7730   24.9620   42.8600 O   0  0  0  0  0  0  0  0  0  0  0  0
   39.9800   25.5760   41.8890 C   0  0  0  0  0  3  0  0  0  0  0  0
   40.5630   26.2440   41.2370 H   0  0  0  0  0  0  0  0  0  0  0  0
  1  6  1  0  0  0  0
  1 16  1  0  0  0  0
  2  1  1  0  0  0  0
  3  4  1  0  0  0  0
  3  2  1  0  0  0  0
  4 11  1  0  0  0  0
  4  5  1  0  0  0  0
  5 14  1  0  0  0  0
  5  6  1  0  0  0  0
  6 15  1  1  0  0  0
  6 31  1  0  0  0  0
  7  2  1  0  0  0  0
  8  2  1  0  0  0  0
  9  3  1  0  0  0  0
 10  3  1  0  0  0  0
 12  4  1  0  0  0  0
 13  5  1  0  0  0  0
 16 18  1  0  0  0  0
 16 17  1  0  0  0  0
 19 20  1  0  0  0  0
 19 16  1  0  0  0  0
 19 24  1  0  0  0  0
 21 19  1  0  0  0  0
 22 27  1  0  0  0  0
 23 24  1  0  0  0  0
 23 22  2  0  0  0  0
 24 25  2  0  0  0  0
 25 26  1  0  0  0  0
 26 30  1  0  0  0  0
 27 26  2  0  0  0  0
 28 22  1  0  0  0  0
 29 23  1  0  0  0  0
 31 33  1  0  0  0  0
 33 32  2  1  0  0  0
 33 34  1  0  0  0  0
 34 35  1  0  0  0  0
 36 33  1  0  0  0  0
 37 36  1  6  0  0  0
 37 38  1  0  0  0  0
 38 40  1  0  0  0  0
 38 39  1  0  0  0  0
 41 40  1  0  0  0  0
 42 40  1  0  0  0  0
 43 37  1  0  0  0  0
 43 42  1  0  0  0  0
 44 43  1  0  0  0  0
M  END
>  <minimizedAffinity>
-5.0420084

$$$$

 OpenBabel03252509023D

 44 46  0  0  1  0  0  0  0  0999 V2000
   37.7880   30.3400   39.0630 N   0  0  0  0  0  0  0  0  0  0  0  0
   37.7680   31.5240   38.2840 C   0  0  0  0  0  0  0  0  0  0  0  0
   37.3030   32.7690   39.0060 C   0  0  0  0  0  0  0  0  0  0  0  0
   37.6710   32.8060   40.4650 C   0  0  0  0  0  0  0  0  0  0  0  0
   38.5040   31.6170   40.8690 C   0  0  0  0  0  0  0  0  0  0  0  0
   37.6190   30.3910   40.4380 C   0  0  2  0  0  0  0  0  0  0  0  0
   37.2140   31.4710   37.3420 H   0  0  0  0  0  0  0  0  0  0  0  0
   38.8290   31.7310   37.9800 H   0  0  0  0  0  0  0  0  0  0  0  0
   37.7760   33.6630   38.5240 H   0  0  0  0  0  0  0  0  0  0  0  0
   36.2180   32.8730   38.8190 H   0  0  0  0  0  0  0  0  0  0  0  0
   36.7320   32.7390   41.0570 H   0  0  0  0  0  0  0  0  0  0  0  0
   38.2330   33.7140   40.7580 H   0  0  0  0  0  0  0  0  0  0  0  0
   39.4740   31.5560   40.3690 H   0  0  0  0  0  0  0  0  0  0  0  0
   38.5500   31.5620   41.9710 H   0  0  0  0  0  0  0  0  0  0  0  0
   36.6030   30.5880   40.8420 H   0  0  0  0  0  0  0  0  0  0  0  0
   37.3680   29.1660   38.3560 C   0  0  0  0  0  0  0  0  0  0  0  0
   37.4260   28.2640   39.0060 H   0  0  0  0  0  0  0  0  0  0  0  0
   38.0370   28.9950   37.5100 H   0  0  0  0  0  0  0  0  0  0  0  0
   35.9380   29.3400   37.9410 C   0  0  0  0  0  0  0  0  0  0  0  0
   35.6400   30.4140   37.9740 H   0  0  0  0  0  0  0  0  0  0  0  0
   35.2490   28.8140   38.6110 H   0  0  0  0  0  0  0  0  0  0  0  0
   36.3550   28.9950   34.2230 C   0  0  0  0  0  0  0  0  0  0  0  0
   36.5000   29.4420   35.5480 C   0  0  0  0  0  0  0  0  0  0  0  0
   35.7700   28.8520   36.5460 C   0  0  0  0  0  0  0  0  0  0  0  0
   34.9400   27.8620   36.2040 N   0  0  0  0  0  0  0  0  0  0  0  0
   34.8020   27.4340   34.9340 C   0  0  0  0  0  0  0  0  0  0  0  0
   35.4980   27.9880   33.9400 N   0  0  0  0  0  0  0  0  0  0  0  0
   36.9480   29.4840   33.4570 H   0  0  0  0  0  0  0  0  0  0  0  0
   37.1800   30.2480   35.8020 H   0  0  0  0  0  0  0  0  0  0  0  0
   34.0960   26.6360   34.8460 H   0  0  0  0  0  0  0  0  0  0  0  0
   38.2680   29.3420   41.0760 O   0  0  0  0  0  0  0  0  0  0  0  0
   35.8480   28.3740   41.4980 O   0  0  0  0  0  0  0  0  0  0  0  0
   37.2470   28.4450   42.0640 P   0  0  2  0  0  0  0  0  0  0  0  0
   37.1030   29.3270   43.5240 O   0  0  0  0  0  0  0  0  0  0  0  0
   36.4560   30.0790   43.3920 H   0  0  0  0  0  0  0  0  0  0  0  0
   37.9130   26.9580   42.4120 O   0  0  0  0  0  0  0  0  0  0  0  0
   37.7920   26.0120   41.4450 C   0  0  2  0  0  3  0  0  0  0  0  0
   37.0250   24.8420   42.0500 C   0  0  0  0  0  3  0  0  0  0  0  0
   35.9340   24.9510   41.8970 H   0  0  0  0  0  0  0  0  0  0  0  0
   37.6180   23.6650   41.3180 C   0  0  0  0  0  3  0  0  0  0  0  0
   37.9500   22.8860   42.0230 H   0  0  0  0  0  0  0  0  0  0  0  0
   38.6450   24.1240   40.5110 O   0  0  0  0  0  0  0  0  0  0  0  0
   39.0780   25.3340   41.0580 C   0  0  0  0  0  3  0  0  0  0  0  0
   39.7120   25.1870   41.9450 H   0  0  0  0  0  0  0  0  0  0  0  0
  1  6  1  0  0  0  0
  2  3  1  0  0  0  0
  2  1  1  0  0  0  0
  3  4  1  0  0  0  0
  4 12  1  0  0  0  0
  4  5  1  0  0  0  0
  4 11  1  0  0  0  0
  5 14  1  0  0  0  0
  6 15  1  1  0  0  0
  6  5  1  0  0  0  0
  6 31  1  0  0  0  0
  7  2  1  0  0  0  0
  8  2  1  0  0  0  0
  9  3  1  0  0  0  0
 10  3  1  0  0  0  0
 13  5  1  0  0  0  0
 16 17  1  0  0  0  0
 16  1  1  0  0  0  0
 18 16  1  0  0  0  0
 19 20  1  0  0  0  0
 19 16  1  0  0  0  0
 19 21  1  0  0  0  0
 22 23  1  0  0  0  0
 23 29  1  0  0  0  0
 23 24  2  0  0  0  0
 24 19  1  0  0  0  0
 25 24  1  0  0  0  0
 26 25  2  0  0  0  0
 27 22  2  0  0  0  0
 27 26  1  0  0  0  0
 28 22  1  0  0  0  0
 30 26  1  0  0  0  0
 31 33  1  0  0  0  0
 33 32  2  6  0  0  0
 33 36  1  0  0  0  0
 33 34  1  0  0  0  0
 35 34  1  0  0  0  0
 37 38  1  0  0  0  0
 37 36  1  1  0  0  0
 39 38  1  0  0  0  0
 40 41  1  0  0  0  0
 40 38  1  0  0  0  0
 42 43  1  0  0  0  0
 42 40  1  0  0  0  0
 43 37  1  0  0  0  0
 43 44  1  0  0  0  0
M  END
>  <minimizedAffinity>
-4.84597683

$$$$
