
 OpenBabel03242516163D

 42 46  0  0  1  0  0  0  0  0999 V2000
   48.0230   34.5490   41.5710 C   0  0  0  0  0  0  0  0  0  0  0  0
   48.9230   35.7640   41.3210 C   0  0  0  0  0  0  0  0  0  0  0  0
   49.4120   34.6000   42.0130 C   0  0  0  0  0  0  0  0  0  0  0  0
   48.6000   36.7070   41.8420 H   0  0  0  0  0  0  0  0  0  0  0  0
   49.2350   35.9900   40.2820 H   0  0  0  0  0  0  0  0  0  0  0  0
   50.1300   33.9380   41.4590 H   0  0  0  0  0  0  0  0  0  0  0  0
   49.7780   34.7760   43.0250 H   0  0  0  0  0  0  0  0  0  0  0  0
   47.6900   33.7870   40.3360 C   0  0  0  0  0  0  0  0  0  0  0  0
   48.2330   34.3880   39.0500 C   0  0  0  0  0  0  0  0  0  0  0  0
   47.8740   33.3600   37.9670 C   0  0  0  0  0  0  0  0  0  0  0  0
   46.5020   33.5250   37.7230 O   0  0  0  0  0  0  0  0  0  0  0  0
   45.9000   32.9340   38.8630 C   0  0  0  0  0  0  0  0  0  0  0  0
   46.1670   33.7750   40.0900 C   0  0  0  0  0  0  0  0  0  0  0  0
   48.0350   32.7380   40.3390 H   0  0  0  0  0  0  0  0  0  0  0  0
   49.3320   34.3690   39.1040 H   0  0  0  0  0  0  0  0  0  0  0  0
   47.8000   35.3640   38.8260 H   0  0  0  0  0  0  0  0  0  0  0  0
   48.0570   32.3560   38.3660 H   0  0  0  0  0  0  0  0  0  0  0  0
   48.3870   33.5650   37.0130 H   0  0  0  0  0  0  0  0  0  0  0  0
   44.8010   33.0150   38.6800 H   0  0  0  0  0  0  0  0  0  0  0  0
   46.2470   31.9030   39.0260 H   0  0  0  0  0  0  0  0  0  0  0  0
   45.7710   34.7870   39.9760 H   0  0  0  0  0  0  0  0  0  0  0  0
   45.7510   33.2000   40.9450 H   0  0  0  0  0  0  0  0  0  0  0  0
   46.2510   35.9580   42.6460 C   0  0  0  0  0  0  0  0  0  0  0  0
   46.9210   34.7500   42.5620 C   0  0  0  0  0  0  0  0  0  0  0  0
   46.5340   33.7470   43.4430 C   0  0  0  0  0  0  0  0  0  0  0  0
   45.5300   33.9660   44.3440 N   0  0  0  0  0  0  0  0  0  0  0  0
   44.9250   35.1580   44.3680 C   0  0  0  0  0  0  0  0  0  0  0  0
   45.2670   36.1350   43.5480 N   0  0  0  0  0  0  0  0  0  0  0  0
   43.8730   35.4590   45.2770 N   0  0  0  0  0  0  0  0  0  0  0  0
   46.5660   36.7240   41.9540 H   0  0  0  0  0  0  0  0  0  0  0  0
   42.9300   35.1340   45.0100 H   0  0  0  0  0  0  0  0  0  0  0  0
   44.3170   35.9770   46.0660 H   0  0  0  0  0  0  0  0  0  0  0  0
   47.1990   32.4650   43.5180 C   0  0  1  0  0  3  0  0  0  0  0  0
   48.2020   32.1110   44.1930 O   0  0  0  0  0  0  0  0  0  0  0  0
   47.3990   31.0480   43.1740 C   0  0  2  0  0  0  0  0  0  0  0  0
   46.6030   30.6310   41.9530 C   0  0  0  0  0  3  0  0  0  0  0  0
   47.0410   29.6310   41.6810 H   0  0  0  0  0  0  0  0  0  0  0  0
   45.2490   30.3680   42.5160 C   0  0  0  0  0  3  0  0  0  0  0  0
   44.9150   29.3110   42.3070 H   0  0  0  0  0  0  0  0  0  0  0  0
   45.3250   30.4480   43.8990 O   0  0  0  0  0  0  0  0  0  0  0  0
   46.6510   30.1530   44.2080 C   0  0  0  0  0  3  0  0  0  0  0  0
   46.9160   30.4550   45.2230 H   0  0  0  0  0  0  0  0  0  0  0  0
  1  3  1  0  0  0  0
  1 24  1  0  0  0  0
  2  1  1  0  0  0  0
  2  4  1  0  0  0  0
  2  3  1  0  0  0  0
  3  7  1  0  0  0  0
  5  2  1  0  0  0  0
  6  3  1  0  0  0  0
  8 14  1  0  0  0  0
  8  1  1  0  0  0  0
  9 15  1  0  0  0  0
  9  8  1  0  0  0  0
 10 17  1  0  0  0  0
 10  9  1  0  0  0  0
 11 10  1  0  0  0  0
 11 12  1  0  0  0  0
 12 20  1  0  0  0  0
 12 13  1  0  0  0  0
 13  8  1  0  0  0  0
 13 22  1  0  0  0  0
 16  9  1  0  0  0  0
 18 10  1  0  0  0  0
 19 12  1  0  0  0  0
 21 13  1  0  0  0  0
 23 28  1  0  0  0  0
 24 23  2  0  0  0  0
 24 25  1  0  0  0  0
 25 26  2  0  0  0  0
 26 27  1  0  0  0  0
 27 29  1  0  0  0  0
 28 27  2  0  0  0  0
 29 32  1  0  0  0  0
 30 23  1  0  0  0  0
 31 29  1  0  0  0  0
 33 25  1  1  0  0  0
 33 34  1  0  0  0  0
 35 36  1  6  0  0  0
 35 33  1  0  0  0  0
 35 34  1  0  0  0  0
 35 41  1  0  0  0  0
 36 38  1  0  0  0  0
 37 36  1  0  0  0  0
 38 40  1  0  0  0  0
 39 38  1  0  0  0  0
 40 41  1  0  0  0  0
 41 42  1  0  0  0  0
M  END
>  <minimizedAffinity>
-4.94669867

>  <minimizedRMSD>
1.57653499

$$$$
