
 OpenBabel03252509003D

 44 46  0  0  1  0  0  0  0  0999 V2000
   46.7230   34.5080   43.5060 N   0  0  0  0  0  0  0  0  0  0  0  0
   46.2430   35.5800   42.7120 C   0  0  0  0  0  0  0  0  0  0  0  0
   44.7440   35.7770   42.7250 C   0  0  0  0  0  0  0  0  0  0  0  0
   44.0900   35.4280   44.0350 C   0  0  0  0  0  0  0  0  0  0  0  0
   45.0980   35.0330   45.0830 C   0  0  0  0  0  0  0  0  0  0  0  0
   45.8890   33.8580   44.4020 C   0  0  2  0  0  0  0  0  0  0  0  0
   46.5600   35.5830   41.6650 H   0  0  0  0  0  0  0  0  0  0  0  0
   46.6740   36.5230   43.1440 H   0  0  0  0  0  0  0  0  0  0  0  0
   44.5200   36.8560   42.5220 H   0  0  0  0  0  0  0  0  0  0  0  0
   44.3310   35.2230   41.8610 H   0  0  0  0  0  0  0  0  0  0  0  0
   43.4500   34.5330   43.8710 H   0  0  0  0  0  0  0  0  0  0  0  0
   43.4810   36.2500   44.4600 H   0  0  0  0  0  0  0  0  0  0  0  0
   45.7970   35.8280   45.3580 H   0  0  0  0  0  0  0  0  0  0  0  0
   44.5740   34.5680   45.9360 H   0  0  0  0  0  0  0  0  0  0  0  0
   45.1210   33.1610   44.0030 H   0  0  0  0  0  0  0  0  0  0  0  0
   47.8080   33.7810   42.9150 C   0  0  0  0  0  0  0  0  0  0  0  0
   48.4170   33.2670   43.6920 H   0  0  0  0  0  0  0  0  0  0  0  0
   48.4700   34.4770   42.3960 H   0  0  0  0  0  0  0  0  0  0  0  0
   47.2440   32.7300   42.0080 C   0  0  0  0  0  0  0  0  0  0  0  0
   46.1330   32.8080   41.9460 H   0  0  0  0  0  0  0  0  0  0  0  0
   47.4550   31.7170   42.3700 H   0  0  0  0  0  0  0  0  0  0  0  0
   49.1210   32.0740   38.8190 C   0  0  0  0  0  0  0  0  0  0  0  0
   48.5850   31.9210   40.1100 C   0  0  0  0  0  0  0  0  0  0  0  0
   47.8000   32.9120   40.6400 C   0  0  0  0  0  0  0  0  0  0  0  0
   47.5780   33.9950   39.8890 N   0  0  0  0  0  0  0  0  0  0  0  0
   48.0910   34.1400   38.6520 C   0  0  0  0  0  0  0  0  0  0  0  0
   48.8590   33.1950   38.1090 N   0  0  0  0  0  0  0  0  0  0  0  0
   49.7380   31.2720   38.4290 H   0  0  0  0  0  0  0  0  0  0  0  0
   48.7790   31.0330   40.7010 H   0  0  0  0  0  0  0  0  0  0  0  0
   47.8100   35.0670   38.1990 H   0  0  0  0  0  0  0  0  0  0  0  0
   46.5940   33.3370   45.4780 O   0  0  0  0  0  0  0  0  0  0  0  0
   45.5200   31.0960   44.5870 O   0  0  0  0  0  0  0  0  0  0  0  0
   46.2760   31.7090   45.7430 P   0  0  2  0  0  0  0  0  0  0  0  0
   45.2000   31.6460   47.0740 O   0  0  0  0  0  0  0  0  0  0  0  0
   44.2750   31.8650   46.7600 H   0  0  0  0  0  0  0  0  0  0  0  0
   47.6670   30.8900   46.1550 O   0  0  0  0  0  0  0  0  0  0  0  0
   47.5290   29.9190   47.0940 C   0  0  2  0  0  3  0  0  0  0  0  0
   48.9230   29.5900   47.6140 C   0  0  0  0  0  3  0  0  0  0  0  0
   49.1870   30.2170   48.4880 H   0  0  0  0  0  0  0  0  0  0  0  0
   48.7970   28.1240   47.9440 C   0  0  0  0  0  3  0  0  0  0  0  0
   49.6110   27.5430   47.4800 H   0  0  0  0  0  0  0  0  0  0  0  0
   47.5440   27.6930   47.5490 O   0  0  0  0  0  0  0  0  0  0  0  0
   47.1040   28.5770   46.5620 C   0  0  0  0  0  3  0  0  0  0  0  0
   47.5820   28.3870   45.5890 H   0  0  0  0  0  0  0  0  0  0  0  0
  1  6  1  0  0  0  0
  2  3  1  0  0  0  0
  2  8  1  0  0  0  0
  2  1  1  0  0  0  0
  3  4  1  0  0  0  0
  4 12  1  0  0  0  0
  4  5  1  0  0  0  0
  5 13  1  0  0  0  0
  5 14  1  0  0  0  0
  6 15  1  6  0  0  0
  6  5  1  0  0  0  0
  6 31  1  0  0  0  0
  7  2  1  0  0  0  0
  9  3  1  0  0  0  0
 10  3  1  0  0  0  0
 11  4  1  0  0  0  0
 16  1  1  0  0  0  0
 16 17  1  0  0  0  0
 18 16  1  0  0  0  0
 19 21  1  0  0  0  0
 19 16  1  0  0  0  0
 20 19  1  0  0  0  0
 22 23  1  0  0  0  0
 23 24  2  0  0  0  0
 23 29  1  0  0  0  0
 24 19  1  0  0  0  0
 25 24  1  0  0  0  0
 26 25  2  0  0  0  0
 27 26  1  0  0  0  0
 27 22  2  0  0  0  0
 28 22  1  0  0  0  0
 30 26  1  0  0  0  0
 31 33  1  0  0  0  0
 33 32  2  6  0  0  0
 33 36  1  0  0  0  0
 33 34  1  0  0  0  0
 35 34  1  0  0  0  0
 37 36  1  6  0  0  0
 37 38  1  0  0  0  0
 38 40  1  0  0  0  0
 38 39  1  0  0  0  0
 41 40  1  0  0  0  0
 42 40  1  0  0  0  0
 43 37  1  0  0  0  0
 43 42  1  0  0  0  0
 44 43  1  0  0  0  0
M  END
>  <minimizedAffinity>
-4.22364187

>  <minimizedRMSD>
0.990738332

$$$$
