REMARK  Name = 
REMARK  4 active torsions:
REMARK  status: ('A' for Active; 'I' for Inactive)
REMARK    1  A    between atoms: C_1  and  C_4
REMARK    2  A    between atoms: C_1  and  C_11
REMARK    3  A    between atoms: C_12  and  C_17
REMARK    4  A    between atoms: C_17  and  C_35
REMARK                            x       y       z     vdW  Elec       q    Type
REMARK                         _______ _______ _______ _____ _____    ______ ____
ROOT
ATOM      1  C   UNL     1      48.041  34.566  41.727  0.00  0.00    +0.000 C 
ATOM      2  C   UNL     1      48.844  35.829  41.397  0.00  0.00    +0.000 C 
ATOM      3  C   UNL     1      49.452  34.709  42.067  0.00  0.00    +0.000 C 
ATOM      4  H   UNL     1      48.501  36.759  41.928  0.00  0.00    +0.000 HD
ATOM      5  H   UNL     1      49.067  36.056  40.336  0.00  0.00    +0.000 HD
ATOM      6  H   UNL     1      50.168  34.082  41.471  0.00  0.00    +0.000 HD
ATOM      7  H   UNL     1      49.877  34.924  43.048  0.00  0.00    +0.000 HD
ENDROOT
BRANCH   1   8
ATOM      8  C   UNL     1      47.669  33.764  40.529  0.00  0.00    +0.000 C 
ATOM      9  C   UNL     1      48.133  34.345  39.203  0.00  0.00    +0.000 C 
ATOM     10  C   UNL     1      47.750  33.281  38.165  0.00  0.00    +0.000 C 
ATOM     11  O   UNL     1      46.364  33.405  37.984  0.00  0.00    +0.000 OA
ATOM     12  C   UNL     1      45.833  32.829  39.166  0.00  0.00    +0.000 C 
ATOM     13  C   UNL     1      46.137  33.708  40.358  0.00  0.00    +0.000 C 
ATOM     14  H   UNL     1      48.041  32.725  40.541  0.00  0.00    +0.000 HD
ATOM     15  H   UNL     1      49.234  34.355  39.204  0.00  0.00    +0.000 HD
ATOM     16  H   UNL     1      47.665  35.304  38.977  0.00  0.00    +0.000 HD
ATOM     17  H   UNL     1      47.978  32.292  38.579  0.00  0.00    +0.000 HD
ATOM     18  H   UNL     1      48.211  33.474  37.182  0.00  0.00    +0.000 HD
ATOM     19  H   UNL     1      44.725  32.878  39.035  0.00  0.00    +0.000 HD
ATOM     20  H   UNL     1      46.214  31.812  39.338  0.00  0.00    +0.000 HD
ATOM     21  H   UNL     1      45.709  34.707  40.238  0.00  0.00    +0.000 HD
ATOM     22  H   UNL     1      45.777  33.145  41.246  0.00  0.00    +0.000 HD
ENDBRANCH   1   8
BRANCH   1  24
ATOM     23  C   UNL     1      46.141  35.800  42.798  0.00  0.00    +0.000 A 
ATOM     24  C   UNL     1      47.002  34.717  42.792  0.00  0.00    +0.000 A 
ATOM     25  C   UNL     1      46.865  33.791  43.820  0.00  0.00    +0.000 A 
ATOM     26  N   UNL     1      45.912  33.963  44.785  0.00  0.00    +0.000 NA
ATOM     27  C   UNL     1      45.113  35.034  44.727  0.00  0.00    +0.000 A 
ATOM     28  N   UNL     1      45.215  35.934  43.766  0.00  0.00    +0.000 NA
ATOM     29  N   UNL     1      44.099  35.279  45.694  0.00  0.00    +0.000 N 
ATOM     30  H   UNL     1      46.263  36.507  41.992  0.00  0.00    +0.000 HD
ATOM     31  H   UNL     1      43.209  34.772  45.563  0.00  0.00    +0.000 HD
ATOM     32  H   UNL     1      44.507  35.963  46.367  0.00  0.00    +0.000 HD
BRANCH  25  33
ATOM     33  C   UNL     1      47.747  32.656  43.981  0.00  0.00    +0.000 C 
ATOM     34  O   UNL     1      47.489  31.472  44.323  0.00  0.00    +0.000 OA
BRANCH  33  35
ATOM     35  C   UNL     1      49.050  31.972  43.965  0.00  0.00    +0.000 C 
ATOM     36  C   UNL     1      49.221  31.079  42.752  0.00  0.00    +0.000 C 
ATOM     37  H   UNL     1      50.319  30.834  42.757  0.00  0.00    +0.000 HD
ATOM     38  C   UNL     1      48.502  29.837  43.154  0.00  0.00    +0.000 C 
ATOM     39  H   UNL     1      49.184  28.938  43.119  0.00  0.00    +0.000 HD
ATOM     40  O   UNL     1      48.138  29.951  44.488  0.00  0.00    +0.000 OA
ATOM     41  C   UNL     1      49.055  30.843  45.040  0.00  0.00    +0.000 C 
ATOM     42  H   UNL     1      48.718  31.240  46.000  0.00  0.00    +0.000 HD
ENDBRANCH  33  35
ENDBRANCH  25  33
ENDBRANCH   1  24
TORSDOF 4
