
 OpenBabel03242521283D

 34 36  0  0  1  0  0  0  0  0999 V2000
   48.2360   33.6190   42.5940 C   0  0  1  0  0  0  0  0  0  0  0  0
   46.7560   33.7460   42.3200 C   0  0  2  0  0  0  0  0  0  0  0  0
   46.4970   34.6230   41.2860 O   0  0  0  0  0  0  0  0  0  0  0  0
   46.9300   33.9970   40.1280 C   0  0  0  0  0  0  0  0  0  0  0  0
   48.4360   34.0250   40.1190 C   0  0  2  0  0  0  0  0  0  0  0  0
   49.0760   33.5140   41.3710 C   0  0  2  0  0  0  0  0  0  0  0  0
   48.3440   32.6470   43.1600 H   0  0  0  0  0  0  0  0  0  0  0  0
   46.3880   32.7300   42.0460 H   0  0  0  0  0  0  0  0  0  0  0  0
   46.5250   32.9790   39.9810 H   0  0  0  0  0  0  0  0  0  0  0  0
   46.6120   34.6460   39.2710 H   0  0  0  0  0  0  0  0  0  0  0  0
   48.8050   33.4340   39.2510 H   0  0  0  0  0  0  0  0  0  0  0  0
   49.9770   34.1730   41.5450 H   0  0  0  0  0  0  0  0  0  0  0  0
   44.5860   35.7450   44.6960 C   0  0  0  0  0  0  0  0  0  0  0  0
   45.2340   35.3700   43.5090 C   0  0  0  0  0  0  0  0  0  0  0  0
   46.0360   34.1940   43.5300 C   0  0  0  0  0  0  0  0  0  0  0  0
   46.1380   33.4940   44.6860 N   0  0  0  0  0  0  0  0  0  0  0  0
   45.4900   33.8990   45.8160 C   0  0  0  0  0  0  0  0  0  0  0  0
   44.7160   35.0200   45.8220 N   0  0  0  0  0  0  0  0  0  0  0  0
   43.9670   36.6310   44.7210 H   0  0  0  0  0  0  0  0  0  0  0  0
   45.1360   35.9470   42.5940 H   0  0  0  0  0  0  0  0  0  0  0  0
   45.6470   33.2610   46.6760 H   0  0  0  0  0  0  0  0  0  0  0  0
   48.6900   34.6000   43.4840 O   0  0  0  0  0  0  0  0  0  0  0  0
   48.9870   34.2610   44.3450 H   0  0  0  0  0  0  0  0  0  0  0  0
   48.7960   35.3540   39.8530 O   0  0  0  0  0  0  0  0  0  0  0  0
   48.6320   35.5720   38.9170 H   0  0  0  0  0  0  0  0  0  0  0  0
   49.6220   32.2280   41.2170 O   0  0  0  0  0  0  0  0  0  0  0  0
   50.9480   32.1430   41.5610 C   0  0  2  0  0  0  0  0  0  0  0  0
   51.7100   31.5600   40.3970 C   0  0  0  0  0  0  0  0  0  0  0  0
   52.7970   31.6990   40.6200 H   0  0  0  0  0  0  0  0  0  0  0  0
   51.4140   30.0920   40.5610 C   0  0  0  0  0  0  0  0  0  0  0  0
   50.5510   29.8370   39.9060 H   0  0  0  0  0  0  0  0  0  0  0  0
   51.0930   29.8450   41.8790 O   0  0  0  0  0  0  0  0  0  0  0  0
   51.1680   31.0350   42.5850 C   0  0  0  0  0  0  0  0  0  0  0  0
   50.4040   31.0300   43.3740 H   0  0  0  0  0  0  0  0  0  0  0  0
  1  7  1  1  0  0  0
  1 22  1  0  0  0  0
  2  8  1  6  0  0  0
  2  1  1  0  0  0  0
  2 15  1  0  0  0  0
  3  2  1  0  0  0  0
  4  3  1  0  0  0  0
  5 11  1  6  0  0  0
  5  4  1  0  0  0  0
  5  6  1  0  0  0  0
  6 12  1  1  0  0  0
  6  1  1  0  0  0  0
  9  4  1  0  0  0  0
 10  4  1  0  0  0  0
 13 19  1  0  0  0  0
 13 18  1  0  0  0  0
 14 15  1  0  0  0  0
 14 13  2  0  0  0  0
 15 16  2  0  0  0  0
 16 17  1  0  0  0  0
 17 18  2  0  0  0  0
 17 21  1  0  0  0  0
 20 14  1  0  0  0  0
 22 23  1  0  0  0  0
 24  5  1  0  0  0  0
 25 24  1  0  0  0  0
 26  6  1  0  0  0  0
 27 26  1  6  0  0  0
 27 33  1  0  0  0  0
 28 30  1  0  0  0  0
 28 29  1  0  0  0  0
 28 27  1  0  0  0  0
 30 32  1  0  0  0  0
 31 30  1  0  0  0  0
 32 33  1  0  0  0  0
 33 34  1  0  0  0  0
M  END
>  <minimizedAffinity>
-5.28906536

>  <minimizedRMSD>
0.292503625

$$$$
