
 OpenBabel03252505313D

 26 27  0  0  1  0  0  0  0  0999 V2000
   46.8610   32.1360   48.4920 O   0  0  0  0  0  0  0  0  0  0  0  0
   45.8260   32.3840   47.3880 P   0  0  1  0  0  0  0  0  0  0  0  0
   44.5660   33.3430   47.9390 O   0  0  0  0  0  0  0  0  0  0  0  0
   44.8440   33.9860   48.6470 H   0  0  0  0  0  0  0  0  0  0  0  0
   46.6340   33.1270   46.1030 O   0  0  0  0  0  0  0  0  0  0  0  0
   44.4940   35.6130   44.7710 C   0  0  0  0  0  0  0  0  0  0  0  0
   44.9060   35.7670   43.4330 C   0  0  0  0  0  0  0  0  0  0  0  0
   45.9870   34.9460   43.0080 C   0  0  0  0  0  0  0  0  0  0  0  0
   46.5350   34.0830   43.9210 N   0  0  0  0  0  0  0  0  0  0  0  0
   46.0930   33.9890   45.1790 C   0  0  0  0  0  0  0  0  0  0  0  0
   45.0810   34.7460   45.6060 N   0  0  0  0  0  0  0  0  0  0  0  0
   43.6640   36.2290   45.1360 H   0  0  0  0  0  0  0  0  0  0  0  0
   44.4540   36.4500   42.7520 H   0  0  0  0  0  0  0  0  0  0  0  0
   46.3690   34.9970   42.0010 H   0  0  0  0  0  0  0  0  0  0  0  0
   45.2040   30.8790   46.9810 O   0  0  0  0  0  0  0  0  0  0  0  0
   45.5050   29.9820   47.9630 C   0  0  0  0  0  0  0  0  0  0  0  0
   46.2910   30.2750   48.6570 H   0  0  0  0  0  0  0  0  0  0  0  0
   44.5790   29.8540   48.5840 H   0  0  0  0  0  0  0  0  0  0  0  0
   45.8360   28.6020   47.4520 C   0  0  2  0  0  3  0  0  0  0  0  0
   45.5760   28.4390   45.9670 C   0  0  0  0  0  3  0  0  0  0  0  0
   46.4720   28.7520   45.4190 H   0  0  0  0  0  0  0  0  0  0  0  0
   45.3680   26.9190   45.9280 C   0  0  0  0  0  3  0  0  0  0  0  0
   44.8690   26.5890   44.9980 H   0  0  0  0  0  0  0  0  0  0  0  0
   44.5820   26.6900   47.0260 O   0  0  0  0  0  0  0  0  0  0  0  0
   44.8730   27.5940   48.0180 C   0  0  0  0  0  3  0  0  0  0  0  0
   43.9360   28.0890   48.4030 H   0  0  0  0  0  0  0  0  0  0  0  0
  2  3  1  0  0  0  0
  2  1  2  1  0  0  0
  3  4  1  0  0  0  0
  5  2  1  0  0  0  0
  6 12  1  0  0  0  0
  6 11  1  0  0  0  0
  7  6  2  0  0  0  0
  8  7  1  0  0  0  0
  8  9  2  0  0  0  0
  9 10  1  0  0  0  0
 10 11  2  0  0  0  0
 10  5  1  0  0  0  0
 13  7  1  0  0  0  0
 14  8  1  0  0  0  0
 15  2  1  0  0  0  0
 15 16  1  0  0  0  0
 16 18  1  0  0  0  0
 16 17  1  0  0  0  0
 19 16  1  1  0  0  0
 19 25  1  0  0  0  0
 20 19  1  0  0  0  0
 21 20  1  0  0  0  0
 22 20  1  0  0  0  0
 22 24  1  0  0  0  0
 23 22  1  0  0  0  0
 24 25  1  0  0  0  0
 25 26  1  0  0  0  0
M  END
>  <minimizedAffinity>
-4.34273958

>  <minimizedRMSD>
1.10512578

$$$$
