
 OpenBabel03252508073D

 43 46  0  0  1  0  0  0  0  0999 V2000
   45.1310   35.5140   43.2290 C   0  0  0  0  0  0  0  0  0  0  0  0
   45.5260   34.1860   43.2930 C   0  0  0  0  0  0  0  0  0  0  0  0
   45.4710   33.5100   44.4860 C   0  0  0  0  0  0  0  0  0  0  0  0
   45.0110   34.2140   45.5820 N   0  0  0  0  0  0  0  0  0  0  0  0
   44.6340   35.4880   45.5150 C   0  0  0  0  0  0  0  0  0  0  0  0
   44.6990   36.1270   44.3270 N   0  0  0  0  0  0  0  0  0  0  0  0
   45.1740   36.0460   42.2890 H   0  0  0  0  0  0  0  0  0  0  0  0
   44.2810   35.9910   46.4050 H   0  0  0  0  0  0  0  0  0  0  0  0
   45.8360   32.1640   44.7180 C   0  0  0  0  0  0  0  0  0  0  0  0
   45.5210   31.1100   43.8560 C   0  0  0  0  0  0  0  0  0  0  0  0
   45.8140   29.7940   44.1100 C   0  0  0  0  0  0  0  0  0  0  0  0
   46.4590   29.4520   45.2760 C   0  0  0  0  0  0  0  0  0  0  0  0
   46.7940   30.5130   46.1720 C   0  0  0  0  0  0  0  0  0  0  0  0
   47.4330   30.1840   47.3320 C   0  0  0  0  0  0  0  0  0  0  0  0
   47.7860   31.1620   48.2390 C   0  0  0  0  0  0  0  0  0  0  0  0
   47.4820   32.5050   47.9570 C   0  0  0  0  0  0  0  0  0  0  0  0
   46.8220   32.7890   46.7490 C   0  0  0  0  0  0  0  0  0  0  0  0
   46.4800   31.7970   45.8700 C   0  0  0  0  0  0  0  0  0  0  0  0
   45.0100   31.3590   42.9310 H   0  0  0  0  0  0  0  0  0  0  0  0
   45.5270   29.0400   43.3740 H   0  0  0  0  0  0  0  0  0  0  0  0
   46.7050   28.4260   45.5100 H   0  0  0  0  0  0  0  0  0  0  0  0
   47.6780   29.1380   47.5650 H   0  0  0  0  0  0  0  0  0  0  0  0
   48.2900   30.8430   49.1410 H   0  0  0  0  0  0  0  0  0  0  0  0
   47.7970   33.1810   48.7180 H   0  0  0  0  0  0  0  0  0  0  0  0
   46.7010   33.8510   46.7080 H   0  0  0  0  0  0  0  0  0  0  0  0
   45.9560   33.6060   42.1310 O   0  0  0  0  0  0  0  0  0  0  0  0
   48.1600   32.4280   41.3450 O   0  0  0  0  0  0  0  0  0  0  0  0
   47.5200   33.7610   41.5000 P   0  0  1  0  0  0  0  0  0  0  0  0
   47.4790   34.4690   39.9610 O   0  0  0  0  0  0  0  0  0  0  0  0
   47.5830   33.3830   39.0670 C   0  0  2  0  0  3  0  0  0  0  0  0
   48.4630   33.7510   37.8860 C   0  0  0  0  0  3  0  0  0  0  0  0
   48.6090   34.8530   37.7840 H   0  0  0  0  0  0  0  0  0  0  0  0
   47.6310   33.2220   36.7250 C   0  0  0  0  0  3  0  0  0  0  0  0
   47.8880   32.1480   36.6470 H   0  0  0  0  0  0  0  0  0  0  0  0
   46.3380   33.4650   37.1590 O   0  0  0  0  0  0  0  0  0  0  0  0
   46.2860   32.9790   38.4590 C   0  0  0  0  0  3  0  0  0  0  0  0
   46.3010   31.8540   38.3600 H   0  0  0  0  0  0  0  0  0  0  0  0
   48.4050   34.7490   42.5260 O   0  0  0  0  0  0  0  0  0  0  0  0
   49.6220   35.3540   42.2510 C   0  0  0  0  0  0  0  0  0  0  0  0
   49.3250   36.4110   41.6660 O   0  0  0  0  0  0  0  0  0  0  0  0
   50.7150   34.5480   42.7330 N   0  0  0  0  0  0  0  0  0  0  0  0
   50.8060   34.4510   43.7850 H   0  0  0  0  0  0  0  0  0  0  0  0
   51.4500   34.0320   42.1750 H   0  0  0  0  0  0  0  0  0  0  0  0
  1  2  2  0  0  0  0
  1  6  1  0  0  0  0
  2  3  1  0  0  0  0
  3  9  1  0  0  0  0
  3  4  2  0  0  0  0
  5  4  1  0  0  0  0
  5  8  1  0  0  0  0
  6  5  2  0  0  0  0
  7  1  1  0  0  0  0
  9 18  1  0  0  0  0
 10 11  1  0  0  0  0
 10  9  2  0  0  0  0
 11 12  2  0  0  0  0
 12 21  1  0  0  0  0
 12 13  1  0  0  0  0
 13 14  1  0  0  0  0
 14 22  1  0  0  0  0
 14 15  2  0  0  0  0
 15 23  1  0  0  0  0
 16 15  1  0  0  0  0
 16 24  1  0  0  0  0
 17 16  2  0  0  0  0
 18 13  2  0  0  0  0
 18 17  1  0  0  0  0
 19 10  1  0  0  0  0
 20 11  1  0  0  0  0
 25 17  1  0  0  0  0
 26  2  1  0  0  0  0
 28 27  2  6  0  0  0
 28 26  1  0  0  0  0
 28 38  1  0  0  0  0
 29 28  1  0  0  0  0
 30 29  1  1  0  0  0
 31 30  1  0  0  0  0
 32 31  1  0  0  0  0
 33 35  1  0  0  0  0
 33 31  1  0  0  0  0
 34 33  1  0  0  0  0
 35 36  1  0  0  0  0
 36 30  1  0  0  0  0
 37 36  1  0  0  0  0
 39 38  1  0  0  0  0
 39 41  1  0  0  0  0
 40 39  2  0  0  0  0
 41 42  1  0  0  0  0
 43 41  1  0  0  0  0
M  END
>  <minimizedAffinity>
-6.24453068

>  <minimizedRMSD>
0.849236548

$$$$
