
 OpenBabel03252500153D

 37 40  0  0  1  0  0  0  0  0999 V2000
   45.6150   32.3950   40.4250 Cl  0  0  0  0  0  0  0  0  0  0  0  0
   46.8920   33.5360   40.1310 C   0  0  0  0  0  0  0  0  0  0  0  0
   47.4320   34.2730   41.1520 C   0  0  0  0  0  0  0  0  0  0  0  0
   48.4540   35.1950   40.9460 C   0  0  0  0  0  0  0  0  0  0  0  0
   48.8930   35.3250   39.6510 C   0  0  0  0  0  0  0  0  0  0  0  0
   48.3560   34.5870   38.6100 C   0  0  0  0  0  0  0  0  0  0  0  0
   47.3670   33.7030   38.8440 C   0  0  0  0  0  0  0  0  0  0  0  0
   48.8770   35.7700   41.7410 H   0  0  0  0  0  0  0  0  0  0  0  0
   49.6840   36.0350   39.4810 H   0  0  0  0  0  0  0  0  0  0  0  0
   48.7170   34.7050   37.6010 H   0  0  0  0  0  0  0  0  0  0  0  0
   46.8540   32.8730   44.5150 C   0  0  0  0  0  0  0  0  0  0  0  0
   45.9150   33.7780   45.0710 C   0  0  0  0  0  0  0  0  0  0  0  0
   45.5010   34.8490   44.2780 C   0  0  0  0  0  0  0  0  0  0  0  0
   46.0220   34.9620   43.0200 N   0  0  0  0  0  0  0  0  0  0  0  0
   46.9140   34.0850   42.5180 C   0  0  0  0  0  0  0  0  0  0  0  0
   47.3170   33.0590   43.2670 N   0  0  0  0  0  0  0  0  0  0  0  0
   47.1550   32.0520   45.1580 H   0  0  0  0  0  0  0  0  0  0  0  0
   45.4880   33.7180   46.0520 H   0  0  0  0  0  0  0  0  0  0  0  0
   44.5160   35.8690   44.7510 C   0  0  0  0  0  0  0  0  0  0  0  0
   44.9780   37.1280   44.5350 F   0  0  0  0  0  0  0  0  0  0  0  0
   43.3360   35.6910   44.0550 F   0  0  0  0  0  0  0  0  0  0  0  0
   44.3080   35.6270   46.0850 F   0  0  0  0  0  0  0  0  0  0  0  0
   46.7840   32.9120   37.7630 C   0  0  0  0  0  0  0  0  0  0  0  0
   45.5780   33.2350   37.1240 C   0  0  0  0  0  0  0  0  0  0  0  0
   45.3310   32.2750   36.1570 C   0  0  0  0  0  0  0  0  0  0  0  0
   46.4160   31.4170   36.2690 C   0  0  0  0  0  0  0  0  0  0  0  0
   47.2500   31.8060   37.2110 O   0  0  0  0  0  0  0  0  0  0  0  0
   44.9520   34.0900   37.3530 H   0  0  0  0  0  0  0  0  0  0  0  0
   44.5180   32.1910   35.4810 H   0  0  0  0  0  0  0  0  0  0  0  0
   46.6520   30.2110   35.4630 C   0  0  1  0  0  3  0  0  0  0  0  0
   45.4670   29.8630   34.5520 C   0  0  0  0  0  3  0  0  0  0  0  0
   45.1760   30.7290   33.9430 H   0  0  0  0  0  0  0  0  0  0  0  0
   46.2070   28.8820   33.6330 C   0  0  0  0  0  3  0  0  0  0  0  0
   45.6430   28.6670   32.7120 H   0  0  0  0  0  0  0  0  0  0  0  0
   47.4590   29.4290   33.4310 O   0  0  0  0  0  0  0  0  0  0  0  0
   47.7250   30.3480   34.4250 C   0  0  0  0  0  3  0  0  0  0  0  0
   47.6300   31.3550   33.9670 H   0  0  0  0  0  0  0  0  0  0  0  0
  2  1  1  0  0  0  0
  2  3  1  0  0  0  0
  3 15  1  0  0  0  0
  4  3  2  0  0  0  0
  4  8  1  0  0  0  0
  5  4  1  0  0  0  0
  6  7  1  0  0  0  0
  6  5  2  0  0  0  0
  7  2  2  0  0  0  0
  9  5  1  0  0  0  0
 10  6  1  0  0  0  0
 11 12  1  0  0  0  0
 11 17  1  0  0  0  0
 12 18  1  0  0  0  0
 13 19  1  0  0  0  0
 13 12  2  0  0  0  0
 14 13  1  0  0  0  0
 15 14  2  0  0  0  0
 15 16  1  0  0  0  0
 16 11  2  0  0  0  0
 19 22  1  0  0  0  0
 20 19  1  0  0  0  0
 21 19  1  0  0  0  0
 23  7  1  0  0  0  0
 24 28  1  0  0  0  0
 24 23  2  0  0  0  0
 25 26  2  0  0  0  0
 25 24  1  0  0  0  0
 26 27  1  0  0  0  0
 27 23  1  0  0  0  0
 29 25  1  0  0  0  0
 30 26  1  6  0  0  0
 31 30  1  0  0  0  0
 32 31  1  0  0  0  0
 33 31  1  0  0  0  0
 34 33  1  0  0  0  0
 35 33  1  0  0  0  0
 35 36  1  0  0  0  0
 36 30  1  0  0  0  0
 37 36  1  0  0  0  0
M  END
>  <minimizedAffinity>
-5.80809879

>  <minimizedRMSD>
0.909927249

$$$$
