
     RDKit          3D

 41 44  0  0  0  0  0  0  0  0999 V2000
   45.4974   32.3026   40.5828 Cl  0  0  0  0  0  0  0  0  0  0  0  0
   46.7800   33.4143   40.2106 C   0  0  0  0  0  0  0  0  0  0  0  0
   47.3647   34.1738   41.1888 C   0  0  0  0  0  0  0  0  0  0  0  0
   48.3930   35.0717   40.9202 C   0  0  0  0  0  0  0  0  0  0  0  0
   48.7915   35.1536   39.6081 C   0  0  0  0  0  0  0  0  0  0  0  0
   48.2087   34.3916   38.6104 C   0  0  0  0  0  0  0  0  0  0  0  0
   47.2154   33.5318   38.9041 C   0  0  0  0  0  0  0  0  0  0  0  0
   46.9132   32.9176   44.6268 C   0  0  0  0  0  0  0  0  0  0  0  0
   45.9697   33.8271   45.1687 C   0  0  0  0  0  0  0  0  0  0  0  0
   45.5096   34.8516   44.3410 C   0  0  0  0  0  0  0  0  0  0  0  0
   45.9927   34.9178   43.0641 N   0  0  0  0  0  0  0  0  0  0  0  0
   46.8901   34.0378   42.5769 C   0  0  0  0  0  0  0  0  0  0  0  0
   47.3358   33.0560   43.3586 N   0  0  0  0  0  0  0  0  0  0  0  0
   44.5156   35.8716   44.7959 C   0  0  0  0  0  0  0  0  0  0  0  0
   44.9715   37.1314   44.5645 F   0  0  0  0  0  0  0  0  0  0  0  0
   43.3412   35.6757   44.0972 F   0  0  0  0  0  0  0  0  0  0  0  0
   44.3040   35.6457   46.1320 F   0  0  0  0  0  0  0  0  0  0  0  0
   46.5845   32.7167   37.8694 C   0  0  0  0  0  0  0  0  0  0  0  0
   45.5837   33.1892   37.0068 C   0  0  0  0  0  0  0  0  0  0  0  0
   45.2201   32.1542   36.1612 C   0  0  0  0  0  0  0  0  0  0  0  0
   46.0315   31.1038   36.5663 C   0  0  0  0  0  0  0  0  0  0  0  0
   46.8184   31.4535   37.5626 O   0  0  0  0  0  0  0  0  0  0  0  0
   48.8511   35.6659   41.6824 H   0  0  0  0  0  0  0  0  0  0  0  0
   49.5865   35.8453   39.3889 H   0  0  0  0  0  0  0  0  0  0  0  0
   48.5379   34.4723   37.5857 H   0  0  0  0  0  0  0  0  0  0  0  0
   47.2498   32.1329   45.2984 H   0  0  0  0  0  0  0  0  0  0  0  0
   45.5718   33.8029   46.1637 H   0  0  0  0  0  0  0  0  0  0  0  0
   45.1719   34.1910   37.0080 H   0  0  0  0  0  0  0  0  0  0  0  0
   44.4987   32.1398   35.3829 H   0  0  0  0  0  0  0  0  0  0  0  0
   46.0497   29.7530   35.9900 C   0  0  1  0  0  0  0  0  0  0  0  0
   44.8098   29.4533   35.1357 C   0  0  2  0  0  0  0  0  0  0  0  0
   44.6600   30.2345   34.3792 H   0  0  0  0  0  0  0  0  0  0  0  0
   45.3611   28.2155   34.4158 C   0  0  2  0  0  0  0  0  0  0  0  0
   44.7567   27.9382   33.5386 H   0  0  0  0  0  0  0  0  0  0  0  0
   46.6844   28.5004   34.1398 O   0  0  0  0  0  0  0  0  0  0  0  0
   47.1148   29.5223   34.9604 C   0  0  1  0  0  0  0  0  0  0  0  0
   47.1839   30.4340   34.3298 H   0  0  0  0  0  0  0  0  0  0  0  0
   46.0660   28.9512   36.7487 H   0  0  0  0  0  0  0  0  0  0  0  0
   43.9288   29.2062   35.7378 H   0  0  0  0  0  0  0  0  0  0  0  0
   45.3693   27.3403   35.1188 H   0  0  0  0  0  0  0  0  0  0  0  0
   48.1200   29.3495   35.3897 H   0  0  0  0  0  0  0  0  0  0  0  0
  2  1  1  0
  2  3  2  0
  3 12  1  0
  4  3  1  0
  5  4  2  0
  6  7  2  0
  6  5  1  0
  7  2  1  0
  8  9  2  0
 10 14  1  0
 10  9  1  0
 11 10  2  0
 12 11  1  0
 12 13  2  0
 13  8  1  0
 14 17  1  0
 15 14  1  0
 16 14  1  0
 18  7  1  0
 19 18  2  0
 20 21  2  0
 20 19  1  0
 21 22  1  0
 22 18  1  0
  4 23  1  0
  5 24  1  0
  6 25  1  0
  8 26  1  0
  9 27  1  0
 19 28  1  0
 20 29  1  0
 30 31  1  0
 31 32  1  6
 31 33  1  0
 33 34  1  6
 33 35  1  0
 35 36  1  0
 36 37  1  6
 36 30  1  0
 30 38  1  1
 31 39  1  0
 33 40  1  0
 36 41  1  0
 21 30  1  0
M  ISO  8  23  14  24  14  25  14  26  14  27  14  28  14  29  14  32  15
M  ISO  2  34  15  37  15
M  END
>  <DihAtoms>  (1) 
19,20,29,30

>  <DihDeg>  (1) 
118.77451623715896

$$$$
