
     RDKit          3D

 27 28  0  0  0  0  0  0  0  0999 V2000
   44.5808   35.9894   44.5201 C   0  0  0  0  0  0  0  0  0  0  0  0
   45.2230   35.9913   43.2566 C   0  0  0  0  0  0  0  0  0  0  0  0
   46.0984   34.9540   42.9613 C   0  0  0  0  0  0  0  0  0  0  0  0
   46.2929   33.9871   43.9063 N   0  0  0  0  0  0  0  0  0  0  0  0
   45.6741   34.0071   45.0939 C   0  0  0  0  0  0  0  0  0  0  0  0
   44.8146   35.0098   45.4054 N   0  0  0  0  0  0  0  0  0  0  0  0
   46.7162   34.9680   41.7290 O   0  0  0  0  0  0  0  0  0  0  0  0
   48.6455   33.3271   40.9703 O   0  0  0  0  0  0  0  0  0  0  0  0
   48.4078   34.6910   41.6279 P   0  0  0  0  0  0  0  0  0  0  0  0
   49.1270   35.9302   40.7859 O   0  0  0  0  0  0  0  0  0  0  0  0
   48.9947   34.5861   43.2244 O   0  0  0  0  0  0  0  0  0  0  0  0
   43.9194   36.8465   44.6425 H   0  0  0  0  0  0  0  0  0  0  0  0
   45.0569   36.7664   42.5189 H   0  0  0  0  0  0  0  0  0  0  0  0
   49.9476   36.2334   41.2738 H   0  0  0  0  0  0  0  0  0  0  0  0
   48.8797   33.6588   43.5117 H   0  0  0  0  0  0  0  0  0  0  0  0
   45.8825   32.9669   46.1121 C   0  0  1  0  0  0  0  0  0  0  0  0
   47.2388   33.1189   46.8138 C   0  0  1  0  0  0  0  0  0  0  0  0
   48.0204   32.7198   46.1339 H   0  0  0  0  0  0  0  0  0  0  0  0
   46.9526   32.1939   47.9803 C   0  0  2  0  0  0  0  0  0  0  0  0
   47.6375   32.3262   48.8286 H   0  0  0  0  0  0  0  0  0  0  0  0
   45.6104   32.3217   48.2826 O   0  0  0  0  0  0  0  0  0  0  0  0
   44.9834   33.0438   47.2993 C   0  0  1  0  0  0  0  0  0  0  0  0
   44.9157   34.1054   47.6741 H   0  0  0  0  0  0  0  0  0  0  0  0
   45.8608   31.9455   45.7077 H   0  0  0  0  0  0  0  0  0  0  0  0
   47.4157   34.1477   47.1658 H   0  0  0  0  0  0  0  0  0  0  0  0
   47.1022   31.1479   47.5823 H   0  0  0  0  0  0  0  0  0  0  0  0
   43.9336   32.6948   47.0967 H   0  0  0  0  0  0  0  0  0  0  0  0
  1  6  2  0
  2  1  1  0
  3  2  2  0
  3  4  1  0
  4  5  2  0
  5  6  1  0
  7  3  1  0
  8  9  2  0
  9  7  1  0
  9 11  1  0
 10  9  1  0
  1 12  1  0
  2 13  1  0
 10 14  1  0
 11 15  1  0
 16 17  1  0
 17 18  1  6
 17 19  1  0
 19 20  1  1
 19 21  1  0
 21 22  1  0
 22 23  1  1
 22 16  1  0
 16 24  1  6
 17 25  1  0
 19 26  1  0
 22 27  1  0
  5 16  1  0
M  ISO  7  12  14  13  14  14   3  15   3  18  15  20  15  23  15
M  END
>  <DihAtoms>  (1) 
3,4,15,16

>  <DihDeg>  (1) 
-59.916135288936154

$$$$
