
 OpenBabel03242521283D

 34 36  0  0  1  0  0  0  0  0999 V2000
   47.9510   33.4410   42.5500 C   0  0  1  0  0  0  0  0  0  0  0  0
   46.4920   33.7350   42.2920 C   0  0  2  0  0  0  0  0  0  0  0  0
   46.3220   34.6530   41.2760 O   0  0  0  0  0  0  0  0  0  0  0  0
   46.6740   34.0030   40.1040 C   0  0  0  0  0  0  0  0  0  0  0  0
   48.1730   33.8650   40.0790 C   0  0  2  0  0  0  0  0  0  0  0  0
   48.7630   33.2650   41.3160 C   0  0  2  0  0  0  0  0  0  0  0  0
   47.9550   32.4530   43.0980 H   0  0  0  0  0  0  0  0  0  0  0  0
   46.0110   32.7710   42.0060 H   0  0  0  0  0  0  0  0  0  0  0  0
   46.1570   33.0390   39.9440 H   0  0  0  0  0  0  0  0  0  0  0  0
   46.4220   34.6980   39.2600 H   0  0  0  0  0  0  0  0  0  0  0  0
   48.4670   33.2520   39.1980 H   0  0  0  0  0  0  0  0  0  0  0  0
   49.7330   33.8170   41.4920 H   0  0  0  0  0  0  0  0  0  0  0  0
   44.5000   35.8790   44.6990 C   0  0  0  0  0  0  0  0  0  0  0  0
   45.0880   35.4510   43.4990 C   0  0  0  0  0  0  0  0  0  0  0  0
   45.8350   34.2390   43.5170 C   0  0  0  0  0  0  0  0  0  0  0  0
   45.9450   33.5580   44.6830 N   0  0  0  0  0  0  0  0  0  0  0  0
   45.3560   34.0140   45.8260 C   0  0  0  0  0  0  0  0  0  0  0  0
   44.6360   35.1700   45.8350 N   0  0  0  0  0  0  0  0  0  0  0  0
   43.9240   36.7930   44.7270 H   0  0  0  0  0  0  0  0  0  0  0  0
   44.9850   36.0140   42.5770 H   0  0  0  0  0  0  0  0  0  0  0  0
   45.5140   33.3860   46.6930 H   0  0  0  0  0  0  0  0  0  0  0  0
   48.5170   34.3510   43.4500 O   0  0  0  0  0  0  0  0  0  0  0  0
   48.7820   33.9650   44.3020 H   0  0  0  0  0  0  0  0  0  0  0  0
   48.6760   35.1510   39.8310 O   0  0  0  0  0  0  0  0  0  0  0  0
   48.5290   35.4020   38.9000 H   0  0  0  0  0  0  0  0  0  0  0  0
   49.1620   31.9290   41.1360 O   0  0  0  0  0  0  0  0  0  0  0  0
   50.1580   31.5270   41.9910 C   0  0  2  0  0  3  0  0  0  0  0  0
   51.4070   32.3120   41.6760 C   0  0  0  0  0  3  0  0  0  0  0  0
   52.1260   32.1220   42.5100 H   0  0  0  0  0  0  0  0  0  0  0  0
   51.9250   31.5660   40.4750 C   0  0  0  0  0  3  0  0  0  0  0  0
   51.5670   32.0910   39.5600 H   0  0  0  0  0  0  0  0  0  0  0  0
   51.4310   30.2790   40.5000 O   0  0  0  0  0  0  0  0  0  0  0  0
   50.6430   30.1280   41.6300 C   0  0  0  0  0  3  0  0  0  0  0  0
   49.8180   29.4410   41.4000 H   0  0  0  0  0  0  0  0  0  0  0  0
  1  7  1  1  0  0  0
  1 22  1  0  0  0  0
  2  8  1  6  0  0  0
  2  1  1  0  0  0  0
  2 15  1  0  0  0  0
  3  2  1  0  0  0  0
  4  3  1  0  0  0  0
  5 11  1  6  0  0  0
  5  4  1  0  0  0  0
  5  6  1  0  0  0  0
  6 12  1  1  0  0  0
  6  1  1  0  0  0  0
  9  4  1  0  0  0  0
 10  4  1  0  0  0  0
 13 19  1  0  0  0  0
 13 18  1  0  0  0  0
 14 15  1  0  0  0  0
 14 13  2  0  0  0  0
 15 16  2  0  0  0  0
 16 17  1  0  0  0  0
 17 18  2  0  0  0  0
 17 21  1  0  0  0  0
 20 14  1  0  0  0  0
 22 23  1  0  0  0  0
 24  5  1  0  0  0  0
 25 24  1  0  0  0  0
 26  6  1  0  0  0  0
 27 26  1  6  0  0  0
 28 27  1  0  0  0  0
 28 29  1  0  0  0  0
 30 32  1  0  0  0  0
 30 28  1  0  0  0  0
 31 30  1  0  0  0  0
 32 33  1  0  0  0  0
 33 27  1  0  0  0  0
 34 33  1  0  0  0  0
M  END
>  <minimizedAffinity>
-5.24930143

>  <minimizedRMSD>
0.909332156

$$$$
