
 OpenBabel03252503573D

 19 20  0  0  1  0  0  0  0  0999 V2000
   46.1120   34.6270   43.5100 C   0  0  0  0  0  0  0  0  0  0  0  0
   45.2420   35.7110   43.6930 C   0  0  0  0  0  0  0  0  0  0  0  0
   44.5510   35.7580   44.9170 C   0  0  0  0  0  0  0  0  0  0  0  0
   44.7650   34.7700   45.8280 N   0  0  0  0  0  0  0  0  0  0  0  0
   45.6190   33.7540   45.5870 C   0  0  0  0  0  0  0  0  0  0  0  0
   46.2980   33.6750   44.4270 N   0  0  0  0  0  0  0  0  0  0  0  0
   45.0890   36.4800   42.9600 H   0  0  0  0  0  0  0  0  0  0  0  0
   43.8590   36.5550   45.1470 H   0  0  0  0  0  0  0  0  0  0  0  0
   45.8320   32.6980   46.5910 C   0  0  2  0  0  0  0  0  0  0  0  0
   45.0350   32.9770   47.8720 C   0  0  0  0  0  0  0  0  0  0  0  0
   43.9920   32.6060   47.7850 H   0  0  0  0  0  0  0  0  0  0  0  0
   45.8380   32.1100   48.8360 C   0  0  0  0  0  0  0  0  0  0  0  0
   45.6740   32.4340   49.8920 H   0  0  0  0  0  0  0  0  0  0  0  0
   47.1630   32.1890   48.4420 O   0  0  0  0  0  0  0  0  0  0  0  0
   47.2190   32.6080   47.1270 C   0  0  0  0  0  0  0  0  0  0  0  0
   47.6890   33.6350   47.1200 H   0  0  0  0  0  0  0  0  0  0  0  0
   46.7890   34.6340   42.2400 C   0  0  0  0  0  0  0  0  0  0  0  0
   47.7650   35.3640   41.9140 O   0  0  0  0  0  0  0  0  0  0  0  0
   46.2560   33.8810   41.6730 H   0  0  0  0  0  0  0  0  0  0  0  0
  1  2  2  0  0  0  0
  1  6  1  0  0  0  0
  2  3  1  0  0  0  0
  3  8  1  0  0  0  0
  3  4  2  0  0  0  0
  5  4  1  0  0  0  0
  6  5  2  0  0  0  0
  7  2  1  0  0  0  0
  9  5  1  6  0  0  0
  9 15  1  0  0  0  0
  9 10  1  0  0  0  0
 10 12  1  0  0  0  0
 11 10  1  0  0  0  0
 12 13  1  0  0  0  0
 14 12  1  0  0  0  0
 15 14  1  0  0  0  0
 16 15  1  0  0  0  0
 17  1  1  0  0  0  0
 18 17  2  0  0  0  0
 19 17  1  0  0  0  0
M  END
>  <minimizedAffinity>
-4.32711792

>  <minimizedRMSD>
0.686864972

$$$$
