
 OpenBabel03252507503D

 44 46  0  0  1  0  0  0  0  0999 V2000
   37.2630   31.1080   37.1620 C   0  0  0  0  0  0  0  0  0  0  0  0
   36.5080   31.8580   37.5190 H   0  0  0  0  0  0  0  0  0  0  0  0
   37.0260   30.9670   36.0880 H   0  0  0  0  0  0  0  0  0  0  0  0
   37.0550   29.7950   37.8200 C   0  0  0  0  0  0  0  0  0  0  0  0
   37.4020   28.6030   37.1440 C   0  0  0  0  0  0  0  0  0  0  0  0
   36.9690   27.2930   38.3330 S   0  0  0  0  0  0  0  0  0  0  0  0
   36.3670   28.6040   39.6020 C   0  0  0  0  0  0  0  0  0  0  0  0
   36.5660   29.5650   39.0090 N   0  0  0  0  0  0  0  0  0  0  0  0
   37.8220   28.4400   36.1650 H   0  0  0  0  0  0  0  0  0  0  0  0
   35.8570   28.2790   40.8520 O   0  0  0  0  0  0  0  0  0  0  0  0
   37.5640   29.5280   42.4480 O   0  0  0  0  0  0  0  0  0  0  0  0
   36.9510   28.1700   42.1360 P   0  0  1  0  0  0  0  0  0  0  0  0
   36.0700   27.6720   43.5160 O   0  0  0  0  0  0  0  0  0  0  0  0
   35.5530   28.4120   43.9050 H   0  0  0  0  0  0  0  0  0  0  0  0
   38.1310   26.9940   41.8110 O   0  0  0  0  0  0  0  0  0  0  0  0
   37.8420   25.7870   42.4130 C   0  0  1  0  0  3  0  0  0  0  0  0
   37.0270   24.9820   41.4200 C   0  0  0  0  0  3  0  0  0  0  0  0
   36.0180   24.8530   41.8510 H   0  0  0  0  0  0  0  0  0  0  0  0
   37.8090   23.6780   41.3700 C   0  0  0  0  0  3  0  0  0  0  0  0
   37.5610   23.1230   42.3080 H   0  0  0  0  0  0  0  0  0  0  0  0
   39.1190   24.1180   41.4200 O   0  0  0  0  0  0  0  0  0  0  0  0
   39.1270   24.9920   42.5060 C   0  0  0  0  0  3  0  0  0  0  0  0
   40.0370   25.6240   42.4190 H   0  0  0  0  0  0  0  0  0  0  0  0
   38.6630   31.6320   37.2940 C   0  0  0  0  0  0  0  0  0  0  0  0
   38.8490   32.5300   36.6650 H   0  0  0  0  0  0  0  0  0  0  0  0
   39.3210   30.8430   36.8620 H   0  0  0  0  0  0  0  0  0  0  0  0
   39.0450   31.9660   38.6730 C   0  0  0  0  0  0  0  0  0  0  0  0
   40.3250   31.6270   39.0660 C   0  0  0  0  0  0  0  0  0  0  0  0
   40.7670   31.9060   40.3450 C   0  0  0  0  0  0  0  0  0  0  0  0
   39.8820   32.5290   41.2000 N   0  0  0  0  0  0  0  0  0  0  0  0
   38.6280   32.8450   40.7690 C   0  0  0  0  0  0  0  0  0  0  0  0
   38.2370   32.5640   39.5380 N   0  0  0  0  0  0  0  0  0  0  0  0
   41.7720   31.6520   40.6890 H   0  0  0  0  0  0  0  0  0  0  0  0
   37.9170   33.3350   41.4240 H   0  0  0  0  0  0  0  0  0  0  0  0
   41.4310   30.8170   37.9070 S   0  0  0  0  0  0  0  0  0  0  0  0
   42.5140   32.0310   37.1280 C   0  0  0  0  0  0  0  0  0  0  0  0
   43.5290   31.9540   37.5360 H   0  0  0  0  0  0  0  0  0  0  0  0
   42.5310   31.8800   36.0390 H   0  0  0  0  0  0  0  0  0  0  0  0
   42.0160   33.4160   37.4590 C   0  0  0  0  0  0  0  0  0  0  0  0
   42.1800   33.6700   38.5440 H   0  0  0  0  0  0  0  0  0  0  0  0
   40.9310   33.5000   37.2880 H   0  0  0  0  0  0  0  0  0  0  0  0
   42.7600   34.3690   36.6870 N   0  0  0  0  0  0  0  0  0  0  0  0
   42.9270   33.9860   35.7370 H   0  0  0  0  0  0  0  0  0  0  0  0
   42.1520   35.2180   36.5730 H   0  0  0  0  0  0  0  0  0  0  0  0
  1 24  1  0  0  0  0
  1  2  1  0  0  0  0
  1  4  1  0  0  0  0
  3  1  1  0  0  0  0
  4  8  1  0  0  0  0
  5  4  2  0  0  0  0
  5  6  1  0  0  0  0
  6  7  1  0  0  0  0
  7 10  1  0  0  0  0
  8  7  2  0  0  0  0
  9  5  1  0  0  0  0
 10 12  1  0  0  0  0
 12 11  2  1  0  0  0
 12 13  1  0  0  0  0
 13 14  1  0  0  0  0
 15 12  1  0  0  0  0
 16 15  1  6  0  0  0
 16 22  1  0  0  0  0
 17 18  1  0  0  0  0
 17 16  1  0  0  0  0
 19 21  1  0  0  0  0
 19 17  1  0  0  0  0
 19 20  1  0  0  0  0
 21 22  1  0  0  0  0
 23 22  1  0  0  0  0
 24 27  1  0  0  0  0
 25 24  1  0  0  0  0
 26 24  1  0  0  0  0
 27 28  2  0  0  0  0
 27 32  1  0  0  0  0
 28 29  1  0  0  0  0
 29 33  1  0  0  0  0
 29 30  2  0  0  0  0
 31 30  1  0  0  0  0
 31 34  1  0  0  0  0
 32 31  2  0  0  0  0
 35 28  1  0  0  0  0
 36 39  1  0  0  0  0
 36 37  1  0  0  0  0
 36 35  1  0  0  0  0
 38 36  1  0  0  0  0
 39 40  1  0  0  0  0
 41 39  1  0  0  0  0
 42 39  1  0  0  0  0
 43 42  1  0  0  0  0
 44 42  1  0  0  0  0
M  END
>  <minimizedAffinity>
-5.18669128

$$$$

 OpenBabel03252507503D

 44 46  0  0  1  0  0  0  0  0999 V2000
   36.8450   28.4550   42.3540 C   0  0  0  0  0  0  0  0  0  0  0  0
   36.1880   28.0750   41.5260 H   0  0  0  0  0  0  0  0  0  0  0  0
   36.1450   28.9530   43.0540 H   0  0  0  0  0  0  0  0  0  0  0  0
   37.7680   29.5030   41.8570 C   0  0  0  0  0  0  0  0  0  0  0  0
   38.9250   29.8340   42.5970 C   0  0  0  0  0  0  0  0  0  0  0  0
   39.7130   31.1410   41.6020 S   0  0  0  0  0  0  0  0  0  0  0  0
   38.3090   31.0330   40.2950 C   0  0  0  0  0  0  0  0  0  0  0  0
   37.6600   30.2110   40.7640 N   0  0  0  0  0  0  0  0  0  0  0  0
   39.3060   29.4480   43.5290 H   0  0  0  0  0  0  0  0  0  0  0  0
   38.2650   31.8240   39.1550 O   0  0  0  0  0  0  0  0  0  0  0  0
   39.9770   30.2430   37.8920 O   0  0  0  0  0  0  0  0  0  0  0  0
   39.5520   31.6950   38.0660 P   0  0  1  0  0  0  0  0  0  0  0  0
   38.9950   32.2550   36.5490 O   0  0  0  0  0  0  0  0  0  0  0  0
   38.4330   31.5870   36.0970 H   0  0  0  0  0  0  0  0  0  0  0  0
   40.8410   32.6840   38.5530 O   0  0  0  0  0  0  0  0  0  0  0  0
   41.8870   32.6560   37.6540 C   0  0  1  0  0  3  0  0  0  0  0  0
   42.3990   34.0760   37.5260 C   0  0  0  0  0  3  0  0  0  0  0  0
   42.1950   34.4060   36.4910 H   0  0  0  0  0  0  0  0  0  0  0  0
   43.8860   33.8890   37.7930 C   0  0  0  0  0  3  0  0  0  0  0  0
   44.3220   33.4500   36.8640 H   0  0  0  0  0  0  0  0  0  0  0  0
   43.8860   32.9450   38.8040 O   0  0  0  0  0  0  0  0  0  0  0  0
   43.0500   31.9440   38.3130 C   0  0  0  0  0  3  0  0  0  0  0  0
   42.7430   31.3130   39.1750 H   0  0  0  0  0  0  0  0  0  0  0  0
   37.5380   27.3300   43.0650 C   0  0  0  0  0  0  0  0  0  0  0  0
   36.9420   26.9210   43.9100 H   0  0  0  0  0  0  0  0  0  0  0  0
   38.4340   27.7860   43.5450 H   0  0  0  0  0  0  0  0  0  0  0  0
   37.9000   26.2070   42.1900 C   0  0  0  0  0  0  0  0  0  0  0  0
   39.0970   25.5700   42.4530 C   0  0  0  0  0  0  0  0  0  0  0  0
   39.5130   24.5040   41.6800 C   0  0  0  0  0  0  0  0  0  0  0  0
   38.6900   24.1100   40.6460 N   0  0  0  0  0  0  0  0  0  0  0  0
   37.5170   24.7680   40.4220 C   0  0  0  0  0  0  0  0  0  0  0  0
   37.1480   25.7850   41.1820 N   0  0  0  0  0  0  0  0  0  0  0  0
   40.4530   23.9770   41.8600 H   0  0  0  0  0  0  0  0  0  0  0  0
   36.8550   24.4760   39.6160 H   0  0  0  0  0  0  0  0  0  0  0  0
   40.1250   26.1280   43.8140 S   0  0  0  0  0  0  0  0  0  0  0  0
   41.6480   26.8600   43.1830 C   0  0  0  0  0  0  0  0  0  0  0  0
   41.7440   26.6730   42.1070 H   0  0  0  0  0  0  0  0  0  0  0  0
   41.6610   27.9410   43.3830 H   0  0  0  0  0  0  0  0  0  0  0  0
   42.8260   26.1900   43.8480 C   0  0  0  0  0  0  0  0  0  0  0  0
   42.7280   26.1910   44.9700 H   0  0  0  0  0  0  0  0  0  0  0  0
   43.7640   26.7230   43.6250 H   0  0  0  0  0  0  0  0  0  0  0  0
   42.8710   24.8190   43.4300 N   0  0  0  0  0  0  0  0  0  0  0  0
   42.6130   24.7570   42.4260 H   0  0  0  0  0  0  0  0  0  0  0  0
   43.8700   24.5030   43.5100 H   0  0  0  0  0  0  0  0  0  0  0  0
  1  3  1  0  0  0  0
  1 24  1  0  0  0  0
  2  1  1  0  0  0  0
  4  1  1  0  0  0  0
  4  5  2  0  0  0  0
  5  9  1  0  0  0  0
  6  5  1  0  0  0  0
  7  8  2  0  0  0  0
  7  6  1  0  0  0  0
  8  4  1  0  0  0  0
 10  7  1  0  0  0  0
 12 11  2  6  0  0  0
 12 15  1  0  0  0  0
 12 10  1  0  0  0  0
 13 12  1  0  0  0  0
 14 13  1  0  0  0  0
 16 22  1  0  0  0  0
 16 15  1  1  0  0  0
 17 16  1  0  0  0  0
 17 19  1  0  0  0  0
 18 17  1  0  0  0  0
 19 21  1  0  0  0  0
 20 19  1  0  0  0  0
 22 21  1  0  0  0  0
 22 23  1  0  0  0  0
 24 26  1  0  0  0  0
 24 25  1  0  0  0  0
 27 28  1  0  0  0  0
 27 24  1  0  0  0  0
 28 35  1  0  0  0  0
 29 33  1  0  0  0  0
 29 28  2  0  0  0  0
 30 29  1  0  0  0  0
 31 30  2  0  0  0  0
 31 32  1  0  0  0  0
 32 27  2  0  0  0  0
 34 31  1  0  0  0  0
 36 38  1  0  0  0  0
 36 35  1  0  0  0  0
 36 39  1  0  0  0  0
 37 36  1  0  0  0  0
 39 40  1  0  0  0  0
 41 39  1  0  0  0  0
 42 44  1  0  0  0  0
 42 39  1  0  0  0  0
 43 42  1  0  0  0  0
M  END
>  <minimizedAffinity>
-5.17210245

$$$$

 OpenBabel03252507503D

 44 46  0  0  1  0  0  0  0  0999 V2000
   39.5450   29.6270   42.9280 C   0  0  0  0  0  0  0  0  0  0  0  0
   40.4920   29.1760   43.3280 H   0  0  0  0  0  0  0  0  0  0  0  0
   39.0950   30.1420   43.8020 H   0  0  0  0  0  0  0  0  0  0  0  0
   38.5890   28.5700   42.5180 C   0  0  0  0  0  0  0  0  0  0  0  0
   38.5670   27.3330   43.2020 C   0  0  0  0  0  0  0  0  0  0  0  0
   37.2580   26.3950   42.3500 S   0  0  0  0  0  0  0  0  0  0  0  0
   36.9340   27.8700   41.1620 C   0  0  0  0  0  0  0  0  0  0  0  0
   37.7080   28.6190   41.5550 N   0  0  0  0  0  0  0  0  0  0  0  0
   39.1520   26.9700   44.0310 H   0  0  0  0  0  0  0  0  0  0  0  0
   35.9750   27.8440   40.1580 O   0  0  0  0  0  0  0  0  0  0  0  0
   33.6780   29.0790   39.6850 O   0  0  0  0  0  0  0  0  0  0  0  0
   35.1820   29.2930   39.8000 P   0  0  1  0  0  0  0  0  0  0  0  0
   35.4520   30.3610   41.1090 O   0  0  0  0  0  0  0  0  0  0  0  0
   34.8860   30.1410   41.8820 H   0  0  0  0  0  0  0  0  0  0  0  0
   35.8360   29.9970   38.4010 O   0  0  0  0  0  0  0  0  0  0  0  0
   36.1370   29.0560   37.4370 C   0  0  1  0  0  3  0  0  0  0  0  0
   34.9510   28.9930   36.4960 C   0  0  0  0  0  3  0  0  0  0  0  0
   34.5010   27.9890   36.6020 H   0  0  0  0  0  0  0  0  0  0  0  0
   35.6240   29.1890   35.1450 C   0  0  0  0  0  3  0  0  0  0  0  0
   36.1150   28.2180   34.8920 H   0  0  0  0  0  0  0  0  0  0  0  0
   36.5860   30.1410   35.4320 O   0  0  0  0  0  0  0  0  0  0  0  0
   37.2290   29.6240   36.5560 C   0  0  0  0  0  3  0  0  0  0  0  0
   37.7850   30.4590   37.0350 H   0  0  0  0  0  0  0  0  0  0  0  0
   39.8270   30.6340   41.8530 C   0  0  0  0  0  0  0  0  0  0  0  0
   39.0120   31.3830   41.7380 H   0  0  0  0  0  0  0  0  0  0  0  0
   39.8220   30.0620   40.8970 H   0  0  0  0  0  0  0  0  0  0  0  0
   41.0840   31.3700   42.0420 C   0  0  0  0  0  0  0  0  0  0  0  0
   41.3370   32.4110   41.1700 C   0  0  0  0  0  0  0  0  0  0  0  0
   42.4950   33.1560   41.2770 C   0  0  0  0  0  0  0  0  0  0  0  0
   43.3770   32.8160   42.2810 N   0  0  0  0  0  0  0  0  0  0  0  0
   43.0880   31.7800   43.1200 C   0  0  0  0  0  0  0  0  0  0  0  0
   41.9690   31.0880   42.9890 N   0  0  0  0  0  0  0  0  0  0  0  0
   42.7270   33.9850   40.6060 H   0  0  0  0  0  0  0  0  0  0  0  0
   43.7660   31.4960   43.9160 H   0  0  0  0  0  0  0  0  0  0  0  0
   40.1500   32.8050   39.8830 S   0  0  0  0  0  0  0  0  0  0  0  0
   38.9490   34.0070   40.4890 C   0  0  0  0  0  0  0  0  0  0  0  0
   38.7080   33.8070   41.5410 H   0  0  0  0  0  0  0  0  0  0  0  0
   39.3440   35.0270   40.3780 H   0  0  0  0  0  0  0  0  0  0  0  0
   37.6650   33.8520   39.7120 C   0  0  0  0  0  0  0  0  0  0  0  0
   37.8560   33.5160   38.6540 H   0  0  0  0  0  0  0  0  0  0  0  0
   37.1310   34.8120   39.6330 H   0  0  0  0  0  0  0  0  0  0  0  0
   36.8670   32.8390   40.3380 N   0  0  0  0  0  0  0  0  0  0  0  0
   36.9560   32.9190   41.3700 H   0  0  0  0  0  0  0  0  0  0  0  0
   35.8650   33.0430   40.1010 H   0  0  0  0  0  0  0  0  0  0  0  0
  1  2  1  0  0  0  0
  1  3  1  0  0  0  0
  4  1  1  0  0  0  0
  4  5  2  0  0  0  0
  5  9  1  0  0  0  0
  6  5  1  0  0  0  0
  7  8  2  0  0  0  0
  7  6  1  0  0  0  0
  8  4  1  0  0  0  0
 10  7  1  0  0  0  0
 12 11  2  6  0  0  0
 12 10  1  0  0  0  0
 12 13  1  0  0  0  0
 13 14  1  0  0  0  0
 15 12  1  0  0  0  0
 16 15  1  1  0  0  0
 17 18  1  0  0  0  0
 17 16  1  0  0  0  0
 19 21  1  0  0  0  0
 19 17  1  0  0  0  0
 20 19  1  0  0  0  0
 21 22  1  0  0  0  0
 22 23  1  0  0  0  0
 22 16  1  0  0  0  0
 24 27  1  0  0  0  0
 24  1  1  0  0  0  0
 25 24  1  0  0  0  0
 26 24  1  0  0  0  0
 27 32  1  0  0  0  0
 28 29  1  0  0  0  0
 28 27  2  0  0  0  0
 29 30  2  0  0  0  0
 30 31  1  0  0  0  0
 31 34  1  0  0  0  0
 32 31  2  0  0  0  0
 33 29  1  0  0  0  0
 35 36  1  0  0  0  0
 35 28  1  0  0  0  0
 36 37  1  0  0  0  0
 38 36  1  0  0  0  0
 39 42  1  0  0  0  0
 39 36  1  0  0  0  0
 40 39  1  0  0  0  0
 41 39  1  0  0  0  0
 42 43  1  0  0  0  0
 44 42  1  0  0  0  0
M  END
>  <minimizedAffinity>
-5.08485699

$$$$

 OpenBabel03252507503D

 44 46  0  0  1  0  0  0  0  0999 V2000
   35.7850   29.1580   41.1500 C   0  0  0  0  0  0  0  0  0  0  0  0
   34.8710   29.3330   41.7770 H   0  0  0  0  0  0  0  0  0  0  0  0
   35.4210   28.5550   40.2930 H   0  0  0  0  0  0  0  0  0  0  0  0
   36.7690   28.3170   41.8740 C   0  0  0  0  0  0  0  0  0  0  0  0
   37.7170   28.9190   42.7320 C   0  0  0  0  0  0  0  0  0  0  0  0
   38.6760   27.5070   43.3700 S   0  0  0  0  0  0  0  0  0  0  0  0
   37.6110   26.2820   42.3430 C   0  0  0  0  0  0  0  0  0  0  0  0
   36.8950   27.0180   41.8310 N   0  0  0  0  0  0  0  0  0  0  0  0
   37.8850   29.9520   42.9900 H   0  0  0  0  0  0  0  0  0  0  0  0
   37.8090   24.9080   42.3510 O   0  0  0  0  0  0  0  0  0  0  0  0
   38.9480   24.5720   39.9810 O   0  0  0  0  0  0  0  0  0  0  0  0
   37.7940   24.1100   40.8610 P   0  0  1  0  0  0  0  0  0  0  0  0
   38.0170   22.4430   41.1720 O   0  0  0  0  0  0  0  0  0  0  0  0
   38.9560   22.2320   41.3730 H   0  0  0  0  0  0  0  0  0  0  0  0
   36.2910   24.3080   40.0980 O   0  0  0  0  0  0  0  0  0  0  0  0
   36.4090   24.3730   38.7250 C   0  0  1  0  0  3  0  0  0  0  0  0
   35.1570   23.7480   38.1430 C   0  0  0  0  0  3  0  0  0  0  0  0
   35.4660   22.8290   37.6110 H   0  0  0  0  0  0  0  0  0  0  0  0
   34.6850   24.8390   37.1930 C   0  0  0  0  0  3  0  0  0  0  0  0
   35.3510   24.7900   36.2980 H   0  0  0  0  0  0  0  0  0  0  0  0
   34.9500   25.9900   37.9130 O   0  0  0  0  0  0  0  0  0  0  0  0
   36.2750   25.8240   38.3140 C   0  0  0  0  0  3  0  0  0  0  0  0
   36.4620   26.5330   39.1490 H   0  0  0  0  0  0  0  0  0  0  0  0
   36.3560   30.4480   40.6390 C   0  0  0  0  0  0  0  0  0  0  0  0
   37.2900   30.7450   41.1650 H   0  0  0  0  0  0  0  0  0  0  0  0
   35.6150   31.2330   40.9130 H   0  0  0  0  0  0  0  0  0  0  0  0
   36.6390   30.4430   39.1970 C   0  0  0  0  0  0  0  0  0  0  0  0
   37.2930   31.5470   38.6850 C   0  0  0  0  0  0  0  0  0  0  0  0
   37.5990   31.6230   37.3400 C   0  0  0  0  0  0  0  0  0  0  0  0
   37.2260   30.5610   36.5430 N   0  0  0  0  0  0  0  0  0  0  0  0
   36.5820   29.4920   37.0910 C   0  0  0  0  0  0  0  0  0  0  0  0
   36.3050   29.4500   38.3830 N   0  0  0  0  0  0  0  0  0  0  0  0
   38.1140   32.4800   36.9020 H   0  0  0  0  0  0  0  0  0  0  0  0
   36.2810   28.6470   36.4840 H   0  0  0  0  0  0  0  0  0  0  0  0
   37.7520   32.8970   39.7730 S   0  0  0  0  0  0  0  0  0  0  0  0
   39.4640   33.3830   39.4760 C   0  0  0  0  0  0  0  0  0  0  0  0
   40.1310   32.5200   39.5960 H   0  0  0  0  0  0  0  0  0  0  0  0
   39.5680   33.8050   38.4650 H   0  0  0  0  0  0  0  0  0  0  0  0
   39.8730   34.3980   40.5140 C   0  0  0  0  0  0  0  0  0  0  0  0
   40.0430   35.4140   40.0580 H   0  0  0  0  0  0  0  0  0  0  0  0
   40.8260   34.1170   40.9900 H   0  0  0  0  0  0  0  0  0  0  0  0
   38.8120   34.5360   41.4670 N   0  0  0  0  0  0  0  0  0  0  0  0
   38.3900   33.6050   41.6500 H   0  0  0  0  0  0  0  0  0  0  0  0
   39.2430   34.8590   42.3680 H   0  0  0  0  0  0  0  0  0  0  0  0
  1  2  1  0  0  0  0
  1  4  1  0  0  0  0
  3  1  1  0  0  0  0
  4  5  2  0  0  0  0
  5  9  1  0  0  0  0
  5  6  1  0  0  0  0
  7 10  1  0  0  0  0
  7  6  1  0  0  0  0
  8  4  1  0  0  0  0
  8  7  2  0  0  0  0
 12 11  2  6  0  0  0
 12 13  1  0  0  0  0
 12 10  1  0  0  0  0
 13 14  1  0  0  0  0
 15 12  1  0  0  0  0
 16 15  1  1  0  0  0
 17 16  1  0  0  0  0
 18 17  1  0  0  0  0
 19 21  1  0  0  0  0
 19 17  1  0  0  0  0
 20 19  1  0  0  0  0
 21 22  1  0  0  0  0
 22 16  1  0  0  0  0
 22 23  1  0  0  0  0
 24 26  1  0  0  0  0
 24  1  1  0  0  0  0
 24 25  1  0  0  0  0
 27 24  1  0  0  0  0
 28 27  1  0  0  0  0
 28 35  1  0  0  0  0
 29 28  2  0  0  0  0
 30 31  2  0  0  0  0
 30 29  1  0  0  0  0
 31 32  1  0  0  0  0
 32 27  2  0  0  0  0
 33 29  1  0  0  0  0
 34 31  1  0  0  0  0
 36 37  1  0  0  0  0
 36 35  1  0  0  0  0
 36 39  1  0  0  0  0
 38 36  1  0  0  0  0
 39 41  1  0  0  0  0
 39 42  1  0  0  0  0
 40 39  1  0  0  0  0
 42 43  1  0  0  0  0
 42 44  1  0  0  0  0
M  END
>  <minimizedAffinity>
-4.99632549

$$$$

 OpenBabel03252507503D

 44 46  0  0  1  0  0  0  0  0999 V2000
   38.0360   29.0970   43.0970 C   0  0  0  0  0  0  0  0  0  0  0  0
   37.6840   29.7910   43.9060 H   0  0  0  0  0  0  0  0  0  0  0  0
   39.1320   29.2610   43.0510 H   0  0  0  0  0  0  0  0  0  0  0  0
   37.4910   29.5020   41.7790 C   0  0  0  0  0  0  0  0  0  0  0  0
   36.3520   28.8490   41.2540 C   0  0  0  0  0  0  0  0  0  0  0  0
   36.0770   29.6810   39.6570 S   0  0  0  0  0  0  0  0  0  0  0  0
   37.5940   30.8220   39.9570 C   0  0  0  0  0  0  0  0  0  0  0  0
   37.9370   30.4350   40.9810 N   0  0  0  0  0  0  0  0  0  0  0  0
   35.7490   28.0480   41.6490 H   0  0  0  0  0  0  0  0  0  0  0  0
   38.0080   31.7940   39.0560 O   0  0  0  0  0  0  0  0  0  0  0  0
   39.3700   29.9490   37.7280 O   0  0  0  0  0  0  0  0  0  0  0  0
   39.3330   31.4310   38.0720 P   0  0  1  0  0  0  0  0  0  0  0  0
   39.1350   32.2960   36.6090 O   0  0  0  0  0  0  0  0  0  0  0  0
   38.4730   31.8700   36.0210 H   0  0  0  0  0  0  0  0  0  0  0  0
   40.7740   31.9530   38.8020 O   0  0  0  0  0  0  0  0  0  0  0  0
   40.6620   33.2260   39.3220 C   0  0  1  0  0  3  0  0  0  0  0  0
   41.2910   33.1990   40.7000 C   0  0  0  0  0  3  0  0  0  0  0  0
   40.4860   33.3830   41.4330 H   0  0  0  0  0  0  0  0  0  0  0  0
   42.2730   34.3580   40.6100 C   0  0  0  0  0  3  0  0  0  0  0  0
   41.6680   35.2930   40.7010 H   0  0  0  0  0  0  0  0  0  0  0  0
   42.7550   34.2350   39.3200 O   0  0  0  0  0  0  0  0  0  0  0  0
   41.5980   34.1300   38.5490 C   0  0  0  0  0  3  0  0  0  0  0  0
   41.8920   33.7120   37.5620 H   0  0  0  0  0  0  0  0  0  0  0  0
   37.7650   27.6630   43.4450 C   0  0  0  0  0  0  0  0  0  0  0  0
   36.9670   27.2100   42.8170 H   0  0  0  0  0  0  0  0  0  0  0  0
   37.3390   27.6800   44.4750 H   0  0  0  0  0  0  0  0  0  0  0  0
   38.9480   26.7960   43.3580 C   0  0  0  0  0  0  0  0  0  0  0  0
   38.7910   25.5890   42.7060 C   0  0  0  0  0  0  0  0  0  0  0  0
   39.8520   24.7140   42.5780 C   0  0  0  0  0  0  0  0  0  0  0  0
   41.0600   25.0960   43.1240 N   0  0  0  0  0  0  0  0  0  0  0  0
   41.1690   26.2980   43.7590 C   0  0  0  0  0  0  0  0  0  0  0  0
   40.1330   27.1120   43.8640 N   0  0  0  0  0  0  0  0  0  0  0  0
   39.7640   23.7520   42.0690 H   0  0  0  0  0  0  0  0  0  0  0  0
   42.1080   26.6180   44.1950 H   0  0  0  0  0  0  0  0  0  0  0  0
   37.1950   25.1470   42.0160 S   0  0  0  0  0  0  0  0  0  0  0  0
   37.2580   25.2030   40.2140 C   0  0  0  0  0  0  0  0  0  0  0  0
   36.3390   25.6480   39.8140 H   0  0  0  0  0  0  0  0  0  0  0  0
   38.1340   25.7800   39.8830 H   0  0  0  0  0  0  0  0  0  0  0  0
   37.3260   23.7930   39.6820 C   0  0  0  0  0  0  0  0  0  0  0  0
   36.7010   23.6670   38.7530 H   0  0  0  0  0  0  0  0  0  0  0  0
   36.9290   23.0720   40.4140 H   0  0  0  0  0  0  0  0  0  0  0  0
   38.6820   23.5030   39.3180 N   0  0  0  0  0  0  0  0  0  0  0  0
   39.3240   23.9290   40.0150 H   0  0  0  0  0  0  0  0  0  0  0  0
   38.8060   22.4620   39.3850 H   0  0  0  0  0  0  0  0  0  0  0  0
  1 24  1  0  0  0  0
  1  2  1  0  0  0  0
  3  1  1  0  0  0  0
  4  1  1  0  0  0  0
  5  9  1  0  0  0  0
  5  4  2  0  0  0  0
  6  7  1  0  0  0  0
  6  5  1  0  0  0  0
  7  8  2  0  0  0  0
  8  4  1  0  0  0  0
 10  7  1  0  0  0  0
 12 11  2  6  0  0  0
 12 15  1  0  0  0  0
 12 10  1  0  0  0  0
 13 12  1  0  0  0  0
 14 13  1  0  0  0  0
 16 15  1  6  0  0  0
 16 17  1  0  0  0  0
 17 18  1  0  0  0  0
 19 17  1  0  0  0  0
 19 20  1  0  0  0  0
 21 19  1  0  0  0  0
 22 21  1  0  0  0  0
 22 16  1  0  0  0  0
 23 22  1  0  0  0  0
 24 26  1  0  0  0  0
 25 24  1  0  0  0  0
 27 24  1  0  0  0  0
 27 32  1  0  0  0  0
 28 27  2  0  0  0  0
 29 28  1  0  0  0  0
 29 30  2  0  0  0  0
 30 31  1  0  0  0  0
 31 32  2  0  0  0  0
 31 34  1  0  0  0  0
 33 29  1  0  0  0  0
 35 28  1  0  0  0  0
 36 35  1  0  0  0  0
 37 36  1  0  0  0  0
 38 36  1  0  0  0  0
 39 36  1  0  0  0  0
 39 41  1  0  0  0  0
 40 39  1  0  0  0  0
 42 44  1  0  0  0  0
 42 39  1  0  0  0  0
 42 43  1  0  0  0  0
M  END
>  <minimizedAffinity>
-4.98855352

$$$$

 OpenBabel03252507503D

 44 46  0  0  1  0  0  0  0  0999 V2000
   37.1110   32.8810   39.5450 C   0  0  0  0  0  0  0  0  0  0  0  0
   36.8000   33.0760   38.4840 H   0  0  0  0  0  0  0  0  0  0  0  0
   36.5130   33.5990   40.1430 H   0  0  0  0  0  0  0  0  0  0  0  0
   38.5350   33.2380   39.7520 C   0  0  0  0  0  0  0  0  0  0  0  0
   38.8820   34.5320   40.2020 C   0  0  0  0  0  0  0  0  0  0  0  0
   40.7000   34.4820   40.2980 S   0  0  0  0  0  0  0  0  0  0  0  0
   40.7100   32.6580   39.6950 C   0  0  0  0  0  0  0  0  0  0  0  0
   39.5840   32.4820   39.5660 N   0  0  0  0  0  0  0  0  0  0  0  0
   38.2700   35.3860   40.4460 H   0  0  0  0  0  0  0  0  0  0  0  0
   41.8720   31.9180   39.5220 O   0  0  0  0  0  0  0  0  0  0  0  0
   41.2210   29.5490   38.5260 O   0  0  0  0  0  0  0  0  0  0  0  0
   41.9320   30.8570   38.2070 P   0  0  1  0  0  0  0  0  0  0  0  0
   41.0930   31.5990   36.9140 O   0  0  0  0  0  0  0  0  0  0  0  0
   40.1190   31.5380   37.0290 H   0  0  0  0  0  0  0  0  0  0  0  0
   43.5390   30.6090   37.7200 O   0  0  0  0  0  0  0  0  0  0  0  0
   43.8190   31.2250   36.5170 C   0  0  1  0  0  3  0  0  0  0  0  0
   45.2390   31.7450   36.6070 C   0  0  0  0  0  3  0  0  0  0  0  0
   45.1870   32.8490   36.5720 H   0  0  0  0  0  0  0  0  0  0  0  0
   45.8610   31.1520   35.3510 C   0  0  0  0  0  3  0  0  0  0  0  0
   45.4920   31.7660   34.4940 H   0  0  0  0  0  0  0  0  0  0  0  0
   45.2900   29.8940   35.3060 O   0  0  0  0  0  0  0  0  0  0  0  0
   43.9280   30.1500   35.4570 C   0  0  0  0  0  3  0  0  0  0  0  0
   43.4390   29.1960   35.7510 H   0  0  0  0  0  0  0  0  0  0  0  0
   36.7730   31.4820   39.9700 C   0  0  0  0  0  0  0  0  0  0  0  0
   35.8210   31.4230   40.5420 H   0  0  0  0  0  0  0  0  0  0  0  0
   37.5620   31.1920   40.7010 H   0  0  0  0  0  0  0  0  0  0  0  0
   36.6830   30.5290   38.8560 C   0  0  0  0  0  0  0  0  0  0  0  0
   36.2220   29.2610   39.1540 C   0  0  0  0  0  0  0  0  0  0  0  0
   36.1050   28.3030   38.1660 C   0  0  0  0  0  0  0  0  0  0  0  0
   36.4680   28.6640   36.8850 N   0  0  0  0  0  0  0  0  0  0  0  0
   36.9180   29.9270   36.6360 C   0  0  0  0  0  0  0  0  0  0  0  0
   37.0170   30.8210   37.6060 N   0  0  0  0  0  0  0  0  0  0  0  0
   35.7440   27.2920   38.3660 H   0  0  0  0  0  0  0  0  0  0  0  0
   37.2080   30.2330   35.6380 H   0  0  0  0  0  0  0  0  0  0  0  0
   35.7660   28.8510   40.8400 S   0  0  0  0  0  0  0  0  0  0  0  0
   37.1150   27.9720   41.6530 C   0  0  0  0  0  0  0  0  0  0  0  0
   37.2810   27.0000   41.1740 H   0  0  0  0  0  0  0  0  0  0  0  0
   38.0350   28.5740   41.6190 H   0  0  0  0  0  0  0  0  0  0  0  0
   36.7260   27.6910   43.0840 C   0  0  0  0  0  0  0  0  0  0  0  0
   37.3490   26.8660   43.5310 H   0  0  0  0  0  0  0  0  0  0  0  0
   35.6800   27.3500   43.1510 H   0  0  0  0  0  0  0  0  0  0  0  0
   36.9620   28.8680   43.8660 N   0  0  0  0  0  0  0  0  0  0  0  0
   36.7030   29.7070   43.3120 H   0  0  0  0  0  0  0  0  0  0  0  0
   36.3100   28.8320   44.6880 H   0  0  0  0  0  0  0  0  0  0  0  0
  1  4  1  0  0  0  0
  1 24  1  0  0  0  0
  1  3  1  0  0  0  0
  2  1  1  0  0  0  0
  4  5  2  0  0  0  0
  5  6  1  0  0  0  0
  5  9  1  0  0  0  0
  7  6  1  0  0  0  0
  8  7  2  0  0  0  0
  8  4  1  0  0  0  0
 10  7  1  0  0  0  0
 12 11  2  1  0  0  0
 12 10  1  0  0  0  0
 13 14  1  0  0  0  0
 13 12  1  0  0  0  0
 15 12  1  0  0  0  0
 16 17  1  0  0  0  0
 16 15  1  1  0  0  0
 18 17  1  0  0  0  0
 19 17  1  0  0  0  0
 20 19  1  0  0  0  0
 21 19  1  0  0  0  0
 21 22  1  0  0  0  0
 22 23  1  0  0  0  0
 22 16  1  0  0  0  0
 24 25  1  0  0  0  0
 24 26  1  0  0  0  0
 27 28  1  0  0  0  0
 27 24  1  0  0  0  0
 28 35  1  0  0  0  0
 29 33  1  0  0  0  0
 29 28  2  0  0  0  0
 30 29  1  0  0  0  0
 31 30  2  0  0  0  0
 31 32  1  0  0  0  0
 32 27  2  0  0  0  0
 34 31  1  0  0  0  0
 35 36  1  0  0  0  0
 36 39  1  0  0  0  0
 37 36  1  0  0  0  0
 38 36  1  0  0  0  0
 39 41  1  0  0  0  0
 39 40  1  0  0  0  0
 39 42  1  0  0  0  0
 42 44  1  0  0  0  0
 43 42  1  0  0  0  0
M  END
>  <minimizedAffinity>
-4.9689455

$$$$

 OpenBabel03252507503D

 44 46  0  0  1  0  0  0  0  0999 V2000
   37.0540   28.3290   42.9900 C   0  0  0  0  0  0  0  0  0  0  0  0
   36.2020   27.6350   43.2170 H   0  0  0  0  0  0  0  0  0  0  0  0
   37.0850   29.0200   43.8560 H   0  0  0  0  0  0  0  0  0  0  0  0
   36.7590   29.1550   41.7950 C   0  0  0  0  0  0  0  0  0  0  0  0
   36.0550   28.5950   40.7050 C   0  0  0  0  0  0  0  0  0  0  0  0
   35.9430   29.9700   39.5150 S   0  0  0  0  0  0  0  0  0  0  0  0
   36.8960   31.1270   40.7160 C   0  0  0  0  0  0  0  0  0  0  0  0
   37.0750   30.4060   41.5900 N   0  0  0  0  0  0  0  0  0  0  0  0
   35.6550   27.6060   40.5510 H   0  0  0  0  0  0  0  0  0  0  0  0
   37.1950   32.4510   40.4240 O   0  0  0  0  0  0  0  0  0  0  0  0
   38.9370   34.4220   40.7420 O   0  0  0  0  0  0  0  0  0  0  0  0
   38.8160   32.9220   40.5120 P   0  0  1  0  0  0  0  0  0  0  0  0
   39.5040   32.1350   41.8670 O   0  0  0  0  0  0  0  0  0  0  0  0
   39.2430   32.5670   42.7100 H   0  0  0  0  0  0  0  0  0  0  0  0
   39.6560   32.4180   39.1260 O   0  0  0  0  0  0  0  0  0  0  0  0
   40.2180   31.1680   39.2850 C   0  0  1  0  0  3  0  0  0  0  0  0
   39.6140   30.2720   38.2230 C   0  0  0  0  0  3  0  0  0  0  0  0
   39.0150   29.5030   38.7430 H   0  0  0  0  0  0  0  0  0  0  0  0
   40.8600   29.6940   37.5670 C   0  0  0  0  0  3  0  0  0  0  0  0
   41.2530   28.9160   38.2650 H   0  0  0  0  0  0  0  0  0  0  0  0
   41.7140   30.7820   37.5490 O   0  0  0  0  0  0  0  0  0  0  0  0
   41.6690   31.2520   38.8610 C   0  0  0  0  0  3  0  0  0  0  0  0
   42.0630   32.2910   38.8560 H   0  0  0  0  0  0  0  0  0  0  0  0
   38.3570   27.5890   42.9030 C   0  0  0  0  0  0  0  0  0  0  0  0
   38.8460   27.4580   43.8930 H   0  0  0  0  0  0  0  0  0  0  0  0
   39.0440   28.2570   42.3350 H   0  0  0  0  0  0  0  0  0  0  0  0
   38.2470   26.2630   42.2810 C   0  0  0  0  0  0  0  0  0  0  0  0
   39.3440   25.8120   41.5720 C   0  0  0  0  0  0  0  0  0  0  0  0
   39.3250   24.5760   40.9560 C   0  0  0  0  0  0  0  0  0  0  0  0
   38.1770   23.8220   41.0780 N   0  0  0  0  0  0  0  0  0  0  0  0
   37.1180   24.3070   41.7880 C   0  0  0  0  0  0  0  0  0  0  0  0
   37.1690   25.4950   42.3660 N   0  0  0  0  0  0  0  0  0  0  0  0
   40.1740   24.1880   40.3880 H   0  0  0  0  0  0  0  0  0  0  0  0
   36.2060   23.7320   41.8980 H   0  0  0  0  0  0  0  0  0  0  0  0
   40.8100   26.8390   41.4470 S   0  0  0  0  0  0  0  0  0  0  0  0
   41.7760   26.7310   42.9660 C   0  0  0  0  0  0  0  0  0  0  0  0
   42.8090   27.0570   42.7860 H   0  0  0  0  0  0  0  0  0  0  0  0
   41.3170   27.3470   43.7530 H   0  0  0  0  0  0  0  0  0  0  0  0
   41.8450   25.2890   43.4030 C   0  0  0  0  0  0  0  0  0  0  0  0
   41.3240   24.6070   42.6720 H   0  0  0  0  0  0  0  0  0  0  0  0
   41.3380   25.1410   44.3690 H   0  0  0  0  0  0  0  0  0  0  0  0
   43.2200   24.8860   43.4460 N   0  0  0  0  0  0  0  0  0  0  0  0
   43.7960   25.6680   43.8140 H   0  0  0  0  0  0  0  0  0  0  0  0
   43.2920   24.1010   44.1400 H   0  0  0  0  0  0  0  0  0  0  0  0
  1  2  1  0  0  0  0
  1  3  1  0  0  0  0
  4  1  1  0  0  0  0
  5  4  2  0  0  0  0
  6  5  1  0  0  0  0
  6  7  1  0  0  0  0
  7  8  2  0  0  0  0
  8  4  1  0  0  0  0
  9  5  1  0  0  0  0
 10 12  1  0  0  0  0
 10  7  1  0  0  0  0
 12 11  2  1  0  0  0
 12 13  1  0  0  0  0
 13 14  1  0  0  0  0
 15 12  1  0  0  0  0
 16 15  1  6  0  0  0
 17 18  1  0  0  0  0
 17 16  1  0  0  0  0
 19 17  1  0  0  0  0
 19 20  1  0  0  0  0
 21 19  1  0  0  0  0
 21 22  1  0  0  0  0
 22 16  1  0  0  0  0
 23 22  1  0  0  0  0
 24  1  1  0  0  0  0
 24 25  1  0  0  0  0
 26 24  1  0  0  0  0
 27 32  1  0  0  0  0
 27 24  1  0  0  0  0
 28 27  2  0  0  0  0
 29 30  2  0  0  0  0
 29 28  1  0  0  0  0
 30 31  1  0  0  0  0
 31 34  1  0  0  0  0
 31 32  2  0  0  0  0
 33 29  1  0  0  0  0
 35 28  1  0  0  0  0
 35 36  1  0  0  0  0
 36 39  1  0  0  0  0
 36 38  1  0  0  0  0
 37 36  1  0  0  0  0
 39 42  1  0  0  0  0
 39 41  1  0  0  0  0
 40 39  1  0  0  0  0
 42 43  1  0  0  0  0
 42 44  1  0  0  0  0
M  END
>  <minimizedAffinity>
-4.96447945

$$$$

 OpenBabel03252507503D

 44 46  0  0  1  0  0  0  0  0999 V2000
   37.4050   28.9810   42.8690 C   0  0  0  0  0  0  0  0  0  0  0  0
   36.5030   28.3270   42.7280 H   0  0  0  0  0  0  0  0  0  0  0  0
   37.1900   29.5520   43.7940 H   0  0  0  0  0  0  0  0  0  0  0  0
   37.5140   29.9730   41.7720 C   0  0  0  0  0  0  0  0  0  0  0  0
   36.3460   30.5360   41.2100 C   0  0  0  0  0  0  0  0  0  0  0  0
   36.9860   31.6670   39.9340 S   0  0  0  0  0  0  0  0  0  0  0  0
   38.7930   31.1870   40.3730 C   0  0  0  0  0  0  0  0  0  0  0  0
   38.6020   30.4310   41.2130 N   0  0  0  0  0  0  0  0  0  0  0  0
   35.3030   30.3780   41.4350 H   0  0  0  0  0  0  0  0  0  0  0  0
   39.9020   31.7210   39.7300 O   0  0  0  0  0  0  0  0  0  0  0  0
   40.9650   33.9570   40.6730 O   0  0  0  0  0  0  0  0  0  0  0  0
   41.0910   32.4400   40.6920 P   0  0  1  0  0  0  0  0  0  0  0  0
   40.8290   31.9200   42.3010 O   0  0  0  0  0  0  0  0  0  0  0  0
   40.0790   32.3970   42.7200 H   0  0  0  0  0  0  0  0  0  0  0  0
   42.6340   31.9200   40.2140 O   0  0  0  0  0  0  0  0  0  0  0  0
   42.7160   31.7160   38.8520 C   0  0  1  0  0  3  0  0  0  0  0  0
   43.2050   33.0120   38.2390 C   0  0  0  0  0  3  0  0  0  0  0  0
   42.3860   33.4090   37.6120 H   0  0  0  0  0  0  0  0  0  0  0  0
   44.3890   32.5310   37.4130 C   0  0  0  0  0  3  0  0  0  0  0  0
   43.9630   32.0440   36.5030 H   0  0  0  0  0  0  0  0  0  0  0  0
   44.9520   31.5730   38.2370 O   0  0  0  0  0  0  0  0  0  0  0  0
   43.8680   30.7710   38.5900 C   0  0  0  0  0  3  0  0  0  0  0  0
   44.1650   30.1850   39.4870 H   0  0  0  0  0  0  0  0  0  0  0  0
   38.6490   28.1650   43.0690 C   0  0  0  0  0  0  0  0  0  0  0  0
   39.0590   28.2490   44.0990 H   0  0  0  0  0  0  0  0  0  0  0  0
   39.4220   28.6340   42.4170 H   0  0  0  0  0  0  0  0  0  0  0  0
   38.4770   26.7370   42.7710 C   0  0  0  0  0  0  0  0  0  0  0  0
   39.5230   25.8990   43.1060 C   0  0  0  0  0  0  0  0  0  0  0  0
   39.4450   24.5420   42.8620 C   0  0  0  0  0  0  0  0  0  0  0  0
   38.2900   24.0680   42.2760 N   0  0  0  0  0  0  0  0  0  0  0  0
   37.2830   24.9310   41.9620 C   0  0  0  0  0  0  0  0  0  0  0  0
   37.3900   26.2260   42.2090 N   0  0  0  0  0  0  0  0  0  0  0  0
   40.2520   23.8510   43.1130 H   0  0  0  0  0  0  0  0  0  0  0  0
   36.3660   24.5810   41.5010 H   0  0  0  0  0  0  0  0  0  0  0  0
   41.0010   26.5750   43.8670 S   0  0  0  0  0  0  0  0  0  0  0  0
   42.2970   26.7870   42.6300 C   0  0  0  0  0  0  0  0  0  0  0  0
   42.0160   26.2890   41.6940 H   0  0  0  0  0  0  0  0  0  0  0  0
   42.4790   27.8560   42.4500 H   0  0  0  0  0  0  0  0  0  0  0  0
   43.5560   26.1140   43.1190 C   0  0  0  0  0  0  0  0  0  0  0  0
   43.9670   26.6170   44.0390 H   0  0  0  0  0  0  0  0  0  0  0  0
   44.3550   26.1690   42.3620 H   0  0  0  0  0  0  0  0  0  0  0  0
   43.2450   24.7630   43.4810 N   0  0  0  0  0  0  0  0  0  0  0  0
   42.5630   24.3720   42.8020 H   0  0  0  0  0  0  0  0  0  0  0  0
   44.1290   24.2040   43.3830 H   0  0  0  0  0  0  0  0  0  0  0  0
  1 24  1  0  0  0  0
  1  3  1  0  0  0  0
  2  1  1  0  0  0  0
  4  1  1  0  0  0  0
  5  9  1  0  0  0  0
  5  4  2  0  0  0  0
  6  7  1  0  0  0  0
  6  5  1  0  0  0  0
  7  8  2  0  0  0  0
  8  4  1  0  0  0  0
 10  7  1  0  0  0  0
 10 12  1  0  0  0  0
 12 11  2  6  0  0  0
 12 13  1  0  0  0  0
 13 14  1  0  0  0  0
 15 12  1  0  0  0  0
 16 15  1  1  0  0  0
 17 16  1  0  0  0  0
 18 17  1  0  0  0  0
 19 21  1  0  0  0  0
 19 17  1  0  0  0  0
 20 19  1  0  0  0  0
 21 22  1  0  0  0  0
 22 16  1  0  0  0  0
 22 23  1  0  0  0  0
 24 25  1  0  0  0  0
 26 24  1  0  0  0  0
 27 24  1  0  0  0  0
 27 28  1  0  0  0  0
 28 35  1  0  0  0  0
 29 28  2  0  0  0  0
 29 33  1  0  0  0  0
 30 29  1  0  0  0  0
 31 32  1  0  0  0  0
 31 30  2  0  0  0  0
 32 27  2  0  0  0  0
 34 31  1  0  0  0  0
 36 39  1  0  0  0  0
 36 35  1  0  0  0  0
 37 36  1  0  0  0  0
 38 36  1  0  0  0  0
 39 42  1  0  0  0  0
 39 40  1  0  0  0  0
 41 39  1  0  0  0  0
 43 42  1  0  0  0  0
 44 42  1  0  0  0  0
M  END
>  <minimizedAffinity>
-4.95809746

$$$$

 OpenBabel03252507503D

 44 46  0  0  1  0  0  0  0  0999 V2000
   37.9010   26.9630   38.9980 C   0  0  0  0  0  0  0  0  0  0  0  0
   38.9690   27.0280   39.3360 H   0  0  0  0  0  0  0  0  0  0  0  0
   37.8790   26.0850   38.3210 H   0  0  0  0  0  0  0  0  0  0  0  0
   37.5350   28.1420   38.1770 C   0  0  0  0  0  0  0  0  0  0  0  0
   36.8010   27.9700   36.9810 C   0  0  0  0  0  0  0  0  0  0  0  0
   36.6040   29.6680   36.3500 S   0  0  0  0  0  0  0  0  0  0  0  0
   37.5750   30.3700   37.8510 C   0  0  0  0  0  0  0  0  0  0  0  0
   37.8090   29.3970   38.4130 N   0  0  0  0  0  0  0  0  0  0  0  0
   36.4220   27.0810   36.5020 H   0  0  0  0  0  0  0  0  0  0  0  0
   37.8270   31.7230   38.0320 O   0  0  0  0  0  0  0  0  0  0  0  0
   37.0430   33.8250   39.4420 O   0  0  0  0  0  0  0  0  0  0  0  0
   37.5070   32.3790   39.5560 P   0  0  1  0  0  0  0  0  0  0  0  0
   36.2250   31.4780   40.2420 O   0  0  0  0  0  0  0  0  0  0  0  0
   35.3560   31.7280   39.8560 H   0  0  0  0  0  0  0  0  0  0  0  0
   38.8620   32.2210   40.5650 O   0  0  0  0  0  0  0  0  0  0  0  0
   40.0410   32.4870   39.8990 C   0  0  1  0  0  3  0  0  0  0  0  0
   40.4490   33.8990   40.2680 C   0  0  0  0  0  3  0  0  0  0  0  0
   40.3910   34.5080   39.3480 H   0  0  0  0  0  0  0  0  0  0  0  0
   41.8810   33.6890   40.7380 C   0  0  0  0  0  3  0  0  0  0  0  0
   42.5000   33.5510   39.8180 H   0  0  0  0  0  0  0  0  0  0  0  0
   41.7930   32.4930   41.4270 O   0  0  0  0  0  0  0  0  0  0  0  0
   41.1330   31.6510   40.5320 C   0  0  0  0  0  3  0  0  0  0  0  0
   40.7410   30.7890   41.1130 H   0  0  0  0  0  0  0  0  0  0  0  0
   36.9720   26.7210   40.1510 C   0  0  0  0  0  0  0  0  0  0  0  0
   36.8810   25.6440   40.4140 H   0  0  0  0  0  0  0  0  0  0  0  0
   35.9600   27.0110   39.7870 H   0  0  0  0  0  0  0  0  0  0  0  0
   37.3420   27.4480   41.3740 C   0  0  0  0  0  0  0  0  0  0  0  0
   38.0220   26.7360   42.3430 C   0  0  0  0  0  0  0  0  0  0  0  0
   38.4080   27.3430   43.5220 C   0  0  0  0  0  0  0  0  0  0  0  0
   38.0860   28.6740   43.6860 N   0  0  0  0  0  0  0  0  0  0  0  0
   37.4130   29.3370   42.7040 C   0  0  0  0  0  0  0  0  0  0  0  0
   37.0580   28.7260   41.5860 N   0  0  0  0  0  0  0  0  0  0  0  0
   38.9470   26.8110   44.3090 H   0  0  0  0  0  0  0  0  0  0  0  0
   37.1500   30.3830   42.8110 H   0  0  0  0  0  0  0  0  0  0  0  0
   38.4130   25.0060   42.0710 S   0  0  0  0  0  0  0  0  0  0  0  0
   39.8890   24.5470   42.9990 C   0  0  0  0  0  0  0  0  0  0  0  0
   39.8690   25.0010   43.9980 H   0  0  0  0  0  0  0  0  0  0  0  0
   39.9610   23.4530   43.0810 H   0  0  0  0  0  0  0  0  0  0  0  0
   41.1030   25.1020   42.2950 C   0  0  0  0  0  0  0  0  0  0  0  0
   41.0570   26.2240   42.2050 H   0  0  0  0  0  0  0  0  0  0  0  0
   41.1750   24.7180   41.2650 H   0  0  0  0  0  0  0  0  0  0  0  0
   42.2680   24.7900   43.0700 N   0  0  0  0  0  0  0  0  0  0  0  0
   42.1700   23.8360   43.4700 H   0  0  0  0  0  0  0  0  0  0  0  0
   43.0830   24.7630   42.4090 H   0  0  0  0  0  0  0  0  0  0  0  0
  1  2  1  0  0  0  0
  1 24  1  0  0  0  0
  3  1  1  0  0  0  0
  4  8  1  0  0  0  0
  4  1  1  0  0  0  0
  5  4  2  0  0  0  0
  6  5  1  0  0  0  0
  6  7  1  0  0  0  0
  7 10  1  0  0  0  0
  7  8  2  0  0  0  0
  9  5  1  0  0  0  0
 10 12  1  0  0  0  0
 12 11  2  6  0  0  0
 12 13  1  0  0  0  0
 12 15  1  0  0  0  0
 14 13  1  0  0  0  0
 16 17  1  0  0  0  0
 16 22  1  0  0  0  0
 16 15  1  1  0  0  0
 17 19  1  0  0  0  0
 18 17  1  0  0  0  0
 19 21  1  0  0  0  0
 20 19  1  0  0  0  0
 22 23  1  0  0  0  0
 22 21  1  0  0  0  0
 24 25  1  0  0  0  0
 24 27  1  0  0  0  0
 26 24  1  0  0  0  0
 27 32  2  0  0  0  0
 27 28  1  0  0  0  0
 28 29  2  0  0  0  0
 29 30  1  0  0  0  0
 29 33  1  0  0  0  0
 31 34  1  0  0  0  0
 31 30  2  0  0  0  0
 32 31  1  0  0  0  0
 35 28  1  0  0  0  0
 35 36  1  0  0  0  0
 36 38  1  0  0  0  0
 36 37  1  0  0  0  0
 39 36  1  0  0  0  0
 39 42  1  0  0  0  0
 40 39  1  0  0  0  0
 41 39  1  0  0  0  0
 42 43  1  0  0  0  0
 44 42  1  0  0  0  0
M  END
>  <minimizedAffinity>
-4.90808344

$$$$
