
 OpenBabel03242513283D

 29 31  0  0  1  0  0  0  0  0999 V2000
   37.4930   30.4210   40.2390 C   0  0  0  0  0  0  0  0  0  0  0  0
   37.7900   31.1020   39.0700 C   0  0  0  0  0  0  0  0  0  0  0  0
   37.0900   30.7680   37.9560 C   0  0  0  0  0  0  0  0  0  0  0  0
   36.1150   29.7860   37.9690 C   0  0  0  0  0  0  0  0  0  0  0  0
   35.8340   29.1220   39.1280 C   0  0  0  0  0  0  0  0  0  0  0  0
   36.5220   29.4290   40.2910 C   0  0  0  0  0  0  0  0  0  0  0  0
   37.3180   31.2980   37.0390 H   0  0  0  0  0  0  0  0  0  0  0  0
   35.5930   29.5670   37.0440 H   0  0  0  0  0  0  0  0  0  0  0  0
   35.0880   28.3670   39.1510 H   0  0  0  0  0  0  0  0  0  0  0  0
   40.9590   33.0430   38.3990 C   0  0  0  0  0  0  0  0  0  0  0  0
   39.9730   32.0430   38.3350 C   0  0  0  0  0  0  0  0  0  0  0  0
   38.8160   32.1150   39.1180 C   0  0  0  0  0  0  0  0  0  0  0  0
   38.7430   33.2000   39.9110 N   0  0  0  0  0  0  0  0  0  0  0  0
   39.6770   34.1610   39.9810 C   0  0  0  0  0  0  0  0  0  0  0  0
   40.7930   34.0830   39.2200 N   0  0  0  0  0  0  0  0  0  0  0  0
   41.8420   32.9850   37.8010 H   0  0  0  0  0  0  0  0  0  0  0  0
   40.1200   31.2120   37.6700 H   0  0  0  0  0  0  0  0  0  0  0  0
   39.4030   34.9300   40.6830 H   0  0  0  0  0  0  0  0  0  0  0  0
   38.1880   30.7330   41.4040 O   0  0  0  0  0  0  0  0  0  0  0  0
   37.7370   31.4030   42.0180 H   0  0  0  0  0  0  0  0  0  0  0  0
   36.3030   28.8080   41.5100 O   0  0  0  0  0  0  0  0  0  0  0  0
   36.6030   27.4920   41.8290 C   0  0  2  0  0  3  0  0  0  0  0  0
   36.5700   27.4100   43.3630 C   0  0  0  0  0  3  0  0  0  0  0  0
   36.6790   26.3800   43.7110 H   0  0  0  0  0  0  0  0  0  0  0  0
   37.8460   28.1530   43.6800 C   0  0  0  0  0  3  0  0  0  0  0  0
   38.2520   27.8370   44.6610 H   0  0  0  0  0  0  0  0  0  0  0  0
   38.7390   27.9140   42.6680 O   0  0  0  0  0  0  0  0  0  0  0  0
   38.1080   27.2540   41.6450 C   0  0  0  0  0  3  0  0  0  0  0  0
   38.2780   26.1600   41.7870 H   0  0  0  0  0  0  0  0  0  0  0  0
  1  6  1  0  0  0  0
  1 19  1  0  0  0  0
  2 12  1  0  0  0  0
  2  1  2  0  0  0  0
  3  4  2  0  0  0  0
  3  2  1  0  0  0  0
  4  5  1  0  0  0  0
  5  9  1  0  0  0  0
  5  6  2  0  0  0  0
  6 21  1  0  0  0  0
  7  3  1  0  0  0  0
  8  4  1  0  0  0  0
 10 15  1  0  0  0  0
 11 10  2  0  0  0  0
 11 12  1  0  0  0  0
 12 13  2  0  0  0  0
 13 14  1  0  0  0  0
 14 18  1  0  0  0  0
 15 14  2  0  0  0  0
 16 10  1  0  0  0  0
 17 11  1  0  0  0  0
 19 20  1  0  0  0  0
 22 21  1  1  0  0  0
 22 23  1  0  0  0  0
 23 25  1  0  0  0  0
 23 24  1  0  0  0  0
 25 26  1  0  0  0  0
 27 25  1  0  0  0  0
 28 29  1  0  0  0  0
 28 22  1  0  0  0  0
 28 27  1  0  0  0  0
M  END
>  <minimizedAffinity>
-4.9011879

$$$$

 OpenBabel03242513283D

 29 31  0  0  1  0  0  0  0  0999 V2000
   37.9520   29.6310   41.4820 C   0  0  0  0  0  0  0  0  0  0  0  0
   37.4750   28.3320   41.5490 C   0  0  0  0  0  0  0  0  0  0  0  0
   36.1990   28.1130   41.1430 C   0  0  0  0  0  0  0  0  0  0  0  0
   35.3910   29.1350   40.6780 C   0  0  0  0  0  0  0  0  0  0  0  0
   35.8740   30.4100   40.6180 C   0  0  0  0  0  0  0  0  0  0  0  0
   37.1710   30.6830   41.0210 C   0  0  0  0  0  0  0  0  0  0  0  0
   35.8210   27.0990   41.1940 H   0  0  0  0  0  0  0  0  0  0  0  0
   34.3800   28.8920   40.3690 H   0  0  0  0  0  0  0  0  0  0  0  0
   35.2630   31.2030   40.2620 H   0  0  0  0  0  0  0  0  0  0  0  0
   39.4440   25.1250   41.8590 C   0  0  0  0  0  0  0  0  0  0  0  0
   38.5720   26.1070   41.3580 C   0  0  0  0  0  0  0  0  0  0  0  0
   38.3640   27.3090   42.0430 C   0  0  0  0  0  0  0  0  0  0  0  0
   39.0570   27.4260   43.1910 N   0  0  0  0  0  0  0  0  0  0  0  0
   39.8920   26.4960   43.6800 C   0  0  0  0  0  0  0  0  0  0  0  0
   40.0870   25.3370   43.0100 N   0  0  0  0  0  0  0  0  0  0  0  0
   39.6010   24.2070   41.3340 H   0  0  0  0  0  0  0  0  0  0  0  0
   38.0620   25.9230   40.4310 H   0  0  0  0  0  0  0  0  0  0  0  0
   40.3340   26.8090   44.6100 H   0  0  0  0  0  0  0  0  0  0  0  0
   39.2560   29.9000   41.8890 O   0  0  0  0  0  0  0  0  0  0  0  0
   39.9530   29.9100   41.1520 H   0  0  0  0  0  0  0  0  0  0  0  0
   37.7430   31.9450   40.9940 O   0  0  0  0  0  0  0  0  0  0  0  0
   37.7010   32.8450   39.9400 C   0  0  2  0  0  3  0  0  0  0  0  0
   38.6420   32.2840   38.8640 C   0  0  0  0  0  3  0  0  0  0  0  0
   38.5860   32.8660   37.9400 H   0  0  0  0  0  0  0  0  0  0  0  0
   39.9710   32.5690   39.5220 C   0  0  0  0  0  3  0  0  0  0  0  0
   40.7730   32.6650   38.7630 H   0  0  0  0  0  0  0  0  0  0  0  0
   39.8420   33.7160   40.2610 O   0  0  0  0  0  0  0  0  0  0  0  0
   38.5230   34.0900   40.3010 C   0  0  0  0  0  3  0  0  0  0  0  0
   38.3530   34.8320   39.4830 H   0  0  0  0  0  0  0  0  0  0  0  0
  1  2  1  0  0  0  0
  1 19  1  0  0  0  0
  2 12  1  0  0  0  0
  3  7  1  0  0  0  0
  3  2  2  0  0  0  0
  4  3  1  0  0  0  0
  5  4  2  0  0  0  0
  5  6  1  0  0  0  0
  6  1  2  0  0  0  0
  8  4  1  0  0  0  0
  9  5  1  0  0  0  0
 10 15  1  0  0  0  0
 11 10  2  0  0  0  0
 11 12  1  0  0  0  0
 12 13  2  0  0  0  0
 13 14  1  0  0  0  0
 14 18  1  0  0  0  0
 15 14  2  0  0  0  0
 16 10  1  0  0  0  0
 17 11  1  0  0  0  0
 20 19  1  0  0  0  0
 21  6  1  0  0  0  0
 22 28  1  0  0  0  0
 22 21  1  1  0  0  0
 23 25  1  0  0  0  0
 23 22  1  0  0  0  0
 24 23  1  0  0  0  0
 25 27  1  0  0  0  0
 26 25  1  0  0  0  0
 27 28  1  0  0  0  0
 29 28  1  0  0  0  0
M  END
>  <minimizedAffinity>
-4.88177013

$$$$

 OpenBabel03242513283D

 29 31  0  0  1  0  0  0  0  0999 V2000
   37.4180   28.0070   40.8640 C   0  0  0  0  0  0  0  0  0  0  0  0
   37.6000   29.1940   41.5560 C   0  0  0  0  0  0  0  0  0  0  0  0
   37.4880   29.1530   42.9070 C   0  0  0  0  0  0  0  0  0  0  0  0
   37.2030   27.9810   43.5860 C   0  0  0  0  0  0  0  0  0  0  0  0
   37.0250   26.8190   42.8920 C   0  0  0  0  0  0  0  0  0  0  0  0
   37.1300   26.8110   41.5100 C   0  0  0  0  0  0  0  0  0  0  0  0
   37.6290   30.0780   43.4530 H   0  0  0  0  0  0  0  0  0  0  0  0
   37.1260   28.0180   44.6670 H   0  0  0  0  0  0  0  0  0  0  0  0
   36.8060   25.9140   43.4000 H   0  0  0  0  0  0  0  0  0  0  0  0
   37.2700   32.5570   39.8710 C   0  0  0  0  0  0  0  0  0  0  0  0
   36.9590   31.4070   40.6170 C   0  0  0  0  0  0  0  0  0  0  0  0
   37.8950   30.3830   40.7950 C   0  0  0  0  0  0  0  0  0  0  0  0
   39.0830   30.6010   40.2000 N   0  0  0  0  0  0  0  0  0  0  0  0
   39.3920   31.6940   39.4860 C   0  0  0  0  0  0  0  0  0  0  0  0
   38.4800   32.6800   39.3200 N   0  0  0  0  0  0  0  0  0  0  0  0
   36.5530   33.3380   39.7370 H   0  0  0  0  0  0  0  0  0  0  0  0
   35.9820   31.3220   41.0550 H   0  0  0  0  0  0  0  0  0  0  0  0
   40.3990   31.6480   39.1070 H   0  0  0  0  0  0  0  0  0  0  0  0
   37.5240   28.0050   39.4760 O   0  0  0  0  0  0  0  0  0  0  0  0
   38.4330   27.7480   39.1060 H   0  0  0  0  0  0  0  0  0  0  0  0
   36.9660   25.6810   40.7250 O   0  0  0  0  0  0  0  0  0  0  0  0
   36.6750   24.4020   41.1760 C   0  0  2  0  0  3  0  0  0  0  0  0
   37.9980   23.6230   41.1230 C   0  0  0  0  0  3  0  0  0  0  0  0
   37.8970   22.6320   41.5720 H   0  0  0  0  0  0  0  0  0  0  0  0
   38.1280   23.4530   39.6280 C   0  0  0  0  0  3  0  0  0  0  0  0
   38.7410   22.5620   39.3850 H   0  0  0  0  0  0  0  0  0  0  0  0
   36.8670   23.3510   39.1010 O   0  0  0  0  0  0  0  0  0  0  0  0
   35.9390   23.6280   40.0720 C   0  0  0  0  0  3  0  0  0  0  0  0
   35.6160   22.6600   40.5230 H   0  0  0  0  0  0  0  0  0  0  0  0
  1  6  2  0  0  0  0
  1  2  1  0  0  0  0
  2  3  2  0  0  0  0
  3  7  1  0  0  0  0
  3  4  1  0  0  0  0
  4  8  1  0  0  0  0
  5  9  1  0  0  0  0
  5  4  2  0  0  0  0
  6  5  1  0  0  0  0
 10 11  1  0  0  0  0
 11 12  2  0  0  0  0
 11 17  1  0  0  0  0
 12  2  1  0  0  0  0
 13 12  1  0  0  0  0
 14 13  2  0  0  0  0
 15 14  1  0  0  0  0
 15 10  2  0  0  0  0
 16 10  1  0  0  0  0
 18 14  1  0  0  0  0
 19  1  1  0  0  0  0
 20 19  1  0  0  0  0
 21  6  1  0  0  0  0
 22 21  1  6  0  0  0
 23 22  1  0  0  0  0
 23 24  1  0  0  0  0
 25 23  1  0  0  0  0
 26 25  1  0  0  0  0
 27 25  1  0  0  0  0
 27 28  1  0  0  0  0
 28 29  1  0  0  0  0
 28 22  1  0  0  0  0
M  END
>  <minimizedAffinity>
-4.80842495

$$$$

 OpenBabel03242513283D

 29 31  0  0  1  0  0  0  0  0999 V2000
   37.2180   29.5680   40.2190 C   0  0  0  0  0  0  0  0  0  0  0  0
   37.2660   30.6180   39.3170 C   0  0  0  0  0  0  0  0  0  0  0  0
   36.5610   30.4850   38.1650 C   0  0  0  0  0  0  0  0  0  0  0  0
   35.8190   29.3510   37.8850 C   0  0  0  0  0  0  0  0  0  0  0  0
   35.7830   28.3230   38.7830 C   0  0  0  0  0  0  0  0  0  0  0  0
   36.4860   28.4130   39.9730 C   0  0  0  0  0  0  0  0  0  0  0  0
   36.5940   31.3030   37.4550 H   0  0  0  0  0  0  0  0  0  0  0  0
   35.2800   29.3070   36.9450 H   0  0  0  0  0  0  0  0  0  0  0  0
   35.2170   27.4480   38.5790 H   0  0  0  0  0  0  0  0  0  0  0  0
   38.2840   34.1610   40.1330 C   0  0  0  0  0  0  0  0  0  0  0  0
   37.4940   33.0490   39.7940 C   0  0  0  0  0  0  0  0  0  0  0  0
   38.0550   31.7750   39.6630 C   0  0  0  0  0  0  0  0  0  0  0  0
   39.3810   31.7210   39.8850 N   0  0  0  0  0  0  0  0  0  0  0  0
   40.1470   32.7740   40.2100 C   0  0  0  0  0  0  0  0  0  0  0  0
   39.5960   34.0040   40.3350 N   0  0  0  0  0  0  0  0  0  0  0  0
   37.8540   35.1340   40.2320 H   0  0  0  0  0  0  0  0  0  0  0  0
   36.4420   33.1910   39.6350 H   0  0  0  0  0  0  0  0  0  0  0  0
   41.1770   32.4910   40.3400 H   0  0  0  0  0  0  0  0  0  0  0  0
   37.9270   29.6640   41.4130 O   0  0  0  0  0  0  0  0  0  0  0  0
   37.3980   29.9980   42.2120 H   0  0  0  0  0  0  0  0  0  0  0  0
   36.5050   27.4220   40.9410 O   0  0  0  0  0  0  0  0  0  0  0  0
   37.0740   26.1630   40.8180 C   0  0  2  0  0  3  0  0  0  0  0  0
   37.1860   25.6070   42.2460 C   0  0  0  0  0  3  0  0  0  0  0  0
   37.5160   24.5650   42.2440 H   0  0  0  0  0  0  0  0  0  0  0  0
   38.3210   26.4610   42.7570 C   0  0  0  0  0  3  0  0  0  0  0  0
   38.8600   25.9490   43.5780 H   0  0  0  0  0  0  0  0  0  0  0  0
   39.1550   26.7360   41.7050 O   0  0  0  0  0  0  0  0  0  0  0  0
   38.5770   26.3080   40.5370 C   0  0  0  0  0  3  0  0  0  0  0  0
   38.9610   25.2830   40.3200 H   0  0  0  0  0  0  0  0  0  0  0  0
  1 19  1  0  0  0  0
  2 12  1  0  0  0  0
  2  1  2  0  0  0  0
  3  2  1  0  0  0  0
  4  3  2  0  0  0  0
  4  5  1  0  0  0  0
  5  6  2  0  0  0  0
  6  1  1  0  0  0  0
  6 21  1  0  0  0  0
  7  3  1  0  0  0  0
  8  4  1  0  0  0  0
  9  5  1  0  0  0  0
 10 16  1  0  0  0  0
 10 15  1  0  0  0  0
 11 10  2  0  0  0  0
 12 11  1  0  0  0  0
 12 13  2  0  0  0  0
 13 14  1  0  0  0  0
 14 15  2  0  0  0  0
 14 18  1  0  0  0  0
 17 11  1  0  0  0  0
 19 20  1  0  0  0  0
 22 21  1  1  0  0  0
 22 23  1  0  0  0  0
 23 25  1  0  0  0  0
 24 23  1  0  0  0  0
 25 26  1  0  0  0  0
 27 25  1  0  0  0  0
 28 22  1  0  0  0  0
 28 27  1  0  0  0  0
 29 28  1  0  0  0  0
M  END
>  <minimizedAffinity>
-4.65756607

$$$$

 OpenBabel03242513283D

 29 31  0  0  1  0  0  0  0  0999 V2000
   37.1880   27.9070   41.0410 C   0  0  0  0  0  0  0  0  0  0  0  0
   37.5050   26.6570   41.5450 C   0  0  0  0  0  0  0  0  0  0  0  0
   37.8970   26.5880   42.8430 C   0  0  0  0  0  0  0  0  0  0  0  0
   37.9830   27.7110   43.6450 C   0  0  0  0  0  0  0  0  0  0  0  0
   37.6680   28.9380   43.1340 C   0  0  0  0  0  0  0  0  0  0  0  0
   37.2620   29.0590   41.8150 C   0  0  0  0  0  0  0  0  0  0  0  0
   38.1470   25.6120   43.2430 H   0  0  0  0  0  0  0  0  0  0  0  0
   38.3040   27.5870   44.6730 H   0  0  0  0  0  0  0  0  0  0  0  0
   37.7300   29.8070   43.7400 H   0  0  0  0  0  0  0  0  0  0  0  0
   36.5130   23.3170   40.0910 C   0  0  0  0  0  0  0  0  0  0  0  0
   36.6040   24.4110   40.9680 C   0  0  0  0  0  0  0  0  0  0  0  0
   37.3970   25.5220   40.6620 C   0  0  0  0  0  0  0  0  0  0  0  0
   38.0430   25.4410   39.4840 N   0  0  0  0  0  0  0  0  0  0  0  0
   37.9650   24.4020   38.6380 C   0  0  0  0  0  0  0  0  0  0  0  0
   37.1950   23.3320   38.9420 N   0  0  0  0  0  0  0  0  0  0  0  0
   35.9070   22.4690   40.3270 H   0  0  0  0  0  0  0  0  0  0  0  0
   36.0490   24.3850   41.8880 H   0  0  0  0  0  0  0  0  0  0  0  0
   38.5680   24.5600   37.7600 H   0  0  0  0  0  0  0  0  0  0  0  0
   36.7810   28.0230   39.7150 O   0  0  0  0  0  0  0  0  0  0  0  0
   35.7780   28.0230   39.5610 H   0  0  0  0  0  0  0  0  0  0  0  0
   36.9230   30.2600   41.2140 O   0  0  0  0  0  0  0  0  0  0  0  0
   37.7870   31.3010   40.9110 C   0  0  2  0  0  3  0  0  0  0  0  0
   37.0360   32.2000   39.9160 C   0  0  0  0  0  3  0  0  0  0  0  0
   37.5930   33.1170   39.7070 H   0  0  0  0  0  0  0  0  0  0  0  0
   37.0970   31.3200   38.6910 C   0  0  0  0  0  3  0  0  0  0  0  0
   37.0260   31.9280   37.7670 H   0  0  0  0  0  0  0  0  0  0  0  0
   38.2680   30.6100   38.7350 O   0  0  0  0  0  0  0  0  0  0  0  0
   38.8740   30.7990   39.9500 C   0  0  0  0  0  3  0  0  0  0  0  0
   39.6110   31.6300   39.8400 H   0  0  0  0  0  0  0  0  0  0  0  0
  1  2  2  0  0  0  0
  1  6  1  0  0  0  0
  2  3  1  0  0  0  0
  3  7  1  0  0  0  0
  3  4  2  0  0  0  0
  4  8  1  0  0  0  0
  5  4  1  0  0  0  0
  5  9  1  0  0  0  0
  6  5  2  0  0  0  0
 10 16  1  0  0  0  0
 10 11  1  0  0  0  0
 11 17  1  0  0  0  0
 12 11  2  0  0  0  0
 12  2  1  0  0  0  0
 13 12  1  0  0  0  0
 14 15  1  0  0  0  0
 14 13  2  0  0  0  0
 15 10  2  0  0  0  0
 18 14  1  0  0  0  0
 19  1  1  0  0  0  0
 20 19  1  0  0  0  0
 21  6  1  0  0  0  0
 22 21  1  6  0  0  0
 23 22  1  0  0  0  0
 24 23  1  0  0  0  0
 25 27  1  0  0  0  0
 25 23  1  0  0  0  0
 26 25  1  0  0  0  0
 27 28  1  0  0  0  0
 28 22  1  0  0  0  0
 29 28  1  0  0  0  0
M  END
>  <minimizedAffinity>
-4.62129259

$$$$

 OpenBabel03242513283D

 29 31  0  0  1  0  0  0  0  0999 V2000
   38.7450   28.2530   41.6290 C   0  0  0  0  0  0  0  0  0  0  0  0
   39.0730   27.6390   42.8270 C   0  0  0  0  0  0  0  0  0  0  0  0
   38.0520   27.2840   43.6470 C   0  0  0  0  0  0  0  0  0  0  0  0
   36.7290   27.5190   43.3180 C   0  0  0  0  0  0  0  0  0  0  0  0
   36.4200   28.1270   42.1350 C   0  0  0  0  0  0  0  0  0  0  0  0
   37.4280   28.5070   41.2640 C   0  0  0  0  0  0  0  0  0  0  0  0
   38.3020   26.8030   44.5850 H   0  0  0  0  0  0  0  0  0  0  0  0
   35.9610   27.2110   44.0190 H   0  0  0  0  0  0  0  0  0  0  0  0
   35.4090   28.3130   41.8710 H   0  0  0  0  0  0  0  0  0  0  0  0
   42.3490   25.9580   43.6630 C   0  0  0  0  0  0  0  0  0  0  0  0
   40.9840   26.1470   43.3840 C   0  0  0  0  0  0  0  0  0  0  0  0
   40.4680   27.4190   43.1160 C   0  0  0  0  0  0  0  0  0  0  0  0
   41.3780   28.4110   43.1500 N   0  0  0  0  0  0  0  0  0  0  0  0
   42.6830   28.2440   43.4150 C   0  0  0  0  0  0  0  0  0  0  0  0
   43.1730   27.0090   43.6730 N   0  0  0  0  0  0  0  0  0  0  0  0
   42.7400   24.9850   43.8680 H   0  0  0  0  0  0  0  0  0  0  0  0
   40.3330   25.2930   43.3790 H   0  0  0  0  0  0  0  0  0  0  0  0
   43.2160   29.1780   43.3870 H   0  0  0  0  0  0  0  0  0  0  0  0
   39.7610   28.6340   40.7580 O   0  0  0  0  0  0  0  0  0  0  0  0
   39.9840   27.9680   40.0250 H   0  0  0  0  0  0  0  0  0  0  0  0
   37.2080   29.1270   40.0450 O   0  0  0  0  0  0  0  0  0  0  0  0
   36.4440   30.2630   39.8250 C   0  0  2  0  0  3  0  0  0  0  0  0
   36.8170   30.7610   38.4200 C   0  0  0  0  0  3  0  0  0  0  0  0
   36.1770   31.5900   38.1070 H   0  0  0  0  0  0  0  0  0  0  0  0
   38.1940   31.3090   38.7080 C   0  0  0  0  0  3  0  0  0  0  0  0
   38.4630   32.0980   37.9780 H   0  0  0  0  0  0  0  0  0  0  0  0
   38.2010   31.7900   39.9910 O   0  0  0  0  0  0  0  0  0  0  0  0
   37.0350   31.4360   40.6200 C   0  0  0  0  0  3  0  0  0  0  0  0
   36.3180   32.2860   40.5150 H   0  0  0  0  0  0  0  0  0  0  0  0
  1  2  1  0  0  0  0
  2 12  1  0  0  0  0
  2  3  2  0  0  0  0
  3  7  1  0  0  0  0
  4  3  1  0  0  0  0
  4  8  1  0  0  0  0
  5  4  2  0  0  0  0
  6  1  2  0  0  0  0
  6  5  1  0  0  0  0
  9  5  1  0  0  0  0
 10 15  1  0  0  0  0
 10 16  1  0  0  0  0
 11 10  2  0  0  0  0
 12 13  2  0  0  0  0
 12 11  1  0  0  0  0
 13 14  1  0  0  0  0
 14 15  2  0  0  0  0
 17 11  1  0  0  0  0
 18 14  1  0  0  0  0
 19  1  1  0  0  0  0
 20 19  1  0  0  0  0
 21  6  1  0  0  0  0
 22 21  1  1  0  0  0
 22 28  1  0  0  0  0
 23 25  1  0  0  0  0
 23 22  1  0  0  0  0
 24 23  1  0  0  0  0
 25 27  1  0  0  0  0
 26 25  1  0  0  0  0
 27 28  1  0  0  0  0
 29 28  1  0  0  0  0
M  END
>  <minimizedAffinity>
-4.60766029

$$$$

 OpenBabel03242513283D

 29 31  0  0  1  0  0  0  0  0999 V2000
   39.1980   30.7530   40.1690 C   0  0  0  0  0  0  0  0  0  0  0  0
   37.9760   30.5210   40.7800 C   0  0  0  0  0  0  0  0  0  0  0  0
   37.0050   31.4530   40.6090 C   0  0  0  0  0  0  0  0  0  0  0  0
   37.2080   32.5970   39.8580 C   0  0  0  0  0  0  0  0  0  0  0  0
   38.4180   32.8140   39.2620 C   0  0  0  0  0  0  0  0  0  0  0  0
   39.4400   31.8900   39.4080 C   0  0  0  0  0  0  0  0  0  0  0  0
   36.0470   31.2770   41.0850 H   0  0  0  0  0  0  0  0  0  0  0  0
   36.3910   33.3020   39.7620 H   0  0  0  0  0  0  0  0  0  0  0  0
   38.5860   33.6870   38.6830 H   0  0  0  0  0  0  0  0  0  0  0  0
   37.6650   28.1210   43.6780 C   0  0  0  0  0  0  0  0  0  0  0  0
   37.8160   29.3130   42.9490 C   0  0  0  0  0  0  0  0  0  0  0  0
   37.8230   29.3120   41.5510 C   0  0  0  0  0  0  0  0  0  0  0  0
   37.6750   28.0960   40.9910 N   0  0  0  0  0  0  0  0  0  0  0  0
   37.5300   26.9510   41.6760 C   0  0  0  0  0  0  0  0  0  0  0  0
   37.5240   26.9620   43.0290 N   0  0  0  0  0  0  0  0  0  0  0  0
   37.6610   28.1250   44.7470 H   0  0  0  0  0  0  0  0  0  0  0  0
   37.9280   30.2370   43.4850 H   0  0  0  0  0  0  0  0  0  0  0  0
   37.4280   26.1060   41.0170 H   0  0  0  0  0  0  0  0  0  0  0  0
   40.2220   29.8220   40.3190 O   0  0  0  0  0  0  0  0  0  0  0  0
   40.3040   29.1370   39.5760 H   0  0  0  0  0  0  0  0  0  0  0  0
   40.6960   32.0260   38.8400 O   0  0  0  0  0  0  0  0  0  0  0  0
   40.9740   32.4500   37.5480 C   0  0  2  0  0  3  0  0  0  0  0  0
   41.9200   31.3960   36.9510 C   0  0  0  0  0  3  0  0  0  0  0  0
   42.1030   31.5810   35.8890 H   0  0  0  0  0  0  0  0  0  0  0  0
   43.1790   31.7310   37.7130 C   0  0  0  0  0  3  0  0  0  0  0  0
   44.0770   31.4190   37.1450 H   0  0  0  0  0  0  0  0  0  0  0  0
   43.1830   33.0800   37.9560 O   0  0  0  0  0  0  0  0  0  0  0  0
   41.9730   33.6150   37.5980 C   0  0  0  0  0  3  0  0  0  0  0  0
   42.0640   34.0010   36.5540 H   0  0  0  0  0  0  0  0  0  0  0  0
  1 19  1  0  0  0  0
  1  2  1  0  0  0  0
  2 12  1  0  0  0  0
  3  2  2  0  0  0  0
  3  7  1  0  0  0  0
  4  3  1  0  0  0  0
  5  6  1  0  0  0  0
  5  4  2  0  0  0  0
  6  1  2  0  0  0  0
  8  4  1  0  0  0  0
  9  5  1  0  0  0  0
 10 16  1  0  0  0  0
 11 17  1  0  0  0  0
 11 10  2  0  0  0  0
 12 11  1  0  0  0  0
 13 12  2  0  0  0  0
 13 14  1  0  0  0  0
 14 15  2  0  0  0  0
 15 10  1  0  0  0  0
 18 14  1  0  0  0  0
 20 19  1  0  0  0  0
 21  6  1  0  0  0  0
 22 28  1  0  0  0  0
 22 21  1  1  0  0  0
 23 22  1  0  0  0  0
 23 25  1  0  0  0  0
 24 23  1  0  0  0  0
 25 27  1  0  0  0  0
 26 25  1  0  0  0  0
 28 27  1  0  0  0  0
 29 28  1  0  0  0  0
M  END
>  <minimizedAffinity>
-4.56292534

$$$$

 OpenBabel03242513283D

 29 31  0  0  1  0  0  0  0  0999 V2000
   36.5460   30.3550   38.3150 C   0  0  0  0  0  0  0  0  0  0  0  0
   36.5700   30.7760   39.6350 C   0  0  0  0  0  0  0  0  0  0  0  0
   35.7340   30.1550   40.5050 C   0  0  0  0  0  0  0  0  0  0  0  0
   34.8830   29.1390   40.1070 C   0  0  0  0  0  0  0  0  0  0  0  0
   34.8690   28.7340   38.8040 C   0  0  0  0  0  0  0  0  0  0  0  0
   35.7050   29.3380   37.8780 C   0  0  0  0  0  0  0  0  0  0  0  0
   35.7490   30.4810   41.5380 H   0  0  0  0  0  0  0  0  0  0  0  0
   34.2400   28.6860   40.8530 H   0  0  0  0  0  0  0  0  0  0  0  0
   34.2210   27.9560   38.4870 H   0  0  0  0  0  0  0  0  0  0  0  0
   39.5150   32.6620   41.0590 C   0  0  0  0  0  0  0  0  0  0  0  0
   38.6450   31.6090   40.7250 C   0  0  0  0  0  0  0  0  0  0  0  0
   37.4780   31.8390   39.9900 C   0  0  0  0  0  0  0  0  0  0  0  0
   37.2770   33.1250   39.6460 N   0  0  0  0  0  0  0  0  0  0  0  0
   38.0990   34.1390   39.9580 C   0  0  0  0  0  0  0  0  0  0  0  0
   39.2260   33.9070   40.6690 N   0  0  0  0  0  0  0  0  0  0  0  0
   40.4060   32.4840   41.6210 H   0  0  0  0  0  0  0  0  0  0  0  0
   38.8910   30.6140   41.0450 H   0  0  0  0  0  0  0  0  0  0  0  0
   37.7340   35.0770   39.5770 H   0  0  0  0  0  0  0  0  0  0  0  0
   37.3880   30.9650   37.3900 O   0  0  0  0  0  0  0  0  0  0  0  0
   38.2720   30.4960   37.2230 H   0  0  0  0  0  0  0  0  0  0  0  0
   35.7580   28.9920   36.5380 O   0  0  0  0  0  0  0  0  0  0  0  0
   34.8360   29.3390   35.5610 C   0  0  2  0  0  3  0  0  0  0  0  0
   34.3570   28.0170   34.9420 C   0  0  0  0  0  3  0  0  0  0  0  0
   33.5360   28.1790   34.2390 H   0  0  0  0  0  0  0  0  0  0  0  0
   35.5900   27.6500   34.1530 C   0  0  0  0  0  3  0  0  0  0  0  0
   35.3290   26.9980   33.2960 H   0  0  0  0  0  0  0  0  0  0  0  0
   36.1880   28.8100   33.7350 O   0  0  0  0  0  0  0  0  0  0  0  0
   35.5770   29.8830   34.3320 C   0  0  0  0  0  3  0  0  0  0  0  0
   34.7950   30.2650   33.6320 H   0  0  0  0  0  0  0  0  0  0  0  0
  1  2  1  0  0  0  0
  2 12  1  0  0  0  0
  2  3  2  0  0  0  0
  3  7  1  0  0  0  0
  4  3  1  0  0  0  0
  4  8  1  0  0  0  0
  5  4  2  0  0  0  0
  6  1  2  0  0  0  0
  6  5  1  0  0  0  0
  9  5  1  0  0  0  0
 10 16  1  0  0  0  0
 11 17  1  0  0  0  0
 11 10  1  0  0  0  0
 12 11  2  0  0  0  0
 13 14  2  0  0  0  0
 13 12  1  0  0  0  0
 14 15  1  0  0  0  0
 15 10  2  0  0  0  0
 18 14  1  0  0  0  0
 19  1  1  0  0  0  0
 20 19  1  0  0  0  0
 21  6  1  0  0  0  0
 22 21  1  1  0  0  0
 23 22  1  0  0  0  0
 24 23  1  0  0  0  0
 25 23  1  0  0  0  0
 26 25  1  0  0  0  0
 27 25  1  0  0  0  0
 27 28  1  0  0  0  0
 28 22  1  0  0  0  0
 29 28  1  0  0  0  0
M  END
>  <minimizedAffinity>
-4.54312754

$$$$

 OpenBabel03242513283D

 29 31  0  0  1  0  0  0  0  0999 V2000
   37.4610   29.4630   39.8270 C   0  0  0  0  0  0  0  0  0  0  0  0
   36.9080   30.3730   38.9410 C   0  0  0  0  0  0  0  0  0  0  0  0
   37.0290   31.6910   39.2420 C   0  0  0  0  0  0  0  0  0  0  0  0
   37.6750   32.1270   40.3850 C   0  0  0  0  0  0  0  0  0  0  0  0
   38.2140   31.2190   41.2500 C   0  0  0  0  0  0  0  0  0  0  0  0
   38.1160   29.8630   40.9860 C   0  0  0  0  0  0  0  0  0  0  0  0
   36.5980   32.4070   38.5520 H   0  0  0  0  0  0  0  0  0  0  0  0
   37.7360   33.1940   40.5660 H   0  0  0  0  0  0  0  0  0  0  0  0
   38.7120   31.5410   42.1300 H   0  0  0  0  0  0  0  0  0  0  0  0
   36.1550   29.4340   35.3630 C   0  0  0  0  0  0  0  0  0  0  0  0
   36.8180   29.9420   36.4930 C   0  0  0  0  0  0  0  0  0  0  0  0
   36.2470   29.8600   37.7670 C   0  0  0  0  0  0  0  0  0  0  0  0
   35.0390   29.2660   37.8020 N   0  0  0  0  0  0  0  0  0  0  0  0
   34.3960   28.7770   36.7310 C   0  0  0  0  0  0  0  0  0  0  0  0
   34.9560   28.8610   35.5020 N   0  0  0  0  0  0  0  0  0  0  0  0
   36.5930   29.4980   34.3900 H   0  0  0  0  0  0  0  0  0  0  0  0
   37.7810   30.4000   36.3650 H   0  0  0  0  0  0  0  0  0  0  0  0
   33.4460   28.3480   37.0000 H   0  0  0  0  0  0  0  0  0  0  0  0
   37.3590   28.1020   39.5570 O   0  0  0  0  0  0  0  0  0  0  0  0
   38.1540   27.6880   39.0820 H   0  0  0  0  0  0  0  0  0  0  0  0
   38.6330   28.8730   41.8050 O   0  0  0  0  0  0  0  0  0  0  0  0
   38.1720   28.5230   43.0660 C   0  0  2  0  0  3  0  0  0  0  0  0
   38.9420   27.2550   43.4620 C   0  0  0  0  0  3  0  0  0  0  0  0
   38.7330   26.9670   44.4960 H   0  0  0  0  0  0  0  0  0  0  0  0
   38.2690   26.2590   42.5500 C   0  0  0  0  0  3  0  0  0  0  0  0
   38.3370   25.2340   42.9660 H   0  0  0  0  0  0  0  0  0  0  0  0
   36.9650   26.6460   42.3850 O   0  0  0  0  0  0  0  0  0  0  0  0
   36.7810   27.8860   42.9410 C   0  0  0  0  0  3  0  0  0  0  0  0
   36.4020   27.7430   43.9810 H   0  0  0  0  0  0  0  0  0  0  0  0
  1  6  1  0  0  0  0
  2  3  1  0  0  0  0
  2  1  2  0  0  0  0
  3  4  2  0  0  0  0
  4  8  1  0  0  0  0
  4  5  1  0  0  0  0
  5  9  1  0  0  0  0
  6  5  2  0  0  0  0
  6 21  1  0  0  0  0
  7  3  1  0  0  0  0
 10 15  2  0  0  0  0
 10 11  1  0  0  0  0
 11 12  2  0  0  0  0
 12 13  1  0  0  0  0
 12  2  1  0  0  0  0
 14 18  1  0  0  0  0
 14 13  2  0  0  0  0
 15 14  1  0  0  0  0
 16 10  1  0  0  0  0
 17 11  1  0  0  0  0
 19  1  1  0  0  0  0
 20 19  1  0  0  0  0
 22 21  1  6  0  0  0
 22 23  1  0  0  0  0
 23 24  1  0  0  0  0
 25 26  1  0  0  0  0
 25 23  1  0  0  0  0
 27 25  1  0  0  0  0
 27 28  1  0  0  0  0
 28 22  1  0  0  0  0
 28 29  1  0  0  0  0
M  END
>  <minimizedAffinity>
-4.53209972

$$$$
