
 OpenBabel03242512463D

 37 39  0  0  1  0  0  0  0  0999 V2000
   37.0900   26.6990   42.3870 C   0  0  0  0  0  0  0  0  0  0  0  0
   37.1820   27.3300   43.6550 C   0  0  0  0  0  0  0  0  0  0  0  0
   37.5400   28.6790   43.6770 C   0  0  0  0  0  0  0  0  0  0  0  0
   37.7770   29.2970   42.4760 N   0  0  0  0  0  0  0  0  0  0  0  0
   37.6740   28.6500   41.3100 C   0  0  0  0  0  0  0  0  0  0  0  0
   37.3350   27.3640   41.2630 N   0  0  0  0  0  0  0  0  0  0  0  0
   37.9490   29.4080   40.1050 N   0  0  0  0  0  0  0  0  0  0  0  0
   38.4350   28.7220   38.9610 C   0  0  0  0  0  0  0  0  0  0  0  0
   37.8690   29.2560   37.7100 C   0  0  0  0  0  0  0  0  0  0  0  0
   36.8090   30.2900   37.8120 C   0  0  0  0  0  0  0  0  0  0  0  0
   36.9330   31.2580   38.9240 C   0  0  0  0  0  0  0  0  0  0  0  0
   37.7160   30.8340   40.1180 C   0  0  2  0  0  0  0  0  0  0  0  0
   36.9960   26.8460   44.5860 H   0  0  0  0  0  0  0  0  0  0  0  0
   37.6380   29.2490   44.5720 H   0  0  0  0  0  0  0  0  0  0  0  0
   38.2750   27.6230   39.0650 H   0  0  0  0  0  0  0  0  0  0  0  0
   39.5570   28.8380   38.9720 H   0  0  0  0  0  0  0  0  0  0  0  0
   37.4520   28.4050   37.1170 H   0  0  0  0  0  0  0  0  0  0  0  0
   38.6970   29.6540   37.0550 H   0  0  0  0  0  0  0  0  0  0  0  0
   36.7610   30.8140   36.8140 H   0  0  0  0  0  0  0  0  0  0  0  0
   35.8260   29.7730   37.9130 H   0  0  0  0  0  0  0  0  0  0  0  0
   37.3340   32.2080   38.4920 H   0  0  0  0  0  0  0  0  0  0  0  0
   35.9170   31.5520   39.2980 H   0  0  0  0  0  0  0  0  0  0  0  0
   37.2630   31.1570   41.0780 H   0  0  0  0  0  0  0  0  0  0  0  0
   39.0740   31.4800   40.0180 C   0  0  1  0  0  3  0  0  0  0  0  0
   39.0670   32.8000   39.2860 C   0  0  0  0  0  3  0  0  0  0  0  0
   38.1660   33.3480   39.6330 H   0  0  0  0  0  0  0  0  0  0  0  0
   40.2550   33.5040   39.9370 C   0  0  0  0  0  3  0  0  0  0  0  0
   41.0340   33.6940   39.1840 H   0  0  0  0  0  0  0  0  0  0  0  0
   40.7720   32.6230   40.8790 O   0  0  0  0  0  0  0  0  0  0  0  0
   39.6470   31.9100   41.3500 C   0  0  0  0  0  3  0  0  0  0  0  0
   39.0310   32.6340   41.8920 H   0  0  0  0  0  0  0  0  0  0  0  0
   36.7360   25.3800   42.4260 O   0  0  0  0  0  0  0  0  0  0  0  0
   37.4920   24.3290   41.9560 C   0  0  0  0  0  0  0  0  0  0  0  0
   37.2090   23.5990   40.9510 O   0  0  0  0  0  0  0  0  0  0  0  0
   38.7040   23.9450   42.5710 N   0  0  0  0  0  0  0  0  0  0  0  0
   38.6920   23.5290   43.5480 H   0  0  0  0  0  0  0  0  0  0  0  0
   39.7240   23.9600   42.2970 H   0  0  0  0  0  0  0  0  0  0  0  0
  1 32  1  0  0  0  0
  1  2  1  0  0  0  0
  2  3  2  0  0  0  0
  2 13  1  0  0  0  0
  3 14  1  0  0  0  0
  4  3  1  0  0  0  0
  5  4  2  0  0  0  0
  6  5  1  0  0  0  0
  6  1  2  0  0  0  0
  7 12  1  0  0  0  0
  7  5  1  0  0  0  0
  8 16  1  0  0  0  0
  8 15  1  0  0  0  0
  8  7  1  0  0  0  0
  9 10  1  0  0  0  0
  9  8  1  0  0  0  0
 10 20  1  0  0  0  0
 10 11  1  0  0  0  0
 11 22  1  0  0  0  0
 11 12  1  0  0  0  0
 12 23  1  1  0  0  0
 17  9  1  0  0  0  0
 18  9  1  0  0  0  0
 19 10  1  0  0  0  0
 21 11  1  0  0  0  0
 24 25  1  6  0  0  0
 24 12  1  0  0  0  0
 24 30  1  0  0  0  0
 25 26  1  0  0  0  0
 25 27  1  0  0  0  0
 27 29  1  0  0  0  0
 28 27  1  0  0  0  0
 29 30  1  0  0  0  0
 30 31  1  0  0  0  0
 33 32  1  0  0  0  0
 33 35  1  0  0  0  0
 34 33  2  0  0  0  0
 35 36  1  0  0  0  0
 37 35  1  0  0  0  0
M  END
>  <minimizedAffinity>
-5.37396002

$$$$

 OpenBabel03242512463D

 37 39  0  0  1  0  0  0  0  0999 V2000
   37.1490   30.8260   40.7140 C   0  0  0  0  0  0  0  0  0  0  0  0
   35.8120   30.4010   40.4980 C   0  0  0  0  0  0  0  0  0  0  0  0
   35.5300   29.0470   40.6850 C   0  0  0  0  0  0  0  0  0  0  0  0
   36.5620   28.2250   41.0620 N   0  0  0  0  0  0  0  0  0  0  0  0
   37.8040   28.6830   41.2500 C   0  0  0  0  0  0  0  0  0  0  0  0
   38.0980   29.9700   41.0780 N   0  0  0  0  0  0  0  0  0  0  0  0
   38.8130   27.7200   41.6470 N   0  0  0  0  0  0  0  0  0  0  0  0
   40.1670   27.9640   41.2980 C   0  0  0  0  0  0  0  0  0  0  0  0
   41.0990   27.5550   42.3630 C   0  0  0  0  0  0  0  0  0  0  0  0
   40.5230   27.1000   43.6530 C   0  0  0  0  0  0  0  0  0  0  0  0
   39.2570   26.3400   43.5830 C   0  0  0  0  0  0  0  0  0  0  0  0
   38.3970   26.5490   42.3850 C   0  0  2  0  0  0  0  0  0  0  0  0
   35.0130   31.0430   40.2060 H   0  0  0  0  0  0  0  0  0  0  0  0
   34.5620   28.6210   40.5520 H   0  0  0  0  0  0  0  0  0  0  0  0
   40.3080   29.0270   40.9940 H   0  0  0  0  0  0  0  0  0  0  0  0
   40.3620   27.3800   40.3510 H   0  0  0  0  0  0  0  0  0  0  0  0
   41.7840   28.4100   42.5830 H   0  0  0  0  0  0  0  0  0  0  0  0
   41.7920   26.7520   41.9770 H   0  0  0  0  0  0  0  0  0  0  0  0
   41.3270   26.5140   44.1860 H   0  0  0  0  0  0  0  0  0  0  0  0
   40.3510   27.9980   44.2930 H   0  0  0  0  0  0  0  0  0  0  0  0
   39.5120   25.2590   43.7140 H   0  0  0  0  0  0  0  0  0  0  0  0
   38.6180   26.5660   44.4770 H   0  0  0  0  0  0  0  0  0  0  0  0
   37.3140   26.5900   42.6230 H   0  0  0  0  0  0  0  0  0  0  0  0
   38.6140   25.3760   41.4640 C   0  0  1  0  0  3  0  0  0  0  0  0
   38.5980   24.0410   42.1660 C   0  0  0  0  0  3  0  0  0  0  0  0
   37.7670   24.0810   42.9000 H   0  0  0  0  0  0  0  0  0  0  0  0
   38.1160   23.1240   41.0450 C   0  0  0  0  0  3  0  0  0  0  0  0
   38.8970   22.3900   40.8010 H   0  0  0  0  0  0  0  0  0  0  0  0
   37.9170   23.9300   39.9300 O   0  0  0  0  0  0  0  0  0  0  0  0
   37.5010   25.1700   40.4610 C   0  0  0  0  0  3  0  0  0  0  0  0
   36.5180   24.9960   40.9100 H   0  0  0  0  0  0  0  0  0  0  0  0
   37.3670   32.1610   40.5170 O   0  0  0  0  0  0  0  0  0  0  0  0
   37.3320   32.8120   39.3030 C   0  0  0  0  0  0  0  0  0  0  0  0
   37.6450   32.3040   38.1770 O   0  0  0  0  0  0  0  0  0  0  0  0
   36.9310   34.1610   39.1880 N   0  0  0  0  0  0  0  0  0  0  0  0
   37.5330   34.9280   39.6080 H   0  0  0  0  0  0  0  0  0  0  0  0
   36.1120   34.6670   38.7540 H   0  0  0  0  0  0  0  0  0  0  0  0
  1  6  1  0  0  0  0
  2  3  1  0  0  0  0
  2  1  2  0  0  0  0
  3  4  2  0  0  0  0
  4  5  1  0  0  0  0
  5  7  1  0  0  0  0
  6  5  2  0  0  0  0
  7 12  1  0  0  0  0
  8  7  1  0  0  0  0
  8  9  1  0  0  0  0
  9 17  1  0  0  0  0
  9 10  1  0  0  0  0
 10 19  1  0  0  0  0
 10 20  1  0  0  0  0
 11 10  1  0  0  0  0
 11 21  1  0  0  0  0
 11 22  1  0  0  0  0
 12 23  1  1  0  0  0
 12 11  1  0  0  0  0
 13  2  1  0  0  0  0
 14  3  1  0  0  0  0
 15  8  1  0  0  0  0
 16  8  1  0  0  0  0
 18  9  1  0  0  0  0
 24 30  1  6  0  0  0
 24 25  1  0  0  0  0
 24 12  1  0  0  0  0
 25 26  1  0  0  0  0
 27 25  1  0  0  0  0
 28 27  1  0  0  0  0
 29 30  1  0  0  0  0
 29 27  1  0  0  0  0
 30 31  1  0  0  0  0
 32  1  1  0  0  0  0
 33 32  1  0  0  0  0
 34 33  2  0  0  0  0
 35 33  1  0  0  0  0
 35 36  1  0  0  0  0
 37 35  1  0  0  0  0
M  END
>  <minimizedAffinity>
-5.36949158

$$$$

 OpenBabel03242512463D

 37 39  0  0  1  0  0  0  0  0999 V2000
   36.3080   29.3380   35.1200 C   0  0  0  0  0  0  0  0  0  0  0  0
   35.3280   28.3250   35.2920 C   0  0  0  0  0  0  0  0  0  0  0  0
   35.0260   27.9400   36.6000 C   0  0  0  0  0  0  0  0  0  0  0  0
   35.6950   28.5650   37.6210 N   0  0  0  0  0  0  0  0  0  0  0  0
   36.6100   29.5140   37.3970 C   0  0  0  0  0  0  0  0  0  0  0  0
   36.9150   29.8980   36.1600 N   0  0  0  0  0  0  0  0  0  0  0  0
   37.2510   30.1040   38.5560 N   0  0  0  0  0  0  0  0  0  0  0  0
   38.5640   30.6270   38.4190 C   0  0  0  0  0  0  0  0  0  0  0  0
   38.7560   31.8600   39.2020 C   0  0  0  0  0  0  0  0  0  0  0  0
   37.5710   32.4450   39.8800 C   0  0  0  0  0  0  0  0  0  0  0  0
   36.5790   31.4910   40.4200 C   0  0  0  0  0  0  0  0  0  0  0  0
   36.5260   30.1340   39.8050 C   0  0  2  0  0  0  0  0  0  0  0  0
   34.8100   27.8420   34.4960 H   0  0  0  0  0  0  0  0  0  0  0  0
   34.3080   27.1910   36.8440 H   0  0  0  0  0  0  0  0  0  0  0  0
   38.8230   30.7610   37.3430 H   0  0  0  0  0  0  0  0  0  0  0  0
   39.2680   29.8170   38.7710 H   0  0  0  0  0  0  0  0  0  0  0  0
   39.1800   32.6450   38.5290 H   0  0  0  0  0  0  0  0  0  0  0  0
   39.5670   31.7030   39.9700 H   0  0  0  0  0  0  0  0  0  0  0  0
   37.9580   33.1360   40.6830 H   0  0  0  0  0  0  0  0  0  0  0  0
   37.0490   33.1110   39.1540 H   0  0  0  0  0  0  0  0  0  0  0  0
   36.7470   31.4290   41.5240 H   0  0  0  0  0  0  0  0  0  0  0  0
   35.5450   31.9170   40.3380 H   0  0  0  0  0  0  0  0  0  0  0  0
   35.4940   29.7500   39.6780 H   0  0  0  0  0  0  0  0  0  0  0  0
   37.2500   29.1920   40.7320 C   0  0  1  0  0  3  0  0  0  0  0  0
   37.3390   29.6860   42.1550 C   0  0  0  0  0  3  0  0  0  0  0  0
   36.3480   30.1240   42.3990 H   0  0  0  0  0  0  0  0  0  0  0  0
   37.4070   28.3680   42.9210 C   0  0  0  0  0  3  0  0  0  0  0  0
   38.3700   28.2920   43.4480 H   0  0  0  0  0  0  0  0  0  0  0  0
   37.3530   27.3540   41.9730 O   0  0  0  0  0  0  0  0  0  0  0  0
   36.5380   27.8750   40.9450 C   0  0  0  0  0  3  0  0  0  0  0  0
   35.5340   27.9700   41.3700 H   0  0  0  0  0  0  0  0  0  0  0  0
   36.5630   29.6740   33.8200 O   0  0  0  0  0  0  0  0  0  0  0  0
   36.3500   30.9110   33.2520 C   0  0  0  0  0  0  0  0  0  0  0  0
   35.3230   31.6440   33.4270 O   0  0  0  0  0  0  0  0  0  0  0  0
   37.2910   31.5080   32.3850 N   0  0  0  0  0  0  0  0  0  0  0  0
   37.4790   31.0780   31.4320 H   0  0  0  0  0  0  0  0  0  0  0  0
   37.9250   32.3530   32.4290 H   0  0  0  0  0  0  0  0  0  0  0  0
  1  2  2  0  0  0  0
  1  6  1  0  0  0  0
  2  3  1  0  0  0  0
  3 14  1  0  0  0  0
  3  4  2  0  0  0  0
  5  4  1  0  0  0  0
  5  7  1  0  0  0  0
  6  5  2  0  0  0  0
  7 12  1  0  0  0  0
  8  7  1  0  0  0  0
  8 16  1  0  0  0  0
  8  9  1  0  0  0  0
  9 10  1  0  0  0  0
  9 18  1  0  0  0  0
 10 11  1  0  0  0  0
 10 19  1  0  0  0  0
 11 21  1  0  0  0  0
 12 23  1  6  0  0  0
 12 11  1  0  0  0  0
 12 24  1  0  0  0  0
 13  2  1  0  0  0  0
 15  8  1  0  0  0  0
 17  9  1  0  0  0  0
 20 10  1  0  0  0  0
 22 11  1  0  0  0  0
 24 30  1  1  0  0  0
 24 25  1  0  0  0  0
 25 26  1  0  0  0  0
 25 27  1  0  0  0  0
 27 28  1  0  0  0  0
 29 27  1  0  0  0  0
 30 31  1  0  0  0  0
 30 29  1  0  0  0  0
 32  1  1  0  0  0  0
 33 34  2  0  0  0  0
 33 32  1  0  0  0  0
 35 37  1  0  0  0  0
 35 33  1  0  0  0  0
 36 35  1  0  0  0  0
M  END
>  <minimizedAffinity>
-5.06801558

$$$$

 OpenBabel03242512463D

 37 39  0  0  1  0  0  0  0  0999 V2000
   37.0320   29.4660   37.7320 C   0  0  0  0  0  0  0  0  0  0  0  0
   36.4890   28.3270   37.0800 C   0  0  0  0  0  0  0  0  0  0  0  0
   36.5420   27.1100   37.7620 C   0  0  0  0  0  0  0  0  0  0  0  0
   37.1120   27.1010   39.0090 N   0  0  0  0  0  0  0  0  0  0  0  0
   37.6080   28.2070   39.5740 C   0  0  0  0  0  0  0  0  0  0  0  0
   37.5700   29.3790   38.9440 N   0  0  0  0  0  0  0  0  0  0  0  0
   38.1860   28.0740   40.8970 N   0  0  0  0  0  0  0  0  0  0  0  0
   39.2080   28.9770   41.2900 C   0  0  0  0  0  0  0  0  0  0  0  0
   39.0940   29.3630   42.7070 C   0  0  0  0  0  0  0  0  0  0  0  0
   37.9030   28.8970   43.4610 C   0  0  0  0  0  0  0  0  0  0  0  0
   37.3860   27.5550   43.1190 C   0  0  0  0  0  0  0  0  0  0  0  0
   37.6980   27.0250   41.7620 C   0  0  2  0  0  0  0  0  0  0  0  0
   36.0470   28.3400   36.1110 H   0  0  0  0  0  0  0  0  0  0  0  0
   36.1650   26.1960   37.3670 H   0  0  0  0  0  0  0  0  0  0  0  0
   39.2360   29.8600   40.6100 H   0  0  0  0  0  0  0  0  0  0  0  0
   40.1890   28.4520   41.0980 H   0  0  0  0  0  0  0  0  0  0  0  0
   39.1190   30.4780   42.7750 H   0  0  0  0  0  0  0  0  0  0  0  0
   40.0200   29.0430   43.2670 H   0  0  0  0  0  0  0  0  0  0  0  0
   38.1550   28.9740   44.5590 H   0  0  0  0  0  0  0  0  0  0  0  0
   37.0800   29.6340   43.3030 H   0  0  0  0  0  0  0  0  0  0  0  0
   37.7350   26.8530   43.9170 H   0  0  0  0  0  0  0  0  0  0  0  0
   36.2700   27.5300   43.2220 H   0  0  0  0  0  0  0  0  0  0  0  0
   36.8480   26.4860   41.2960 H   0  0  0  0  0  0  0  0  0  0  0  0
   38.8310   26.0430   41.9110 C   0  0  1  0  0  3  0  0  0  0  0  0
   39.2380   25.7960   43.3420 C   0  0  0  0  0  3  0  0  0  0  0  0
   38.2990   25.7210   43.9280 H   0  0  0  0  0  0  0  0  0  0  0  0
   39.7840   24.3740   43.2520 C   0  0  0  0  0  3  0  0  0  0  0  0
   40.8550   24.3690   43.5030 H   0  0  0  0  0  0  0  0  0  0  0  0
   39.6500   23.9790   41.9270 O   0  0  0  0  0  0  0  0  0  0  0  0
   38.4820   24.6360   41.4790 C   0  0  0  0  0  3  0  0  0  0  0  0
   37.6500   24.1890   42.0320 H   0  0  0  0  0  0  0  0  0  0  0  0
   36.9530   30.6280   37.0190 O   0  0  0  0  0  0  0  0  0  0  0  0
   37.6250   31.7960   37.3050 C   0  0  0  0  0  0  0  0  0  0  0  0
   37.3430   32.6050   38.2470 O   0  0  0  0  0  0  0  0  0  0  0  0
   38.7380   32.2250   36.5480 N   0  0  0  0  0  0  0  0  0  0  0  0
   38.6050   32.5220   35.5370 H   0  0  0  0  0  0  0  0  0  0  0  0
   39.7710   32.3420   36.7310 H   0  0  0  0  0  0  0  0  0  0  0  0
  1  6  1  0  0  0  0
  2  1  2  0  0  0  0
  2  3  1  0  0  0  0
  3  4  2  0  0  0  0
  4  5  1  0  0  0  0
  5  7  1  0  0  0  0
  6  5  2  0  0  0  0
  7  8  1  0  0  0  0
  7 12  1  0  0  0  0
  8  9  1  0  0  0  0
  9 17  1  0  0  0  0
  9 18  1  0  0  0  0
  9 10  1  0  0  0  0
 10 19  1  0  0  0  0
 11 22  1  0  0  0  0
 11 10  1  0  0  0  0
 11 21  1  0  0  0  0
 12 23  1  6  0  0  0
 12 24  1  0  0  0  0
 12 11  1  0  0  0  0
 13  2  1  0  0  0  0
 14  3  1  0  0  0  0
 15  8  1  0  0  0  0
 16  8  1  0  0  0  0
 20 10  1  0  0  0  0
 24 30  1  1  0  0  0
 24 25  1  0  0  0  0
 25 26  1  0  0  0  0
 27 25  1  0  0  0  0
 27 28  1  0  0  0  0
 29 27  1  0  0  0  0
 30 29  1  0  0  0  0
 30 31  1  0  0  0  0
 32 33  1  0  0  0  0
 32  1  1  0  0  0  0
 33 34  2  0  0  0  0
 35 37  1  0  0  0  0
 35 33  1  0  0  0  0
 36 35  1  0  0  0  0
M  END
>  <minimizedAffinity>
-5.05227041

$$$$

 OpenBabel03242512463D

 37 39  0  0  1  0  0  0  0  0999 V2000
   37.9440   30.6030   41.1330 C   0  0  0  0  0  0  0  0  0  0  0  0
   36.6320   30.9520   40.7180 C   0  0  0  0  0  0  0  0  0  0  0  0
   35.7810   29.9120   40.3380 C   0  0  0  0  0  0  0  0  0  0  0  0
   36.2710   28.6320   40.3920 N   0  0  0  0  0  0  0  0  0  0  0  0
   37.5190   28.3640   40.7930 C   0  0  0  0  0  0  0  0  0  0  0  0
   38.3490   29.3380   41.1590 N   0  0  0  0  0  0  0  0  0  0  0  0
   37.9260   26.9730   40.8080 N   0  0  0  0  0  0  0  0  0  0  0  0
   39.2990   26.6600   40.6340 C   0  0  0  0  0  0  0  0  0  0  0  0
   39.7240   25.5310   41.4800 C   0  0  0  0  0  0  0  0  0  0  0  0
   38.7490   24.9910   42.4610 C   0  0  0  0  0  0  0  0  0  0  0  0
   37.3290   24.9830   42.0470 C   0  0  0  0  0  0  0  0  0  0  0  0
   36.9140   25.9600   41.0010 C   0  0  2  0  0  0  0  0  0  0  0  0
   36.2540   31.9470   40.6780 H   0  0  0  0  0  0  0  0  0  0  0  0
   34.7780   30.0600   40.0100 H   0  0  0  0  0  0  0  0  0  0  0  0
   39.9310   27.5660   40.7860 H   0  0  0  0  0  0  0  0  0  0  0  0
   39.4340   26.4110   39.5410 H   0  0  0  0  0  0  0  0  0  0  0  0
   40.6370   25.8360   42.0480 H   0  0  0  0  0  0  0  0  0  0  0  0
   40.0880   24.6820   40.8320 H   0  0  0  0  0  0  0  0  0  0  0  0
   39.1020   23.9570   42.7430 H   0  0  0  0  0  0  0  0  0  0  0  0
   38.8310   25.5890   43.3990 H   0  0  0  0  0  0  0  0  0  0  0  0
   37.0790   23.9350   41.7440 H   0  0  0  0  0  0  0  0  0  0  0  0
   36.6650   25.1630   42.9320 H   0  0  0  0  0  0  0  0  0  0  0  0
   35.9220   26.4170   41.1970 H   0  0  0  0  0  0  0  0  0  0  0  0
   36.8180   25.2100   39.6970 C   0  0  1  0  0  3  0  0  0  0  0  0
   36.1150   23.8800   39.8100 C   0  0  0  0  0  3  0  0  0  0  0  0
   35.2410   24.0420   40.4740 H   0  0  0  0  0  0  0  0  0  0  0  0
   35.5430   23.7290   38.4030 C   0  0  0  0  0  3  0  0  0  0  0  0
   35.9890   22.8520   37.9110 H   0  0  0  0  0  0  0  0  0  0  0  0
   35.9240   24.8620   37.6950 O   0  0  0  0  0  0  0  0  0  0  0  0
   35.9510   25.8910   38.6620 C   0  0  0  0  0  3  0  0  0  0  0  0
   34.9130   26.0430   38.9750 H   0  0  0  0  0  0  0  0  0  0  0  0
   38.7320   31.6600   41.4940 O   0  0  0  0  0  0  0  0  0  0  0  0
   38.9370   32.8010   40.7500 C   0  0  0  0  0  0  0  0  0  0  0  0
   39.3690   32.8420   39.5520 O   0  0  0  0  0  0  0  0  0  0  0  0
   38.6780   34.0890   41.2690 N   0  0  0  0  0  0  0  0  0  0  0  0
   39.2750   34.4700   42.0600 H   0  0  0  0  0  0  0  0  0  0  0  0
   37.9810   34.8560   41.0630 H   0  0  0  0  0  0  0  0  0  0  0  0
  1  6  1  0  0  0  0
  1 32  1  0  0  0  0
  2  1  2  0  0  0  0
  3  4  2  0  0  0  0
  3  2  1  0  0  0  0
  4  5  1  0  0  0  0
  5  7  1  0  0  0  0
  5  6  2  0  0  0  0
  7 12  1  0  0  0  0
  8 15  1  0  0  0  0
  8  7  1  0  0  0  0
  8  9  1  0  0  0  0
  9 17  1  0  0  0  0
  9 10  1  0  0  0  0
 10 19  1  0  0  0  0
 10 20  1  0  0  0  0
 11 10  1  0  0  0  0
 11 22  1  0  0  0  0
 12 23  1  1  0  0  0
 12 11  1  0  0  0  0
 13  2  1  0  0  0  0
 14  3  1  0  0  0  0
 16  8  1  0  0  0  0
 18  9  1  0  0  0  0
 21 11  1  0  0  0  0
 24 30  1  6  0  0  0
 24 25  1  0  0  0  0
 24 12  1  0  0  0  0
 25 26  1  0  0  0  0
 27 25  1  0  0  0  0
 28 27  1  0  0  0  0
 29 27  1  0  0  0  0
 29 30  1  0  0  0  0
 30 31  1  0  0  0  0
 33 35  1  0  0  0  0
 33 32  1  0  0  0  0
 34 33  2  0  0  0  0
 35 36  1  0  0  0  0
 37 35  1  0  0  0  0
M  END
>  <minimizedAffinity>
-5.01431751

$$$$

 OpenBabel03242512463D

 37 39  0  0  1  0  0  0  0  0999 V2000
   38.3880   31.6470   39.7840 C   0  0  0  0  0  0  0  0  0  0  0  0
   37.0000   31.6910   40.0790 C   0  0  0  0  0  0  0  0  0  0  0  0
   36.4530   30.6030   40.7620 C   0  0  0  0  0  0  0  0  0  0  0  0
   37.2930   29.5720   41.0980 N   0  0  0  0  0  0  0  0  0  0  0  0
   38.5950   29.5860   40.7930 C   0  0  0  0  0  0  0  0  0  0  0  0
   39.1390   30.6120   40.1420 N   0  0  0  0  0  0  0  0  0  0  0  0
   39.3840   28.4400   41.2000 N   0  0  0  0  0  0  0  0  0  0  0  0
   40.5380   28.1010   40.4460 C   0  0  0  0  0  0  0  0  0  0  0  0
   41.6430   27.6320   41.3000 C   0  0  0  0  0  0  0  0  0  0  0  0
   41.4650   27.7090   42.7720 C   0  0  0  0  0  0  0  0  0  0  0  0
   40.1030   27.4550   43.2890 C   0  0  0  0  0  0  0  0  0  0  0  0
   38.9620   27.6880   42.3590 C   0  0  2  0  0  0  0  0  0  0  0  0
   36.3510   32.4940   39.8160 H   0  0  0  0  0  0  0  0  0  0  0  0
   35.4260   30.5330   41.0340 H   0  0  0  0  0  0  0  0  0  0  0  0
   40.8400   28.9490   39.7880 H   0  0  0  0  0  0  0  0  0  0  0  0
   40.2210   27.2930   39.7240 H   0  0  0  0  0  0  0  0  0  0  0  0
   42.5630   28.2120   41.0420 H   0  0  0  0  0  0  0  0  0  0  0  0
   41.9140   26.5710   41.0270 H   0  0  0  0  0  0  0  0  0  0  0  0
   42.2180   27.0070   43.2340 H   0  0  0  0  0  0  0  0  0  0  0  0
   41.7770   28.7270   43.1080 H   0  0  0  0  0  0  0  0  0  0  0  0
   40.0910   26.4110   43.6910 H   0  0  0  0  0  0  0  0  0  0  0  0
   39.9080   28.0850   44.1960 H   0  0  0  0  0  0  0  0  0  0  0  0
   38.0870   28.1640   42.8480 H   0  0  0  0  0  0  0  0  0  0  0  0
   38.5180   26.3420   41.8460 C   0  0  1  0  0  3  0  0  0  0  0  0
   39.1670   25.1770   42.5510 C   0  0  0  0  0  3  0  0  0  0  0  0
   39.1830   25.4320   43.6310 H   0  0  0  0  0  0  0  0  0  0  0  0
   38.0950   24.1030   42.3950 C   0  0  0  0  0  3  0  0  0  0  0  0
   38.4850   23.2710   41.7910 H   0  0  0  0  0  0  0  0  0  0  0  0
   37.0450   24.6870   41.6980 O   0  0  0  0  0  0  0  0  0  0  0  0
   37.0590   26.0390   42.1060 C   0  0  0  0  0  3  0  0  0  0  0  0
   36.7810   26.0410   43.1640 H   0  0  0  0  0  0  0  0  0  0  0  0
   38.8670   32.7380   39.1140 O   0  0  0  0  0  0  0  0  0  0  0  0
   40.0200   32.7770   38.3610 C   0  0  0  0  0  0  0  0  0  0  0  0
   41.1740   33.1140   38.7820 O   0  0  0  0  0  0  0  0  0  0  0  0
   40.0300   32.4340   36.9910 N   0  0  0  0  0  0  0  0  0  0  0  0
   39.5230   33.0490   36.2890 H   0  0  0  0  0  0  0  0  0  0  0  0
   40.4480   31.6540   36.4140 H   0  0  0  0  0  0  0  0  0  0  0  0
  1  2  2  0  0  0  0
  1  6  1  0  0  0  0
  2  3  1  0  0  0  0
  3 14  1  0  0  0  0
  3  4  2  0  0  0  0
  5  4  1  0  0  0  0
  5  7  1  0  0  0  0
  6  5  2  0  0  0  0
  7 12  1  0  0  0  0
  8  7  1  0  0  0  0
  8  9  1  0  0  0  0
  9 10  1  0  0  0  0
 10 20  1  0  0  0  0
 10 19  1  0  0  0  0
 10 11  1  0  0  0  0
 11 21  1  0  0  0  0
 11 22  1  0  0  0  0
 12 23  1  1  0  0  0
 12 11  1  0  0  0  0
 13  2  1  0  0  0  0
 15  8  1  0  0  0  0
 16  8  1  0  0  0  0
 17  9  1  0  0  0  0
 18  9  1  0  0  0  0
 24 30  1  1  0  0  0
 24 12  1  0  0  0  0
 24 25  1  0  0  0  0
 25 26  1  0  0  0  0
 27 25  1  0  0  0  0
 28 27  1  0  0  0  0
 29 30  1  0  0  0  0
 29 27  1  0  0  0  0
 30 31  1  0  0  0  0
 32  1  1  0  0  0  0
 33 34  2  0  0  0  0
 33 32  1  0  0  0  0
 35 33  1  0  0  0  0
 36 35  1  0  0  0  0
 37 35  1  0  0  0  0
M  END
>  <minimizedAffinity>
-4.93992329

$$$$

 OpenBabel03242512463D

 37 39  0  0  1  0  0  0  0  0999 V2000
   37.8260   27.9870   41.8130 C   0  0  0  0  0  0  0  0  0  0  0  0
   38.8460   27.8560   42.7920 C   0  0  0  0  0  0  0  0  0  0  0  0
   39.8100   28.8640   42.8540 C   0  0  0  0  0  0  0  0  0  0  0  0
   39.7040   29.9050   41.9680 N   0  0  0  0  0  0  0  0  0  0  0  0
   38.7190   29.9750   41.0660 C   0  0  0  0  0  0  0  0  0  0  0  0
   37.7880   29.0270   40.9870 N   0  0  0  0  0  0  0  0  0  0  0  0
   38.7110   31.1250   40.1820 N   0  0  0  0  0  0  0  0  0  0  0  0
   38.1250   30.9930   38.8950 C   0  0  0  0  0  0  0  0  0  0  0  0
   37.3930   32.2060   38.4910 C   0  0  0  0  0  0  0  0  0  0  0  0
   37.2470   33.2950   39.4890 C   0  0  0  0  0  0  0  0  0  0  0  0
   38.3870   33.5110   40.4060 C   0  0  0  0  0  0  0  0  0  0  0  0
   39.3000   32.3590   40.6480 C   0  0  2  0  0  0  0  0  0  0  0  0
   38.9240   27.0450   43.4790 H   0  0  0  0  0  0  0  0  0  0  0  0
   40.6170   28.8660   43.5490 H   0  0  0  0  0  0  0  0  0  0  0  0
   37.4930   30.0770   38.8440 H   0  0  0  0  0  0  0  0  0  0  0  0
   38.9720   30.7820   38.1790 H   0  0  0  0  0  0  0  0  0  0  0  0
   36.3660   31.9090   38.1650 H   0  0  0  0  0  0  0  0  0  0  0  0
   37.8530   32.6370   37.5550 H   0  0  0  0  0  0  0  0  0  0  0  0
   36.9940   34.2350   38.9180 H   0  0  0  0  0  0  0  0  0  0  0  0
   36.3430   33.0820   40.1070 H   0  0  0  0  0  0  0  0  0  0  0  0
   38.9490   34.4020   40.0310 H   0  0  0  0  0  0  0  0  0  0  0  0
   38.0190   33.8410   41.4130 H   0  0  0  0  0  0  0  0  0  0  0  0
   39.6270   32.2720   41.7040 H   0  0  0  0  0  0  0  0  0  0  0  0
   40.5320   32.5770   39.8080 C   0  0  1  0  0  3  0  0  0  0  0  0
   40.7310   34.0110   39.3810 C   0  0  0  0  0  3  0  0  0  0  0  0
   40.4880   34.6390   40.2630 H   0  0  0  0  0  0  0  0  0  0  0  0
   42.2500   34.0680   39.2400 C   0  0  0  0  0  3  0  0  0  0  0  0
   42.5200   34.2750   38.1940 H   0  0  0  0  0  0  0  0  0  0  0  0
   42.7280   32.8050   39.5670 O   0  0  0  0  0  0  0  0  0  0  0  0
   41.8280   32.3300   40.5470 C   0  0  0  0  0  3  0  0  0  0  0  0
   41.9720   32.9650   41.4270 H   0  0  0  0  0  0  0  0  0  0  0  0
   36.9100   26.9730   41.7980 O   0  0  0  0  0  0  0  0  0  0  0  0
   37.1820   25.6470   41.5400 C   0  0  0  0  0  0  0  0  0  0  0  0
   36.8150   24.6600   42.2570 O   0  0  0  0  0  0  0  0  0  0  0  0
   37.9240   25.2410   40.4100 N   0  0  0  0  0  0  0  0  0  0  0  0
   38.9540   25.4890   40.3380 H   0  0  0  0  0  0  0  0  0  0  0  0
   37.7140   24.7020   39.5260 H   0  0  0  0  0  0  0  0  0  0  0  0
  1  2  1  0  0  0  0
  2  3  2  0  0  0  0
  2 13  1  0  0  0  0
  3 14  1  0  0  0  0
  4  3  1  0  0  0  0
  5  4  2  0  0  0  0
  6  5  1  0  0  0  0
  6  1  2  0  0  0  0
  7 12  1  0  0  0  0
  7  5  1  0  0  0  0
  8  7  1  0  0  0  0
  9  8  1  0  0  0  0
  9 10  1  0  0  0  0
 10 20  1  0  0  0  0
 10 11  1  0  0  0  0
 11 12  1  0  0  0  0
 11 22  1  0  0  0  0
 12 23  1  1  0  0  0
 15  8  1  0  0  0  0
 16  8  1  0  0  0  0
 17  9  1  0  0  0  0
 18  9  1  0  0  0  0
 19 10  1  0  0  0  0
 21 11  1  0  0  0  0
 24 25  1  1  0  0  0
 24 30  1  0  0  0  0
 24 12  1  0  0  0  0
 25 26  1  0  0  0  0
 27 25  1  0  0  0  0
 27 29  1  0  0  0  0
 28 27  1  0  0  0  0
 29 30  1  0  0  0  0
 30 31  1  0  0  0  0
 32  1  1  0  0  0  0
 33 32  1  0  0  0  0
 33 34  2  0  0  0  0
 35 33  1  0  0  0  0
 36 35  1  0  0  0  0
 37 35  1  0  0  0  0
M  END
>  <minimizedAffinity>
-4.91983366

$$$$

 OpenBabel03242512463D

 37 39  0  0  1  0  0  0  0  0999 V2000
   40.7330   31.9770   41.2240 C   0  0  0  0  0  0  0  0  0  0  0  0
   40.5060   33.1220   40.4160 C   0  0  0  0  0  0  0  0  0  0  0  0
   39.4130   33.0880   39.5460 C   0  0  0  0  0  0  0  0  0  0  0  0
   38.6410   31.9550   39.5350 N   0  0  0  0  0  0  0  0  0  0  0  0
   38.9050   30.9050   40.3210 C   0  0  0  0  0  0  0  0  0  0  0  0
   39.9400   30.9140   41.1570 N   0  0  0  0  0  0  0  0  0  0  0  0
   38.0180   29.7620   40.2200 N   0  0  0  0  0  0  0  0  0  0  0  0
   38.5270   28.4730   40.5260 C   0  0  0  0  0  0  0  0  0  0  0  0
   37.5400   27.6390   41.2340 C   0  0  0  0  0  0  0  0  0  0  0  0
   36.2610   28.2720   41.6440 C   0  0  0  0  0  0  0  0  0  0  0  0
   35.7020   29.2880   40.7270 C   0  0  0  0  0  0  0  0  0  0  0  0
   36.6500   29.9840   39.8130 C   0  0  2  0  0  0  0  0  0  0  0  0
   41.1080   34.0010   40.4280 H   0  0  0  0  0  0  0  0  0  0  0  0
   39.1510   33.8900   38.8970 H   0  0  0  0  0  0  0  0  0  0  0  0
   39.4920   28.5520   41.0790 H   0  0  0  0  0  0  0  0  0  0  0  0
   38.8140   28.0010   39.5410 H   0  0  0  0  0  0  0  0  0  0  0  0
   38.0200   27.2250   42.1550 H   0  0  0  0  0  0  0  0  0  0  0  0
   37.3060   26.7210   40.6220 H   0  0  0  0  0  0  0  0  0  0  0  0
   35.5250   27.4380   41.8330 H   0  0  0  0  0  0  0  0  0  0  0  0
   36.4140   28.7530   42.6390 H   0  0  0  0  0  0  0  0  0  0  0  0
   34.8740   28.7980   40.1550 H   0  0  0  0  0  0  0  0  0  0  0  0
   35.1750   30.0890   41.3090 H   0  0  0  0  0  0  0  0  0  0  0  0
   36.4360   31.0670   39.7000 H   0  0  0  0  0  0  0  0  0  0  0  0
   36.5110   29.3500   38.4520 C   0  0  1  0  0  3  0  0  0  0  0  0
   35.1100   28.8880   38.1370 C   0  0  0  0  0  3  0  0  0  0  0  0
   34.4260   29.6830   38.5010 H   0  0  0  0  0  0  0  0  0  0  0  0
   35.0990   28.9990   36.6150 C   0  0  0  0  0  3  0  0  0  0  0  0
   34.9590   28.0020   36.1700 H   0  0  0  0  0  0  0  0  0  0  0  0
   36.3520   29.4660   36.2410 O   0  0  0  0  0  0  0  0  0  0  0  0
   36.7480   30.3060   37.3050 C   0  0  0  0  0  3  0  0  0  0  0  0
   36.0670   31.1630   37.2860 H   0  0  0  0  0  0  0  0  0  0  0  0
   41.8150   32.0670   42.0550 O   0  0  0  0  0  0  0  0  0  0  0  0
   42.9420   32.8260   41.8300 C   0  0  0  0  0  0  0  0  0  0  0  0
   43.8230   32.6040   40.9370 O   0  0  0  0  0  0  0  0  0  0  0  0
   43.2400   33.9710   42.6020 N   0  0  0  0  0  0  0  0  0  0  0  0
   43.4890   33.8650   43.6280 H   0  0  0  0  0  0  0  0  0  0  0  0
   43.2890   35.0100   42.4180 H   0  0  0  0  0  0  0  0  0  0  0  0
  1 32  1  0  0  0  0
  2 13  1  0  0  0  0
  2  1  2  0  0  0  0
  3  2  1  0  0  0  0
  4  3  2  0  0  0  0
  4  5  1  0  0  0  0
  5  6  2  0  0  0  0
  6  1  1  0  0  0  0
  7  5  1  0  0  0  0
  7  8  1  0  0  0  0
  8 15  1  0  0  0  0
  8  9  1  0  0  0  0
  9 10  1  0  0  0  0
  9 17  1  0  0  0  0
 10 19  1  0  0  0  0
 10 20  1  0  0  0  0
 11 22  1  0  0  0  0
 11 10  1  0  0  0  0
 12 23  1  6  0  0  0
 12  7  1  0  0  0  0
 12 11  1  0  0  0  0
 14  3  1  0  0  0  0
 16  8  1  0  0  0  0
 18  9  1  0  0  0  0
 21 11  1  0  0  0  0
 24 30  1  6  0  0  0
 24 12  1  0  0  0  0
 25 24  1  0  0  0  0
 25 26  1  0  0  0  0
 27 25  1  0  0  0  0
 28 27  1  0  0  0  0
 29 27  1  0  0  0  0
 29 30  1  0  0  0  0
 31 30  1  0  0  0  0
 33 32  1  0  0  0  0
 33 35  1  0  0  0  0
 34 33  2  0  0  0  0
 35 36  1  0  0  0  0
 37 35  1  0  0  0  0
M  END
>  <minimizedAffinity>
-4.70161629

$$$$

 OpenBabel03242512463D

 37 39  0  0  1  0  0  0  0  0999 V2000
   36.3440   26.1680   39.1140 C   0  0  0  0  0  0  0  0  0  0  0  0
   36.3580   26.5060   37.7350 C   0  0  0  0  0  0  0  0  0  0  0  0
   36.8020   27.7850   37.3920 C   0  0  0  0  0  0  0  0  0  0  0  0
   37.1910   28.6200   38.4070 N   0  0  0  0  0  0  0  0  0  0  0  0
   37.1570   28.2460   39.6900 C   0  0  0  0  0  0  0  0  0  0  0  0
   36.7370   27.0330   40.0430 N   0  0  0  0  0  0  0  0  0  0  0  0
   37.5930   29.2150   40.6760 N   0  0  0  0  0  0  0  0  0  0  0  0
   37.0550   29.1470   41.9880 C   0  0  0  0  0  0  0  0  0  0  0  0
   38.0610   29.4590   43.0180 C   0  0  0  0  0  0  0  0  0  0  0  0
   39.4670   29.6500   42.5820 C   0  0  0  0  0  0  0  0  0  0  0  0
   39.6710   30.3010   41.2700 C   0  0  0  0  0  0  0  0  0  0  0  0
   38.5600   30.2130   40.2810 C   0  0  2  0  0  0  0  0  0  0  0  0
   36.0540   25.8530   36.9490 H   0  0  0  0  0  0  0  0  0  0  0  0
   36.8530   28.1420   36.3890 H   0  0  0  0  0  0  0  0  0  0  0  0
   36.5620   28.1620   42.1590 H   0  0  0  0  0  0  0  0  0  0  0  0
   36.2050   29.8890   42.0230 H   0  0  0  0  0  0  0  0  0  0  0  0
   38.0540   28.6410   43.7800 H   0  0  0  0  0  0  0  0  0  0  0  0
   37.7400   30.3690   43.6030 H   0  0  0  0  0  0  0  0  0  0  0  0
   39.9950   30.2110   43.4070 H   0  0  0  0  0  0  0  0  0  0  0  0
   39.9610   28.6500   42.5520 H   0  0  0  0  0  0  0  0  0  0  0  0
   39.9530   31.3650   41.4690 H   0  0  0  0  0  0  0  0  0  0  0  0
   40.5800   29.8820   40.7660 H   0  0  0  0  0  0  0  0  0  0  0  0
   38.9100   30.0430   39.2420 H   0  0  0  0  0  0  0  0  0  0  0  0
   37.8320   31.5330   40.3030 C   0  0  1  0  0  3  0  0  0  0  0  0
   38.6900   32.6940   40.7410 C   0  0  0  0  0  3  0  0  0  0  0  0
   39.6760   32.5610   40.2480 H   0  0  0  0  0  0  0  0  0  0  0  0
   38.0160   33.8510   40.0100 C   0  0  0  0  0  3  0  0  0  0  0  0
   37.6060   34.5650   40.7400 H   0  0  0  0  0  0  0  0  0  0  0  0
   36.9550   33.3070   39.2970 O   0  0  0  0  0  0  0  0  0  0  0  0
   37.3980   32.0150   38.9370 C   0  0  0  0  0  3  0  0  0  0  0  0
   38.2190   32.1600   38.2290 H   0  0  0  0  0  0  0  0  0  0  0  0
   35.9010   24.9050   39.3910 O   0  0  0  0  0  0  0  0  0  0  0  0
   36.4750   24.0290   40.2850 C   0  0  0  0  0  0  0  0  0  0  0  0
   36.8410   22.8360   40.0280 O   0  0  0  0  0  0  0  0  0  0  0  0
   36.7230   24.3850   41.6290 N   0  0  0  0  0  0  0  0  0  0  0  0
   35.9080   24.5590   42.2880 H   0  0  0  0  0  0  0  0  0  0  0  0
   37.5850   24.5420   42.2190 H   0  0  0  0  0  0  0  0  0  0  0  0
  1 32  1  0  0  0  0
  1  6  1  0  0  0  0
  2  1  2  0  0  0  0
  3  2  1  0  0  0  0
  3  4  2  0  0  0  0
  4  5  1  0  0  0  0
  5  6  2  0  0  0  0
  5  7  1  0  0  0  0
  7  8  1  0  0  0  0
  8 16  1  0  0  0  0
  8 15  1  0  0  0  0
  8  9  1  0  0  0  0
  9 18  1  0  0  0  0
  9 17  1  0  0  0  0
 10  9  1  0  0  0  0
 10 19  1  0  0  0  0
 11 21  1  0  0  0  0
 11 10  1  0  0  0  0
 12 23  1  6  0  0  0
 12 24  1  0  0  0  0
 12  7  1  0  0  0  0
 12 11  1  0  0  0  0
 13  2  1  0  0  0  0
 14  3  1  0  0  0  0
 20 10  1  0  0  0  0
 22 11  1  0  0  0  0
 24 30  1  6  0  0  0
 24 25  1  0  0  0  0
 26 25  1  0  0  0  0
 27 28  1  0  0  0  0
 27 25  1  0  0  0  0
 29 27  1  0  0  0  0
 30 29  1  0  0  0  0
 31 30  1  0  0  0  0
 32 33  1  0  0  0  0
 33 35  1  0  0  0  0
 34 33  2  0  0  0  0
 35 37  1  0  0  0  0
 35 36  1  0  0  0  0
M  END
>  <minimizedAffinity>
-4.58997297

$$$$
