
 OpenBabel03242512453D

 37 39  0  0  1  0  0  0  0  0999 V2000
   45.5020   34.3560   45.0010 C   0  0  0  0  0  0  0  0  0  0  0  0
   46.3660   34.1230   43.8990 C   0  0  0  0  0  0  0  0  0  0  0  0
   47.2730   33.0670   44.0060 C   0  0  0  0  0  0  0  0  0  0  0  0
   47.2650   32.3330   45.1640 N   0  0  0  0  0  0  0  0  0  0  0  0
   46.4260   32.5990   46.1710 C   0  0  0  0  0  0  0  0  0  0  0  0
   45.5530   33.6010   46.0930 N   0  0  0  0  0  0  0  0  0  0  0  0
   46.5110   31.7540   47.3460 N   0  0  0  0  0  0  0  0  0  0  0  0
   46.1320   32.2910   48.6040 C   0  0  0  0  0  0  0  0  0  0  0  0
   45.4260   31.3050   49.4400 C   0  0  0  0  0  0  0  0  0  0  0  0
   45.0910   29.9920   48.8340 C   0  0  0  0  0  0  0  0  0  0  0  0
   46.0710   29.4360   47.8760 C   0  0  0  0  0  0  0  0  0  0  0  0
   46.9780   30.3960   47.1870 C   0  0  2  0  0  0  0  0  0  0  0  0
   46.3680   34.6960   43.0010 H   0  0  0  0  0  0  0  0  0  0  0  0
   47.9660   32.8040   43.2400 H   0  0  0  0  0  0  0  0  0  0  0  0
   45.5470   33.2310   48.4690 H   0  0  0  0  0  0  0  0  0  0  0  0
   47.0840   32.6310   49.1060 H   0  0  0  0  0  0  0  0  0  0  0  0
   44.4710   31.7620   49.8000 H   0  0  0  0  0  0  0  0  0  0  0  0
   46.0070   31.1240   50.3910 H   0  0  0  0  0  0  0  0  0  0  0  0
   44.8940   29.2760   49.6840 H   0  0  0  0  0  0  0  0  0  0  0  0
   44.1120   30.0900   48.3080 H   0  0  0  0  0  0  0  0  0  0  0  0
   46.6520   28.6470   48.4170 H   0  0  0  0  0  0  0  0  0  0  0  0
   45.5430   28.8620   47.0700 H   0  0  0  0  0  0  0  0  0  0  0  0
   47.1450   30.1530   46.1180 H   0  0  0  0  0  0  0  0  0  0  0  0
   48.3140   30.3300   47.8810 C   0  0  1  0  0  0  0  0  0  0  0  0
   48.3440   31.0350   49.2140 C   0  0  0  0  0  0  0  0  0  0  0  0
   47.3910   30.7840   49.7240 H   0  0  0  0  0  0  0  0  0  0  0  0
   49.4240   30.2410   49.9430 C   0  0  0  0  0  0  0  0  0  0  0  0
   50.2770   30.8970   50.1750 H   0  0  0  0  0  0  0  0  0  0  0  0
   49.8620   29.2610   49.0610 O   0  0  0  0  0  0  0  0  0  0  0  0
   48.7170   28.9340   48.3010 C   0  0  0  0  0  0  0  0  0  0  0  0
   48.0180   28.4540   48.9930 H   0  0  0  0  0  0  0  0  0  0  0  0
   44.6360   35.4010   44.8410 O   0  0  0  0  0  0  0  0  0  0  0  0
   44.3820   36.0620   43.6600 C   0  0  0  0  0  0  0  0  0  0  0  0
   45.0790   37.0110   43.1730 O   0  0  0  0  0  0  0  0  0  0  0  0
   43.2770   35.7370   42.8430 N   0  0  0  0  0  0  0  0  0  0  0  0
   42.2910   35.9280   43.1880 H   0  0  0  0  0  0  0  0  0  0  0  0
   43.1500   35.3130   41.8840 H   0  0  0  0  0  0  0  0  0  0  0  0
  1  6  1  0  0  0  0
  2  3  1  0  0  0  0
  2  1  2  0  0  0  0
  3  4  2  0  0  0  0
  4  5  1  0  0  0  0
  5  7  1  0  0  0  0
  6  5  2  0  0  0  0
  7  8  1  0  0  0  0
  8 16  1  0  0  0  0
  8  9  1  0  0  0  0
  9 17  1  0  0  0  0
  9 18  1  0  0  0  0
 10  9  1  0  0  0  0
 10 19  1  0  0  0  0
 11 21  1  0  0  0  0
 11 10  1  0  0  0  0
 12 23  1  6  0  0  0
 12  7  1  0  0  0  0
 12 11  1  0  0  0  0
 12 24  1  0  0  0  0
 13  2  1  0  0  0  0
 14  3  1  0  0  0  0
 15  8  1  0  0  0  0
 20 10  1  0  0  0  0
 22 11  1  0  0  0  0
 24 30  1  1  0  0  0
 24 25  1  0  0  0  0
 25 26  1  0  0  0  0
 25 27  1  0  0  0  0
 27 28  1  0  0  0  0
 29 27  1  0  0  0  0
 30 31  1  0  0  0  0
 30 29  1  0  0  0  0
 32  1  1  0  0  0  0
 33 32  1  0  0  0  0
 34 33  2  0  0  0  0
 35 36  1  0  0  0  0
 35 33  1  0  0  0  0
 37 35  1  0  0  0  0
M  END
>  <minimizedAffinity>
-6.12650013

>  <minimizedRMSD>
0.344873607

$$$$
