REMARK  Name = 
REMARK  4 active torsions:
REMARK  status: ('A' for Active; 'I' for Inactive)
REMARK    1  A    between atoms: C_2  and  N_10
REMARK    2  A    between atoms: C_6  and  C_18
REMARK    3  A    between atoms: C_7  and  C_16
REMARK    4  A    between atoms: C_20  and  C_38
REMARK                            x       y       z     vdW  Elec       q    Type
REMARK                         _______ _______ _______ _____ _____    ______ ____
ROOT
ATOM      1  N   UNL     1      47.559  30.094  47.639  0.00  0.00    +0.000 NA
ATOM      2  C   UNL     1      48.060  29.799  46.352  0.00  0.00    +0.000 C 
ATOM      3  C   UNL     1      47.504  28.480  45.908  0.00  0.00    +0.000 C 
ATOM      4  N   UNL     1      46.081  28.698  45.772  0.00  0.00    +0.000 NA
ATOM      5  C   UNL     1      45.457  28.938  47.045  0.00  0.00    +0.000 C 
ATOM      6  C   UNL     1      46.221  29.844  47.967  0.00  0.00    +0.000 C 
ATOM      7  H   UNL     1      47.947  30.985  47.953  0.00  0.00    +0.000 HD
ATOM      8  H   UNL     1      49.171  29.788  46.410  0.00  0.00    +0.000 HD
ATOM      9  H   UNL     1      47.924  28.143  44.947  0.00  0.00    +0.000 HD
ATOM     10  H   UNL     1      47.741  27.736  46.697  0.00  0.00    +0.000 HD
ATOM     11  H   UNL     1      45.967  29.558  45.186  0.00  0.00    +0.000 HD
ATOM     12  H   UNL     1      45.226  27.934  47.459  0.00  0.00    +0.000 HD
ATOM     13  H   UNL     1      44.435  29.346  46.784  0.00  0.00    +0.000 HD
ATOM     14  H   UNL     1      46.285  29.259  48.923  0.00  0.00    +0.000 HD
ENDROOT
BRANCH   2  18
ATOM     15  C   UNL     1      46.792  32.585  44.561  0.00  0.00    +0.000 A 
ATOM     16  C   UNL     1      47.449  31.916  43.533  0.00  0.00    +0.000 A 
ATOM     17  C   UNL     1      48.005  30.798  44.057  0.00  0.00    +0.000 A 
ATOM     18  N   UNL     1      47.696  30.782  45.377  0.00  0.00    +0.000 N 
ATOM     19  N   UNL     1      46.974  31.857  45.651  0.00  0.00    +0.000 NA
ATOM     20  H   UNL     1      47.520  32.216  42.476  0.00  0.00    +0.000 HD
ATOM     21  H   UNL     1      48.587  30.052  43.534  0.00  0.00    +0.000 HD
BRANCH  15  26
ATOM     22  C   UNL     1      44.605  35.454  45.309  0.00  0.00    +0.000 A 
ATOM     23  C   UNL     1      44.678  36.218  44.137  0.00  0.00    +0.000 A 
ATOM     24  C   UNL     1      45.489  35.721  43.105  0.00  0.00    +0.000 A 
ATOM     25  N   UNL     1      46.143  34.551  43.297  0.00  0.00    +0.000 NA
ATOM     26  C   UNL     1      46.054  33.843  44.429  0.00  0.00    +0.000 A 
ATOM     27  N   UNL     1      45.292  34.281  45.438  0.00  0.00    +0.000 NA
ATOM     28  H   UNL     1      43.981  35.826  46.120  0.00  0.00    +0.000 HD
ATOM     29  H   UNL     1      44.132  37.147  44.040  0.00  0.00    +0.000 HD
ATOM     30  H   UNL     1      45.585  36.262  42.181  0.00  0.00    +0.000 HD
ENDBRANCH  15  26
ENDBRANCH   2  18
BRANCH   6  31
ATOM     31  C   UNL     1      45.361  31.096  48.174  0.00  0.00    +0.000 C 
ATOM     32  C   UNL     1      44.986  31.285  49.636  0.00  0.00    +0.000 C 
ATOM     33  C   UNL     1      45.870  32.254  48.894  0.00  0.00    +0.000 C 
ATOM     34  H   UNL     1      44.597  31.302  47.398  0.00  0.00    +0.000 HD
ATOM     35  H   UNL     1      43.920  31.422  49.781  0.00  0.00    +0.000 HD
ATOM     36  H   UNL     1      45.428  30.599  50.404  0.00  0.00    +0.000 HD
ATOM     37  H   UNL     1      46.953  32.162  49.265  0.00  0.00    +0.000 HD
BRANCH  33  38
ATOM     38  C   UNL     1      45.373  33.624  48.962  0.00  0.00    +0.000 C 
ATOM     39  C   UNL     1      45.726  34.356  47.641  0.00  0.00    +0.000 C 
ATOM     40  H   UNL     1      45.384  35.393  47.647  0.00  0.00    +0.000 HD
ATOM     41  C   UNL     1      47.247  34.407  47.863  0.00  0.00    +0.000 C 
ATOM     42  H   UNL     1      47.690  35.313  47.446  0.00  0.00    +0.000 HD
ATOM     43  O   UNL     1      47.453  34.391  49.239  0.00  0.00    +0.000 OA
ATOM     44  C   UNL     1      46.239  34.538  49.850  0.00  0.00    +0.000 C 
ATOM     45  H   UNL     1      45.839  35.579  49.776  0.00  0.00    +0.000 HD
ENDBRANCH  33  38
ENDBRANCH   6  31
TORSDOF 4
