
 OpenBabel03252502173D

 23 24  0  0  1  0  0  0  0  0999 V2000
   46.3750   35.1890   42.5960 C   0  0  0  0  0  0  0  0  0  0  0  0
   46.8870   34.0890   43.3200 C   0  0  0  0  0  0  0  0  0  0  0  0
   46.3150   33.7950   44.5790 C   0  0  0  0  0  0  0  0  0  0  0  0
   45.3070   34.5740   45.0320 N   0  0  0  0  0  0  0  0  0  0  0  0
   44.8510   35.6200   44.2960 C   0  0  0  0  0  0  0  0  0  0  0  0
   45.3660   35.9370   43.0940 N   0  0  0  0  0  0  0  0  0  0  0  0
   46.8020   35.4210   41.6400 H   0  0  0  0  0  0  0  0  0  0  0  0
   44.0540   36.1880   44.7230 H   0  0  0  0  0  0  0  0  0  0  0  0
   46.8770   32.6310   45.3140 C   0  0  2  0  0  3  0  0  0  0  0  0
   46.0840   31.3650   45.0480 C   0  0  0  0  0  3  0  0  0  0  0  0
   46.3950   30.8360   44.1380 H   0  0  0  0  0  0  0  0  0  0  0  0
   46.3790   30.5930   46.3180 C   0  0  0  0  0  3  0  0  0  0  0  0
   47.3940   30.1770   46.2060 H   0  0  0  0  0  0  0  0  0  0  0  0
   46.2460   31.5620   47.2890 O   0  0  0  0  0  0  0  0  0  0  0  0
   46.7180   32.7500   46.7980 C   0  0  0  0  0  3  0  0  0  0  0  0
   47.7380   32.9210   47.2380 H   0  0  0  0  0  0  0  0  0  0  0  0
   47.9150   33.3820   42.7390 O   0  0  0  0  0  0  0  0  0  0  0  0
   50.4100   33.1790   41.8810 O   0  0  0  0  0  0  0  0  0  0  0  0
   49.3400   34.1660   42.1840 P   0  0  0  0  0  0  0  0  0  0  0  0
   49.0160   35.0330   40.7650 O   0  0  0  0  0  0  0  0  0  0  0  0
   48.8190   34.3450   40.0630 H   0  0  0  0  0  0  0  0  0  0  0  0
   49.9040   35.2420   43.3540 O   0  0  0  0  0  0  0  0  0  0  0  0
   49.1880   35.6350   43.8980 H   0  0  0  0  0  0  0  0  0  0  0  0
  1  6  2  0  0  0  0
  1  2  1  0  0  0  0
  2  3  2  0  0  0  0
  3  4  1  0  0  0  0
  5  8  1  0  0  0  0
  5  4  2  0  0  0  0
  6  5  1  0  0  0  0
  7  1  1  0  0  0  0
  9  3  1  6  0  0  0
  9 15  1  0  0  0  0
 10  9  1  0  0  0  0
 10 12  1  0  0  0  0
 11 10  1  0  0  0  0
 12 14  1  0  0  0  0
 13 12  1  0  0  0  0
 15 16  1  0  0  0  0
 15 14  1  0  0  0  0
 17  2  1  0  0  0  0
 18 19  2  0  0  0  0
 19 17  1  0  0  0  0
 19 22  1  0  0  0  0
 20 19  1  0  0  0  0
 21 20  1  0  0  0  0
 22 23  1  0  0  0  0
M  END
>  <minimizedAffinity>
-5.11622524

>  <minimizedRMSD>
1.1252048

$$$$
