REMARK  Name = 
REMARK  10 active torsions:
REMARK  status: ('A' for Active; 'I' for Inactive)
REMARK    1  A    between atoms: C_1  and  O_12
REMARK    2  A    between atoms: C_2  and  C_3
REMARK    3  A    between atoms: C_3  and  O_4
REMARK    4  A    between atoms: O_4  and  P_6
REMARK    5  A    between atoms: P_6  and  O_7
REMARK    6  A    between atoms: P_6  and  O_8
REMARK    7  A    between atoms: O_8  and  C_9
REMARK    8  A    between atoms: O_12  and  C_13
REMARK    9  A    between atoms: C_13  and  C_15
REMARK   10  A    between atoms: C_18  and  C_34
REMARK                            x       y       z     vdW  Elec       q    Type
REMARK                         _______ _______ _______ _____ _____    ______ ____
ROOT
ATOM      1  O   UNL     1      42.622  35.354  40.617  0.00  0.00    +0.000 OA
ENDROOT
BRANCH   1   2
ATOM      2  C   UNL     1      41.440  35.654  41.207  0.00  0.00    +0.000 C 
ATOM      3  H   UNL     1      41.065  36.630  40.729  0.00  0.00    +0.000 HD
ATOM      4  H   UNL     1      41.393  35.812  42.283  0.00  0.00    +0.000 HD
BRANCH   2   6
ATOM      5  C   UNL     1      40.290  33.538  41.582  0.00  0.00    +0.000 A 
ATOM      6  C   UNL     1      40.316  34.718  40.852  0.00  0.00    +0.000 A 
ATOM      7  C   UNL     1      39.348  34.942  39.922  0.00  0.00    +0.000 A 
ATOM      8  N   UNL     1      38.437  33.995  39.784  0.00  0.00    +0.000 NA
ATOM      9  C   UNL     1      38.387  32.857  40.469  0.00  0.00    +0.000 A 
ATOM     10  N   UNL     1      39.358  32.587  41.430  0.00  0.00    +0.000 NA
ATOM     11  H   UNL     1      41.042  33.319  42.333  0.00  0.00    +0.000 HD
ATOM     12  H   UNL     1      39.398  35.853  39.381  0.00  0.00    +0.000 HD
BRANCH   9  13
ATOM     13  C   UNL     1      37.359  31.788  40.314  0.00  0.00    +0.000 C 
ATOM     14  C   UNL     1      38.044  30.498  39.851  0.00  0.00    +0.000 C 
ATOM     15  H   UNL     1      39.102  30.505  40.195  0.00  0.00    +0.000 HD
ATOM     16  C   UNL     1      37.235  29.486  40.641  0.00  0.00    +0.000 C 
ATOM     17  H   UNL     1      36.324  29.205  40.064  0.00  0.00    +0.000 HD
ATOM     18  O   UNL     1      36.922  30.114  41.844  0.00  0.00    +0.000 OA
ATOM     19  C   UNL     1      36.663  31.442  41.587  0.00  0.00    +0.000 C 
ATOM     20  H   UNL     1      35.550  31.573  41.485  0.00  0.00    +0.000 HD
ENDBRANCH   9  13
ENDBRANCH   2   6
ENDBRANCH   1   2
BRANCH   1  21
ATOM     21  C   UNL     1      43.879  35.207  41.191  0.00  0.00    +0.000 C 
ATOM     22  C   UNL     1      43.965  35.583  42.465  0.00  0.00    +0.000 C 
BRANCH  22  23
ATOM     23  C   UNL     1      45.216  35.528  43.310  0.00  0.00    +0.000 C 
ATOM     24  H   UNL     1      45.982  35.092  42.603  0.00  0.00    +0.000 HD
ATOM     25  H   UNL     1      45.544  36.533  43.617  0.00  0.00    +0.000 HD
BRANCH  23  26
ATOM     26  O   UNL     1      45.003  34.658  44.349  0.00  0.00    +0.000 OA
BRANCH  26  28
ATOM     27  O   UNL     1      45.709  32.500  42.953  0.00  0.00    +0.000 OA
ATOM     28  P   UNL     1      46.001  33.306  44.197  0.00  0.00    +0.000 P 
BRANCH  28  29
ATOM     29  O   UNL     1      47.631  33.799  44.104  0.00  0.00    +0.000 OA
ATOM     30  H   UNL     1      47.705  34.661  44.551  0.00  0.00    +0.000 HD
ENDBRANCH  28  29
BRANCH  28  31
ATOM     31  O   UNL     1      45.862  32.329  45.564  0.00  0.00    +0.000 OA
BRANCH  31  32
ATOM     32  C   UNL     1      46.199  32.991  46.727  0.00  0.00    +0.000 C 
ATOM     33  C   UNL     1      47.058  32.297  47.738  0.00  0.00    +0.000 C 
ATOM     34  C   UNL     1      45.566  32.444  47.983  0.00  0.00    +0.000 C 
ATOM     35  H   UNL     1      46.279  34.084  46.636  0.00  0.00    +0.000 HD
ATOM     36  H   UNL     1      47.486  31.329  47.456  0.00  0.00    +0.000 HD
ATOM     37  H   UNL     1      47.708  32.962  48.332  0.00  0.00    +0.000 HD
ATOM     38  H   UNL     1      45.216  33.133  48.767  0.00  0.00    +0.000 HD
ATOM     39  H   UNL     1      45.036  31.461  47.927  0.00  0.00    +0.000 HD
ENDBRANCH  31  32
ENDBRANCH  28  31
ENDBRANCH  26  28
ENDBRANCH  23  26
ENDBRANCH  22  23
ENDBRANCH   1  21
TORSDOF 10
