
 OpenBabel03252500153D

 37 40  0  0  1  0  0  0  0  0999 V2000
   45.6090   32.3750   40.4780 Cl  0  0  0  0  0  0  0  0  0  0  0  0
   46.8820   33.5150   40.1640 C   0  0  0  0  0  0  0  0  0  0  0  0
   47.4300   34.2610   41.1730 C   0  0  0  0  0  0  0  0  0  0  0  0
   48.4500   35.1820   40.9510 C   0  0  0  0  0  0  0  0  0  0  0  0
   48.8780   35.3010   39.6510 C   0  0  0  0  0  0  0  0  0  0  0  0
   48.3330   34.5540   38.6220 C   0  0  0  0  0  0  0  0  0  0  0  0
   47.3460   33.6710   38.8710 C   0  0  0  0  0  0  0  0  0  0  0  0
   48.8790   35.7650   41.7380 H   0  0  0  0  0  0  0  0  0  0  0  0
   49.6670   36.0100   39.4680 H   0  0  0  0  0  0  0  0  0  0  0  0
   48.6850   34.6640   37.6080 H   0  0  0  0  0  0  0  0  0  0  0  0
   46.8940   32.8990   44.5580 C   0  0  0  0  0  0  0  0  0  0  0  0
   45.9470   33.7980   45.1090 C   0  0  0  0  0  0  0  0  0  0  0  0
   45.5130   34.8540   44.3050 C   0  0  0  0  0  0  0  0  0  0  0  0
   46.0240   34.9570   43.0420 N   0  0  0  0  0  0  0  0  0  0  0  0
   46.9240   34.0850   42.5460 C   0  0  0  0  0  0  0  0  0  0  0  0
   47.3450   33.0740   43.3050 N   0  0  0  0  0  0  0  0  0  0  0  0
   47.2090   32.0890   45.2100 H   0  0  0  0  0  0  0  0  0  0  0  0
   45.5270   33.7460   46.0940 H   0  0  0  0  0  0  0  0  0  0  0  0
   44.5180   35.8670   44.7720 C   0  0  0  0  0  0  0  0  0  0  0  0
   44.9720   37.1290   44.5550 F   0  0  0  0  0  0  0  0  0  0  0  0
   43.3430   35.6780   44.0710 F   0  0  0  0  0  0  0  0  0  0  0  0
   44.3060   35.6260   46.1050 F   0  0  0  0  0  0  0  0  0  0  0  0
   46.7540   32.8710   37.8020 C   0  0  0  0  0  0  0  0  0  0  0  0
   45.6220   33.2610   37.0730 C   0  0  0  0  0  0  0  0  0  0  0  0
   45.3420   32.2680   36.1480 C   0  0  0  0  0  0  0  0  0  0  0  0
   46.3350   31.3250   36.3740 C   0  0  0  0  0  0  0  0  0  0  0  0
   47.1460   31.6960   37.3430 O   0  0  0  0  0  0  0  0  0  0  0  0
   45.0660   34.1800   37.2140 H   0  0  0  0  0  0  0  0  0  0  0  0
   44.5650   32.2160   35.4280 H   0  0  0  0  0  0  0  0  0  0  0  0
   46.5040   30.0570   35.6540 C   0  0  1  0  0  3  0  0  0  0  0  0
   45.2540   29.6530   34.8580 C   0  0  0  0  0  3  0  0  0  0  0  0
   44.9280   30.4720   34.2030 H   0  0  0  0  0  0  0  0  0  0  0  0
   45.9190   28.5920   33.9700 C   0  0  0  0  0  3  0  0  0  0  0  0
   45.2900   28.3120   33.1120 H   0  0  0  0  0  0  0  0  0  0  0  0
   47.1580   29.1050   33.6380 O   0  0  0  0  0  0  0  0  0  0  0  0
   47.5000   30.0960   34.5350 C   0  0  0  0  0  3  0  0  0  0  0  0
   47.3820   31.0650   34.0050 H   0  0  0  0  0  0  0  0  0  0  0  0
  2  1  1  0  0  0  0
  2  3  1  0  0  0  0
  3 15  1  0  0  0  0
  4  3  2  0  0  0  0
  4  8  1  0  0  0  0
  5  4  1  0  0  0  0
  6  7  1  0  0  0  0
  6  5  2  0  0  0  0
  7  2  2  0  0  0  0
  9  5  1  0  0  0  0
 10  6  1  0  0  0  0
 11 12  1  0  0  0  0
 11 17  1  0  0  0  0
 12 18  1  0  0  0  0
 13 19  1  0  0  0  0
 13 12  2  0  0  0  0
 14 13  1  0  0  0  0
 15 14  2  0  0  0  0
 15 16  1  0  0  0  0
 16 11  2  0  0  0  0
 19 22  1  0  0  0  0
 20 19  1  0  0  0  0
 21 19  1  0  0  0  0
 23  7  1  0  0  0  0
 24 28  1  0  0  0  0
 24 23  2  0  0  0  0
 25 26  2  0  0  0  0
 25 24  1  0  0  0  0
 26 27  1  0  0  0  0
 27 23  1  0  0  0  0
 29 25  1  0  0  0  0
 30 26  1  6  0  0  0
 31 30  1  0  0  0  0
 32 31  1  0  0  0  0
 33 31  1  0  0  0  0
 34 33  1  0  0  0  0
 35 33  1  0  0  0  0
 35 36  1  0  0  0  0
 36 30  1  0  0  0  0
 37 36  1  0  0  0  0
M  END
>  <minimizedAffinity>
-5.77322006

>  <minimizedRMSD>
0.357146591

$$$$
