
 OpenBabel03242515273D

 30 32  0  0  1  0  0  0  0  0999 V2000
   37.2150   30.3480   41.6640 C   0  0  0  0  0  0  0  0  0  0  0  0
   37.5400   30.2480   40.3030 C   0  0  0  0  0  0  0  0  0  0  0  0
   38.0470   29.0430   39.8680 C   0  0  0  0  0  0  0  0  0  0  0  0
   38.2030   28.0410   40.7410 N   0  0  0  0  0  0  0  0  0  0  0  0
   37.8760   28.1690   42.0590 C   0  0  0  0  0  0  0  0  0  0  0  0
   37.3790   29.3170   42.5410 N   0  0  0  0  0  0  0  0  0  0  0  0
   36.8120   31.2650   42.0770 H   0  0  0  0  0  0  0  0  0  0  0  0
   38.2910   28.9890   38.8160 H   0  0  0  0  0  0  0  0  0  0  0  0
   38.1530   26.8980   42.7990 C   0  0  2  0  0  3  0  0  0  0  0  0
   39.3720   27.0500   43.6800 C   0  0  0  0  0  3  0  0  0  0  0  0
   40.0700   27.8090   43.3030 H   0  0  0  0  0  0  0  0  0  0  0  0
   39.9330   25.6530   43.6680 C   0  0  0  0  0  3  0  0  0  0  0  0
   40.0110   25.3170   44.7030 H   0  0  0  0  0  0  0  0  0  0  0  0
   39.1140   24.8910   42.8480 O   0  0  0  0  0  0  0  0  0  0  0  0
   38.5920   25.7870   41.8870 C   0  0  0  0  0  3  0  0  0  0  0  0
   39.4310   26.0420   41.2280 H   0  0  0  0  0  0  0  0  0  0  0  0
   37.2980   31.4550   39.5030 C   0  0  0  0  0  0  0  0  0  0  0  0
   36.9810   32.2450   40.2440 H   0  0  0  0  0  0  0  0  0  0  0  0
   36.4520   31.3360   38.8360 H   0  0  0  0  0  0  0  0  0  0  0  0
   38.5390   31.8510   38.8770 N   0  0  0  0  0  0  0  0  0  0  0  0
   39.5840   32.2260   39.6290 C   0  0  0  0  0  0  0  0  0  0  0  0
   40.7500   32.5960   38.9720 C   0  0  0  0  0  0  0  0  0  0  0  0
   40.8410   32.5810   37.6050 C   0  0  0  0  0  0  0  0  0  0  0  0
   41.9100   32.9210   37.0540 O   0  0  0  0  0  0  0  0  0  0  0  0
   39.7710   32.1980   36.8860 N   0  0  0  0  0  0  0  0  0  0  0  0
   38.6180   31.8320   37.5060 C   0  0  0  0  0  0  0  0  0  0  0  0
   37.6500   31.4820   36.7720 O   0  0  0  0  0  0  0  0  0  0  0  0
   39.4760   32.2270   40.7110 H   0  0  0  0  0  0  0  0  0  0  0  0
   41.5600   32.8890   39.6290 H   0  0  0  0  0  0  0  0  0  0  0  0
   39.8970   32.2050   35.8580 H   0  0  0  0  0  0  0  0  0  0  0  0
  1  7  1  0  0  0  0
  1  6  1  0  0  0  0
  2  1  2  0  0  0  0
  3  2  1  0  0  0  0
  3  4  2  0  0  0  0
  4  5  1  0  0  0  0
  5  6  2  0  0  0  0
  8  3  1  0  0  0  0
  9  5  1  6  0  0  0
  9 10  1  0  0  0  0
 11 10  1  0  0  0  0
 12 10  1  0  0  0  0
 12 13  1  0  0  0  0
 14 12  1  0  0  0  0
 15  9  1  0  0  0  0
 15 14  1  0  0  0  0
 16 15  1  0  0  0  0
 17 18  1  0  0  0  0
 17  2  1  0  0  0  0
 19 17  1  0  0  0  0
 20 17  1  0  0  0  0
 20 21  1  0  0  0  0
 21 28  1  0  0  0  0
 22 29  1  0  0  0  0
 22 21  2  0  0  0  0
 23 22  1  0  0  0  0
 24 23  2  0  0  0  0
 25 26  1  0  0  0  0
 25 23  1  0  0  0  0
 26 20  1  0  0  0  0
 27 26  2  0  0  0  0
 30 25  1  0  0  0  0
M  END
>  <minimizedAffinity>
-5.31591749

$$$$

 OpenBabel03242515273D

 30 32  0  0  1  0  0  0  0  0999 V2000
   39.7060   28.4300   41.7980 C   0  0  0  0  0  0  0  0  0  0  0  0
   38.6730   28.2640   42.7310 C   0  0  0  0  0  0  0  0  0  0  0  0
   37.6790   29.2170   42.7390 C   0  0  0  0  0  0  0  0  0  0  0  0
   37.7370   30.2380   41.8750 N   0  0  0  0  0  0  0  0  0  0  0  0
   38.7570   30.3710   40.9790 C   0  0  0  0  0  0  0  0  0  0  0  0
   39.7530   29.4750   40.9230 N   0  0  0  0  0  0  0  0  0  0  0  0
   40.5230   27.7210   41.7340 H   0  0  0  0  0  0  0  0  0  0  0  0
   36.8930   29.0700   43.4660 H   0  0  0  0  0  0  0  0  0  0  0  0
   38.5690   31.5980   40.1410 C   0  0  2  0  0  3  0  0  0  0  0  0
   39.3020   32.7720   40.7470 C   0  0  0  0  0  3  0  0  0  0  0  0
   39.4240   32.6760   41.8340 H   0  0  0  0  0  0  0  0  0  0  0  0
   38.4240   33.9250   40.3370 C   0  0  0  0  0  3  0  0  0  0  0  0
   39.0430   34.6350   39.7870 H   0  0  0  0  0  0  0  0  0  0  0  0
   37.3530   33.3930   39.6360 O   0  0  0  0  0  0  0  0  0  0  0  0
   37.1520   32.0980   40.1670 C   0  0  0  0  0  3  0  0  0  0  0  0
   36.7390   32.2480   41.1730 H   0  0  0  0  0  0  0  0  0  0  0  0
   38.7820   27.0810   43.5940 C   0  0  0  0  0  0  0  0  0  0  0  0
   38.0220   27.2390   44.4130 H   0  0  0  0  0  0  0  0  0  0  0  0
   39.7400   27.0380   44.1010 H   0  0  0  0  0  0  0  0  0  0  0  0
   38.4270   25.9130   42.8230 N   0  0  0  0  0  0  0  0  0  0  0  0
   37.2230   25.8300   42.2390 C   0  0  0  0  0  0  0  0  0  0  0  0
   36.9370   24.6840   41.5100 C   0  0  0  0  0  0  0  0  0  0  0  0
   37.8470   23.6660   41.3850 C   0  0  0  0  0  0  0  0  0  0  0  0
   37.5490   22.6510   40.7200 O   0  0  0  0  0  0  0  0  0  0  0  0
   39.0440   23.7860   41.9850 N   0  0  0  0  0  0  0  0  0  0  0  0
   39.3470   24.8990   42.7040 C   0  0  0  0  0  0  0  0  0  0  0  0
   40.4900   24.9490   43.2430 O   0  0  0  0  0  0  0  0  0  0  0  0
   36.5270   26.6560   42.3600 H   0  0  0  0  0  0  0  0  0  0  0  0
   35.9510   24.6720   41.0620 H   0  0  0  0  0  0  0  0  0  0  0  0
   39.6920   22.9880   41.8560 H   0  0  0  0  0  0  0  0  0  0  0  0
  1  2  1  0  0  0  0
  2  3  2  0  0  0  0
  2 17  1  0  0  0  0
  3  8  1  0  0  0  0
  4  3  1  0  0  0  0
  5  4  2  0  0  0  0
  6  5  1  0  0  0  0
  6  1  2  0  0  0  0
  7  1  1  0  0  0  0
  9 15  1  0  0  0  0
  9 10  1  0  0  0  0
  9  5  1  1  0  0  0
 10 11  1  0  0  0  0
 12 10  1  0  0  0  0
 13 12  1  0  0  0  0
 14 15  1  0  0  0  0
 14 12  1  0  0  0  0
 15 16  1  0  0  0  0
 17 19  1  0  0  0  0
 17 18  1  0  0  0  0
 20 17  1  0  0  0  0
 21 28  1  0  0  0  0
 21 20  1  0  0  0  0
 22 21  2  0  0  0  0
 23 22  1  0  0  0  0
 23 25  1  0  0  0  0
 24 23  2  0  0  0  0
 25 26  1  0  0  0  0
 26 20  1  0  0  0  0
 26 27  2  0  0  0  0
 29 22  1  0  0  0  0
 30 25  1  0  0  0  0
M  END
>  <minimizedAffinity>
-5.25274897

$$$$

 OpenBabel03242515273D

 30 32  0  0  1  0  0  0  0  0999 V2000
   36.5240   28.8110   40.4940 C   0  0  0  0  0  0  0  0  0  0  0  0
   37.0190   29.8890   41.2430 C   0  0  0  0  0  0  0  0  0  0  0  0
   37.7910   29.5830   42.3420 C   0  0  0  0  0  0  0  0  0  0  0  0
   38.0310   28.3010   42.6430 N   0  0  0  0  0  0  0  0  0  0  0  0
   37.5350   27.2760   41.8940 C   0  0  0  0  0  0  0  0  0  0  0  0
   36.7770   27.5100   40.8120 N   0  0  0  0  0  0  0  0  0  0  0  0
   35.9090   28.9750   39.6170 H   0  0  0  0  0  0  0  0  0  0  0  0
   38.1620   30.4280   42.9050 H   0  0  0  0  0  0  0  0  0  0  0  0
   37.9590   25.9550   42.4570 C   0  0  2  0  0  3  0  0  0  0  0  0
   39.2330   26.1020   43.2560 C   0  0  0  0  0  3  0  0  0  0  0  0
   39.8430   26.9510   42.9200 H   0  0  0  0  0  0  0  0  0  0  0  0
   39.8860   24.7630   43.0380 C   0  0  0  0  0  3  0  0  0  0  0  0
   40.0730   24.3210   44.0180 H   0  0  0  0  0  0  0  0  0  0  0  0
   39.0560   24.0360   42.1980 O   0  0  0  0  0  0  0  0  0  0  0  0
   38.3950   24.9910   41.3910 C   0  0  0  0  0  3  0  0  0  0  0  0
   39.1580   25.3820   40.7050 H   0  0  0  0  0  0  0  0  0  0  0  0
   36.6480   31.2230   40.7560 C   0  0  0  0  0  0  0  0  0  0  0  0
   36.3200   31.7940   41.6720 H   0  0  0  0  0  0  0  0  0  0  0  0
   35.7740   31.1910   40.1140 H   0  0  0  0  0  0  0  0  0  0  0  0
   37.8200   31.8510   40.1900 N   0  0  0  0  0  0  0  0  0  0  0  0
   38.7290   32.4260   40.9900 C   0  0  0  0  0  0  0  0  0  0  0  0
   39.8350   33.0130   40.3900 C   0  0  0  0  0  0  0  0  0  0  0  0
   40.0010   33.0110   39.0300 C   0  0  0  0  0  0  0  0  0  0  0  0
   41.0120   33.5510   38.5310 O   0  0  0  0  0  0  0  0  0  0  0  0
   39.0670   32.4240   38.2610 N   0  0  0  0  0  0  0  0  0  0  0  0
   37.9760   31.8420   38.8260 C   0  0  0  0  0  0  0  0  0  0  0  0
   37.1350   31.3070   38.0470 O   0  0  0  0  0  0  0  0  0  0  0  0
   38.5650   32.4090   42.0640 H   0  0  0  0  0  0  0  0  0  0  0  0
   40.5360   33.4620   41.0840 H   0  0  0  0  0  0  0  0  0  0  0  0
   39.2440   32.4510   37.2410 H   0  0  0  0  0  0  0  0  0  0  0  0
  1  6  2  0  0  0  0
  1  2  1  0  0  0  0
  2  3  2  0  0  0  0
  3  4  1  0  0  0  0
  3  8  1  0  0  0  0
  5  4  2  0  0  0  0
  6  5  1  0  0  0  0
  7  1  1  0  0  0  0
  9  5  1  6  0  0  0
  9 10  1  0  0  0  0
 11 10  1  0  0  0  0
 12 10  1  0  0  0  0
 12 13  1  0  0  0  0
 14 12  1  0  0  0  0
 15 14  1  0  0  0  0
 15  9  1  0  0  0  0
 16 15  1  0  0  0  0
 17  2  1  0  0  0  0
 17 18  1  0  0  0  0
 19 17  1  0  0  0  0
 20 17  1  0  0  0  0
 20 21  1  0  0  0  0
 21 28  1  0  0  0  0
 22 21  2  0  0  0  0
 22 29  1  0  0  0  0
 23 22  1  0  0  0  0
 24 23  2  0  0  0  0
 25 26  1  0  0  0  0
 25 23  1  0  0  0  0
 26 20  1  0  0  0  0
 27 26  2  0  0  0  0
 30 25  1  0  0  0  0
M  END
>  <minimizedAffinity>
-5.04448605

$$$$

 OpenBabel03242515273D

 30 32  0  0  1  0  0  0  0  0999 V2000
   38.8680   27.4550   41.5460 C   0  0  0  0  0  0  0  0  0  0  0  0
   38.0940   28.0470   42.5550 C   0  0  0  0  0  0  0  0  0  0  0  0
   37.0510   27.3030   43.0600 C   0  0  0  0  0  0  0  0  0  0  0  0
   36.8240   26.0740   42.5790 N   0  0  0  0  0  0  0  0  0  0  0  0
   37.5960   25.5270   41.5970 C   0  0  0  0  0  0  0  0  0  0  0  0
   38.6260   26.2020   41.0660 N   0  0  0  0  0  0  0  0  0  0  0  0
   39.7040   27.9810   41.1010 H   0  0  0  0  0  0  0  0  0  0  0  0
   36.4670   27.7780   43.8360 H   0  0  0  0  0  0  0  0  0  0  0  0
   37.1190   24.1490   41.2550 C   0  0  2  0  0  3  0  0  0  0  0  0
   38.2790   23.2720   40.8430 C   0  0  0  0  0  3  0  0  0  0  0  0
   39.1150   23.8500   40.4270 H   0  0  0  0  0  0  0  0  0  0  0  0
   37.6250   22.3500   39.8480 C   0  0  0  0  0  3  0  0  0  0  0  0
   37.7940   21.3250   40.1850 H   0  0  0  0  0  0  0  0  0  0  0  0
   36.2990   22.7370   39.7430 O   0  0  0  0  0  0  0  0  0  0  0  0
   36.2820   24.1270   40.0080 C   0  0  0  0  0  3  0  0  0  0  0  0
   36.7480   24.6030   39.1360 H   0  0  0  0  0  0  0  0  0  0  0  0
   38.4970   29.4030   42.9500 C   0  0  0  0  0  0  0  0  0  0  0  0
   39.6230   29.3740   43.0070 H   0  0  0  0  0  0  0  0  0  0  0  0
   38.1680   29.6460   43.9550 H   0  0  0  0  0  0  0  0  0  0  0  0
   38.0890   30.3260   41.9170 N   0  0  0  0  0  0  0  0  0  0  0  0
   36.8210   30.3310   41.4780 C   0  0  0  0  0  0  0  0  0  0  0  0
   36.4870   31.2400   40.4840 C   0  0  0  0  0  0  0  0  0  0  0  0
   37.4120   32.1060   39.9610 C   0  0  0  0  0  0  0  0  0  0  0  0
   37.0690   32.9090   39.0670 O   0  0  0  0  0  0  0  0  0  0  0  0
   38.6730   32.0710   40.4270 N   0  0  0  0  0  0  0  0  0  0  0  0
   39.0240   31.1900   41.4010 C   0  0  0  0  0  0  0  0  0  0  0  0
   40.2250   31.2090   41.7950 O   0  0  0  0  0  0  0  0  0  0  0  0
   36.1160   29.6290   41.9150 H   0  0  0  0  0  0  0  0  0  0  0  0
   35.4520   31.1990   40.1690 H   0  0  0  0  0  0  0  0  0  0  0  0
   39.3280   32.7480   39.9980 H   0  0  0  0  0  0  0  0  0  0  0  0
  1  2  1  0  0  0  0
  2 17  1  0  0  0  0
  2  3  2  0  0  0  0
  3  8  1  0  0  0  0
  4  3  1  0  0  0  0
  5  4  2  0  0  0  0
  6  1  2  0  0  0  0
  6  5  1  0  0  0  0
  7  1  1  0  0  0  0
  9  5  1  6  0  0  0
 10  9  1  0  0  0  0
 11 10  1  0  0  0  0
 12 13  1  0  0  0  0
 12 10  1  0  0  0  0
 14 12  1  0  0  0  0
 14 15  1  0  0  0  0
 15  9  1  0  0  0  0
 16 15  1  0  0  0  0
 17 18  1  0  0  0  0
 17 19  1  0  0  0  0
 20 17  1  0  0  0  0
 21 28  1  0  0  0  0
 21 20  1  0  0  0  0
 22 21  2  0  0  0  0
 23 25  1  0  0  0  0
 23 22  1  0  0  0  0
 24 23  2  0  0  0  0
 25 26  1  0  0  0  0
 26 27  2  0  0  0  0
 26 20  1  0  0  0  0
 29 22  1  0  0  0  0
 30 25  1  0  0  0  0
M  END
>  <minimizedAffinity>
-4.96397591

$$$$

 OpenBabel03242515273D

 30 32  0  0  1  0  0  0  0  0999 V2000
   36.8480   29.5820   41.7720 C   0  0  0  0  0  0  0  0  0  0  0  0
   37.6430   29.8780   40.6560 C   0  0  0  0  0  0  0  0  0  0  0  0
   38.7570   29.0930   40.4560 C   0  0  0  0  0  0  0  0  0  0  0  0
   39.0280   28.1020   41.3150 N   0  0  0  0  0  0  0  0  0  0  0  0
   38.2330   27.8400   42.3920 C   0  0  0  0  0  0  0  0  0  0  0  0
   37.1350   28.5700   42.6390 N   0  0  0  0  0  0  0  0  0  0  0  0
   35.9560   30.1580   41.9930 H   0  0  0  0  0  0  0  0  0  0  0  0
   39.3560   29.3380   39.5900 H   0  0  0  0  0  0  0  0  0  0  0  0
   38.7710   26.6840   43.1770 C   0  0  2  0  0  3  0  0  0  0  0  0
   40.1660   26.9830   43.6760 C   0  0  0  0  0  3  0  0  0  0  0  0
   40.6930   27.7050   43.0390 H   0  0  0  0  0  0  0  0  0  0  0  0
   40.7880   25.6120   43.6800 C   0  0  0  0  0  3  0  0  0  0  0  0
   41.1540   25.4160   44.6890 H   0  0  0  0  0  0  0  0  0  0  0  0
   39.8320   24.7280   43.2050 O   0  0  0  0  0  0  0  0  0  0  0  0
   39.0220   25.4760   42.3190 C   0  0  0  0  0  3  0  0  0  0  0  0
   39.6430   25.6660   41.4350 H   0  0  0  0  0  0  0  0  0  0  0  0
   37.1840   31.0020   39.8300 C   0  0  0  0  0  0  0  0  0  0  0  0
   38.0670   31.7010   39.7600 H   0  0  0  0  0  0  0  0  0  0  0  0
   36.4070   31.5760   40.3240 H   0  0  0  0  0  0  0  0  0  0  0  0
   36.8560   30.5050   38.5140 N   0  0  0  0  0  0  0  0  0  0  0  0
   35.8280   29.6610   38.3480 C   0  0  0  0  0  0  0  0  0  0  0  0
   35.5600   29.2160   37.0610 C   0  0  0  0  0  0  0  0  0  0  0  0
   36.3130   29.6200   35.9890 C   0  0  0  0  0  0  0  0  0  0  0  0
   36.0370   29.1960   34.8470 O   0  0  0  0  0  0  0  0  0  0  0  0
   37.3360   30.4670   36.1960 N   0  0  0  0  0  0  0  0  0  0  0  0
   37.6180   30.9160   37.4480 C   0  0  0  0  0  0  0  0  0  0  0  0
   38.5940   31.7120   37.5730 O   0  0  0  0  0  0  0  0  0  0  0  0
   35.2520   29.3620   39.2210 H   0  0  0  0  0  0  0  0  0  0  0  0
   34.7190   28.5380   36.9870 H   0  0  0  0  0  0  0  0  0  0  0  0
   37.8710   30.7390   35.3510 H   0  0  0  0  0  0  0  0  0  0  0  0
  1  7  1  0  0  0  0
  1  6  1  0  0  0  0
  2  1  2  0  0  0  0
  3  2  1  0  0  0  0
  3  4  2  0  0  0  0
  4  5  1  0  0  0  0
  5  6  2  0  0  0  0
  8  3  1  0  0  0  0
  9  5  1  6  0  0  0
  9 10  1  0  0  0  0
 10 12  1  0  0  0  0
 11 10  1  0  0  0  0
 12 13  1  0  0  0  0
 14 12  1  0  0  0  0
 15  9  1  0  0  0  0
 15 14  1  0  0  0  0
 16 15  1  0  0  0  0
 17 19  1  0  0  0  0
 17  2  1  0  0  0  0
 18 17  1  0  0  0  0
 20 17  1  0  0  0  0
 21 20  1  0  0  0  0
 21 28  1  0  0  0  0
 22 21  2  0  0  0  0
 23 25  1  0  0  0  0
 23 22  1  0  0  0  0
 24 23  2  0  0  0  0
 25 26  1  0  0  0  0
 26 27  2  0  0  0  0
 26 20  1  0  0  0  0
 29 22  1  0  0  0  0
 30 25  1  0  0  0  0
M  END
>  <minimizedAffinity>
-4.73805285

$$$$

 OpenBabel03242515273D

 30 32  0  0  1  0  0  0  0  0999 V2000
   39.0350   31.6870   38.6160 C   0  0  0  0  0  0  0  0  0  0  0  0
   39.4370   32.2320   39.8440 C   0  0  0  0  0  0  0  0  0  0  0  0
   40.7670   32.5670   39.9740 C   0  0  0  0  0  0  0  0  0  0  0  0
   41.6010   32.3650   38.9480 N   0  0  0  0  0  0  0  0  0  0  0  0
   41.1780   31.8330   37.7650 C   0  0  0  0  0  0  0  0  0  0  0  0
   39.8960   31.4880   37.5780 N   0  0  0  0  0  0  0  0  0  0  0  0
   38.0050   31.4000   38.4410 H   0  0  0  0  0  0  0  0  0  0  0  0
   41.0540   32.9840   40.9290 H   0  0  0  0  0  0  0  0  0  0  0  0
   42.3170   31.7200   36.7990 C   0  0  2  0  0  3  0  0  0  0  0  0
   42.5120   30.2830   36.3730 C   0  0  0  0  0  3  0  0  0  0  0  0
   42.1590   29.5700   37.1300 H   0  0  0  0  0  0  0  0  0  0  0  0
   43.9990   30.2330   36.1410 C   0  0  0  0  0  3  0  0  0  0  0  0
   44.1640   29.8940   35.1170 H   0  0  0  0  0  0  0  0  0  0  0  0
   44.5020   31.4880   36.4470 O   0  0  0  0  0  0  0  0  0  0  0  0
   43.6430   32.0140   37.4400 C   0  0  0  0  0  3  0  0  0  0  0  0
   43.8490   31.4370   38.3500 H   0  0  0  0  0  0  0  0  0  0  0  0
   38.3770   32.3770   40.8500 C   0  0  0  0  0  0  0  0  0  0  0  0
   37.4480   32.6420   40.2680 H   0  0  0  0  0  0  0  0  0  0  0  0
   38.5540   33.2240   41.5040 H   0  0  0  0  0  0  0  0  0  0  0  0
   38.1880   31.1050   41.5090 N   0  0  0  0  0  0  0  0  0  0  0  0
   39.1900   30.5530   42.2090 C   0  0  0  0  0  0  0  0  0  0  0  0
   38.9500   29.3290   42.8200 C   0  0  0  0  0  0  0  0  0  0  0  0
   37.7360   28.7000   42.7190 C   0  0  0  0  0  0  0  0  0  0  0  0
   37.5620   27.6000   43.2860 O   0  0  0  0  0  0  0  0  0  0  0  0
   36.7570   29.2870   42.0090 N   0  0  0  0  0  0  0  0  0  0  0  0
   36.9680   30.4840   41.4010 C   0  0  0  0  0  0  0  0  0  0  0  0
   36.0050   30.9820   40.7480 O   0  0  0  0  0  0  0  0  0  0  0  0
   40.1390   31.0790   42.2670 H   0  0  0  0  0  0  0  0  0  0  0  0
   39.7930   28.9310   43.3710 H   0  0  0  0  0  0  0  0  0  0  0  0
   35.8610   28.7680   41.9670 H   0  0  0  0  0  0  0  0  0  0  0  0
  1  2  1  0  0  0  0
  2  3  2  0  0  0  0
  2 17  1  0  0  0  0
  3  8  1  0  0  0  0
  4  3  1  0  0  0  0
  5  4  2  0  0  0  0
  6  5  1  0  0  0  0
  6  1  2  0  0  0  0
  7  1  1  0  0  0  0
  9 15  1  0  0  0  0
  9  5  1  1  0  0  0
 10  9  1  0  0  0  0
 10 11  1  0  0  0  0
 12 10  1  0  0  0  0
 12 14  1  0  0  0  0
 13 12  1  0  0  0  0
 14 15  1  0  0  0  0
 15 16  1  0  0  0  0
 17 19  1  0  0  0  0
 17 20  1  0  0  0  0
 18 17  1  0  0  0  0
 20 21  1  0  0  0  0
 21 28  1  0  0  0  0
 21 22  2  0  0  0  0
 22 29  1  0  0  0  0
 23 22  1  0  0  0  0
 23 24  2  0  0  0  0
 25 23  1  0  0  0  0
 26 20  1  0  0  0  0
 26 25  1  0  0  0  0
 27 26  2  0  0  0  0
 30 25  1  0  0  0  0
M  END
>  <minimizedAffinity>
-4.6900177

$$$$

 OpenBabel03242515273D

 30 32  0  0  1  0  0  0  0  0999 V2000
   36.7140   30.1100   39.0320 C   0  0  0  0  0  0  0  0  0  0  0  0
   35.9120   29.9130   40.1660 C   0  0  0  0  0  0  0  0  0  0  0  0
   34.7000   29.2890   39.9740 C   0  0  0  0  0  0  0  0  0  0  0  0
   34.3450   28.9030   38.7420 N   0  0  0  0  0  0  0  0  0  0  0  0
   35.1480   29.1090   37.6590 C   0  0  0  0  0  0  0  0  0  0  0  0
   36.3400   29.7110   37.7830 N   0  0  0  0  0  0  0  0  0  0  0  0
   37.6800   30.5940   39.1060 H   0  0  0  0  0  0  0  0  0  0  0  0
   34.0990   29.1480   40.8610 H   0  0  0  0  0  0  0  0  0  0  0  0
   34.5040   28.5800   36.4150 C   0  0  2  0  0  3  0  0  0  0  0  0
   33.0270   28.8990   36.4040 C   0  0  0  0  0  3  0  0  0  0  0  0
   32.6140   29.0110   37.4150 H   0  0  0  0  0  0  0  0  0  0  0  0
   32.4660   27.7230   35.6480 C   0  0  0  0  0  3  0  0  0  0  0  0
   31.9100   28.1120   34.7940 H   0  0  0  0  0  0  0  0  0  0  0  0
   33.5310   26.8890   35.3430 O   0  0  0  0  0  0  0  0  0  0  0  0
   34.4750   27.0780   36.3790 C   0  0  0  0  0  3  0  0  0  0  0  0
   34.0410   26.6080   37.2700 H   0  0  0  0  0  0  0  0  0  0  0  0
   36.4730   30.4050   41.4310 C   0  0  0  0  0  0  0  0  0  0  0  0
   35.5810   30.6290   42.0840 H   0  0  0  0  0  0  0  0  0  0  0  0
   36.9800   31.3560   41.3060 H   0  0  0  0  0  0  0  0  0  0  0  0
   37.2570   29.3500   42.0300 N   0  0  0  0  0  0  0  0  0  0  0  0
   36.7010   28.1560   42.2810 C   0  0  0  0  0  0  0  0  0  0  0  0
   37.5030   27.1800   42.8580 C   0  0  0  0  0  0  0  0  0  0  0  0
   38.8180   27.4180   43.1620 C   0  0  0  0  0  0  0  0  0  0  0  0
   39.5050   26.5110   43.6800 O   0  0  0  0  0  0  0  0  0  0  0  0
   39.3400   28.6280   42.8940 N   0  0  0  0  0  0  0  0  0  0  0  0
   38.5740   29.5990   42.3300 C   0  0  0  0  0  0  0  0  0  0  0  0
   39.1250   30.7150   42.1040 O   0  0  0  0  0  0  0  0  0  0  0  0
   35.6550   28.0030   42.0270 H   0  0  0  0  0  0  0  0  0  0  0  0
   37.0020   26.2370   43.0380 H   0  0  0  0  0  0  0  0  0  0  0  0
   40.3370   28.7510   43.1440 H   0  0  0  0  0  0  0  0  0  0  0  0
  1  7  1  0  0  0  0
  1  2  1  0  0  0  0
  2 17  1  0  0  0  0
  3  2  2  0  0  0  0
  3  8  1  0  0  0  0
  4  3  1  0  0  0  0
  5  6  1  0  0  0  0
  5  4  2  0  0  0  0
  6  1  2  0  0  0  0
  9  5  1  1  0  0  0
 10  9  1  0  0  0  0
 10 11  1  0  0  0  0
 12 10  1  0  0  0  0
 13 12  1  0  0  0  0
 14 12  1  0  0  0  0
 14 15  1  0  0  0  0
 15  9  1  0  0  0  0
 15 16  1  0  0  0  0
 17 20  1  0  0  0  0
 17 18  1  0  0  0  0
 19 17  1  0  0  0  0
 20 21  1  0  0  0  0
 20 26  1  0  0  0  0
 21 22  2  0  0  0  0
 22 29  1  0  0  0  0
 22 23  1  0  0  0  0
 23 24  2  0  0  0  0
 25 30  1  0  0  0  0
 25 23  1  0  0  0  0
 26 25  1  0  0  0  0
 27 26  2  0  0  0  0
 28 21  1  0  0  0  0
M  END
>  <minimizedAffinity>
-4.6499877

$$$$

 OpenBabel03242515273D

 30 32  0  0  1  0  0  0  0  0999 V2000
   38.3220   29.2700   42.7480 C   0  0  0  0  0  0  0  0  0  0  0  0
   39.1740   28.1610   42.6460 C   0  0  0  0  0  0  0  0  0  0  0  0
   40.1740   28.2260   41.7010 C   0  0  0  0  0  0  0  0  0  0  0  0
   40.2900   29.3190   40.9380 N   0  0  0  0  0  0  0  0  0  0  0  0
   39.4450   30.3820   41.0620 C   0  0  0  0  0  0  0  0  0  0  0  0
   38.4520   30.3780   41.9640 N   0  0  0  0  0  0  0  0  0  0  0  0
   37.5130   29.2900   43.4680 H   0  0  0  0  0  0  0  0  0  0  0  0
   40.8190   27.3600   41.6400 H   0  0  0  0  0  0  0  0  0  0  0  0
   39.8040   31.4610   40.0870 C   0  0  2  0  0  3  0  0  0  0  0  0
   38.9370   31.3710   38.8530 C   0  0  0  0  0  3  0  0  0  0  0  0
   38.5720   30.3520   38.6690 H   0  0  0  0  0  0  0  0  0  0  0  0
   39.8720   31.8800   37.7870 C   0  0  0  0  0  3  0  0  0  0  0  0
   39.3850   32.7230   37.2940 H   0  0  0  0  0  0  0  0  0  0  0  0
   41.0810   32.1600   38.4040 O   0  0  0  0  0  0  0  0  0  0  0  0
   41.1710   31.2660   39.4960 C   0  0  0  0  0  3  0  0  0  0  0  0
   41.3420   30.2750   39.0570 H   0  0  0  0  0  0  0  0  0  0  0  0
   38.8890   27.0550   43.5700 C   0  0  0  0  0  0  0  0  0  0  0  0
   38.0260   27.4120   44.2030 H   0  0  0  0  0  0  0  0  0  0  0  0
   39.7040   26.8910   44.2670 H   0  0  0  0  0  0  0  0  0  0  0  0
   38.4800   25.9040   42.8000 N   0  0  0  0  0  0  0  0  0  0  0  0
   37.2780   25.8820   42.2060 C   0  0  0  0  0  0  0  0  0  0  0  0
   36.9400   24.7480   41.4790 C   0  0  0  0  0  0  0  0  0  0  0  0
   37.7960   23.6840   41.3650 C   0  0  0  0  0  0  0  0  0  0  0  0
   37.4520   22.6830   40.7010 O   0  0  0  0  0  0  0  0  0  0  0  0
   38.9930   23.7440   41.9750 N   0  0  0  0  0  0  0  0  0  0  0  0
   39.3470   24.8440   42.6920 C   0  0  0  0  0  0  0  0  0  0  0  0
   40.4870   24.8360   43.2410 O   0  0  0  0  0  0  0  0  0  0  0  0
   36.6250   26.7430   42.3180 H   0  0  0  0  0  0  0  0  0  0  0  0
   35.9590   24.7860   41.0220 H   0  0  0  0  0  0  0  0  0  0  0  0
   39.6000   22.9130   41.8550 H   0  0  0  0  0  0  0  0  0  0  0  0
  1  7  1  0  0  0  0
  2  1  1  0  0  0  0
  2 17  1  0  0  0  0
  3  2  2  0  0  0  0
  4  5  2  0  0  0  0
  4  3  1  0  0  0  0
  5  6  1  0  0  0  0
  6  1  2  0  0  0  0
  8  3  1  0  0  0  0
  9  5  1  1  0  0  0
 10  9  1  0  0  0  0
 11 10  1  0  0  0  0
 12 14  1  0  0  0  0
 12 10  1  0  0  0  0
 13 12  1  0  0  0  0
 14 15  1  0  0  0  0
 15  9  1  0  0  0  0
 16 15  1  0  0  0  0
 17 18  1  0  0  0  0
 17 19  1  0  0  0  0
 20 17  1  0  0  0  0
 21 28  1  0  0  0  0
 21 20  1  0  0  0  0
 22 21  2  0  0  0  0
 23 22  1  0  0  0  0
 23 25  1  0  0  0  0
 24 23  2  0  0  0  0
 25 26  1  0  0  0  0
 26 20  1  0  0  0  0
 26 27  2  0  0  0  0
 29 22  1  0  0  0  0
 30 25  1  0  0  0  0
M  END
>  <minimizedAffinity>
-4.64271927

$$$$

 OpenBabel03242515273D

 30 32  0  0  1  0  0  0  0  0999 V2000
   37.7540   29.1300   39.6620 C   0  0  0  0  0  0  0  0  0  0  0  0
   37.0170   29.3930   40.8260 C   0  0  0  0  0  0  0  0  0  0  0  0
   37.0270   30.6880   41.2930 C   0  0  0  0  0  0  0  0  0  0  0  0
   37.7230   31.6210   40.6330 N   0  0  0  0  0  0  0  0  0  0  0  0
   38.4310   31.3330   39.5030 C   0  0  0  0  0  0  0  0  0  0  0  0
   38.4590   30.0910   39.0000 N   0  0  0  0  0  0  0  0  0  0  0  0
   37.7930   28.1340   39.2370 H   0  0  0  0  0  0  0  0  0  0  0  0
   36.4520   30.8680   42.1910 H   0  0  0  0  0  0  0  0  0  0  0  0
   39.1100   32.5600   38.9770 C   0  0  2  0  0  3  0  0  0  0  0  0
   40.2610   32.1830   38.0740 C   0  0  0  0  0  3  0  0  0  0  0  0
   40.6810   31.1980   38.3170 H   0  0  0  0  0  0  0  0  0  0  0  0
   41.2180   33.3230   38.3090 C   0  0  0  0  0  3  0  0  0  0  0  0
   41.4370   33.7770   37.3410 H   0  0  0  0  0  0  0  0  0  0  0  0
   40.6340   34.1590   39.2470 O   0  0  0  0  0  0  0  0  0  0  0  0
   39.8250   33.3260   40.0540 C   0  0  0  0  0  3  0  0  0  0  0  0
   40.5190   32.7260   40.6560 H   0  0  0  0  0  0  0  0  0  0  0  0
   36.3180   28.2390   41.4070 C   0  0  0  0  0  0  0  0  0  0  0  0
   35.7970   27.7390   40.5410 H   0  0  0  0  0  0  0  0  0  0  0  0
   35.5230   28.5450   42.0790 H   0  0  0  0  0  0  0  0  0  0  0  0
   37.3000   27.3380   41.9660 N   0  0  0  0  0  0  0  0  0  0  0  0
   38.0630   27.7280   42.9970 C   0  0  0  0  0  0  0  0  0  0  0  0
   38.9890   26.8190   43.4920 C   0  0  0  0  0  0  0  0  0  0  0  0
   39.1260   25.5660   42.9540 C   0  0  0  0  0  0  0  0  0  0  0  0
   39.9720   24.7790   43.4300 O   0  0  0  0  0  0  0  0  0  0  0  0
   38.3420   25.2130   41.9200 N   0  0  0  0  0  0  0  0  0  0  0  0
   37.4270   26.0850   41.4190 C   0  0  0  0  0  0  0  0  0  0  0  0
   36.7210   25.6900   40.4470 O   0  0  0  0  0  0  0  0  0  0  0  0
   37.9280   28.7290   43.3980 H   0  0  0  0  0  0  0  0  0  0  0  0
   39.5780   27.1870   44.3230 H   0  0  0  0  0  0  0  0  0  0  0  0
   38.4870   24.2550   41.5540 H   0  0  0  0  0  0  0  0  0  0  0  0
  1  2  1  0  0  0  0
  2  3  2  0  0  0  0
  2 17  1  0  0  0  0
  3  8  1  0  0  0  0
  4  3  1  0  0  0  0
  5  4  2  0  0  0  0
  6  5  1  0  0  0  0
  6  1  2  0  0  0  0
  7  1  1  0  0  0  0
  9  5  1  1  0  0  0
  9 15  1  0  0  0  0
 10 12  1  0  0  0  0
 10 11  1  0  0  0  0
 10  9  1  0  0  0  0
 12 14  1  0  0  0  0
 13 12  1  0  0  0  0
 14 15  1  0  0  0  0
 15 16  1  0  0  0  0
 17 20  1  0  0  0  0
 17 19  1  0  0  0  0
 18 17  1  0  0  0  0
 20 21  1  0  0  0  0
 21 28  1  0  0  0  0
 21 22  2  0  0  0  0
 22 29  1  0  0  0  0
 23 24  2  0  0  0  0
 23 22  1  0  0  0  0
 25 23  1  0  0  0  0
 26 25  1  0  0  0  0
 26 20  1  0  0  0  0
 27 26  2  0  0  0  0
 30 25  1  0  0  0  0
M  END
>  <minimizedAffinity>
-4.64137173

$$$$
