
 OpenBabel03252505583D

 35 37  0  0  1  0  0  0  0  0999 V2000
   44.6900   35.3620   45.2180 C   0  0  0  0  0  0  0  0  0  0  0  0
   45.4320   34.8440   44.1350 C   0  0  0  0  0  0  0  0  0  0  0  0
   46.1300   33.6640   44.3560 C   0  0  0  0  0  0  0  0  0  0  0  0
   46.0590   33.0910   45.5780 N   0  0  0  0  0  0  0  0  0  0  0  0
   45.3470   33.6100   46.5790 C   0  0  0  0  0  0  0  0  0  0  0  0
   44.6660   34.7370   46.4060 N   0  0  0  0  0  0  0  0  0  0  0  0
   44.1420   36.2800   45.0550 H   0  0  0  0  0  0  0  0  0  0  0  0
   46.9450   32.9570   43.3880 C   0  0  2  0  0  3  0  0  0  0  0  0
   45.9950   32.0560   42.5780 C   0  0  0  0  0  3  0  0  0  0  0  0
   45.9420   32.3520   41.5120 H   0  0  0  0  0  0  0  0  0  0  0  0
   46.5380   30.6670   42.6780 C   0  0  0  0  0  3  0  0  0  0  0  0
   45.7630   29.8840   42.6490 H   0  0  0  0  0  0  0  0  0  0  0  0
   47.0550   30.6840   43.9730 O   0  0  0  0  0  0  0  0  0  0  0  0
   47.7890   31.8680   44.0380 C   0  0  0  0  0  3  0  0  0  0  0  0
   48.7020   31.7410   43.4250 H   0  0  0  0  0  0  0  0  0  0  0  0
   45.4340   35.5600   42.8410 C   0  0  0  0  0  0  0  0  0  0  0  0
   44.9010   36.8130   43.1460 F   0  0  0  0  0  0  0  0  0  0  0  0
   44.5020   34.9150   42.0250 F   0  0  0  0  0  0  0  0  0  0  0  0
   46.6600   35.6600   42.3420 F   0  0  0  0  0  0  0  0  0  0  0  0
   45.2780   33.0160   47.8360 O   0  0  0  0  0  0  0  0  0  0  0  0
   44.7390   31.7170   47.9850 C   0  0  0  0  0  0  0  0  0  0  0  0
   44.3540   31.6440   49.0310 H   0  0  0  0  0  0  0  0  0  0  0  0
   43.8830   31.5160   47.3190 H   0  0  0  0  0  0  0  0  0  0  0  0
   45.8510   30.7600   47.8510 C   0  0  0  0  0  0  0  0  0  0  0  0
   45.9270   29.5750   47.1320 C   0  0  0  0  0  0  0  0  0  0  0  0
   47.0900   28.8720   47.1820 C   0  0  0  0  0  0  0  0  0  0  0  0
   48.1420   29.2810   47.8880 N   0  0  0  0  0  0  0  0  0  0  0  0
   48.0620   30.4260   48.5790 C   0  0  0  0  0  0  0  0  0  0  0  0
   46.9190   31.1780   48.5700 N   0  0  0  0  0  0  0  0  0  0  0  0
   45.0240   29.3580   46.6110 H   0  0  0  0  0  0  0  0  0  0  0  0
   47.0800   27.9540   46.5960 H   0  0  0  0  0  0  0  0  0  0  0  0
   49.2810   30.7960   49.3320 C   0  0  0  0  0  0  0  0  0  0  0  0
   49.4130   32.1660   49.4390 F   0  0  0  0  0  0  0  0  0  0  0  0
   50.4140   30.2950   48.6880 F   0  0  0  0  0  0  0  0  0  0  0  0
   49.2840   30.2770   50.6110 F   0  0  0  0  0  0  0  0  0  0  0  0
  1  6  1  0  0  0  0
  2  3  1  0  0  0  0
  2  1  2  0  0  0  0
  3  4  2  0  0  0  0
  4  5  1  0  0  0  0
  5 20  1  0  0  0  0
  6  5  2  0  0  0  0
  7  1  1  0  0  0  0
  8 14  1  0  0  0  0
  8  3  1  1  0  0  0
  9 11  1  0  0  0  0
  9  8  1  0  0  0  0
 10  9  1  0  0  0  0
 11 13  1  0  0  0  0
 12 11  1  0  0  0  0
 13 14  1  0  0  0  0
 15 14  1  0  0  0  0
 16 17  1  0  0  0  0
 16  2  1  0  0  0  0
 18 16  1  0  0  0  0
 19 16  1  0  0  0  0
 20 21  1  0  0  0  0
 21 22  1  0  0  0  0
 23 21  1  0  0  0  0
 24 21  1  0  0  0  0
 24 29  1  0  0  0  0
 25 26  1  0  0  0  0
 25 24  2  0  0  0  0
 26 27  2  0  0  0  0
 27 28  1  0  0  0  0
 28 32  1  0  0  0  0
 29 28  2  0  0  0  0
 30 25  1  0  0  0  0
 31 26  1  0  0  0  0
 32 33  1  0  0  0  0
 32 35  1  0  0  0  0
 34 32  1  0  0  0  0
M  END
>  <minimizedAffinity>
-5.55860615

>  <minimizedRMSD>
1.43807328

$$$$
