
 OpenBabel03252505313D

 26 27  0  0  1  0  0  0  0  0999 V2000
   46.6690   31.5550   48.8070 O   0  0  0  0  0  0  0  0  0  0  0  0
   45.7730   31.9100   47.6140 P   0  0  1  0  0  0  0  0  0  0  0  0
   44.3580   32.6560   48.1170 O   0  0  0  0  0  0  0  0  0  0  0  0
   44.4690   33.1840   48.9540 H   0  0  0  0  0  0  0  0  0  0  0  0
   46.6660   32.9280   46.6030 O   0  0  0  0  0  0  0  0  0  0  0  0
   44.5980   35.3140   45.0020 C   0  0  0  0  0  0  0  0  0  0  0  0
   45.0830   35.3860   43.6820 C   0  0  0  0  0  0  0  0  0  0  0  0
   46.1880   34.5460   43.3700 C   0  0  0  0  0  0  0  0  0  0  0  0
   46.6860   33.7440   44.3630 N   0  0  0  0  0  0  0  0  0  0  0  0
   46.1750   33.7270   45.5980 C   0  0  0  0  0  0  0  0  0  0  0  0
   45.1400   34.5040   45.9210 N   0  0  0  0  0  0  0  0  0  0  0  0
   43.7480   35.9460   45.2810 H   0  0  0  0  0  0  0  0  0  0  0  0
   44.6680   36.0230   42.9350 H   0  0  0  0  0  0  0  0  0  0  0  0
   46.6240   34.5350   42.3840 H   0  0  0  0  0  0  0  0  0  0  0  0
   45.3700   30.4550   46.8800 O   0  0  0  0  0  0  0  0  0  0  0  0
   45.3030   29.4730   47.8230 C   0  0  0  0  0  0  0  0  0  0  0  0
   46.1290   29.4290   48.5310 H   0  0  0  0  0  0  0  0  0  0  0  0
   44.3840   29.6710   48.4360 H   0  0  0  0  0  0  0  0  0  0  0  0
   45.1120   28.0900   47.2550 C   0  0  2  0  0  0  0  0  0  0  0  0
   43.9600   28.0040   46.2700 C   0  0  0  0  0  0  0  0  0  0  0  0
   44.3360   28.2580   45.2720 H   0  0  0  0  0  0  0  0  0  0  0  0
   43.6380   26.5110   46.4120 C   0  0  0  0  0  0  0  0  0  0  0  0
   42.6370   26.2600   46.0140 H   0  0  0  0  0  0  0  0  0  0  0  0
   43.7020   26.3110   47.7650 O   0  0  0  0  0  0  0  0  0  0  0  0
   44.6340   27.1490   48.3270 C   0  0  0  0  0  0  0  0  0  0  0  0
   44.1990   27.7080   49.2040 H   0  0  0  0  0  0  0  0  0  0  0  0
  2  3  1  0  0  0  0
  2  1  2  1  0  0  0
  3  4  1  0  0  0  0
  5  2  1  0  0  0  0
  6 12  1  0  0  0  0
  6 11  1  0  0  0  0
  7  6  2  0  0  0  0
  8  7  1  0  0  0  0
  8  9  2  0  0  0  0
  9 10  1  0  0  0  0
 10 11  2  0  0  0  0
 10  5  1  0  0  0  0
 13  7  1  0  0  0  0
 14  8  1  0  0  0  0
 15  2  1  0  0  0  0
 15 16  1  0  0  0  0
 16 18  1  0  0  0  0
 16 17  1  0  0  0  0
 19 16  1  1  0  0  0
 19 25  1  0  0  0  0
 20 22  1  0  0  0  0
 20 19  1  0  0  0  0
 21 20  1  0  0  0  0
 22 24  1  0  0  0  0
 23 22  1  0  0  0  0
 24 25  1  0  0  0  0
 25 26  1  0  0  0  0
M  END
>  <minimizedAffinity>
-4.44964504

>  <minimizedRMSD>
1.0315578

$$$$
