
 OpenBabel03252507113D

 23 24  0  0  1  0  0  0  0  0999 V2000
   46.1780   33.1640   42.8540 C   0  0  0  0  0  0  0  0  0  0  0  0
   46.7780   34.4460   42.9200 C   0  0  0  0  0  0  0  0  0  0  0  0
   46.0040   35.6290   42.6870 C   0  0  0  0  0  0  0  0  0  0  0  0
   44.6940   35.4650   42.3980 N   0  0  0  0  0  0  0  0  0  0  0  0
   44.1630   34.2380   42.3380 C   0  0  0  0  0  0  0  0  0  0  0  0
   44.8750   33.1150   42.5580 N   0  0  0  0  0  0  0  0  0  0  0  0
   46.6940   36.4460   42.8050 H   0  0  0  0  0  0  0  0  0  0  0  0
   43.0970   34.3930   42.0830 H   0  0  0  0  0  0  0  0  0  0  0  0
   46.4900   31.7250   43.0530 C   0  0  2  0  0  0  0  0  0  0  0  0
   45.5070   30.9690   43.8590 C   0  0  0  0  0  0  0  0  0  0  0  0
   45.5450   29.8950   43.6020 H   0  0  0  0  0  0  0  0  0  0  0  0
   46.0140   31.1440   45.2970 C   0  0  0  0  0  0  0  0  0  0  0  0
   46.2250   30.1540   45.7730 H   0  0  0  0  0  0  0  0  0  0  0  0
   47.2140   31.8470   45.2050 O   0  0  0  0  0  0  0  0  0  0  0  0
   47.7480   31.5330   43.9640 C   0  0  0  0  0  0  0  0  0  0  0  0
   48.0070   30.4780   43.9270 H   0  0  0  0  0  0  0  0  0  0  0  0
   48.1470   34.3910   43.2130 O   0  0  0  0  0  0  0  0  0  0  0  0
   50.6940   34.2930   42.4920 O   0  0  0  0  0  0  0  0  0  0  0  0
   49.3180   34.5790   41.9720 P   0  0  0  0  0  0  0  0  0  0  0  0
   49.0110   33.5130   40.7140 O   0  0  0  0  0  0  0  0  0  0  0  0
   49.1680   33.8720   39.8130 H   0  0  0  0  0  0  0  0  0  0  0  0
   49.2790   36.1120   41.2750 O   0  0  0  0  0  0  0  0  0  0  0  0
   49.7390   36.7230   41.9150 H   0  0  0  0  0  0  0  0  0  0  0  0
  1  2  1  0  0  0  0
  2 17  1  0  0  0  0
  3  7  1  0  0  0  0
  3  2  2  0  0  0  0
  4  3  1  0  0  0  0
  5  4  2  0  0  0  0
  5  6  1  0  0  0  0
  6  1  2  0  0  0  0
  8  5  1  0  0  0  0
  9  1  1  1  0  0  0
  9 10  1  0  0  0  0
  9 15  1  0  0  0  0
 10 12  1  0  0  0  0
 11 10  1  0  0  0  0
 12 13  1  0  0  0  0
 14 12  1  0  0  0  0
 15 14  1  0  0  0  0
 16 15  1  0  0  0  0
 19 18  2  0  0  0  0
 19 17  1  0  0  0  0
 20 19  1  0  0  0  0
 21 20  1  0  0  0  0
 22 23  1  0  0  0  0
 22 19  1  0  0  0  0
M  END
>  <minimizedAffinity>
-3.69033575

>  <minimizedRMSD>
3.65909934

$$$$
