
     RDKit          3D

 51 53  0  0  0  0  0  0  0  0999 V2000
   47.1678   34.1678   43.0838 N   0  0  0  0  0  0  0  0  0  0  0  0
   46.6611   35.3590   42.5209 C   0  0  0  0  0  0  0  0  0  0  0  0
   45.1725   35.5763   42.7254 C   0  0  0  0  0  0  0  0  0  0  0  0
   44.6374   35.0449   44.0301 C   0  0  0  0  0  0  0  0  0  0  0  0
   45.7480   34.4815   44.8965 C   0  0  0  0  0  0  0  0  0  0  0  0
   46.4284   33.4049   43.9625 C   0  0  2  0  0  0  0  0  0  0  0  0
   48.1499   33.5091   42.2646 C   0  0  0  0  0  0  0  0  0  0  0  0
   47.4536   32.6471   41.2603 C   0  0  0  0  0  0  0  0  0  0  0  0
   49.3497   32.2727   38.0295 C   0  0  0  0  0  0  0  0  0  0  0  0
   48.8187   32.0216   39.3151 C   0  0  0  0  0  0  0  0  0  0  0  0
   47.9990   32.9363   39.9063 C   0  0  0  0  0  0  0  0  0  0  0  0
   47.7288   34.0576   39.2242 N   0  0  0  0  0  0  0  0  0  0  0  0
   48.2223   34.3086   38.0105 C   0  0  0  0  0  0  0  0  0  0  0  0
   49.0317   33.4297   37.4007 N   0  0  0  0  0  0  0  0  0  0  0  0
   47.2089   32.7202   44.8646 O   0  0  0  0  0  0  0  0  0  0  0  0
   46.0337   30.5392   43.8798 O   0  0  0  0  0  0  0  0  0  0  0  0
   46.6927   31.1520   45.1331 P   0  0  2  0  0  0  0  0  0  0  0  0
   45.4017   31.2623   46.2607 O   0  0  0  0  0  0  0  0  0  0  0  0
   47.8345   30.1441   45.7816 O   0  0  0  0  0  0  0  0  0  0  0  0
   47.7617   28.8921   45.2057 C   0  0  0  0  0  0  0  0  0  0  0  0
   47.1598   36.2156   43.0414 H   0  0  0  0  0  0  0  0  0  0  0  0
   46.8498   35.5221   41.4523 H   0  0  0  0  0  0  0  0  0  0  0  0
   44.9789   36.6498   42.5878 H   0  0  0  0  0  0  0  0  0  0  0  0
   44.6530   35.0406   41.8957 H   0  0  0  0  0  0  0  0  0  0  0  0
   44.0843   35.8515   44.5488 H   0  0  0  0  0  0  0  0  0  0  0  0
   43.9017   34.2228   43.8887 H   0  0  0  0  0  0  0  0  0  0  0  0
   45.3026   33.9228   45.7285 H   0  0  0  0  0  0  0  0  0  0  0  0
   46.4973   35.2316   45.1634 H   0  0  0  0  0  0  0  0  0  0  0  0
   45.5808   32.8186   43.5520 H   0  0  0  0  0  0  0  0  0  0  0  0
   48.7903   32.8705   42.9224 H   0  0  0  0  0  0  0  0  0  0  0  0
   48.7918   34.2872   41.7886 H   0  0  0  0  0  0  0  0  0  0  0  0
   47.5648   31.5907   41.4941 H   0  0  0  0  0  0  0  0  0  0  0  0
   46.3699   32.8711   41.2320 H   0  0  0  0  0  0  0  0  0  0  0  0
   49.9980   31.5606   37.5496 H   0  0  0  0  0  0  0  0  0  0  0  0
   49.0644   31.0949   39.8357 H   0  0  0  0  0  0  0  0  0  0  0  0
   47.9420   35.2442   37.5464 H   0  0  0  0  0  0  0  0  0  0  0  0
   45.7712   31.4239   47.1695 H   0  0  0  0  0  0  0  0  0  0  0  0
   46.7700   28.3991   45.3428 H   0  0  0  0  0  0  0  0  0  0  0  0
   47.9245   28.9870   44.1153 H   0  0  0  0  0  0  0  0  0  0  0  0
   48.7819   27.9277   45.7588 C   0  0  1  0  0  0  0  0  0  0  0  0
   48.6089   27.7248   47.2491 C   0  0  1  0  0  0  0  0  0  0  0  0
   49.5542   27.4167   47.7338 H   0  0  0  0  0  0  0  0  0  0  0  0
   47.6425   26.5446   47.2978 C   0  0  2  0  0  0  0  0  0  0  0  0
   46.7884   26.7532   47.9900 H   0  0  0  0  0  0  0  0  0  0  0  0
   47.2028   26.3563   45.9881 O   0  0  0  0  0  0  0  0  0  0  0  0
   48.3837   26.5305   45.2639 C   0  0  2  0  0  0  0  0  0  0  0  0
   49.0978   25.7663   45.6769 H   0  0  0  0  0  0  0  0  0  0  0  0
   49.8112   28.1245   45.4489 H   0  0  0  0  0  0  0  0  0  0  0  0
   48.1134   28.5614   47.7505 H   0  0  0  0  0  0  0  0  0  0  0  0
   48.1661   25.5986   47.5959 H   0  0  0  0  0  0  0  0  0  0  0  0
   48.2726   26.4710   44.1835 H   0  0  0  0  0  0  0  0  0  0  0  0
  1  6  1  0
  2  3  1  0
  2  1  1  0
  3  4  1  0
  4  5  1  0
  6 15  1  0
  6  5  1  0
  7  1  1  0
  8  7  1  0
  9 10  2  0
 10 11  1  0
 11  8  1  0
 12 11  2  0
 13 12  1  0
 14 13  2  0
 14  9  1  0
 17 15  1  6
 17 16  2  0
 17 19  1  0
 17 18  1  0
 20 19  1  0
  2 21  1  0
  2 22  1  0
  3 23  1  0
  3 24  1  0
  4 25  1  0
  4 26  1  0
  5 27  1  0
  5 28  1  0
  6 29  1  6
  7 30  1  0
  7 31  1  0
  8 32  1  0
  8 33  1  0
  9 34  1  0
 10 35  1  0
 13 36  1  0
 18 37  1  0
 20 38  1  0
 20 39  1  0
 40 41  1  0
 41 42  1  1
 41 43  1  0
 43 44  1  1
 43 45  1  0
 45 46  1  0
 46 47  1  1
 46 40  1  0
 40 48  1  1
 41 49  1  0
 43 50  1  0
 46 51  1  0
 20 40  1  0
M  ISO  8  21  13  22  13  23  13  24  13  25  13  26  13  27  13  28  13
M  ISO  8  29  13  30   8  31   8  32   8  33   8  34  14  35  14  36  14
M  ISO  6  37   3  38   8  39   8  42  15  44  15  47  15
M  END
>  <DihAtoms>  (1) 
18,19,39,40

>  <DihDeg>  (1) 
60.000259522009266

$$$$
