
 OpenBabel03252509043D

 47 49  0  0  1  0  0  0  0  0999 V2000
   46.7530   34.4160   43.6470 N   0  0  0  0  0  0  0  0  0  0  0  0
   46.3290   35.4160   42.7450 C   0  0  0  0  0  0  0  0  0  0  0  0
   44.8250   35.6110   42.6710 C   0  0  0  0  0  0  0  0  0  0  0  0
   44.1020   35.3830   43.9740 C   0  0  0  0  0  0  0  0  0  0  0  0
   45.0720   35.0900   45.1040 C   0  0  0  0  0  0  0  0  0  0  0  0
   45.8930   33.8530   44.5660 C   0  0  2  0  0  0  0  0  0  0  0  0
   46.7380   36.3930   43.1090 H   0  0  0  0  0  0  0  0  0  0  0  0
   46.6770   35.3270   41.7070 H   0  0  0  0  0  0  0  0  0  0  0  0
   44.6480   36.6120   42.2520 H   0  0  0  0  0  0  0  0  0  0  0  0
   44.4420   34.8720   41.9300 H   0  0  0  0  0  0  0  0  0  0  0  0
   43.4710   36.2660   44.1960 H   0  0  0  0  0  0  0  0  0  0  0  0
   43.4020   34.5200   43.9300 H   0  0  0  0  0  0  0  0  0  0  0  0
   44.5100   34.7280   45.9710 H   0  0  0  0  0  0  0  0  0  0  0  0
   45.7670   35.9150   45.2860 H   0  0  0  0  0  0  0  0  0  0  0  0
   45.1220   33.1500   44.1910 H   0  0  0  0  0  0  0  0  0  0  0  0
   47.8520   33.6240   43.1640 C   0  0  0  0  0  0  0  0  0  0  0  0
   48.3950   33.1960   44.0420 H   0  0  0  0  0  0  0  0  0  0  0  0
   48.5490   34.2920   42.6040 H   0  0  0  0  0  0  0  0  0  0  0  0
   47.3220   32.5110   42.3170 C   0  0  0  0  0  0  0  0  0  0  0  0
   47.5900   31.5380   42.7220 H   0  0  0  0  0  0  0  0  0  0  0  0
   46.2170   32.5540   42.2560 H   0  0  0  0  0  0  0  0  0  0  0  0
   49.4270   32.0190   39.2350 C   0  0  0  0  0  0  0  0  0  0  0  0
   48.9110   31.8990   40.5450 C   0  0  0  0  0  0  0  0  0  0  0  0
   47.8460   32.6570   40.9320 C   0  0  0  0  0  0  0  0  0  0  0  0
   47.3270   33.5020   40.0300 N   0  0  0  0  0  0  0  0  0  0  0  0
   47.8030   33.6260   38.7910 C   0  0  0  0  0  0  0  0  0  0  0  0
   48.8500   32.8950   38.3780 N   0  0  0  0  0  0  0  0  0  0  0  0
   50.2670   31.4280   38.9160 H   0  0  0  0  0  0  0  0  0  0  0  0
   49.3630   31.1980   41.2490 H   0  0  0  0  0  0  0  0  0  0  0  0
   47.3120   34.3360   38.1400 H   0  0  0  0  0  0  0  0  0  0  0  0
   46.5330   33.4370   45.7120 O   0  0  0  0  0  0  0  0  0  0  0  0
   45.5240   31.0870   44.9580 O   0  0  0  0  0  0  0  0  0  0  0  0
   46.2060   31.8470   46.1140 P   0  0  2  0  0  0  0  0  0  0  0  0
   44.9970   31.9040   47.3340 O   0  0  0  0  0  0  0  0  0  0  0  0
   45.4130   32.1640   48.1980 H   0  0  0  0  0  0  0  0  0  0  0  0
   47.4910   31.0050   46.7290 O   0  0  0  0  0  0  0  0  0  0  0  0
   47.9670   30.0990   45.8040 C   0  0  0  0  0  0  0  0  0  0  0  0
   47.1950   29.3690   45.4620 H   0  0  0  0  0  0  0  0  0  0  0  0
   48.3100   30.6480   44.9050 H   0  0  0  0  0  0  0  0  0  0  0  0
   49.1160   29.2720   46.3240 C   0  0  1  0  0  3  0  0  0  0  0  0
   48.9090   28.8740   47.7700 C   0  0  0  0  0  3  0  0  0  0  0  0
   49.8680   28.6820   48.2850 H   0  0  0  0  0  0  0  0  0  0  0  0
   48.1710   27.5450   47.6290 C   0  0  0  0  0  3  0  0  0  0  0  0
   47.2600   27.5210   48.2790 H   0  0  0  0  0  0  0  0  0  0  0  0
   47.8390   27.4320   46.2800 O   0  0  0  0  0  0  0  0  0  0  0  0
   49.0030   27.8920   45.6620 C   0  0  0  0  0  3  0  0  0  0  0  0
   49.8220   27.2230   46.0420 H   0  0  0  0  0  0  0  0  0  0  0  0
  1  6  1  0  0  0  0
  2  7  1  0  0  0  0
  2  1  1  0  0  0  0
  3  2  1  0  0  0  0
  3  4  1  0  0  0  0
  4 11  1  0  0  0  0
  4  5  1  0  0  0  0
  5 14  1  0  0  0  0
  5 13  1  0  0  0  0
  6 15  1  6  0  0  0
  6  5  1  0  0  0  0
  6 31  1  0  0  0  0
  8  2  1  0  0  0  0
  9  3  1  0  0  0  0
 10  3  1  0  0  0  0
 12  4  1  0  0  0  0
 16  1  1  0  0  0  0
 16 17  1  0  0  0  0
 18 16  1  0  0  0  0
 19 20  1  0  0  0  0
 19 16  1  0  0  0  0
 21 19  1  0  0  0  0
 22 23  1  0  0  0  0
 23 24  2  0  0  0  0
 23 29  1  0  0  0  0
 24 19  1  0  0  0  0
 25 24  1  0  0  0  0
 26 25  2  0  0  0  0
 27 26  1  0  0  0  0
 27 22  2  0  0  0  0
 28 22  1  0  0  0  0
 30 26  1  0  0  0  0
 31 33  1  0  0  0  0
 33 32  2  6  0  0  0
 33 36  1  0  0  0  0
 33 34  1  0  0  0  0
 34 35  1  0  0  0  0
 37 36  1  0  0  0  0
 38 37  1  0  0  0  0
 39 37  1  0  0  0  0
 40 37  1  6  0  0  0
 40 41  1  0  0  0  0
 41 42  1  0  0  0  0
 43 41  1  0  0  0  0
 43 44  1  0  0  0  0
 45 43  1  0  0  0  0
 46 47  1  0  0  0  0
 46 45  1  0  0  0  0
 46 40  1  0  0  0  0
M  END
>  <minimizedAffinity>
-4.04022169

>  <minimizedRMSD>
1.11056197

$$$$
