
 OpenBabel03242515573D

 36 39  0  0  1  0  0  0  0  0999 V2000
   46.0190   32.6940   46.6800 C   0  0  0  0  0  0  0  0  0  0  0  0
   45.5090   32.9210   47.9880 C   0  0  0  0  0  0  0  0  0  0  0  0
   45.7160   32.0680   49.0450 C   0  0  0  0  0  0  0  0  0  0  0  0
   46.4360   30.9430   48.8790 C   0  0  0  0  0  0  0  0  0  0  0  0
   46.9590   30.6700   47.6210 C   0  0  0  0  0  0  0  0  0  0  0  0
   47.6800   29.5140   47.4950 C   0  0  0  0  0  0  0  0  0  0  0  0
   48.2180   29.1790   46.2710 C   0  0  0  0  0  0  0  0  0  0  0  0
   47.9900   30.0570   45.2130 C   0  0  0  0  0  0  0  0  0  0  0  0
   47.2670   31.1740   45.4350 C   0  0  0  0  0  0  0  0  0  0  0  0
   46.7320   31.5380   46.5930 C   0  0  0  0  0  0  0  0  0  0  0  0
   44.9250   33.8090   48.1690 H   0  0  0  0  0  0  0  0  0  0  0  0
   45.2920   32.3130   50.0090 H   0  0  0  0  0  0  0  0  0  0  0  0
   46.5840   30.2920   49.7300 H   0  0  0  0  0  0  0  0  0  0  0  0
   47.8120   28.8690   48.3960 H   0  0  0  0  0  0  0  0  0  0  0  0
   48.7740   28.2230   46.3210 H   0  0  0  0  0  0  0  0  0  0  0  0
   48.5020   29.5370   44.4170 H   0  0  0  0  0  0  0  0  0  0  0  0
   44.4820   35.5330   45.0970 C   0  0  0  0  0  0  0  0  0  0  0  0
   45.2170   35.6400   43.8770 C   0  0  0  0  0  0  0  0  0  0  0  0
   46.2530   34.7070   43.5850 C   0  0  0  0  0  0  0  0  0  0  0  0
   46.4820   33.7550   44.5020 N   0  0  0  0  0  0  0  0  0  0  0  0
   45.8190   33.6480   45.6200 C   0  0  0  0  0  0  0  0  0  0  0  0
   44.8230   34.5410   45.9040 N   0  0  0  0  0  0  0  0  0  0  0  0
   43.7050   36.2520   45.2910 H   0  0  0  0  0  0  0  0  0  0  0  0
   46.6860   34.9400   42.6560 H   0  0  0  0  0  0  0  0  0  0  0  0
   44.8460   36.7120   43.0180 N   0  0  0  0  0  0  0  0  0  0  0  0
   45.3660   37.6270   43.0560 H   0  0  0  0  0  0  0  0  0  0  0  0
   44.0430   36.5440   42.3560 H   0  0  0  0  0  0  0  0  0  0  0  0
   47.2080   31.8180   44.2320 O   0  0  0  0  0  0  0  0  0  0  0  0
   47.8670   31.3970   43.0530 C   0  0  2  0  0  0  0  0  0  0  0  0
   48.9160   32.2930   42.4940 C   0  0  0  0  0  0  0  0  0  0  0  0
   49.9110   32.2280   42.9090 H   0  0  0  0  0  0  0  0  0  0  0  0
   49.0040   31.6230   41.0880 C   0  0  0  0  0  0  0  0  0  0  0  0
   49.4970   32.2680   40.3710 H   0  0  0  0  0  0  0  0  0  0  0  0
   47.6790   31.4190   40.7330 O   0  0  0  0  0  0  0  0  0  0  0  0
   46.8800   31.4450   41.8660 C   0  0  0  0  0  0  0  0  0  0  0  0
   46.2170   30.5670   41.8420 H   0  0  0  0  0  0  0  0  0  0  0  0
  1  2  1  0  0  0  0
  2 11  1  0  0  0  0
  2  3  2  0  0  0  0
  3 12  1  0  0  0  0
  4  3  1  0  0  0  0
  4 13  1  0  0  0  0
  5  4  2  0  0  0  0
  6  5  1  0  0  0  0
  6 14  1  0  0  0  0
  7 15  1  0  0  0  0
  7  6  2  0  0  0  0
  8  9  2  0  0  0  0
  8  7  1  0  0  0  0
  9 10  1  0  0  0  0
 10  1  2  0  0  0  0
 10  5  1  0  0  0  0
 16  8  1  0  0  0  0
 17 23  1  0  0  0  0
 17 22  1  0  0  0  0
 18 17  2  0  0  0  0
 19 18  1  0  0  0  0
 19 20  2  0  0  0  0
 20 21  1  0  0  0  0
 21 22  2  0  0  0  0
 21  1  1  0  0  0  0
 24 19  1  0  0  0  0
 25 26  1  0  0  0  0
 25 18  1  0  0  0  0
 27 25  1  0  0  0  0
 28  9  1  0  0  0  0
 29 28  1  1  0  0  0
 30 31  1  0  0  0  0
 30 29  1  0  0  0  0
 32 30  1  0  0  0  0
 33 32  1  0  0  0  0
 34 32  1  0  0  0  0
 34 35  1  0  0  0  0
 35 29  1  0  0  0  0
 36 35  1  0  0  0  0
M  END
>  <minimizedAffinity>
-5.67289019

>  <minimizedRMSD>
0.0497113839

$$$$
