
 OpenBabel03252507083D

 23 24  0  0  1  0  0  0  0  0999 V2000
   44.6380   35.6630   44.8530 C   0  0  0  0  0  0  0  0  0  0  0  0
   45.2380   35.8530   43.5840 C   0  0  0  0  0  0  0  0  0  0  0  0
   46.1490   34.9050   43.1370 C   0  0  0  0  0  0  0  0  0  0  0  0
   46.4180   33.8390   43.9480 N   0  0  0  0  0  0  0  0  0  0  0  0
   45.8380   33.6810   45.1450 C   0  0  0  0  0  0  0  0  0  0  0  0
   44.9440   34.5940   45.6020 N   0  0  0  0  0  0  0  0  0  0  0  0
   43.9410   36.4640   45.0990 H   0  0  0  0  0  0  0  0  0  0  0  0
   45.0130   36.7050   42.9540 H   0  0  0  0  0  0  0  0  0  0  0  0
   46.1270   32.5340   46.0180 C   0  0  1  0  0  3  0  0  0  0  0  0
   47.0750   31.5310   45.3490 C   0  0  0  0  0  3  0  0  0  0  0  0
   46.4830   30.9320   44.6270 H   0  0  0  0  0  0  0  0  0  0  0  0
   47.4370   30.7500   46.5970 C   0  0  0  0  0  3  0  0  0  0  0  0
   48.3430   30.1400   46.4910 H   0  0  0  0  0  0  0  0  0  0  0  0
   47.4510   31.6470   47.6490 O   0  0  0  0  0  0  0  0  0  0  0  0
   46.9230   32.8450   47.2410 C   0  0  0  0  0  3  0  0  0  0  0  0
   47.7960   33.5100   46.9840 H   0  0  0  0  0  0  0  0  0  0  0  0
   46.7250   35.1030   41.9010 O   0  0  0  0  0  0  0  0  0  0  0  0
   48.4780   33.3370   41.0060 O   0  0  0  0  0  0  0  0  0  0  0  0
   48.3830   34.7160   41.6690 P   0  0  0  0  0  0  0  0  0  0  0  0
   49.1110   35.9020   40.7620 O   0  0  0  0  0  0  0  0  0  0  0  0
   49.9860   36.1530   41.1800 H   0  0  0  0  0  0  0  0  0  0  0  0
   49.0870   34.5780   43.2140 O   0  0  0  0  0  0  0  0  0  0  0  0
   48.9350   33.6620   43.5180 H   0  0  0  0  0  0  0  0  0  0  0  0
  1  7  1  0  0  0  0
  1  6  1  0  0  0  0
  2  1  2  0  0  0  0
  3  2  1  0  0  0  0
  3  4  2  0  0  0  0
  4  5  1  0  0  0  0
  5  6  2  0  0  0  0
  8  2  1  0  0  0  0
  9  5  1  6  0  0  0
  9 15  1  0  0  0  0
 10  9  1  0  0  0  0
 10 12  1  0  0  0  0
 11 10  1  0  0  0  0
 12 14  1  0  0  0  0
 13 12  1  0  0  0  0
 15 14  1  0  0  0  0
 16 15  1  0  0  0  0
 17  3  1  0  0  0  0
 18 19  2  0  0  0  0
 19 17  1  0  0  0  0
 19 22  1  0  0  0  0
 20 21  1  0  0  0  0
 20 19  1  0  0  0  0
 22 23  1  0  0  0  0
M  END
>  <minimizedAffinity>
-5.1105814

>  <minimizedRMSD>
0.537061632

$$$$
