
 OpenBabel03252505313D

 26 27  0  0  1  0  0  0  0  0999 V2000
   46.9680   31.7800   48.6800 O   0  0  0  0  0  0  0  0  0  0  0  0
   45.9040   32.2670   47.6890 P   0  0  1  0  0  0  0  0  0  0  0  0
   45.0320   33.5550   48.3160 O   0  0  0  0  0  0  0  0  0  0  0  0
   45.5630   34.1200   48.9410 H   0  0  0  0  0  0  0  0  0  0  0  0
   46.7070   32.7130   46.2710 O   0  0  0  0  0  0  0  0  0  0  0  0
   44.7240   35.2520   44.8040 C   0  0  0  0  0  0  0  0  0  0  0  0
   45.2830   35.4570   43.5280 C   0  0  0  0  0  0  0  0  0  0  0  0
   46.4070   34.6520   43.1960 C   0  0  0  0  0  0  0  0  0  0  0  0
   46.8510   33.7530   44.1310 N   0  0  0  0  0  0  0  0  0  0  0  0
   46.2710   33.6110   45.3260 C   0  0  0  0  0  0  0  0  0  0  0  0
   45.2150   34.3530   45.6660 N   0  0  0  0  0  0  0  0  0  0  0  0
   43.8560   35.8550   45.0970 H   0  0  0  0  0  0  0  0  0  0  0  0
   44.9080   36.1670   42.8270 H   0  0  0  0  0  0  0  0  0  0  0  0
   46.8990   34.7400   42.2410 H   0  0  0  0  0  0  0  0  0  0  0  0
   44.8510   30.9790   47.4620 O   0  0  0  0  0  0  0  0  0  0  0  0
   45.2800   29.9070   48.1880 C   0  0  0  0  0  0  0  0  0  0  0  0
   46.1860   30.0550   48.7730 H   0  0  0  0  0  0  0  0  0  0  0  0
   44.4710   29.6690   48.9280 H   0  0  0  0  0  0  0  0  0  0  0  0
   45.4590   28.6500   47.3750 C   0  0  2  0  0  3  0  0  0  0  0  0
   44.8740   27.4200   48.0440 C   0  0  0  0  0  3  0  0  0  0  0  0
   43.8180   27.3380   47.7630 H   0  0  0  0  0  0  0  0  0  0  0  0
   45.7440   26.3490   47.3720 C   0  0  0  0  0  3  0  0  0  0  0  0
   45.7150   25.3860   47.9150 H   0  0  0  0  0  0  0  0  0  0  0  0
   46.9960   26.9050   47.4090 O   0  0  0  0  0  0  0  0  0  0  0  0
   46.9130   28.2720   47.3140 C   0  0  0  0  0  3  0  0  0  0  0  0
   47.5040   28.7720   48.1340 H   0  0  0  0  0  0  0  0  0  0  0  0
  2  3  1  0  0  0  0
  2  1  2  1  0  0  0
  3  4  1  0  0  0  0
  5  2  1  0  0  0  0
  6 12  1  0  0  0  0
  6 11  1  0  0  0  0
  7  6  2  0  0  0  0
  8  7  1  0  0  0  0
  8  9  2  0  0  0  0
  9 10  1  0  0  0  0
 10 11  2  0  0  0  0
 10  5  1  0  0  0  0
 13  7  1  0  0  0  0
 14  8  1  0  0  0  0
 15  2  1  0  0  0  0
 15 16  1  0  0  0  0
 16 17  1  0  0  0  0
 16 18  1  0  0  0  0
 19 20  1  0  0  0  0
 19 16  1  1  0  0  0
 21 20  1  0  0  0  0
 22 24  1  0  0  0  0
 22 23  1  0  0  0  0
 22 20  1  0  0  0  0
 25 19  1  0  0  0  0
 25 24  1  0  0  0  0
 25 26  1  0  0  0  0
M  END
>  <minimizedAffinity>
-4.37265396

>  <minimizedRMSD>
1.5361979

$$$$
