
 OpenBabel03242520273D

 37 39  0  0  1  0  0  0  0  0999 V2000
   36.9480   30.5970   37.7410 C   0  0  0  0  0  0  0  0  0  0  0  0
   37.1050   30.8550   39.1320 C   0  0  0  0  0  0  0  0  0  0  0  0
   36.3620   30.1090   40.0240 C   0  0  0  0  0  0  0  0  0  0  0  0
   35.5110   29.1580   39.5290 N   0  0  0  0  0  0  0  0  0  0  0  0
   35.3740   28.9270   38.2100 C   0  0  0  0  0  0  0  0  0  0  0  0
   36.0850   29.6390   37.3290 N   0  0  0  0  0  0  0  0  0  0  0  0
   37.5160   31.1660   37.0230 H   0  0  0  0  0  0  0  0  0  0  0  0
   34.6580   28.1410   38.0160 H   0  0  0  0  0  0  0  0  0  0  0  0
   38.0270   31.8740   39.4710 N   0  0  0  0  0  0  0  0  0  0  0  0
   37.6080   33.2200   39.8560 C   0  0  0  0  0  0  0  0  0  0  0  0
   38.8200   34.0070   40.2810 C   0  0  0  0  0  0  0  0  0  0  0  0
   39.8660   33.9910   39.3080 N   0  0  0  0  0  0  0  0  0  0  0  0
   40.2290   32.6940   38.8340 C   0  0  0  0  0  0  0  0  0  0  0  0
   39.4430   31.5610   39.4320 C   0  0  0  0  0  0  0  0  0  0  0  0
   37.1500   33.6550   38.9440 H   0  0  0  0  0  0  0  0  0  0  0  0
   36.8930   33.1490   40.6790 H   0  0  0  0  0  0  0  0  0  0  0  0
   38.5770   35.0450   40.5050 H   0  0  0  0  0  0  0  0  0  0  0  0
   39.2220   33.5220   41.2020 H   0  0  0  0  0  0  0  0  0  0  0  0
   39.5810   34.6190   38.5230 H   0  0  0  0  0  0  0  0  0  0  0  0
   40.1600   32.6610   37.7270 H   0  0  0  0  0  0  0  0  0  0  0  0
   41.3160   32.5390   39.0830 H   0  0  0  0  0  0  0  0  0  0  0  0
   39.6540   30.6470   38.8780 H   0  0  0  0  0  0  0  0  0  0  0  0
   39.8260   31.3990   40.4800 H   0  0  0  0  0  0  0  0  0  0  0  0
   36.5320   30.3790   41.3750 O   0  0  0  0  0  0  0  0  0  0  0  0
   38.8650   30.2040   42.6080 O   0  0  0  0  0  0  0  0  0  0  0  0
   37.6170   29.3970   42.2810 P   0  0  1  0  0  0  0  0  0  0  0  0
   36.8240   28.9160   43.6750 O   0  0  0  0  0  0  0  0  0  0  0  0
   36.9990   29.5960   44.3920 H   0  0  0  0  0  0  0  0  0  0  0  0
   38.0480   28.0780   41.3040 O   0  0  0  0  0  0  0  0  0  0  0  0
   37.6090   26.9080   41.8810 C   0  0  1  0  0  3  0  0  0  0  0  0
   37.0530   25.9320   40.8350 C   0  0  0  0  0  3  0  0  0  0  0  0
   36.0410   26.2070   40.4950 H   0  0  0  0  0  0  0  0  0  0  0  0
   37.0230   24.6880   41.7320 C   0  0  0  0  0  3  0  0  0  0  0  0
   36.1450   24.8520   42.4220 H   0  0  0  0  0  0  0  0  0  0  0  0
   38.1570   24.7670   42.5220 O   0  0  0  0  0  0  0  0  0  0  0  0
   38.6820   26.0360   42.4570 C   0  0  0  0  0  3  0  0  0  0  0  0
   39.1020   26.4010   43.4000 H   0  0  0  0  0  0  0  0  0  0  0  0
  1  2  1  0  0  0  0
  2  9  1  0  0  0  0
  2  3  2  0  0  0  0
  3 24  1  0  0  0  0
  4  3  1  0  0  0  0
  5  4  2  0  0  0  0
  6  1  2  0  0  0  0
  6  5  1  0  0  0  0
  7  1  1  0  0  0  0
  8  5  1  0  0  0  0
  9 10  1  0  0  0  0
 10 11  1  0  0  0  0
 10 16  1  0  0  0  0
 11 17  1  0  0  0  0
 11 18  1  0  0  0  0
 12 11  1  0  0  0  0
 13 21  1  0  0  0  0
 13 12  1  0  0  0  0
 13 14  1  0  0  0  0
 14  9  1  0  0  0  0
 14 23  1  0  0  0  0
 15 10  1  0  0  0  0
 19 12  1  0  0  0  0
 20 13  1  0  0  0  0
 22 14  1  0  0  0  0
 24 26  1  0  0  0  0
 26 25  2  1  0  0  0
 26 27  1  0  0  0  0
 27 28  1  0  0  0  0
 29 26  1  0  0  0  0
 30 29  1  6  0  0  0
 30 36  1  0  0  0  0
 31 33  1  0  0  0  0
 31 30  1  0  0  0  0
 32 31  1  0  0  0  0
 33 34  1  0  0  0  0
 33 35  1  0  0  0  0
 36 35  1  0  0  0  0
 36 37  1  0  0  0  0
M  END
>  <minimizedAffinity>
-5.27764893

$$$$

 OpenBabel03242520273D

 37 39  0  0  1  0  0  0  0  0999 V2000
   37.6190   31.4280   36.9850 C   0  0  0  0  0  0  0  0  0  0  0  0
   38.0310   31.1980   38.3290 C   0  0  0  0  0  0  0  0  0  0  0  0
   37.6910   29.9990   38.9210 C   0  0  0  0  0  0  0  0  0  0  0  0
   36.9760   29.0890   38.1900 N   0  0  0  0  0  0  0  0  0  0  0  0
   36.5950   29.3230   36.9210 C   0  0  0  0  0  0  0  0  0  0  0  0
   36.9140   30.4780   36.3280 N   0  0  0  0  0  0  0  0  0  0  0  0
   37.8720   32.3560   36.4990 H   0  0  0  0  0  0  0  0  0  0  0  0
   36.0400   28.4890   36.5130 H   0  0  0  0  0  0  0  0  0  0  0  0
   38.7630   32.2450   38.9380 N   0  0  0  0  0  0  0  0  0  0  0  0
   40.2130   32.3720   38.8100 C   0  0  0  0  0  0  0  0  0  0  0  0
   40.6520   33.6580   39.4580 C   0  0  0  0  0  0  0  0  0  0  0  0
   40.1830   33.7960   40.8010 N   0  0  0  0  0  0  0  0  0  0  0  0
   38.7830   33.5760   40.9760 C   0  0  0  0  0  0  0  0  0  0  0  0
   38.0370   33.2280   39.7190 C   0  0  0  0  0  0  0  0  0  0  0  0
   40.6300   31.4930   39.3430 H   0  0  0  0  0  0  0  0  0  0  0  0
   40.4780   32.3700   37.7490 H   0  0  0  0  0  0  0  0  0  0  0  0
   41.7350   33.7670   39.4610 H   0  0  0  0  0  0  0  0  0  0  0  0
   40.2050   34.4930   38.8690 H   0  0  0  0  0  0  0  0  0  0  0  0
   40.7490   33.1550   41.4020 H   0  0  0  0  0  0  0  0  0  0  0  0
   38.6150   32.7950   41.7470 H   0  0  0  0  0  0  0  0  0  0  0  0
   38.3460   34.5250   41.3960 H   0  0  0  0  0  0  0  0  0  0  0  0
   37.0320   32.8970   39.9800 H   0  0  0  0  0  0  0  0  0  0  0  0
   37.9180   34.1780   39.1220 H   0  0  0  0  0  0  0  0  0  0  0  0
   38.1030   29.7990   40.2320 O   0  0  0  0  0  0  0  0  0  0  0  0
   37.5800   29.6730   42.8220 O   0  0  0  0  0  0  0  0  0  0  0  0
   36.9050   29.6470   41.4580 P   0  0  1  0  0  0  0  0  0  0  0  0
   35.8370   30.9250   41.2860 O   0  0  0  0  0  0  0  0  0  0  0  0
   36.1660   31.6920   41.8430 H   0  0  0  0  0  0  0  0  0  0  0  0
   36.1430   28.1460   41.2440 O   0  0  0  0  0  0  0  0  0  0  0  0
   37.0810   27.1390   41.2630 C   0  0  1  0  0  3  0  0  0  0  0  0
   36.9620   26.2750   42.5260 C   0  0  0  0  0  3  0  0  0  0  0  0
   37.3910   26.7650   43.4160 H   0  0  0  0  0  0  0  0  0  0  0  0
   37.8450   25.1160   42.0460 C   0  0  0  0  0  3  0  0  0  0  0  0
   38.9000   25.5120   42.1050 H   0  0  0  0  0  0  0  0  0  0  0  0
   37.5630   24.9610   40.7000 O   0  0  0  0  0  0  0  0  0  0  0  0
   36.8910   26.0660   40.2350 C   0  0  0  0  0  3  0  0  0  0  0  0
   37.1600   26.3650   39.2170 H   0  0  0  0  0  0  0  0  0  0  0  0
  1  2  1  0  0  0  0
  2  3  2  0  0  0  0
  2  9  1  0  0  0  0
  3 24  1  0  0  0  0
  4  3  1  0  0  0  0
  5  4  2  0  0  0  0
  6  5  1  0  0  0  0
  6  1  2  0  0  0  0
  7  1  1  0  0  0  0
  8  5  1  0  0  0  0
  9 14  1  0  0  0  0
 10  9  1  0  0  0  0
 10 15  1  0  0  0  0
 10 11  1  0  0  0  0
 11 17  1  0  0  0  0
 11 12  1  0  0  0  0
 12 13  1  0  0  0  0
 12 19  1  0  0  0  0
 13 21  1  0  0  0  0
 13 20  1  0  0  0  0
 14 22  1  0  0  0  0
 14 13  1  0  0  0  0
 16 10  1  0  0  0  0
 18 11  1  0  0  0  0
 23 14  1  0  0  0  0
 24 26  1  0  0  0  0
 26 25  2  1  0  0  0
 27 26  1  0  0  0  0
 27 28  1  0  0  0  0
 29 26  1  0  0  0  0
 30 29  1  1  0  0  0
 30 31  1  0  0  0  0
 31 32  1  0  0  0  0
 33 34  1  0  0  0  0
 33 31  1  0  0  0  0
 35 33  1  0  0  0  0
 36 35  1  0  0  0  0
 36 30  1  0  0  0  0
 37 36  1  0  0  0  0
M  END
>  <minimizedAffinity>
-5.15620947

$$$$

 OpenBabel03242520273D

 37 39  0  0  1  0  0  0  0  0999 V2000
   38.3150   31.9340   38.4980 C   0  0  0  0  0  0  0  0  0  0  0  0
   38.2360   30.5590   38.8590 C   0  0  0  0  0  0  0  0  0  0  0  0
   38.3840   30.2230   40.1890 C   0  0  0  0  0  0  0  0  0  0  0  0
   38.5990   31.2260   41.0960 N   0  0  0  0  0  0  0  0  0  0  0  0
   38.6710   32.5210   40.7370 C   0  0  0  0  0  0  0  0  0  0  0  0
   38.5300   32.8680   39.4530 N   0  0  0  0  0  0  0  0  0  0  0  0
   38.2030   32.2240   37.4660 H   0  0  0  0  0  0  0  0  0  0  0  0
   38.8450   33.1610   41.5910 H   0  0  0  0  0  0  0  0  0  0  0  0
   38.0100   29.6530   37.7950 N   0  0  0  0  0  0  0  0  0  0  0  0
   39.0730   28.8340   37.2180 C   0  0  0  0  0  0  0  0  0  0  0  0
   38.4710   27.8910   36.2090 C   0  0  0  0  0  0  0  0  0  0  0  0
   37.6680   28.5560   35.2320 N   0  0  0  0  0  0  0  0  0  0  0  0
   36.6850   29.4450   35.7630 C   0  0  0  0  0  0  0  0  0  0  0  0
   36.6650   29.5400   37.2630 C   0  0  0  0  0  0  0  0  0  0  0  0
   39.7620   29.5530   36.7300 H   0  0  0  0  0  0  0  0  0  0  0  0
   39.5640   28.2740   38.0170 H   0  0  0  0  0  0  0  0  0  0  0  0
   39.2300   27.3090   35.6890 H   0  0  0  0  0  0  0  0  0  0  0  0
   37.8000   27.1960   36.7670 H   0  0  0  0  0  0  0  0  0  0  0  0
   38.3120   29.0480   34.5720 H   0  0  0  0  0  0  0  0  0  0  0  0
   36.8070   30.4550   35.3200 H   0  0  0  0  0  0  0  0  0  0  0  0
   35.6790   29.0750   35.4200 H   0  0  0  0  0  0  0  0  0  0  0  0
   36.0250   30.3700   37.5610 H   0  0  0  0  0  0  0  0  0  0  0  0
   36.1780   28.6010   37.6550 H   0  0  0  0  0  0  0  0  0  0  0  0
   38.3040   28.8760   40.5170 O   0  0  0  0  0  0  0  0  0  0  0  0
   38.8020   28.0980   42.9950 O   0  0  0  0  0  0  0  0  0  0  0  0
   37.6580   28.4390   42.0510 P   0  0  1  0  0  0  0  0  0  0  0  0
   36.7710   29.7410   42.6180 O   0  0  0  0  0  0  0  0  0  0  0  0
   37.3800   30.3320   43.1550 H   0  0  0  0  0  0  0  0  0  0  0  0
   36.6940   27.0610   41.8260 O   0  0  0  0  0  0  0  0  0  0  0  0
   37.4880   25.9840   41.5050 C   0  0  1  0  0  3  0  0  0  0  0  0
   36.9750   24.6870   42.1460 C   0  0  0  0  0  3  0  0  0  0  0  0
   37.2220   24.6190   43.2190 H   0  0  0  0  0  0  0  0  0  0  0  0
   37.8210   23.7150   41.3140 C   0  0  0  0  0  3  0  0  0  0  0  0
   38.8650   23.8110   41.7310 H   0  0  0  0  0  0  0  0  0  0  0  0
   37.8610   24.2500   40.0380 O   0  0  0  0  0  0  0  0  0  0  0  0
   37.4430   25.5590   40.0690 C   0  0  0  0  0  3  0  0  0  0  0  0
   37.9820   26.2230   39.3860 H   0  0  0  0  0  0  0  0  0  0  0  0
  1  2  2  0  0  0  0
  1  6  1  0  0  0  0
  2  3  1  0  0  0  0
  3 24  1  0  0  0  0
  3  4  2  0  0  0  0
  5  4  1  0  0  0  0
  5  8  1  0  0  0  0
  6  5  2  0  0  0  0
  7  1  1  0  0  0  0
  9  2  1  0  0  0  0
 10  9  1  0  0  0  0
 10 16  1  0  0  0  0
 11 18  1  0  0  0  0
 11 10  1  0  0  0  0
 12 13  1  0  0  0  0
 12 11  1  0  0  0  0
 13 14  1  0  0  0  0
 14 22  1  0  0  0  0
 14 23  1  0  0  0  0
 14  9  1  0  0  0  0
 15 10  1  0  0  0  0
 17 11  1  0  0  0  0
 19 12  1  0  0  0  0
 20 13  1  0  0  0  0
 21 13  1  0  0  0  0
 24 26  1  0  0  0  0
 26 27  1  0  0  0  0
 26 25  2  1  0  0  0
 27 28  1  0  0  0  0
 29 26  1  0  0  0  0
 30 29  1  6  0  0  0
 30 31  1  0  0  0  0
 31 32  1  0  0  0  0
 33 34  1  0  0  0  0
 33 31  1  0  0  0  0
 35 36  1  0  0  0  0
 35 33  1  0  0  0  0
 36 30  1  0  0  0  0
 37 36  1  0  0  0  0
M  END
>  <minimizedAffinity>
-4.94975567

$$$$

 OpenBabel03242520273D

 37 39  0  0  1  0  0  0  0  0999 V2000
   36.8050   27.3250   38.9860 C   0  0  0  0  0  0  0  0  0  0  0  0
   36.7840   28.5590   39.6960 C   0  0  0  0  0  0  0  0  0  0  0  0
   36.3530   29.6890   39.0310 C   0  0  0  0  0  0  0  0  0  0  0  0
   35.9670   29.5690   37.7230 N   0  0  0  0  0  0  0  0  0  0  0  0
   35.9940   28.3950   37.0670 C   0  0  0  0  0  0  0  0  0  0  0  0
   36.4080   27.2880   37.6920 N   0  0  0  0  0  0  0  0  0  0  0  0
   37.1370   26.4270   39.4810 H   0  0  0  0  0  0  0  0  0  0  0  0
   35.6540   28.5020   36.0460 H   0  0  0  0  0  0  0  0  0  0  0  0
   37.2160   28.5040   41.0420 N   0  0  0  0  0  0  0  0  0  0  0  0
   36.3390   28.0930   42.1360 C   0  0  0  0  0  0  0  0  0  0  0  0
   37.1440   28.0140   43.4070 C   0  0  0  0  0  0  0  0  0  0  0  0
   37.8760   29.2110   43.6800 N   0  0  0  0  0  0  0  0  0  0  0  0
   38.6650   29.6960   42.5940 C   0  0  0  0  0  0  0  0  0  0  0  0
   38.5880   28.8720   41.3390 C   0  0  0  0  0  0  0  0  0  0  0  0
   35.5650   28.8860   42.2020 H   0  0  0  0  0  0  0  0  0  0  0  0
   35.9060   27.1180   41.8990 H   0  0  0  0  0  0  0  0  0  0  0  0
   36.5230   27.7890   44.2720 H   0  0  0  0  0  0  0  0  0  0  0  0
   37.8910   27.1970   43.2730 H   0  0  0  0  0  0  0  0  0  0  0  0
   37.1950   29.9320   44.0100 H   0  0  0  0  0  0  0  0  0  0  0  0
   38.3990   30.7510   42.3710 H   0  0  0  0  0  0  0  0  0  0  0  0
   39.7360   29.7130   42.9400 H   0  0  0  0  0  0  0  0  0  0  0  0
   39.0620   29.4150   40.5230 H   0  0  0  0  0  0  0  0  0  0  0  0
   39.2040   27.9410   41.5070 H   0  0  0  0  0  0  0  0  0  0  0  0
   36.3410   30.8800   39.7450 O   0  0  0  0  0  0  0  0  0  0  0  0
   37.3910   32.2260   37.7260 O   0  0  0  0  0  0  0  0  0  0  0  0
   37.3900   32.1490   39.2450 P   0  0  1  0  0  0  0  0  0  0  0  0
   36.8250   33.5720   39.9230 O   0  0  0  0  0  0  0  0  0  0  0  0
   36.1750   33.9940   39.2850 H   0  0  0  0  0  0  0  0  0  0  0  0
   38.9520   31.7620   39.7840 O   0  0  0  0  0  0  0  0  0  0  0  0
   39.8860   32.2800   38.9160 C   0  0  1  0  0  3  0  0  0  0  0  0
   40.3810   33.6600   39.3690 C   0  0  0  0  0  3  0  0  0  0  0  0
   39.6560   34.4620   39.1530 H   0  0  0  0  0  0  0  0  0  0  0  0
   41.5990   33.7400   38.4400 C   0  0  0  0  0  3  0  0  0  0  0  0
   41.1680   33.9460   37.4170 H   0  0  0  0  0  0  0  0  0  0  0  0
   42.1200   32.4590   38.3910 O   0  0  0  0  0  0  0  0  0  0  0  0
   41.2020   31.5650   38.8890 C   0  0  0  0  0  3  0  0  0  0  0  0
   41.1810   30.6010   38.3700 H   0  0  0  0  0  0  0  0  0  0  0  0
  1  7  1  0  0  0  0
  1  2  1  0  0  0  0
  2  9  1  0  0  0  0
  3  2  2  0  0  0  0
  3 24  1  0  0  0  0
  4  3  1  0  0  0  0
  5  6  1  0  0  0  0
  5  4  2  0  0  0  0
  6  1  2  0  0  0  0
  8  5  1  0  0  0  0
  9 14  1  0  0  0  0
  9 10  1  0  0  0  0
 10 15  1  0  0  0  0
 10 11  1  0  0  0  0
 11 12  1  0  0  0  0
 11 17  1  0  0  0  0
 12 19  1  0  0  0  0
 13 21  1  0  0  0  0
 13 12  1  0  0  0  0
 14 23  1  0  0  0  0
 14 13  1  0  0  0  0
 16 10  1  0  0  0  0
 18 11  1  0  0  0  0
 20 13  1  0  0  0  0
 22 14  1  0  0  0  0
 26 25  2  6  0  0  0
 26 24  1  0  0  0  0
 26 29  1  0  0  0  0
 26 27  1  0  0  0  0
 28 27  1  0  0  0  0
 30 31  1  0  0  0  0
 30 29  1  1  0  0  0
 32 31  1  0  0  0  0
 33 31  1  0  0  0  0
 34 33  1  0  0  0  0
 35 33  1  0  0  0  0
 35 36  1  0  0  0  0
 36 30  1  0  0  0  0
 37 36  1  0  0  0  0
M  END
>  <minimizedAffinity>
-4.82056618

$$$$

 OpenBabel03242520273D

 37 39  0  0  1  0  0  0  0  0999 V2000
   40.1970   33.0990   40.1760 C   0  0  0  0  0  0  0  0  0  0  0  0
   39.6640   31.7790   40.1570 C   0  0  0  0  0  0  0  0  0  0  0  0
   38.2980   31.6270   40.0400 C   0  0  0  0  0  0  0  0  0  0  0  0
   37.5210   32.7500   39.9480 N   0  0  0  0  0  0  0  0  0  0  0  0
   38.0410   33.9910   39.9670 C   0  0  0  0  0  0  0  0  0  0  0  0
   39.3630   34.1610   40.0800 N   0  0  0  0  0  0  0  0  0  0  0  0
   41.2610   33.2470   40.2660 H   0  0  0  0  0  0  0  0  0  0  0  0
   37.2720   34.7460   39.8830 H   0  0  0  0  0  0  0  0  0  0  0  0
   40.6090   30.7300   40.2630 N   0  0  0  0  0  0  0  0  0  0  0  0
   41.2320   30.1090   39.0970 C   0  0  0  0  0  0  0  0  0  0  0  0
   42.2790   29.1320   39.5630 C   0  0  0  0  0  0  0  0  0  0  0  0
   41.7800   28.1890   40.5140 N   0  0  0  0  0  0  0  0  0  0  0  0
   41.0760   28.7610   41.6160 C   0  0  0  0  0  0  0  0  0  0  0  0
   40.9670   30.2600   41.5880 C   0  0  0  0  0  0  0  0  0  0  0  0
   40.4060   29.5880   38.5690 H   0  0  0  0  0  0  0  0  0  0  0  0
   41.6850   30.8880   38.4780 H   0  0  0  0  0  0  0  0  0  0  0  0
   42.7220   28.5810   38.7350 H   0  0  0  0  0  0  0  0  0  0  0  0
   43.0760   29.7220   40.0730 H   0  0  0  0  0  0  0  0  0  0  0  0
   41.1890   27.5000   39.9980 H   0  0  0  0  0  0  0  0  0  0  0  0
   40.0650   28.3090   41.6960 H   0  0  0  0  0  0  0  0  0  0  0  0
   41.6230   28.4640   42.5530 H   0  0  0  0  0  0  0  0  0  0  0  0
   40.2620   30.5830   42.3520 H   0  0  0  0  0  0  0  0  0  0  0  0
   41.9740   30.6770   41.8810 H   0  0  0  0  0  0  0  0  0  0  0  0
   37.8020   30.3290   40.0240 O   0  0  0  0  0  0  0  0  0  0  0  0
   37.6790   29.7830   42.6090 O   0  0  0  0  0  0  0  0  0  0  0  0
   36.8320   29.8020   41.3450 P   0  0  1  0  0  0  0  0  0  0  0  0
   35.5500   30.8690   41.4910 O   0  0  0  0  0  0  0  0  0  0  0  0
   35.8190   31.6080   42.1140 H   0  0  0  0  0  0  0  0  0  0  0  0
   36.3130   28.2240   40.9990 O   0  0  0  0  0  0  0  0  0  0  0  0
   37.3220   27.3300   41.2750 C   0  0  1  0  0  3  0  0  0  0  0  0
   36.9440   26.3820   42.4210 C   0  0  0  0  0  3  0  0  0  0  0  0
   37.0230   26.8600   43.4110 H   0  0  0  0  0  0  0  0  0  0  0  0
   38.0670   25.3600   42.2010 C   0  0  0  0  0  3  0  0  0  0  0  0
   38.9980   25.8690   42.5870 H   0  0  0  0  0  0  0  0  0  0  0  0
   38.2200   25.2590   40.8300 O   0  0  0  0  0  0  0  0  0  0  0  0
   37.5830   26.3080   40.2120 C   0  0  0  0  0  3  0  0  0  0  0  0
   38.1020   26.6980   39.3310 H   0  0  0  0  0  0  0  0  0  0  0  0
  1  7  1  0  0  0  0
  2  1  1  0  0  0  0
  2  9  1  0  0  0  0
  3  2  2  0  0  0  0
  4  5  2  0  0  0  0
  4  3  1  0  0  0  0
  5  6  1  0  0  0  0
  6  1  2  0  0  0  0
  8  5  1  0  0  0  0
  9 14  1  0  0  0  0
 10 11  1  0  0  0  0
 10  9  1  0  0  0  0
 11 18  1  0  0  0  0
 11 12  1  0  0  0  0
 12 13  1  0  0  0  0
 13 20  1  0  0  0  0
 13 21  1  0  0  0  0
 14 13  1  0  0  0  0
 14 23  1  0  0  0  0
 14 22  1  0  0  0  0
 15 10  1  0  0  0  0
 16 10  1  0  0  0  0
 17 11  1  0  0  0  0
 19 12  1  0  0  0  0
 24  3  1  0  0  0  0
 24 26  1  0  0  0  0
 26 27  1  0  0  0  0
 26 25  2  1  0  0  0
 27 28  1  0  0  0  0
 29 26  1  0  0  0  0
 30 29  1  6  0  0  0
 30 31  1  0  0  0  0
 31 32  1  0  0  0  0
 33 31  1  0  0  0  0
 33 34  1  0  0  0  0
 35 33  1  0  0  0  0
 36 35  1  0  0  0  0
 36 30  1  0  0  0  0
 37 36  1  0  0  0  0
M  END
>  <minimizedAffinity>
-4.68711853

$$$$

 OpenBabel03242520273D

 37 39  0  0  1  0  0  0  0  0999 V2000
   41.1900   32.2720   37.3140 C   0  0  0  0  0  0  0  0  0  0  0  0
   40.5900   31.7240   38.4830 C   0  0  0  0  0  0  0  0  0  0  0  0
   41.2170   30.6630   39.1040 C   0  0  0  0  0  0  0  0  0  0  0  0
   42.3840   30.1890   38.5680 N   0  0  0  0  0  0  0  0  0  0  0  0
   42.9380   30.7190   37.4620 C   0  0  0  0  0  0  0  0  0  0  0  0
   42.3460   31.7480   36.8440 N   0  0  0  0  0  0  0  0  0  0  0  0
   40.7210   33.1010   36.8090 H   0  0  0  0  0  0  0  0  0  0  0  0
   43.8530   30.2120   37.1930 H   0  0  0  0  0  0  0  0  0  0  0  0
   39.3830   32.3340   38.9010 N   0  0  0  0  0  0  0  0  0  0  0  0
   39.3490   33.4460   39.8480 C   0  0  0  0  0  0  0  0  0  0  0  0
   37.9320   33.9420   39.9700 C   0  0  0  0  0  0  0  0  0  0  0  0
   37.0000   32.9020   40.2760 N   0  0  0  0  0  0  0  0  0  0  0  0
   37.0780   31.7550   39.4300 C   0  0  0  0  0  0  0  0  0  0  0  0
   38.1350   31.8270   38.3630 C   0  0  0  0  0  0  0  0  0  0  0  0
   39.7070   33.0220   40.8090 H   0  0  0  0  0  0  0  0  0  0  0  0
   40.0010   34.2430   39.4840 H   0  0  0  0  0  0  0  0  0  0  0  0
   37.8340   34.7210   40.7240 H   0  0  0  0  0  0  0  0  0  0  0  0
   37.6420   34.3590   38.9770 H   0  0  0  0  0  0  0  0  0  0  0  0
   37.1280   32.6460   41.2810 H   0  0  0  0  0  0  0  0  0  0  0  0
   37.2200   30.8400   40.0430 H   0  0  0  0  0  0  0  0  0  0  0  0
   36.0770   31.6400   38.9280 H   0  0  0  0  0  0  0  0  0  0  0  0
   38.2450   30.8470   37.9010 H   0  0  0  0  0  0  0  0  0  0  0  0
   37.7560   32.5220   37.5590 H   0  0  0  0  0  0  0  0  0  0  0  0
   40.6120   30.1450   40.2420 O   0  0  0  0  0  0  0  0  0  0  0  0
   38.6840   28.4990   39.4900 O   0  0  0  0  0  0  0  0  0  0  0  0
   40.0290   28.5270   40.2010 P   0  0  1  0  0  0  0  0  0  0  0  0
   41.1620   27.5990   39.3900 O   0  0  0  0  0  0  0  0  0  0  0  0
   40.9350   27.6000   38.4120 H   0  0  0  0  0  0  0  0  0  0  0  0
   39.8200   28.0180   41.8060 O   0  0  0  0  0  0  0  0  0  0  0  0
   38.4790   27.8650   42.0760 C   0  0  1  0  0  3  0  0  0  0  0  0
   38.1440   26.4260   42.4920 C   0  0  0  0  0  3  0  0  0  0  0  0
   38.1050   25.7350   41.6340 H   0  0  0  0  0  0  0  0  0  0  0  0
   36.7410   26.7100   43.0440 C   0  0  0  0  0  3  0  0  0  0  0  0
   36.0980   26.8690   42.1310 H   0  0  0  0  0  0  0  0  0  0  0  0
   36.8270   27.9380   43.6770 O   0  0  0  0  0  0  0  0  0  0  0  0
   37.9850   28.5750   43.2980 C   0  0  0  0  0  3  0  0  0  0  0  0
   37.8890   29.6590   43.1810 H   0  0  0  0  0  0  0  0  0  0  0  0
  1  2  1  0  0  0  0
  2  9  1  0  0  0  0
  2  3  2  0  0  0  0
  3 24  1  0  0  0  0
  4  3  1  0  0  0  0
  5  4  2  0  0  0  0
  6  1  2  0  0  0  0
  6  5  1  0  0  0  0
  7  1  1  0  0  0  0
  8  5  1  0  0  0  0
  9 10  1  0  0  0  0
 10 11  1  0  0  0  0
 10 15  1  0  0  0  0
 11 12  1  0  0  0  0
 11 17  1  0  0  0  0
 12 19  1  0  0  0  0
 13 20  1  0  0  0  0
 13 12  1  0  0  0  0
 14  9  1  0  0  0  0
 14 13  1  0  0  0  0
 16 10  1  0  0  0  0
 18 11  1  0  0  0  0
 21 13  1  0  0  0  0
 22 14  1  0  0  0  0
 23 14  1  0  0  0  0
 26 25  2  6  0  0  0
 26 24  1  0  0  0  0
 26 29  1  0  0  0  0
 27 26  1  0  0  0  0
 28 27  1  0  0  0  0
 30 29  1  1  0  0  0
 30 31  1  0  0  0  0
 30 36  1  0  0  0  0
 31 33  1  0  0  0  0
 32 31  1  0  0  0  0
 33 35  1  0  0  0  0
 34 33  1  0  0  0  0
 36 35  1  0  0  0  0
 37 36  1  0  0  0  0
M  END
>  <minimizedAffinity>
-4.5629921

$$$$

 OpenBabel03242520273D

 37 39  0  0  1  0  0  0  0  0999 V2000
   39.1610   32.2040   39.7290 C   0  0  0  0  0  0  0  0  0  0  0  0
   39.3100   31.4180   40.9060 C   0  0  0  0  0  0  0  0  0  0  0  0
   38.2350   30.6630   41.3290 C   0  0  0  0  0  0  0  0  0  0  0  0
   37.0790   30.7050   40.5960 N   0  0  0  0  0  0  0  0  0  0  0  0
   36.9560   31.4540   39.4850 C   0  0  0  0  0  0  0  0  0  0  0  0
   37.9850   32.1940   39.0590 N   0  0  0  0  0  0  0  0  0  0  0  0
   39.9850   32.8030   39.3760 H   0  0  0  0  0  0  0  0  0  0  0  0
   35.9720   31.3570   39.0480 H   0  0  0  0  0  0  0  0  0  0  0  0
   40.5730   31.4910   41.5410 N   0  0  0  0  0  0  0  0  0  0  0  0
   40.7810   31.0860   42.9300 C   0  0  0  0  0  0  0  0  0  0  0  0
   42.2520   31.1600   43.2460 C   0  0  0  0  0  0  0  0  0  0  0  0
   42.8290   32.4280   42.9280 N   0  0  0  0  0  0  0  0  0  0  0  0
   42.5570   32.9010   41.6090 C   0  0  0  0  0  0  0  0  0  0  0  0
   41.7000   31.9890   40.7760 C   0  0  0  0  0  0  0  0  0  0  0  0
   40.2060   31.8150   43.5350 H   0  0  0  0  0  0  0  0  0  0  0  0
   40.4140   30.0650   43.0610 H   0  0  0  0  0  0  0  0  0  0  0  0
   42.4580   30.9440   44.2930 H   0  0  0  0  0  0  0  0  0  0  0  0
   42.7640   30.3990   42.6110 H   0  0  0  0  0  0  0  0  0  0  0  0
   42.5130   33.1120   43.6520 H   0  0  0  0  0  0  0  0  0  0  0  0
   42.1020   33.9120   41.6540 H   0  0  0  0  0  0  0  0  0  0  0  0
   43.5460   33.0280   41.0880 H   0  0  0  0  0  0  0  0  0  0  0  0
   41.3930   32.5120   39.8710 H   0  0  0  0  0  0  0  0  0  0  0  0
   42.3470   31.1260   40.4450 H   0  0  0  0  0  0  0  0  0  0  0  0
   38.4050   29.9040   42.4800 O   0  0  0  0  0  0  0  0  0  0  0  0
   36.5120   28.0790   42.7640 O   0  0  0  0  0  0  0  0  0  0  0  0
   37.9900   28.2350   42.4340 P   0  0  1  0  0  0  0  0  0  0  0  0
   38.3310   27.6680   40.8960 O   0  0  0  0  0  0  0  0  0  0  0  0
   37.5130   27.7840   40.3250 H   0  0  0  0  0  0  0  0  0  0  0  0
   38.9100   27.4470   43.6220 O   0  0  0  0  0  0  0  0  0  0  0  0
   39.9460   26.7610   43.0310 C   0  0  1  0  0  3  0  0  0  0  0  0
   41.2960   27.0990   43.6790 C   0  0  0  0  0  3  0  0  0  0  0  0
   41.6870   28.0780   43.3560 H   0  0  0  0  0  0  0  0  0  0  0  0
   42.0970   25.9450   43.0640 C   0  0  0  0  0  3  0  0  0  0  0  0
   42.2490   26.2410   41.9860 H   0  0  0  0  0  0  0  0  0  0  0  0
   41.2400   24.8580   43.0510 O   0  0  0  0  0  0  0  0  0  0  0  0
   39.9490   25.2810   43.2610 C   0  0  0  0  0  3  0  0  0  0  0  0
   39.1940   24.7340   42.6880 H   0  0  0  0  0  0  0  0  0  0  0  0
  1  2  1  0  0  0  0
  2  3  2  0  0  0  0
  2  9  1  0  0  0  0
  3 24  1  0  0  0  0
  4  3  1  0  0  0  0
  5  4  2  0  0  0  0
  6  5  1  0  0  0  0
  6  1  2  0  0  0  0
  7  1  1  0  0  0  0
  8  5  1  0  0  0  0
  9 10  1  0  0  0  0
 10 16  1  0  0  0  0
 10 11  1  0  0  0  0
 10 15  1  0  0  0  0
 11 17  1  0  0  0  0
 12 11  1  0  0  0  0
 12 19  1  0  0  0  0
 13 20  1  0  0  0  0
 13 12  1  0  0  0  0
 14  9  1  0  0  0  0
 14 13  1  0  0  0  0
 18 11  1  0  0  0  0
 21 13  1  0  0  0  0
 22 14  1  0  0  0  0
 23 14  1  0  0  0  0
 26 24  1  0  0  0  0
 26 25  2  1  0  0  0
 26 29  1  0  0  0  0
 27 26  1  0  0  0  0
 28 27  1  0  0  0  0
 30 36  1  0  0  0  0
 30 29  1  1  0  0  0
 30 31  1  0  0  0  0
 32 31  1  0  0  0  0
 33 31  1  0  0  0  0
 34 33  1  0  0  0  0
 35 33  1  0  0  0  0
 35 36  1  0  0  0  0
 37 36  1  0  0  0  0
M  END
>  <minimizedAffinity>
-4.55915308

$$$$

 OpenBabel03242520273D

 37 39  0  0  1  0  0  0  0  0999 V2000
   36.6670   27.9750   41.0770 C   0  0  0  0  0  0  0  0  0  0  0  0
   37.7350   28.7490   41.6130 C   0  0  0  0  0  0  0  0  0  0  0  0
   37.6330   30.1240   41.5670 C   0  0  0  0  0  0  0  0  0  0  0  0
   36.5120   30.6780   41.0100 N   0  0  0  0  0  0  0  0  0  0  0  0
   35.5110   29.9310   40.5080 C   0  0  0  0  0  0  0  0  0  0  0  0
   35.5890   28.5960   40.5420 N   0  0  0  0  0  0  0  0  0  0  0  0
   36.7200   26.8990   41.1000 H   0  0  0  0  0  0  0  0  0  0  0  0
   34.7150   30.5470   40.1140 H   0  0  0  0  0  0  0  0  0  0  0  0
   38.8200   28.0160   42.1500 N   0  0  0  0  0  0  0  0  0  0  0  0
   38.7780   27.4030   43.4760 C   0  0  0  0  0  0  0  0  0  0  0  0
   40.0290   26.5900   43.6800 C   0  0  0  0  0  0  0  0  0  0  0  0
   41.2250   27.3330   43.4310 N   0  0  0  0  0  0  0  0  0  0  0  0
   41.2540   28.0290   42.1850 C   0  0  0  0  0  0  0  0  0  0  0  0
   40.0180   27.8710   41.3450 C   0  0  0  0  0  0  0  0  0  0  0  0
   38.7330   28.2530   44.1880 H   0  0  0  0  0  0  0  0  0  0  0  0
   37.8940   26.7640   43.5450 H   0  0  0  0  0  0  0  0  0  0  0  0
   40.0880   26.1740   44.6840 H   0  0  0  0  0  0  0  0  0  0  0  0
   40.0040   25.7550   42.9410 H   0  0  0  0  0  0  0  0  0  0  0  0
   41.3670   27.9840   44.2360 H   0  0  0  0  0  0  0  0  0  0  0  0
   41.4620   29.1060   42.3560 H   0  0  0  0  0  0  0  0  0  0  0  0
   42.1310   27.6320   41.6010 H   0  0  0  0  0  0  0  0  0  0  0  0
   40.0540   28.5790   40.5170 H   0  0  0  0  0  0  0  0  0  0  0  0
   40.0480   26.8400   40.8880 H   0  0  0  0  0  0  0  0  0  0  0  0
   38.6880   30.8570   42.0950 O   0  0  0  0  0  0  0  0  0  0  0  0
   38.8270   33.2300   40.9340 O   0  0  0  0  0  0  0  0  0  0  0  0
   39.5670   31.9050   41.0500 P   0  0  1  0  0  0  0  0  0  0  0  0
   41.0910   32.1180   41.7090 O   0  0  0  0  0  0  0  0  0  0  0  0
   41.0660   32.9140   42.3210 H   0  0  0  0  0  0  0  0  0  0  0  0
   39.6300   31.1680   39.5230 O   0  0  0  0  0  0  0  0  0  0  0  0
   40.8020   31.5100   38.8880 C   0  0  1  0  0  3  0  0  0  0  0  0
   41.2050   30.4660   37.8380 C   0  0  0  0  0  3  0  0  0  0  0  0
   41.6490   29.5620   38.2870 H   0  0  0  0  0  0  0  0  0  0  0  0
   42.2650   31.3140   37.1240 C   0  0  0  0  0  3  0  0  0  0  0  0
   43.1480   31.3240   37.8260 H   0  0  0  0  0  0  0  0  0  0  0  0
   41.7660   32.6050   37.1080 O   0  0  0  0  0  0  0  0  0  0  0  0
   40.7210   32.7100   37.9950 C   0  0  0  0  0  3  0  0  0  0  0  0
   40.6730   33.6650   38.5280 H   0  0  0  0  0  0  0  0  0  0  0  0
  1  7  1  0  0  0  0
  1  2  1  0  0  0  0
  2  9  1  0  0  0  0
  3  2  2  0  0  0  0
  3 24  1  0  0  0  0
  4  3  1  0  0  0  0
  5  6  1  0  0  0  0
  5  4  2  0  0  0  0
  6  1  2  0  0  0  0
  8  5  1  0  0  0  0
  9 10  1  0  0  0  0
 10 16  1  0  0  0  0
 10 11  1  0  0  0  0
 10 15  1  0  0  0  0
 11 17  1  0  0  0  0
 12 11  1  0  0  0  0
 12 19  1  0  0  0  0
 13 20  1  0  0  0  0
 13 12  1  0  0  0  0
 14  9  1  0  0  0  0
 14 13  1  0  0  0  0
 18 11  1  0  0  0  0
 21 13  1  0  0  0  0
 22 14  1  0  0  0  0
 23 14  1  0  0  0  0
 26 25  2  6  0  0  0
 26 27  1  0  0  0  0
 26 24  1  0  0  0  0
 27 28  1  0  0  0  0
 29 26  1  0  0  0  0
 30 29  1  6  0  0  0
 31 32  1  0  0  0  0
 31 30  1  0  0  0  0
 33 34  1  0  0  0  0
 33 31  1  0  0  0  0
 35 33  1  0  0  0  0
 35 36  1  0  0  0  0
 36 37  1  0  0  0  0
 36 30  1  0  0  0  0
M  END
>  <minimizedAffinity>
-4.51742983

$$$$

 OpenBabel03242520273D

 37 39  0  0  1  0  0  0  0  0999 V2000
   39.9860   33.1830   40.5900 C   0  0  0  0  0  0  0  0  0  0  0  0
   39.5610   31.8250   40.5790 C   0  0  0  0  0  0  0  0  0  0  0  0
   38.2630   31.5490   40.1990 C   0  0  0  0  0  0  0  0  0  0  0  0
   37.4480   32.5930   39.8530 N   0  0  0  0  0  0  0  0  0  0  0  0
   37.8660   33.8710   39.8690 C   0  0  0  0  0  0  0  0  0  0  0  0
   39.1200   34.1610   40.2340 N   0  0  0  0  0  0  0  0  0  0  0  0
   40.9940   33.4270   40.8820 H   0  0  0  0  0  0  0  0  0  0  0  0
   37.0820   34.5500   39.5650 H   0  0  0  0  0  0  0  0  0  0  0  0
   40.5310   30.8700   40.9660 N   0  0  0  0  0  0  0  0  0  0  0  0
   41.3910   30.1850   40.0040 C   0  0  0  0  0  0  0  0  0  0  0  0
   42.3930   29.3470   40.7540 C   0  0  0  0  0  0  0  0  0  0  0  0
   41.7880   28.4690   41.7060 N   0  0  0  0  0  0  0  0  0  0  0  0
   40.8620   29.0920   42.5960 C   0  0  0  0  0  0  0  0  0  0  0  0
   40.6720   30.5670   42.3780 C   0  0  0  0  0  0  0  0  0  0  0  0
   40.7070   29.5490   39.4050 H   0  0  0  0  0  0  0  0  0  0  0  0
   41.9020   30.9300   39.3890 H   0  0  0  0  0  0  0  0  0  0  0  0
   43.0110   28.7500   40.0840 H   0  0  0  0  0  0  0  0  0  0  0  0
   43.0480   30.0470   41.3240 H   0  0  0  0  0  0  0  0  0  0  0  0
   41.3420   27.6860   41.1770 H   0  0  0  0  0  0  0  0  0  0  0  0
   39.8830   28.5720   42.5510 H   0  0  0  0  0  0  0  0  0  0  0  0
   41.2480   28.9370   43.6420 H   0  0  0  0  0  0  0  0  0  0  0  0
   39.8210   30.9100   42.9670 H   0  0  0  0  0  0  0  0  0  0  0  0
   41.5820   31.0910   42.7920 H   0  0  0  0  0  0  0  0  0  0  0  0
   37.8710   30.2160   40.1960 O   0  0  0  0  0  0  0  0  0  0  0  0
   37.3220   29.4030   42.6520 O   0  0  0  0  0  0  0  0  0  0  0  0
   36.6650   29.7100   41.3140 P   0  0  1  0  0  0  0  0  0  0  0  0
   35.5510   30.9520   41.4560 O   0  0  0  0  0  0  0  0  0  0  0  0
   35.8430   31.5590   42.2000 H   0  0  0  0  0  0  0  0  0  0  0  0
   35.9640   28.2910   40.7010 O   0  0  0  0  0  0  0  0  0  0  0  0
   36.0030   28.3080   39.3260 C   0  0  1  0  0  3  0  0  0  0  0  0
   36.0640   26.8910   38.7410 C   0  0  0  0  0  3  0  0  0  0  0  0
   37.0690   26.4430   38.8180 H   0  0  0  0  0  0  0  0  0  0  0  0
   35.7300   27.2680   37.2920 C   0  0  0  0  0  3  0  0  0  0  0  0
   36.6700   27.7490   36.8950 H   0  0  0  0  0  0  0  0  0  0  0  0
   34.7840   28.2740   37.3740 O   0  0  0  0  0  0  0  0  0  0  0  0
   34.7500   28.7770   38.6530 C   0  0  0  0  0  3  0  0  0  0  0  0
   34.5840   29.8570   38.7110 H   0  0  0  0  0  0  0  0  0  0  0  0
  1  7  1  0  0  0  0
  2  1  1  0  0  0  0
  2  9  1  0  0  0  0
  3  2  2  0  0  0  0
  4  5  2  0  0  0  0
  4  3  1  0  0  0  0
  5  6  1  0  0  0  0
  6  1  2  0  0  0  0
  8  5  1  0  0  0  0
  9 14  1  0  0  0  0
 10 11  1  0  0  0  0
 10  9  1  0  0  0  0
 11 18  1  0  0  0  0
 11 12  1  0  0  0  0
 12 13  1  0  0  0  0
 13 21  1  0  0  0  0
 14 13  1  0  0  0  0
 14 23  1  0  0  0  0
 14 22  1  0  0  0  0
 15 10  1  0  0  0  0
 16 10  1  0  0  0  0
 17 11  1  0  0  0  0
 19 12  1  0  0  0  0
 20 13  1  0  0  0  0
 24  3  1  0  0  0  0
 24 26  1  0  0  0  0
 26 27  1  0  0  0  0
 26 25  2  1  0  0  0
 27 28  1  0  0  0  0
 29 26  1  0  0  0  0
 30 29  1  1  0  0  0
 31 32  1  0  0  0  0
 31 30  1  0  0  0  0
 33 35  1  0  0  0  0
 33 31  1  0  0  0  0
 34 33  1  0  0  0  0
 35 36  1  0  0  0  0
 36 37  1  0  0  0  0
 36 30  1  0  0  0  0
M  END
>  <minimizedAffinity>
-4.51207256

$$$$
