REMARK  Name = 
REMARK  4 active torsions:
REMARK  status: ('A' for Active; 'I' for Inactive)
REMARK    1  A    between atoms: C_1  and  O_11
REMARK    2  A    between atoms: C_2  and  C_7
REMARK    3  A    between atoms: C_5  and  C_17
REMARK    4  A    between atoms: O_11  and  C_12
REMARK                            x       y       z     vdW  Elec       q    Type
REMARK                         _______ _______ _______ _____ _____    ______ ____
ROOT
ATOM      1  C   UNL     1      47.090  34.387  43.088  0.00  0.00    +0.000 A 
ATOM      2  C   UNL     1      45.783  34.602  43.496  0.00  0.00    +0.000 A 
ATOM      3  C   UNL     1      45.261  33.761  44.504  0.00  0.00    +0.000 A 
ATOM      4  N   UNL     1      46.058  32.794  45.018  0.00  0.00    +0.000 NA
ATOM      5  C   UNL     1      47.331  32.620  44.589  0.00  0.00    +0.000 A 
ATOM      6  N   UNL     1      47.837  33.408  43.636  0.00  0.00    +0.000 NA
ATOM      7  H   UNL     1      44.253  33.922  44.823  0.00  0.00    +0.000 HD
ENDROOT
BRANCH   5   8
ATOM      8  C   UNL     1      48.112  31.552  45.203  0.00  0.00    +0.000 C 
ATOM      9  C   UNL     1      47.940  30.190  44.559  0.00  0.00    +0.000 C 
ATOM     10  H   UNL     1      48.572  30.097  43.662  0.00  0.00    +0.000 HD
ATOM     11  C   UNL     1      48.468  29.350  45.710  0.00  0.00    +0.000 C 
ATOM     12  H   UNL     1      48.292  28.288  45.592  0.00  0.00    +0.000 HD
ATOM     13  O   UNL     1      47.698  29.863  46.774  0.00  0.00    +0.000 OA
ATOM     14  C   UNL     1      47.684  31.227  46.619  0.00  0.00    +0.000 C 
ATOM     15  H   UNL     1      46.720  31.691  46.886  0.00  0.00    +0.000 HD
ENDBRANCH   5   8
BRANCH   2  16
ATOM     16  C   UNL     1      44.984  35.687  42.875  0.00  0.00    +0.000 C 
ATOM     17  F   UNL     1      45.624  36.901  43.064  0.00  0.00    +0.000 F 
ATOM     18  F   UNL     1      44.953  35.464  41.509  0.00  0.00    +0.000 F 
ATOM     19  F   UNL     1      43.718  35.811  43.350  0.00  0.00    +0.000 F 
ENDBRANCH   2  16
BRANCH   1  20
ATOM     20  O   UNL     1      47.575  35.200  42.122  0.00  0.00    +0.000 OA
BRANCH  20  21
ATOM     21  C   UNL     1      48.875  35.188  41.577  0.00  0.00    +0.000 C 
ATOM     22  F   UNL     1      49.761  35.501  42.613  0.00  0.00    +0.000 F 
ATOM     23  F   UNL     1      49.128  33.971  41.020  0.00  0.00    +0.000 F 
ATOM     24  F   UNL     1      49.010  36.224  40.669  0.00  0.00    +0.000 F 
ENDBRANCH  20  21
ENDBRANCH   1  20
TORSDOF 4
