
     RDKit          3D

 43 46  0  0  0  0  0  0  0  0999 V2000
   48.0730   35.4795   41.8025 C   0  0  1  0  0  0  0  0  0  0  0  0
   49.3169   34.7077   41.6918 C   0  0  0  0  0  0  0  0  0  0  0  0
   48.4814   35.0807   40.4553 C   0  0  1  0  0  0  0  0  0  0  0  0
   46.0587   32.9302   43.7542 C   0  0  0  0  0  0  0  0  0  0  0  0
   47.1478   33.6186   43.2293 C   0  0  0  0  0  0  0  0  0  0  0  0
   46.9132   34.7285   42.3943 C   0  0  0  0  0  0  0  0  0  0  0  0
   45.6336   35.0949   42.1254 N   0  0  0  0  0  0  0  0  0  0  0  0
   44.5879   34.4040   42.6517 C   0  0  0  0  0  0  0  0  0  0  0  0
   44.7982   33.3283   43.4611 N   0  0  0  0  0  0  0  0  0  0  0  0
   47.7657   34.1405   39.8101 O   0  0  0  0  0  0  0  0  0  0  0  0
   48.5169   32.3973   37.9913 O   0  0  0  0  0  0  0  0  0  0  0  0
   48.0940   33.8455   38.2367 P   0  0  2  0  0  0  0  0  0  0  0  0
   49.3414   34.7904   37.5796 O   0  0  0  0  0  0  0  0  0  0  0  0
   46.7357   34.0679   37.2764 O   0  0  0  0  0  0  0  0  0  0  0  0
   45.7903   33.0896   37.0278 C   0  0  0  0  0  0  0  0  0  0  0  0
   45.6576   32.2830   35.9132 C   0  0  0  0  0  0  0  0  0  0  0  0
   44.6649   31.3616   35.8230 C   0  0  0  0  0  0  0  0  0  0  0  0
   43.7573   31.2018   36.8416 C   0  0  0  0  0  0  0  0  0  0  0  0
   43.9162   32.0302   37.9547 C   0  0  0  0  0  0  0  0  0  0  0  0
   44.9183   32.9499   38.0290 N   0  0  0  0  0  0  0  0  0  0  0  0
   48.1205   36.5477   42.0934 H   0  0  0  0  0  0  0  0  0  0  0  0
   50.2985   35.1909   41.8372 H   0  0  0  0  0  0  0  0  0  0  0  0
   49.3311   33.6059   41.8477 H   0  0  0  0  0  0  0  0  0  0  0  0
   49.0503   35.7683   39.8004 H   0  0  0  0  0  0  0  0  0  0  0  0
   46.2689   32.0827   44.3918 H   0  0  0  0  0  0  0  0  0  0  0  0
   48.1304   33.2958   43.4669 H   0  0  0  0  0  0  0  0  0  0  0  0
   43.6359   34.7873   42.3680 H   0  0  0  0  0  0  0  0  0  0  0  0
   49.0045   35.6946   37.4691 H   0  0  0  0  0  0  0  0  0  0  0  0
   46.4079   32.4624   35.1473 H   0  0  0  0  0  0  0  0  0  0  0  0
   44.6434   30.7748   34.9064 H   0  0  0  0  0  0  0  0  0  0  0  0
   42.9707   30.4696   36.7668 H   0  0  0  0  0  0  0  0  0  0  0  0
   42.9401   31.8746   39.0765 C   0  0  2  0  0  0  0  0  0  0  0  0
   43.4539   32.4722   40.3714 C   0  0  2  0  0  0  0  0  0  0  0  0
   43.1734   33.5154   40.5274 H   0  0  0  0  0  0  0  0  0  0  0  0
   42.9562   31.5187   41.4355 C   0  0  2  0  0  0  0  0  0  0  0  0
   42.1006   32.0668   41.9282 H   0  0  0  0  0  0  0  0  0  0  0  0
   42.5487   30.3611   40.8236 O   0  0  0  0  0  0  0  0  0  0  0  0
   42.8144   30.4196   39.4783 C   0  0  1  0  0  0  0  0  0  0  0  0
   41.9462   29.9318   38.9678 H   0  0  0  0  0  0  0  0  0  0  0  0
   41.9510   32.3136   38.8418 H   0  0  0  0  0  0  0  0  0  0  0  0
   44.5593   32.3540   40.3272 H   0  0  0  0  0  0  0  0  0  0  0  0
   43.7034   31.3741   42.2385 H   0  0  0  0  0  0  0  0  0  0  0  0
   43.7680   29.9057   39.2276 H   0  0  0  0  0  0  0  0  0  0  0  0
  1  6  1  0
  2  1  1  0
  3  2  1  0
  3  1  1  0
  5  4  2  0
  6  5  1  0
  7  6  2  0
  7  8  1  0
  8  9  2  0
  9  4  1  0
 10  3  1  0
 12 11  2  0
 12 10  1  1
 13 12  1  0
 14 12  1  0
 15 14  1  0
 15 20  1  0
 16 15  2  0
 17 16  1  0
 17 18  2  0
 18 19  1  0
 19 20  2  0
  1 21  1  6
  2 22  1  0
  2 23  1  0
  3 24  1  6
  4 25  1  0
  5 26  1  0
  8 27  1  0
 13 28  1  0
 16 29  1  0
 17 30  1  0
 18 31  1  0
 32 33  1  0
 33 34  1  1
 33 35  1  0
 35 36  1  1
 35 37  1  0
 37 38  1  0
 38 39  1  6
 38 32  1  0
 32 40  1  6
 33 41  1  0
 35 42  1  0
 38 43  1  0
 19 32  1  0
M  ISO  8  21  13  22  13  23  13  24  13  25  14  26  14  27  14  28   3
M  ISO  6  29  14  30  14  31  14  34  15  36  15  39  15
M  END
>  <DihAtoms>  (1) 
17,18,31,32

>  <DihDeg>  (1) 
56.47143808509075

$$$$
