
     RDKit          3D

 28 29  0  0  0  0  0  0  0  0999 V2000
   44.2966   35.7821   44.1800 C   0  0  0  0  0  0  0  0  0  0  0  0
   44.4686   34.9324   43.0906 C   0  0  0  0  0  0  0  0  0  0  0  0
   45.0832   33.7114   43.3049 C   0  0  0  0  0  0  0  0  0  0  0  0
   45.4997   33.3799   44.5724 N   0  0  0  0  0  0  0  0  0  0  0  0
   45.3138   34.2348   45.6068 C   0  0  0  0  0  0  0  0  0  0  0  0
   44.7170   35.4224   45.4030 N   0  0  0  0  0  0  0  0  0  0  0  0
   44.0269   35.2891   41.7578 C   0  0  0  0  0  0  0  0  0  0  0  0
   43.0166   34.7645   41.0967 C   0  0  0  0  0  0  0  0  0  0  0  0
   42.6355   35.2015   39.7167 C   0  0  0  0  0  0  0  0  0  0  0  0
   43.8159   36.7349   44.0076 H   0  0  0  0  0  0  0  0  0  0  0  0
   45.2329   33.0311   42.4910 H   0  0  0  0  0  0  0  0  0  0  0  0
   44.6217   36.0797   41.2892 H   0  0  0  0  0  0  0  0  0  0  0  0
   42.5109   33.9980   41.6633 H   0  0  0  0  0  0  0  0  0  0  0  0
   42.1218   34.3128   39.2608 H   0  0  0  0  0  0  0  0  0  0  0  0
   41.9960   36.0930   39.7217 H   0  0  0  0  0  0  0  0  0  0  0  0
   43.5603   35.3512   39.0928 H   0  0  0  0  0  0  0  0  0  0  0  0
   45.7407   33.9266   46.9770 C   0  0  2  0  0  0  0  0  0  0  0  0
   46.7030   32.7468   46.8935 C   0  0  1  0  0  0  0  0  0  0  0  0
   46.7506   32.3041   45.8917 H   0  0  0  0  0  0  0  0  0  0  0  0
   46.0839   31.7773   47.8760 C   0  0  2  0  0  0  0  0  0  0  0  0
   46.9358   31.3672   48.4745 H   0  0  0  0  0  0  0  0  0  0  0  0
   45.2188   32.5203   48.6910 O   0  0  0  0  0  0  0  0  0  0  0  0
   44.6254   33.4793   47.8781 C   0  0  1  0  0  0  0  0  0  0  0  0
   44.2426   34.2787   48.5504 H   0  0  0  0  0  0  0  0  0  0  0  0
   46.2479   34.8100   47.4146 H   0  0  0  0  0  0  0  0  0  0  0  0
   47.7319   33.0433   47.1686 H   0  0  0  0  0  0  0  0  0  0  0  0
   45.5359   30.9713   47.3371 H   0  0  0  0  0  0  0  0  0  0  0  0
   43.7409   33.0838   47.3360 H   0  0  0  0  0  0  0  0  0  0  0  0
  1  6  2  0
  2  3  2  0
  2  1  1  0
  3  4  1  0
  4  5  2  0
  6  5  1  0
  7  2  1  0
  8  7  2  0
  9  8  1  0
  1 10  1  0
  3 11  1  0
  7 12  1  0
  8 13  1  0
  9 14  1  0
  9 15  1  0
  9 16  1  0
 17 18  1  0
 18 19  1  6
 18 20  1  0
 20 21  1  1
 20 22  1  0
 22 23  1  0
 23 24  1  1
 23 17  1  0
 17 25  1  1
 18 26  1  0
 20 27  1  0
 23 28  1  0
  5 17  1  0
M  ISO  8  10  14  11  14  14   8  15   8  16   8  19  15  21  15  24  15
M  END
>  <DihAtoms>  (1) 
3,4,16,17

>  <DihDeg>  (1) 
-119.82539203628494

$$$$
