
 OpenBabel03252507083D

 23 24  0  0  1  0  0  0  0  0999 V2000
   44.6150   36.0900   44.5050 C   0  0  0  0  0  0  0  0  0  0  0  0
   45.2670   36.0270   43.2490 C   0  0  0  0  0  0  0  0  0  0  0  0
   46.0590   34.9200   42.9720 C   0  0  0  0  0  0  0  0  0  0  0  0
   46.1660   33.9500   43.9290 N   0  0  0  0  0  0  0  0  0  0  0  0
   45.5390   34.0320   45.1100 C   0  0  0  0  0  0  0  0  0  0  0  0
   44.7610   35.1040   45.4020 N   0  0  0  0  0  0  0  0  0  0  0  0
   44.0230   36.9990   44.6120 H   0  0  0  0  0  0  0  0  0  0  0  0
   45.1720   36.8050   42.5020 H   0  0  0  0  0  0  0  0  0  0  0  0
   45.6530   32.9900   46.1400 C   0  0  1  0  0  3  0  0  0  0  0  0
   47.1130   32.7460   46.5470 C   0  0  0  0  0  3  0  0  0  0  0  0
   47.5880   32.1270   45.7570 H   0  0  0  0  0  0  0  0  0  0  0  0
   46.8280   31.9600   47.8110 C   0  0  0  0  0  3  0  0  0  0  0  0
   47.6840   31.8970   48.4950 H   0  0  0  0  0  0  0  0  0  0  0  0
   45.6720   32.4780   48.3620 O   0  0  0  0  0  0  0  0  0  0  0  0
   45.0830   33.3410   47.4720 C   0  0  0  0  0  3  0  0  0  0  0  0
   45.4000   34.3800   47.7750 H   0  0  0  0  0  0  0  0  0  0  0  0
   46.6880   34.8710   41.7470 O   0  0  0  0  0  0  0  0  0  0  0  0
   48.6640   33.2630   41.0410 O   0  0  0  0  0  0  0  0  0  0  0  0
   48.3870   34.6300   41.6770 P   0  0  0  0  0  0  0  0  0  0  0  0
   49.0930   35.8730   40.8300 O   0  0  0  0  0  0  0  0  0  0  0  0
   49.8990   36.2010   41.3270 H   0  0  0  0  0  0  0  0  0  0  0  0
   48.9500   34.5590   43.2840 O   0  0  0  0  0  0  0  0  0  0  0  0
   48.8500   33.6330   43.5820 H   0  0  0  0  0  0  0  0  0  0  0  0
  1  7  1  0  0  0  0
  1  6  1  0  0  0  0
  2  1  2  0  0  0  0
  3  2  1  0  0  0  0
  3  4  2  0  0  0  0
  4  5  1  0  0  0  0
  5  6  2  0  0  0  0
  8  2  1  0  0  0  0
  9  5  1  6  0  0  0
  9 10  1  0  0  0  0
  9 15  1  0  0  0  0
 10 12  1  0  0  0  0
 11 10  1  0  0  0  0
 12 14  1  0  0  0  0
 12 13  1  0  0  0  0
 15 16  1  0  0  0  0
 15 14  1  0  0  0  0
 17  3  1  0  0  0  0
 18 19  2  0  0  0  0
 19 17  1  0  0  0  0
 19 22  1  0  0  0  0
 20 21  1  0  0  0  0
 20 19  1  0  0  0  0
 22 23  1  0  0  0  0
M  END
>  <minimizedAffinity>
-5.19274235

>  <minimizedRMSD>
0.398274004

$$$$
