
 OpenBabel03252504333D

 39 41  0  0  1  0  0  0  0  0999 V2000
   42.4860   35.3770   40.5330 O   0  0  0  0  0  0  0  0  0  0  0  0
   41.3040   35.5580   41.1690 C   0  0  0  0  0  0  0  0  0  0  0  0
   40.7660   36.4220   40.6360 H   0  0  0  0  0  0  0  0  0  0  0  0
   41.2890   35.8070   42.2290 H   0  0  0  0  0  0  0  0  0  0  0  0
   40.6020   33.2770   41.6630 C   0  0  0  0  0  0  0  0  0  0  0  0
   40.3140   34.4430   40.9670 C   0  0  0  0  0  0  0  0  0  0  0  0
   39.1910   34.4960   40.2010 C   0  0  0  0  0  0  0  0  0  0  0  0
   38.4430   33.4060   40.1790 N   0  0  0  0  0  0  0  0  0  0  0  0
   38.6940   32.2780   40.8360 C   0  0  0  0  0  0  0  0  0  0  0  0
   39.8330   32.1800   41.6310 N   0  0  0  0  0  0  0  0  0  0  0  0
   41.4870   33.1920   42.2850 H   0  0  0  0  0  0  0  0  0  0  0  0
   39.0010   35.4010   39.6810 H   0  0  0  0  0  0  0  0  0  0  0  0
   37.8510   31.0480   40.8120 C   0  0  1  0  0  0  0  0  0  0  0  0
   37.9500   30.3980   39.4280 C   0  0  0  0  0  0  0  0  0  0  0  0
   38.9260   30.6720   38.9690 H   0  0  0  0  0  0  0  0  0  0  0  0
   37.9470   28.9360   39.8360 C   0  0  0  0  0  0  0  0  0  0  0  0
   36.8960   28.5770   39.9250 H   0  0  0  0  0  0  0  0  0  0  0  0
   38.6240   28.8850   41.0510 O   0  0  0  0  0  0  0  0  0  0  0  0
   38.2930   30.0040   41.7820 C   0  0  0  0  0  0  0  0  0  0  0  0
   37.4590   29.7330   42.4880 H   0  0  0  0  0  0  0  0  0  0  0  0
   43.7630   35.2520   41.0680 C   0  0  0  0  0  0  0  0  0  0  0  0
   43.8800   35.6260   42.3400 C   0  0  0  0  0  0  0  0  0  0  0  0
   45.1570   35.5930   43.1470 C   0  0  0  0  0  0  0  0  0  0  0  0
   45.8990   35.1300   42.4310 H   0  0  0  0  0  0  0  0  0  0  0  0
   45.4990   36.6060   43.4100 H   0  0  0  0  0  0  0  0  0  0  0  0
   44.9740   34.7580   44.2200 O   0  0  0  0  0  0  0  0  0  0  0  0
   45.6780   32.5990   42.8250 O   0  0  0  0  0  0  0  0  0  0  0  0
   45.9580   33.3940   44.0780 P   0  0  1  0  0  0  0  0  0  0  0  0
   47.5950   33.8670   44.0170 O   0  0  0  0  0  0  0  0  0  0  0  0
   47.6720   34.7260   44.4700 H   0  0  0  0  0  0  0  0  0  0  0  0
   45.7820   32.4120   45.4370 O   0  0  0  0  0  0  0  0  0  0  0  0
   46.0970   33.0660   46.6100 C   0  0  0  0  0  0  0  0  0  0  0  0
   46.9680   32.3800   47.6160 C   0  0  0  0  0  0  0  0  0  0  0  0
   45.4720   32.4870   47.8560 C   0  0  0  0  0  0  0  0  0  0  0  0
   46.1500   34.1620   46.5350 H   0  0  0  0  0  0  0  0  0  0  0  0
   47.4220   31.4270   47.3230 H   0  0  0  0  0  0  0  0  0  0  0  0
   47.5990   33.0530   48.2220 H   0  0  0  0  0  0  0  0  0  0  0  0
   45.1020   33.1560   48.6470 H   0  0  0  0  0  0  0  0  0  0  0  0
   44.9670   31.4920   47.7840 H   0  0  0  0  0  0  0  0  0  0  0  0
  1 21  1  0  0  0  0
  1  2  1  0  0  0  0
  2  4  1  0  0  0  0
  3  2  1  0  0  0  0
  5 11  1  0  0  0  0
  6  2  1  0  0  0  0
  6  5  2  0  0  0  0
  7  6  1  0  0  0  0
  8  7  2  0  0  0  0
  8  9  1  0  0  0  0
  9 10  2  0  0  0  0
 10  5  1  0  0  0  0
 12  7  1  0  0  0  0
 13  9  1  6  0  0  0
 13 19  1  0  0  0  0
 14 16  1  0  0  0  0
 14 13  1  0  0  0  0
 15 14  1  0  0  0  0
 16 17  1  0  0  0  0
 16 18  1  0  0  0  0
 18 19  1  0  0  0  0
 19 20  1  0  0  0  0
 21 22  2  0  0  0  0
 22 23  1  0  0  0  0
 23 25  1  0  0  0  0
 23 26  1  0  0  0  0
 24 23  1  0  0  0  0
 28 27  2  6  0  0  0
 28 26  1  0  0  0  0
 28 31  1  0  0  0  0
 29 28  1  0  0  0  0
 29 30  1  0  0  0  0
 31 32  1  0  0  0  0
 32 33  1  0  0  0  0
 32 34  1  0  0  0  0
 33 34  1  0  0  0  0
 33 37  1  0  0  0  0
 34 38  1  0  0  0  0
 35 32  1  0  0  0  0
 36 33  1  0  0  0  0
 39 34  1  0  0  0  0
M  END
>  <minimizedAffinity>
-5.06260347

>  <minimizedRMSD>
0.671194673

$$$$
