
 OpenBabel03252509043D

 47 49  0  0  1  0  0  0  0  0999 V2000
   46.6880   34.5190   43.5690 N   0  0  0  0  0  0  0  0  0  0  0  0
   46.2090   35.5290   42.7060 C   0  0  0  0  0  0  0  0  0  0  0  0
   44.6980   35.6870   42.6900 C   0  0  0  0  0  0  0  0  0  0  0  0
   44.0280   35.4120   44.0110 C   0  0  0  0  0  0  0  0  0  0  0  0
   45.0440   35.1170   45.0990 C   0  0  0  0  0  0  0  0  0  0  0  0
   45.8760   33.9140   44.5030 C   0  0  2  0  0  0  0  0  0  0  0  0
   46.6060   36.5070   43.0790 H   0  0  0  0  0  0  0  0  0  0  0  0
   46.5210   35.4730   41.6550 H   0  0  0  0  0  0  0  0  0  0  0  0
   44.4820   36.6930   42.3010 H   0  0  0  0  0  0  0  0  0  0  0  0
   44.3070   34.9570   41.9450 H   0  0  0  0  0  0  0  0  0  0  0  0
   43.3840   36.2730   44.2760 H   0  0  0  0  0  0  0  0  0  0  0  0
   43.3480   34.5330   43.9710 H   0  0  0  0  0  0  0  0  0  0  0  0
   44.5220   34.7200   45.9760 H   0  0  0  0  0  0  0  0  0  0  0  0
   45.7250   35.9540   45.2770 H   0  0  0  0  0  0  0  0  0  0  0  0
   45.1090   33.2010   44.1390 H   0  0  0  0  0  0  0  0  0  0  0  0
   47.7880   33.7670   43.0280 C   0  0  0  0  0  0  0  0  0  0  0  0
   48.3540   33.3060   43.8750 H   0  0  0  0  0  0  0  0  0  0  0  0
   48.4650   34.4690   42.4870 H   0  0  0  0  0  0  0  0  0  0  0  0
   47.2570   32.6860   42.1410 C   0  0  0  0  0  0  0  0  0  0  0  0
   47.4900   31.6980   42.5310 H   0  0  0  0  0  0  0  0  0  0  0  0
   46.1560   32.7570   42.0490 H   0  0  0  0  0  0  0  0  0  0  0  0
   49.2740   32.0620   39.0240 C   0  0  0  0  0  0  0  0  0  0  0  0
   48.7190   31.9290   40.3180 C   0  0  0  0  0  0  0  0  0  0  0  0
   47.8250   32.8490   40.7760 C   0  0  0  0  0  0  0  0  0  0  0  0
   47.5050   33.8630   39.9580 N   0  0  0  0  0  0  0  0  0  0  0  0
   48.0190   34.0020   38.7360 C   0  0  0  0  0  0  0  0  0  0  0  0
   48.9020   33.1140   38.2550 N   0  0  0  0  0  0  0  0  0  0  0  0
   49.9800   31.3440   38.6490 H   0  0  0  0  0  0  0  0  0  0  0  0
   49.0060   31.0880   40.9510 H   0  0  0  0  0  0  0  0  0  0  0  0
   47.6950   34.8550   38.1560 H   0  0  0  0  0  0  0  0  0  0  0  0
   46.5650   33.4870   45.6160 O   0  0  0  0  0  0  0  0  0  0  0  0
   45.6170   31.1170   44.8460 O   0  0  0  0  0  0  0  0  0  0  0  0
   46.2590   31.8930   46.0150 P   0  0  2  0  0  0  0  0  0  0  0  0
   45.0230   31.9300   47.2080 O   0  0  0  0  0  0  0  0  0  0  0  0
   45.4150   32.1990   48.0800 H   0  0  0  0  0  0  0  0  0  0  0  0
   47.5460   31.0760   46.6600 O   0  0  0  0  0  0  0  0  0  0  0  0
   47.5950   29.7840   46.1780 C   0  0  0  0  0  0  0  0  0  0  0  0
   46.9550   29.0730   46.7530 H   0  0  0  0  0  0  0  0  0  0  0  0
   47.2250   29.7750   45.1340 H   0  0  0  0  0  0  0  0  0  0  0  0
   48.9840   29.1980   46.1980 C   0  0  1  0  0  3  0  0  0  0  0  0
   49.7000   29.5010   47.4970 C   0  0  0  0  0  3  0  0  0  0  0  0
   50.7990   29.4930   47.3710 H   0  0  0  0  0  0  0  0  0  0  0  0
   49.3110   28.3020   48.3580 C   0  0  0  0  0  3  0  0  0  0  0  0
   48.9400   28.6320   49.3610 H   0  0  0  0  0  0  0  0  0  0  0  0
   48.3230   27.6250   47.6470 O   0  0  0  0  0  0  0  0  0  0  0  0
   48.8220   27.6790   46.3430 C   0  0  0  0  0  3  0  0  0  0  0  0
   49.8350   27.1940   46.3960 H   0  0  0  0  0  0  0  0  0  0  0  0
  1  6  1  0  0  0  0
  2  7  1  0  0  0  0
  2  1  1  0  0  0  0
  3  2  1  0  0  0  0
  3  4  1  0  0  0  0
  4 11  1  0  0  0  0
  4  5  1  0  0  0  0
  5 14  1  0  0  0  0
  5 13  1  0  0  0  0
  6 15  1  6  0  0  0
  6  5  1  0  0  0  0
  6 31  1  0  0  0  0
  8  2  1  0  0  0  0
  9  3  1  0  0  0  0
 10  3  1  0  0  0  0
 12  4  1  0  0  0  0
 16  1  1  0  0  0  0
 16 17  1  0  0  0  0
 18 16  1  0  0  0  0
 19 20  1  0  0  0  0
 19 16  1  0  0  0  0
 21 19  1  0  0  0  0
 22 23  1  0  0  0  0
 23 24  2  0  0  0  0
 23 29  1  0  0  0  0
 24 19  1  0  0  0  0
 25 24  1  0  0  0  0
 26 25  2  0  0  0  0
 27 26  1  0  0  0  0
 27 22  2  0  0  0  0
 28 22  1  0  0  0  0
 30 26  1  0  0  0  0
 31 33  1  0  0  0  0
 33 32  2  6  0  0  0
 33 36  1  0  0  0  0
 33 34  1  0  0  0  0
 34 35  1  0  0  0  0
 37 36  1  0  0  0  0
 37 38  1  0  0  0  0
 39 37  1  0  0  0  0
 40 37  1  1  0  0  0
 40 46  1  0  0  0  0
 40 41  1  0  0  0  0
 41 43  1  0  0  0  0
 42 41  1  0  0  0  0
 43 44  1  0  0  0  0
 45 43  1  0  0  0  0
 46 47  1  0  0  0  0
 46 45  1  0  0  0  0
M  END
>  <minimizedAffinity>
-4.0979166

>  <minimizedRMSD>
1.10874987

$$$$
