
 OpenBabel03252504333D

 39 41  0  0  1  0  0  0  0  0999 V2000
   42.5130   35.3630   40.5800 O   0  0  0  0  0  0  0  0  0  0  0  0
   41.3210   35.5580   41.1930 C   0  0  0  0  0  0  0  0  0  0  0  0
   40.7970   36.4200   40.6400 H   0  0  0  0  0  0  0  0  0  0  0  0
   41.2870   35.8170   42.2490 H   0  0  0  0  0  0  0  0  0  0  0  0
   40.6110   33.2760   41.6730 C   0  0  0  0  0  0  0  0  0  0  0  0
   40.3280   34.4460   40.9820 C   0  0  0  0  0  0  0  0  0  0  0  0
   39.2060   34.5060   40.2150 C   0  0  0  0  0  0  0  0  0  0  0  0
   38.4550   33.4190   40.1870 N   0  0  0  0  0  0  0  0  0  0  0  0
   38.7010   32.2870   40.8380 C   0  0  0  0  0  0  0  0  0  0  0  0
   39.8380   32.1820   41.6340 N   0  0  0  0  0  0  0  0  0  0  0  0
   41.4940   33.1850   42.2960 H   0  0  0  0  0  0  0  0  0  0  0  0
   39.0200   35.4150   39.6990 H   0  0  0  0  0  0  0  0  0  0  0  0
   37.8540   31.0600   40.8070 C   0  0  1  0  0  3  0  0  0  0  0  0
   37.9610   30.4130   39.4230 C   0  0  0  0  0  3  0  0  0  0  0  0
   38.9400   30.6830   38.9700 H   0  0  0  0  0  0  0  0  0  0  0  0
   37.9510   28.9490   39.8270 C   0  0  0  0  0  3  0  0  0  0  0  0
   36.8980   28.5940   39.9080 H   0  0  0  0  0  0  0  0  0  0  0  0
   38.6200   28.8940   41.0470 O   0  0  0  0  0  0  0  0  0  0  0  0
   38.2860   30.0120   41.7770 C   0  0  0  0  0  3  0  0  0  0  0  0
   37.4480   29.7440   42.4770 H   0  0  0  0  0  0  0  0  0  0  0  0
   43.7830   35.2720   41.1360 C   0  0  0  0  0  3  0  0  0  0  0  0
   43.8550   35.5770   42.4300 C   0  0  0  0  0  3  0  0  0  0  0  0
   45.1160   35.5610   43.2630 C   0  0  0  0  0  0  0  0  0  0  0  0
   45.8910   35.1630   42.5440 H   0  0  0  0  0  0  0  0  0  0  0  0
   45.4080   36.5750   43.5780 H   0  0  0  0  0  0  0  0  0  0  0  0
   44.9470   34.6730   44.2940 O   0  0  0  0  0  0  0  0  0  0  0  0
   45.6800   32.5570   42.8490 O   0  0  0  0  0  0  0  0  0  0  0  0
   45.9740   33.3470   44.1020 P   0  0  1  0  0  0  0  0  0  0  0  0
   47.5900   33.8800   43.9920 O   0  0  0  0  0  0  0  0  0  0  0  0
   47.6510   34.7360   44.4530 H   0  0  0  0  0  0  0  0  0  0  0  0
   45.8800   32.3440   45.4530 O   0  0  0  0  0  0  0  0  0  0  0  0
   46.1570   33.0090   46.6300 C   0  0  0  0  0  0  0  0  0  0  0  0
   47.0390   32.3540   47.6470 C   0  0  0  0  0  0  0  0  0  0  0  0
   45.5370   32.4080   47.8680 C   0  0  0  0  0  0  0  0  0  0  0  0
   46.1730   34.1060   46.5540 H   0  0  0  0  0  0  0  0  0  0  0  0
   47.5290   31.4170   47.3610 H   0  0  0  0  0  0  0  0  0  0  0  0
   47.6380   33.0490   48.2610 H   0  0  0  0  0  0  0  0  0  0  0  0
   45.1330   33.0650   48.6540 H   0  0  0  0  0  0  0  0  0  0  0  0
   45.0680   31.3960   47.7910 H   0  0  0  0  0  0  0  0  0  0  0  0
  1 21  1  0  0  0  0
  1  2  1  0  0  0  0
  2  4  1  0  0  0  0
  3  2  1  0  0  0  0
  5 11  1  0  0  0  0
  6  2  1  0  0  0  0
  6  5  2  0  0  0  0
  7  6  1  0  0  0  0
  8  7  2  0  0  0  0
  8  9  1  0  0  0  0
  9 10  2  0  0  0  0
 10  5  1  0  0  0  0
 12  7  1  0  0  0  0
 13  9  1  6  0  0  0
 13 19  1  0  0  0  0
 14 16  1  0  0  0  0
 14 13  1  0  0  0  0
 15 14  1  0  0  0  0
 16 17  1  0  0  0  0
 16 18  1  0  0  0  0
 18 19  1  0  0  0  0
 19 20  1  0  0  0  0
 21 22  2  0  0  0  0
 22 23  1  0  0  0  0
 23 25  1  0  0  0  0
 23 26  1  0  0  0  0
 24 23  1  0  0  0  0
 28 27  2  6  0  0  0
 28 26  1  0  0  0  0
 28 31  1  0  0  0  0
 29 28  1  0  0  0  0
 29 30  1  0  0  0  0
 31 32  1  0  0  0  0
 32 33  1  0  0  0  0
 32 34  1  0  0  0  0
 33 34  1  0  0  0  0
 33 37  1  0  0  0  0
 34 38  1  0  0  0  0
 35 32  1  0  0  0  0
 36 33  1  0  0  0  0
 39 34  1  0  0  0  0
M  END
>  <minimizedAffinity>
-5.05934048

>  <minimizedRMSD>
0.586422324

$$$$
