
 OpenBabel03242518333D

 27 29  0  0  1  0  0  0  0  0999 V2000
   36.9600   28.8780   42.1510 C   0  0  0  0  0  0  0  0  0  0  0  0
   37.8850   28.8360   43.1730 C   0  0  0  0  0  0  0  0  0  0  0  0
   38.2220   27.5170   43.4140 C   0  0  0  0  0  0  0  0  0  0  0  0
   37.4620   26.8030   42.4990 C   0  0  0  0  0  0  0  0  0  0  0  0
   36.7350   27.6130   41.7730 O   0  0  0  0  0  0  0  0  0  0  0  0
   38.2120   29.7470   43.6280 H   0  0  0  0  0  0  0  0  0  0  0  0
   38.9160   27.1900   44.1510 H   0  0  0  0  0  0  0  0  0  0  0  0
   37.4600   25.3430   42.3490 C   0  0  1  0  0  3  0  0  0  0  0  0
   36.9420   24.9460   40.9590 C   0  0  0  0  0  3  0  0  0  0  0  0
   35.8550   24.9380   40.8950 H   0  0  0  0  0  0  0  0  0  0  0  0
   37.5350   23.5310   40.9160 C   0  0  0  0  0  3  0  0  0  0  0  0
   36.9050   22.9580   41.6480 H   0  0  0  0  0  0  0  0  0  0  0  0
   38.7900   23.6320   41.4820 O   0  0  0  0  0  0  0  0  0  0  0  0
   38.8680   24.8010   42.2190 C   0  0  0  0  0  3  0  0  0  0  0  0
   39.3510   24.6810   43.2130 H   0  0  0  0  0  0  0  0  0  0  0  0
   36.3140   29.9590   41.5420 O   0  0  0  0  0  0  0  0  0  0  0  0
   35.6920   29.8120   40.3000 C   0  0  0  0  0  0  0  0  0  0  0  0
   34.5960   29.2260   40.2930 O   0  0  0  0  0  0  0  0  0  0  0  0
   36.4050   30.3640   39.1880 C   0  0  0  0  0  0  0  0  0  0  0  0
   36.9540   31.6000   39.4450 C   0  0  0  0  0  0  0  0  0  0  0  0
   37.6730   32.2090   38.3930 C   0  0  0  0  0  0  0  0  0  0  0  0
   37.7810   31.5590   37.2210 N   0  0  0  0  0  0  0  0  0  0  0  0
   37.2180   30.3400   37.0250 C   0  0  0  0  0  0  0  0  0  0  0  0
   36.5320   29.7510   38.0160 N   0  0  0  0  0  0  0  0  0  0  0  0
   36.8860   32.1380   40.3610 H   0  0  0  0  0  0  0  0  0  0  0  0
   38.1300   33.1820   38.5320 H   0  0  0  0  0  0  0  0  0  0  0  0
   37.2860   29.7910   36.0950 H   0  0  0  0  0  0  0  0  0  0  0  0
  1  2  2  0  0  0  0
  2  3  1  0  0  0  0
  2  6  1  0  0  0  0
  3  7  1  0  0  0  0
  4  3  2  0  0  0  0
  5  1  1  0  0  0  0
  5  4  1  0  0  0  0
  8  4  1  6  0  0  0
  9  8  1  0  0  0  0
 10  9  1  0  0  0  0
 11  9  1  0  0  0  0
 11 13  1  0  0  0  0
 11 12  1  0  0  0  0
 13 14  1  0  0  0  0
 14  8  1  0  0  0  0
 14 15  1  0  0  0  0
 16  1  1  0  0  0  0
 17 16  1  0  0  0  0
 18 17  2  0  0  0  0
 19 20  1  0  0  0  0
 19 17  1  0  0  0  0
 20 25  1  0  0  0  0
 21 26  1  0  0  0  0
 21 20  2  0  0  0  0
 22 21  1  0  0  0  0
 23 22  2  0  0  0  0
 23 24  1  0  0  0  0
 24 19  2  0  0  0  0
 27 23  1  0  0  0  0
M  END
>  <minimizedAffinity>
-5.05895948

$$$$

 OpenBabel03242518333D

 27 29  0  0  1  0  0  0  0  0999 V2000
   36.9260   29.0030   42.0990 C   0  0  0  0  0  0  0  0  0  0  0  0
   37.7710   28.8770   43.1810 C   0  0  0  0  0  0  0  0  0  0  0  0
   38.0010   27.5340   43.4110 C   0  0  0  0  0  0  0  0  0  0  0  0
   37.2620   26.8920   42.4280 C   0  0  0  0  0  0  0  0  0  0  0  0
   36.6440   27.7640   41.6750 O   0  0  0  0  0  0  0  0  0  0  0  0
   38.1250   29.7540   43.6800 H   0  0  0  0  0  0  0  0  0  0  0  0
   38.6180   27.1450   44.1860 H   0  0  0  0  0  0  0  0  0  0  0  0
   37.1740   25.4390   42.2420 C   0  0  1  0  0  3  0  0  0  0  0  0
   36.8620   25.1030   40.7760 C   0  0  0  0  0  3  0  0  0  0  0  0
   35.8030   25.1830   40.5360 H   0  0  0  0  0  0  0  0  0  0  0  0
   37.3440   23.6460   40.7940 C   0  0  0  0  0  3  0  0  0  0  0  0
   36.5610   23.1150   41.3980 H   0  0  0  0  0  0  0  0  0  0  0  0
   38.4930   23.6390   41.5600 O   0  0  0  0  0  0  0  0  0  0  0  0
   38.5380   24.7880   42.3300 C   0  0  0  0  0  3  0  0  0  0  0  0
   38.8400   24.6170   43.3850 H   0  0  0  0  0  0  0  0  0  0  0  0
   36.3980   30.1380   41.4740 O   0  0  0  0  0  0  0  0  0  0  0  0
   36.9250   30.5990   40.2650 C   0  0  0  0  0  0  0  0  0  0  0  0
   36.5040   30.0500   39.2320 O   0  0  0  0  0  0  0  0  0  0  0  0
   37.8870   31.6520   40.3770 C   0  0  0  0  0  0  0  0  0  0  0  0
   37.4080   32.8800   39.9790 C   0  0  0  0  0  0  0  0  0  0  0  0
   38.3030   33.9690   40.0600 C   0  0  0  0  0  0  0  0  0  0  0  0
   39.5500   33.7510   40.5150 N   0  0  0  0  0  0  0  0  0  0  0  0
   39.9670   32.5170   40.8940 C   0  0  0  0  0  0  0  0  0  0  0  0
   39.1270   31.4730   40.8200 N   0  0  0  0  0  0  0  0  0  0  0  0
   36.4290   33.0830   39.6160 H   0  0  0  0  0  0  0  0  0  0  0  0
   37.9870   34.9620   39.7630 H   0  0  0  0  0  0  0  0  0  0  0  0
   40.9620   32.3080   41.2630 H   0  0  0  0  0  0  0  0  0  0  0  0
  1  2  2  0  0  0  0
  2  3  1  0  0  0  0
  2  6  1  0  0  0  0
  3  7  1  0  0  0  0
  4  3  2  0  0  0  0
  5  1  1  0  0  0  0
  5  4  1  0  0  0  0
  8 14  1  0  0  0  0
  8  4  1  6  0  0  0
  9 11  1  0  0  0  0
  9  8  1  0  0  0  0
 10  9  1  0  0  0  0
 11 12  1  0  0  0  0
 11 13  1  0  0  0  0
 13 14  1  0  0  0  0
 14 15  1  0  0  0  0
 16  1  1  0  0  0  0
 17 19  1  0  0  0  0
 17 16  1  0  0  0  0
 18 17  2  0  0  0  0
 19 24  1  0  0  0  0
 20 21  1  0  0  0  0
 20 19  2  0  0  0  0
 21 22  2  0  0  0  0
 22 23  1  0  0  0  0
 23 27  1  0  0  0  0
 24 23  2  0  0  0  0
 25 20  1  0  0  0  0
 26 21  1  0  0  0  0
M  END
>  <minimizedAffinity>
-5.05575562

$$$$

 OpenBabel03242518333D

 27 29  0  0  1  0  0  0  0  0999 V2000
   37.3800   29.6620   42.1060 C   0  0  0  0  0  0  0  0  0  0  0  0
   36.3140   29.6230   41.2330 C   0  0  0  0  0  0  0  0  0  0  0  0
   36.4810   30.6140   40.2830 C   0  0  0  0  0  0  0  0  0  0  0  0
   37.6760   31.2220   40.6370 C   0  0  0  0  0  0  0  0  0  0  0  0
   38.1840   30.6540   41.7010 O   0  0  0  0  0  0  0  0  0  0  0  0
   35.5420   28.8960   41.3730 H   0  0  0  0  0  0  0  0  0  0  0  0
   35.8060   30.8120   39.4850 H   0  0  0  0  0  0  0  0  0  0  0  0
   38.3000   32.3470   39.9320 C   0  0  1  0  0  3  0  0  0  0  0  0
   39.4560   32.9260   40.7600 C   0  0  0  0  0  3  0  0  0  0  0  0
   39.1230   33.6160   41.5340 H   0  0  0  0  0  0  0  0  0  0  0  0
   40.1870   33.6440   39.6180 C   0  0  0  0  0  3  0  0  0  0  0  0
   39.5190   34.5160   39.3830 H   0  0  0  0  0  0  0  0  0  0  0  0
   40.1120   32.7960   38.5310 O   0  0  0  0  0  0  0  0  0  0  0  0
   39.1040   31.8720   38.7390 C   0  0  0  0  0  3  0  0  0  0  0  0
   38.4540   31.7000   37.8550 H   0  0  0  0  0  0  0  0  0  0  0  0
   37.6780   28.8780   43.2260 O   0  0  0  0  0  0  0  0  0  0  0  0
   37.3000   27.5340   43.2800 C   0  0  0  0  0  0  0  0  0  0  0  0
   36.1040   27.3030   43.5260 O   0  0  0  0  0  0  0  0  0  0  0  0
   38.3510   26.5920   43.0410 C   0  0  0  0  0  0  0  0  0  0  0  0
   39.5310   26.9110   43.6750 C   0  0  0  0  0  0  0  0  0  0  0  0
   40.6150   26.0260   43.4850 C   0  0  0  0  0  0  0  0  0  0  0  0
   40.4380   24.9410   42.7110 N   0  0  0  0  0  0  0  0  0  0  0  0
   39.2510   24.6770   42.1110 C   0  0  0  0  0  0  0  0  0  0  0  0
   38.2120   25.5100   42.2830 N   0  0  0  0  0  0  0  0  0  0  0  0
   39.7010   27.7610   44.2920 H   0  0  0  0  0  0  0  0  0  0  0  0
   41.5710   26.2210   43.9570 H   0  0  0  0  0  0  0  0  0  0  0  0
   39.0750   23.8140   41.4830 H   0  0  0  0  0  0  0  0  0  0  0  0
  1 16  1  0  0  0  0
  2  6  1  0  0  0  0
  2  1  2  0  0  0  0
  3  4  2  0  0  0  0
  3  2  1  0  0  0  0
  4  5  1  0  0  0  0
  5  1  1  0  0  0  0
  7  3  1  0  0  0  0
  8  4  1  1  0  0  0
  8  9  1  0  0  0  0
  9 10  1  0  0  0  0
 11  9  1  0  0  0  0
 12 11  1  0  0  0  0
 13 14  1  0  0  0  0
 13 11  1  0  0  0  0
 14  8  1  0  0  0  0
 15 14  1  0  0  0  0
 16 17  1  0  0  0  0
 17 18  2  0  0  0  0
 19 17  1  0  0  0  0
 19 20  1  0  0  0  0
 20 25  1  0  0  0  0
 21 20  2  0  0  0  0
 21 26  1  0  0  0  0
 22 21  1  0  0  0  0
 23 24  1  0  0  0  0
 23 22  2  0  0  0  0
 24 19  2  0  0  0  0
 27 23  1  0  0  0  0
M  END
>  <minimizedAffinity>
-4.7627039

$$$$

 OpenBabel03242518333D

 27 29  0  0  1  0  0  0  0  0999 V2000
   36.2800   28.8140   41.0930 C   0  0  0  0  0  0  0  0  0  0  0  0
   36.1650   30.1740   40.9000 C   0  0  0  0  0  0  0  0  0  0  0  0
   36.1800   30.4340   39.5420 C   0  0  0  0  0  0  0  0  0  0  0  0
   36.3070   29.1800   38.9610 C   0  0  0  0  0  0  0  0  0  0  0  0
   36.3630   28.2510   39.8800 O   0  0  0  0  0  0  0  0  0  0  0  0
   36.0850   30.8230   41.7460 H   0  0  0  0  0  0  0  0  0  0  0  0
   36.1070   31.4010   39.1060 H   0  0  0  0  0  0  0  0  0  0  0  0
   36.3700   28.9130   37.5200 C   0  0  1  0  0  3  0  0  0  0  0  0
   34.9730   29.0170   36.8910 C   0  0  0  0  0  3  0  0  0  0  0  0
   34.3790   28.1130   37.0170 H   0  0  0  0  0  0  0  0  0  0  0  0
   35.4170   29.2210   35.4370 C   0  0  0  0  0  3  0  0  0  0  0  0
   35.8080   28.2130   35.1350 H   0  0  0  0  0  0  0  0  0  0  0  0
   36.5120   30.0600   35.4910 O   0  0  0  0  0  0  0  0  0  0  0  0
   37.0290   30.0560   36.7750 C   0  0  0  0  0  3  0  0  0  0  0  0
   38.1370   29.9840   36.8200 H   0  0  0  0  0  0  0  0  0  0  0  0
   36.3140   28.0530   42.2650 O   0  0  0  0  0  0  0  0  0  0  0  0
   37.4790   27.9730   43.0330 C   0  0  0  0  0  0  0  0  0  0  0  0
   37.7880   28.9880   43.6790 O   0  0  0  0  0  0  0  0  0  0  0  0
   38.1670   26.7190   42.9750 C   0  0  0  0  0  0  0  0  0  0  0  0
   39.3670   26.7180   43.6500 C   0  0  0  0  0  0  0  0  0  0  0  0
   40.1050   25.5140   43.6350 C   0  0  0  0  0  0  0  0  0  0  0  0
   39.6030   24.4550   42.9760 N   0  0  0  0  0  0  0  0  0  0  0  0
   38.4140   24.5140   42.3280 C   0  0  0  0  0  0  0  0  0  0  0  0
   37.7030   25.6530   42.3330 N   0  0  0  0  0  0  0  0  0  0  0  0
   39.7890   27.5390   44.1790 H   0  0  0  0  0  0  0  0  0  0  0  0
   41.0570   25.4480   44.1480 H   0  0  0  0  0  0  0  0  0  0  0  0
   37.9830   23.6820   41.7880 H   0  0  0  0  0  0  0  0  0  0  0  0
  1 16  1  0  0  0  0
  2  1  2  0  0  0  0
  2  6  1  0  0  0  0
  3  2  1  0  0  0  0
  4  3  2  0  0  0  0
  4  5  1  0  0  0  0
  5  1  1  0  0  0  0
  7  3  1  0  0  0  0
  8  4  1  1  0  0  0
  9 10  1  0  0  0  0
  9  8  1  0  0  0  0
 11 13  1  0  0  0  0
 11  9  1  0  0  0  0
 12 11  1  0  0  0  0
 13 14  1  0  0  0  0
 14 15  1  0  0  0  0
 14  8  1  0  0  0  0
 16 17  1  0  0  0  0
 17 18  2  0  0  0  0
 19 17  1  0  0  0  0
 19 20  1  0  0  0  0
 20 25  1  0  0  0  0
 21 20  2  0  0  0  0
 21 26  1  0  0  0  0
 22 21  1  0  0  0  0
 23 24  1  0  0  0  0
 23 22  2  0  0  0  0
 24 19  2  0  0  0  0
 27 23  1  0  0  0  0
M  END
>  <minimizedAffinity>
-4.74946451

$$$$

 OpenBabel03242518333D

 27 29  0  0  1  0  0  0  0  0999 V2000
   36.4340   29.0270   40.7630 C   0  0  0  0  0  0  0  0  0  0  0  0
   35.9980   28.9960   39.4560 C   0  0  0  0  0  0  0  0  0  0  0  0
   36.5580   30.0610   38.7740 C   0  0  0  0  0  0  0  0  0  0  0  0
   37.3300   30.7040   39.7300 C   0  0  0  0  0  0  0  0  0  0  0  0
   37.2450   30.0880   40.8810 O   0  0  0  0  0  0  0  0  0  0  0  0
   35.3320   28.2210   39.1400 H   0  0  0  0  0  0  0  0  0  0  0  0
   36.3930   30.2810   37.7470 H   0  0  0  0  0  0  0  0  0  0  0  0
   38.1360   31.9090   39.5030 C   0  0  1  0  0  3  0  0  0  0  0  0
   37.3260   33.1700   39.8400 C   0  0  0  0  0  3  0  0  0  0  0  0
   36.6640   33.4790   39.0320 H   0  0  0  0  0  0  0  0  0  0  0  0
   38.5080   34.1310   40.0210 C   0  0  0  0  0  3  0  0  0  0  0  0
   38.8860   34.2860   38.9750 H   0  0  0  0  0  0  0  0  0  0  0  0
   39.4820   33.4090   40.6810 O   0  0  0  0  0  0  0  0  0  0  0  0
   39.2150   32.0570   40.5560 C   0  0  0  0  0  3  0  0  0  0  0  0
   40.1040   31.4360   40.3160 H   0  0  0  0  0  0  0  0  0  0  0  0
   36.1610   28.1810   41.8430 O   0  0  0  0  0  0  0  0  0  0  0  0
   37.1730   27.8010   42.7280 C   0  0  0  0  0  0  0  0  0  0  0  0
   37.3950   28.5690   43.6800 O   0  0  0  0  0  0  0  0  0  0  0  0
   37.8250   26.5650   42.4190 C   0  0  0  0  0  0  0  0  0  0  0  0
   36.9520   25.5270   42.1780 C   0  0  0  0  0  0  0  0  0  0  0  0
   37.5240   24.2740   41.8670 C   0  0  0  0  0  0  0  0  0  0  0  0
   38.8640   24.1660   41.8240 N   0  0  0  0  0  0  0  0  0  0  0  0
   39.6750   25.2240   42.0700 C   0  0  0  0  0  0  0  0  0  0  0  0
   39.1450   26.4200   42.3680 N   0  0  0  0  0  0  0  0  0  0  0  0
   35.8900   25.5830   42.2060 H   0  0  0  0  0  0  0  0  0  0  0  0
   36.8910   23.4170   41.6670 H   0  0  0  0  0  0  0  0  0  0  0  0
   40.7550   25.1710   42.0430 H   0  0  0  0  0  0  0  0  0  0  0  0
  1  5  1  0  0  0  0
  1 16  1  0  0  0  0
  2  1  2  0  0  0  0
  3  2  1  0  0  0  0
  3  4  2  0  0  0  0
  4  5  1  0  0  0  0
  6  2  1  0  0  0  0
  7  3  1  0  0  0  0
  8  4  1  1  0  0  0
  8  9  1  0  0  0  0
  8 14  1  0  0  0  0
  9 11  1  0  0  0  0
 10  9  1  0  0  0  0
 11 13  1  0  0  0  0
 12 11  1  0  0  0  0
 14 13  1  0  0  0  0
 15 14  1  0  0  0  0
 16 17  1  0  0  0  0
 17 18  2  0  0  0  0
 19 17  1  0  0  0  0
 20 25  1  0  0  0  0
 20 19  2  0  0  0  0
 21 20  1  0  0  0  0
 22 21  2  0  0  0  0
 22 23  1  0  0  0  0
 23 24  2  0  0  0  0
 24 19  1  0  0  0  0
 26 21  1  0  0  0  0
 27 23  1  0  0  0  0
M  END
>  <minimizedAffinity>
-4.72165966

$$$$

 OpenBabel03242518333D

 27 29  0  0  1  0  0  0  0  0999 V2000
   38.5550   28.3140   42.3360 C   0  0  0  0  0  0  0  0  0  0  0  0
   37.5080   28.4810   43.2170 C   0  0  0  0  0  0  0  0  0  0  0  0
   36.7350   27.3340   43.2130 C   0  0  0  0  0  0  0  0  0  0  0  0
   37.3710   26.5030   42.3030 C   0  0  0  0  0  0  0  0  0  0  0  0
   38.4280   27.0910   41.8030 O   0  0  0  0  0  0  0  0  0  0  0  0
   37.4140   29.3980   43.7590 H   0  0  0  0  0  0  0  0  0  0  0  0
   35.8610   27.1870   43.8000 H   0  0  0  0  0  0  0  0  0  0  0  0
   36.9360   25.1500   41.9370 C   0  0  1  0  0  3  0  0  0  0  0  0
   36.6980   25.0530   40.4230 C   0  0  0  0  0  3  0  0  0  0  0  0
   35.7230   25.4320   40.1190 H   0  0  0  0  0  0  0  0  0  0  0  0
   36.7910   23.5270   40.2980 C   0  0  0  0  0  3  0  0  0  0  0  0
   35.8420   23.1640   40.7760 H   0  0  0  0  0  0  0  0  0  0  0  0
   37.8180   23.1420   41.1370 O   0  0  0  0  0  0  0  0  0  0  0  0
   38.0760   24.1580   42.0410 C   0  0  0  0  0  3  0  0  0  0  0  0
   38.2170   23.8110   43.0870 H   0  0  0  0  0  0  0  0  0  0  0  0
   39.6030   29.1700   41.9830 O   0  0  0  0  0  0  0  0  0  0  0  0
   39.4180   30.5540   41.9560 C   0  0  0  0  0  0  0  0  0  0  0  0
   39.8380   31.1890   42.9390 O   0  0  0  0  0  0  0  0  0  0  0  0
   38.7630   31.0630   40.7900 C   0  0  0  0  0  0  0  0  0  0  0  0
   39.5670   31.0810   39.6720 C   0  0  0  0  0  0  0  0  0  0  0  0
   38.9890   31.5720   38.4800 C   0  0  0  0  0  0  0  0  0  0  0  0
   37.7090   31.9870   38.5040 N   0  0  0  0  0  0  0  0  0  0  0  0
   36.9650   31.9460   39.6370 C   0  0  0  0  0  0  0  0  0  0  0  0
   37.5020   31.4820   40.7760 N   0  0  0  0  0  0  0  0  0  0  0  0
   40.5790   30.7600   39.6230 H   0  0  0  0  0  0  0  0  0  0  0  0
   39.5680   31.6110   37.5650 H   0  0  0  0  0  0  0  0  0  0  0  0
   35.9350   32.2720   39.6900 H   0  0  0  0  0  0  0  0  0  0  0  0
  1  2  2  0  0  0  0
  2  6  1  0  0  0  0
  3  2  1  0  0  0  0
  3  7  1  0  0  0  0
  4  3  2  0  0  0  0
  5  4  1  0  0  0  0
  5  1  1  0  0  0  0
  8 14  1  0  0  0  0
  8  4  1  6  0  0  0
  9  8  1  0  0  0  0
 10  9  1  0  0  0  0
 11  9  1  0  0  0  0
 11 12  1  0  0  0  0
 11 13  1  0  0  0  0
 13 14  1  0  0  0  0
 14 15  1  0  0  0  0
 16  1  1  0  0  0  0
 17 16  1  0  0  0  0
 17 18  2  0  0  0  0
 19 17  1  0  0  0  0
 20 19  2  0  0  0  0
 21 22  2  0  0  0  0
 21 20  1  0  0  0  0
 22 23  1  0  0  0  0
 23 27  1  0  0  0  0
 23 24  2  0  0  0  0
 24 19  1  0  0  0  0
 25 20  1  0  0  0  0
 26 21  1  0  0  0  0
M  END
>  <minimizedAffinity>
-4.71497154

$$$$

 OpenBabel03242518333D

 27 29  0  0  1  0  0  0  0  0999 V2000
   37.0300   29.8580   41.5160 C   0  0  0  0  0  0  0  0  0  0  0  0
   36.2220   30.6760   40.7560 C   0  0  0  0  0  0  0  0  0  0  0  0
   36.9490   31.7870   40.3710 C   0  0  0  0  0  0  0  0  0  0  0  0
   38.2000   31.5820   40.9330 C   0  0  0  0  0  0  0  0  0  0  0  0
   38.2270   30.4540   41.5950 O   0  0  0  0  0  0  0  0  0  0  0  0
   35.2100   30.3890   40.5640 H   0  0  0  0  0  0  0  0  0  0  0  0
   36.5740   32.5860   39.7770 H   0  0  0  0  0  0  0  0  0  0  0  0
   39.3470   32.4900   40.8140 C   0  0  1  0  0  3  0  0  0  0  0  0
   40.6280   31.8070   41.3160 C   0  0  0  0  0  3  0  0  0  0  0  0
   40.7330   31.8420   42.4000 H   0  0  0  0  0  0  0  0  0  0  0  0
   41.6370   32.7190   40.6070 C   0  0  0  0  0  3  0  0  0  0  0  0
   41.5670   33.6850   41.1760 H   0  0  0  0  0  0  0  0  0  0  0  0
   41.1060   32.9680   39.3570 O   0  0  0  0  0  0  0  0  0  0  0  0
   39.7530   32.6780   39.3670 C   0  0  0  0  0  3  0  0  0  0  0  0
   39.1200   33.4380   38.8630 H   0  0  0  0  0  0  0  0  0  0  0  0
   36.7720   28.6300   42.1330 O   0  0  0  0  0  0  0  0  0  0  0  0
   37.1450   27.4300   41.5230 C   0  0  0  0  0  0  0  0  0  0  0  0
   36.5750   27.1490   40.4550 O   0  0  0  0  0  0  0  0  0  0  0  0
   38.1460   26.6760   42.2150 C   0  0  0  0  0  0  0  0  0  0  0  0
   38.1320   25.3330   41.9100 C   0  0  0  0  0  0  0  0  0  0  0  0
   39.0910   24.5230   42.5560 C   0  0  0  0  0  0  0  0  0  0  0  0
   39.9500   25.0980   43.4180 N   0  0  0  0  0  0  0  0  0  0  0  0
   39.9160   26.4280   43.6790 C   0  0  0  0  0  0  0  0  0  0  0  0
   39.0090   27.2090   43.0730 N   0  0  0  0  0  0  0  0  0  0  0  0
   37.4660   24.8510   41.2340 H   0  0  0  0  0  0  0  0  0  0  0  0
   39.1330   23.4590   42.3590 H   0  0  0  0  0  0  0  0  0  0  0  0
   40.5920   26.9210   44.3660 H   0  0  0  0  0  0  0  0  0  0  0  0
  1  5  1  0  0  0  0
  1 16  1  0  0  0  0
  2  1  2  0  0  0  0
  3  2  1  0  0  0  0
  3  4  2  0  0  0  0
  4  5  1  0  0  0  0
  6  2  1  0  0  0  0
  7  3  1  0  0  0  0
  8  4  1  6  0  0  0
  8  9  1  0  0  0  0
  9 10  1  0  0  0  0
 11 12  1  0  0  0  0
 11  9  1  0  0  0  0
 13 14  1  0  0  0  0
 13 11  1  0  0  0  0
 14  8  1  0  0  0  0
 15 14  1  0  0  0  0
 17 16  1  0  0  0  0
 17 19  1  0  0  0  0
 18 17  2  0  0  0  0
 19 24  1  0  0  0  0
 20 19  2  0  0  0  0
 20 21  1  0  0  0  0
 21 22  2  0  0  0  0
 22 23  1  0  0  0  0
 23 27  1  0  0  0  0
 24 23  2  0  0  0  0
 25 20  1  0  0  0  0
 26 21  1  0  0  0  0
M  END
>  <minimizedAffinity>
-4.63560915

$$$$

 OpenBabel03242518333D

 27 29  0  0  1  0  0  0  0  0999 V2000
   36.8490   30.7980   40.9480 C   0  0  0  0  0  0  0  0  0  0  0  0
   35.7680   30.2730   40.2720 C   0  0  0  0  0  0  0  0  0  0  0  0
   35.5960   28.9570   40.6600 C   0  0  0  0  0  0  0  0  0  0  0  0
   36.6120   28.7430   41.5810 C   0  0  0  0  0  0  0  0  0  0  0  0
   37.3290   29.8260   41.7340 O   0  0  0  0  0  0  0  0  0  0  0  0
   35.2280   30.8850   39.5810 H   0  0  0  0  0  0  0  0  0  0  0  0
   34.8360   28.3090   40.2960 H   0  0  0  0  0  0  0  0  0  0  0  0
   36.8630   27.4850   42.2940 C   0  0  1  0  0  3  0  0  0  0  0  0
   37.1450   26.3500   41.2990 C   0  0  0  0  0  3  0  0  0  0  0  0
   36.2390   25.9140   40.8800 H   0  0  0  0  0  0  0  0  0  0  0  0
   37.8520   25.3970   42.2710 C   0  0  0  0  0  3  0  0  0  0  0  0
   37.0210   25.0230   42.9270 H   0  0  0  0  0  0  0  0  0  0  0  0
   38.6460   26.1950   43.0710 O   0  0  0  0  0  0  0  0  0  0  0  0
   38.2080   27.5050   42.9890 C   0  0  0  0  0  3  0  0  0  0  0  0
   38.1520   28.0290   43.9670 H   0  0  0  0  0  0  0  0  0  0  0  0
   37.4250   32.0720   40.9090 O   0  0  0  0  0  0  0  0  0  0  0  0
   37.8140   32.6450   39.6960 C   0  0  0  0  0  0  0  0  0  0  0  0
   37.0230   33.4580   39.1880 O   0  0  0  0  0  0  0  0  0  0  0  0
   39.0840   32.2160   39.1950 C   0  0  0  0  0  0  0  0  0  0  0  0
   40.1540   32.7430   39.8840 C   0  0  0  0  0  0  0  0  0  0  0  0
   41.4420   32.3650   39.4450 C   0  0  0  0  0  0  0  0  0  0  0  0
   41.5500   31.5270   38.3990 N   0  0  0  0  0  0  0  0  0  0  0  0
   40.4590   31.0390   37.7580 C   0  0  0  0  0  0  0  0  0  0  0  0
   39.2290   31.3910   38.1640 N   0  0  0  0  0  0  0  0  0  0  0  0
   40.0990   33.4060   40.7130 H   0  0  0  0  0  0  0  0  0  0  0  0
   42.3250   32.7440   39.9450 H   0  0  0  0  0  0  0  0  0  0  0  0
   40.5110   30.3640   36.9140 H   0  0  0  0  0  0  0  0  0  0  0  0
  1  5  1  0  0  0  0
  2  3  1  0  0  0  0
  2  1  2  0  0  0  0
  3  4  2  0  0  0  0
  4  5  1  0  0  0  0
  6  2  1  0  0  0  0
  7  3  1  0  0  0  0
  8  4  1  6  0  0  0
  8 14  1  0  0  0  0
  9 11  1  0  0  0  0
  9  8  1  0  0  0  0
 10  9  1  0  0  0  0
 11 12  1  0  0  0  0
 11 13  1  0  0  0  0
 14 13  1  0  0  0  0
 14 15  1  0  0  0  0
 16  1  1  0  0  0  0
 17 16  1  0  0  0  0
 18 17  2  0  0  0  0
 19 17  1  0  0  0  0
 19 20  1  0  0  0  0
 20 25  1  0  0  0  0
 21 20  2  0  0  0  0
 21 26  1  0  0  0  0
 22 21  1  0  0  0  0
 23 24  1  0  0  0  0
 23 22  2  0  0  0  0
 24 19  2  0  0  0  0
 27 23  1  0  0  0  0
M  END
>  <minimizedAffinity>
-4.62630939

$$$$

 OpenBabel03242518333D

 27 29  0  0  1  0  0  0  0  0999 V2000
   36.8020   31.1110   39.9870 C   0  0  0  0  0  0  0  0  0  0  0  0
   36.8860   31.1450   38.6120 C   0  0  0  0  0  0  0  0  0  0  0  0
   37.9730   31.9190   38.2510 C   0  0  0  0  0  0  0  0  0  0  0  0
   38.5120   32.3280   39.4620 C   0  0  0  0  0  0  0  0  0  0  0  0
   37.8170   31.8470   40.4610 O   0  0  0  0  0  0  0  0  0  0  0  0
   36.1640   30.6170   38.0250 H   0  0  0  0  0  0  0  0  0  0  0  0
   38.2740   32.1180   37.2500 H   0  0  0  0  0  0  0  0  0  0  0  0
   39.6950   33.1810   39.6220 C   0  0  1  0  0  3  0  0  0  0  0  0
   40.5320   32.7190   40.8240 C   0  0  0  0  0  3  0  0  0  0  0  0
   40.1540   33.0900   41.7760 H   0  0  0  0  0  0  0  0  0  0  0  0
   41.8530   33.3880   40.4240 C   0  0  0  0  0  3  0  0  0  0  0  0
   41.6580   34.4810   40.5940 H   0  0  0  0  0  0  0  0  0  0  0  0
   41.9590   33.2240   39.0570 O   0  0  0  0  0  0  0  0  0  0  0  0
   40.7150   32.9190   38.5340 C   0  0  0  0  0  3  0  0  0  0  0  0
   40.4640   33.4700   37.6020 H   0  0  0  0  0  0  0  0  0  0  0  0
   35.8930   30.4720   40.8360 O   0  0  0  0  0  0  0  0  0  0  0  0
   35.3690   29.2180   40.5100 C   0  0  0  0  0  0  0  0  0  0  0  0
   34.2610   29.2100   39.9450 O   0  0  0  0  0  0  0  0  0  0  0  0
   36.1840   28.0990   40.8720 C   0  0  0  0  0  0  0  0  0  0  0  0
   36.5380   28.0830   42.2030 C   0  0  0  0  0  0  0  0  0  0  0  0
   37.3450   27.0070   42.6340 C   0  0  0  0  0  0  0  0  0  0  0  0
   37.7150   26.0750   41.7380 N   0  0  0  0  0  0  0  0  0  0  0  0
   37.3360   26.1430   40.4380 C   0  0  0  0  0  0  0  0  0  0  0  0
   36.5700   27.1610   40.0140 N   0  0  0  0  0  0  0  0  0  0  0  0
   36.2600   28.8050   42.9330 H   0  0  0  0  0  0  0  0  0  0  0  0
   37.6570   26.9360   43.6690 H   0  0  0  0  0  0  0  0  0  0  0  0
   37.6170   25.4110   39.6920 H   0  0  0  0  0  0  0  0  0  0  0  0
  1  5  1  0  0  0  0
  1 16  1  0  0  0  0
  2  1  2  0  0  0  0
  3  2  1  0  0  0  0
  3  4  2  0  0  0  0
  4  5  1  0  0  0  0
  6  2  1  0  0  0  0
  7  3  1  0  0  0  0
  8  4  1  6  0  0  0
  8  9  1  0  0  0  0
  9 10  1  0  0  0  0
 11 12  1  0  0  0  0
 11  9  1  0  0  0  0
 13 11  1  0  0  0  0
 14 13  1  0  0  0  0
 14  8  1  0  0  0  0
 15 14  1  0  0  0  0
 17 16  1  0  0  0  0
 17 19  1  0  0  0  0
 18 17  2  0  0  0  0
 19 20  1  0  0  0  0
 20 21  2  0  0  0  0
 20 25  1  0  0  0  0
 21 26  1  0  0  0  0
 22 21  1  0  0  0  0
 23 22  2  0  0  0  0
 24 23  1  0  0  0  0
 24 19  2  0  0  0  0
 27 23  1  0  0  0  0
M  END
>  <minimizedAffinity>
-4.56274176

$$$$
