
 OpenBabel03252505583D

 35 37  0  0  1  0  0  0  0  0999 V2000
   44.9200   34.7310   45.0720 C   0  0  0  0  0  0  0  0  0  0  0  0
   45.5490   34.8240   43.8120 C   0  0  0  0  0  0  0  0  0  0  0  0
   46.7090   34.0810   43.6310 C   0  0  0  0  0  0  0  0  0  0  0  0
   47.1590   33.3260   44.6570 N   0  0  0  0  0  0  0  0  0  0  0  0
   46.5370   33.2630   45.8340 C   0  0  0  0  0  0  0  0  0  0  0  0
   45.4250   33.9580   46.0460 N   0  0  0  0  0  0  0  0  0  0  0  0
   44.0150   35.3050   45.2220 H   0  0  0  0  0  0  0  0  0  0  0  0
   47.5080   34.0240   42.4230 C   0  0  2  0  0  0  0  0  0  0  0  0
   48.6150   32.9820   42.6700 C   0  0  0  0  0  0  0  0  0  0  0  0
   48.5200   32.1030   42.0040 H   0  0  0  0  0  0  0  0  0  0  0  0
   49.9140   33.6700   42.3970 C   0  0  0  0  0  0  0  0  0  0  0  0
   50.7520   33.3000   43.0090 H   0  0  0  0  0  0  0  0  0  0  0  0
   49.6220   34.9600   42.8410 O   0  0  0  0  0  0  0  0  0  0  0  0
   48.3890   35.2560   42.2610 C   0  0  0  0  0  0  0  0  0  0  0  0
   48.5480   35.4140   41.1770 H   0  0  0  0  0  0  0  0  0  0  0  0
   44.9620   35.6850   42.7630 C   0  0  0  0  0  0  0  0  0  0  0  0
   43.5920   35.6500   43.0230 F   0  0  0  0  0  0  0  0  0  0  0  0
   45.1580   35.0260   41.5480 F   0  0  0  0  0  0  0  0  0  0  0  0
   45.4390   36.9220   42.8270 F   0  0  0  0  0  0  0  0  0  0  0  0
   47.0050   32.4820   46.8880 O   0  0  0  0  0  0  0  0  0  0  0  0
   46.5670   31.1470   47.0410 C   0  0  0  0  0  0  0  0  0  0  0  0
   45.7290   31.1620   47.7800 H   0  0  0  0  0  0  0  0  0  0  0  0
   46.1610   30.7080   46.1130 H   0  0  0  0  0  0  0  0  0  0  0  0
   47.6760   30.3840   47.6390 C   0  0  0  0  0  0  0  0  0  0  0  0
   47.9950   29.0370   47.5280 C   0  0  0  0  0  0  0  0  0  0  0  0
   49.0890   28.5840   48.1960 C   0  0  0  0  0  0  0  0  0  0  0  0
   49.8530   29.3820   48.9390 N   0  0  0  0  0  0  0  0  0  0  0  0
   49.5400   30.6800   49.0410 C   0  0  0  0  0  0  0  0  0  0  0  0
   48.4500   31.1960   48.3940 N   0  0  0  0  0  0  0  0  0  0  0  0
   47.3100   28.5080   46.9080 H   0  0  0  0  0  0  0  0  0  0  0  0
   49.2810   27.5200   48.0650 H   0  0  0  0  0  0  0  0  0  0  0  0
   50.4470   31.4850   49.8900 C   0  0  0  0  0  0  0  0  0  0  0  0
   50.2830   32.8360   49.6660 F   0  0  0  0  0  0  0  0  0  0  0  0
   51.7770   31.1540   49.6190 F   0  0  0  0  0  0  0  0  0  0  0  0
   50.2430   31.2580   51.2360 F   0  0  0  0  0  0  0  0  0  0  0  0
  1  7  1  0  0  0  0
  1  6  1  0  0  0  0
  2  1  2  0  0  0  0
  3  2  1  0  0  0  0
  3  4  2  0  0  0  0
  4  5  1  0  0  0  0
  5  6  2  0  0  0  0
  5 20  1  0  0  0  0
  8  9  1  0  0  0  0
  8  3  1  1  0  0  0
 10  9  1  0  0  0  0
 11  9  1  0  0  0  0
 11 13  1  0  0  0  0
 11 12  1  0  0  0  0
 14  8  1  0  0  0  0
 14 13  1  0  0  0  0
 15 14  1  0  0  0  0
 16 19  1  0  0  0  0
 16 17  1  0  0  0  0
 16  2  1  0  0  0  0
 18 16  1  0  0  0  0
 20 21  1  0  0  0  0
 21 24  1  0  0  0  0
 21 22  1  0  0  0  0
 23 21  1  0  0  0  0
 24 29  1  0  0  0  0
 25 24  2  0  0  0  0
 25 26  1  0  0  0  0
 26 27  2  0  0  0  0
 27 28  1  0  0  0  0
 28 32  1  0  0  0  0
 29 28  2  0  0  0  0
 30 25  1  0  0  0  0
 31 26  1  0  0  0  0
 32 35  1  0  0  0  0
 33 32  1  0  0  0  0
 34 32  1  0  0  0  0
M  END
>  <minimizedAffinity>
-6.05235529

>  <minimizedRMSD>
1.16510451

$$$$
