REMARK  Name = 
REMARK  6 active torsions:
REMARK  status: ('A' for Active; 'I' for Inactive)
REMARK    1  A    between atoms: C_1  and  C_2
REMARK    2  A    between atoms: C_1  and  O_12
REMARK    3  A    between atoms: C_6  and  C_8
REMARK    4  A    between atoms: O_12  and  C_17
REMARK    5  A    between atoms: C_14  and  C_19
REMARK    6  A    between atoms: C_15  and  C_28
REMARK                            x       y       z     vdW  Elec       q    Type
REMARK                         _______ _______ _______ _____ _____    ______ ____
ROOT
ATOM      1  C   UNL     1      44.914  34.991  45.085  0.00  0.00    +0.000 A 
ATOM      2  C   UNL     1      45.781  34.673  44.018  0.00  0.00    +0.000 A 
ATOM      3  C   UNL     1      46.684  33.639  44.227  0.00  0.00    +0.000 A 
ATOM      4  N   UNL     1      46.679  33.009  45.422  0.00  0.00    +0.000 NA
ATOM      5  C   UNL     1      45.843  33.337  46.408  0.00  0.00    +0.000 A 
ATOM      6  N   UNL     1      44.965  34.320  46.246  0.00  0.00    +0.000 NA
ATOM      7  H   UNL     1      44.206  35.795  44.931  0.00  0.00    +0.000 HD
ENDROOT
BRANCH   3   8
ATOM      8  C   UNL     1      47.656  33.145  43.271  0.00  0.00    +0.000 C 
ATOM      9  C   UNL     1      46.926  32.117  42.386  0.00  0.00    +0.000 C 
ATOM     10  H   UNL     1      46.856  32.446  41.331  0.00  0.00    +0.000 HD
ATOM     11  C   UNL     1      47.721  30.854  42.458  0.00  0.00    +0.000 C 
ATOM     12  H   UNL     1      47.113  29.939  42.367  0.00  0.00    +0.000 HD
ATOM     13  O   UNL     1      48.178  30.911  43.775  0.00  0.00    +0.000 OA
ATOM     14  C   UNL     1      48.667  32.208  43.917  0.00  0.00    +0.000 C 
ATOM     15  H   UNL     1      49.610  32.285  43.340  0.00  0.00    +0.000 HD
ENDBRANCH   3   8
BRANCH   2  16
ATOM     16  C   UNL     1      45.694  35.434  42.753  0.00  0.00    +0.000 C 
ATOM     17  F   UNL     1      45.256  36.699  43.147  0.00  0.00    +0.000 F 
ATOM     18  F   UNL     1      44.658  34.863  42.012  0.00  0.00    +0.000 F 
ATOM     19  F   UNL     1      46.870  35.495  42.140  0.00  0.00    +0.000 F 
ENDBRANCH   2  16
BRANCH   5  20
ATOM     20  O   UNL     1      45.842  32.684  47.638  0.00  0.00    +0.000 OA
BRANCH  20  21
ATOM     21  C   UNL     1      45.396  31.346  47.738  0.00  0.00    +0.000 C 
ATOM     22  H   UNL     1      44.822  31.266  48.693  0.00  0.00    +0.000 HD
ATOM     23  H   UNL     1      44.706  31.050  46.929  0.00  0.00    +0.000 HD
BRANCH  21  24
ATOM     24  C   UNL     1      46.589  30.491  47.861  0.00  0.00    +0.000 A 
ATOM     25  C   UNL     1      46.828  29.215  47.368  0.00  0.00    +0.000 A 
ATOM     26  C   UNL     1      48.034  28.645  47.632  0.00  0.00    +0.000 A 
ATOM     27  N   UNL     1      48.978  29.265  48.337  0.00  0.00    +0.000 NA
ATOM     28  C   UNL     1      48.741  30.496  48.809  0.00  0.00    +0.000 A 
ATOM     29  N   UNL     1      47.547  31.123  48.578  0.00  0.00    +0.000 NA
ATOM     30  H   UNL     1      45.999  28.829  46.823  0.00  0.00    +0.000 HD
ATOM     31  H   UNL     1      48.154  27.646  47.216  0.00  0.00    +0.000 HD
BRANCH  28  32
ATOM     32  C   UNL     1      49.850  31.102  49.580  0.00  0.00    +0.000 C 
ATOM     33  F   UNL     1      49.844  32.478  49.478  0.00  0.00    +0.000 F 
ATOM     34  F   UNL     1      51.077  30.632  49.107  0.00  0.00    +0.000 F 
ATOM     35  F   UNL     1      49.789  30.784  50.922  0.00  0.00    +0.000 F 
ENDBRANCH  28  32
ENDBRANCH  21  24
ENDBRANCH  20  21
ENDBRANCH   5  20
TORSDOF 6
