
 OpenBabel03242520533D

 26 27  0  0  1  0  0  0  0  0999 V2000
   44.7450   35.6550   44.1480 C   0  0  0  0  0  0  0  0  0  0  0  0
   45.2900   35.6760   42.8620 C   0  0  0  0  0  0  0  0  0  0  0  0
   46.2890   34.7710   42.5320 C   0  0  0  0  0  0  0  0  0  0  0  0
   46.6700   33.9140   43.4990 N   0  0  0  0  0  0  0  0  0  0  0  0
   46.1420   33.9020   44.7240 C   0  0  0  0  0  0  0  0  0  0  0  0
   45.1850   34.7670   45.0450 N   0  0  0  0  0  0  0  0  0  0  0  0
   43.9630   36.3810   44.3710 H   0  0  0  0  0  0  0  0  0  0  0  0
   44.9930   36.3600   42.0770 H   0  0  0  0  0  0  0  0  0  0  0  0
   46.6240   32.9210   45.7260 C   0  0  0  0  0  0  0  0  0  0  0  0
   46.0050   32.7650   46.8560 C   0  0  0  0  0  0  0  0  0  0  0  0
   46.4290   31.8070   47.9000 C   0  0  0  0  0  0  0  0  0  0  0  0
   46.2390   32.1540   48.9360 H   0  0  0  0  0  0  0  0  0  0  0  0
   45.8430   30.8700   47.7330 H   0  0  0  0  0  0  0  0  0  0  0  0
   47.8810   31.4140   47.7620 C   0  0  2  0  0  0  0  0  0  0  0  0
   48.1010   29.9620   47.5020 C   0  0  0  0  0  0  0  0  0  0  0  0
   47.1870   29.3760   47.2990 H   0  0  0  0  0  0  0  0  0  0  0  0
   48.8510   29.4660   48.7150 C   0  0  0  0  0  0  0  0  0  0  0  0
   49.8660   29.1300   48.4790 H   0  0  0  0  0  0  0  0  0  0  0  0
   48.8090   30.4690   49.6750 O   0  0  0  0  0  0  0  0  0  0  0  0
   48.6680   31.6860   48.9990 C   0  0  0  0  0  0  0  0  0  0  0  0
   48.1530   32.3580   49.7160 H   0  0  0  0  0  0  0  0  0  0  0  0
   46.9160   34.6760   41.3130 O   0  0  0  0  0  0  0  0  0  0  0  0
   48.2760   35.1000   41.2400 C   0  0  0  0  0  0  0  0  0  0  0  0
   49.1020   34.0330   41.6070 F   0  0  0  0  0  0  0  0  0  0  0  0
   48.5410   35.4400   39.9090 F   0  0  0  0  0  0  0  0  0  0  0  0
   48.5120   36.2170   42.0440 F   0  0  0  0  0  0  0  0  0  0  0  0
  1  7  1  0  0  0  0
  1  6  1  0  0  0  0
  2  1  2  0  0  0  0
  3  2  1  0  0  0  0
  3  4  2  0  0  0  0
  4  5  1  0  0  0  0
  5  6  2  0  0  0  0
  5  9  1  0  0  0  0
  8  2  1  0  0  0  0
  9 10  2  0  0  0  0
 10 11  1  0  0  0  0
 11 12  1  0  0  0  0
 13 11  1  0  0  0  0
 14 11  1  1  0  0  0
 14 20  1  0  0  0  0
 15 14  1  0  0  0  0
 15 17  1  0  0  0  0
 16 15  1  0  0  0  0
 17 19  1  0  0  0  0
 18 17  1  0  0  0  0
 20 19  1  0  0  0  0
 20 21  1  0  0  0  0
 22  3  1  0  0  0  0
 23 22  1  0  0  0  0
 23 24  1  0  0  0  0
 23 26  1  0  0  0  0
 25 23  1  0  0  0  0
M  END
>  <minimizedAffinity>
-5.20295143

>  <minimizedRMSD>
2.72901511

$$$$
