
 OpenBabel03242521153D

 27 29  0  0  1  0  0  0  0  0999 V2000
   37.6430   27.6270   43.6800 C   0  0  0  0  0  0  0  0  0  0  0  0
   37.7440   28.9570   43.2030 C   0  0  0  0  0  0  0  0  0  0  0  0
   37.7020   29.1470   41.8230 C   0  0  0  0  0  0  0  0  0  0  0  0
   37.5660   28.0430   41.0100 N   0  0  0  0  0  0  0  0  0  0  0  0
   37.4730   26.8000   41.5050 C   0  0  0  0  0  0  0  0  0  0  0  0
   37.5110   26.5800   42.8490 N   0  0  0  0  0  0  0  0  0  0  0  0
   37.6760   27.4780   44.7530 H   0  0  0  0  0  0  0  0  0  0  0  0
   37.8500   29.7870   43.8800 H   0  0  0  0  0  0  0  0  0  0  0  0
   37.8010   30.4660   41.3210 N   0  0  0  0  0  0  0  0  0  0  0  0
   39.0030   31.0600   41.3270 C   0  0  0  0  0  0  0  0  0  0  0  0
   39.1010   32.3620   40.8310 C   0  0  0  0  0  0  0  0  0  0  0  0
   37.9690   32.9660   40.3660 C   0  0  0  0  0  0  0  0  0  0  0  0
   38.0570   34.1610   39.9110 O   0  0  0  0  0  0  0  0  0  0  0  0
   36.7520   32.3850   40.3520 N   0  0  0  0  0  0  0  0  0  0  0  0
   36.7230   31.1230   40.8460 C   0  0  0  0  0  0  0  0  0  0  0  0
   35.6450   30.4940   40.8790 O   0  0  0  0  0  0  0  0  0  0  0  0
   39.9050   30.5860   41.6950 H   0  0  0  0  0  0  0  0  0  0  0  0
   40.0540   32.9090   40.8060 H   0  0  0  0  0  0  0  0  0  0  0  0
   35.8850   32.8500   39.9940 H   0  0  0  0  0  0  0  0  0  0  0  0
   37.3290   25.6670   40.5650 C   0  0  2  0  0  3  0  0  0  0  0  0
   36.7620   24.4370   41.2410 C   0  0  0  0  0  3  0  0  0  0  0  0
   35.6800   24.2760   40.9720 H   0  0  0  0  0  0  0  0  0  0  0  0
   37.6030   23.3240   40.6540 C   0  0  0  0  0  3  0  0  0  0  0  0
   36.9440   22.5820   40.1300 H   0  0  0  0  0  0  0  0  0  0  0  0
   38.4820   23.9010   39.7670 O   0  0  0  0  0  0  0  0  0  0  0  0
   38.7320   25.1800   40.2490 C   0  0  0  0  0  3  0  0  0  0  0  0
   39.3390   25.1640   41.1920 H   0  0  0  0  0  0  0  0  0  0  0  0
  1  7  1  0  0  0  0
  2  1  1  0  0  0  0
  2  8  1  0  0  0  0
  3  2  2  0  0  0  0
  4  5  2  0  0  0  0
  4  3  1  0  0  0  0
  5  6  1  0  0  0  0
  6  1  2  0  0  0  0
  9 10  1  0  0  0  0
  9  3  1  0  0  0  0
 10 17  1  0  0  0  0
 11 10  2  0  0  0  0
 12 11  1  0  0  0  0
 13 12  2  0  0  0  0
 14 12  1  0  0  0  0
 14 15  1  0  0  0  0
 15 16  2  0  0  0  0
 15  9  1  0  0  0  0
 18 11  1  0  0  0  0
 19 14  1  0  0  0  0
 20 21  1  0  0  0  0
 20  5  1  1  0  0  0
 22 21  1  0  0  0  0
 23 21  1  0  0  0  0
 24 23  1  0  0  0  0
 25 26  1  0  0  0  0
 25 23  1  0  0  0  0
 26 20  1  0  0  0  0
 26 27  1  0  0  0  0
M  END
>  <minimizedAffinity>
-5.70298195

$$$$

 OpenBabel03242521153D

 27 29  0  0  1  0  0  0  0  0999 V2000
   36.2730   30.9670   40.5420 C   0  0  0  0  0  0  0  0  0  0  0  0
   37.2340   31.6240   39.7360 C   0  0  0  0  0  0  0  0  0  0  0  0
   38.5760   31.4440   40.0650 C   0  0  0  0  0  0  0  0  0  0  0  0
   38.8890   30.6470   41.1440 N   0  0  0  0  0  0  0  0  0  0  0  0
   37.9450   30.0420   41.8810 C   0  0  0  0  0  0  0  0  0  0  0  0
   36.6240   30.1970   41.5860 N   0  0  0  0  0  0  0  0  0  0  0  0
   35.2280   31.1060   40.2880 H   0  0  0  0  0  0  0  0  0  0  0  0
   36.9390   32.2370   38.9030 H   0  0  0  0  0  0  0  0  0  0  0  0
   39.5560   32.0900   39.2740 N   0  0  0  0  0  0  0  0  0  0  0  0
   40.0560   31.4310   38.2190 C   0  0  0  0  0  0  0  0  0  0  0  0
   41.0230   32.0690   37.4370 C   0  0  0  0  0  0  0  0  0  0  0  0
   41.4110   33.3300   37.7870 C   0  0  0  0  0  0  0  0  0  0  0  0
   42.2980   33.9160   37.0720 O   0  0  0  0  0  0  0  0  0  0  0  0
   40.9200   34.0080   38.8440 N   0  0  0  0  0  0  0  0  0  0  0  0
   39.9850   33.3360   39.5610 C   0  0  0  0  0  0  0  0  0  0  0  0
   39.4660   33.8730   40.5610 O   0  0  0  0  0  0  0  0  0  0  0  0
   39.7520   30.4310   37.9360 H   0  0  0  0  0  0  0  0  0  0  0  0
   41.4760   31.5890   36.5590 H   0  0  0  0  0  0  0  0  0  0  0  0
   41.2180   34.9750   39.1100 H   0  0  0  0  0  0  0  0  0  0  0  0
   38.3630   29.2020   43.0240 C   0  0  2  0  0  3  0  0  0  0  0  0
   39.8010   28.7470   42.8990 C   0  0  0  0  0  3  0  0  0  0  0  0
   40.4800   29.3200   43.5900 H   0  0  0  0  0  0  0  0  0  0  0  0
   39.7260   27.3020   43.3430 C   0  0  0  0  0  3  0  0  0  0  0  0
   40.3990   27.1380   44.2270 H   0  0  0  0  0  0  0  0  0  0  0  0
   38.4170   27.0450   43.6800 O   0  0  0  0  0  0  0  0  0  0  0  0
   37.6430   27.8730   42.8750 C   0  0  0  0  0  3  0  0  0  0  0  0
   37.6680   27.5580   41.8000 H   0  0  0  0  0  0  0  0  0  0  0  0
  1  6  1  0  0  0  0
  2  3  1  0  0  0  0
  2  1  2  0  0  0  0
  3  4  2  0  0  0  0
  4  5  1  0  0  0  0
  6  5  2  0  0  0  0
  7  1  1  0  0  0  0
  8  2  1  0  0  0  0
  9 15  1  0  0  0  0
  9  3  1  0  0  0  0
 10  9  1  0  0  0  0
 11 12  1  0  0  0  0
 11 10  2  0  0  0  0
 12 14  1  0  0  0  0
 13 12  2  0  0  0  0
 14 19  1  0  0  0  0
 14 15  1  0  0  0  0
 15 16  2  0  0  0  0
 17 10  1  0  0  0  0
 18 11  1  0  0  0  0
 20  5  1  6  0  0  0
 21 20  1  0  0  0  0
 21 23  1  0  0  0  0
 21 22  1  0  0  0  0
 23 25  1  0  0  0  0
 23 24  1  0  0  0  0
 26 20  1  0  0  0  0
 26 25  1  0  0  0  0
 27 26  1  0  0  0  0
M  END
>  <minimizedAffinity>
-5.34537458

$$$$

 OpenBabel03242521153D

 27 29  0  0  1  0  0  0  0  0999 V2000
   36.6510   26.6970   39.3650 C   0  0  0  0  0  0  0  0  0  0  0  0
   36.8070   28.0940   39.1910 C   0  0  0  0  0  0  0  0  0  0  0  0
   37.4290   28.8010   40.2180 C   0  0  0  0  0  0  0  0  0  0  0  0
   37.8530   28.1090   41.3320 N   0  0  0  0  0  0  0  0  0  0  0  0
   37.6850   26.7840   41.4540 C   0  0  0  0  0  0  0  0  0  0  0  0
   37.0800   26.0640   40.4680 N   0  0  0  0  0  0  0  0  0  0  0  0
   36.1670   26.1460   38.5670 H   0  0  0  0  0  0  0  0  0  0  0  0
   36.4580   28.5890   38.3020 H   0  0  0  0  0  0  0  0  0  0  0  0
   37.5970   30.1980   40.0690 N   0  0  0  0  0  0  0  0  0  0  0  0
   38.6210   30.6390   39.3240 C   0  0  0  0  0  0  0  0  0  0  0  0
   38.7870   32.0180   39.1770 C   0  0  0  0  0  0  0  0  0  0  0  0
   37.8980   32.8490   39.7970 C   0  0  0  0  0  0  0  0  0  0  0  0
   38.0500   34.1140   39.6630 O   0  0  0  0  0  0  0  0  0  0  0  0
   36.8640   32.4240   40.5500 N   0  0  0  0  0  0  0  0  0  0  0  0
   36.7560   31.0760   40.6540 C   0  0  0  0  0  0  0  0  0  0  0  0
   35.8320   30.5770   41.3280 O   0  0  0  0  0  0  0  0  0  0  0  0
   39.3280   29.9860   38.8300 H   0  0  0  0  0  0  0  0  0  0  0  0
   39.6030   32.4490   38.5820 H   0  0  0  0  0  0  0  0  0  0  0  0
   36.1830   33.0620   41.0250 H   0  0  0  0  0  0  0  0  0  0  0  0
   38.1680   26.1140   42.6810 C   0  0  2  0  0  3  0  0  0  0  0  0
   39.3640   26.8220   43.2810 C   0  0  0  0  0  3  0  0  0  0  0  0
   39.0810   27.4120   44.1970 H   0  0  0  0  0  0  0  0  0  0  0  0
   40.2610   25.6680   43.6770 C   0  0  0  0  0  3  0  0  0  0  0  0
   40.4650   25.7050   44.7800 H   0  0  0  0  0  0  0  0  0  0  0  0
   39.6030   24.5070   43.3460 O   0  0  0  0  0  0  0  0  0  0  0  0
   38.8140   24.8120   42.2430 C   0  0  0  0  0  3  0  0  0  0  0  0
   39.4290   24.9960   41.3240 H   0  0  0  0  0  0  0  0  0  0  0  0
  1  6  1  0  0  0  0
  2  1  2  0  0  0  0
  2  3  1  0  0  0  0
  3  4  2  0  0  0  0
  4  5  1  0  0  0  0
  6  5  2  0  0  0  0
  7  1  1  0  0  0  0
  8  2  1  0  0  0  0
  9  3  1  0  0  0  0
  9 15  1  0  0  0  0
 10  9  1  0  0  0  0
 11 10  2  0  0  0  0
 11 12  1  0  0  0  0
 12 14  1  0  0  0  0
 13 12  2  0  0  0  0
 14 15  1  0  0  0  0
 14 19  1  0  0  0  0
 15 16  2  0  0  0  0
 17 10  1  0  0  0  0
 18 11  1  0  0  0  0
 20  5  1  6  0  0  0
 20 21  1  0  0  0  0
 21 23  1  0  0  0  0
 21 22  1  0  0  0  0
 23 24  1  0  0  0  0
 25 23  1  0  0  0  0
 26 20  1  0  0  0  0
 26 25  1  0  0  0  0
 27 26  1  0  0  0  0
M  END
>  <minimizedAffinity>
-5.16741419

$$$$

 OpenBabel03242521153D

 27 29  0  0  1  0  0  0  0  0999 V2000
   37.0400   27.6190   43.6780 C   0  0  0  0  0  0  0  0  0  0  0  0
   37.3440   28.9410   43.2730 C   0  0  0  0  0  0  0  0  0  0  0  0
   37.7770   29.1250   41.9610 C   0  0  0  0  0  0  0  0  0  0  0  0
   37.8830   28.0220   41.1420 N   0  0  0  0  0  0  0  0  0  0  0  0
   37.5830   26.7860   41.5670 C   0  0  0  0  0  0  0  0  0  0  0  0
   37.1570   26.5730   42.8440 N   0  0  0  0  0  0  0  0  0  0  0  0
   36.7040   27.4750   44.6990 H   0  0  0  0  0  0  0  0  0  0  0  0
   37.2460   29.7710   43.9510 H   0  0  0  0  0  0  0  0  0  0  0  0
   38.0880   30.4370   41.5310 N   0  0  0  0  0  0  0  0  0  0  0  0
   37.1800   31.0960   40.7960 C   0  0  0  0  0  0  0  0  0  0  0  0
   37.4860   32.3920   40.3720 C   0  0  0  0  0  0  0  0  0  0  0  0
   38.6930   32.9220   40.7260 C   0  0  0  0  0  0  0  0  0  0  0  0
   38.9750   34.1100   40.3380 O   0  0  0  0  0  0  0  0  0  0  0  0
   39.6170   32.2750   41.4650 N   0  0  0  0  0  0  0  0  0  0  0  0
   39.2610   31.0230   41.8450 C   0  0  0  0  0  0  0  0  0  0  0  0
   40.0450   30.3370   42.5320 O   0  0  0  0  0  0  0  0  0  0  0  0
   36.2220   30.6810   40.5110 H   0  0  0  0  0  0  0  0  0  0  0  0
   36.7910   32.9890   39.7670 H   0  0  0  0  0  0  0  0  0  0  0  0
   40.5420   32.6840   41.7360 H   0  0  0  0  0  0  0  0  0  0  0  0
   37.7220   25.6540   40.6260 C   0  0  2  0  0  3  0  0  0  0  0  0
   36.5340   25.5390   39.6960 C   0  0  0  0  0  3  0  0  0  0  0  0
   36.7790   25.9070   38.6600 H   0  0  0  0  0  0  0  0  0  0  0  0
   36.2910   24.0460   39.6600 C   0  0  0  0  0  3  0  0  0  0  0  0
   36.3680   23.6720   38.6040 H   0  0  0  0  0  0  0  0  0  0  0  0
   37.2470   23.4570   40.4530 O   0  0  0  0  0  0  0  0  0  0  0  0
   37.5530   24.3840   41.4420 C   0  0  0  0  0  3  0  0  0  0  0  0
   36.7080   24.5210   42.1660 H   0  0  0  0  0  0  0  0  0  0  0  0
  1  7  1  0  0  0  0
  2  1  1  0  0  0  0
  2  8  1  0  0  0  0
  3  2  2  0  0  0  0
  4  5  2  0  0  0  0
  4  3  1  0  0  0  0
  5  6  1  0  0  0  0
  6  1  2  0  0  0  0
  9 15  1  0  0  0  0
  9  3  1  0  0  0  0
 10  9  1  0  0  0  0
 11 12  1  0  0  0  0
 11 10  2  0  0  0  0
 12 14  1  0  0  0  0
 13 12  2  0  0  0  0
 14 19  1  0  0  0  0
 14 15  1  0  0  0  0
 15 16  2  0  0  0  0
 17 10  1  0  0  0  0
 18 11  1  0  0  0  0
 20 26  1  0  0  0  0
 20  5  1  1  0  0  0
 21 20  1  0  0  0  0
 22 21  1  0  0  0  0
 23 21  1  0  0  0  0
 23 25  1  0  0  0  0
 24 23  1  0  0  0  0
 25 26  1  0  0  0  0
 26 27  1  0  0  0  0
M  END
>  <minimizedAffinity>
-5.08001089

$$$$

 OpenBabel03242521153D

 27 29  0  0  1  0  0  0  0  0999 V2000
   35.1750   27.2020   37.8320 C   0  0  0  0  0  0  0  0  0  0  0  0
   35.4400   28.5800   38.0240 C   0  0  0  0  0  0  0  0  0  0  0  0
   36.4540   28.9190   38.9170 C   0  0  0  0  0  0  0  0  0  0  0  0
   37.1340   27.9050   39.5570 N   0  0  0  0  0  0  0  0  0  0  0  0
   36.8510   26.6120   39.3450 C   0  0  0  0  0  0  0  0  0  0  0  0
   35.8650   26.2470   38.4780 N   0  0  0  0  0  0  0  0  0  0  0  0
   34.3860   26.9370   37.1380 H   0  0  0  0  0  0  0  0  0  0  0  0
   34.8790   29.3350   37.5000 H   0  0  0  0  0  0  0  0  0  0  0  0
   36.7380   30.2890   39.1260 N   0  0  0  0  0  0  0  0  0  0  0  0
   37.3480   30.9680   38.1440 C   0  0  0  0  0  0  0  0  0  0  0  0
   37.6290   32.3210   38.3500 C   0  0  0  0  0  0  0  0  0  0  0  0
   37.2680   32.8850   39.5400 C   0  0  0  0  0  0  0  0  0  0  0  0
   37.5250   34.1260   39.7300 O   0  0  0  0  0  0  0  0  0  0  0  0
   36.6550   32.2180   40.5380 N   0  0  0  0  0  0  0  0  0  0  0  0
   36.4100   30.9100   40.2770 C   0  0  0  0  0  0  0  0  0  0  0  0
   35.8450   30.2020   41.1360 O   0  0  0  0  0  0  0  0  0  0  0  0
   37.6370   30.5270   37.1980 H   0  0  0  0  0  0  0  0  0  0  0  0
   38.1270   32.9380   37.5890 H   0  0  0  0  0  0  0  0  0  0  0  0
   36.3780   32.6520   41.4500 H   0  0  0  0  0  0  0  0  0  0  0  0
   37.6270   25.5830   40.0700 C   0  0  2  0  0  3  0  0  0  0  0  0
   36.7310   24.5870   40.7750 C   0  0  0  0  0  3  0  0  0  0  0  0
   36.6960   23.6020   40.2310 H   0  0  0  0  0  0  0  0  0  0  0  0
   37.4270   24.4080   42.1070 C   0  0  0  0  0  3  0  0  0  0  0  0
   37.7000   23.3290   42.2530 H   0  0  0  0  0  0  0  0  0  0  0  0
   38.5550   25.1940   42.0870 O   0  0  0  0  0  0  0  0  0  0  0  0
   38.2580   26.2740   41.2660 C   0  0  0  0  0  3  0  0  0  0  0  0
   37.5080   26.9640   41.7320 H   0  0  0  0  0  0  0  0  0  0  0  0
  1  2  2  0  0  0  0
  1  6  1  0  0  0  0
  2  3  1  0  0  0  0
  3  9  1  0  0  0  0
  3  4  2  0  0  0  0
  5  4  1  0  0  0  0
  6  5  2  0  0  0  0
  7  1  1  0  0  0  0
  8  2  1  0  0  0  0
  9 15  1  0  0  0  0
 10 11  2  0  0  0  0
 10  9  1  0  0  0  0
 11 12  1  0  0  0  0
 12 13  2  0  0  0  0
 12 14  1  0  0  0  0
 14 19  1  0  0  0  0
 15 14  1  0  0  0  0
 15 16  2  0  0  0  0
 17 10  1  0  0  0  0
 18 11  1  0  0  0  0
 20  5  1  1  0  0  0
 20 21  1  0  0  0  0
 20 26  1  0  0  0  0
 21 23  1  0  0  0  0
 22 21  1  0  0  0  0
 23 24  1  0  0  0  0
 25 23  1  0  0  0  0
 26 27  1  0  0  0  0
 26 25  1  0  0  0  0
M  END
>  <minimizedAffinity>
-5.07037926

$$$$

 OpenBabel03242521153D

 27 29  0  0  1  0  0  0  0  0999 V2000
   39.5660   34.1230   40.2910 C   0  0  0  0  0  0  0  0  0  0  0  0
   38.9590   33.1220   41.0870 C   0  0  0  0  0  0  0  0  0  0  0  0
   39.0560   31.8050   40.6430 C   0  0  0  0  0  0  0  0  0  0  0  0
   39.7300   31.5540   39.4670 N   0  0  0  0  0  0  0  0  0  0  0  0
   40.2910   32.5340   38.7440 C   0  0  0  0  0  0  0  0  0  0  0  0
   40.2130   33.8330   39.1500 N   0  0  0  0  0  0  0  0  0  0  0  0
   39.4900   35.1490   40.6350 H   0  0  0  0  0  0  0  0  0  0  0  0
   38.4430   33.3690   41.9980 H   0  0  0  0  0  0  0  0  0  0  0  0
   38.4580   30.7850   41.4210 N   0  0  0  0  0  0  0  0  0  0  0  0
   39.2150   30.1530   42.3300 C   0  0  0  0  0  0  0  0  0  0  0  0
   38.6250   29.1470   43.0990 C   0  0  0  0  0  0  0  0  0  0  0  0
   37.3080   28.8570   42.8870 C   0  0  0  0  0  0  0  0  0  0  0  0
   36.7660   27.9330   43.5910 O   0  0  0  0  0  0  0  0  0  0  0  0
   36.5320   29.4810   41.9780 N   0  0  0  0  0  0  0  0  0  0  0  0
   37.1620   30.4470   41.2650 C   0  0  0  0  0  0  0  0  0  0  0  0
   36.5340   31.0870   40.3970 O   0  0  0  0  0  0  0  0  0  0  0  0
   40.2600   30.3790   42.5020 H   0  0  0  0  0  0  0  0  0  0  0  0
   39.1850   28.5880   43.8610 H   0  0  0  0  0  0  0  0  0  0  0  0
   35.5220   29.2570   41.8170 H   0  0  0  0  0  0  0  0  0  0  0  0
   40.9970   32.1830   37.4930 C   0  0  2  0  0  3  0  0  0  0  0  0
   41.2210   30.6920   37.3670 C   0  0  0  0  0  3  0  0  0  0  0  0
   40.5140   30.2260   36.6250 H   0  0  0  0  0  0  0  0  0  0  0  0
   42.6360   30.6180   36.8340 C   0  0  0  0  0  3  0  0  0  0  0  0
   42.6470   30.0780   35.8510 H   0  0  0  0  0  0  0  0  0  0  0  0
   43.0820   31.9100   36.6810 O   0  0  0  0  0  0  0  0  0  0  0  0
   42.4300   32.6610   37.6500 C   0  0  0  0  0  3  0  0  0  0  0  0
   42.7880   32.4180   38.6840 H   0  0  0  0  0  0  0  0  0  0  0  0
  1  7  1  0  0  0  0
  1  2  1  0  0  0  0
  2  8  1  0  0  0  0
  3  2  2  0  0  0  0
  3  9  1  0  0  0  0
  4  3  1  0  0  0  0
  5  6  1  0  0  0  0
  5  4  2  0  0  0  0
  6  1  2  0  0  0  0
  9 10  1  0  0  0  0
 10 17  1  0  0  0  0
 10 11  2  0  0  0  0
 11 18  1  0  0  0  0
 12 11  1  0  0  0  0
 12 13  2  0  0  0  0
 14 12  1  0  0  0  0
 15  9  1  0  0  0  0
 15 14  1  0  0  0  0
 16 15  2  0  0  0  0
 19 14  1  0  0  0  0
 20 26  1  0  0  0  0
 20  5  1  1  0  0  0
 21 20  1  0  0  0  0
 22 21  1  0  0  0  0
 23 21  1  0  0  0  0
 24 23  1  0  0  0  0
 25 23  1  0  0  0  0
 25 26  1  0  0  0  0
 26 27  1  0  0  0  0
M  END
>  <minimizedAffinity>
-5.03131151

$$$$

 OpenBabel03242521153D

 27 29  0  0  1  0  0  0  0  0999 V2000
   39.9650   25.5200   43.6040 C   0  0  0  0  0  0  0  0  0  0  0  0
   39.5050   26.8130   43.2560 C   0  0  0  0  0  0  0  0  0  0  0  0
   38.6580   26.9160   42.1540 C   0  0  0  0  0  0  0  0  0  0  0  0
   38.3190   25.7660   41.4740 N   0  0  0  0  0  0  0  0  0  0  0  0
   38.7780   24.5600   41.8400 C   0  0  0  0  0  0  0  0  0  0  0  0
   39.6080   24.4260   42.9120 N   0  0  0  0  0  0  0  0  0  0  0  0
   40.6250   25.4390   44.4600 H   0  0  0  0  0  0  0  0  0  0  0  0
   39.7990   27.6820   43.8190 H   0  0  0  0  0  0  0  0  0  0  0  0
   38.1840   28.1980   41.7860 N   0  0  0  0  0  0  0  0  0  0  0  0
   38.9930   28.9920   41.0690 C   0  0  0  0  0  0  0  0  0  0  0  0
   38.5250   30.2570   40.7050 C   0  0  0  0  0  0  0  0  0  0  0  0
   37.2690   30.6220   41.0960 C   0  0  0  0  0  0  0  0  0  0  0  0
   36.8390   31.7820   40.7630 O   0  0  0  0  0  0  0  0  0  0  0  0
   36.4420   29.8370   41.8160 N   0  0  0  0  0  0  0  0  0  0  0  0
   36.9530   28.6230   42.1370 C   0  0  0  0  0  0  0  0  0  0  0  0
   36.2690   27.8180   42.8030 O   0  0  0  0  0  0  0  0  0  0  0  0
   39.9900   28.7090   40.7570 H   0  0  0  0  0  0  0  0  0  0  0  0
   39.1340   30.9600   40.1200 H   0  0  0  0  0  0  0  0  0  0  0  0
   35.4790   30.1180   42.1140 H   0  0  0  0  0  0  0  0  0  0  0  0
   38.3680   23.3740   41.0570 C   0  0  2  0  0  3  0  0  0  0  0  0
   39.0280   23.3350   39.6960 C   0  0  0  0  0  3  0  0  0  0  0  0
   39.8580   22.5750   39.6580 H   0  0  0  0  0  0  0  0  0  0  0  0
   37.8940   22.8960   38.7950 C   0  0  0  0  0  3  0  0  0  0  0  0
   38.1700   21.9420   38.2720 H   0  0  0  0  0  0  0  0  0  0  0  0
   36.7890   22.7080   39.5920 O   0  0  0  0  0  0  0  0  0  0  0  0
   36.9210   23.5970   40.6510 C   0  0  0  0  0  3  0  0  0  0  0  0
   36.7890   24.6620   40.3260 H   0  0  0  0  0  0  0  0  0  0  0  0
  1  7  1  0  0  0  0
  2  1  1  0  0  0  0
  2  8  1  0  0  0  0
  3  2  2  0  0  0  0
  4  5  2  0  0  0  0
  4  3  1  0  0  0  0
  5  6  1  0  0  0  0
  6  1  2  0  0  0  0
  9 15  1  0  0  0  0
  9  3  1  0  0  0  0
 10  9  1  0  0  0  0
 11 10  2  0  0  0  0
 11 12  1  0  0  0  0
 12 14  1  0  0  0  0
 13 12  2  0  0  0  0
 14 19  1  0  0  0  0
 14 15  1  0  0  0  0
 15 16  2  0  0  0  0
 17 10  1  0  0  0  0
 18 11  1  0  0  0  0
 20  5  1  1  0  0  0
 21 20  1  0  0  0  0
 22 21  1  0  0  0  0
 23 25  1  0  0  0  0
 23 21  1  0  0  0  0
 24 23  1  0  0  0  0
 25 26  1  0  0  0  0
 26 20  1  0  0  0  0
 27 26  1  0  0  0  0
M  END
>  <minimizedAffinity>
-4.93893337

$$$$

 OpenBabel03242521153D

 27 29  0  0  1  0  0  0  0  0999 V2000
   37.5420   28.5570   43.6730 C   0  0  0  0  0  0  0  0  0  0  0  0
   37.5700   27.1960   43.2800 C   0  0  0  0  0  0  0  0  0  0  0  0
   37.7280   26.9250   41.9220 C   0  0  0  0  0  0  0  0  0  0  0  0
   37.8480   27.9840   41.0490 N   0  0  0  0  0  0  0  0  0  0  0  0
   37.8170   29.2580   41.4650 C   0  0  0  0  0  0  0  0  0  0  0  0
   37.6630   29.5570   42.7850 N   0  0  0  0  0  0  0  0  0  0  0  0
   37.4180   28.7690   44.7280 H   0  0  0  0  0  0  0  0  0  0  0  0
   37.4710   26.4040   44.0020 H   0  0  0  0  0  0  0  0  0  0  0  0
   37.7590   25.5730   41.5040 N   0  0  0  0  0  0  0  0  0  0  0  0
   36.6950   25.0870   40.8490 C   0  0  0  0  0  0  0  0  0  0  0  0
   36.7250   23.7520   40.4360 C   0  0  0  0  0  0  0  0  0  0  0  0
   37.8350   23.0110   40.7190 C   0  0  0  0  0  0  0  0  0  0  0  0
   37.8640   21.7860   40.3420 O   0  0  0  0  0  0  0  0  0  0  0  0
   38.9140   23.4820   41.3770 N   0  0  0  0  0  0  0  0  0  0  0  0
   38.8230   24.7830   41.7500 C   0  0  0  0  0  0  0  0  0  0  0  0
   39.7680   25.3190   42.3650 O   0  0  0  0  0  0  0  0  0  0  0  0
   35.8120   25.6700   40.6210 H   0  0  0  0  0  0  0  0  0  0  0  0
   35.8890   23.2880   39.8950 H   0  0  0  0  0  0  0  0  0  0  0  0
   39.7650   22.9120   41.5930 H   0  0  0  0  0  0  0  0  0  0  0  0
   37.9530   30.3390   40.4640 C   0  0  2  0  0  3  0  0  0  0  0  0
   39.0430   31.3210   40.8330 C   0  0  0  0  0  3  0  0  0  0  0  0
   39.9670   31.1720   40.2050 H   0  0  0  0  0  0  0  0  0  0  0  0
   38.4100   32.6540   40.4960 C   0  0  0  0  0  3  0  0  0  0  0  0
   39.0360   33.1930   39.7360 H   0  0  0  0  0  0  0  0  0  0  0  0
   37.1560   32.3950   39.9930 O   0  0  0  0  0  0  0  0  0  0  0  0
   36.7280   31.2250   40.6090 C   0  0  0  0  0  3  0  0  0  0  0  0
   36.5100   31.3780   41.6980 H   0  0  0  0  0  0  0  0  0  0  0  0
  1  7  1  0  0  0  0
  2  1  1  0  0  0  0
  2  8  1  0  0  0  0
  3  2  2  0  0  0  0
  4  5  2  0  0  0  0
  4  3  1  0  0  0  0
  5  6  1  0  0  0  0
  6  1  2  0  0  0  0
  9 15  1  0  0  0  0
  9  3  1  0  0  0  0
 10  9  1  0  0  0  0
 11 12  1  0  0  0  0
 11 10  2  0  0  0  0
 12 14  1  0  0  0  0
 13 12  2  0  0  0  0
 14 19  1  0  0  0  0
 14 15  1  0  0  0  0
 15 16  2  0  0  0  0
 17 10  1  0  0  0  0
 18 11  1  0  0  0  0
 20 26  1  0  0  0  0
 20 21  1  0  0  0  0
 20  5  1  1  0  0  0
 22 21  1  0  0  0  0
 23 21  1  0  0  0  0
 24 23  1  0  0  0  0
 25 23  1  0  0  0  0
 25 26  1  0  0  0  0
 26 27  1  0  0  0  0
M  END
>  <minimizedAffinity>
-4.91139698

$$$$

 OpenBabel03242521153D

 27 29  0  0  1  0  0  0  0  0999 V2000
   37.3350   28.4510   43.6760 C   0  0  0  0  0  0  0  0  0  0  0  0
   37.1160   27.1710   43.1110 C   0  0  0  0  0  0  0  0  0  0  0  0
   37.9990   26.7500   42.1180 C   0  0  0  0  0  0  0  0  0  0  0  0
   39.0240   27.5930   41.7480 N   0  0  0  0  0  0  0  0  0  0  0  0
   39.1950   28.7980   42.3110 C   0  0  0  0  0  0  0  0  0  0  0  0
   38.3490   29.2400   43.2830 N   0  0  0  0  0  0  0  0  0  0  0  0
   36.6490   28.7800   44.4480 H   0  0  0  0  0  0  0  0  0  0  0  0
   36.3000   26.5500   43.4350 H   0  0  0  0  0  0  0  0  0  0  0  0
   37.8010   25.4750   41.5380 N   0  0  0  0  0  0  0  0  0  0  0  0
   36.9440   25.3700   40.5120 C   0  0  0  0  0  0  0  0  0  0  0  0
   36.7490   24.1110   39.9380 C   0  0  0  0  0  0  0  0  0  0  0  0
   37.4400   23.0510   40.4500 C   0  0  0  0  0  0  0  0  0  0  0  0
   37.2620   21.8950   39.9250 O   0  0  0  0  0  0  0  0  0  0  0  0
   38.3060   23.1370   41.4800 N   0  0  0  0  0  0  0  0  0  0  0  0
   38.4520   24.3840   41.9920 C   0  0  0  0  0  0  0  0  0  0  0  0
   39.2300   24.5750   42.9490 O   0  0  0  0  0  0  0  0  0  0  0  0
   36.3930   26.2070   40.1020 H   0  0  0  0  0  0  0  0  0  0  0  0
   36.0620   23.9520   39.0960 H   0  0  0  0  0  0  0  0  0  0  0  0
   38.8360   22.3230   41.8700 H   0  0  0  0  0  0  0  0  0  0  0  0
   40.3200   29.6440   41.8570 C   0  0  2  0  0  3  0  0  0  0  0  0
   41.4760   29.6240   42.8340 C   0  0  0  0  0  3  0  0  0  0  0  0
   42.3270   28.9900   42.4580 H   0  0  0  0  0  0  0  0  0  0  0  0
   41.9000   31.0760   42.8680 C   0  0  0  0  0  3  0  0  0  0  0  0
   42.9740   31.1680   42.5540 H   0  0  0  0  0  0  0  0  0  0  0  0
   41.0820   31.7610   42.0000 O   0  0  0  0  0  0  0  0  0  0  0  0
   39.8680   31.0870   42.0010 C   0  0  0  0  0  3  0  0  0  0  0  0
   39.3200   31.2070   42.9720 H   0  0  0  0  0  0  0  0  0  0  0  0
  1  7  1  0  0  0  0
  2  8  1  0  0  0  0
  2  1  2  0  0  0  0
  3  2  1  0  0  0  0
  4  3  2  0  0  0  0
  4  5  1  0  0  0  0
  5  6  2  0  0  0  0
  6  1  1  0  0  0  0
  9 15  1  0  0  0  0
  9  3  1  0  0  0  0
 10  9  1  0  0  0  0
 11 12  1  0  0  0  0
 11 10  2  0  0  0  0
 12 14  1  0  0  0  0
 13 12  2  0  0  0  0
 14 19  1  0  0  0  0
 14 15  1  0  0  0  0
 15 16  2  0  0  0  0
 17 10  1  0  0  0  0
 18 11  1  0  0  0  0
 20 26  1  0  0  0  0
 20  5  1  1  0  0  0
 20 21  1  0  0  0  0
 21 23  1  0  0  0  0
 22 21  1  0  0  0  0
 24 23  1  0  0  0  0
 25 26  1  0  0  0  0
 25 23  1  0  0  0  0
 26 27  1  0  0  0  0
M  END
>  <minimizedAffinity>
-4.87741661

$$$$
