
 OpenBabel03242519043D

 31 33  0  0  1  0  0  0  0  0999 V2000
   47.5000   34.3210   42.2950 N   0  0  0  0  0  0  0  0  0  0  0  0
   47.9860   35.1640   41.2250 C   0  0  0  0  0  0  0  0  0  0  0  0
   47.9190   34.1790   40.0980 C   0  0  2  0  0  0  0  0  0  0  0  0
   48.6770   33.0170   40.7160 C   0  0  0  0  0  0  0  0  0  0  0  0
   48.1990   33.0600   42.1550 C   0  0  0  0  0  0  0  0  0  0  0  0
   49.0060   35.5200   41.3820 H   0  0  0  0  0  0  0  0  0  0  0  0
   47.2390   35.9570   41.0650 H   0  0  0  0  0  0  0  0  0  0  0  0
   46.8820   33.8770   39.8900 H   0  0  0  0  0  0  0  0  0  0  0  0
   48.5040   32.0550   40.2210 H   0  0  0  0  0  0  0  0  0  0  0  0
   49.7490   33.3290   40.7460 H   0  0  0  0  0  0  0  0  0  0  0  0
   49.0170   32.9450   42.8930 H   0  0  0  0  0  0  0  0  0  0  0  0
   47.4300   32.2540   42.2540 H   0  0  0  0  0  0  0  0  0  0  0  0
   44.7090   35.6820   44.3500 C   0  0  0  0  0  0  0  0  0  0  0  0
   45.5820   35.5620   43.2650 C   0  0  0  0  0  0  0  0  0  0  0  0
   46.5600   34.5590   43.3100 C   0  0  0  0  0  0  0  0  0  0  0  0
   46.5920   33.7610   44.4250 N   0  0  0  0  0  0  0  0  0  0  0  0
   45.7400   33.8980   45.4580 C   0  0  0  0  0  0  0  0  0  0  0  0
   44.7930   34.8690   45.4150 N   0  0  0  0  0  0  0  0  0  0  0  0
   43.9710   36.4840   44.2550 H   0  0  0  0  0  0  0  0  0  0  0  0
   45.5460   36.1870   42.4070 H   0  0  0  0  0  0  0  0  0  0  0  0
   45.8260   33.2280   46.3070 H   0  0  0  0  0  0  0  0  0  0  0  0
   48.6770   34.5670   38.9650 N   0  0  0  0  0  0  0  0  0  0  0  0
   49.6600   34.2290   39.0700 H   0  0  0  0  0  0  0  0  0  0  0  0
   48.1850   34.1900   37.6920 C   0  0  2  0  0  0  0  0  0  0  0  0
   46.8730   33.5070   37.6530 C   0  0  0  0  0  0  0  0  0  0  0  0
   46.0610   34.2250   37.4160 H   0  0  0  0  0  0  0  0  0  0  0  0
   47.0210   32.6480   36.4030 C   0  0  0  0  0  0  0  0  0  0  0  0
   46.8830   33.3200   35.5080 H   0  0  0  0  0  0  0  0  0  0  0  0
   48.3490   32.2560   36.3690 O   0  0  0  0  0  0  0  0  0  0  0  0
   49.0960   33.2640   36.9560 C   0  0  0  0  0  0  0  0  0  0  0  0
   49.8140   32.7460   37.6470 H   0  0  0  0  0  0  0  0  0  0  0  0
  1 15  1  0  0  0  0
  2  6  1  0  0  0  0
  2  1  1  0  0  0  0
  3  8  1  6  0  0  0
  3  4  1  0  0  0  0
  3  2  1  0  0  0  0
  4 10  1  0  0  0  0
  4  5  1  0  0  0  0
  5 12  1  0  0  0  0
  5  1  1  0  0  0  0
  5 11  1  0  0  0  0
  7  2  1  0  0  0  0
  9  4  1  0  0  0  0
 13 18  1  0  0  0  0
 14 15  1  0  0  0  0
 14 13  2  0  0  0  0
 15 16  2  0  0  0  0
 16 17  1  0  0  0  0
 17 21  1  0  0  0  0
 18 17  2  0  0  0  0
 19 13  1  0  0  0  0
 20 14  1  0  0  0  0
 22 23  1  0  0  0  0
 22  3  1  0  0  0  0
 24 22  1  1  0  0  0
 25 24  1  0  0  0  0
 26 25  1  0  0  0  0
 27 25  1  0  0  0  0
 28 27  1  0  0  0  0
 29 27  1  0  0  0  0
 29 30  1  0  0  0  0
 30 31  1  0  0  0  0
 30 24  1  0  0  0  0
M  END
>  <minimizedAffinity>
-4.69936609

>  <minimizedRMSD>
2.90378189

$$$$
