
 OpenBabel03252507083D

 23 24  0  0  1  0  0  0  0  0999 V2000
   44.8450   35.0380   45.0530 C   0  0  0  0  0  0  0  0  0  0  0  0
   45.3870   35.3960   43.7940 C   0  0  0  0  0  0  0  0  0  0  0  0
   46.4590   34.6610   43.3040 C   0  0  0  0  0  0  0  0  0  0  0  0
   46.9340   33.6310   44.0650 N   0  0  0  0  0  0  0  0  0  0  0  0
   46.4050   33.3110   45.2530 C   0  0  0  0  0  0  0  0  0  0  0  0
   45.3570   34.0150   45.7520 N   0  0  0  0  0  0  0  0  0  0  0  0
   44.0110   35.6790   45.3360 H   0  0  0  0  0  0  0  0  0  0  0  0
   44.9980   36.2170   43.2030 H   0  0  0  0  0  0  0  0  0  0  0  0
   46.9150   32.2020   46.0730 C   0  0  1  0  0  3  0  0  0  0  0  0
   47.1280   32.6230   47.5330 C   0  0  0  0  0  3  0  0  0  0  0  0
   48.0740   33.2010   47.5860 H   0  0  0  0  0  0  0  0  0  0  0  0
   47.2620   31.2300   48.1150 C   0  0  0  0  0  3  0  0  0  0  0  0
   47.1260   31.1890   49.2030 H   0  0  0  0  0  0  0  0  0  0  0  0
   46.4280   30.4020   47.3870 O   0  0  0  0  0  0  0  0  0  0  0  0
   45.9660   31.0710   46.2820 C   0  0  0  0  0  3  0  0  0  0  0  0
   44.9400   31.4600   46.5470 H   0  0  0  0  0  0  0  0  0  0  0  0
   46.9760   35.0210   42.0780 O   0  0  0  0  0  0  0  0  0  0  0  0
   48.8440   33.3780   41.1820 O   0  0  0  0  0  0  0  0  0  0  0  0
   48.6470   34.7830   41.7620 P   0  0  0  0  0  0  0  0  0  0  0  0
   49.1960   35.9700   40.7370 O   0  0  0  0  0  0  0  0  0  0  0  0
   50.0640   36.3330   41.0810 H   0  0  0  0  0  0  0  0  0  0  0  0
   49.4520   34.8220   43.2640 O   0  0  0  0  0  0  0  0  0  0  0  0
   49.4130   33.9190   43.6340 H   0  0  0  0  0  0  0  0  0  0  0  0
  1  7  1  0  0  0  0
  1  6  1  0  0  0  0
  2  1  2  0  0  0  0
  3  2  1  0  0  0  0
  3  4  2  0  0  0  0
  4  5  1  0  0  0  0
  5  6  2  0  0  0  0
  8  2  1  0  0  0  0
  9  5  1  6  0  0  0
  9 15  1  0  0  0  0
  9 10  1  0  0  0  0
 10 11  1  0  0  0  0
 10 12  1  0  0  0  0
 12 13  1  0  0  0  0
 14 12  1  0  0  0  0
 15 16  1  0  0  0  0
 15 14  1  0  0  0  0
 17  3  1  0  0  0  0
 18 19  2  0  0  0  0
 19 17  1  0  0  0  0
 19 22  1  0  0  0  0
 20 21  1  0  0  0  0
 20 19  1  0  0  0  0
 22 23  1  0  0  0  0
M  END
>  <minimizedAffinity>
-5.1457305

>  <minimizedRMSD>
1.08439398

$$$$
