REMARK  Name = 
REMARK  4 active torsions:
REMARK  status: ('A' for Active; 'I' for Inactive)
REMARK    1  A    between atoms: C_3  and  C_12
REMARK    2  A    between atoms: C_7  and  C_18
REMARK    3  A    between atoms: C_10  and  C_14
REMARK    4  A    between atoms: C_21  and  C_30
REMARK                            x       y       z     vdW  Elec       q    Type
REMARK                         _______ _______ _______ _____ _____    ______ ____
ROOT
ATOM      1 CL   UNL     1      45.497  32.303  40.583  0.00  0.00    +0.000 Cl
ATOM      2  C   UNL     1      46.780  33.414  40.211  0.00  0.00    +0.000 A 
ATOM      3  C   UNL     1      47.365  34.174  41.189  0.00  0.00    +0.000 A 
ATOM      4  C   UNL     1      48.393  35.072  40.920  0.00  0.00    +0.000 A 
ATOM      5  C   UNL     1      48.791  35.154  39.608  0.00  0.00    +0.000 A 
ATOM      6  C   UNL     1      48.209  34.392  38.610  0.00  0.00    +0.000 A 
ATOM      7  C   UNL     1      47.215  33.532  38.904  0.00  0.00    +0.000 A 
ATOM      8  H   UNL     1      48.851  35.666  41.682  0.00  0.00    +0.000 HD
ATOM      9  H   UNL     1      49.587  35.845  39.389  0.00  0.00    +0.000 HD
ATOM     10  H   UNL     1      48.538  34.472  37.586  0.00  0.00    +0.000 HD
ENDROOT
BRANCH   3  15
ATOM     11  C   UNL     1      46.913  32.918  44.627  0.00  0.00    +0.000 A 
ATOM     12  C   UNL     1      45.970  33.827  45.169  0.00  0.00    +0.000 A 
ATOM     13  C   UNL     1      45.510  34.852  44.341  0.00  0.00    +0.000 A 
ATOM     14  N   UNL     1      45.993  34.918  43.064  0.00  0.00    +0.000 NA
ATOM     15  C   UNL     1      46.890  34.038  42.577  0.00  0.00    +0.000 A 
ATOM     16  N   UNL     1      47.336  33.056  43.359  0.00  0.00    +0.000 NA
ATOM     17  H   UNL     1      47.250  32.133  45.298  0.00  0.00    +0.000 HD
ATOM     18  H   UNL     1      45.572  33.803  46.164  0.00  0.00    +0.000 HD
BRANCH  13  19
ATOM     19  C   UNL     1      44.516  35.872  44.796  0.00  0.00    +0.000 C 
ATOM     20  F   UNL     1      44.971  37.131  44.565  0.00  0.00    +0.000 F 
ATOM     21  F   UNL     1      43.341  35.676  44.097  0.00  0.00    +0.000 F 
ATOM     22  F   UNL     1      44.304  35.646  46.132  0.00  0.00    +0.000 F 
ENDBRANCH  13  19
ENDBRANCH   3  15
BRANCH   7  23
ATOM     23  C   UNL     1      46.584  32.717  37.869  0.00  0.00    +0.000 A 
ATOM     24  C   UNL     1      45.584  33.189  37.007  0.00  0.00    +0.000 A 
ATOM     25  C   UNL     1      45.220  32.154  36.161  0.00  0.00    +0.000 A 
ATOM     26  C   UNL     1      46.032  31.104  36.566  0.00  0.00    +0.000 A 
ATOM     27  O   UNL     1      46.818  31.453  37.563  0.00  0.00    +0.000 OA
ATOM     28  H   UNL     1      45.172  34.191  37.008  0.00  0.00    +0.000 HD
ATOM     29  H   UNL     1      44.499  32.140  35.383  0.00  0.00    +0.000 HD
BRANCH  26  30
ATOM     30  C   UNL     1      46.050  29.753  35.990  0.00  0.00    +0.000 C 
ATOM     31  C   UNL     1      44.810  29.453  35.136  0.00  0.00    +0.000 C 
ATOM     32  H   UNL     1      44.660  30.235  34.379  0.00  0.00    +0.000 HD
ATOM     33  C   UNL     1      45.361  28.215  34.416  0.00  0.00    +0.000 C 
ATOM     34  H   UNL     1      44.757  27.938  33.539  0.00  0.00    +0.000 HD
ATOM     35  O   UNL     1      46.684  28.500  34.140  0.00  0.00    +0.000 OA
ATOM     36  C   UNL     1      47.115  29.522  34.960  0.00  0.00    +0.000 C 
ATOM     37  H   UNL     1      47.184  30.434  34.330  0.00  0.00    +0.000 HD
ENDBRANCH  26  30
ENDBRANCH   7  23
TORSDOF 4
