REMARK  Name = 
REMARK  4 active torsions:
REMARK  status: ('A' for Active; 'I' for Inactive)
REMARK    1  A    between atoms: C_1  and  C_6
REMARK    2  A    between atoms: C_3  and  C_14
REMARK    3  A    between atoms: C_4  and  C_10
REMARK    4  A    between atoms: C_17  and  C_27
REMARK                            x       y       z     vdW  Elec       q    Type
REMARK                         _______ _______ _______ _____ _____    ______ ____
ROOT
ATOM      1  C   UNL     1      46.636  32.534  44.082  0.00  0.00    +0.000 C 
ATOM      2  C   UNL     1      46.050  33.854  44.387  0.00  0.00    +0.000 C 
ATOM      3  C   UNL     1      47.550  33.668  43.947  0.00  0.00    +0.000 C 
ATOM      4  H   UNL     1      46.313  31.982  43.159  0.00  0.00    +0.000 HD
ATOM      5  H   UNL     1      45.944  34.245  45.396  0.00  0.00    +0.000 HD
ATOM      6  H   UNL     1      45.380  34.328  43.640  0.00  0.00    +0.000 HD
ATOM      7  H   UNL     1      48.279  33.886  44.722  0.00  0.00    +0.000 HD
ENDROOT
BRANCH   1  10
ATOM      8  C   UNL     1      46.154  30.799  47.374  0.00  0.00    +0.000 A 
ATOM      9  C   UNL     1      45.942  31.714  46.354  0.00  0.00    +0.000 A 
ATOM     10  C   UNL     1      46.762  31.600  45.242  0.00  0.00    +0.000 A 
ATOM     11  N   UNL     1      47.709  30.636  45.188  0.00  0.00    +0.000 NA
ATOM     12  C   UNL     1      47.879  29.758  46.220  0.00  0.00    +0.000 A 
ATOM     13  N   UNL     1      47.090  29.852  47.314  0.00  0.00    +0.000 NA
ATOM     14  H   UNL     1      45.187  32.483  46.396  0.00  0.00    +0.000 HD
ATOM     15  H   UNL     1      48.649  29.000  46.140  0.00  0.00    +0.000 HD
BRANCH   8  16
ATOM     16  C   UNL     1      45.273  30.889  48.584  0.00  0.00    +0.000 C 
ATOM     17  F   UNL     1      46.052  31.309  49.636  0.00  0.00    +0.000 F 
ATOM     18  F   UNL     1      44.827  29.614  48.864  0.00  0.00    +0.000 F 
ATOM     19  F   UNL     1      44.245  31.772  48.391  0.00  0.00    +0.000 F 
ENDBRANCH   8  16
ENDBRANCH   1  10
BRANCH   3  20
ATOM     20  C   UNL     1      47.798  34.140  42.549  0.00  0.00    +0.000 A 
ATOM     21  C   UNL     1      47.274  33.616  41.371  0.00  0.00    +0.000 A 
ATOM     22  C   UNL     1      47.838  34.434  40.413  0.00  0.00    +0.000 A 
ATOM     23  C   UNL     1      48.649  35.385  41.006  0.00  0.00    +0.000 A 
ATOM     24  O   UNL     1      48.575  35.145  42.294  0.00  0.00    +0.000 OA
ATOM     25  H   UNL     1      46.603  32.784  41.279  0.00  0.00    +0.000 HD
ATOM     26  H   UNL     1      47.673  34.348  39.341  0.00  0.00    +0.000 HD
BRANCH  23  27
ATOM     27  C   UNL     1      49.451  36.458  40.432  0.00  0.00    +0.000 C 
ATOM     28  C   UNL     1      49.792  36.044  38.994  0.00  0.00    +0.000 C 
ATOM     29  H   UNL     1      50.042  34.981  39.001  0.00  0.00    +0.000 HD
ATOM     30  C   UNL     1      48.479  36.368  38.304  0.00  0.00    +0.000 C 
ATOM     31  H   UNL     1      48.636  36.893  37.346  0.00  0.00    +0.000 HD
ATOM     32  O   UNL     1      47.720  37.125  39.160  0.00  0.00    +0.000 OA
ATOM     33  C   UNL     1      48.558  37.647  40.143  0.00  0.00    +0.000 C 
ATOM     34  H   UNL     1      47.968  37.983  40.999  0.00  0.00    +0.000 HD
ENDBRANCH  23  27
ENDBRANCH   3  20
TORSDOF 4
