REMARK  Name = 
REMARK  6 active torsions:
REMARK  status: ('A' for Active; 'I' for Inactive)
REMARK    1  A    between atoms: C_2  and  N_7
REMARK    2  A    between atoms: C_3  and  O_13
REMARK    3  A    between atoms: O_13  and  P_15
REMARK    4  A    between atoms: P_15  and  O_16
REMARK    5  A    between atoms: P_15  and  O_17
REMARK    6  A    between atoms: O_17  and  C_30
REMARK                            x       y       z     vdW  Elec       q    Type
REMARK                         _______ _______ _______ _____ _____    ______ ____
ROOT
ATOM      1  C   UNL     1      45.198  35.820  43.379  0.00  0.00    +0.000 A 
ATOM      2  C   UNL     1      45.909  34.587  43.404  0.00  0.00    +0.000 A 
ATOM      3  C   UNL     1      45.898  33.849  44.570  0.00  0.00    +0.000 A 
ATOM      4  N   UNL     1      45.205  34.337  45.645  0.00  0.00    +0.000 NA
ATOM      5  C   UNL     1      44.538  35.505  45.604  0.00  0.00    +0.000 A 
ATOM      6  N   UNL     1      44.536  36.236  44.484  0.00  0.00    +0.000 NA
ATOM      7  H   UNL     1      45.190  36.416  42.481  0.00  0.00    +0.000 HD
ATOM      8  H   UNL     1      44.055  35.720  46.547  0.00  0.00    +0.000 HD
ENDROOT
BRANCH   2   9
ATOM      9  N   UNL     1      46.572  34.232  42.205  0.00  0.00    +0.000 N 
ATOM     10  C   UNL     1      47.824  34.855  41.782  0.00  0.00    +0.000 C 
ATOM     11  C   UNL     1      48.325  34.157  40.545  0.00  0.00    +0.000 C 
ATOM     12  N   UNL     1      47.344  34.085  39.508  0.00  0.00    +0.000 NA
ATOM     13  C   UNL     1      46.074  33.575  39.914  0.00  0.00    +0.000 C 
ATOM     14  C   UNL     1      45.977  33.207  41.368  0.00  0.00    +0.000 C 
ATOM     15  H   UNL     1      47.565  35.912  41.567  0.00  0.00    +0.000 HD
ATOM     16  H   UNL     1      48.555  34.769  42.590  0.00  0.00    +0.000 HD
ATOM     17  H   UNL     1      49.217  34.632  40.139  0.00  0.00    +0.000 HD
ATOM     18  H   UNL     1      48.572  33.109  40.835  0.00  0.00    +0.000 HD
ATOM     19  H   UNL     1      47.257  35.037  39.086  0.00  0.00    +0.000 HD
ATOM     20  H   UNL     1      45.273  34.297  39.651  0.00  0.00    +0.000 HD
ATOM     21  H   UNL     1      45.873  32.652  39.302  0.00  0.00    +0.000 HD
ATOM     22  H   UNL     1      44.935  33.013  41.620  0.00  0.00    +0.000 HD
ATOM     23  H   UNL     1      46.529  32.233  41.508  0.00  0.00    +0.000 HD
ENDBRANCH   2   9
BRANCH   3  24
ATOM     24  O   UNL     1      46.599  32.650  44.570  0.00  0.00    +0.000 OA
BRANCH  24  26
ATOM     25  O   UNL     1      45.550  31.208  46.523  0.00  0.00    +0.000 OA
ATOM     26  P   UNL     1      46.855  31.846  46.070  0.00  0.00    +0.000 P 
BRANCH  26  27
ATOM     27  O   UNL     1      48.043  30.691  45.831  0.00  0.00    +0.000 OA
ATOM     28  H   UNL     1      47.602  29.831  45.560  0.00  0.00    +0.000 HD
ENDBRANCH  26  27
BRANCH  26  29
ATOM     29  O   UNL     1      47.324  33.018  47.204  0.00  0.00    +0.000 OA
BRANCH  29  30
ATOM     30  C   UNL     1      46.672  32.801  48.396  0.00  0.00    +0.000 C 
ATOM     31  C   UNL     1      47.621  32.926  49.595  0.00  0.00    +0.000 C 
ATOM     32  H   UNL     1      48.262  32.037  49.722  0.00  0.00    +0.000 HD
ATOM     33  C   UNL     1      46.543  32.998  50.684  0.00  0.00    +0.000 C 
ATOM     34  H   UNL     1      46.153  31.943  50.775  0.00  0.00    +0.000 HD
ATOM     35  O   UNL     1      45.513  33.748  50.144  0.00  0.00    +0.000 OA
ATOM     36  C   UNL     1      45.678  33.852  48.784  0.00  0.00    +0.000 C 
ATOM     37  H   UNL     1      44.745  33.823  48.211  0.00  0.00    +0.000 HD
ENDBRANCH  29  30
ENDBRANCH  26  29
ENDBRANCH  24  26
ENDBRANCH   3  24
TORSDOF 6
