
     RDKit          3D

 28 29  0  0  0  0  0  0  0  0999 V2000
   47.0896   34.3871   43.0882 C   0  0  0  0  0  0  0  0  0  0  0  0
   45.7833   34.6019   43.4957 C   0  0  0  0  0  0  0  0  0  0  0  0
   45.2613   33.7605   44.5044 C   0  0  0  0  0  0  0  0  0  0  0  0
   46.0577   32.7941   45.0181 N   0  0  0  0  0  0  0  0  0  0  0  0
   47.3310   32.6195   44.5891 C   0  0  0  0  0  0  0  0  0  0  0  0
   47.8374   33.4080   43.6359 N   0  0  0  0  0  0  0  0  0  0  0  0
   44.9843   35.6870   42.8749 C   0  0  0  0  0  0  0  0  0  0  0  0
   45.6244   36.9012   43.0637 F   0  0  0  0  0  0  0  0  0  0  0  0
   44.9527   35.4642   41.5089 F   0  0  0  0  0  0  0  0  0  0  0  0
   43.7177   35.8110   43.3496 F   0  0  0  0  0  0  0  0  0  0  0  0
   47.5755   35.1997   42.1224 O   0  0  0  0  0  0  0  0  0  0  0  0
   48.8752   35.1877   41.5767 C   0  0  0  0  0  0  0  0  0  0  0  0
   49.7609   35.5008   42.6129 F   0  0  0  0  0  0  0  0  0  0  0  0
   49.1283   33.9710   41.0195 F   0  0  0  0  0  0  0  0  0  0  0  0
   49.0096   36.2245   40.6691 F   0  0  0  0  0  0  0  0  0  0  0  0
   44.2534   33.9218   44.8229 H   0  0  0  0  0  0  0  0  0  0  0  0
   48.1117   31.5517   45.2026 C   0  0  2  0  0  0  0  0  0  0  0  0
   47.9398   30.1899   44.5589 C   0  0  2  0  0  0  0  0  0  0  0  0
   48.5721   30.0974   43.6619 H   0  0  0  0  0  0  0  0  0  0  0  0
   48.4682   29.3499   45.7096 C   0  0  1  0  0  0  0  0  0  0  0  0
   48.2919   28.2881   45.5922 H   0  0  0  0  0  0  0  0  0  0  0  0
   47.6980   29.8627   46.7742 O   0  0  0  0  0  0  0  0  0  0  0  0
   47.6839   31.2275   46.6186 C   0  0  2  0  0  0  0  0  0  0  0  0
   46.7199   31.6912   46.8861 H   0  0  0  0  0  0  0  0  0  0  0  0
   49.1829   31.7774   45.2255 H   0  0  0  0  0  0  0  0  0  0  0  0
   46.8712   29.9418   44.3887 H   0  0  0  0  0  0  0  0  0  0  0  0
   49.5338   29.6394   45.8119 H   0  0  0  0  0  0  0  0  0  0  0  0
   48.4288   31.6528   47.3472 H   0  0  0  0  0  0  0  0  0  0  0  0
  1  2  2  0
  1  6  1  0
  2  3  1  0
  3  4  2  0
  5  4  1  0
  6  5  2  0
  7  8  1  0
  7 10  1  0
  7  2  1  0
  9  7  1  0
 11  1  1  0
 12 11  1  0
 12 13  1  0
 14 12  1  0
 15 12  1  0
  3 16  1  0
 17 18  1  0
 18 19  1  6
 18 20  1  0
 20 21  1  6
 20 22  1  0
 22 23  1  0
 23 24  1  1
 23 17  1  0
 17 25  1  1
 18 26  1  0
 20 27  1  0
 23 28  1  0
  5 17  1  0
M  ISO  4  16  14  19  15  21  15  24  15
M  END
>  <DihAtoms>  (1) 
3,4,16,17

>  <DihDeg>  (1) 
-123.61115228072374

$$$$
