
 OpenBabel03242516343D

 43 46  0  0  1  0  0  0  0  0999 V2000
   47.7590   33.9220   39.7330 O   0  0  0  0  0  0  0  0  0  0  0  0
   48.0260   34.6710   41.9620 C   0  0  2  0  0  0  0  0  0  0  0  0
   46.7140   33.8880   42.2410 C   0  0  1  0  0  0  0  0  0  0  0  0
   47.2510   32.6730   42.5530 O   0  0  0  0  0  0  0  0  0  0  0  0
   48.1290   32.4070   41.4830 C   0  0  0  0  0  0  0  0  0  0  0  0
   48.5130   33.7670   40.8540 C   0  0  1  0  0  0  0  0  0  0  0  0
   47.8190   35.6890   41.6340 H   0  0  0  0  0  0  0  0  0  0  0  0
   46.1800   33.9740   41.2780 H   0  0  0  0  0  0  0  0  0  0  0  0
   47.6350   31.7580   40.7270 H   0  0  0  0  0  0  0  0  0  0  0  0
   49.0400   31.9850   41.9200 H   0  0  0  0  0  0  0  0  0  0  0  0
   49.5980   33.8780   40.7060 H   0  0  0  0  0  0  0  0  0  0  0  0
   44.5190   36.0610   44.4580 C   0  0  0  0  0  0  0  0  0  0  0  0
   45.1810   35.6830   43.2880 C   0  0  0  0  0  0  0  0  0  0  0  0
   45.9420   34.5300   43.3130 C   0  0  0  0  0  0  0  0  0  0  0  0
   45.9960   33.8310   44.4990 N   0  0  0  0  0  0  0  0  0  0  0  0
   45.3460   34.2240   45.6080 C   0  0  0  0  0  0  0  0  0  0  0  0
   44.6040   35.3470   45.5830 N   0  0  0  0  0  0  0  0  0  0  0  0
   43.9450   36.9740   44.3590 H   0  0  0  0  0  0  0  0  0  0  0  0
   45.1910   36.1620   42.3390 H   0  0  0  0  0  0  0  0  0  0  0  0
   45.4090   33.6510   46.5230 H   0  0  0  0  0  0  0  0  0  0  0  0
   48.9030   34.5350   42.9960 O   0  0  0  0  0  0  0  0  0  0  0  0
   49.0990   35.4020   43.4550 H   0  0  0  0  0  0  0  0  0  0  0  0
   49.1480   32.9420   38.1030 C   0  0  1  0  0  0  0  0  0  0  0  0
   48.4410   34.3110   38.5830 C   0  0  1  0  0  0  0  0  0  0  0  0
   47.5690   34.4310   37.5650 O   0  0  0  0  0  0  0  0  0  0  0  0
   46.8620   33.2120   37.6920 C   0  0  0  0  0  0  0  0  0  0  0  0
   47.9660   32.2270   37.5120 C   0  0  1  0  0  0  0  0  0  0  0  0
   49.6390   32.4860   38.9380 H   0  0  0  0  0  0  0  0  0  0  0  0
   49.3240   34.9210   38.7340 H   0  0  0  0  0  0  0  0  0  0  0  0
   46.0390   33.1400   36.9760 H   0  0  0  0  0  0  0  0  0  0  0  0
   46.4070   33.0790   38.6880 H   0  0  0  0  0  0  0  0  0  0  0  0
   47.8430   31.2830   38.1050 H   0  0  0  0  0  0  0  0  0  0  0  0
   49.9610   33.3320   37.0340 O   0  0  0  0  0  0  0  0  0  0  0  0
   50.9100   33.2220   37.2990 H   0  0  0  0  0  0  0  0  0  0  0  0
   48.1480   31.8850   36.2190 O   0  0  0  0  0  0  0  0  0  0  0  0
   47.0860   31.5650   35.4500 C   0  0  1  0  0  0  0  0  0  0  0  0
   47.2820   31.7250   33.9560 C   0  0  0  0  0  0  0  0  0  0  0  0
   46.7190   32.5940   33.5580 H   0  0  0  0  0  0  0  0  0  0  0  0
   46.5740   30.4790   33.4210 C   0  0  0  0  0  0  0  0  0  0  0  0
   45.8330   30.7210   32.6310 H   0  0  0  0  0  0  0  0  0  0  0  0
   46.0060   29.8430   34.5230 O   0  0  0  0  0  0  0  0  0  0  0  0
   46.9430   30.0380   35.5120 C   0  0  0  0  0  0  0  0  0  0  0  0
   46.6590   29.6900   36.5010 H   0  0  0  0  0  0  0  0  0  0  0  0
  1  6  1  0  0  0  0
  2  7  1  6  0  0  0
  2  3  1  0  0  0  0
  2 21  1  0  0  0  0
  3  8  1  6  0  0  0
  3  4  1  0  0  0  0
  3 14  1  0  0  0  0
  5 10  1  0  0  0  0
  5  4  1  0  0  0  0
  6 11  1  6  0  0  0
  6  5  1  0  0  0  0
  6  2  1  0  0  0  0
  9  5  1  0  0  0  0
 12 17  1  0  0  0  0
 13 14  1  0  0  0  0
 13 12  2  0  0  0  0
 14 15  2  0  0  0  0
 15 16  1  0  0  0  0
 16 20  1  0  0  0  0
 17 16  2  0  0  0  0
 18 12  1  0  0  0  0
 19 13  1  0  0  0  0
 21 22  1  0  0  0  0
 23 24  1  0  0  0  0
 23 28  1  1  0  0  0
 24 29  1  1  0  0  0
 24  1  1  0  0  0  0
 25 26  1  0  0  0  0
 25 24  1  0  0  0  0
 26 31  1  0  0  0  0
 27 26  1  0  0  0  0
 27 23  1  0  0  0  0
 27 32  1  1  0  0  0
 30 26  1  0  0  0  0
 33 34  1  0  0  0  0
 33 23  1  0  0  0  0
 35 27  1  0  0  0  0
 36 42  1  0  0  0  0
 36 35  1  1  0  0  0
 37 36  1  0  0  0  0
 38 37  1  0  0  0  0
 39 37  1  0  0  0  0
 39 41  1  0  0  0  0
 40 39  1  0  0  0  0
 41 42  1  0  0  0  0
 42 43  1  0  0  0  0
M  END
>  <minimizedAffinity>
-5.37883997

>  <minimizedRMSD>
1.15772378

$$$$
