
 OpenBabel03242512183D

 32 34  0  0  1  0  0  0  0  0999 V2000
   48.5000   33.1010   41.3740 C   0  0  0  0  0  0  0  0  0  0  0  0
   48.0550   34.3310   41.8300 C   0  0  0  0  0  0  0  0  0  0  0  0
   48.9590   35.1720   42.4800 C   0  0  0  0  0  0  0  0  0  0  0  0
   50.2680   34.7200   42.6320 C   0  0  0  0  0  0  0  0  0  0  0  0
   50.6550   33.4950   42.1630 C   0  0  0  0  0  0  0  0  0  0  0  0
   49.7780   32.6380   41.5120 C   0  0  0  0  0  0  0  0  0  0  0  0
   48.5090   36.0950   42.7890 H   0  0  0  0  0  0  0  0  0  0  0  0
   50.8360   35.4800   43.1510 H   0  0  0  0  0  0  0  0  0  0  0  0
   51.6860   33.4030   42.4090 H   0  0  0  0  0  0  0  0  0  0  0  0
   46.6430   34.6420   41.5780 C   0  0  0  0  0  0  0  0  0  0  0  0
   46.6280   35.6130   41.0010 H   0  0  0  0  0  0  0  0  0  0  0  0
   46.1510   33.9220   40.9490 H   0  0  0  0  0  0  0  0  0  0  0  0
   45.9400   34.9040   42.8870 C   0  0  0  0  0  0  0  0  0  0  0  0
   45.9870   33.9030   43.8430 C   0  0  0  0  0  0  0  0  0  0  0  0
   45.3510   34.1320   45.0620 C   0  0  0  0  0  0  0  0  0  0  0  0
   44.7250   35.3130   45.2400 N   0  0  0  0  0  0  0  0  0  0  0  0
   44.6970   36.2820   44.2690 C   0  0  0  0  0  0  0  0  0  0  0  0
   45.3030   36.0690   43.1040 N   0  0  0  0  0  0  0  0  0  0  0  0
   46.5100   32.9690   43.6410 H   0  0  0  0  0  0  0  0  0  0  0  0
   45.3770   33.3690   45.8160 H   0  0  0  0  0  0  0  0  0  0  0  0
   44.1770   37.2160   44.4680 H   0  0  0  0  0  0  0  0  0  0  0  0
   47.6550   32.1860   40.7050 O   0  0  0  0  0  0  0  0  0  0  0  0
   47.3250   31.4280   41.2910 H   0  0  0  0  0  0  0  0  0  0  0  0
   50.2500   31.4310   41.0650 O   0  0  0  0  0  0  0  0  0  0  0  0
   51.3310   31.2990   40.2170 C   0  0  2  0  0  0  0  0  0  0  0  0
   50.8440   31.4780   38.7700 C   0  0  0  0  0  0  0  0  0  0  0  0
   51.4170   32.3010   38.3450 H   0  0  0  0  0  0  0  0  0  0  0  0
   51.1280   30.1430   38.1500 C   0  0  0  0  0  0  0  0  0  0  0  0
   51.3570   30.2800   37.0860 H   0  0  0  0  0  0  0  0  0  0  0  0
   52.2320   29.6880   38.8680 O   0  0  0  0  0  0  0  0  0  0  0  0
   51.8930   29.8800   40.2030 C   0  0  0  0  0  0  0  0  0  0  0  0
   51.2060   29.1390   40.6090 H   0  0  0  0  0  0  0  0  0  0  0  0
  1  6  2  0  0  0  0
  1  2  1  0  0  0  0
  2  3  2  0  0  0  0
  3  4  1  0  0  0  0
  3  7  1  0  0  0  0
  4  8  1  0  0  0  0
  5  9  1  0  0  0  0
  5  4  2  0  0  0  0
  6  5  1  0  0  0  0
 10  2  1  0  0  0  0
 10 13  1  0  0  0  0
 11 10  1  0  0  0  0
 12 10  1  0  0  0  0
 13 18  2  0  0  0  0
 13 14  1  0  0  0  0
 14 15  2  0  0  0  0
 15 16  1  0  0  0  0
 15 20  1  0  0  0  0
 17 21  1  0  0  0  0
 17 16  2  0  0  0  0
 18 17  1  0  0  0  0
 19 14  1  0  0  0  0
 22 23  1  0  0  0  0
 22  1  1  0  0  0  0
 24  6  1  0  0  0  0
 25 24  1  1  0  0  0
 26 25  1  0  0  0  0
 27 26  1  0  0  0  0
 28 26  1  0  0  0  0
 28 30  1  0  0  0  0
 29 28  1  0  0  0  0
 30 31  1  0  0  0  0
 31 25  1  0  0  0  0
 31 32  1  0  0  0  0
M  END
>  <minimizedAffinity>
-4.84399176

>  <minimizedRMSD>
1.03713226

$$$$
