
     RDKit          3D

 30 31  0  0  0  0  0  0  0  0999 V2000
   44.5222   35.6231   44.7928 C   0  0  0  0  0  0  0  0  0  0  0  0
   44.9112   35.8283   43.4546 C   0  0  0  0  0  0  0  0  0  0  0  0
   45.9731   35.0124   42.9756 C   0  0  0  0  0  0  0  0  0  0  0  0
   46.5260   34.1042   43.8413 N   0  0  0  0  0  0  0  0  0  0  0  0
   46.1057   33.9627   45.1022 C   0  0  0  0  0  0  0  0  0  0  0  0
   45.1120   34.7136   45.5796 N   0  0  0  0  0  0  0  0  0  0  0  0
   46.6522   33.0560   45.9788 O   0  0  0  0  0  0  0  0  0  0  0  0
   46.9825   32.2982   48.4396 O   0  0  0  0  0  0  0  0  0  0  0  0
   45.9111   32.3995   47.3483 P   0  0  1  0  0  0  0  0  0  0  0  0
   44.6226   33.3506   47.8472 O   0  0  0  0  0  0  0  0  0  0  0  0
   45.3474   30.8391   47.0970 O   0  0  0  0  0  0  0  0  0  0  0  0
   45.1122   30.2413   48.3000 C   0  0  0  0  0  0  0  0  0  0  0  0
   43.7074   36.2326   45.1985 H   0  0  0  0  0  0  0  0  0  0  0  0
   44.4562   36.5453   42.8123 H   0  0  0  0  0  0  0  0  0  0  0  0
   46.3369   35.0996   41.9654 H   0  0  0  0  0  0  0  0  0  0  0  0
   44.8891   34.0669   48.4858 H   0  0  0  0  0  0  0  0  0  0  0  0
   45.9412   30.2400   49.0062 H   0  0  0  0  0  0  0  0  0  0  0  0
   44.2873   30.8179   48.7964 H   0  0  0  0  0  0  0  0  0  0  0  0
   44.5996   28.8274   48.1918 C   0  0  2  0  0  0  0  0  0  0  0  0
   45.5058   27.8117   48.8614 C   0  0  2  0  0  0  0  0  0  0  0  0
   45.2213   27.7321   49.9174 H   0  0  0  0  0  0  0  0  0  0  0  0
   45.1076   26.5694   48.0540 C   0  0  1  0  0  0  0  0  0  0  0  0
   45.8466   25.7528   48.1510 H   0  0  0  0  0  0  0  0  0  0  0  0
   45.0548   27.0439   46.7691 O   0  0  0  0  0  0  0  0  0  0  0  0
   44.6603   28.3597   46.7632 C   0  0  2  0  0  0  0  0  0  0  0  0
   45.3676   28.9916   46.1526 H   0  0  0  0  0  0  0  0  0  0  0  0
   43.5866   28.6706   48.5621 H   0  0  0  0  0  0  0  0  0  0  0  0
   46.5714   27.9861   48.6840 H   0  0  0  0  0  0  0  0  0  0  0  0
   44.1235   26.2338   48.4463 H   0  0  0  0  0  0  0  0  0  0  0  0
   43.6785   28.4327   46.2454 H   0  0  0  0  0  0  0  0  0  0  0  0
  1  6  2  0
  2  1  1  0
  3  2  2  0
  3  4  1  0
  4  5  2  0
  5  6  1  0
  5  7  1  0
  9  7  1  6
  9 10  1  0
  9  8  2  0
 11  9  1  0
 11 12  1  0
  1 13  1  0
  2 14  1  0
  3 15  1  0
 10 16  1  0
 12 17  1  0
 12 18  1  0
 19 20  1  0
 20 21  1  1
 20 22  1  0
 22 23  1  6
 22 24  1  0
 24 25  1  0
 25 26  1  6
 25 19  1  0
 19 27  1  1
 20 28  1  0
 22 29  1  0
 25 30  1  0
 12 19  1  0
M  ISO  8  13  14  14  14  15  14  16   3  17   8  18   8  21  15  23  15
M  ISO  1  26  15
M  END
>  <DihAtoms>  (1) 
10,11,18,19

>  <DihDeg>  (1) 
-59.999488164094046

$$$$
