
 OpenBabel03252501463D

 22 23  0  0  1  0  0  0  0  0999 V2000
   44.4870   35.5900   43.9590 C   0  0  0  0  0  0  0  0  0  0  0  0
   44.3430   34.8130   42.8130 C   0  0  0  0  0  0  0  0  0  0  0  0
   44.7940   33.5060   42.8480 C   0  0  0  0  0  0  0  0  0  0  0  0
   45.3660   33.0220   44.0000 N   0  0  0  0  0  0  0  0  0  0  0  0
   45.4880   33.8100   45.0960 C   0  0  0  0  0  0  0  0  0  0  0  0
   45.0490   35.0800   45.0660 N   0  0  0  0  0  0  0  0  0  0  0  0
   44.1320   36.6110   43.9280 H   0  0  0  0  0  0  0  0  0  0  0  0
   44.7010   32.8790   41.9850 H   0  0  0  0  0  0  0  0  0  0  0  0
   46.0900   33.3380   46.3490 C   0  0  2  0  0  3  0  0  0  0  0  0
   46.6160   31.9300   46.0930 C   0  0  0  0  0  3  0  0  0  0  0  0
   46.3130   31.5310   45.1180 H   0  0  0  0  0  0  0  0  0  0  0  0
   45.9660   31.1520   47.2140 C   0  0  0  0  0  3  0  0  0  0  0  0
   46.7660   30.4860   47.6260 H   0  0  0  0  0  0  0  0  0  0  0  0
   45.5570   32.0860   48.1760 O   0  0  0  0  0  0  0  0  0  0  0  0
   45.1140   33.2070   47.4840 C   0  0  0  0  0  3  0  0  0  0  0  0
   45.1390   34.0580   48.1990 H   0  0  0  0  0  0  0  0  0  0  0  0
   43.7400   35.3320   41.6020 C   0  0  0  0  0  3  0  0  0  0  0  0
   42.9640   34.6760   40.7660 C   0  0  0  0  0  3  0  0  0  0  0  0
   42.3860   35.3020   39.5350 C   0  0  0  0  0  0  0  0  0  0  0  0
   42.2140   34.4470   38.8260 H   0  0  0  0  0  0  0  0  0  0  0  0
   41.4640   35.8600   39.7420 H   0  0  0  0  0  0  0  0  0  0  0  0
   43.1610   35.9420   39.0300 H   0  0  0  0  0  0  0  0  0  0  0  0
  1  6  1  0  0  0  0
  2  3  1  0  0  0  0
  2  1  2  0  0  0  0
  3  4  2  0  0  0  0
  4  5  1  0  0  0  0
  6  5  2  0  0  0  0
  7  1  1  0  0  0  0
  8  3  1  0  0  0  0
  9  5  1  6  0  0  0
  9 15  1  0  0  0  0
 10  9  1  0  0  0  0
 10 12  1  0  0  0  0
 11 10  1  0  0  0  0
 12 13  1  0  0  0  0
 12 14  1  0  0  0  0
 15 14  1  0  0  0  0
 15 16  1  0  0  0  0
 17  2  1  0  0  0  0
 18 17  2  0  0  0  0
 19 21  1  0  0  0  0
 19 18  1  0  0  0  0
 20 19  1  0  0  0  0
 22 19  1  0  0  0  0
M  END
>  <minimizedAffinity>
-4.1024375

>  <minimizedRMSD>
0.774517596

$$$$
