
 OpenBabel03242516363D

 43 46  0  0  1  0  0  0  0  0999 V2000
   37.4110   30.0060   40.7600 O   0  0  0  0  0  0  0  0  0  0  0  0
   37.6320   32.3420   40.4520 C   0  0  2  0  0  0  0  0  0  0  0  0
   38.7200   31.9670   39.4100 C   0  0  1  0  0  0  0  0  0  0  0  0
   37.9310   31.8660   38.3020 O   0  0  0  0  0  0  0  0  0  0  0  0
   36.8850   31.0120   38.7090 C   0  0  0  0  0  0  0  0  0  0  0  0
   36.7910   31.1040   40.2510 C   0  0  1  0  0  0  0  0  0  0  0  0
   38.0530   32.4240   41.4540 H   0  0  0  0  0  0  0  0  0  0  0  0
   39.1320   31.0310   39.8270 H   0  0  0  0  0  0  0  0  0  0  0  0
   37.0940   29.9660   38.3960 H   0  0  0  0  0  0  0  0  0  0  0  0
   35.9580   31.4320   38.3040 H   0  0  0  0  0  0  0  0  0  0  0  0
   35.7620   31.2670   40.6070 H   0  0  0  0  0  0  0  0  0  0  0  0
   41.6550   34.2510   38.6180 C   0  0  0  0  0  0  0  0  0  0  0  0
   40.8160   33.1450   38.4660 C   0  0  0  0  0  0  0  0  0  0  0  0
   39.7610   33.0010   39.3480 C   0  0  0  0  0  0  0  0  0  0  0  0
   39.6130   33.9640   40.3220 N   0  0  0  0  0  0  0  0  0  0  0  0
   40.4400   35.0170   40.4400 C   0  0  0  0  0  0  0  0  0  0  0  0
   41.4670   35.1570   39.5800 N   0  0  0  0  0  0  0  0  0  0  0  0
   42.4570   34.2930   37.8910 H   0  0  0  0  0  0  0  0  0  0  0  0
   40.8610   32.3640   37.7470 H   0  0  0  0  0  0  0  0  0  0  0  0
   40.2950   35.7560   41.2150 H   0  0  0  0  0  0  0  0  0  0  0  0
   36.8870   33.3990   40.0200 O   0  0  0  0  0  0  0  0  0  0  0  0
   36.9830   34.2050   40.6050 H   0  0  0  0  0  0  0  0  0  0  0  0
   36.6160   28.1400   41.9580 C   0  0  1  0  0  0  0  0  0  0  0  0
   37.0940   29.6770   42.0750 C   0  0  1  0  0  0  0  0  0  0  0  0
   38.2270   29.4610   42.7680 O   0  0  0  0  0  0  0  0  0  0  0  0
   38.9080   28.5980   41.8770 C   0  0  0  0  0  0  0  0  0  0  0  0
   37.9470   27.4610   41.8000 C   0  0  1  0  0  0  0  0  0  0  0  0
   35.9130   28.0490   41.1540 H   0  0  0  0  0  0  0  0  0  0  0  0
   36.1840   30.1140   42.4720 H   0  0  0  0  0  0  0  0  0  0  0  0
   39.9100   28.3490   42.2350 H   0  0  0  0  0  0  0  0  0  0  0  0
   39.0450   29.0330   40.8740 H   0  0  0  0  0  0  0  0  0  0  0  0
   37.9200   26.9460   40.8040 H   0  0  0  0  0  0  0  0  0  0  0  0
   36.1490   27.8260   43.2380 O   0  0  0  0  0  0  0  0  0  0  0  0
   35.1700   27.6820   43.1940 H   0  0  0  0  0  0  0  0  0  0  0  0
   38.1770   26.5250   42.7450 O   0  0  0  0  0  0  0  0  0  0  0  0
   38.2780   25.2250   42.3960 C   0  0  1  0  0  3  0  0  0  0  0  0
   36.9720   24.5290   42.0630 C   0  0  0  0  0  3  0  0  0  0  0  0
   36.6750   23.8120   42.8560 H   0  0  0  0  0  0  0  0  0  0  0  0
   37.3790   23.6830   40.8550 C   0  0  0  0  0  3  0  0  0  0  0  0
   37.0950   22.6170   40.9720 H   0  0  0  0  0  0  0  0  0  0  0  0
   38.7500   23.8650   40.6880 O   0  0  0  0  0  0  0  0  0  0  0  0
   38.9280   25.1920   41.0060 C   0  0  0  0  0  3  0  0  0  0  0  0
   39.9600   25.5340   41.0260 H   0  0  0  0  0  0  0  0  0  0  0  0
  1 24  1  0  0  0  0
  2  7  1  1  0  0  0
  3  8  1  1  0  0  0
  3  2  1  0  0  0  0
  4  5  1  0  0  0  0
  4  3  1  0  0  0  0
  5  6  1  0  0  0  0
  6  2  1  0  0  0  0
  6 11  1  1  0  0  0
  6  1  1  0  0  0  0
  9  5  1  0  0  0  0
 10  5  1  0  0  0  0
 12 17  1  0  0  0  0
 13 12  2  0  0  0  0
 13 14  1  0  0  0  0
 14  3  1  0  0  0  0
 14 15  2  0  0  0  0
 15 16  1  0  0  0  0
 16 20  1  0  0  0  0
 17 16  2  0  0  0  0
 18 12  1  0  0  0  0
 19 13  1  0  0  0  0
 21  2  1  0  0  0  0
 21 22  1  0  0  0  0
 23 28  1  6  0  0  0
 23 24  1  0  0  0  0
 23 33  1  0  0  0  0
 24 29  1  1  0  0  0
 24 25  1  0  0  0  0
 26 30  1  0  0  0  0
 26 25  1  0  0  0  0
 27 32  1  6  0  0  0
 27 26  1  0  0  0  0
 27 23  1  0  0  0  0
 27 35  1  0  0  0  0
 31 26  1  0  0  0  0
 34 33  1  0  0  0  0
 36 35  1  6  0  0  0
 37 36  1  0  0  0  0
 37 38  1  0  0  0  0
 39 40  1  0  0  0  0
 39 37  1  0  0  0  0
 41 39  1  0  0  0  0
 41 42  1  0  0  0  0
 42 43  1  0  0  0  0
 42 36  1  0  0  0  0
M  END
>  <minimizedAffinity>
-6.31410265

$$$$

 OpenBabel03242516363D

 43 46  0  0  1  0  0  0  0  0999 V2000
   37.4480   29.8410   41.4840 O   0  0  0  0  0  0  0  0  0  0  0  0
   37.7130   32.0540   40.6880 C   0  0  2  0  0  0  0  0  0  0  0  0
   38.5840   31.4080   39.5760 C   0  0  1  0  0  0  0  0  0  0  0  0
   37.6080   31.1620   38.6550 O   0  0  0  0  0  0  0  0  0  0  0  0
   36.6150   30.4830   39.3890 C   0  0  0  0  0  0  0  0  0  0  0  0
   36.7970   30.8680   40.8760 C   0  0  1  0  0  0  0  0  0  0  0  0
   38.3070   32.2890   41.5710 H   0  0  0  0  0  0  0  0  0  0  0  0
   39.0210   30.5380   40.0970 H   0  0  0  0  0  0  0  0  0  0  0  0
   36.7190   29.3830   39.2590 H   0  0  0  0  0  0  0  0  0  0  0  0
   35.6500   30.8900   39.0660 H   0  0  0  0  0  0  0  0  0  0  0  0
   35.8550   31.1730   41.3560 H   0  0  0  0  0  0  0  0  0  0  0  0
   41.3940   33.2990   37.8490 C   0  0  0  0  0  0  0  0  0  0  0  0
   40.4810   32.2600   38.0450 C   0  0  0  0  0  0  0  0  0  0  0  0
   39.6420   32.3290   39.1420 C   0  0  0  0  0  0  0  0  0  0  0  0
   39.7680   33.4230   39.9680 N   0  0  0  0  0  0  0  0  0  0  0  0
   40.6580   34.4060   39.7490 C   0  0  0  0  0  0  0  0  0  0  0  0
   41.4750   34.3380   38.6810 N   0  0  0  0  0  0  0  0  0  0  0  0
   42.0160   33.1720   36.9710 H   0  0  0  0  0  0  0  0  0  0  0  0
   40.3220   31.3880   37.4590 H   0  0  0  0  0  0  0  0  0  0  0  0
   40.7300   35.2520   40.4180 H   0  0  0  0  0  0  0  0  0  0  0  0
   36.9510   33.0660   40.1840 O   0  0  0  0  0  0  0  0  0  0  0  0
   37.1830   33.9570   40.5740 H   0  0  0  0  0  0  0  0  0  0  0  0
   38.3020   27.6680   41.1740 C   0  0  1  0  0  0  0  0  0  0  0  0
   36.9610   28.5640   41.2210 C   0  0  1  0  0  0  0  0  0  0  0  0
   36.4360   28.0450   42.3450 O   0  0  0  0  0  0  0  0  0  0  0  0
   37.4770   28.3210   43.2620 C   0  0  0  0  0  0  0  0  0  0  0  0
   38.6040   27.5680   42.6420 C   0  0  1  0  0  0  0  0  0  0  0  0
   39.0270   28.1490   40.5490 H   0  0  0  0  0  0  0  0  0  0  0  0
   36.5970   28.3880   40.2140 H   0  0  0  0  0  0  0  0  0  0  0  0
   37.2130   28.0280   44.2820 H   0  0  0  0  0  0  0  0  0  0  0  0
   37.7340   29.3930   43.3130 H   0  0  0  0  0  0  0  0  0  0  0  0
   39.6110   28.0400   42.7890 H   0  0  0  0  0  0  0  0  0  0  0  0
   37.8590   26.4060   40.7640 O   0  0  0  0  0  0  0  0  0  0  0  0
   38.2220   26.2200   39.8600 H   0  0  0  0  0  0  0  0  0  0  0  0
   38.6760   26.2930   43.0800 O   0  0  0  0  0  0  0  0  0  0  0  0
   39.7940   25.8530   43.6950 C   0  0  1  0  0  3  0  0  0  0  0  0
   40.6900   24.9530   42.8670 C   0  0  0  0  0  3  0  0  0  0  0  0
   40.6460   23.8990   43.2110 H   0  0  0  0  0  0  0  0  0  0  0  0
   42.0780   25.4680   43.2530 C   0  0  0  0  0  3  0  0  0  0  0  0
   42.7560   24.6520   43.5770 H   0  0  0  0  0  0  0  0  0  0  0  0
   41.8810   26.4350   44.2370 O   0  0  0  0  0  0  0  0  0  0  0  0
   40.7280   27.0640   43.8290 C   0  0  0  0  0  3  0  0  0  0  0  0
   40.3360   27.8130   44.5120 H   0  0  0  0  0  0  0  0  0  0  0  0
  2  6  1  0  0  0  0
  2  7  1  1  0  0  0
  3  8  1  1  0  0  0
  3  2  1  0  0  0  0
  4  5  1  0  0  0  0
  4  3  1  0  0  0  0
  5  6  1  0  0  0  0
  6 11  1  1  0  0  0
  6  1  1  0  0  0  0
  9  5  1  0  0  0  0
 10  5  1  0  0  0  0
 12 13  2  0  0  0  0
 12 17  1  0  0  0  0
 13 14  1  0  0  0  0
 14  3  1  0  0  0  0
 14 15  2  0  0  0  0
 16 15  1  0  0  0  0
 16 20  1  0  0  0  0
 17 16  2  0  0  0  0
 18 12  1  0  0  0  0
 19 13  1  0  0  0  0
 21 22  1  0  0  0  0
 21  2  1  0  0  0  0
 23 28  1  6  0  0  0
 23 24  1  0  0  0  0
 23 27  1  0  0  0  0
 24 29  1  6  0  0  0
 24  1  1  0  0  0  0
 24 25  1  0  0  0  0
 25 26  1  0  0  0  0
 26 31  1  0  0  0  0
 26 30  1  0  0  0  0
 27 32  1  1  0  0  0
 27 35  1  0  0  0  0
 27 26  1  0  0  0  0
 33 23  1  0  0  0  0
 34 33  1  0  0  0  0
 36 35  1  6  0  0  0
 36 42  1  0  0  0  0
 37 38  1  0  0  0  0
 37 39  1  0  0  0  0
 37 36  1  0  0  0  0
 39 40  1  0  0  0  0
 39 41  1  0  0  0  0
 42 41  1  0  0  0  0
 42 43  1  0  0  0  0
M  END
>  <minimizedAffinity>
-5.93243361

$$$$

 OpenBabel03242516363D

 43 46  0  0  1  0  0  0  0  0999 V2000
   37.8070   30.1210   40.6390 O   0  0  0  0  0  0  0  0  0  0  0  0
   36.8050   28.2760   41.7300 C   0  0  2  0  0  0  0  0  0  0  0  0
   38.2340   27.6680   41.7260 C   0  0  1  0  0  0  0  0  0  0  0  0
   38.6830   28.1650   42.9150 O   0  0  0  0  0  0  0  0  0  0  0  0
   38.3990   29.5430   42.8320 C   0  0  0  0  0  0  0  0  0  0  0  0
   37.2500   29.7170   41.8110 C   0  0  1  0  0  0  0  0  0  0  0  0
   36.2690   28.0370   40.8110 H   0  0  0  0  0  0  0  0  0  0  0  0
   38.6670   28.0920   40.8030 H   0  0  0  0  0  0  0  0  0  0  0  0
   39.3000   30.1050   42.5000 H   0  0  0  0  0  0  0  0  0  0  0  0
   38.0100   29.8450   43.8100 H   0  0  0  0  0  0  0  0  0  0  0  0
   36.4370   30.3570   42.1880 H   0  0  0  0  0  0  0  0  0  0  0  0
   38.7700   23.9070   41.8760 C   0  0  0  0  0  0  0  0  0  0  0  0
   39.0890   25.2540   42.0610 C   0  0  0  0  0  0  0  0  0  0  0  0
   38.1770   26.2030   41.6380 C   0  0  0  0  0  0  0  0  0  0  0  0
   37.0120   25.7490   41.0590 N   0  0  0  0  0  0  0  0  0  0  0  0
   36.7370   24.4440   40.8960 C   0  0  0  0  0  0  0  0  0  0  0  0
   37.6260   23.5200   41.3090 N   0  0  0  0  0  0  0  0  0  0  0  0
   39.5340   23.2260   42.2320 H   0  0  0  0  0  0  0  0  0  0  0  0
   39.9580   25.6830   42.4950 H   0  0  0  0  0  0  0  0  0  0  0  0
   35.8130   24.1220   40.4390 H   0  0  0  0  0  0  0  0  0  0  0  0
   36.1600   27.9950   42.8980 O   0  0  0  0  0  0  0  0  0  0  0  0
   35.3500   27.4220   42.7650 H   0  0  0  0  0  0  0  0  0  0  0  0
   37.8970   32.4740   40.6720 C   0  0  1  0  0  0  0  0  0  0  0  0
   37.1860   31.1910   40.0010 C   0  0  1  0  0  0  0  0  0  0  0  0
   37.6940   31.3300   38.7630 O   0  0  0  0  0  0  0  0  0  0  0  0
   39.0790   31.2750   39.0500 C   0  0  0  0  0  0  0  0  0  0  0  0
   39.2220   32.4430   39.9650 C   0  0  1  0  0  0  0  0  0  0  0  0
   37.8980   32.3600   41.7370 H   0  0  0  0  0  0  0  0  0  0  0  0
   36.1590   31.3890   40.2880 H   0  0  0  0  0  0  0  0  0  0  0  0
   39.6870   31.3050   38.1420 H   0  0  0  0  0  0  0  0  0  0  0  0
   39.3740   30.3540   39.5800 H   0  0  0  0  0  0  0  0  0  0  0  0
   40.0000   32.3130   40.7620 H   0  0  0  0  0  0  0  0  0  0  0  0
   37.1890   33.5670   40.1600 O   0  0  0  0  0  0  0  0  0  0  0  0
   36.6890   33.9980   40.9000 H   0  0  0  0  0  0  0  0  0  0  0  0
   39.4940   33.5880   39.3030 O   0  0  0  0  0  0  0  0  0  0  0  0
   40.6650   34.2250   39.5100 C   0  0  1  0  0  3  0  0  0  0  0  0
   41.5230   33.6760   40.6330 C   0  0  0  0  0  3  0  0  0  0  0  0
   41.5330   34.3540   41.5120 H   0  0  0  0  0  0  0  0  0  0  0  0
   42.9210   33.7590   40.0170 C   0  0  0  0  0  3  0  0  0  0  0  0
   43.6430   34.2830   40.6770 H   0  0  0  0  0  0  0  0  0  0  0  0
   42.7700   34.3780   38.7770 O   0  0  0  0  0  0  0  0  0  0  0  0
   41.5730   33.8740   38.3220 C   0  0  0  0  0  3  0  0  0  0  0  0
   41.2110   34.2980   37.3890 H   0  0  0  0  0  0  0  0  0  0  0  0
  1  6  1  0  0  0  0
  2  7  1  6  0  0  0
  2  6  1  0  0  0  0
  2 21  1  0  0  0  0
  3  8  1  6  0  0  0
  3  2  1  0  0  0  0
  3  4  1  0  0  0  0
  5  4  1  0  0  0  0
  5 10  1  0  0  0  0
  6 11  1  1  0  0  0
  6  5  1  0  0  0  0
  9  5  1  0  0  0  0
 12 13  1  0  0  0  0
 12 18  1  0  0  0  0
 13 19  1  0  0  0  0
 14  3  1  0  0  0  0
 14 13  2  0  0  0  0
 15 14  1  0  0  0  0
 16 15  2  0  0  0  0
 16 17  1  0  0  0  0
 17 12  2  0  0  0  0
 20 16  1  0  0  0  0
 22 21  1  0  0  0  0
 23 28  1  1  0  0  0
 24 29  1  1  0  0  0
 24  1  1  0  0  0  0
 24 23  1  0  0  0  0
 25 26  1  0  0  0  0
 25 24  1  0  0  0  0
 26 31  1  0  0  0  0
 26 27  1  0  0  0  0
 27 23  1  0  0  0  0
 27 32  1  1  0  0  0
 30 26  1  0  0  0  0
 33 23  1  0  0  0  0
 33 34  1  0  0  0  0
 35 27  1  0  0  0  0
 36 35  1  6  0  0  0
 36 37  1  0  0  0  0
 37 38  1  0  0  0  0
 39 37  1  0  0  0  0
 39 40  1  0  0  0  0
 41 39  1  0  0  0  0
 42 41  1  0  0  0  0
 42 36  1  0  0  0  0
 43 42  1  0  0  0  0
M  END
>  <minimizedAffinity>
-5.78427267

$$$$

 OpenBabel03242516363D

 43 46  0  0  1  0  0  0  0  0999 V2000
   38.3090   30.6490   40.7900 O   0  0  0  0  0  0  0  0  0  0  0  0
   37.0220   28.9740   41.8600 C   0  0  2  0  0  0  0  0  0  0  0  0
   38.0790   27.9880   41.2910 C   0  0  1  0  0  0  0  0  0  0  0  0
   38.9690   28.0060   42.3250 O   0  0  0  0  0  0  0  0  0  0  0  0
   39.1960   29.3800   42.5500 C   0  0  0  0  0  0  0  0  0  0  0  0
   37.9660   30.1440   42.0060 C   0  0  1  0  0  0  0  0  0  0  0  0
   36.2190   29.1500   41.1450 H   0  0  0  0  0  0  0  0  0  0  0  0
   38.3820   28.4840   40.3520 H   0  0  0  0  0  0  0  0  0  0  0  0
   40.1200   29.7110   42.0280 H   0  0  0  0  0  0  0  0  0  0  0  0
   39.2100   29.5230   43.6360 H   0  0  0  0  0  0  0  0  0  0  0  0
   37.5690   30.8800   42.7220 H   0  0  0  0  0  0  0  0  0  0  0  0
   36.4410   24.8850   39.8260 C   0  0  0  0  0  0  0  0  0  0  0  0
   36.9360   26.1910   39.8300 C   0  0  0  0  0  0  0  0  0  0  0  0
   37.4720   26.6810   41.0060 C   0  0  0  0  0  0  0  0  0  0  0  0
   37.4780   25.8420   42.0980 N   0  0  0  0  0  0  0  0  0  0  0  0
   36.9930   24.5890   42.0600 C   0  0  0  0  0  0  0  0  0  0  0  0
   36.4720   24.1120   40.9140 N   0  0  0  0  0  0  0  0  0  0  0  0
   36.0380   24.5750   38.8700 H   0  0  0  0  0  0  0  0  0  0  0  0
   36.9690   26.8970   39.0370 H   0  0  0  0  0  0  0  0  0  0  0  0
   37.0140   23.9560   42.9360 H   0  0  0  0  0  0  0  0  0  0  0  0
   36.6450   28.6110   43.1180 O   0  0  0  0  0  0  0  0  0  0  0  0
   35.6780   28.3610   43.1760 H   0  0  0  0  0  0  0  0  0  0  0  0
   38.8490   32.9310   41.0020 C   0  0  1  0  0  0  0  0  0  0  0  0
   37.7520   31.8800   40.4580 C   0  0  1  0  0  0  0  0  0  0  0  0
   37.9220   32.1070   39.1430 O   0  0  0  0  0  0  0  0  0  0  0  0
   39.2950   31.7970   39.0070 C   0  0  0  0  0  0  0  0  0  0  0  0
   39.9010   32.7900   39.9380 C   0  0  1  0  0  0  0  0  0  0  0  0
   39.1190   32.6720   42.0060 H   0  0  0  0  0  0  0  0  0  0  0  0
   36.8990   32.1960   41.0480 H   0  0  0  0  0  0  0  0  0  0  0  0
   39.6280   31.8560   37.9670 H   0  0  0  0  0  0  0  0  0  0  0  0
   39.5430   30.7760   39.3440 H   0  0  0  0  0  0  0  0  0  0  0  0
   40.8270   32.4300   40.4590 H   0  0  0  0  0  0  0  0  0  0  0  0
   38.2500   34.1810   40.8170 O   0  0  0  0  0  0  0  0  0  0  0  0
   38.0610   34.5790   41.7050 H   0  0  0  0  0  0  0  0  0  0  0  0
   40.1950   33.9580   39.3290 O   0  0  0  0  0  0  0  0  0  0  0  0
   41.4640   34.4170   39.3270 C   0  0  1  0  0  3  0  0  0  0  0  0
   42.4480   33.6360   40.1760 C   0  0  0  0  0  3  0  0  0  0  0  0
   42.7390   34.1970   41.0880 H   0  0  0  0  0  0  0  0  0  0  0  0
   43.6830   33.6210   39.2740 C   0  0  0  0  0  3  0  0  0  0  0  0
   44.5950   33.9690   39.8010 H   0  0  0  0  0  0  0  0  0  0  0  0
   43.3690   34.3980   38.1600 O   0  0  0  0  0  0  0  0  0  0  0  0
   42.0430   34.1040   37.9400 C   0  0  0  0  0  3  0  0  0  0  0  0
   41.5600   34.6780   37.1530 H   0  0  0  0  0  0  0  0  0  0  0  0
  1  6  1  0  0  0  0
  2  7  1  6  0  0  0
  2  6  1  0  0  0  0
  2 21  1  0  0  0  0
  3  8  1  6  0  0  0
  3  2  1  0  0  0  0
  3  4  1  0  0  0  0
  4  5  1  0  0  0  0
  5 10  1  0  0  0  0
  6  5  1  0  0  0  0
  6 11  1  1  0  0  0
  9  5  1  0  0  0  0
 12 13  2  0  0  0  0
 12 17  1  0  0  0  0
 13 14  1  0  0  0  0
 14  3  1  0  0  0  0
 14 15  2  0  0  0  0
 16 15  1  0  0  0  0
 16 20  1  0  0  0  0
 17 16  2  0  0  0  0
 18 12  1  0  0  0  0
 19 13  1  0  0  0  0
 21 22  1  0  0  0  0
 23 28  1  1  0  0  0
 24  1  1  0  0  0  0
 24 23  1  0  0  0  0
 24 29  1  1  0  0  0
 25 24  1  0  0  0  0
 26 25  1  0  0  0  0
 26 31  1  0  0  0  0
 26 27  1  0  0  0  0
 27 32  1  1  0  0  0
 27 23  1  0  0  0  0
 30 26  1  0  0  0  0
 33 23  1  0  0  0  0
 33 34  1  0  0  0  0
 35 27  1  0  0  0  0
 36 35  1  6  0  0  0
 36 37  1  0  0  0  0
 37 38  1  0  0  0  0
 39 40  1  0  0  0  0
 39 37  1  0  0  0  0
 41 39  1  0  0  0  0
 42 41  1  0  0  0  0
 42 36  1  0  0  0  0
 43 42  1  0  0  0  0
M  END
>  <minimizedAffinity>
-5.73971748

$$$$

 OpenBabel03242516363D

 43 46  0  0  1  0  0  0  0  0999 V2000
   37.4080   30.0080   39.5130 O   0  0  0  0  0  0  0  0  0  0  0  0
   37.2230   27.6550   39.6850 C   0  0  2  0  0  0  0  0  0  0  0  0
   37.4720   27.8810   41.2020 C   0  0  1  0  0  0  0  0  0  0  0  0
   36.1810   28.0420   41.6100 O   0  0  0  0  0  0  0  0  0  0  0  0
   35.6680   29.0170   40.7300 C   0  0  0  0  0  0  0  0  0  0  0  0
   36.5280   28.9740   39.4450 C   0  0  1  0  0  0  0  0  0  0  0  0
   38.1610   27.5520   39.1400 H   0  0  0  0  0  0  0  0  0  0  0  0
   38.1200   28.7750   41.2030 H   0  0  0  0  0  0  0  0  0  0  0  0
   35.7180   30.0250   41.1960 H   0  0  0  0  0  0  0  0  0  0  0  0
   34.6590   28.6930   40.4530 H   0  0  0  0  0  0  0  0  0  0  0  0
   35.9220   28.9360   38.5270 H   0  0  0  0  0  0  0  0  0  0  0  0
   39.8590   25.4450   42.8830 C   0  0  0  0  0  0  0  0  0  0  0  0
   39.4320   26.6730   42.3720 C   0  0  0  0  0  0  0  0  0  0  0  0
   38.1800   26.7360   41.7900 C   0  0  0  0  0  0  0  0  0  0  0  0
   37.4390   25.5760   41.7530 N   0  0  0  0  0  0  0  0  0  0  0  0
   37.8810   24.4100   42.2550 C   0  0  0  0  0  0  0  0  0  0  0  0
   39.1000   24.3490   42.8220 N   0  0  0  0  0  0  0  0  0  0  0  0
   40.8500   25.4770   43.3210 H   0  0  0  0  0  0  0  0  0  0  0  0
   39.9390   27.6070   42.3610 H   0  0  0  0  0  0  0  0  0  0  0  0
   37.2720   23.5170   42.2110 H   0  0  0  0  0  0  0  0  0  0  0  0
   36.2950   26.6770   39.4850 O   0  0  0  0  0  0  0  0  0  0  0  0
   36.6690   25.8800   39.0090 H   0  0  0  0  0  0  0  0  0  0  0  0
   37.5900   32.2270   40.2820 C   0  0  1  0  0  0  0  0  0  0  0  0
   36.9070   31.2640   39.1820 C   0  0  1  0  0  0  0  0  0  0  0  0
   37.5560   31.7350   38.1020 O   0  0  0  0  0  0  0  0  0  0  0  0
   38.8970   31.4940   38.4870 C   0  0  0  0  0  0  0  0  0  0  0  0
   38.9840   32.3140   39.7280 C   0  0  1  0  0  0  0  0  0  0  0  0
   37.4680   31.7940   41.2550 H   0  0  0  0  0  0  0  0  0  0  0  0
   35.8630   31.4410   39.4180 H   0  0  0  0  0  0  0  0  0  0  0  0
   39.6030   31.7540   37.6950 H   0  0  0  0  0  0  0  0  0  0  0  0
   39.0920   30.4360   38.7300 H   0  0  0  0  0  0  0  0  0  0  0  0
   39.6610   31.8910   40.5150 H   0  0  0  0  0  0  0  0  0  0  0  0
   36.9900   33.4720   40.0700 O   0  0  0  0  0  0  0  0  0  0  0  0
   36.4290   33.6930   40.8560 H   0  0  0  0  0  0  0  0  0  0  0  0
   39.3750   33.5830   39.4830 O   0  0  0  0  0  0  0  0  0  0  0  0
   40.6780   33.9180   39.5860 C   0  0  1  0  0  3  0  0  0  0  0  0
   40.9610   35.2860   40.1750 C   0  0  0  0  0  3  0  0  0  0  0  0
   41.3190   36.0000   39.4040 H   0  0  0  0  0  0  0  0  0  0  0  0
   42.1670   34.9880   41.0690 C   0  0  0  0  0  3  0  0  0  0  0  0
   43.0130   35.6790   40.8800 H   0  0  0  0  0  0  0  0  0  0  0  0
   42.4970   33.6520   40.8550 O   0  0  0  0  0  0  0  0  0  0  0  0
   41.2690   33.0480   40.7040 C   0  0  0  0  0  3  0  0  0  0  0  0
   41.2950   31.9950   40.4360 H   0  0  0  0  0  0  0  0  0  0  0  0
  2  7  1  6  0  0  0
  2  3  1  0  0  0  0
  3  8  1  1  0  0  0
  3  4  1  0  0  0  0
  3 14  1  0  0  0  0
  5  9  1  0  0  0  0
  5  4  1  0  0  0  0
  6 11  1  6  0  0  0
  6  1  1  0  0  0  0
  6  2  1  0  0  0  0
  6  5  1  0  0  0  0
 10  5  1  0  0  0  0
 12 18  1  0  0  0  0
 13 12  2  0  0  0  0
 14 13  1  0  0  0  0
 15 14  2  0  0  0  0
 15 16  1  0  0  0  0
 16 17  2  0  0  0  0
 17 12  1  0  0  0  0
 19 13  1  0  0  0  0
 20 16  1  0  0  0  0
 21  2  1  0  0  0  0
 22 21  1  0  0  0  0
 23 28  1  1  0  0  0
 24 29  1  6  0  0  0
 24  1  1  0  0  0  0
 24 23  1  0  0  0  0
 25 26  1  0  0  0  0
 25 24  1  0  0  0  0
 26 31  1  0  0  0  0
 26 27  1  0  0  0  0
 27 23  1  0  0  0  0
 27 32  1  1  0  0  0
 30 26  1  0  0  0  0
 33 23  1  0  0  0  0
 33 34  1  0  0  0  0
 35 27  1  0  0  0  0
 36 35  1  1  0  0  0
 36 37  1  0  0  0  0
 36 42  1  0  0  0  0
 37 39  1  0  0  0  0
 38 37  1  0  0  0  0
 40 39  1  0  0  0  0
 41 39  1  0  0  0  0
 42 41  1  0  0  0  0
 43 42  1  0  0  0  0
M  END
>  <minimizedAffinity>
-5.63857508

$$$$

 OpenBabel03242516363D

 43 46  0  0  1  0  0  0  0  0999 V2000
   37.4030   29.8680   41.1770 O   0  0  0  0  0  0  0  0  0  0  0  0
   37.6860   32.1970   40.8670 C   0  0  2  0  0  0  0  0  0  0  0  0
   38.9930   31.8040   40.1260 C   0  0  1  0  0  0  0  0  0  0  0  0
   38.4910   31.6680   38.8640 O   0  0  0  0  0  0  0  0  0  0  0  0
   37.3800   30.8160   39.0340 C   0  0  0  0  0  0  0  0  0  0  0  0
   36.9200   30.9470   40.5050 C   0  0  1  0  0  0  0  0  0  0  0  0
   37.8550   32.3080   41.9390 H   0  0  0  0  0  0  0  0  0  0  0  0
   39.2950   30.8830   40.6540 H   0  0  0  0  0  0  0  0  0  0  0  0
   37.6600   29.7640   38.8080 H   0  0  0  0  0  0  0  0  0  0  0  0
   36.5770   31.2180   38.4080 H   0  0  0  0  0  0  0  0  0  0  0  0
   35.8360   31.1100   40.6000 H   0  0  0  0  0  0  0  0  0  0  0  0
   42.0620   33.9230   40.8650 C   0  0  0  0  0  0  0  0  0  0  0  0
   41.2680   32.7740   40.8700 C   0  0  0  0  0  0  0  0  0  0  0  0
   40.0160   32.8460   40.2870 C   0  0  0  0  0  0  0  0  0  0  0  0
   39.6390   34.0520   39.7410 N   0  0  0  0  0  0  0  0  0  0  0  0
   40.4290   35.1400   39.7550 C   0  0  0  0  0  0  0  0  0  0  0  0
   41.6480   35.0690   40.3220 N   0  0  0  0  0  0  0  0  0  0  0  0
   43.0260   33.7870   41.3410 H   0  0  0  0  0  0  0  0  0  0  0  0
   41.4830   31.8120   41.2660 H   0  0  0  0  0  0  0  0  0  0  0  0
   40.1020   36.0720   39.3170 H   0  0  0  0  0  0  0  0  0  0  0  0
   37.0640   33.2360   40.2420 O   0  0  0  0  0  0  0  0  0  0  0  0
   37.0160   34.0580   40.8100 H   0  0  0  0  0  0  0  0  0  0  0  0
   38.0580   27.6310   40.8400 C   0  0  1  0  0  0  0  0  0  0  0  0
   36.8040   28.6450   40.8860 C   0  0  1  0  0  0  0  0  0  0  0  0
   36.2190   28.1580   41.9950 O   0  0  0  0  0  0  0  0  0  0  0  0
   37.2700   28.3230   42.9290 C   0  0  0  0  0  0  0  0  0  0  0  0
   38.3310   27.4800   42.3090 C   0  0  1  0  0  0  0  0  0  0  0  0
   38.8320   28.0540   40.2310 H   0  0  0  0  0  0  0  0  0  0  0  0
   36.4390   28.5200   39.8730 H   0  0  0  0  0  0  0  0  0  0  0  0
   36.9670   28.0390   43.9400 H   0  0  0  0  0  0  0  0  0  0  0  0
   37.6230   29.3660   43.0020 H   0  0  0  0  0  0  0  0  0  0  0  0
   39.3740   27.8550   42.4750 H   0  0  0  0  0  0  0  0  0  0  0  0
   37.5070   26.4220   40.4020 O   0  0  0  0  0  0  0  0  0  0  0  0
   37.8630   26.2180   39.5000 H   0  0  0  0  0  0  0  0  0  0  0  0
   38.2800   26.1970   42.7260 O   0  0  0  0  0  0  0  0  0  0  0  0
   39.3930   25.5960   43.1980 C   0  0  1  0  0  3  0  0  0  0  0  0
   40.3890   25.1400   42.1500 C   0  0  0  0  0  3  0  0  0  0  0  0
   40.3990   24.0350   42.0470 H   0  0  0  0  0  0  0  0  0  0  0  0
   41.7180   25.5170   42.8090 C   0  0  0  0  0  3  0  0  0  0  0  0
   42.4320   24.6680   42.8340 H   0  0  0  0  0  0  0  0  0  0  0  0
   41.4060   26.0030   44.0770 O   0  0  0  0  0  0  0  0  0  0  0  0
   40.2340   26.6930   43.8660 C   0  0  0  0  0  3  0  0  0  0  0  0
   39.7580   27.0900   44.7590 H   0  0  0  0  0  0  0  0  0  0  0  0
  2  7  1  1  0  0  0
  3 14  1  0  0  0  0
  3  8  1  1  0  0  0
  3  2  1  0  0  0  0
  4  5  1  0  0  0  0
  4  3  1  0  0  0  0
  5  6  1  0  0  0  0
  6 11  1  1  0  0  0
  6  2  1  0  0  0  0
  6  1  1  0  0  0  0
  9  5  1  0  0  0  0
 10  5  1  0  0  0  0
 12 13  1  0  0  0  0
 12 18  1  0  0  0  0
 13 19  1  0  0  0  0
 14 13  2  0  0  0  0
 15 16  2  0  0  0  0
 15 14  1  0  0  0  0
 16 17  1  0  0  0  0
 17 12  2  0  0  0  0
 20 16  1  0  0  0  0
 21 22  1  0  0  0  0
 21  2  1  0  0  0  0
 23 28  1  6  0  0  0
 23 24  1  0  0  0  0
 23 27  1  0  0  0  0
 24 29  1  6  0  0  0
 24  1  1  0  0  0  0
 24 25  1  0  0  0  0
 25 26  1  0  0  0  0
 26 31  1  0  0  0  0
 26 30  1  0  0  0  0
 27 32  1  1  0  0  0
 27 35  1  0  0  0  0
 27 26  1  0  0  0  0
 33 23  1  0  0  0  0
 34 33  1  0  0  0  0
 36 35  1  6  0  0  0
 36 42  1  0  0  0  0
 37 39  1  0  0  0  0
 37 36  1  0  0  0  0
 38 37  1  0  0  0  0
 39 40  1  0  0  0  0
 39 41  1  0  0  0  0
 42 41  1  0  0  0  0
 42 43  1  0  0  0  0
M  END
>  <minimizedAffinity>
-5.59139872

$$$$

 OpenBabel03242516363D

 43 46  0  0  1  0  0  0  0  0999 V2000
   38.3770   31.7000   40.7410 O   0  0  0  0  0  0  0  0  0  0  0  0
   38.5600   29.3400   40.7190 C   0  0  2  0  0  0  0  0  0  0  0  0
   38.4710   29.4530   42.2660 C   0  0  1  0  0  0  0  0  0  0  0  0
   37.1170   29.3770   42.4100 O   0  0  0  0  0  0  0  0  0  0  0  0
   36.6270   30.3430   41.5080 C   0  0  0  0  0  0  0  0  0  0  0  0
   37.7120   30.5560   40.4270 C   0  0  1  0  0  0  0  0  0  0  0  0
   39.5890   29.4330   40.3730 H   0  0  0  0  0  0  0  0  0  0  0  0
   38.9480   30.4310   42.4580 H   0  0  0  0  0  0  0  0  0  0  0  0
   36.4170   31.2980   42.0380 H   0  0  0  0  0  0  0  0  0  0  0  0
   35.7590   29.8980   41.0100 H   0  0  0  0  0  0  0  0  0  0  0  0
   37.3090   30.5150   39.4030 H   0  0  0  0  0  0  0  0  0  0  0  0
   39.7430   26.3460   44.0510 C   0  0  0  0  0  0  0  0  0  0  0  0
   38.7890   27.2280   43.5370 C   0  0  0  0  0  0  0  0  0  0  0  0
   39.2350   28.3770   42.9120 C   0  0  0  0  0  0  0  0  0  0  0  0
   40.5960   28.5730   42.8400 N   0  0  0  0  0  0  0  0  0  0  0  0
   41.4870   27.7030   43.3450 C   0  0  0  0  0  0  0  0  0  0  0  0
   41.0520   26.5830   43.9540 N   0  0  0  0  0  0  0  0  0  0  0  0
   39.3160   25.4710   44.5260 H   0  0  0  0  0  0  0  0  0  0  0  0
   37.7290   27.1510   43.5510 H   0  0  0  0  0  0  0  0  0  0  0  0
   42.5500   27.8870   43.2710 H   0  0  0  0  0  0  0  0  0  0  0  0
   37.8650   28.2570   40.2700 O   0  0  0  0  0  0  0  0  0  0  0  0
   38.4510   27.5760   39.8310 H   0  0  0  0  0  0  0  0  0  0  0  0
   39.0740   33.9400   40.5340 C   0  0  1  0  0  0  0  0  0  0  0  0
   38.3380   32.7130   39.7880 C   0  0  1  0  0  0  0  0  0  0  0  0
   39.2770   32.4840   38.8510 O   0  0  0  0  0  0  0  0  0  0  0  0
   40.3950   32.2140   39.6750 C   0  0  0  0  0  0  0  0  0  0  0  0
   40.5050   33.4950   40.4280 C   0  0  1  0  0  0  0  0  0  0  0  0
   38.6600   34.0550   41.5160 H   0  0  0  0  0  0  0  0  0  0  0  0
   37.3700   33.1700   39.6130 H   0  0  0  0  0  0  0  0  0  0  0  0
   41.2740   31.9290   39.0900 H   0  0  0  0  0  0  0  0  0  0  0  0
   40.2220   31.3840   40.3810 H   0  0  0  0  0  0  0  0  0  0  0  0
   40.8770   33.3820   41.4790 H   0  0  0  0  0  0  0  0  0  0  0  0
   38.9180   35.0200   39.6580 O   0  0  0  0  0  0  0  0  0  0  0  0
   38.3200   35.6880   40.0800 H   0  0  0  0  0  0  0  0  0  0  0  0
   41.2920   34.3960   39.8030 O   0  0  0  0  0  0  0  0  0  0  0  0
   42.5180   34.6750   40.2950 C   0  0  1  0  0  3  0  0  0  0  0  0
   42.8970   33.9490   41.5700 C   0  0  0  0  0  3  0  0  0  0  0  0
   42.9010   34.6310   42.4460 H   0  0  0  0  0  0  0  0  0  0  0  0
   44.3610   33.5990   41.2970 C   0  0  0  0  0  3  0  0  0  0  0  0
   45.0320   33.9190   42.1210 H   0  0  0  0  0  0  0  0  0  0  0  0
   44.6860   34.1840   40.0740 O   0  0  0  0  0  0  0  0  0  0  0  0
   43.5320   34.0290   39.3400 C   0  0  0  0  0  3  0  0  0  0  0  0
   43.5340   34.5000   38.3610 H   0  0  0  0  0  0  0  0  0  0  0  0
  2  7  1  6  0  0  0
  2  3  1  0  0  0  0
  3  4  1  0  0  0  0
  3  8  1  1  0  0  0
  3 14  1  0  0  0  0
  5  9  1  0  0  0  0
  5  4  1  0  0  0  0
  6 11  1  6  0  0  0
  6  2  1  0  0  0  0
  6  1  1  0  0  0  0
  6  5  1  0  0  0  0
 10  5  1  0  0  0  0
 12 18  1  0  0  0  0
 13 19  1  0  0  0  0
 13 12  2  0  0  0  0
 14 13  1  0  0  0  0
 15 14  2  0  0  0  0
 15 16  1  0  0  0  0
 16 17  2  0  0  0  0
 17 12  1  0  0  0  0
 20 16  1  0  0  0  0
 21  2  1  0  0  0  0
 22 21  1  0  0  0  0
 23 28  1  1  0  0  0
 24 29  1  6  0  0  0
 24 23  1  0  0  0  0
 24  1  1  0  0  0  0
 25 26  1  0  0  0  0
 25 24  1  0  0  0  0
 26 31  1  0  0  0  0
 26 27  1  0  0  0  0
 27 23  1  0  0  0  0
 27 32  1  1  0  0  0
 30 26  1  0  0  0  0
 33 34  1  0  0  0  0
 33 23  1  0  0  0  0
 35 27  1  0  0  0  0
 36 35  1  6  0  0  0
 36 37  1  0  0  0  0
 37 38  1  0  0  0  0
 39 37  1  0  0  0  0
 39 40  1  0  0  0  0
 41 39  1  0  0  0  0
 42 41  1  0  0  0  0
 42 36  1  0  0  0  0
 43 42  1  0  0  0  0
M  END
>  <minimizedAffinity>
-5.41942739

$$$$

 OpenBabel03242516363D

 43 46  0  0  1  0  0  0  0  0999 V2000
   38.9140   30.3670   39.7420 O   0  0  0  0  0  0  0  0  0  0  0  0
   37.0080   29.1130   40.3730 C   0  0  2  0  0  0  0  0  0  0  0  0
   38.0150   28.2300   41.1610 C   0  0  1  0  0  0  0  0  0  0  0  0
   38.0040   28.9000   42.3490 O   0  0  0  0  0  0  0  0  0  0  0  0
   38.2330   30.2420   41.9820 C   0  0  0  0  0  0  0  0  0  0  0  0
   37.7910   30.3980   40.5080 C   0  0  1  0  0  0  0  0  0  0  0  0
   36.9040   28.7730   39.3430 H   0  0  0  0  0  0  0  0  0  0  0  0
   38.9270   28.3070   40.5430 H   0  0  0  0  0  0  0  0  0  0  0  0
   39.3100   30.4960   42.0910 H   0  0  0  0  0  0  0  0  0  0  0  0
   37.5570   30.8550   42.5880 H   0  0  0  0  0  0  0  0  0  0  0  0
   37.1400   31.2710   40.3470 H   0  0  0  0  0  0  0  0  0  0  0  0
   37.0310   24.6700   42.0630 C   0  0  0  0  0  0  0  0  0  0  0  0
   37.5650   25.9440   42.2740 C   0  0  0  0  0  0  0  0  0  0  0  0
   37.5530   26.8370   41.2190 C   0  0  0  0  0  0  0  0  0  0  0  0
   37.0140   26.4050   40.0270 N   0  0  0  0  0  0  0  0  0  0  0  0
   36.5090   25.1710   39.8590 C   0  0  0  0  0  0  0  0  0  0  0  0
   36.5200   24.3010   40.8870 N   0  0  0  0  0  0  0  0  0  0  0  0
   37.0780   24.0290   42.9350 H   0  0  0  0  0  0  0  0  0  0  0  0
   37.9950   26.3530   43.1550 H   0  0  0  0  0  0  0  0  0  0  0  0
   36.0920   24.8640   38.9100 H   0  0  0  0  0  0  0  0  0  0  0  0
   35.8530   29.2780   41.0760 O   0  0  0  0  0  0  0  0  0  0  0  0
   35.0590   28.8780   40.6170 H   0  0  0  0  0  0  0  0  0  0  0  0
   39.8330   31.8160   38.1290 C   0  0  1  0  0  0  0  0  0  0  0  0
   38.7440   30.6550   38.3910 C   0  0  1  0  0  0  0  0  0  0  0  0
   39.3240   29.6920   37.6520 O   0  0  0  0  0  0  0  0  0  0  0  0
   40.5840   29.6070   38.2910 C   0  0  0  0  0  0  0  0  0  0  0  0
   41.0910   30.9950   38.0960 C   0  0  1  0  0  0  0  0  0  0  0  0
   39.7460   32.5610   38.8940 H   0  0  0  0  0  0  0  0  0  0  0  0
   37.8430   31.1970   38.1260 H   0  0  0  0  0  0  0  0  0  0  0  0
   41.2040   28.8110   37.8700 H   0  0  0  0  0  0  0  0  0  0  0  0
   40.5070   29.3910   39.3700 H   0  0  0  0  0  0  0  0  0  0  0  0
   41.7350   31.3730   38.9330 H   0  0  0  0  0  0  0  0  0  0  0  0
   39.5850   32.2310   36.8170 O   0  0  0  0  0  0  0  0  0  0  0  0
   39.2390   33.1600   36.8370 H   0  0  0  0  0  0  0  0  0  0  0  0
   41.7830   31.1360   36.9450 O   0  0  0  0  0  0  0  0  0  0  0  0
   42.9770   30.5240   36.7970 C   0  0  1  0  0  3  0  0  0  0  0  0
   43.2810   30.0020   35.4060 C   0  0  0  0  0  3  0  0  0  0  0  0
   43.2320   28.8940   35.3640 H   0  0  0  0  0  0  0  0  0  0  0  0
   44.7590   30.3670   35.2610 C   0  0  0  0  0  3  0  0  0  0  0  0
   45.3790   29.5020   34.9500 H   0  0  0  0  0  0  0  0  0  0  0  0
   45.1550   30.9080   36.4830 O   0  0  0  0  0  0  0  0  0  0  0  0
   44.0470   31.6210   36.8800 C   0  0  0  0  0  3  0  0  0  0  0  0
   44.1060   32.0650   37.8710 H   0  0  0  0  0  0  0  0  0  0  0  0
  1  6  1  0  0  0  0
  2  7  1  6  0  0  0
  2  6  1  0  0  0  0
  2 21  1  0  0  0  0
  2  3  1  0  0  0  0
  3  8  1  6  0  0  0
  3 14  1  0  0  0  0
  3  4  1  0  0  0  0
  5  9  1  0  0  0  0
  5  4  1  0  0  0  0
  5 10  1  0  0  0  0
  6 11  1  6  0  0  0
  6  5  1  0  0  0  0
 12 13  1  0  0  0  0
 12 18  1  0  0  0  0
 13 19  1  0  0  0  0
 14 13  2  0  0  0  0
 15 14  1  0  0  0  0
 16 15  2  0  0  0  0
 16 17  1  0  0  0  0
 17 12  2  0  0  0  0
 20 16  1  0  0  0  0
 22 21  1  0  0  0  0
 23 24  1  0  0  0  0
 23 28  1  1  0  0  0
 24 29  1  6  0  0  0
 24  1  1  0  0  0  0
 25 26  1  0  0  0  0
 25 24  1  0  0  0  0
 26 31  1  0  0  0  0
 27 23  1  0  0  0  0
 27 26  1  0  0  0  0
 27 32  1  1  0  0  0
 30 26  1  0  0  0  0
 33 34  1  0  0  0  0
 33 23  1  0  0  0  0
 35 27  1  0  0  0  0
 36 42  1  0  0  0  0
 36 35  1  6  0  0  0
 37 36  1  0  0  0  0
 38 37  1  0  0  0  0
 39 37  1  0  0  0  0
 39 41  1  0  0  0  0
 40 39  1  0  0  0  0
 41 42  1  0  0  0  0
 42 43  1  0  0  0  0
M  END
>  <minimizedAffinity>
-5.38774157

$$$$

 OpenBabel03242516363D

 43 46  0  0  1  0  0  0  0  0999 V2000
   38.1550   29.4170   41.1060 O   0  0  0  0  0  0  0  0  0  0  0  0
   37.5540   30.6220   39.1600 C   0  0  2  0  0  0  0  0  0  0  0  0
   36.2750   29.7410   39.1710 C   0  0  1  0  0  0  0  0  0  0  0  0
   35.4750   30.5310   39.9430 O   0  0  0  0  0  0  0  0  0  0  0  0
   36.2670   30.8060   41.0770 C   0  0  0  0  0  0  0  0  0  0  0  0
   37.7460   30.6340   40.6580 C   0  0  1  0  0  0  0  0  0  0  0  0
   38.3660   30.1360   38.6200 H   0  0  0  0  0  0  0  0  0  0  0  0
   36.6420   28.8000   39.6170 H   0  0  0  0  0  0  0  0  0  0  0  0
   36.0160   30.1070   41.9050 H   0  0  0  0  0  0  0  0  0  0  0  0
   36.1210   31.8650   41.3150 H   0  0  0  0  0  0  0  0  0  0  0  0
   38.3790   31.4810   40.9650 H   0  0  0  0  0  0  0  0  0  0  0  0
   34.3570   28.9400   35.9870 C   0  0  0  0  0  0  0  0  0  0  0  0
   34.5630   29.0520   37.3640 C   0  0  0  0  0  0  0  0  0  0  0  0
   35.7930   29.5040   37.8030 C   0  0  0  0  0  0  0  0  0  0  0  0
   36.7350   29.8130   36.8470 N   0  0  0  0  0  0  0  0  0  0  0  0
   36.5030   29.6930   35.5280 C   0  0  0  0  0  0  0  0  0  0  0  0
   35.3040   29.2530   35.1000 N   0  0  0  0  0  0  0  0  0  0  0  0
   33.3700   28.5790   35.7220 H   0  0  0  0  0  0  0  0  0  0  0  0
   33.8950   28.8360   38.1610 H   0  0  0  0  0  0  0  0  0  0  0  0
   37.2640   29.9450   34.8030 H   0  0  0  0  0  0  0  0  0  0  0  0
   37.2600   31.9010   38.7890 O   0  0  0  0  0  0  0  0  0  0  0  0
   37.7020   32.1670   37.9320 H   0  0  0  0  0  0  0  0  0  0  0  0
   36.8300   27.7700   42.1440 C   0  0  1  0  0  0  0  0  0  0  0  0
   37.7530   29.0690   42.3920 C   0  0  1  0  0  0  0  0  0  0  0  0
   38.7660   28.4530   43.0270 O   0  0  0  0  0  0  0  0  0  0  0  0
   39.1520   27.5160   42.0380 C   0  0  0  0  0  0  0  0  0  0  0  0
   37.8900   26.7380   41.8820 C   0  0  1  0  0  0  0  0  0  0  0  0
   36.1320   27.9770   41.3570 H   0  0  0  0  0  0  0  0  0  0  0  0
   37.0190   29.7190   42.8570 H   0  0  0  0  0  0  0  0  0  0  0  0
   40.0310   26.9410   42.3400 H   0  0  0  0  0  0  0  0  0  0  0  0
   39.4150   27.9880   41.0760 H   0  0  0  0  0  0  0  0  0  0  0  0
   37.7080   26.3580   40.8430 H   0  0  0  0  0  0  0  0  0  0  0  0
   36.2890   27.4850   43.4020 O   0  0  0  0  0  0  0  0  0  0  0  0
   35.3120   27.6500   43.3740 H   0  0  0  0  0  0  0  0  0  0  0  0
   37.8240   25.6870   42.7260 O   0  0  0  0  0  0  0  0  0  0  0  0
   37.6300   24.4430   42.2390 C   0  0  1  0  0  3  0  0  0  0  0  0
   36.6080   24.3230   41.1260 C   0  0  0  0  0  3  0  0  0  0  0  0
   35.6770   23.8290   41.4740 H   0  0  0  0  0  0  0  0  0  0  0  0
   37.2940   23.3260   40.1900 C   0  0  0  0  0  3  0  0  0  0  0  0
   36.6340   22.4750   39.9240 H   0  0  0  0  0  0  0  0  0  0  0  0
   38.4660   22.9260   40.8290 O   0  0  0  0  0  0  0  0  0  0  0  0
   38.8930   24.0790   41.4460 C   0  0  0  0  0  3  0  0  0  0  0  0
   39.7650   23.9720   42.0860 H   0  0  0  0  0  0  0  0  0  0  0  0
  1 24  1  0  0  0  0
  2  7  1  6  0  0  0
  2  3  1  0  0  0  0
  2  6  1  0  0  0  0
  3  8  1  1  0  0  0
  3  4  1  0  0  0  0
  4  5  1  0  0  0  0
  5 10  1  0  0  0  0
  5  9  1  0  0  0  0
  6 11  1  1  0  0  0
  6  5  1  0  0  0  0
  6  1  1  0  0  0  0
 12 13  1  0  0  0  0
 13 14  2  0  0  0  0
 13 19  1  0  0  0  0
 14  3  1  0  0  0  0
 15 14  1  0  0  0  0
 16 15  2  0  0  0  0
 17 16  1  0  0  0  0
 17 12  2  0  0  0  0
 18 12  1  0  0  0  0
 20 16  1  0  0  0  0
 21  2  1  0  0  0  0
 22 21  1  0  0  0  0
 23 28  1  6  0  0  0
 23 24  1  0  0  0  0
 23 33  1  0  0  0  0
 24 29  1  1  0  0  0
 24 25  1  0  0  0  0
 26 30  1  0  0  0  0
 26 25  1  0  0  0  0
 27 32  1  6  0  0  0
 27 26  1  0  0  0  0
 27 23  1  0  0  0  0
 27 35  1  0  0  0  0
 31 26  1  0  0  0  0
 34 33  1  0  0  0  0
 36 35  1  6  0  0  0
 37 38  1  0  0  0  0
 37 36  1  0  0  0  0
 39 41  1  0  0  0  0
 39 37  1  0  0  0  0
 40 39  1  0  0  0  0
 41 42  1  0  0  0  0
 42 43  1  0  0  0  0
 42 36  1  0  0  0  0
M  END
>  <minimizedAffinity>
-5.36799383

$$$$
