
     RDKit          3D

 48 50  0  0  0  0  0  0  0  0999 V2000
   47.5156   34.4296   40.7722 C   0  0  0  0  0  0  0  0  0  0  0  0
   48.7749   33.7621   41.1289 C   0  0  0  0  0  0  0  0  0  0  0  0
   49.1055   32.6271   40.4141 C   0  0  0  0  0  0  0  0  0  0  0  0
   50.2712   31.9377   40.6840 C   0  0  0  0  0  0  0  0  0  0  0  0
   51.0803   32.4279   41.6876 N   0  0  0  0  0  0  0  0  0  0  0  0
   50.7149   33.5518   42.3678 C   0  0  0  0  0  0  0  0  0  0  0  0
   49.5914   34.1885   42.0841 N   0  0  0  0  0  0  0  0  0  0  0  0
   48.0109   32.0381   39.1189 S   0  0  0  0  0  0  0  0  0  0  0  0
   48.8249   32.1577   37.5139 C   0  0  0  0  0  0  0  0  0  0  0  0
   48.4885   33.4908   36.8921 C   0  0  0  0  0  0  0  0  0  0  0  0
   48.1876   33.2891   35.5047 N   0  0  0  0  0  0  0  0  0  0  0  0
   46.7497   34.9519   41.9518 C   0  0  0  0  0  0  0  0  0  0  0  0
   45.2801   34.9432   41.7583 C   0  0  0  0  0  0  0  0  0  0  0  0
   44.4406   35.6047   42.6827 C   0  0  0  0  0  0  0  0  0  0  0  0
   42.7655   35.3150   42.0277 S   0  0  0  0  0  0  0  0  0  0  0  0
   43.4844   34.3107   40.5565 C   0  0  0  0  0  0  0  0  0  0  0  0
   44.6037   34.3763   40.7953 N   0  0  0  0  0  0  0  0  0  0  0  0
   42.6959   33.7360   39.5675 O   0  0  0  0  0  0  0  0  0  0  0  0
   40.7504   33.9979   37.7883 O   0  0  0  0  0  0  0  0  0  0  0  0
   41.7793   34.7741   38.5994 P   0  0  1  0  0  0  0  0  0  0  0  0
   40.9263   35.8270   39.6428 O   0  0  0  0  0  0  0  0  0  0  0  0
   42.7925   35.7137   37.6145 O   0  0  0  0  0  0  0  0  0  0  0  0
   47.7528   35.2209   40.0269 H   0  0  0  0  0  0  0  0  0  0  0  0
   46.8184   33.7422   40.2421 H   0  0  0  0  0  0  0  0  0  0  0  0
   50.5631   31.0381   40.1392 H   0  0  0  0  0  0  0  0  0  0  0  0
   51.3350   33.9552   43.1602 H   0  0  0  0  0  0  0  0  0  0  0  0
   49.9146   32.1321   37.6362 H   0  0  0  0  0  0  0  0  0  0  0  0
   48.4966   31.3366   36.8597 H   0  0  0  0  0  0  0  0  0  0  0  0
   49.3593   34.2047   36.9411 H   0  0  0  0  0  0  0  0  0  0  0  0
   47.6633   33.9826   37.4289 H   0  0  0  0  0  0  0  0  0  0  0  0
   47.6530   32.4064   35.3944 H   0  0  0  0  0  0  0  0  0  0  0  0
   47.5532   34.0714   35.2081 H   0  0  0  0  0  0  0  0  0  0  0  0
   47.0323   34.4139   42.8959 H   0  0  0  0  0  0  0  0  0  0  0  0
   47.0402   36.0058   42.1380 H   0  0  0  0  0  0  0  0  0  0  0  0
   44.6708   36.1624   43.5768 H   0  0  0  0  0  0  0  0  0  0  0  0
   40.1495   35.3838   40.0525 H   0  0  0  0  0  0  0  0  0  0  0  0
   42.1373   36.8088   37.0893 C   0  0  1  0  0  0  0  0  0  0  0  0
   40.6588   36.6113   37.3567 C   0  0  1  0  0  0  0  0  0  0  0  0
   40.1610   36.4893   36.3781 H   0  0  0  0  0  0  0  0  0  0  0  0
   40.2944   37.9231   38.0357 C   0  0  1  0  0  0  0  0  0  0  0  0
   40.2353   38.6923   37.2284 H   0  0  0  0  0  0  0  0  0  0  0  0
   41.4006   38.1611   38.8300 O   0  0  0  0  0  0  0  0  0  0  0  0
   42.4715   38.0091   37.9488 C   0  0  1  0  0  0  0  0  0  0  0  0
   43.3881   37.8664   38.5603 H   0  0  0  0  0  0  0  0  0  0  0  0
   42.3350   36.9659   36.0161 H   0  0  0  0  0  0  0  0  0  0  0  0
   40.4649   35.7542   38.0355 H   0  0  0  0  0  0  0  0  0  0  0  0
   39.3593   37.8579   38.6240 H   0  0  0  0  0  0  0  0  0  0  0  0
   42.6550   38.9180   37.3431 H   0  0  0  0  0  0  0  0  0  0  0  0
  1  2  1  0
  1 12  1  0
  2  7  2  0
  3  4  2  0
  3  2  1  0
  4  5  1  0
  5  6  2  0
  7  6  1  0
  8  3  1  0
  9  8  1  0
 10  9  1  0
 11 10  1  0
 13 12  1  0
 13 14  2  0
 15 14  1  0
 16 17  2  0
 16 15  1  0
 17 13  1  0
 18 16  1  0
 19 20  2  0
 20 18  1  1
 20 21  1  0
 22 20  1  0
  1 23  1  0
  1 24  1  0
  4 25  1  0
  6 26  1  0
  9 27  1  0
  9 28  1  0
 10 29  1  0
 10 30  1  0
 11 31  1  0
 11 32  1  0
 12 33  1  0
 12 34  1  0
 14 35  1  0
 21 36  1  0
 37 38  1  0
 38 39  1  6
 38 40  1  0
 40 41  1  6
 40 42  1  0
 42 43  1  0
 43 44  1  1
 43 37  1  0
 37 45  1  6
 38 46  1  0
 40 47  1  0
 43 48  1  0
 22 37  1  0
M  ISO  8  23   8  24   8  25  14  26  14  27   8  28   8  29   8  30   8
M  ISO  8  31   5  32   5  33   8  34   8  35  14  36   3  39  15  41  15
M  ISO  1  44  15
M  END
>  <DihAtoms>  (1) 
19,21,36,37

>  <DihDeg>  (1) 
123.32098349736133

$$$$
