
 OpenBabel03252509043D

 47 49  0  0  1  0  0  0  0  0999 V2000
   46.6080   34.5440   43.6200 N   0  0  0  0  0  0  0  0  0  0  0  0
   46.1110   35.5330   42.7440 C   0  0  0  0  0  0  0  0  0  0  0  0
   44.6000   35.6890   42.7520 C   0  0  0  0  0  0  0  0  0  0  0  0
   43.9540   35.4420   44.0910 C   0  0  0  0  0  0  0  0  0  0  0  0
   44.9910   35.1750   45.1660 C   0  0  0  0  0  0  0  0  0  0  0  0
   45.8140   33.9590   44.5830 C   0  0  2  0  0  0  0  0  0  0  0  0
   46.5130   36.5200   43.0870 H   0  0  0  0  0  0  0  0  0  0  0  0
   46.4040   35.4540   41.6890 H   0  0  0  0  0  0  0  0  0  0  0  0
   44.3750   36.6850   42.3440 H   0  0  0  0  0  0  0  0  0  0  0  0
   44.1960   34.9400   42.0310 H   0  0  0  0  0  0  0  0  0  0  0  0
   43.3140   36.3080   44.3480 H   0  0  0  0  0  0  0  0  0  0  0  0
   43.2760   34.5620   44.0840 H   0  0  0  0  0  0  0  0  0  0  0  0
   44.4860   34.7970   46.0620 H   0  0  0  0  0  0  0  0  0  0  0  0
   45.6730   36.0170   45.3130 H   0  0  0  0  0  0  0  0  0  0  0  0
   45.0420   33.2370   44.2500 H   0  0  0  0  0  0  0  0  0  0  0  0
   47.7000   33.7810   43.0770 C   0  0  0  0  0  0  0  0  0  0  0  0
   48.2650   33.3180   43.9230 H   0  0  0  0  0  0  0  0  0  0  0  0
   48.3800   34.4770   42.5330 H   0  0  0  0  0  0  0  0  0  0  0  0
   47.1560   32.7040   42.1940 C   0  0  0  0  0  0  0  0  0  0  0  0
   47.3730   31.7150   42.5900 H   0  0  0  0  0  0  0  0  0  0  0  0
   46.0560   32.7900   42.0990 H   0  0  0  0  0  0  0  0  0  0  0  0
   49.0810   31.9770   39.0420 C   0  0  0  0  0  0  0  0  0  0  0  0
   48.5230   31.8600   40.3350 C   0  0  0  0  0  0  0  0  0  0  0  0
   47.7300   32.8520   40.8300 C   0  0  0  0  0  0  0  0  0  0  0  0
   47.5120   33.9190   40.0480 N   0  0  0  0  0  0  0  0  0  0  0  0
   48.0310   34.0440   38.8260 C   0  0  0  0  0  0  0  0  0  0  0  0
   48.8160   33.0850   38.3090 N   0  0  0  0  0  0  0  0  0  0  0  0
   49.7080   31.2030   38.6380 H   0  0  0  0  0  0  0  0  0  0  0  0
   48.7250   30.9740   40.9400 H   0  0  0  0  0  0  0  0  0  0  0  0
   47.7940   34.9440   38.2760 H   0  0  0  0  0  0  0  0  0  0  0  0
   46.5250   33.5600   45.6920 O   0  0  0  0  0  0  0  0  0  0  0  0
   45.6060   31.1590   44.9850 O   0  0  0  0  0  0  0  0  0  0  0  0
   46.2240   31.9760   46.1390 P   0  0  2  0  0  0  0  0  0  0  0  0
   44.9680   32.0430   47.3100 O   0  0  0  0  0  0  0  0  0  0  0  0
   45.3440   32.3430   48.1790 H   0  0  0  0  0  0  0  0  0  0  0  0
   47.5060   31.1910   46.8300 O   0  0  0  0  0  0  0  0  0  0  0  0
   47.8560   30.0820   46.0880 C   0  0  0  0  0  0  0  0  0  0  0  0
   47.0530   29.3080   46.0450 H   0  0  0  0  0  0  0  0  0  0  0  0
   48.0550   30.3950   45.0450 H   0  0  0  0  0  0  0  0  0  0  0  0
   49.0800   29.3780   46.6180 C   0  0  1  0  0  3  0  0  0  0  0  0
   48.8430   28.8100   48.0010 C   0  0  0  0  0  3  0  0  0  0  0  0
   49.7870   28.7060   48.5690 H   0  0  0  0  0  0  0  0  0  0  0  0
   48.3220   27.4110   47.6830 C   0  0  0  0  0  3  0  0  0  0  0  0
   47.3860   27.1910   48.2550 H   0  0  0  0  0  0  0  0  0  0  0  0
   48.0970   27.3900   46.3080 O   0  0  0  0  0  0  0  0  0  0  0  0
   49.2160   28.0700   45.8250 C   0  0  0  0  0  3  0  0  0  0  0  0
   50.1010   27.4890   46.2060 H   0  0  0  0  0  0  0  0  0  0  0  0
  1  6  1  0  0  0  0
  2  3  1  0  0  0  0
  2  7  1  0  0  0  0
  2  1  1  0  0  0  0
  3  4  1  0  0  0  0
  4 11  1  0  0  0  0
  4  5  1  0  0  0  0
  5 14  1  0  0  0  0
  5 13  1  0  0  0  0
  6 15  1  6  0  0  0
  6  5  1  0  0  0  0
  6 31  1  0  0  0  0
  8  2  1  0  0  0  0
  9  3  1  0  0  0  0
 10  3  1  0  0  0  0
 12  4  1  0  0  0  0
 16  1  1  0  0  0  0
 16 17  1  0  0  0  0
 18 16  1  0  0  0  0
 19 20  1  0  0  0  0
 19 16  1  0  0  0  0
 21 19  1  0  0  0  0
 22 23  1  0  0  0  0
 23 24  2  0  0  0  0
 23 29  1  0  0  0  0
 24 19  1  0  0  0  0
 25 24  1  0  0  0  0
 26 25  2  0  0  0  0
 27 26  1  0  0  0  0
 27 22  2  0  0  0  0
 28 22  1  0  0  0  0
 30 26  1  0  0  0  0
 31 33  1  0  0  0  0
 33 32  2  6  0  0  0
 33 36  1  0  0  0  0
 33 34  1  0  0  0  0
 34 35  1  0  0  0  0
 37 36  1  0  0  0  0
 38 37  1  0  0  0  0
 39 37  1  0  0  0  0
 40 37  1  6  0  0  0
 40 41  1  0  0  0  0
 41 42  1  0  0  0  0
 43 41  1  0  0  0  0
 43 44  1  0  0  0  0
 45 43  1  0  0  0  0
 46 47  1  0  0  0  0
 46 45  1  0  0  0  0
 46 40  1  0  0  0  0
M  END
>  <minimizedAffinity>
-4.07428598

>  <minimizedRMSD>
1.29759777

$$$$
