
 OpenBabel03252507083D

 23 24  0  0  1  0  0  0  0  0999 V2000
   44.6380   35.6630   44.8530 C   0  0  0  0  0  0  0  0  0  0  0  0
   45.2380   35.8530   43.5840 C   0  0  0  0  0  0  0  0  0  0  0  0
   46.1490   34.9040   43.1370 C   0  0  0  0  0  0  0  0  0  0  0  0
   46.4180   33.8390   43.9480 N   0  0  0  0  0  0  0  0  0  0  0  0
   45.8380   33.6810   45.1450 C   0  0  0  0  0  0  0  0  0  0  0  0
   44.9450   34.5940   45.6020 N   0  0  0  0  0  0  0  0  0  0  0  0
   43.9420   36.4650   45.0990 H   0  0  0  0  0  0  0  0  0  0  0  0
   45.0130   36.7040   42.9530 H   0  0  0  0  0  0  0  0  0  0  0  0
   46.1270   32.5340   46.0190 C   0  0  1  0  0  3  0  0  0  0  0  0
   47.0760   31.5310   45.3500 C   0  0  0  0  0  3  0  0  0  0  0  0
   46.4820   30.9320   44.6280 H   0  0  0  0  0  0  0  0  0  0  0  0
   47.4360   30.7500   46.5980 C   0  0  0  0  0  3  0  0  0  0  0  0
   48.3430   30.1400   46.4910 H   0  0  0  0  0  0  0  0  0  0  0  0
   47.4510   31.6470   47.6500 O   0  0  0  0  0  0  0  0  0  0  0  0
   46.9220   32.8450   47.2420 C   0  0  0  0  0  3  0  0  0  0  0  0
   47.7960   33.5110   46.9850 H   0  0  0  0  0  0  0  0  0  0  0  0
   46.7250   35.1010   41.9010 O   0  0  0  0  0  0  0  0  0  0  0  0
   48.4790   33.3380   41.0050 O   0  0  0  0  0  0  0  0  0  0  0  0
   48.3830   34.7160   41.6690 P   0  0  0  0  0  0  0  0  0  0  0  0
   49.1100   35.9040   40.7630 O   0  0  0  0  0  0  0  0  0  0  0  0
   49.9850   36.1550   41.1820 H   0  0  0  0  0  0  0  0  0  0  0  0
   49.0860   34.5780   43.2140 O   0  0  0  0  0  0  0  0  0  0  0  0
   48.9360   33.6610   43.5180 H   0  0  0  0  0  0  0  0  0  0  0  0
  1  7  1  0  0  0  0
  1  6  1  0  0  0  0
  2  1  2  0  0  0  0
  3  2  1  0  0  0  0
  3  4  2  0  0  0  0
  4  5  1  0  0  0  0
  5  6  2  0  0  0  0
  8  2  1  0  0  0  0
  9  5  1  6  0  0  0
  9 15  1  0  0  0  0
 10  9  1  0  0  0  0
 10 12  1  0  0  0  0
 11 10  1  0  0  0  0
 12 14  1  0  0  0  0
 13 12  1  0  0  0  0
 15 14  1  0  0  0  0
 16 15  1  0  0  0  0
 17  3  1  0  0  0  0
 18 19  2  0  0  0  0
 19 17  1  0  0  0  0
 19 22  1  0  0  0  0
 20 21  1  0  0  0  0
 20 19  1  0  0  0  0
 22 23  1  0  0  0  0
M  END
>  <minimizedAffinity>
-5.11084843

>  <minimizedRMSD>
0.431265503

$$$$
