
 OpenBabel03252507083D

 23 24  0  0  1  0  0  0  0  0999 V2000
   44.5720   35.7720   44.7040 C   0  0  0  0  0  0  0  0  0  0  0  0
   45.1730   35.8270   43.4220 C   0  0  0  0  0  0  0  0  0  0  0  0
   46.1410   34.8820   43.1070 C   0  0  0  0  0  0  0  0  0  0  0  0
   46.4630   33.9510   44.0540 N   0  0  0  0  0  0  0  0  0  0  0  0
   45.8800   33.9200   45.2600 C   0  0  0  0  0  0  0  0  0  0  0  0
   44.9320   34.8320   45.5890 N   0  0  0  0  0  0  0  0  0  0  0  0
   43.8290   36.5580   44.8390 H   0  0  0  0  0  0  0  0  0  0  0  0
   44.9070   36.5720   42.6830 H   0  0  0  0  0  0  0  0  0  0  0  0
   46.2250   32.9180   46.2790 C   0  0  1  0  0  3  0  0  0  0  0  0
   45.2520   32.9530   47.4650 C   0  0  0  0  0  3  0  0  0  0  0  0
   45.5280   33.8160   48.1070 H   0  0  0  0  0  0  0  0  0  0  0  0
   45.6480   31.6220   48.0750 C   0  0  0  0  0  3  0  0  0  0  0  0
   44.9110   31.2220   48.7830 H   0  0  0  0  0  0  0  0  0  0  0  0
   45.9790   30.7790   47.0310 O   0  0  0  0  0  0  0  0  0  0  0  0
   46.0530   31.4960   45.8650 C   0  0  0  0  0  3  0  0  0  0  0  0
   45.0650   31.3560   45.3380 H   0  0  0  0  0  0  0  0  0  0  0  0
   46.7180   34.9460   41.8570 O   0  0  0  0  0  0  0  0  0  0  0  0
   48.6020   33.2470   41.1140 O   0  0  0  0  0  0  0  0  0  0  0  0
   48.4020   34.6550   41.6860 P   0  0  0  0  0  0  0  0  0  0  0  0
   49.0770   35.8280   40.7220 O   0  0  0  0  0  0  0  0  0  0  0  0
   49.9230   36.1610   41.1430 H   0  0  0  0  0  0  0  0  0  0  0  0
   49.0730   34.6590   43.2520 O   0  0  0  0  0  0  0  0  0  0  0  0
   48.9730   33.7550   43.6100 H   0  0  0  0  0  0  0  0  0  0  0  0
  1  7  1  0  0  0  0
  1  6  1  0  0  0  0
  2  1  2  0  0  0  0
  3  2  1  0  0  0  0
  3  4  2  0  0  0  0
  4  5  1  0  0  0  0
  5  6  2  0  0  0  0
  8  2  1  0  0  0  0
  9  5  1  6  0  0  0
  9 10  1  0  0  0  0
 10 12  1  0  0  0  0
 10 11  1  0  0  0  0
 12 13  1  0  0  0  0
 14 12  1  0  0  0  0
 15  9  1  0  0  0  0
 15 14  1  0  0  0  0
 16 15  1  0  0  0  0
 17  3  1  0  0  0  0
 18 19  2  0  0  0  0
 19 17  1  0  0  0  0
 19 22  1  0  0  0  0
 20 21  1  0  0  0  0
 20 19  1  0  0  0  0
 22 23  1  0  0  0  0
M  END
>  <minimizedAffinity>
-5.35129023

>  <minimizedRMSD>
0.657185614

$$$$
