
 OpenBabel03252501083D

 39 42  0  0  1  0  0  0  0  0999 V2000
   48.9950   32.4480   38.2280 O   0  0  0  0  0  0  0  0  0  0  0  0
   48.2170   33.6850   38.6790 P   0  0  2  0  0  0  0  0  0  0  0  0
   48.8450   34.9640   37.7580 O   0  0  0  0  0  0  0  0  0  0  0  0
   48.2180   35.7050   37.8070 H   0  0  0  0  0  0  0  0  0  0  0  0
   48.2830   33.9080   40.2960 O   0  0  0  0  0  0  0  0  0  0  0  0
   48.0380   35.6380   41.9710 C   0  0  1  0  0  0  0  0  0  0  0  0
   49.4320   35.1970   42.1100 C   0  0  0  0  0  0  0  0  0  0  0  0
   48.6810   35.1030   40.7700 C   0  0  1  0  0  0  0  0  0  0  0  0
   47.8020   36.7190   42.0280 H   0  0  0  0  0  0  0  0  0  0  0  0
   50.2510   35.9290   42.2110 H   0  0  0  0  0  0  0  0  0  0  0  0
   49.6840   34.1850   42.4990 H   0  0  0  0  0  0  0  0  0  0  0  0
   49.1460   35.7720   40.0210 H   0  0  0  0  0  0  0  0  0  0  0  0
   46.4860   32.9790   44.1810 C   0  0  0  0  0  0  0  0  0  0  0  0
   47.4400   33.8020   43.5910 C   0  0  0  0  0  0  0  0  0  0  0  0
   47.0250   34.7470   42.6330 C   0  0  0  0  0  0  0  0  0  0  0  0
   45.7080   34.8290   42.3130 N   0  0  0  0  0  0  0  0  0  0  0  0
   44.7970   34.0120   42.9050 C   0  0  0  0  0  0  0  0  0  0  0  0
   45.1820   33.0920   43.8330 N   0  0  0  0  0  0  0  0  0  0  0  0
   46.8330   32.2630   44.9130 H   0  0  0  0  0  0  0  0  0  0  0  0
   48.4580   33.7020   43.8730 H   0  0  0  0  0  0  0  0  0  0  0  0
   43.7980   34.1720   42.5710 H   0  0  0  0  0  0  0  0  0  0  0  0
   46.6430   33.4180   38.1610 O   0  0  0  0  0  0  0  0  0  0  0  0
   45.6760   32.7760   38.9120 C   0  0  0  0  0  0  0  0  0  0  0  0
   45.7510   31.5490   39.5460 C   0  0  0  0  0  0  0  0  0  0  0  0
   44.7020   31.0540   40.2500 C   0  0  0  0  0  0  0  0  0  0  0  0
   43.5280   31.7590   40.3570 C   0  0  0  0  0  0  0  0  0  0  0  0
   43.4810   32.9950   39.7070 C   0  0  0  0  0  0  0  0  0  0  0  0
   44.5430   33.4770   39.0030 N   0  0  0  0  0  0  0  0  0  0  0  0
   46.7070   31.0460   39.4210 H   0  0  0  0  0  0  0  0  0  0  0  0
   44.8580   30.0800   40.7130 H   0  0  0  0  0  0  0  0  0  0  0  0
   42.6980   31.3630   40.9170 H   0  0  0  0  0  0  0  0  0  0  0  0
   42.2140   33.7810   39.8080 C   0  0  2  0  0  3  0  0  0  0  0  0
   42.4630   35.2210   40.2100 C   0  0  0  0  0  3  0  0  0  0  0  0
   42.5940   35.9060   39.3690 H   0  0  0  0  0  0  0  0  0  0  0  0
   41.2990   35.5530   41.1170 C   0  0  0  0  0  3  0  0  0  0  0  0
   40.6280   36.2090   40.4890 H   0  0  0  0  0  0  0  0  0  0  0  0
   40.6870   34.3810   41.4830 O   0  0  0  0  0  0  0  0  0  0  0  0
   41.3850   33.3100   40.9850 C   0  0  0  0  0  3  0  0  0  0  0  0
   40.6180   32.5600   40.6650 H   0  0  0  0  0  0  0  0  0  0  0  0
  2  1  2  6  0  0  0
  2  5  1  0  0  0  0
  3  4  1  0  0  0  0
  3  2  1  0  0  0  0
  5  8  1  0  0  0  0
  6  9  1  1  0  0  0
  6  7  1  0  0  0  0
  6 15  1  0  0  0  0
  7 10  1  0  0  0  0
  7 11  1  0  0  0  0
  8 12  1  6  0  0  0
  8  6  1  0  0  0  0
  8  7  1  0  0  0  0
 13 19  1  0  0  0  0
 14 20  1  0  0  0  0
 14 13  2  0  0  0  0
 15 14  1  0  0  0  0
 16 15  2  0  0  0  0
 16 17  1  0  0  0  0
 17 18  2  0  0  0  0
 18 13  1  0  0  0  0
 21 17  1  0  0  0  0
 22  2  1  0  0  0  0
 22 23  1  0  0  0  0
 23 28  2  0  0  0  0
 23 24  1  0  0  0  0
 24 25  2  0  0  0  0
 25 26  1  0  0  0  0
 25 30  1  0  0  0  0
 26 31  1  0  0  0  0
 27 26  2  0  0  0  0
 28 27  1  0  0  0  0
 29 24  1  0  0  0  0
 32 27  1  1  0  0  0
 32 33  1  0  0  0  0
 32 38  1  0  0  0  0
 33 35  1  0  0  0  0
 34 33  1  0  0  0  0
 35 37  1  0  0  0  0
 36 35  1  0  0  0  0
 38 37  1  0  0  0  0
 39 38  1  0  0  0  0
M  END
>  <minimizedAffinity>
-5.03255844

>  <minimizedRMSD>
2.29324698

$$$$
