REMARK  Name = 
REMARK  3 active torsions:
REMARK  status: ('A' for Active; 'I' for Inactive)
REMARK    1  A    between atoms: C_2  and  C_7
REMARK    2  A    between atoms: C_5  and  C_17
REMARK    3  A    between atoms: C_8  and  C_9
REMARK                            x       y       z     vdW  Elec       q    Type
REMARK                         _______ _______ _______ _____ _____    ______ ____
ROOT
ATOM      1  C   UNL     1      44.297  35.782  44.180  0.00  0.00    +0.000 A 
ATOM      2  C   UNL     1      44.469  34.932  43.091  0.00  0.00    +0.000 A 
ATOM      3  C   UNL     1      45.083  33.711  43.305  0.00  0.00    +0.000 A 
ATOM      4  N   UNL     1      45.500  33.380  44.572  0.00  0.00    +0.000 NA
ATOM      5  C   UNL     1      45.314  34.235  45.607  0.00  0.00    +0.000 A 
ATOM      6  N   UNL     1      44.717  35.422  45.403  0.00  0.00    +0.000 NA
ATOM      7  H   UNL     1      43.816  36.735  44.008  0.00  0.00    +0.000 HD
ATOM      8  H   UNL     1      45.233  33.031  42.491  0.00  0.00    +0.000 HD
ENDROOT
BRANCH   5   9
ATOM      9  C   UNL     1      45.741  33.927  46.977  0.00  0.00    +0.000 C 
ATOM     10  C   UNL     1      47.251  33.717  46.941  0.00  0.00    +0.000 C 
ATOM     11  H   UNL     1      47.655  33.692  45.922  0.00  0.00    +0.000 HD
ATOM     12  C   UNL     1      47.387  32.363  47.602  0.00  0.00    +0.000 C 
ATOM     13  H   UNL     1      48.247  32.457  48.311  0.00  0.00    +0.000 HD
ATOM     14  O   UNL     1      46.194  32.128  48.299  0.00  0.00    +0.000 OA
ATOM     15  C   UNL     1      45.166  32.651  47.524  0.00  0.00    +0.000 C 
ATOM     16  H   UNL     1      44.297  32.804  48.202  0.00  0.00    +0.000 HD
ENDBRANCH   5   9
BRANCH   2  17
ATOM     17  C   UNL     1      44.027  35.289  41.758  0.00  0.00    +0.000 C 
ATOM     18  C   UNL     1      43.017  34.764  41.097  0.00  0.00    +0.000 C 
BRANCH  18  19
ATOM     19  C   UNL     1      42.636  35.202  39.717  0.00  0.00    +0.000 C 
ATOM     20  H   UNL     1      42.122  34.313  39.261  0.00  0.00    +0.000 HD
ATOM     21  H   UNL     1      41.996  36.093  39.722  0.00  0.00    +0.000 HD
ATOM     22  H   UNL     1      43.560  35.351  39.093  0.00  0.00    +0.000 HD
ENDBRANCH  18  19
ENDBRANCH   2  17
TORSDOF 3
