
 OpenBabel03252507493D

 44 46  0  0  1  0  0  0  0  0999 V2000
   46.9320   35.1270   42.4570 C   0  0  0  0  0  0  0  0  0  0  0  0
   47.3620   34.6010   43.3510 H   0  0  0  0  0  0  0  0  0  0  0  0
   46.8670   36.1900   42.7670 H   0  0  0  0  0  0  0  0  0  0  0  0
   45.5450   34.6750   42.1950 C   0  0  0  0  0  0  0  0  0  0  0  0
   44.4890   35.6140   42.1630 C   0  0  0  0  0  0  0  0  0  0  0  0
   43.0190   34.5960   41.8150 S   0  0  0  0  0  0  0  0  0  0  0  0
   44.0960   33.0060   41.7630 C   0  0  0  0  0  0  0  0  0  0  0  0
   45.1300   33.4560   41.9740 N   0  0  0  0  0  0  0  0  0  0  0  0
   44.4860   36.6830   42.3040 H   0  0  0  0  0  0  0  0  0  0  0  0
   43.5770   31.7410   41.5220 O   0  0  0  0  0  0  0  0  0  0  0  0
   41.5330   30.3280   40.6020 O   0  0  0  0  0  0  0  0  0  0  0  0
   41.9020   31.6060   41.3430 P   0  0  1  0  0  0  0  0  0  0  0  0
   41.2260   31.5060   42.9110 O   0  0  0  0  0  0  0  0  0  0  0  0
   41.3440   30.6120   43.3030 H   0  0  0  0  0  0  0  0  0  0  0  0
   41.2740   32.9880   40.5840 O   0  0  0  0  0  0  0  0  0  0  0  0
   40.1940   32.6930   39.7780 C   0  0  1  0  0  0  0  0  0  0  0  0
   38.9460   32.9650   40.5930 C   0  0  0  0  0  0  0  0  0  0  0  0
   38.4380   31.9960   40.7500 H   0  0  0  0  0  0  0  0  0  0  0  0
   38.1690   33.8850   39.6620 C   0  0  0  0  0  0  0  0  0  0  0  0
   37.7330   33.2340   38.8650 H   0  0  0  0  0  0  0  0  0  0  0  0
   39.1700   34.6750   39.1260 O   0  0  0  0  0  0  0  0  0  0  0  0
   40.1190   33.7490   38.6950 C   0  0  0  0  0  0  0  0  0  0  0  0
   41.0760   34.2950   38.5510 H   0  0  0  0  0  0  0  0  0  0  0  0
   47.8370   35.0150   41.2650 C   0  0  0  0  0  0  0  0  0  0  0  0
   48.2530   35.9960   40.9450 H   0  0  0  0  0  0  0  0  0  0  0  0
   47.1840   34.6960   40.4210 H   0  0  0  0  0  0  0  0  0  0  0  0
   48.9660   34.0950   41.4600 C   0  0  0  0  0  0  0  0  0  0  0  0
   48.9810   32.9510   40.6850 C   0  0  0  0  0  0  0  0  0  0  0  0
   50.0060   32.0330   40.8040 C   0  0  0  0  0  0  0  0  0  0  0  0
   50.9990   32.3050   41.7210 N   0  0  0  0  0  0  0  0  0  0  0  0
   50.9440   33.4460   42.4650 C   0  0  0  0  0  0  0  0  0  0  0  0
   49.9480   34.3050   42.3260 N   0  0  0  0  0  0  0  0  0  0  0  0
   50.0500   31.1190   40.2070 H   0  0  0  0  0  0  0  0  0  0  0  0
   51.7130   33.6800   43.1910 H   0  0  0  0  0  0  0  0  0  0  0  0
   47.6590   32.6530   39.5090 S   0  0  0  0  0  0  0  0  0  0  0  0
   48.3380   32.4260   37.8530 C   0  0  0  0  0  0  0  0  0  0  0  0
   49.3950   32.1360   37.9100 H   0  0  0  0  0  0  0  0  0  0  0  0
   47.7640   31.6620   37.3090 H   0  0  0  0  0  0  0  0  0  0  0  0
   48.2880   33.7430   37.1180 C   0  0  0  0  0  0  0  0  0  0  0  0
   49.2770   34.2810   37.1590 H   0  0  0  0  0  0  0  0  0  0  0  0
   47.5540   34.4250   37.5740 H   0  0  0  0  0  0  0  0  0  0  0  0
   48.0050   33.4880   35.7360 N   0  0  0  0  0  0  0  0  0  0  0  0
   47.3150   32.7160   35.6630 H   0  0  0  0  0  0  0  0  0  0  0  0
   47.5440   34.3490   35.3500 H   0  0  0  0  0  0  0  0  0  0  0  0
  1  3  1  0  0  0  0
  1  2  1  0  0  0  0
  4  1  1  0  0  0  0
  5  4  2  0  0  0  0
  5  9  1  0  0  0  0
  6  5  1  0  0  0  0
  7  6  1  0  0  0  0
  7  8  2  0  0  0  0
  8  4  1  0  0  0  0
 10  7  1  0  0  0  0
 12 11  2  6  0  0  0
 12 10  1  0  0  0  0
 12 13  1  0  0  0  0
 13 14  1  0  0  0  0
 15 12  1  0  0  0  0
 16 15  1  1  0  0  0
 16 17  1  0  0  0  0
 17 18  1  0  0  0  0
 19 17  1  0  0  0  0
 20 19  1  0  0  0  0
 21 19  1  0  0  0  0
 22 21  1  0  0  0  0
 22 16  1  0  0  0  0
 23 22  1  0  0  0  0
 24 27  1  0  0  0  0
 24  1  1  0  0  0  0
 25 24  1  0  0  0  0
 26 24  1  0  0  0  0
 27 32  1  0  0  0  0
 28 29  1  0  0  0  0
 28 27  2  0  0  0  0
 29 30  2  0  0  0  0
 30 31  1  0  0  0  0
 31 34  1  0  0  0  0
 32 31  2  0  0  0  0
 33 29  1  0  0  0  0
 35 28  1  0  0  0  0
 36 37  1  0  0  0  0
 36 35  1  0  0  0  0
 38 36  1  0  0  0  0
 39 40  1  0  0  0  0
 39 41  1  0  0  0  0
 39 36  1  0  0  0  0
 42 39  1  0  0  0  0
 43 42  1  0  0  0  0
 44 42  1  0  0  0  0
M  END
>  <minimizedAffinity>
-4.76083136

>  <minimizedRMSD>
2.89453936

$$$$
