
 OpenBabel03242521143D

 27 29  0  0  1  0  0  0  0  0999 V2000
   44.5720   35.6350   44.8670 C   0  0  0  0  0  0  0  0  0  0  0  0
   45.1790   35.6260   43.5870 C   0  0  0  0  0  0  0  0  0  0  0  0
   46.1480   34.6540   43.3450 C   0  0  0  0  0  0  0  0  0  0  0  0
   46.4580   33.7670   44.3530 N   0  0  0  0  0  0  0  0  0  0  0  0
   45.8570   33.8120   45.5520 C   0  0  0  0  0  0  0  0  0  0  0  0
   44.9060   34.7500   45.8200 N   0  0  0  0  0  0  0  0  0  0  0  0
   43.8180   36.3910   45.0560 H   0  0  0  0  0  0  0  0  0  0  0  0
   44.9020   36.3410   42.8320 H   0  0  0  0  0  0  0  0  0  0  0  0
   46.7690   34.6240   42.0740 N   0  0  0  0  0  0  0  0  0  0  0  0
   47.9640   35.2160   41.9370 C   0  0  0  0  0  0  0  0  0  0  0  0
   48.5780   35.1850   40.6820 C   0  0  0  0  0  0  0  0  0  0  0  0
   47.9310   34.5550   39.6580 C   0  0  0  0  0  0  0  0  0  0  0  0
   48.4920   34.5270   38.5070 O   0  0  0  0  0  0  0  0  0  0  0  0
   46.7300   33.9550   39.7780 N   0  0  0  0  0  0  0  0  0  0  0  0
   46.1870   34.0180   41.0190 C   0  0  0  0  0  0  0  0  0  0  0  0
   45.0760   33.4930   41.2380 O   0  0  0  0  0  0  0  0  0  0  0  0
   48.4820   35.7170   42.7440 H   0  0  0  0  0  0  0  0  0  0  0  0
   49.5560   35.6500   40.4970 H   0  0  0  0  0  0  0  0  0  0  0  0
   46.2350   33.4710   38.9920 H   0  0  0  0  0  0  0  0  0  0  0  0
   46.2460   32.8250   46.5820 C   0  0  2  0  0  0  0  0  0  0  0  0
   46.0720   31.4010   46.0980 C   0  0  0  0  0  0  0  0  0  0  0  0
   47.0600   30.9250   45.8430 H   0  0  0  0  0  0  0  0  0  0  0  0
   45.4750   30.7150   47.3070 C   0  0  0  0  0  0  0  0  0  0  0  0
   46.1370   29.8690   47.6330 H   0  0  0  0  0  0  0  0  0  0  0  0
   45.3730   31.6590   48.3030 O   0  0  0  0  0  0  0  0  0  0  0  0
   45.1790   32.8760   47.6620 C   0  0  0  0  0  0  0  0  0  0  0  0
   44.1690   32.9430   47.1800 H   0  0  0  0  0  0  0  0  0  0  0  0
  1  7  1  0  0  0  0
  1  6  1  0  0  0  0
  2  1  2  0  0  0  0
  3  2  1  0  0  0  0
  3  4  2  0  0  0  0
  4  5  1  0  0  0  0
  5  6  2  0  0  0  0
  8  2  1  0  0  0  0
  9  3  1  0  0  0  0
 10  9  1  0  0  0  0
 10 17  1  0  0  0  0
 11 10  2  0  0  0  0
 12 14  1  0  0  0  0
 12 11  1  0  0  0  0
 13 12  2  0  0  0  0
 14 15  1  0  0  0  0
 15 16  2  0  0  0  0
 15  9  1  0  0  0  0
 18 11  1  0  0  0  0
 19 14  1  0  0  0  0
 20  5  1  6  0  0  0
 20 26  1  0  0  0  0
 21 20  1  0  0  0  0
 21 23  1  0  0  0  0
 22 21  1  0  0  0  0
 23 24  1  0  0  0  0
 23 25  1  0  0  0  0
 26 25  1  0  0  0  0
 27 26  1  0  0  0  0
M  END
>  <minimizedAffinity>
-6.04012156

>  <minimizedRMSD>
0.633530617

$$$$
