
 OpenBabel03242516343D

 43 46  0  0  1  0  0  0  0  0999 V2000
   47.7700   33.9000   39.7410 O   0  0  0  0  0  0  0  0  0  0  0  0
   48.0340   34.6580   41.9670 C   0  0  2  0  0  0  0  0  0  0  0  0
   46.7210   33.8750   42.2470 C   0  0  1  0  0  0  0  0  0  0  0  0
   47.2580   32.6620   42.5650 O   0  0  0  0  0  0  0  0  0  0  0  0
   48.1380   32.3930   41.4970 C   0  0  0  0  0  0  0  0  0  0  0  0
   48.5220   33.7510   40.8630 C   0  0  1  0  0  0  0  0  0  0  0  0
   47.8260   35.6750   41.6340 H   0  0  0  0  0  0  0  0  0  0  0  0
   46.1890   33.9580   41.2840 H   0  0  0  0  0  0  0  0  0  0  0  0
   47.6460   31.7400   40.7440 H   0  0  0  0  0  0  0  0  0  0  0  0
   49.0500   31.9740   41.9370 H   0  0  0  0  0  0  0  0  0  0  0  0
   49.6080   33.8620   40.7170 H   0  0  0  0  0  0  0  0  0  0  0  0
   44.5240   36.0570   44.4530 C   0  0  0  0  0  0  0  0  0  0  0  0
   45.1880   35.6760   43.2850 C   0  0  0  0  0  0  0  0  0  0  0  0
   45.9480   34.5210   43.3160 C   0  0  0  0  0  0  0  0  0  0  0  0
   45.9970   33.8260   44.5040 N   0  0  0  0  0  0  0  0  0  0  0  0
   45.3450   34.2220   45.6100 C   0  0  0  0  0  0  0  0  0  0  0  0
   44.6050   35.3470   45.5800 N   0  0  0  0  0  0  0  0  0  0  0  0
   43.9510   36.9710   44.3500 H   0  0  0  0  0  0  0  0  0  0  0  0
   45.2010   36.1520   42.3360 H   0  0  0  0  0  0  0  0  0  0  0  0
   45.4050   33.6520   46.5270 H   0  0  0  0  0  0  0  0  0  0  0  0
   48.9090   34.5270   43.0030 O   0  0  0  0  0  0  0  0  0  0  0  0
   49.1040   35.3960   43.4590 H   0  0  0  0  0  0  0  0  0  0  0  0
   49.1360   32.9340   38.0830 C   0  0  1  0  0  0  0  0  0  0  0  0
   48.4500   34.3020   38.5940 C   0  0  1  0  0  0  0  0  0  0  0  0
   47.5750   34.4530   37.5840 O   0  0  0  0  0  0  0  0  0  0  0  0
   46.8520   33.2420   37.6920 C   0  0  0  0  0  0  0  0  0  0  0  0
   47.9410   32.2460   37.4870 C   0  0  1  0  0  0  0  0  0  0  0  0
   49.6260   32.4550   38.9070 H   0  0  0  0  0  0  0  0  0  0  0  0
   49.3430   34.8970   38.7510 H   0  0  0  0  0  0  0  0  0  0  0  0
   46.0240   33.1940   36.9800 H   0  0  0  0  0  0  0  0  0  0  0  0
   46.4010   33.0950   38.6880 H   0  0  0  0  0  0  0  0  0  0  0  0
   47.8090   31.2920   38.0610 H   0  0  0  0  0  0  0  0  0  0  0  0
   49.9490   33.3330   37.0170 O   0  0  0  0  0  0  0  0  0  0  0  0
   50.8970   33.2040   37.2740 H   0  0  0  0  0  0  0  0  0  0  0  0
   48.1110   31.9260   36.1860 O   0  0  0  0  0  0  0  0  0  0  0  0
   47.8210   30.6810   35.7540 C   0  0  1  0  0  3  0  0  0  0  0  0
   46.5720   30.5540   34.9040 C   0  0  0  0  0  3  0  0  0  0  0  0
   45.7490   30.0520   35.4530 H   0  0  0  0  0  0  0  0  0  0  0  0
   47.0340   29.5620   33.8340 C   0  0  0  0  0  3  0  0  0  0  0  0
   46.3370   28.7070   33.7230 H   0  0  0  0  0  0  0  0  0  0  0  0
   48.3230   29.1710   34.1870 O   0  0  0  0  0  0  0  0  0  0  0  0
   48.8720   30.3280   34.6940 C   0  0  0  0  0  3  0  0  0  0  0  0
   49.8670   30.2260   35.1170 H   0  0  0  0  0  0  0  0  0  0  0  0
  1  6  1  0  0  0  0
  2  7  1  6  0  0  0
  2  3  1  0  0  0  0
  2 21  1  0  0  0  0
  3  8  1  6  0  0  0
  3  4  1  0  0  0  0
  3 14  1  0  0  0  0
  5 10  1  0  0  0  0
  5  4  1  0  0  0  0
  6 11  1  6  0  0  0
  6  5  1  0  0  0  0
  6  2  1  0  0  0  0
  9  5  1  0  0  0  0
 12 17  1  0  0  0  0
 13 14  1  0  0  0  0
 13 12  2  0  0  0  0
 14 15  2  0  0  0  0
 15 16  1  0  0  0  0
 16 20  1  0  0  0  0
 17 16  2  0  0  0  0
 18 12  1  0  0  0  0
 19 13  1  0  0  0  0
 21 22  1  0  0  0  0
 23 24  1  0  0  0  0
 23 28  1  1  0  0  0
 24 29  1  1  0  0  0
 24  1  1  0  0  0  0
 25 26  1  0  0  0  0
 25 24  1  0  0  0  0
 26 31  1  0  0  0  0
 27 26  1  0  0  0  0
 27 32  1  1  0  0  0
 27 23  1  0  0  0  0
 30 26  1  0  0  0  0
 33 34  1  0  0  0  0
 33 23  1  0  0  0  0
 35 27  1  0  0  0  0
 36 35  1  6  0  0  0
 37 38  1  0  0  0  0
 37 36  1  0  0  0  0
 39 41  1  0  0  0  0
 39 37  1  0  0  0  0
 40 39  1  0  0  0  0
 41 42  1  0  0  0  0
 42 43  1  0  0  0  0
 42 36  1  0  0  0  0
M  END
>  <minimizedAffinity>
-5.16305494

>  <minimizedRMSD>
0.276757538

$$$$
