
 OpenBabel03252505583D

 35 37  0  0  1  0  0  0  0  0999 V2000
   44.8630   35.1220   44.9070 C   0  0  0  0  0  0  0  0  0  0  0  0
   45.3450   34.5140   43.7290 C   0  0  0  0  0  0  0  0  0  0  0  0
   45.9730   33.2840   43.8660 C   0  0  0  0  0  0  0  0  0  0  0  0
   46.0850   32.7500   45.1020 N   0  0  0  0  0  0  0  0  0  0  0  0
   45.6160   33.3540   46.1950 C   0  0  0  0  0  0  0  0  0  0  0  0
   45.0090   34.5320   46.1040 N   0  0  0  0  0  0  0  0  0  0  0  0
   44.3710   36.0810   44.8100 H   0  0  0  0  0  0  0  0  0  0  0  0
   46.5340   32.4840   42.7940 C   0  0  2  0  0  3  0  0  0  0  0  0
   46.6600   31.0460   43.3310 C   0  0  0  0  0  3  0  0  0  0  0  0
   46.0030   30.3370   42.7900 H   0  0  0  0  0  0  0  0  0  0  0  0
   48.0860   30.6440   43.1370 C   0  0  0  0  0  3  0  0  0  0  0  0
   48.4600   29.9440   43.9010 H   0  0  0  0  0  0  0  0  0  0  0  0
   48.7300   31.8640   43.3510 O   0  0  0  0  0  0  0  0  0  0  0  0
   48.0120   32.7750   42.5770 C   0  0  0  0  0  3  0  0  0  0  0  0
   48.2390   32.5750   41.5120 H   0  0  0  0  0  0  0  0  0  0  0  0
   45.1650   35.1950   42.4280 C   0  0  0  0  0  0  0  0  0  0  0  0
   44.5880   36.4200   42.7630 F   0  0  0  0  0  0  0  0  0  0  0  0
   44.1960   34.4730   41.7290 F   0  0  0  0  0  0  0  0  0  0  0  0
   46.3220   35.3570   41.7990 F   0  0  0  0  0  0  0  0  0  0  0  0
   45.7340   32.8000   47.4670 O   0  0  0  0  0  0  0  0  0  0  0  0
   45.2540   31.4950   47.7260 C   0  0  0  0  0  0  0  0  0  0  0  0
   44.7880   31.5170   48.7410 H   0  0  0  0  0  0  0  0  0  0  0  0
   44.4680   31.1670   47.0240 H   0  0  0  0  0  0  0  0  0  0  0  0
   46.4230   30.6010   47.7910 C   0  0  0  0  0  0  0  0  0  0  0  0
   46.6160   29.3430   47.2340 C   0  0  0  0  0  0  0  0  0  0  0  0
   47.8080   28.7260   47.4530 C   0  0  0  0  0  0  0  0  0  0  0  0
   48.7800   29.2830   48.1730 N   0  0  0  0  0  0  0  0  0  0  0  0
   48.5860   30.4960   48.7060 C   0  0  0  0  0  0  0  0  0  0  0  0
   47.4090   31.1690   48.5230 N   0  0  0  0  0  0  0  0  0  0  0  0
   45.7690   29.0090   46.6840 H   0  0  0  0  0  0  0  0  0  0  0  0
   47.8920   27.7450   46.9880 H   0  0  0  0  0  0  0  0  0  0  0  0
   49.7230   31.0320   49.4890 C   0  0  0  0  0  0  0  0  0  0  0  0
   49.7640   32.4100   49.4440 F   0  0  0  0  0  0  0  0  0  0  0  0
   50.9280   30.5400   48.9830 F   0  0  0  0  0  0  0  0  0  0  0  0
   49.6640   30.6600   50.8170 F   0  0  0  0  0  0  0  0  0  0  0  0
  1  6  1  0  0  0  0
  2  3  1  0  0  0  0
  2  1  2  0  0  0  0
  3  4  2  0  0  0  0
  4  5  1  0  0  0  0
  5 20  1  0  0  0  0
  6  5  2  0  0  0  0
  7  1  1  0  0  0  0
  8  9  1  0  0  0  0
  8  3  1  1  0  0  0
 10  9  1  0  0  0  0
 11  9  1  0  0  0  0
 11 13  1  0  0  0  0
 11 12  1  0  0  0  0
 14  8  1  0  0  0  0
 14 13  1  0  0  0  0
 15 14  1  0  0  0  0
 16 17  1  0  0  0  0
 16  2  1  0  0  0  0
 18 16  1  0  0  0  0
 19 16  1  0  0  0  0
 20 21  1  0  0  0  0
 21 24  1  0  0  0  0
 21 22  1  0  0  0  0
 23 21  1  0  0  0  0
 24 29  1  0  0  0  0
 25 26  1  0  0  0  0
 25 24  2  0  0  0  0
 26 27  2  0  0  0  0
 27 28  1  0  0  0  0
 28 32  1  0  0  0  0
 29 28  2  0  0  0  0
 30 25  1  0  0  0  0
 31 26  1  0  0  0  0
 32 35  1  0  0  0  0
 33 32  1  0  0  0  0
 34 32  1  0  0  0  0
M  END
>  <minimizedAffinity>
-5.25995302

>  <minimizedRMSD>
0.930306077

$$$$
