
 OpenBabel03252507083D

 23 24  0  0  1  0  0  0  0  0999 V2000
   44.5730   35.7660   44.7130 C   0  0  0  0  0  0  0  0  0  0  0  0
   45.1730   35.8250   43.4300 C   0  0  0  0  0  0  0  0  0  0  0  0
   46.1420   34.8830   43.1120 C   0  0  0  0  0  0  0  0  0  0  0  0
   46.4660   33.9490   44.0540 N   0  0  0  0  0  0  0  0  0  0  0  0
   45.8850   33.9130   45.2610 C   0  0  0  0  0  0  0  0  0  0  0  0
   44.9350   34.8230   45.5940 N   0  0  0  0  0  0  0  0  0  0  0  0
   43.8290   36.5500   44.8510 H   0  0  0  0  0  0  0  0  0  0  0  0
   44.9050   36.5730   42.6950 H   0  0  0  0  0  0  0  0  0  0  0  0
   46.2320   32.9080   46.2760 C   0  0  1  0  0  3  0  0  0  0  0  0
   45.2620   32.9390   47.4650 C   0  0  0  0  0  3  0  0  0  0  0  0
   45.5400   33.8000   48.1090 H   0  0  0  0  0  0  0  0  0  0  0  0
   45.6590   31.6060   48.0680 C   0  0  0  0  0  3  0  0  0  0  0  0
   44.9230   31.2040   48.7770 H   0  0  0  0  0  0  0  0  0  0  0  0
   45.9860   30.7660   47.0210 O   0  0  0  0  0  0  0  0  0  0  0  0
   46.0570   31.4870   45.8560 C   0  0  0  0  0  3  0  0  0  0  0  0
   45.0680   31.3500   45.3330 H   0  0  0  0  0  0  0  0  0  0  0  0
   46.7180   34.9520   41.8610 O   0  0  0  0  0  0  0  0  0  0  0  0
   48.5950   33.2460   41.1160 O   0  0  0  0  0  0  0  0  0  0  0  0
   48.4000   34.6550   41.6870 P   0  0  0  0  0  0  0  0  0  0  0  0
   49.0760   35.8260   40.7190 O   0  0  0  0  0  0  0  0  0  0  0  0
   49.9240   36.1560   41.1380 H   0  0  0  0  0  0  0  0  0  0  0  0
   49.0750   34.6600   43.2510 O   0  0  0  0  0  0  0  0  0  0  0  0
   48.9730   33.7570   43.6100 H   0  0  0  0  0  0  0  0  0  0  0  0
  1  7  1  0  0  0  0
  1  6  1  0  0  0  0
  2  1  2  0  0  0  0
  3  2  1  0  0  0  0
  3  4  2  0  0  0  0
  4  5  1  0  0  0  0
  5  6  2  0  0  0  0
  8  2  1  0  0  0  0
  9  5  1  6  0  0  0
  9 10  1  0  0  0  0
 10 12  1  0  0  0  0
 10 11  1  0  0  0  0
 12 13  1  0  0  0  0
 14 12  1  0  0  0  0
 15  9  1  0  0  0  0
 15 14  1  0  0  0  0
 16 15  1  0  0  0  0
 17  3  1  0  0  0  0
 18 19  2  0  0  0  0
 19 17  1  0  0  0  0
 19 22  1  0  0  0  0
 20 21  1  0  0  0  0
 20 19  1  0  0  0  0
 22 23  1  0  0  0  0
M  END
>  <minimizedAffinity>
-5.34938622

>  <minimizedRMSD>
0.542782307

$$$$
