
 OpenBabel03242521283D

 34 36  0  0  1  0  0  0  0  0999 V2000
   47.8580   33.3810   42.5330 C   0  0  1  0  0  0  0  0  0  0  0  0
   46.4120   33.7410   42.2860 C   0  0  2  0  0  0  0  0  0  0  0  0
   46.2800   34.6840   41.2870 O   0  0  0  0  0  0  0  0  0  0  0  0
   46.6010   34.0420   40.1020 C   0  0  0  0  0  0  0  0  0  0  0  0
   48.0930   33.8400   40.0700 C   0  0  2  0  0  0  0  0  0  0  0  0
   48.6600   33.1930   41.2940 C   0  0  2  0  0  0  0  0  0  0  0  0
   47.8210   32.3830   43.0640 H   0  0  0  0  0  0  0  0  0  0  0  0
   45.8900   32.8040   41.9830 H   0  0  0  0  0  0  0  0  0  0  0  0
   46.0430   33.1030   39.9260 H   0  0  0  0  0  0  0  0  0  0  0  0
   46.3770   34.7620   39.2720 H   0  0  0  0  0  0  0  0  0  0  0  0
   48.3580   33.2310   39.1770 H   0  0  0  0  0  0  0  0  0  0  0  0
   49.6520   33.6990   41.4770 H   0  0  0  0  0  0  0  0  0  0  0  0
   44.4830   35.9020   44.7280 C   0  0  0  0  0  0  0  0  0  0  0  0
   45.0470   35.4700   43.5170 C   0  0  0  0  0  0  0  0  0  0  0  0
   45.7810   34.2500   43.5210 C   0  0  0  0  0  0  0  0  0  0  0  0
   45.9010   33.5640   44.6840 N   0  0  0  0  0  0  0  0  0  0  0  0
   45.3350   34.0240   45.8370 C   0  0  0  0  0  0  0  0  0  0  0  0
   44.6280   35.1890   45.8600 N   0  0  0  0  0  0  0  0  0  0  0  0
   43.9180   36.8220   44.7660 H   0  0  0  0  0  0  0  0  0  0  0  0
   44.9370   36.0370   42.5980 H   0  0  0  0  0  0  0  0  0  0  0  0
   45.4990   33.3930   46.7010 H   0  0  0  0  0  0  0  0  0  0  0  0
   48.4650   34.2480   43.4490 O   0  0  0  0  0  0  0  0  0  0  0  0
   48.7150   33.8360   44.2930 H   0  0  0  0  0  0  0  0  0  0  0  0
   48.6500   35.1070   39.8450 O   0  0  0  0  0  0  0  0  0  0  0  0
   48.5110   35.3820   38.9190 H   0  0  0  0  0  0  0  0  0  0  0  0
   49.0000   31.8440   41.0880 O   0  0  0  0  0  0  0  0  0  0  0  0
   50.2920   31.6570   40.6640 C   0  0  2  0  0  3  0  0  0  0  0  0
   50.6580   30.2060   40.8600 C   0  0  0  0  0  3  0  0  0  0  0  0
   51.6200   30.0400   40.3180 H   0  0  0  0  0  0  0  0  0  0  0  0
   50.9750   30.1820   42.3320 C   0  0  0  0  0  3  0  0  0  0  0  0
   50.0620   29.8530   42.8790 H   0  0  0  0  0  0  0  0  0  0  0  0
   51.3280   31.4540   42.7340 O   0  0  0  0  0  0  0  0  0  0  0  0
   51.2760   32.2970   41.6360 C   0  0  0  0  0  3  0  0  0  0  0  0
   50.9550   33.2940   41.9670 H   0  0  0  0  0  0  0  0  0  0  0  0
  1  7  1  1  0  0  0
  1 22  1  0  0  0  0
  2  8  1  6  0  0  0
  2  1  1  0  0  0  0
  2 15  1  0  0  0  0
  3  2  1  0  0  0  0
  4  3  1  0  0  0  0
  5 11  1  6  0  0  0
  5  4  1  0  0  0  0
  5  6  1  0  0  0  0
  6 12  1  1  0  0  0
  6  1  1  0  0  0  0
  9  4  1  0  0  0  0
 10  4  1  0  0  0  0
 13 19  1  0  0  0  0
 13 18  1  0  0  0  0
 14 15  1  0  0  0  0
 14 13  2  0  0  0  0
 15 16  2  0  0  0  0
 16 17  1  0  0  0  0
 17 18  2  0  0  0  0
 17 21  1  0  0  0  0
 20 14  1  0  0  0  0
 22 23  1  0  0  0  0
 24  5  1  0  0  0  0
 25 24  1  0  0  0  0
 26  6  1  0  0  0  0
 27 28  1  0  0  0  0
 27 26  1  1  0  0  0
 27 33  1  0  0  0  0
 28 30  1  0  0  0  0
 29 28  1  0  0  0  0
 30 32  1  0  0  0  0
 30 31  1  0  0  0  0
 33 34  1  0  0  0  0
 33 32  1  0  0  0  0
M  END
>  <minimizedAffinity>
-5.13975573

>  <minimizedRMSD>
0.529682398

$$$$
