
 OpenBabel03252500153D

 37 40  0  0  1  0  0  0  0  0999 V2000
   45.4960   32.3320   40.5520 Cl  0  0  0  0  0  0  0  0  0  0  0  0
   46.7870   33.4380   40.1940 C   0  0  0  0  0  0  0  0  0  0  0  0
   47.3730   34.1860   41.1810 C   0  0  0  0  0  0  0  0  0  0  0  0
   48.4080   35.0800   40.9230 C   0  0  0  0  0  0  0  0  0  0  0  0
   48.8110   35.1710   39.6130 C   0  0  0  0  0  0  0  0  0  0  0  0
   48.2280   34.4210   38.6070 C   0  0  0  0  0  0  0  0  0  0  0  0
   47.2280   33.5640   38.8900 C   0  0  0  0  0  0  0  0  0  0  0  0
   48.8660   35.6650   41.6920 H   0  0  0  0  0  0  0  0  0  0  0  0
   49.6120   35.8590   39.4030 H   0  0  0  0  0  0  0  0  0  0  0  0
   48.5620   34.5070   37.5850 H   0  0  0  0  0  0  0  0  0  0  0  0
   46.9020   32.9060   44.6070 C   0  0  0  0  0  0  0  0  0  0  0  0
   45.9610   33.8150   45.1520 C   0  0  0  0  0  0  0  0  0  0  0  0
   45.5090   34.8480   44.3310 C   0  0  0  0  0  0  0  0  0  0  0  0
   45.9970   34.9220   43.0560 N   0  0  0  0  0  0  0  0  0  0  0  0
   46.8920   34.0420   42.5660 C   0  0  0  0  0  0  0  0  0  0  0  0
   47.3310   33.0520   43.3420 N   0  0  0  0  0  0  0  0  0  0  0  0
   47.2330   32.1140   45.2730 H   0  0  0  0  0  0  0  0  0  0  0  0
   45.5590   33.7850   46.1460 H   0  0  0  0  0  0  0  0  0  0  0  0
   44.5170   35.8690   44.7900 C   0  0  0  0  0  0  0  0  0  0  0  0
   44.9750   37.1280   44.5620 F   0  0  0  0  0  0  0  0  0  0  0  0
   43.3410   35.6780   44.0910 F   0  0  0  0  0  0  0  0  0  0  0  0
   44.3060   35.6390   46.1250 F   0  0  0  0  0  0  0  0  0  0  0  0
   46.5960   32.7620   37.8460 C   0  0  0  0  0  0  0  0  0  0  0  0
   45.5710   33.2340   37.0130 C   0  0  0  0  0  0  0  0  0  0  0  0
   45.2140   32.2120   36.1480 C   0  0  0  0  0  0  0  0  0  0  0  0
   46.0550   31.1700   36.5130 C   0  0  0  0  0  0  0  0  0  0  0  0
   46.8510   31.5110   37.5040 O   0  0  0  0  0  0  0  0  0  0  0  0
   45.1390   34.2260   37.0460 H   0  0  0  0  0  0  0  0  0  0  0  0
   44.4800   32.2020   35.3820 H   0  0  0  0  0  0  0  0  0  0  0  0
   46.0910   29.8340   35.9030 C   0  0  1  0  0  3  0  0  0  0  0  0
   45.3220   29.7650   34.5760 C   0  0  0  0  0  3  0  0  0  0  0  0
   45.6580   30.5530   33.8890 H   0  0  0  0  0  0  0  0  0  0  0  0
   45.9110   28.4390   34.0760 C   0  0  0  0  0  3  0  0  0  0  0  0
   45.7170   28.2720   33.0060 H   0  0  0  0  0  0  0  0  0  0  0  0
   47.2480   28.4680   34.4240 O   0  0  0  0  0  0  0  0  0  0  0  0
   47.4420   29.3980   35.4240 C   0  0  0  0  0  3  0  0  0  0  0  0
   47.9380   30.2750   34.9550 H   0  0  0  0  0  0  0  0  0  0  0  0
  2  1  1  0  0  0  0
  2  3  1  0  0  0  0
  3 15  1  0  0  0  0
  4  3  2  0  0  0  0
  4  8  1  0  0  0  0
  5  4  1  0  0  0  0
  6  7  1  0  0  0  0
  6  5  2  0  0  0  0
  7  2  2  0  0  0  0
  9  5  1  0  0  0  0
 10  6  1  0  0  0  0
 11 12  1  0  0  0  0
 11 17  1  0  0  0  0
 12 18  1  0  0  0  0
 13 19  1  0  0  0  0
 13 12  2  0  0  0  0
 14 13  1  0  0  0  0
 15 14  2  0  0  0  0
 15 16  1  0  0  0  0
 16 11  2  0  0  0  0
 19 22  1  0  0  0  0
 20 19  1  0  0  0  0
 21 19  1  0  0  0  0
 23  7  1  0  0  0  0
 24 28  1  0  0  0  0
 24 23  2  0  0  0  0
 25 26  2  0  0  0  0
 25 24  1  0  0  0  0
 26 27  1  0  0  0  0
 27 23  1  0  0  0  0
 29 25  1  0  0  0  0
 30 26  1  6  0  0  0
 31 30  1  0  0  0  0
 32 31  1  0  0  0  0
 33 35  1  0  0  0  0
 33 31  1  0  0  0  0
 34 33  1  0  0  0  0
 35 36  1  0  0  0  0
 36 30  1  0  0  0  0
 37 36  1  0  0  0  0
M  END
>  <minimizedAffinity>
-5.66299152

>  <minimizedRMSD>
0.0797717944

$$$$
