
 OpenBabel03252505313D

 26 27  0  0  1  0  0  0  0  0999 V2000
   46.7920   32.0020   48.5240 O   0  0  0  0  0  0  0  0  0  0  0  0
   45.7800   32.3330   47.4210 P   0  0  1  0  0  0  0  0  0  0  0  0
   44.5670   33.3410   47.9910 O   0  0  0  0  0  0  0  0  0  0  0  0
   44.8720   33.9490   48.7190 H   0  0  0  0  0  0  0  0  0  0  0  0
   46.6350   33.0690   46.1630 O   0  0  0  0  0  0  0  0  0  0  0  0
   44.5530   35.5630   44.7560 C   0  0  0  0  0  0  0  0  0  0  0  0
   45.0150   35.7180   43.4350 C   0  0  0  0  0  0  0  0  0  0  0  0
   46.1090   34.8960   43.0500 C   0  0  0  0  0  0  0  0  0  0  0  0
   46.6210   34.0290   43.9800 N   0  0  0  0  0  0  0  0  0  0  0  0
   46.1310   33.9340   45.2200 C   0  0  0  0  0  0  0  0  0  0  0  0
   45.1050   34.6920   45.6110 N   0  0  0  0  0  0  0  0  0  0  0  0
   43.7110   36.1790   45.0910 H   0  0  0  0  0  0  0  0  0  0  0  0
   44.5910   36.4040   42.7390 H   0  0  0  0  0  0  0  0  0  0  0  0
   46.5290   34.9470   42.0580 H   0  0  0  0  0  0  0  0  0  0  0  0
   45.0840   30.8740   46.9680 O   0  0  0  0  0  0  0  0  0  0  0  0
   45.7360   29.8480   47.5860 C   0  0  0  0  0  0  0  0  0  0  0  0
   46.8200   29.9360   47.6490 H   0  0  0  0  0  0  0  0  0  0  0  0
   45.3680   29.8180   48.6460 H   0  0  0  0  0  0  0  0  0  0  0  0
   45.4190   28.4890   47.0160 C   0  0  2  0  0  3  0  0  0  0  0  0
   44.1610   28.4780   46.1670 C   0  0  0  0  0  3  0  0  0  0  0  0
   44.4320   28.7400   45.1370 H   0  0  0  0  0  0  0  0  0  0  0  0
   43.7890   26.9960   46.3140 C   0  0  0  0  0  3  0  0  0  0  0  0
   42.7390   26.7980   46.0280 H   0  0  0  0  0  0  0  0  0  0  0  0
   43.9960   26.7600   47.6490 O   0  0  0  0  0  0  0  0  0  0  0  0
   45.0230   27.5430   48.1180 C   0  0  0  0  0  3  0  0  0  0  0  0
   44.7150   28.1000   49.0490 H   0  0  0  0  0  0  0  0  0  0  0  0
  2  3  1  0  0  0  0
  2  1  2  1  0  0  0
  3  4  1  0  0  0  0
  5  2  1  0  0  0  0
  6 12  1  0  0  0  0
  6 11  1  0  0  0  0
  7  6  2  0  0  0  0
  8  7  1  0  0  0  0
  8  9  2  0  0  0  0
  9 10  1  0  0  0  0
 10 11  2  0  0  0  0
 10  5  1  0  0  0  0
 13  7  1  0  0  0  0
 14  8  1  0  0  0  0
 15  2  1  0  0  0  0
 15 16  1  0  0  0  0
 16 17  1  0  0  0  0
 16 18  1  0  0  0  0
 19 16  1  1  0  0  0
 19 25  1  0  0  0  0
 20 22  1  0  0  0  0
 20 19  1  0  0  0  0
 21 20  1  0  0  0  0
 22 24  1  0  0  0  0
 23 22  1  0  0  0  0
 24 25  1  0  0  0  0
 25 26  1  0  0  0  0
M  END
>  <minimizedAffinity>
-4.427526

>  <minimizedRMSD>
0.911118865

$$$$
