
 OpenBabel03242512193D

 32 34  0  0  1  0  0  0  0  0999 V2000
   38.2360   29.1600   42.6770 C   0  0  0  0  0  0  0  0  0  0  0  0
   38.4910   27.8470   43.0360 C   0  0  0  0  0  0  0  0  0  0  0  0
   39.8170   27.4300   43.1560 C   0  0  0  0  0  0  0  0  0  0  0  0
   40.8150   28.3690   42.9040 C   0  0  0  0  0  0  0  0  0  0  0  0
   40.5080   29.6540   42.5520 C   0  0  0  0  0  0  0  0  0  0  0  0
   39.1990   30.0970   42.4260 C   0  0  0  0  0  0  0  0  0  0  0  0
   39.8970   26.3990   43.4390 H   0  0  0  0  0  0  0  0  0  0  0  0
   41.7770   27.8930   43.0380 H   0  0  0  0  0  0  0  0  0  0  0  0
   41.4410   30.1490   42.4190 H   0  0  0  0  0  0  0  0  0  0  0  0
   37.3150   27.0000   43.2670 C   0  0  0  0  0  0  0  0  0  0  0  0
   37.5990   26.2750   44.0850 H   0  0  0  0  0  0  0  0  0  0  0  0
   36.4640   27.5400   43.6400 H   0  0  0  0  0  0  0  0  0  0  0  0
   37.0340   26.1760   42.0330 C   0  0  0  0  0  0  0  0  0  0  0  0
   36.9780   24.8020   42.1880 C   0  0  0  0  0  0  0  0  0  0  0  0
   36.7090   24.0270   41.0610 C   0  0  0  0  0  0  0  0  0  0  0  0
   36.5210   24.6600   39.8850 N   0  0  0  0  0  0  0  0  0  0  0  0
   36.5860   26.0250   39.7690 C   0  0  0  0  0  0  0  0  0  0  0  0
   36.8410   26.7700   40.8410 N   0  0  0  0  0  0  0  0  0  0  0  0
   37.1380   24.3480   43.1650 H   0  0  0  0  0  0  0  0  0  0  0  0
   36.6610   22.9600   41.1600 H   0  0  0  0  0  0  0  0  0  0  0  0
   36.4250   26.4820   38.7950 H   0  0  0  0  0  0  0  0  0  0  0  0
   36.9250   29.6700   42.5330 O   0  0  0  0  0  0  0  0  0  0  0  0
   36.6160   29.7410   41.5710 H   0  0  0  0  0  0  0  0  0  0  0  0
   38.9770   31.4050   42.0760 O   0  0  0  0  0  0  0  0  0  0  0  0
   38.9360   31.8490   40.7700 C   0  0  2  0  0  3  0  0  0  0  0  0
   39.7300   33.1620   40.6750 C   0  0  0  0  0  3  0  0  0  0  0  0
   40.5080   33.0050   39.9290 H   0  0  0  0  0  0  0  0  0  0  0  0
   38.6850   34.1600   40.2750 C   0  0  0  0  0  3  0  0  0  0  0  0
   39.1480   34.9420   39.6600 H   0  0  0  0  0  0  0  0  0  0  0  0
   37.7750   33.3940   39.5490 O   0  0  0  0  0  0  0  0  0  0  0  0
   37.5350   32.2790   40.3440 C   0  0  0  0  0  3  0  0  0  0  0  0
   36.8620   32.4530   41.1830 H   0  0  0  0  0  0  0  0  0  0  0  0
  1  2  1  0  0  0  0
  2  3  2  0  0  0  0
  2 10  1  0  0  0  0
  3  7  1  0  0  0  0
  4  8  1  0  0  0  0
  4  3  1  0  0  0  0
  5  4  2  0  0  0  0
  6  5  1  0  0  0  0
  6  1  2  0  0  0  0
  9  5  1  0  0  0  0
 10 12  1  0  0  0  0
 10 11  1  0  0  0  0
 13 14  1  0  0  0  0
 13 10  1  0  0  0  0
 14 19  1  0  0  0  0
 15 20  1  0  0  0  0
 15 14  2  0  0  0  0
 16 15  1  0  0  0  0
 17 16  2  0  0  0  0
 17 18  1  0  0  0  0
 18 13  2  0  0  0  0
 21 17  1  0  0  0  0
 22  1  1  0  0  0  0
 23 22  1  0  0  0  0
 24  6  1  0  0  0  0
 25 24  1  1  0  0  0
 26 25  1  0  0  0  0
 27 26  1  0  0  0  0
 28 26  1  0  0  0  0
 29 28  1  0  0  0  0
 30 28  1  0  0  0  0
 30 31  1  0  0  0  0
 31 25  1  0  0  0  0
 31 32  1  0  0  0  0
M  END
>  <minimizedAffinity>
-5.38359356

$$$$

 OpenBabel03242512193D

 32 34  0  0  1  0  0  0  0  0999 V2000
   37.4210   29.5590   42.1150 C   0  0  0  0  0  0  0  0  0  0  0  0
   36.5710   28.4810   41.9290 C   0  0  0  0  0  0  0  0  0  0  0  0
   35.7790   28.4430   40.7820 C   0  0  0  0  0  0  0  0  0  0  0  0
   35.8890   29.5020   39.8840 C   0  0  0  0  0  0  0  0  0  0  0  0
   36.7450   30.5430   40.1170 C   0  0  0  0  0  0  0  0  0  0  0  0
   37.5470   30.6070   41.2480 C   0  0  0  0  0  0  0  0  0  0  0  0
   35.1630   27.5660   40.7390 H   0  0  0  0  0  0  0  0  0  0  0  0
   35.2160   29.3240   39.0570 H   0  0  0  0  0  0  0  0  0  0  0  0
   36.6320   31.2030   39.2890 H   0  0  0  0  0  0  0  0  0  0  0  0
   36.5890   27.4540   42.9780 C   0  0  0  0  0  0  0  0  0  0  0  0
   37.0330   27.9420   43.8940 H   0  0  0  0  0  0  0  0  0  0  0  0
   35.6090   27.1220   43.2700 H   0  0  0  0  0  0  0  0  0  0  0  0
   37.5270   26.3400   42.5800 C   0  0  0  0  0  0  0  0  0  0  0  0
   36.9570   25.1340   42.2130 C   0  0  0  0  0  0  0  0  0  0  0  0
   37.8090   24.0970   41.8330 C   0  0  0  0  0  0  0  0  0  0  0  0
   39.1370   24.3280   41.8480 N   0  0  0  0  0  0  0  0  0  0  0  0
   39.6670   25.5380   42.2200 C   0  0  0  0  0  0  0  0  0  0  0  0
   38.8590   26.5310   42.5820 N   0  0  0  0  0  0  0  0  0  0  0  0
   35.8760   25.0070   42.2200 H   0  0  0  0  0  0  0  0  0  0  0  0
   37.3860   23.1530   41.5450 H   0  0  0  0  0  0  0  0  0  0  0  0
   40.7460   25.6680   42.2120 H   0  0  0  0  0  0  0  0  0  0  0  0
   38.2610   29.6800   43.2460 O   0  0  0  0  0  0  0  0  0  0  0  0
   37.9090   30.3170   43.9530 H   0  0  0  0  0  0  0  0  0  0  0  0
   38.3830   31.6830   41.4010 O   0  0  0  0  0  0  0  0  0  0  0  0
   38.9680   32.3530   40.3450 C   0  0  2  0  0  3  0  0  0  0  0  0
   40.4330   31.9040   40.2320 C   0  0  0  0  0  3  0  0  0  0  0  0
   40.5630   31.5070   39.2260 H   0  0  0  0  0  0  0  0  0  0  0  0
   41.1950   33.1670   40.5000 C   0  0  0  0  0  3  0  0  0  0  0  0
   42.1370   33.1470   39.9360 H   0  0  0  0  0  0  0  0  0  0  0  0
   40.3330   34.1610   40.0420 O   0  0  0  0  0  0  0  0  0  0  0  0
   39.1010   33.8510   40.6060 C   0  0  0  0  0  3  0  0  0  0  0  0
   39.0000   34.1170   41.6570 H   0  0  0  0  0  0  0  0  0  0  0  0
  1 22  1  0  0  0  0
  2  1  1  0  0  0  0
  2 10  1  0  0  0  0
  3  2  2  0  0  0  0
  4  5  2  0  0  0  0
  4  3  1  0  0  0  0
  5  6  1  0  0  0  0
  6 24  1  0  0  0  0
  6  1  2  0  0  0  0
  7  3  1  0  0  0  0
  8  4  1  0  0  0  0
  9  5  1  0  0  0  0
 10 12  1  0  0  0  0
 10 11  1  0  0  0  0
 13 18  1  0  0  0  0
 13 10  1  0  0  0  0
 14 19  1  0  0  0  0
 14 13  2  0  0  0  0
 15 16  2  0  0  0  0
 15 14  1  0  0  0  0
 16 17  1  0  0  0  0
 17 18  2  0  0  0  0
 20 15  1  0  0  0  0
 21 17  1  0  0  0  0
 22 23  1  0  0  0  0
 25 31  1  0  0  0  0
 25 24  1  1  0  0  0
 26 25  1  0  0  0  0
 26 28  1  0  0  0  0
 27 26  1  0  0  0  0
 29 28  1  0  0  0  0
 30 28  1  0  0  0  0
 30 31  1  0  0  0  0
 31 32  1  0  0  0  0
M  END
>  <minimizedAffinity>
-5.28304625

$$$$

 OpenBabel03242512193D

 32 34  0  0  1  0  0  0  0  0999 V2000
   37.0600   29.3740   41.8010 C   0  0  0  0  0  0  0  0  0  0  0  0
   37.9880   29.0900   42.7900 C   0  0  0  0  0  0  0  0  0  0  0  0
   39.1380   29.8740   42.8740 C   0  0  0  0  0  0  0  0  0  0  0  0
   39.2870   30.9060   41.9500 C   0  0  0  0  0  0  0  0  0  0  0  0
   38.3390   31.1430   40.9930 C   0  0  0  0  0  0  0  0  0  0  0  0
   37.1850   30.3810   40.8850 C   0  0  0  0  0  0  0  0  0  0  0  0
   39.7840   29.5670   43.6730 H   0  0  0  0  0  0  0  0  0  0  0  0
   40.2220   31.4130   42.1480 H   0  0  0  0  0  0  0  0  0  0  0  0
   38.6980   31.9720   40.4290 H   0  0  0  0  0  0  0  0  0  0  0  0
   37.6630   27.9680   43.6780 C   0  0  0  0  0  0  0  0  0  0  0  0
   38.1430   28.1990   44.6740 H   0  0  0  0  0  0  0  0  0  0  0  0
   36.6110   27.8700   43.8770 H   0  0  0  0  0  0  0  0  0  0  0  0
   38.3150   26.7080   43.1620 C   0  0  0  0  0  0  0  0  0  0  0  0
   39.5560   26.3800   43.6800 C   0  0  0  0  0  0  0  0  0  0  0  0
   40.1680   25.2140   43.2210 C   0  0  0  0  0  0  0  0  0  0  0  0
   39.5170   24.4750   42.3010 N   0  0  0  0  0  0  0  0  0  0  0  0
   38.2880   24.8320   41.8090 C   0  0  0  0  0  0  0  0  0  0  0  0
   37.6980   25.9430   42.2430 N   0  0  0  0  0  0  0  0  0  0  0  0
   40.0320   27.0170   44.4230 H   0  0  0  0  0  0  0  0  0  0  0  0
   41.1310   24.9420   43.6110 H   0  0  0  0  0  0  0  0  0  0  0  0
   37.8090   24.1970   41.0670 H   0  0  0  0  0  0  0  0  0  0  0  0
   35.8660   28.6340   41.6410 O   0  0  0  0  0  0  0  0  0  0  0  0
   35.9010   27.9560   40.8890 H   0  0  0  0  0  0  0  0  0  0  0  0
   36.2810   30.6910   39.9010 O   0  0  0  0  0  0  0  0  0  0  0  0
   36.3960   30.2580   38.5950 C   0  0  2  0  0  3  0  0  0  0  0  0
   35.2490   29.2780   38.3010 C   0  0  0  0  0  3  0  0  0  0  0  0
   34.7010   29.6820   37.4520 H   0  0  0  0  0  0  0  0  0  0  0  0
   35.9670   27.9930   38.0180 C   0  0  0  0  0  3  0  0  0  0  0  0
   35.3860   27.4070   37.2940 H   0  0  0  0  0  0  0  0  0  0  0  0
   37.1840   28.4190   37.4900 O   0  0  0  0  0  0  0  0  0  0  0  0
   37.6340   29.3930   38.3740 C   0  0  0  0  0  3  0  0  0  0  0  0
   38.0630   29.0080   39.2980 H   0  0  0  0  0  0  0  0  0  0  0  0
  1  2  1  0  0  0  0
  2  3  2  0  0  0  0
  2 10  1  0  0  0  0
  3  7  1  0  0  0  0
  4  8  1  0  0  0  0
  4  3  1  0  0  0  0
  5  4  2  0  0  0  0
  6  5  1  0  0  0  0
  6  1  2  0  0  0  0
  9  5  1  0  0  0  0
 10 12  1  0  0  0  0
 10 11  1  0  0  0  0
 13 10  1  0  0  0  0
 13 14  1  0  0  0  0
 14 19  1  0  0  0  0
 15 20  1  0  0  0  0
 15 14  2  0  0  0  0
 16 15  1  0  0  0  0
 17 18  1  0  0  0  0
 17 16  2  0  0  0  0
 18 13  2  0  0  0  0
 21 17  1  0  0  0  0
 22  1  1  0  0  0  0
 23 22  1  0  0  0  0
 24  6  1  0  0  0  0
 25 24  1  1  0  0  0
 26 25  1  0  0  0  0
 27 26  1  0  0  0  0
 28 26  1  0  0  0  0
 29 28  1  0  0  0  0
 30 28  1  0  0  0  0
 30 31  1  0  0  0  0
 31 25  1  0  0  0  0
 31 32  1  0  0  0  0
M  END
>  <minimizedAffinity>
-5.09146976

$$$$

 OpenBabel03242512193D

 32 34  0  0  1  0  0  0  0  0999 V2000
   38.1930   31.8100   39.7910 C   0  0  0  0  0  0  0  0  0  0  0  0
   37.0390   31.0430   39.7830 C   0  0  0  0  0  0  0  0  0  0  0  0
   36.5920   30.5190   38.5710 C   0  0  0  0  0  0  0  0  0  0  0  0
   37.3390   30.8010   37.4290 C   0  0  0  0  0  0  0  0  0  0  0  0
   38.4710   31.5660   37.4930 C   0  0  0  0  0  0  0  0  0  0  0  0
   38.9410   32.1000   38.6850 C   0  0  0  0  0  0  0  0  0  0  0  0
   35.6950   29.9420   38.6800 H   0  0  0  0  0  0  0  0  0  0  0  0
   36.8640   30.3280   36.5800 H   0  0  0  0  0  0  0  0  0  0  0  0
   38.8380   31.6250   36.4950 H   0  0  0  0  0  0  0  0  0  0  0  0
   36.3850   30.8460   41.0810 C   0  0  0  0  0  0  0  0  0  0  0  0
   36.6590   31.7390   41.7160 H   0  0  0  0  0  0  0  0  0  0  0  0
   35.3110   30.8470   41.0250 H   0  0  0  0  0  0  0  0  0  0  0  0
   36.9670   29.6310   41.7630 C   0  0  0  0  0  0  0  0  0  0  0  0
   36.3360   28.4190   41.5440 C   0  0  0  0  0  0  0  0  0  0  0  0
   36.8660   27.2850   42.1590 C   0  0  0  0  0  0  0  0  0  0  0  0
   37.9610   27.4350   42.9310 N   0  0  0  0  0  0  0  0  0  0  0  0
   38.5600   28.6540   43.1260 C   0  0  0  0  0  0  0  0  0  0  0  0
   38.0590   29.7390   42.5420 N   0  0  0  0  0  0  0  0  0  0  0  0
   35.4530   28.3610   40.9090 H   0  0  0  0  0  0  0  0  0  0  0  0
   36.3920   26.3360   42.0010 H   0  0  0  0  0  0  0  0  0  0  0  0
   39.4420   28.7150   43.7590 H   0  0  0  0  0  0  0  0  0  0  0  0
   38.7200   32.3810   40.9730 O   0  0  0  0  0  0  0  0  0  0  0  0
   38.5120   33.3670   41.0810 H   0  0  0  0  0  0  0  0  0  0  0  0
   40.0890   32.8490   38.6630 O   0  0  0  0  0  0  0  0  0  0  0  0
   41.1310   32.6240   37.7860 C   0  0  2  0  0  3  0  0  0  0  0  0
   42.0720   31.5760   38.4020 C   0  0  0  0  0  3  0  0  0  0  0  0
   42.1330   30.7530   37.6920 H   0  0  0  0  0  0  0  0  0  0  0  0
   43.3530   32.3350   38.5800 C   0  0  0  0  0  3  0  0  0  0  0  0
   44.1990   31.6450   38.4720 H   0  0  0  0  0  0  0  0  0  0  0  0
   43.3100   33.2750   37.5520 O   0  0  0  0  0  0  0  0  0  0  0  0
   42.0430   33.8400   37.6380 C   0  0  0  0  0  3  0  0  0  0  0  0
   41.9220   34.5700   38.4370 H   0  0  0  0  0  0  0  0  0  0  0  0
  1 22  1  0  0  0  0
  2  1  1  0  0  0  0
  2 10  1  0  0  0  0
  3  7  1  0  0  0  0
  3  2  2  0  0  0  0
  4  5  2  0  0  0  0
  4  3  1  0  0  0  0
  5  6  1  0  0  0  0
  6  1  2  0  0  0  0
  8  4  1  0  0  0  0
  9  5  1  0  0  0  0
 10 11  1  0  0  0  0
 10 13  1  0  0  0  0
 12 10  1  0  0  0  0
 13 18  1  0  0  0  0
 14 13  2  0  0  0  0
 14 15  1  0  0  0  0
 15 16  2  0  0  0  0
 16 17  1  0  0  0  0
 17 21  1  0  0  0  0
 18 17  2  0  0  0  0
 19 14  1  0  0  0  0
 20 15  1  0  0  0  0
 22 23  1  0  0  0  0
 24  6  1  0  0  0  0
 25 26  1  0  0  0  0
 25 24  1  1  0  0  0
 26 28  1  0  0  0  0
 27 26  1  0  0  0  0
 29 28  1  0  0  0  0
 30 31  1  0  0  0  0
 30 28  1  0  0  0  0
 31 25  1  0  0  0  0
 31 32  1  0  0  0  0
M  END
>  <minimizedAffinity>
-4.95862579

$$$$

 OpenBabel03242512193D

 32 34  0  0  1  0  0  0  0  0999 V2000
   38.2010   27.9820   41.1230 C   0  0  0  0  0  0  0  0  0  0  0  0
   38.7030   29.0960   41.7760 C   0  0  0  0  0  0  0  0  0  0  0  0
   38.3080   29.3360   43.0920 C   0  0  0  0  0  0  0  0  0  0  0  0
   37.4230   28.4320   43.6770 C   0  0  0  0  0  0  0  0  0  0  0  0
   36.9570   27.3470   42.9860 C   0  0  0  0  0  0  0  0  0  0  0  0
   37.3340   27.0830   41.6770 C   0  0  0  0  0  0  0  0  0  0  0  0
   38.7560   30.2210   43.4990 H   0  0  0  0  0  0  0  0  0  0  0  0
   37.2170   28.7570   44.6870 H   0  0  0  0  0  0  0  0  0  0  0  0
   36.3080   26.8340   43.6560 H   0  0  0  0  0  0  0  0  0  0  0  0
   39.6270   29.9360   41.0050 C   0  0  0  0  0  0  0  0  0  0  0  0
   40.4790   30.1940   41.7000 H   0  0  0  0  0  0  0  0  0  0  0  0
   40.0750   29.4260   40.1710 H   0  0  0  0  0  0  0  0  0  0  0  0
   38.9510   31.2360   40.6450 C   0  0  0  0  0  0  0  0  0  0  0  0
   37.8600   31.1680   39.7950 C   0  0  0  0  0  0  0  0  0  0  0  0
   37.2170   32.3590   39.4590 C   0  0  0  0  0  0  0  0  0  0  0  0
   37.6950   33.5070   39.9800 N   0  0  0  0  0  0  0  0  0  0  0  0
   38.7800   33.5370   40.8190 C   0  0  0  0  0  0  0  0  0  0  0  0
   39.3970   32.4030   41.1430 N   0  0  0  0  0  0  0  0  0  0  0  0
   37.5200   30.2090   39.4060 H   0  0  0  0  0  0  0  0  0  0  0  0
   36.3700   32.3270   38.8020 H   0  0  0  0  0  0  0  0  0  0  0  0
   39.1210   34.4920   41.2100 H   0  0  0  0  0  0  0  0  0  0  0  0
   38.5470   27.6600   39.7900 O   0  0  0  0  0  0  0  0  0  0  0  0
   37.8390   27.9120   39.1100 H   0  0  0  0  0  0  0  0  0  0  0  0
   36.8270   25.9690   41.0590 O   0  0  0  0  0  0  0  0  0  0  0  0
   37.0510   24.6810   41.5020 C   0  0  2  0  0  3  0  0  0  0  0  0
   38.5640   24.4110   41.4760 C   0  0  0  0  0  3  0  0  0  0  0  0
   38.8510   24.1320   42.4890 H   0  0  0  0  0  0  0  0  0  0  0  0
   38.6930   23.3050   40.4720 C   0  0  0  0  0  3  0  0  0  0  0  0
   39.5450   22.6680   40.7430 H   0  0  0  0  0  0  0  0  0  0  0  0
   37.4790   22.6310   40.5840 O   0  0  0  0  0  0  0  0  0  0  0  0
   36.5120   23.6290   40.5360 C   0  0  0  0  0  3  0  0  0  0  0  0
   36.3100   24.0200   39.5400 H   0  0  0  0  0  0  0  0  0  0  0  0
  1  6  2  0  0  0  0
  1  2  1  0  0  0  0
  2  3  2  0  0  0  0
  3  7  1  0  0  0  0
  3  4  1  0  0  0  0
  4  8  1  0  0  0  0
  5  9  1  0  0  0  0
  5  4  2  0  0  0  0
  6  5  1  0  0  0  0
 10 11  1  0  0  0  0
 10  2  1  0  0  0  0
 12 10  1  0  0  0  0
 13 10  1  0  0  0  0
 13 18  1  0  0  0  0
 14 13  2  0  0  0  0
 15 14  1  0  0  0  0
 15 16  2  0  0  0  0
 16 17  1  0  0  0  0
 17 18  2  0  0  0  0
 17 21  1  0  0  0  0
 19 14  1  0  0  0  0
 20 15  1  0  0  0  0
 22  1  1  0  0  0  0
 23 22  1  0  0  0  0
 24  6  1  0  0  0  0
 25 24  1  6  0  0  0
 26 25  1  0  0  0  0
 26 27  1  0  0  0  0
 28 30  1  0  0  0  0
 28 29  1  0  0  0  0
 28 26  1  0  0  0  0
 31 30  1  0  0  0  0
 31 25  1  0  0  0  0
 32 31  1  0  0  0  0
M  END
>  <minimizedAffinity>
-4.95398569

$$$$

 OpenBabel03242512193D

 32 34  0  0  1  0  0  0  0  0999 V2000
   36.7980   28.1980   41.6980 C   0  0  0  0  0  0  0  0  0  0  0  0
   36.2850   28.9460   40.6510 C   0  0  0  0  0  0  0  0  0  0  0  0
   36.1280   28.3370   39.4060 C   0  0  0  0  0  0  0  0  0  0  0  0
   36.5000   27.0000   39.2890 C   0  0  0  0  0  0  0  0  0  0  0  0
   37.0030   26.3070   40.3560 C   0  0  0  0  0  0  0  0  0  0  0  0
   37.1690   26.8860   41.6060 C   0  0  0  0  0  0  0  0  0  0  0  0
   35.7230   29.0060   38.6720 H   0  0  0  0  0  0  0  0  0  0  0  0
   36.3190   26.6800   38.2720 H   0  0  0  0  0  0  0  0  0  0  0  0
   37.2030   25.3250   39.9960 H   0  0  0  0  0  0  0  0  0  0  0  0
   35.9430   30.3400   40.9590 C   0  0  0  0  0  0  0  0  0  0  0  0
   35.1350   30.6400   40.2290 H   0  0  0  0  0  0  0  0  0  0  0  0
   35.5150   30.4710   41.9360 H   0  0  0  0  0  0  0  0  0  0  0  0
   37.1320   31.2270   40.6800 C   0  0  0  0  0  0  0  0  0  0  0  0
   37.0000   32.1650   39.6710 C   0  0  0  0  0  0  0  0  0  0  0  0
   38.0860   32.9990   39.4070 C   0  0  0  0  0  0  0  0  0  0  0  0
   39.2010   32.8430   40.1490 N   0  0  0  0  0  0  0  0  0  0  0  0
   39.2970   31.9010   41.1410 C   0  0  0  0  0  0  0  0  0  0  0  0
   38.2640   31.1030   41.3970 N   0  0  0  0  0  0  0  0  0  0  0  0
   36.0720   32.2440   39.1060 H   0  0  0  0  0  0  0  0  0  0  0  0
   38.0030   33.7330   38.6290 H   0  0  0  0  0  0  0  0  0  0  0  0
   40.2210   31.8200   41.7070 H   0  0  0  0  0  0  0  0  0  0  0  0
   36.9900   28.7320   42.9930 O   0  0  0  0  0  0  0  0  0  0  0  0
   37.9520   28.9820   43.1950 H   0  0  0  0  0  0  0  0  0  0  0  0
   37.6720   26.1190   42.6250 O   0  0  0  0  0  0  0  0  0  0  0  0
   39.0010   26.1200   42.9970 C   0  0  2  0  0  3  0  0  0  0  0  0
   39.8370   26.6630   41.8270 C   0  0  0  0  0  3  0  0  0  0  0  0
   40.3860   27.5240   42.2060 H   0  0  0  0  0  0  0  0  0  0  0  0
   40.7010   25.4940   41.4580 C   0  0  0  0  0  3  0  0  0  0  0  0
   41.6600   25.8620   41.0720 H   0  0  0  0  0  0  0  0  0  0  0  0
   40.8480   24.8150   42.6650 O   0  0  0  0  0  0  0  0  0  0  0  0
   39.5590   24.7100   43.1750 C   0  0  0  0  0  3  0  0  0  0  0  0
   38.9450   23.9410   42.7090 H   0  0  0  0  0  0  0  0  0  0  0  0
  1 22  1  0  0  0  0
  2 10  1  0  0  0  0
  2  1  2  0  0  0  0
  3  2  1  0  0  0  0
  4  3  2  0  0  0  0
  4  5  1  0  0  0  0
  5  6  2  0  0  0  0
  6  1  1  0  0  0  0
  6 24  1  0  0  0  0
  7  3  1  0  0  0  0
  8  4  1  0  0  0  0
  9  5  1  0  0  0  0
 10 12  1  0  0  0  0
 11 10  1  0  0  0  0
 13 10  1  0  0  0  0
 13 18  1  0  0  0  0
 14 13  2  0  0  0  0
 15 14  1  0  0  0  0
 15 16  2  0  0  0  0
 16 17  1  0  0  0  0
 17 18  2  0  0  0  0
 17 21  1  0  0  0  0
 19 14  1  0  0  0  0
 20 15  1  0  0  0  0
 22 23  1  0  0  0  0
 25 24  1  6  0  0  0
 25 31  1  0  0  0  0
 26 27  1  0  0  0  0
 26 25  1  0  0  0  0
 28 26  1  0  0  0  0
 28 30  1  0  0  0  0
 29 28  1  0  0  0  0
 30 31  1  0  0  0  0
 32 31  1  0  0  0  0
M  END
>  <minimizedAffinity>
-4.87724447

$$$$

 OpenBabel03242512193D

 32 34  0  0  1  0  0  0  0  0999 V2000
   36.5620   27.0960   40.4900 C   0  0  0  0  0  0  0  0  0  0  0  0
   36.2550   28.2380   41.2130 C   0  0  0  0  0  0  0  0  0  0  0  0
   36.7770   28.3770   42.4990 C   0  0  0  0  0  0  0  0  0  0  0  0
   37.5820   27.3490   42.9850 C   0  0  0  0  0  0  0  0  0  0  0  0
   37.8530   26.2420   42.2280 C   0  0  0  0  0  0  0  0  0  0  0  0
   37.3500   26.0770   40.9460 C   0  0  0  0  0  0  0  0  0  0  0  0
   36.4780   29.2950   42.9650 H   0  0  0  0  0  0  0  0  0  0  0  0
   37.9030   27.6060   43.9850 H   0  0  0  0  0  0  0  0  0  0  0  0
   38.4790   25.6250   42.8300 H   0  0  0  0  0  0  0  0  0  0  0  0
   35.3950   29.2170   40.5400 C   0  0  0  0  0  0  0  0  0  0  0  0
   34.9470   28.6900   39.6470 H   0  0  0  0  0  0  0  0  0  0  0  0
   34.5600   29.5370   41.1380 H   0  0  0  0  0  0  0  0  0  0  0  0
   36.2380   30.3470   40.0010 C   0  0  0  0  0  0  0  0  0  0  0  0
   36.5450   30.3200   38.6510 C   0  0  0  0  0  0  0  0  0  0  0  0
   37.3160   31.3610   38.1350 C   0  0  0  0  0  0  0  0  0  0  0  0
   37.7180   32.3320   38.9790 N   0  0  0  0  0  0  0  0  0  0  0  0
   37.3960   32.3260   40.3120 C   0  0  0  0  0  0  0  0  0  0  0  0
   36.6600   31.3360   40.8100 N   0  0  0  0  0  0  0  0  0  0  0  0
   36.1900   29.5080   38.0190 H   0  0  0  0  0  0  0  0  0  0  0  0
   37.5640   31.3580   37.0910 H   0  0  0  0  0  0  0  0  0  0  0  0
   37.7470   33.1360   40.9460 H   0  0  0  0  0  0  0  0  0  0  0  0
   36.0790   26.8720   39.1800 O   0  0  0  0  0  0  0  0  0  0  0  0
   35.2920   26.2340   39.1360 H   0  0  0  0  0  0  0  0  0  0  0  0
   37.6760   24.9400   40.2520 O   0  0  0  0  0  0  0  0  0  0  0  0
   37.1270   23.7010   40.5140 C   0  0  2  0  0  3  0  0  0  0  0  0
   38.2380   22.6430   40.4150 C   0  0  0  0  0  3  0  0  0  0  0  0
   38.2680   22.1290   41.3740 H   0  0  0  0  0  0  0  0  0  0  0  0
   37.7870   21.7860   39.2700 C   0  0  0  0  0  3  0  0  0  0  0  0
   38.1280   20.7560   39.4330 H   0  0  0  0  0  0  0  0  0  0  0  0
   36.3990   21.8920   39.3220 O   0  0  0  0  0  0  0  0  0  0  0  0
   36.1490   23.2550   39.4300 C   0  0  0  0  0  3  0  0  0  0  0  0
   36.2500   23.8130   38.5010 H   0  0  0  0  0  0  0  0  0  0  0  0
  1  6  2  0  0  0  0
  1  2  1  0  0  0  0
  2  3  2  0  0  0  0
  3  7  1  0  0  0  0
  3  4  1  0  0  0  0
  4  8  1  0  0  0  0
  5  9  1  0  0  0  0
  5  4  2  0  0  0  0
  6  5  1  0  0  0  0
 10 12  1  0  0  0  0
 10  2  1  0  0  0  0
 11 10  1  0  0  0  0
 13 10  1  0  0  0  0
 13 18  1  0  0  0  0
 14 13  2  0  0  0  0
 15 14  1  0  0  0  0
 15 16  2  0  0  0  0
 16 17  1  0  0  0  0
 17 18  2  0  0  0  0
 17 21  1  0  0  0  0
 19 14  1  0  0  0  0
 20 15  1  0  0  0  0
 22  1  1  0  0  0  0
 23 22  1  0  0  0  0
 24  6  1  0  0  0  0
 25 24  1  6  0  0  0
 26 25  1  0  0  0  0
 26 27  1  0  0  0  0
 28 30  1  0  0  0  0
 28 29  1  0  0  0  0
 28 26  1  0  0  0  0
 30 31  1  0  0  0  0
 31 25  1  0  0  0  0
 32 31  1  0  0  0  0
M  END
>  <minimizedAffinity>
-4.85276556

$$$$

 OpenBabel03242512193D

 32 34  0  0  1  0  0  0  0  0999 V2000
   36.6460   29.8630   40.4290 C   0  0  0  0  0  0  0  0  0  0  0  0
   36.8460   31.0040   39.6680 C   0  0  0  0  0  0  0  0  0  0  0  0
   36.8560   30.8900   38.2790 C   0  0  0  0  0  0  0  0  0  0  0  0
   36.6640   29.6220   37.7320 C   0  0  0  0  0  0  0  0  0  0  0  0
   36.4710   28.5280   38.5290 C   0  0  0  0  0  0  0  0  0  0  0  0
   36.4550   28.6110   39.9150 C   0  0  0  0  0  0  0  0  0  0  0  0
   37.0170   31.8310   37.7920 H   0  0  0  0  0  0  0  0  0  0  0  0
   36.7000   29.7030   36.6540 H   0  0  0  0  0  0  0  0  0  0  0  0
   36.3540   27.7030   37.8660 H   0  0  0  0  0  0  0  0  0  0  0  0
   37.0280   32.2540   40.4150 C   0  0  0  0  0  0  0  0  0  0  0  0
   36.5710   33.0720   39.7840 H   0  0  0  0  0  0  0  0  0  0  0  0
   36.4970   32.2770   41.3490 H   0  0  0  0  0  0  0  0  0  0  0  0
   38.5000   32.5660   40.5320 C   0  0  0  0  0  0  0  0  0  0  0  0
   38.9420   33.7550   39.9800 C   0  0  0  0  0  0  0  0  0  0  0  0
   40.2980   34.0630   40.0870 C   0  0  0  0  0  0  0  0  0  0  0  0
   41.0990   33.1840   40.7210 N   0  0  0  0  0  0  0  0  0  0  0  0
   40.6270   32.0130   41.2550 C   0  0  0  0  0  0  0  0  0  0  0  0
   39.3340   31.7140   41.1560 N   0  0  0  0  0  0  0  0  0  0  0  0
   38.2450   34.4270   39.4800 H   0  0  0  0  0  0  0  0  0  0  0  0
   40.6590   34.9810   39.6660 H   0  0  0  0  0  0  0  0  0  0  0  0
   41.3200   31.3410   41.7560 H   0  0  0  0  0  0  0  0  0  0  0  0
   36.6200   29.8850   41.8420 O   0  0  0  0  0  0  0  0  0  0  0  0
   37.4800   29.5670   42.2740 H   0  0  0  0  0  0  0  0  0  0  0  0
   36.2480   27.4660   40.6400 O   0  0  0  0  0  0  0  0  0  0  0  0
   37.2320   26.5300   40.8880 C   0  0  2  0  0  3  0  0  0  0  0  0
   36.8460   25.2170   40.1880 C   0  0  0  0  0  3  0  0  0  0  0  0
   37.6640   24.9680   39.5140 H   0  0  0  0  0  0  0  0  0  0  0  0
   36.6750   24.2630   41.3320 C   0  0  0  0  0  3  0  0  0  0  0  0
   36.9470   23.2520   41.0020 H   0  0  0  0  0  0  0  0  0  0  0  0
   37.5570   24.7550   42.2910 O   0  0  0  0  0  0  0  0  0  0  0  0
   37.2880   26.1170   42.3560 C   0  0  0  0  0  3  0  0  0  0  0  0
   36.3900   26.3790   42.9140 H   0  0  0  0  0  0  0  0  0  0  0  0
  1 22  1  0  0  0  0
  2 10  1  0  0  0  0
  2  1  2  0  0  0  0
  3  2  1  0  0  0  0
  4  3  2  0  0  0  0
  4  5  1  0  0  0  0
  5  6  2  0  0  0  0
  6  1  1  0  0  0  0
  6 24  1  0  0  0  0
  7  3  1  0  0  0  0
  8  4  1  0  0  0  0
  9  5  1  0  0  0  0
 10 13  1  0  0  0  0
 10 12  1  0  0  0  0
 11 10  1  0  0  0  0
 13 18  1  0  0  0  0
 14 15  1  0  0  0  0
 14 13  2  0  0  0  0
 15 16  2  0  0  0  0
 16 17  1  0  0  0  0
 17 21  1  0  0  0  0
 18 17  2  0  0  0  0
 19 14  1  0  0  0  0
 20 15  1  0  0  0  0
 22 23  1  0  0  0  0
 25 24  1  1  0  0  0
 25 31  1  0  0  0  0
 26 25  1  0  0  0  0
 26 28  1  0  0  0  0
 27 26  1  0  0  0  0
 28 30  1  0  0  0  0
 29 28  1  0  0  0  0
 30 31  1  0  0  0  0
 31 32  1  0  0  0  0
M  END
>  <minimizedAffinity>
-4.84476185

$$$$

 OpenBabel03242512193D

 32 34  0  0  1  0  0  0  0  0999 V2000
   36.9360   27.3560   41.3250 C   0  0  0  0  0  0  0  0  0  0  0  0
   36.7430   28.7270   41.2960 C   0  0  0  0  0  0  0  0  0  0  0  0
   37.2570   29.4980   42.3390 C   0  0  0  0  0  0  0  0  0  0  0  0
   37.9400   28.8360   43.3570 C   0  0  0  0  0  0  0  0  0  0  0  0
   38.1020   27.4780   43.3370 C   0  0  0  0  0  0  0  0  0  0  0  0
   37.6030   26.6860   42.3120 C   0  0  0  0  0  0  0  0  0  0  0  0
   37.0520   30.5430   42.2150 H   0  0  0  0  0  0  0  0  0  0  0  0
   38.2710   29.5680   44.0820 H   0  0  0  0  0  0  0  0  0  0  0  0
   38.6480   27.2380   44.2180 H   0  0  0  0  0  0  0  0  0  0  0  0
   36.0040   29.2520   40.1430 C   0  0  0  0  0  0  0  0  0  0  0  0
   35.7810   28.3680   39.4760 H   0  0  0  0  0  0  0  0  0  0  0  0
   35.0470   29.6700   40.4010 H   0  0  0  0  0  0  0  0  0  0  0  0
   36.8920   30.1810   39.3510 C   0  0  0  0  0  0  0  0  0  0  0  0
   37.8580   29.6020   38.5470 C   0  0  0  0  0  0  0  0  0  0  0  0
   38.6810   30.4450   37.8010 C   0  0  0  0  0  0  0  0  0  0  0  0
   38.4890   31.7750   37.9080 N   0  0  0  0  0  0  0  0  0  0  0  0
   37.5220   32.3150   38.7170 C   0  0  0  0  0  0  0  0  0  0  0  0
   36.7330   31.5150   39.4290 N   0  0  0  0  0  0  0  0  0  0  0  0
   37.9640   28.5190   38.5020 H   0  0  0  0  0  0  0  0  0  0  0  0
   39.4360   30.0150   37.1720 H   0  0  0  0  0  0  0  0  0  0  0  0
   37.4120   33.3960   38.7630 H   0  0  0  0  0  0  0  0  0  0  0  0
   36.4520   26.4970   40.3110 O   0  0  0  0  0  0  0  0  0  0  0  0
   35.6020   26.0050   40.5620 H   0  0  0  0  0  0  0  0  0  0  0  0
   37.8160   25.3320   42.3640 O   0  0  0  0  0  0  0  0  0  0  0  0
   38.9590   24.7200   41.8920 C   0  0  2  0  0  3  0  0  0  0  0  0
   39.8270   24.3110   43.0920 C   0  0  0  0  0  3  0  0  0  0  0  0
   39.9830   23.2360   43.0150 H   0  0  0  0  0  0  0  0  0  0  0  0
   41.0700   25.1290   42.9060 C   0  0  0  0  0  3  0  0  0  0  0  0
   41.9290   24.5770   43.3060 H   0  0  0  0  0  0  0  0  0  0  0  0
   41.1440   25.2820   41.5230 O   0  0  0  0  0  0  0  0  0  0  0  0
   39.8710   25.6870   41.1400 C   0  0  0  0  0  3  0  0  0  0  0  0
   39.6460   26.7350   41.3380 H   0  0  0  0  0  0  0  0  0  0  0  0
  1  6  1  0  0  0  0
  2  1  2  0  0  0  0
  2  3  1  0  0  0  0
  3  4  2  0  0  0  0
  4  8  1  0  0  0  0
  5  4  1  0  0  0  0
  5  9  1  0  0  0  0
  6 24  1  0  0  0  0
  6  5  2  0  0  0  0
  7  3  1  0  0  0  0
 10 12  1  0  0  0  0
 10  2  1  0  0  0  0
 11 10  1  0  0  0  0
 13 18  1  0  0  0  0
 13 10  1  0  0  0  0
 14 13  2  0  0  0  0
 15 16  2  0  0  0  0
 15 14  1  0  0  0  0
 16 17  1  0  0  0  0
 17 21  1  0  0  0  0
 17 18  2  0  0  0  0
 19 14  1  0  0  0  0
 20 15  1  0  0  0  0
 22 23  1  0  0  0  0
 22  1  1  0  0  0  0
 25 24  1  1  0  0  0
 25 26  1  0  0  0  0
 27 26  1  0  0  0  0
 28 26  1  0  0  0  0
 28 29  1  0  0  0  0
 30 28  1  0  0  0  0
 31 32  1  0  0  0  0
 31 30  1  0  0  0  0
 31 25  1  0  0  0  0
M  END
>  <minimizedAffinity>
-4.80351114

$$$$
