REMARK  Name = 
REMARK  2 active torsions:
REMARK  status: ('A' for Active; 'I' for Inactive)
REMARK    1  A    between atoms: C_5  and  C_7
REMARK    2  A    between atoms: C_11  and  C_18
REMARK                            x       y       z     vdW  Elec       q    Type
REMARK                         _______ _______ _______ _____ _____    ______ ____
ROOT
ATOM      1  C   UNL     1      45.966  33.026  46.558  0.00  0.00    +0.000 A 
ATOM      2  C   UNL     1      47.037  32.178  46.522  0.00  0.00    +0.000 A 
ATOM      3  C   UNL     1      47.332  31.274  47.514  0.00  0.00    +0.000 A 
ATOM      4  N   UNL     1      46.487  31.254  48.574  0.00  0.00    +0.000 NA
ATOM      5  C   UNL     1      45.430  32.088  48.614  0.00  0.00    +0.000 A 
ATOM      6  N   UNL     1      45.127  32.983  47.644  0.00  0.00    +0.000 NA
ATOM      7  H   UNL     1      47.724  32.184  45.676  0.00  0.00    +0.000 HD
ATOM      8  H   UNL     1      48.177  30.599  47.495  0.00  0.00    +0.000 HD
ENDROOT
BRANCH   1  13
ATOM      9  C   UNL     1      44.505  35.829  44.717  0.00  0.00    +0.000 A 
ATOM     10  C   UNL     1      45.169  35.745  43.485  0.00  0.00    +0.000 A 
ATOM     11  C   UNL     1      46.118  34.733  43.274  0.00  0.00    +0.000 A 
ATOM     12  N   UNL     1      46.356  33.855  44.306  0.00  0.00    +0.000 NA
ATOM     13  C   UNL     1      45.700  33.965  45.477  0.00  0.00    +0.000 A 
ATOM     14  N   UNL     1      44.789  34.934  45.686  0.00  0.00    +0.000 NA
ATOM     15  H   UNL     1      43.792  36.618  44.828  0.00  0.00    +0.000 HD
ATOM     16  H   UNL     1      45.001  36.420  42.660  0.00  0.00    +0.000 HD
ATOM     17  H   UNL     1      46.663  34.617  42.344  0.00  0.00    +0.000 HD
ENDBRANCH   1  13
BRANCH   5  18
ATOM     18  C   UNL     1      44.527  32.035  49.793  0.00  0.00    +0.000 C 
ATOM     19  C   UNL     1      43.123  31.585  49.443  0.00  0.00    +0.000 C 
ATOM     20  H   UNL     1      42.512  32.446  49.110  0.00  0.00    +0.000 HD
ATOM     21  C   UNL     1      42.669  31.006  50.768  0.00  0.00    +0.000 C 
ATOM     22  H   UNL     1      41.858  31.688  51.137  0.00  0.00    +0.000 HD
ATOM     23  O   UNL     1      43.758  30.971  51.615  0.00  0.00    +0.000 OA
ATOM     24  C   UNL     1      44.909  30.982  50.803  0.00  0.00    +0.000 C 
ATOM     25  H   UNL     1      45.734  31.300  51.471  0.00  0.00    +0.000 HD
ENDBRANCH   5  18
TORSDOF 2
