
     RDKit          3D

 29 31  0  0  0  0  0  0  0  0999 V2000
   44.5054   35.8294   44.7173 C   0  0  0  0  0  0  0  0  0  0  0  0
   45.1691   35.7451   43.4851 C   0  0  0  0  0  0  0  0  0  0  0  0
   46.1182   34.7328   43.2737 C   0  0  0  0  0  0  0  0  0  0  0  0
   46.3558   33.8552   44.3063 N   0  0  0  0  0  0  0  0  0  0  0  0
   45.7005   33.9649   45.4771 C   0  0  0  0  0  0  0  0  0  0  0  0
   44.7886   34.9342   45.6860 N   0  0  0  0  0  0  0  0  0  0  0  0
   45.9662   33.0258   46.5580 C   0  0  0  0  0  0  0  0  0  0  0  0
   47.0366   32.1781   46.5224 C   0  0  0  0  0  0  0  0  0  0  0  0
   47.3321   31.2741   47.5145 C   0  0  0  0  0  0  0  0  0  0  0  0
   46.4867   31.2542   48.5738 N   0  0  0  0  0  0  0  0  0  0  0  0
   45.4298   32.0882   48.6135 C   0  0  0  0  0  0  0  0  0  0  0  0
   45.1270   32.9829   47.6441 N   0  0  0  0  0  0  0  0  0  0  0  0
   43.7920   36.6178   44.8283 H   0  0  0  0  0  0  0  0  0  0  0  0
   45.0013   36.4202   42.6598 H   0  0  0  0  0  0  0  0  0  0  0  0
   46.6627   34.6170   42.3438 H   0  0  0  0  0  0  0  0  0  0  0  0
   47.7236   32.1843   45.6764 H   0  0  0  0  0  0  0  0  0  0  0  0
   48.1773   30.5987   47.4954 H   0  0  0  0  0  0  0  0  0  0  0  0
   44.5268   32.0347   49.7933 C   0  0  1  0  0  0  0  0  0  0  0  0
   43.2543   31.2557   49.5281 C   0  0  1  0  0  0  0  0  0  0  0  0
   42.4884   31.9095   49.0676 H   0  0  0  0  0  0  0  0  0  0  0  0
   42.8950   30.8102   50.9319 C   0  0  1  0  0  0  0  0  0  0  0  0
   41.9518   31.3598   51.1936 H   0  0  0  0  0  0  0  0  0  0  0  0
   43.9451   31.1337   51.7659 O   0  0  0  0  0  0  0  0  0  0  0  0
   45.0903   31.2547   50.9536 C   0  0  2  0  0  0  0  0  0  0  0  0
   45.8155   31.8357   51.5575 H   0  0  0  0  0  0  0  0  0  0  0  0
   44.2794   33.0482   50.1600 H   0  0  0  0  0  0  0  0  0  0  0  0
   43.4872   30.3619   48.9143 H   0  0  0  0  0  0  0  0  0  0  0  0
   42.7498   29.7140   50.9447 H   0  0  0  0  0  0  0  0  0  0  0  0
   45.4032   30.2413   50.6957 H   0  0  0  0  0  0  0  0  0  0  0  0
  1  6  2  0
  2  1  1  0
  3  2  2  0
  3  4  1  0
  4  5  2  0
  5  6  1  0
  5  7  1  0
  7 12  1  0
  8  7  2  0
  8  9  1  0
  9 10  2  0
 10 11  1  0
 12 11  2  0
  1 13  1  0
  2 14  1  0
  3 15  1  0
  8 16  1  0
  9 17  1  0
 18 19  1  0
 19 20  1  6
 19 21  1  0
 21 22  1  1
 21 23  1  0
 23 24  1  0
 24 25  1  1
 24 18  1  0
 18 26  1  1
 19 27  1  0
 21 28  1  0
 24 29  1  0
 11 18  1  0
M  ISO  8  13  14  14  14  15  14  16  14  17  14  20  15  22  15  25  15
M  END
>  <DihAtoms>  (1) 
9,10,17,18

>  <DihDeg>  (1) 
124.36387352184968

$$$$
