
 OpenBabel03252509043D

 47 49  0  0  1  0  0  0  0  0999 V2000
   46.7720   34.3000   43.5950 N   0  0  0  0  0  0  0  0  0  0  0  0
   46.4750   34.9370   42.3710 C   0  0  0  0  0  0  0  0  0  0  0  0
   44.9960   35.0120   42.0350 C   0  0  0  0  0  0  0  0  0  0  0  0
   44.0910   35.1670   43.2300 C   0  0  0  0  0  0  0  0  0  0  0  0
   44.8880   35.3030   44.5150 C   0  0  0  0  0  0  0  0  0  0  0  0
   45.7930   34.0080   44.5210 C   0  0  2  0  0  0  0  0  0  0  0  0
   46.8150   36.0010   42.4540 H   0  0  0  0  0  0  0  0  0  0  0  0
   46.9730   34.5460   41.4750 H   0  0  0  0  0  0  0  0  0  0  0  0
   44.8720   35.8170   41.2960 H   0  0  0  0  0  0  0  0  0  0  0  0
   44.7340   34.0560   41.5250 H   0  0  0  0  0  0  0  0  0  0  0  0
   43.4250   36.0370   43.0690 H   0  0  0  0  0  0  0  0  0  0  0  0
   43.4150   34.2960   43.3720 H   0  0  0  0  0  0  0  0  0  0  0  0
   44.2080   35.2010   45.3680 H   0  0  0  0  0  0  0  0  0  0  0  0
   45.5390   36.1810   44.5160 H   0  0  0  0  0  0  0  0  0  0  0  0
   45.0930   33.1800   44.2900 H   0  0  0  0  0  0  0  0  0  0  0  0
   47.9390   33.4600   43.5460 C   0  0  0  0  0  0  0  0  0  0  0  0
   48.1610   33.1000   44.5810 H   0  0  0  0  0  0  0  0  0  0  0  0
   48.8000   34.0730   43.1890 H   0  0  0  0  0  0  0  0  0  0  0  0
   47.6640   32.2870   42.6600 C   0  0  0  0  0  0  0  0  0  0  0  0
   47.4580   31.3890   43.2380 H   0  0  0  0  0  0  0  0  0  0  0  0
   46.7850   32.4780   42.0150 H   0  0  0  0  0  0  0  0  0  0  0  0
   51.2050   32.1580   41.3880 C   0  0  0  0  0  0  0  0  0  0  0  0
   50.0800   32.3580   42.2210 C   0  0  0  0  0  0  0  0  0  0  0  0
   48.8300   32.0670   41.7630 C   0  0  0  0  0  0  0  0  0  0  0  0
   48.7230   31.5940   40.5130 N   0  0  0  0  0  0  0  0  0  0  0  0
   49.7740   31.4010   39.7160 C   0  0  0  0  0  0  0  0  0  0  0  0
   51.0180   31.6770   40.1360 N   0  0  0  0  0  0  0  0  0  0  0  0
   52.1970   32.3830   41.7350 H   0  0  0  0  0  0  0  0  0  0  0  0
   50.2120   32.7450   43.2330 H   0  0  0  0  0  0  0  0  0  0  0  0
   49.5790   31.0140   38.7250 H   0  0  0  0  0  0  0  0  0  0  0  0
   46.2610   34.0130   45.8150 O   0  0  0  0  0  0  0  0  0  0  0  0
   45.6240   31.4320   45.6240 O   0  0  0  0  0  0  0  0  0  0  0  0
   46.0810   32.5430   46.5920 P   0  0  2  0  0  0  0  0  0  0  0  0
   44.7480   32.7290   47.6590 O   0  0  0  0  0  0  0  0  0  0  0  0
   45.0330   33.2510   48.4550 H   0  0  0  0  0  0  0  0  0  0  0  0
   47.3810   32.0710   47.5000 O   0  0  0  0  0  0  0  0  0  0  0  0
   47.3690   30.7040   47.6940 C   0  0  0  0  0  0  0  0  0  0  0  0
   47.4610   30.4100   48.7670 H   0  0  0  0  0  0  0  0  0  0  0  0
   46.4050   30.2970   47.3320 H   0  0  0  0  0  0  0  0  0  0  0  0
   48.4880   29.9950   46.9730 C   0  0  1  0  0  3  0  0  0  0  0  0
   49.4540   29.3460   47.9410 C   0  0  0  0  0  3  0  0  0  0  0  0
   50.4610   29.2290   47.4990 H   0  0  0  0  0  0  0  0  0  0  0  0
   48.8450   27.9580   48.1130 C   0  0  0  0  0  3  0  0  0  0  0  0
   48.7560   27.6890   49.1960 H   0  0  0  0  0  0  0  0  0  0  0  0
   47.5950   28.0100   47.4970 O   0  0  0  0  0  0  0  0  0  0  0  0
   47.8790   28.7360   46.3400 C   0  0  0  0  0  3  0  0  0  0  0  0
   48.6820   28.1520   45.8140 H   0  0  0  0  0  0  0  0  0  0  0  0
  1  6  1  0  0  0  0
  2  7  1  0  0  0  0
  2  1  1  0  0  0  0
  3  2  1  0  0  0  0
  3  4  1  0  0  0  0
  4 12  1  0  0  0  0
  4  5  1  0  0  0  0
  5 14  1  0  0  0  0
  5  6  1  0  0  0  0
  5 13  1  0  0  0  0
  6 15  1  6  0  0  0
  6 31  1  0  0  0  0
  8  2  1  0  0  0  0
  9  3  1  0  0  0  0
 10  3  1  0  0  0  0
 11  4  1  0  0  0  0
 16  1  1  0  0  0  0
 16 17  1  0  0  0  0
 18 16  1  0  0  0  0
 19 20  1  0  0  0  0
 19 16  1  0  0  0  0
 21 19  1  0  0  0  0
 22 28  1  0  0  0  0
 22 23  1  0  0  0  0
 23 29  1  0  0  0  0
 24 23  2  0  0  0  0
 24 19  1  0  0  0  0
 25 24  1  0  0  0  0
 26 27  1  0  0  0  0
 26 25  2  0  0  0  0
 27 22  2  0  0  0  0
 30 26  1  0  0  0  0
 31 33  1  0  0  0  0
 33 32  2  6  0  0  0
 33 36  1  0  0  0  0
 33 34  1  0  0  0  0
 34 35  1  0  0  0  0
 36 37  1  0  0  0  0
 37 38  1  0  0  0  0
 39 37  1  0  0  0  0
 40 37  1  1  0  0  0
 40 41  1  0  0  0  0
 41 43  1  0  0  0  0
 42 41  1  0  0  0  0
 43 44  1  0  0  0  0
 45 43  1  0  0  0  0
 46 40  1  0  0  0  0
 46 45  1  0  0  0  0
 47 46  1  0  0  0  0
M  END
>  <minimizedAffinity>
-4.41343164

>  <minimizedRMSD>
2.19018865

$$$$
