
 OpenBabel03252502173D

 23 24  0  0  1  0  0  0  0  0999 V2000
   46.3750   35.1900   42.5960 C   0  0  0  0  0  0  0  0  0  0  0  0
   46.8870   34.0900   43.3200 C   0  0  0  0  0  0  0  0  0  0  0  0
   46.3150   33.7950   44.5780 C   0  0  0  0  0  0  0  0  0  0  0  0
   45.3070   34.5740   45.0320 N   0  0  0  0  0  0  0  0  0  0  0  0
   44.8510   35.6210   44.2960 C   0  0  0  0  0  0  0  0  0  0  0  0
   45.3660   35.9380   43.0950 N   0  0  0  0  0  0  0  0  0  0  0  0
   46.8020   35.4220   41.6410 H   0  0  0  0  0  0  0  0  0  0  0  0
   44.0540   36.1890   44.7230 H   0  0  0  0  0  0  0  0  0  0  0  0
   46.8760   32.6310   45.3130 C   0  0  2  0  0  3  0  0  0  0  0  0
   46.0840   31.3650   45.0480 C   0  0  0  0  0  3  0  0  0  0  0  0
   46.3960   30.8360   44.1370 H   0  0  0  0  0  0  0  0  0  0  0  0
   46.3780   30.5940   46.3170 C   0  0  0  0  0  3  0  0  0  0  0  0
   47.3930   30.1790   46.2060 H   0  0  0  0  0  0  0  0  0  0  0  0
   46.2450   31.5620   47.2890 O   0  0  0  0  0  0  0  0  0  0  0  0
   46.7170   32.7510   46.7980 C   0  0  0  0  0  3  0  0  0  0  0  0
   47.7350   32.9210   47.2380 H   0  0  0  0  0  0  0  0  0  0  0  0
   47.9150   33.3830   42.7380 O   0  0  0  0  0  0  0  0  0  0  0  0
   50.4100   33.1810   41.8810 O   0  0  0  0  0  0  0  0  0  0  0  0
   49.3400   34.1670   42.1850 P   0  0  0  0  0  0  0  0  0  0  0  0
   49.0170   35.0350   40.7660 O   0  0  0  0  0  0  0  0  0  0  0  0
   48.8190   34.3470   40.0630 H   0  0  0  0  0  0  0  0  0  0  0  0
   49.9050   35.2430   43.3550 O   0  0  0  0  0  0  0  0  0  0  0  0
   49.1880   35.6350   43.8990 H   0  0  0  0  0  0  0  0  0  0  0  0
  1  6  2  0  0  0  0
  1  2  1  0  0  0  0
  2  3  2  0  0  0  0
  3  4  1  0  0  0  0
  5  8  1  0  0  0  0
  5  4  2  0  0  0  0
  6  5  1  0  0  0  0
  7  1  1  0  0  0  0
  9  3  1  6  0  0  0
  9 15  1  0  0  0  0
 10  9  1  0  0  0  0
 10 12  1  0  0  0  0
 11 10  1  0  0  0  0
 12 14  1  0  0  0  0
 13 12  1  0  0  0  0
 15 16  1  0  0  0  0
 15 14  1  0  0  0  0
 17  2  1  0  0  0  0
 18 19  2  0  0  0  0
 19 17  1  0  0  0  0
 19 22  1  0  0  0  0
 20 19  1  0  0  0  0
 21 20  1  0  0  0  0
 22 23  1  0  0  0  0
M  END
>  <minimizedAffinity>
-5.11592579

>  <minimizedRMSD>
0.482093155

$$$$
