
 OpenBabel03242519253D

 42 45  0  0  0  0  0  0  0  0999 V2000
   47.8720   33.8800   42.8910 C   0  0  0  0  0  0  0  0  0  0  0  0
   48.5300   35.1050   42.6200 C   0  0  0  0  0  0  0  0  0  0  0  0
   49.8920   35.1110   42.2890 C   0  0  0  0  0  0  0  0  0  0  0  0
   50.5180   33.8890   42.2500 N   0  0  0  0  0  0  0  0  0  0  0  0
   49.8540   32.7210   42.5180 C   0  0  0  0  0  0  0  0  0  0  0  0
   48.5610   32.7210   42.8300 N   0  0  0  0  0  0  0  0  0  0  0  0
   48.1100   36.0820   42.6320 H   0  0  0  0  0  0  0  0  0  0  0  0
   50.4430   35.9930   42.0750 H   0  0  0  0  0  0  0  0  0  0  0  0
   46.4460   33.9800   43.2340 C   0  0  0  0  0  0  0  0  0  0  0  0
   45.7290   34.9990   42.4690 C   0  0  0  0  0  0  0  0  0  0  0  0
   45.2750   36.1630   43.2670 C   0  0  0  0  0  0  0  0  0  0  0  0
   44.4900   35.7760   44.5100 C   0  0  0  0  0  0  0  0  0  0  0  0
   44.9550   34.5020   45.1580 C   0  0  0  0  0  0  0  0  0  0  0  0
   46.3940   34.2120   44.7550 C   0  0  0  0  0  0  0  0  0  0  0  0
   45.9890   32.9580   43.0970 H   0  0  0  0  0  0  0  0  0  0  0  0
   44.8080   34.5540   41.9890 H   0  0  0  0  0  0  0  0  0  0  0  0
   46.3230   35.3650   41.6290 H   0  0  0  0  0  0  0  0  0  0  0  0
   44.5290   36.7180   42.6270 H   0  0  0  0  0  0  0  0  0  0  0  0
   46.0160   36.9030   43.5520 H   0  0  0  0  0  0  0  0  0  0  0  0
   44.5670   36.5880   45.2710 H   0  0  0  0  0  0  0  0  0  0  0  0
   43.3950   35.6740   44.2970 H   0  0  0  0  0  0  0  0  0  0  0  0
   44.9030   34.5440   46.2540 H   0  0  0  0  0  0  0  0  0  0  0  0
   44.3450   33.6360   44.7810 H   0  0  0  0  0  0  0  0  0  0  0  0
   46.9460   35.1520   44.9300 H   0  0  0  0  0  0  0  0  0  0  0  0
   46.7770   33.3350   45.2800 H   0  0  0  0  0  0  0  0  0  0  0  0
   50.6640   31.5150   42.4380 C   0  0  0  0  0  0  0  0  0  0  0  0
   51.5300   31.4160   41.4040 N   0  0  0  0  0  0  0  0  0  0  0  0
   52.1950   30.2460   41.4860 C   0  0  0  0  0  0  0  0  0  0  0  0
   51.7260   29.6130   42.5950 N   0  0  0  0  0  0  0  0  0  0  0  0
   50.7990   30.3840   43.1690 N   0  0  0  0  0  0  0  0  0  0  0  0
   52.9470   29.9130   40.7860 H   0  0  0  0  0  0  0  0  0  0  0  0
   53.7920   29.7710   44.6730 Cl  0  0  0  0  0  0  0  0  0  0  0  0
   53.1240   28.2670   44.0400 C   0  0  0  0  0  0  0  0  0  0  0  0
   52.1560   28.3410   43.0610 C   0  0  0  0  0  0  0  0  0  0  0  0
   51.6090   27.1970   42.5400 C   0  0  0  0  0  0  0  0  0  0  0  0
   50.8510   27.2090   41.7760 H   0  0  0  0  0  0  0  0  0  0  0  0
   52.0440   25.9610   43.0100 C   0  0  0  0  0  0  0  0  0  0  0  0
   51.6010   25.0700   42.5880 H   0  0  0  0  0  0  0  0  0  0  0  0
   53.0260   25.9040   44.0030 C   0  0  0  0  0  0  0  0  0  0  0  0
   53.3600   24.9440   44.3640 H   0  0  0  0  0  0  0  0  0  0  0  0
   53.5690   27.0530   44.5200 C   0  0  0  0  0  0  0  0  0  0  0  0
   54.8110   27.0350   45.7720 Cl  0  0  0  0  0  0  0  0  0  0  0  0
  1  9  1  0  0  0  0
  2  7  1  0  0  0  0
  2  1  2  0  0  0  0
  3  2  1  0  0  0  0
  4  3  2  0  0  0  0
  4  5  1  0  0  0  0
  5  6  2  0  0  0  0
  6  1  1  0  0  0  0
  8  3  1  0  0  0  0
  9 14  1  0  0  0  0
 10  9  1  0  0  0  0
 10 11  1  0  0  0  0
 11 19  1  0  0  0  0
 11 12  1  0  0  0  0
 12 13  1  0  0  0  0
 12 20  1  0  0  0  0
 13 22  1  0  0  0  0
 14 24  1  0  0  0  0
 14 13  1  0  0  0  0
 14 25  1  0  0  0  0
 15  9  1  0  0  0  0
 16 10  1  0  0  0  0
 17 10  1  0  0  0  0
 18 11  1  0  0  0  0
 21 12  1  0  0  0  0
 23 13  1  0  0  0  0
 26  5  1  0  0  0  0
 26 30  2  0  0  0  0
 27 28  2  0  0  0  0
 27 26  1  0  0  0  0
 28 29  1  0  0  0  0
 29 34  1  0  0  0  0
 29 30  1  0  0  0  0
 31 28  1  0  0  0  0
 33 41  1  0  0  0  0
 33 32  1  0  0  0  0
 34 33  2  0  0  0  0
 35 37  2  0  0  0  0
 35 34  1  0  0  0  0
 36 35  1  0  0  0  0
 37 39  1  0  0  0  0
 38 37  1  0  0  0  0
 39 40  1  0  0  0  0
 39 41  2  0  0  0  0
 41 42  1  0  0  0  0
M  END
>  <minimizedAffinity>
-4.35028362

>  <minimizedRMSD>
0.780161083

$$$$
