REMARK  Name = 
REMARK  1 active torsions:
REMARK  status: ('A' for Active; 'I' for Inactive)
REMARK    1  A    between atoms: C_7  and  C_16
REMARK                            x       y       z     vdW  Elec       q    Type
REMARK                         _______ _______ _______ _____ _____    ______ ____
ROOT
ATOM      1  C   UNL     1      44.677  36.079  44.289  0.00  0.00    +0.000 A 
ATOM      2  C   UNL     1      45.482  35.588  43.236  0.00  0.00    +0.000 A 
ATOM      3  C   UNL     1      46.170  34.385  43.466  0.00  0.00    +0.000 A 
ATOM      4  N   UNL     1      46.032  33.757  44.673  0.00  0.00    +0.000 NA
ATOM      5  C   UNL     1      45.256  34.261  45.645  0.00  0.00    +0.000 A 
ATOM      6  N   UNL     1      44.572  35.429  45.457  0.00  0.00    +0.000 NA
ATOM      7  C   UNL     1      46.168  32.582  47.127  0.00  0.00    +0.000 C 
ATOM      8  O   UNL     1      47.113  32.301  46.368  0.00  0.00    +0.000 OA
ATOM      9  N   UNL     1      45.156  33.560  46.875  0.00  0.00    +0.000 N 
ATOM     10  H   UNL     1      44.151  37.001  44.110  0.00  0.00    +0.000 HD
ATOM     11  H   UNL     1      45.576  36.101  42.292  0.00  0.00    +0.000 HD
ATOM     12  H   UNL     1      46.784  34.015  42.656  0.00  0.00    +0.000 HD
ATOM     13  H   UNL     1      44.384  33.758  47.545  0.00  0.00    +0.000 HD
ENDROOT
BRANCH   7  16
ATOM     14 CL   UNL     1      48.565  30.973  48.090  0.00  0.00    +0.000 Cl
ATOM     15  C   UNL     1      47.059  31.093  48.963  0.00  0.00    +0.000 A 
ATOM     16  C   UNL     1      46.059  31.856  48.410  0.00  0.00    +0.000 A 
ATOM     17  C   UNL     1      44.849  31.979  49.069  0.00  0.00    +0.000 A 
ATOM     18  H   UNL     1      44.027  32.578  48.660  0.00  0.00    +0.000 HD
ATOM     19  C   UNL     1      44.586  31.364  50.276  0.00  0.00    +0.000 A 
ATOM     20  H   UNL     1      43.638  31.472  50.772  0.00  0.00    +0.000 HD
ATOM     21  C   UNL     1      45.603  30.598  50.821  0.00  0.00    +0.000 A 
ATOM     22  H   UNL     1      45.406  30.110  51.770  0.00  0.00    +0.000 HD
ATOM     23  C   UNL     1      46.832  30.463  50.169  0.00  0.00    +0.000 A 
ATOM     24 CL   UNL     1      48.107  29.491  50.874  0.00  0.00    +0.000 Cl
ENDBRANCH   7  16
TORSDOF 1
