
     RDKit          3D

 34 35  0  0  0  0  0  0  0  0999 V2000
   47.8681   34.1354   42.2578 C   0  0  0  0  0  0  0  0  0  0  0  0
   44.8922   35.0887   44.3552 C   0  0  0  0  0  0  0  0  0  0  0  0
   45.8190   35.0228   43.2909 C   0  0  0  0  0  0  0  0  0  0  0  0
   46.9158   34.1888   43.3769 C   0  0  0  0  0  0  0  0  0  0  0  0
   47.0540   33.4600   44.4977 N   0  0  0  0  0  0  0  0  0  0  0  0
   46.1633   33.5280   45.5123 C   0  0  0  0  0  0  0  0  0  0  0  0
   45.0887   34.3361   45.4441 N   0  0  0  0  0  0  0  0  0  0  0  0
   43.7711   35.9406   44.2683 N   0  0  0  0  0  0  0  0  0  0  0  0
   49.1830   33.5889   42.7441 C   0  0  0  0  0  0  0  0  0  0  0  0
   49.2869   32.2461   42.4141 O   0  0  0  0  0  0  0  0  0  0  0  0
   50.8780   30.5457   41.2429 O   0  0  0  0  0  0  0  0  0  0  0  0
   50.4758   31.9808   41.2260 P   0  0  2  0  0  0  0  0  0  0  0  0
   51.7685   33.0206   41.5992 O   0  0  0  0  0  0  0  0  0  0  0  0
   49.8915   32.4974   39.7336 O   0  0  0  0  0  0  0  0  0  0  0  0
   48.0438   35.1808   41.9021 H   0  0  0  0  0  0  0  0  0  0  0  0
   47.4890   33.5858   41.3793 H   0  0  0  0  0  0  0  0  0  0  0  0
   45.6761   35.6269   42.3981 H   0  0  0  0  0  0  0  0  0  0  0  0
   46.3251   32.9233   46.3822 H   0  0  0  0  0  0  0  0  0  0  0  0
   43.4801   36.7850   44.7994 H   0  0  0  0  0  0  0  0  0  0  0  0
   43.2086   35.5371   43.4866 H   0  0  0  0  0  0  0  0  0  0  0  0
   50.0647   34.1338   42.3694 H   0  0  0  0  0  0  0  0  0  0  0  0
   49.2178   33.6371   43.8543 H   0  0  0  0  0  0  0  0  0  0  0  0
   52.3643   32.6478   42.2986 H   0  0  0  0  0  0  0  0  0  0  0  0
   47.2352   31.3272   39.7750 Cl  0  0  0  0  0  0  0  0  0  0  0  0
   48.4863   31.1951   38.5306 C   0  0  0  0  0  0  0  0  0  0  0  0
   49.7551   31.7904   38.5760 C   0  0  0  0  0  0  0  0  0  0  0  0
   50.5944   31.5720   37.5086 C   0  0  0  0  0  0  0  0  0  0  0  0
   51.5324   32.0573   37.6231 H   0  0  0  0  0  0  0  0  0  0  0  0
   50.2033   30.7981   36.4361 C   0  0  0  0  0  0  0  0  0  0  0  0
   50.9522   30.6894   35.6380 H   0  0  0  0  0  0  0  0  0  0  0  0
   48.9599   30.2024   36.3696 C   0  0  0  0  0  0  0  0  0  0  0  0
   48.6877   29.6027   35.5137 H   0  0  0  0  0  0  0  0  0  0  0  0
   48.1055   30.4117   37.4331 C   0  0  0  0  0  0  0  0  0  0  0  0
   46.5390   29.6391   37.3098 Cl  0  0  0  0  0  0  0  0  0  0  0  0
  1  9  1  0
  1  4  1  0
  2  7  2  0
  3  4  2  0
  3  2  1  0
  4  5  1  0
  5  6  2  0
  7  6  1  0
  8  2  1  0
 10  9  1  0
 11 12  2  0
 12 13  1  1
 12 10  1  0
 14 12  1  0
  1 15  1  0
  1 16  1  0
  3 17  1  0
  6 18  1  0
  8 19  1  0
  8 20  1  0
  9 21  1  0
  9 22  1  0
 13 23  1  0
 24 25  1  0
 25 26  2  0
 26 27  1  0
 27 28  1  0
 27 29  2  0
 29 30  1  0
 29 31  1  0
 31 32  1  0
 31 33  2  0
 33 34  1  0
 33 25  1  0
 14 26  1  0
M  ISO  8  15   8  16   8  17  14  18  14  21   8  22   8  23   3  28  15
M  ISO  2  30  15  32  15
M  END
>  <DihAtoms>  (1) 
11,13,25,24

>  <DihDeg>  (1) 
179.99892351812707

$$$$
