
 OpenBabel03242519253D

 42 45  0  0  0  0  0  0  0  0999 V2000
   47.8760   33.8780   42.8900 C   0  0  0  0  0  0  0  0  0  0  0  0
   48.5340   35.1030   42.6200 C   0  0  0  0  0  0  0  0  0  0  0  0
   49.8960   35.1090   42.2920 C   0  0  0  0  0  0  0  0  0  0  0  0
   50.5220   33.8870   42.2520 N   0  0  0  0  0  0  0  0  0  0  0  0
   49.8580   32.7180   42.5190 C   0  0  0  0  0  0  0  0  0  0  0  0
   48.5640   32.7190   42.8300 N   0  0  0  0  0  0  0  0  0  0  0  0
   48.1140   36.0800   42.6330 H   0  0  0  0  0  0  0  0  0  0  0  0
   50.4470   35.9910   42.0780 H   0  0  0  0  0  0  0  0  0  0  0  0
   46.4490   33.9780   43.2320 C   0  0  0  0  0  0  0  0  0  0  0  0
   45.7330   34.9960   42.4660 C   0  0  0  0  0  0  0  0  0  0  0  0
   45.2790   36.1610   43.2640 C   0  0  0  0  0  0  0  0  0  0  0  0
   44.4920   35.7740   44.5060 C   0  0  0  0  0  0  0  0  0  0  0  0
   44.9570   34.4990   45.1540 C   0  0  0  0  0  0  0  0  0  0  0  0
   46.3960   34.2090   44.7530 C   0  0  0  0  0  0  0  0  0  0  0  0
   45.9920   32.9550   43.0940 H   0  0  0  0  0  0  0  0  0  0  0  0
   44.8130   34.5510   41.9860 H   0  0  0  0  0  0  0  0  0  0  0  0
   46.3280   35.3630   41.6270 H   0  0  0  0  0  0  0  0  0  0  0  0
   44.5330   36.7160   42.6230 H   0  0  0  0  0  0  0  0  0  0  0  0
   46.0190   36.9000   43.5500 H   0  0  0  0  0  0  0  0  0  0  0  0
   44.5690   36.5850   45.2670 H   0  0  0  0  0  0  0  0  0  0  0  0
   43.3970   35.6720   44.2930 H   0  0  0  0  0  0  0  0  0  0  0  0
   44.9040   34.5410   46.2510 H   0  0  0  0  0  0  0  0  0  0  0  0
   44.3470   33.6330   44.7770 H   0  0  0  0  0  0  0  0  0  0  0  0
   46.9480   35.1500   44.9290 H   0  0  0  0  0  0  0  0  0  0  0  0
   46.7780   33.3330   45.2780 H   0  0  0  0  0  0  0  0  0  0  0  0
   50.6680   31.5130   42.4390 C   0  0  0  0  0  0  0  0  0  0  0  0
   51.5330   31.4120   41.4040 N   0  0  0  0  0  0  0  0  0  0  0  0
   52.1980   30.2430   41.4870 C   0  0  0  0  0  0  0  0  0  0  0  0
   51.7300   29.6100   42.5960 N   0  0  0  0  0  0  0  0  0  0  0  0
   50.8030   30.3830   43.1710 N   0  0  0  0  0  0  0  0  0  0  0  0
   52.9500   29.9090   40.7860 H   0  0  0  0  0  0  0  0  0  0  0  0
   53.7980   29.7710   44.6730 Cl  0  0  0  0  0  0  0  0  0  0  0  0
   53.1300   28.2660   44.0400 C   0  0  0  0  0  0  0  0  0  0  0  0
   52.1600   28.3390   43.0630 C   0  0  0  0  0  0  0  0  0  0  0  0
   51.6140   27.1940   42.5430 C   0  0  0  0  0  0  0  0  0  0  0  0
   50.8550   27.2060   41.7790 H   0  0  0  0  0  0  0  0  0  0  0  0
   52.0480   25.9590   43.0140 C   0  0  0  0  0  0  0  0  0  0  0  0
   51.6070   25.0670   42.5940 H   0  0  0  0  0  0  0  0  0  0  0  0
   53.0320   25.9030   44.0060 C   0  0  0  0  0  0  0  0  0  0  0  0
   53.3670   24.9440   44.3670 H   0  0  0  0  0  0  0  0  0  0  0  0
   53.5760   27.0520   44.5220 C   0  0  0  0  0  0  0  0  0  0  0  0
   54.8180   27.0360   45.7710 Cl  0  0  0  0  0  0  0  0  0  0  0  0
  1  9  1  0  0  0  0
  2  7  1  0  0  0  0
  2  1  2  0  0  0  0
  3  2  1  0  0  0  0
  4  3  2  0  0  0  0
  4  5  1  0  0  0  0
  5  6  2  0  0  0  0
  6  1  1  0  0  0  0
  8  3  1  0  0  0  0
  9 14  1  0  0  0  0
 10  9  1  0  0  0  0
 10 11  1  0  0  0  0
 11 19  1  0  0  0  0
 11 12  1  0  0  0  0
 12 13  1  0  0  0  0
 12 20  1  0  0  0  0
 13 22  1  0  0  0  0
 14 24  1  0  0  0  0
 14 13  1  0  0  0  0
 14 25  1  0  0  0  0
 15  9  1  0  0  0  0
 16 10  1  0  0  0  0
 17 10  1  0  0  0  0
 18 11  1  0  0  0  0
 21 12  1  0  0  0  0
 23 13  1  0  0  0  0
 26  5  1  0  0  0  0
 26 30  2  0  0  0  0
 27 28  2  0  0  0  0
 27 26  1  0  0  0  0
 28 29  1  0  0  0  0
 29 34  1  0  0  0  0
 29 30  1  0  0  0  0
 31 28  1  0  0  0  0
 33 41  1  0  0  0  0
 33 32  1  0  0  0  0
 34 33  2  0  0  0  0
 35 37  2  0  0  0  0
 35 34  1  0  0  0  0
 36 35  1  0  0  0  0
 37 39  1  0  0  0  0
 38 37  1  0  0  0  0
 39 40  1  0  0  0  0
 39 41  2  0  0  0  0
 41 42  1  0  0  0  0
M  END
>  <minimizedAffinity>
-4.35207462

>  <minimizedRMSD>
1.07228696

$$$$
