
 OpenBabel03242510223D

 40 43  0  0  1  0  0  0  0  0999 V2000
   48.0470   33.2410   43.1420 N   0  0  0  0  0  0  0  0  0  0  0  0
   49.2260   33.3080   42.4030 C   0  0  0  0  0  0  0  0  0  0  0  0
   50.3870   32.9030   42.6750 O   0  0  0  0  0  0  0  0  0  0  0  0
   47.4990   34.1280   43.0860 H   0  0  0  0  0  0  0  0  0  0  0  0
   46.2870   32.0930   44.4350 C   0  0  1  0  0  0  0  0  0  0  0  0
   46.4300   31.3650   43.2530 C   0  0  0  0  0  0  0  0  0  0  0  0
   47.6590   32.0900   43.8770 C   0  0  1  0  0  0  0  0  0  0  0  0
   46.1130   31.6120   45.4380 H   0  0  0  0  0  0  0  0  0  0  0  0
   46.4420   30.2320   43.3150 H   0  0  0  0  0  0  0  0  0  0  0  0
   46.1440   31.6680   42.2300 H   0  0  0  0  0  0  0  0  0  0  0  0
   48.4310   31.3450   44.1660 H   0  0  0  0  0  0  0  0  0  0  0  0
   45.0500   33.9850   43.1490 C   0  0  0  0  0  0  0  0  0  0  0  0
   45.5460   33.4350   44.3770 C   0  0  0  0  0  0  0  0  0  0  0  0
   45.3540   34.1740   45.5270 C   0  0  0  0  0  0  0  0  0  0  0  0
   44.7180   35.3630   45.4450 N   0  0  0  0  0  0  0  0  0  0  0  0
   44.2540   35.8710   44.2760 C   0  0  0  0  0  0  0  0  0  0  0  0
   44.4310   35.1480   43.0890 N   0  0  0  0  0  0  0  0  0  0  0  0
   45.1770   33.4050   42.2560 H   0  0  0  0  0  0  0  0  0  0  0  0
   45.7020   33.8170   46.4800 H   0  0  0  0  0  0  0  0  0  0  0  0
   43.7440   36.8240   44.2130 H   0  0  0  0  0  0  0  0  0  0  0  0
   49.2090   33.9560   41.0310 C   0  0  2  0  0  0  0  0  0  0  0  0
   48.6000   35.4040   40.9540 C   0  0  0  0  0  0  0  0  0  0  0  0
   47.9450   34.2160   40.3290 C   0  0  1  0  0  0  0  0  0  0  0  0
   50.1460   33.9310   40.4410 H   0  0  0  0  0  0  0  0  0  0  0  0
   48.1880   35.7580   41.9290 H   0  0  0  0  0  0  0  0  0  0  0  0
   49.0520   36.1160   40.2730 H   0  0  0  0  0  0  0  0  0  0  0  0
   47.0330   33.7650   40.7690 H   0  0  0  0  0  0  0  0  0  0  0  0
   47.9590   34.1220   38.8190 C   0  0  0  0  0  0  0  0  0  0  0  0
   48.6130   34.9300   38.1740 O   0  0  0  0  0  0  0  0  0  0  0  0
   49.5930   31.7070   38.2180 Cl  0  0  0  0  0  0  0  0  0  0  0  0
   47.9020   31.9410   37.7890 C   0  0  0  0  0  0  0  0  0  0  0  0
   47.2140   33.0920   38.1050 C   0  0  0  0  0  0  0  0  0  0  0  0
   45.8960   33.1480   37.7120 C   0  0  0  0  0  0  0  0  0  0  0  0
   45.3580   34.0480   37.9590 H   0  0  0  0  0  0  0  0  0  0  0  0
   45.2880   32.1110   37.0370 C   0  0  0  0  0  0  0  0  0  0  0  0
   44.2310   32.2650   36.7730 H   0  0  0  0  0  0  0  0  0  0  0  0
   45.9710   30.9550   36.7180 C   0  0  0  0  0  0  0  0  0  0  0  0
   45.4650   30.1650   36.1900 H   0  0  0  0  0  0  0  0  0  0  0  0
   47.2930   30.8810   37.1040 C   0  0  0  0  0  0  0  0  0  0  0  0
   48.1900   29.4270   36.7150 Cl  0  0  0  0  0  0  0  0  0  0  0  0
  1  7  1  0  0  0  0
  2  3  2  0  0  0  0
  2  1  1  0  0  0  0
  4  1  1  0  0  0  0
  5  8  1  1  0  0  0
  6  9  1  0  0  0  0
  6  7  1  0  0  0  0
  6  5  1  0  0  0  0
  7 11  1  1  0  0  0
  7  5  1  0  0  0  0
 10  6  1  0  0  0  0
 12 13  1  0  0  0  0
 13  5  1  0  0  0  0
 13 14  2  0  0  0  0
 14 19  1  0  0  0  0
 15 14  1  0  0  0  0
 16 15  2  0  0  0  0
 17 12  2  0  0  0  0
 17 16  1  0  0  0  0
 18 12  1  0  0  0  0
 20 16  1  0  0  0  0
 21 24  1  6  0  0  0
 21  2  1  0  0  0  0
 22 21  1  0  0  0  0
 22 25  1  0  0  0  0
 23 27  1  1  0  0  0
 23 22  1  0  0  0  0
 23 21  1  0  0  0  0
 26 22  1  0  0  0  0
 28 23  1  0  0  0  0
 29 28  2  0  0  0  0
 31 32  1  0  0  0  0
 31 30  1  0  0  0  0
 32 28  1  0  0  0  0
 33 34  1  0  0  0  0
 33 32  2  0  0  0  0
 35 33  1  0  0  0  0
 36 35  1  0  0  0  0
 37 35  2  0  0  0  0
 37 39  1  0  0  0  0
 38 37  1  0  0  0  0
 39 31  2  0  0  0  0
 40 39  1  0  0  0  0
M  END
>  <minimizedAffinity>
-4.91511154

>  <minimizedRMSD>
0.518100083

$$$$
