
     RDKit          3D

 27 28  0  0  0  0  0  0  0  0999 V2000
   45.4290   35.1896   43.1072 C   0  0  0  0  0  0  0  0  0  0  0  0
   46.4558   35.5614   42.2130 C   0  0  0  0  0  0  0  0  0  0  0  0
   47.6795   34.8881   42.3758 C   0  0  0  0  0  0  0  0  0  0  0  0
   47.7693   33.9540   43.3612 N   0  0  0  0  0  0  0  0  0  0  0  0
   46.7468   33.6429   44.1865 C   0  0  0  0  0  0  0  0  0  0  0  0
   45.5601   34.2740   44.0527 N   0  0  0  0  0  0  0  0  0  0  0  0
   43.3989   35.3430   41.8853 C   0  0  0  0  0  0  0  0  0  0  0  0
   43.9499   34.4773   41.1509 O   0  0  0  0  0  0  0  0  0  0  0  0
   44.1528   35.8380   42.9965 N   0  0  0  0  0  0  0  0  0  0  0  0
   48.7401   35.2685   41.4561 C   0  0  0  0  0  0  0  0  0  0  0  0
   49.8533   34.4517   41.6733 F   0  0  0  0  0  0  0  0  0  0  0  0
   49.1464   36.5461   41.7996 F   0  0  0  0  0  0  0  0  0  0  0  0
   48.3900   35.1376   40.1379 F   0  0  0  0  0  0  0  0  0  0  0  0
   46.2962   36.3166   41.4574 H   0  0  0  0  0  0  0  0  0  0  0  0
   46.8714   32.8862   44.9603 H   0  0  0  0  0  0  0  0  0  0  0  0
   43.7646   36.5899   43.6235 H   0  0  0  0  0  0  0  0  0  0  0  0
   41.9091   34.1501   39.6423 Cl  0  0  0  0  0  0  0  0  0  0  0  0
   41.2478   35.4034   40.6711 C   0  0  0  0  0  0  0  0  0  0  0  0
   42.0398   35.8938   41.7002 C   0  0  0  0  0  0  0  0  0  0  0  0
   41.6603   36.8780   42.5916 C   0  0  0  0  0  0  0  0  0  0  0  0
   42.2872   37.2361   43.3719 H   0  0  0  0  0  0  0  0  0  0  0  0
   40.3955   37.3979   42.4278 C   0  0  0  0  0  0  0  0  0  0  0  0
   39.9735   38.1852   43.0700 H   0  0  0  0  0  0  0  0  0  0  0  0
   39.5679   36.9439   41.4186 C   0  0  0  0  0  0  0  0  0  0  0  0
   38.5673   37.3592   41.2936 H   0  0  0  0  0  0  0  0  0  0  0  0
   39.9853   35.9564   40.5463 C   0  0  0  0  0  0  0  0  0  0  0  0
   38.9781   35.3380   39.2432 Cl  0  0  0  0  0  0  0  0  0  0  0  0
  1  6  2  0
  2  3  2  0
  2  1  1  0
  3  4  1  0
  4  5  2  0
  6  5  1  0
  7  9  1  0
  8  7  2  0
  9  1  1  0
 10 11  1  0
 10 12  1  0
 10  3  1  0
 13 10  1  0
  2 14  1  0
  5 15  1  0
  9 16  1  0
 17 18  1  0
 18 19  2  0
 19 20  1  0
 20 21  1  0
 20 22  2  0
 22 23  1  0
 22 24  1  0
 24 25  1  0
 24 26  2  0
 26 27  1  0
 26 18  1  0
  7 19  1  0
M  ISO  5  14  14  15  14  21  15  23  15  25  15
M  END
>  <DihAtoms>  (1) 
8,6,18,17

>  <DihDeg>  (1) 
-117.25070132975497

$$$$
