
 OpenBabel03252507463D

 39 41  0  0  0  0  0  0  0  0999 V2000
   48.5560   33.8730   41.3170 C   0  0  0  0  0  0  0  0  0  0  0  0
   48.7220   32.5370   40.9480 C   0  0  0  0  0  0  0  0  0  0  0  0
   49.8660   31.8420   41.3300 C   0  0  0  0  0  0  0  0  0  0  0  0
   50.7990   32.5100   42.0630 N   0  0  0  0  0  0  0  0  0  0  0  0
   50.6020   33.8080   42.4030 C   0  0  0  0  0  0  0  0  0  0  0  0
   49.5030   34.4480   42.0270 N   0  0  0  0  0  0  0  0  0  0  0  0
   49.9820   30.8090   41.0370 H   0  0  0  0  0  0  0  0  0  0  0  0
   51.3940   34.2740   42.9920 H   0  0  0  0  0  0  0  0  0  0  0  0
   47.3220   34.5330   40.8760 C   0  0  0  0  0  0  0  0  0  0  0  0
   46.7370   33.9370   40.1840 H   0  0  0  0  0  0  0  0  0  0  0  0
   47.6560   35.4340   40.2850 H   0  0  0  0  0  0  0  0  0  0  0  0
   46.5030   35.0740   42.0030 C   0  0  0  0  0  0  0  0  0  0  0  0
   46.7670   34.5410   42.9410 H   0  0  0  0  0  0  0  0  0  0  0  0
   46.7090   36.1510   42.2180 H   0  0  0  0  0  0  0  0  0  0  0  0
   45.0340   34.9970   41.7710 C   0  0  0  0  0  0  0  0  0  0  0  0
   44.1400   35.5030   42.7660 C   0  0  0  0  0  0  0  0  0  0  0  0
   42.4840   35.1840   42.0290 S   0  0  0  0  0  0  0  0  0  0  0  0
   43.2910   34.4140   40.4880 C   0  0  0  0  0  0  0  0  0  0  0  0
   44.3980   34.5100   40.7400 N   0  0  0  0  0  0  0  0  0  0  0  0
   44.4020   35.9590   43.7120 H   0  0  0  0  0  0  0  0  0  0  0  0
   42.5490   33.9130   39.4240 O   0  0  0  0  0  0  0  0  0  0  0  0
   40.5780   34.2670   37.6980 O   0  0  0  0  0  0  0  0  0  0  0  0
   41.6370   35.0100   38.5020 P   0  0  0  0  0  0  0  0  0  0  0  0
   40.8710   36.0760   39.5830 O   0  0  0  0  0  0  0  0  0  0  0  0
   40.3350   35.5840   40.2250 H   0  0  0  0  0  0  0  0  0  0  0  0
   42.6640   35.9090   37.5060 O   0  0  0  0  0  0  0  0  0  0  0  0
   42.9120   35.3590   36.7230 H   0  0  0  0  0  0  0  0  0  0  0  0
   47.4590   31.6960   39.9770 S   0  0  0  0  0  0  0  0  0  0  0  0
   44.5920   31.0870   38.6750 Cl  0  0  0  0  0  0  0  0  0  0  0  0
   44.7530   31.0720   40.4180 C   0  0  0  0  0  0  0  0  0  0  0  0
   46.0010   31.3390   40.9420 C   0  0  0  0  0  0  0  0  0  0  0  0
   46.1790   31.3390   42.3110 C   0  0  0  0  0  0  0  0  0  0  0  0
   47.1010   31.5320   42.8190 H   0  0  0  0  0  0  0  0  0  0  0  0
   45.1450   31.0800   43.1790 C   0  0  0  0  0  0  0  0  0  0  0  0
   45.2350   31.0690   44.2650 H   0  0  0  0  0  0  0  0  0  0  0  0
   43.8750   30.8080   42.6630 C   0  0  0  0  0  0  0  0  0  0  0  0
   43.0090   30.5940   43.3070 H   0  0  0  0  0  0  0  0  0  0  0  0
   43.7240   30.8150   41.2950 C   0  0  0  0  0  0  0  0  0  0  0  0
   42.1490   30.4790   40.6190 Cl  0  0  0  0  0  0  0  0  0  0  0  0
  1  6  1  0  0  0  0
  2  1  2  0  0  0  0
  2  3  1  0  0  0  0
  3  4  2  0  0  0  0
  4  5  1  0  0  0  0
  5  8  1  0  0  0  0
  6  5  2  0  0  0  0
  7  3  1  0  0  0  0
  9  1  1  0  0  0  0
  9 12  1  0  0  0  0
 10  9  1  0  0  0  0
 11  9  1  0  0  0  0
 12 14  1  0  0  0  0
 12 13  1  0  0  0  0
 15 12  1  0  0  0  0
 15 16  2  0  0  0  0
 16 20  1  0  0  0  0
 17 16  1  0  0  0  0
 18 19  2  0  0  0  0
 18 17  1  0  0  0  0
 19 15  1  0  0  0  0
 21 18  1  0  0  0  0
 22 23  2  0  0  0  0
 23 21  1  0  0  0  0
 23 24  1  0  0  0  0
 24 25  1  0  0  0  0
 26 23  1  0  0  0  0
 27 26  1  0  0  0  0
 28 31  1  0  0  0  0
 28  2  1  0  0  0  0
 29 30  1  0  0  0  0
 30 31  2  0  0  0  0
 30 38  1  0  0  0  0
 31 32  1  0  0  0  0
 32 33  1  0  0  0  0
 32 34  2  0  0  0  0
 34 35  1  0  0  0  0
 36 34  1  0  0  0  0
 36 37  1  0  0  0  0
 38 36  2  0  0  0  0
 39 38  1  0  0  0  0
M  END
>  <minimizedAffinity>
-4.54463053

>  <minimizedRMSD>
1.21035516

$$$$
