REMARK  Name = 
REMARK  2 active torsions:
REMARK  status: ('A' for Active; 'I' for Inactive)
REMARK    1  A    between atoms: C_2  and  S_7
REMARK    2  A    between atoms: S_7  and  C_13
REMARK                            x       y       z     vdW  Elec       q    Type
REMARK                         _______ _______ _______ _____ _____    ______ ____
ROOT
ATOM      1 CL   UNL     1      43.042  32.514  42.259  0.00  0.00    +0.000 Cl
ATOM      2  C   UNL     1      41.833  33.613  41.618  0.00  0.00    +0.000 A 
ATOM      3  C   UNL     1      42.119  34.924  41.282  0.00  0.00    +0.000 A 
ATOM      4  C   UNL     1      41.097  35.728  40.780  0.00  0.00    +0.000 A 
ATOM      5  H   UNL     1      41.377  36.755  40.530  0.00  0.00    +0.000 HD
ATOM      6  C   UNL     1      39.820  35.228  40.620  0.00  0.00    +0.000 A 
ATOM      7  H   UNL     1      39.066  35.912  40.222  0.00  0.00    +0.000 HD
ATOM      8  C   UNL     1      39.521  33.918  40.953  0.00  0.00    +0.000 A 
ATOM      9  H   UNL     1      38.502  33.581  40.806  0.00  0.00    +0.000 HD
ATOM     10  C   UNL     1      40.544  33.132  41.450  0.00  0.00    +0.000 A 
ATOM     11 CL   UNL     1      40.074  31.490  41.844  0.00  0.00    +0.000 Cl
ENDROOT
BRANCH   3  12
ATOM     12  S   UNL     1      43.806  35.451  41.534  0.00  0.00    +0.000 S 
BRANCH  12  14
ATOM     13  C   UNL     1      44.263  35.740  44.263  0.00  0.00    +0.000 A 
ATOM     14  C   UNL     1      44.423  34.910  43.123  0.00  0.00    +0.000 A 
ATOM     15  C   UNL     1      45.063  33.689  43.287  0.00  0.00    +0.000 A 
ATOM     16  N   UNL     1      45.511  33.331  44.518  0.00  0.00    +0.000 NA
ATOM     17  C   UNL     1      45.341  34.149  45.585  0.00  0.00    +0.000 A 
ATOM     18  N   UNL     1      44.731  35.329  45.461  0.00  0.00    +0.000 NA
ATOM     19  H   UNL     1      43.767  36.678  44.114  0.00  0.00    +0.000 HD
ATOM     20  H   UNL     1      45.186  33.056  42.424  0.00  0.00    +0.000 HD
ATOM     21  H   UNL     1      45.739  33.747  46.490  0.00  0.00    +0.000 HD
ENDBRANCH  12  14
ENDBRANCH   3  12
TORSDOF 2
