REMARK  Name = 
REMARK  2 active torsions:
REMARK  status: ('A' for Active; 'I' for Inactive)
REMARK    1  A    between atoms: C_2  and  S_7
REMARK    2  A    between atoms: S_7  and  C_13
REMARK                            x       y       z     vdW  Elec       q    Type
REMARK                         _______ _______ _______ _____ _____    ______ ____
ROOT
ATOM      1 CL   UNL     1      43.030  34.219  38.774  0.00  0.00    +0.000 Cl
ATOM      2  C   UNL     1      41.827  34.385  40.042  0.00  0.00    +0.000 A 
ATOM      3  C   UNL     1      42.119  34.924  41.282  0.00  0.00    +0.000 A 
ATOM      4  C   UNL     1      41.102  35.018  42.232  0.00  0.00    +0.000 A 
ATOM      5  H   UNL     1      41.386  35.451  43.194  0.00  0.00    +0.000 HD
ATOM      6  C   UNL     1      39.824  34.581  41.942  0.00  0.00    +0.000 A 
ATOM      7  H   UNL     1      39.075  34.684  42.731  0.00  0.00    +0.000 HD
ATOM      8  C   UNL     1      39.520  34.040  40.704  0.00  0.00    +0.000 A 
ATOM      9  H   UNL     1      38.501  33.715  40.535  0.00  0.00    +0.000 HD
ATOM     10  C   UNL     1      40.537  33.953  39.773  0.00  0.00    +0.000 A 
ATOM     11 CL   UNL     1      40.061  33.256  38.238  0.00  0.00    +0.000 Cl
ENDROOT
BRANCH   3  12
ATOM     12  S   UNL     1      43.806  35.451  41.534  0.00  0.00    +0.000 S 
BRANCH  12  14
ATOM     13  C   UNL     1      44.263  35.740  44.263  0.00  0.00    +0.000 A 
ATOM     14  C   UNL     1      44.423  34.910  43.123  0.00  0.00    +0.000 A 
ATOM     15  C   UNL     1      45.063  33.689  43.287  0.00  0.00    +0.000 A 
ATOM     16  N   UNL     1      45.511  33.331  44.518  0.00  0.00    +0.000 NA
ATOM     17  C   UNL     1      45.341  34.149  45.585  0.00  0.00    +0.000 A 
ATOM     18  N   UNL     1      44.731  35.329  45.461  0.00  0.00    +0.000 NA
ATOM     19  H   UNL     1      43.767  36.678  44.114  0.00  0.00    +0.000 HD
ATOM     20  H   UNL     1      45.186  33.056  42.424  0.00  0.00    +0.000 HD
ATOM     21  H   UNL     1      45.739  33.747  46.490  0.00  0.00    +0.000 HD
ENDBRANCH  12  14
ENDBRANCH   3  12
TORSDOF 2
