REMARK  Name = 
REMARK  5 active torsions:
REMARK  status: ('A' for Active; 'I' for Inactive)
REMARK    1  A    between atoms: C_1  and  C_5
REMARK    2  A    between atoms: C_3  and  N_10
REMARK    3  A    between atoms: C_11  and  C_13
REMARK    4  A    between atoms: C_15  and  C_16
REMARK    5  A    between atoms: C_16  and  C_32
REMARK                            x       y       z     vdW  Elec       q    Type
REMARK                         _______ _______ _______ _____ _____    ______ ____
ROOT
ATOM      1  N   UNL     1      48.037  33.250  43.172  0.00  0.00    +0.000 N 
ATOM      2  C   UNL     1      49.186  33.289  42.386  0.00  0.00    +0.000 C 
ATOM      3  O   UNL     1      50.357  32.894  42.627  0.00  0.00    +0.000 OA
ATOM      4  H   UNL     1      47.486  34.134  43.104  0.00  0.00    +0.000 HD
ENDROOT
BRANCH   1   7
ATOM      5  C   UNL     1      46.318  32.136  44.549  0.00  0.00    +0.000 C 
ATOM      6  C   UNL     1      46.450  31.358  43.398  0.00  0.00    +0.000 C 
ATOM      7  C   UNL     1      47.680  32.128  43.965  0.00  0.00    +0.000 C 
ATOM      8  H   UNL     1      46.170  31.698  45.575  0.00  0.00    +0.000 HD
ATOM      9  H   UNL     1      46.481  30.229  43.510  0.00  0.00    +0.000 HD
ATOM     10  H   UNL     1      46.141  31.611  42.368  0.00  0.00    +0.000 HD
ATOM     11  H   UNL     1      48.468  31.407  44.272  0.00  0.00    +0.000 HD
BRANCH   5  13
ATOM     12  C   UNL     1      45.062  33.969  43.197  0.00  0.00    +0.000 A 
ATOM     13  C   UNL     1      45.557  33.464  44.445  0.00  0.00    +0.000 A 
ATOM     14  C   UNL     1      45.343  34.233  45.571  0.00  0.00    +0.000 A 
ATOM     15  N   UNL     1      44.689  35.409  45.449  0.00  0.00    +0.000 NA
ATOM     16  C   UNL     1      44.227  35.874  44.262  0.00  0.00    +0.000 A 
ATOM     17  N   UNL     1      44.425  35.120  43.098  0.00  0.00    +0.000 NA
ATOM     18  H   UNL     1      45.206  33.365  42.323  0.00  0.00    +0.000 HD
ATOM     19  H   UNL     1      45.689  33.910  46.537  0.00  0.00    +0.000 HD
ATOM     20  H   UNL     1      43.702  36.817  44.166  0.00  0.00    +0.000 HD
ENDBRANCH   5  13
ENDBRANCH   1   7
BRANCH   2  21
ATOM     21  C   UNL     1      49.114  33.884  40.992  0.00  0.00    +0.000 C 
ATOM     22  C   UNL     1      48.608  35.370  40.896  0.00  0.00    +0.000 C 
ATOM     23  C   UNL     1      47.824  34.213  40.371  0.00  0.00    +0.000 C 
ATOM     24  H   UNL     1      50.000  33.766  40.338  0.00  0.00    +0.000 HD
ATOM     25  H   UNL     1      48.297  35.791  41.882  0.00  0.00    +0.000 HD
ATOM     26  H   UNL     1      49.059  36.020  40.155  0.00  0.00    +0.000 HD
ATOM     27  H   UNL     1      46.916  33.849  40.894  0.00  0.00    +0.000 HD
BRANCH  23  28
ATOM     28  C   UNL     1      47.718  34.061  38.870  0.00  0.00    +0.000 C 
ATOM     29  O   UNL     1      48.459  34.714  38.148  0.00  0.00    +0.000 OA
BRANCH  28  32
ATOM     30 CL   UNL     1      45.005  34.243  40.081  0.00  0.00    +0.000 Cl
ATOM     31  C   UNL     1      45.474  33.181  38.758  0.00  0.00    +0.000 A 
ATOM     32  C   UNL     1      46.756  33.156  38.253  0.00  0.00    +0.000 A 
ATOM     33  C   UNL     1      46.992  32.280  37.219  0.00  0.00    +0.000 A 
ATOM     34  H   UNL     1      47.994  32.261  36.823  0.00  0.00    +0.000 HD
ATOM     35  C   UNL     1      46.003  31.465  36.708  0.00  0.00    +0.000 A 
ATOM     36  H   UNL     1      46.306  30.805  35.882  0.00  0.00    +0.000 HD
ATOM     37  C   UNL     1      44.718  31.485  37.209  0.00  0.00    +0.000 A 
ATOM     38  H   UNL     1      43.971  30.836  36.787  0.00  0.00    +0.000 HD
ATOM     39  C   UNL     1      44.462  32.358  38.247  0.00  0.00    +0.000 A 
ATOM     40 CL   UNL     1      42.840  32.409  38.908  0.00  0.00    +0.000 Cl
ENDBRANCH  28  32
ENDBRANCH  23  28
ENDBRANCH   2  21
TORSDOF 5
