
 OpenBabel03252507463D

 39 41  0  0  0  0  0  0  0  0999 V2000
   48.8340   33.8600   41.2430 C   0  0  0  0  0  0  0  0  0  0  0  0
   48.9840   32.6180   40.6260 C   0  0  0  0  0  0  0  0  0  0  0  0
   50.0930   31.8250   40.9060 C   0  0  0  0  0  0  0  0  0  0  0  0
   51.0080   32.3060   41.7910 N   0  0  0  0  0  0  0  0  0  0  0  0
   50.8280   33.5180   42.3720 C   0  0  0  0  0  0  0  0  0  0  0  0
   49.7630   34.2540   42.0880 N   0  0  0  0  0  0  0  0  0  0  0  0
   50.1960   30.8660   40.4210 H   0  0  0  0  0  0  0  0  0  0  0  0
   51.6050   33.8340   43.0710 H   0  0  0  0  0  0  0  0  0  0  0  0
   47.6370   34.6340   40.8940 C   0  0  0  0  0  0  0  0  0  0  0  0
   47.0330   34.1680   40.1230 H   0  0  0  0  0  0  0  0  0  0  0  0
   48.0190   35.5920   40.4350 H   0  0  0  0  0  0  0  0  0  0  0  0
   46.8330   35.0510   42.0830 C   0  0  0  0  0  0  0  0  0  0  0  0
   47.1150   34.4280   42.9570 H   0  0  0  0  0  0  0  0  0  0  0  0
   47.0360   36.1020   42.4020 H   0  0  0  0  0  0  0  0  0  0  0  0
   45.3600   34.9860   41.8660 C   0  0  0  0  0  0  0  0  0  0  0  0
   44.4870   35.6270   42.7990 C   0  0  0  0  0  0  0  0  0  0  0  0
   42.8180   35.2680   42.1090 S   0  0  0  0  0  0  0  0  0  0  0  0
   43.5950   34.3060   40.6640 C   0  0  0  0  0  0  0  0  0  0  0  0
   44.7060   34.4010   40.9000 N   0  0  0  0  0  0  0  0  0  0  0  0
   44.7660   36.1800   43.6860 H   0  0  0  0  0  0  0  0  0  0  0  0
   42.8340   33.7050   39.6670 O   0  0  0  0  0  0  0  0  0  0  0  0
   40.9130   33.8820   37.8590 O   0  0  0  0  0  0  0  0  0  0  0  0
   41.9140   34.7120   38.6530 P   0  0  0  0  0  0  0  0  0  0  0  0
   41.0710   35.8070   39.6430 O   0  0  0  0  0  0  0  0  0  0  0  0
   40.5320   35.3310   40.2960 H   0  0  0  0  0  0  0  0  0  0  0  0
   42.9410   35.5910   37.6410 O   0  0  0  0  0  0  0  0  0  0  0  0
   43.2370   35.0080   36.9000 H   0  0  0  0  0  0  0  0  0  0  0  0
   47.7440   32.0250   39.4600 S   0  0  0  0  0  0  0  0  0  0  0  0
   45.0400   31.2300   37.9300 Cl  0  0  0  0  0  0  0  0  0  0  0  0
   45.1280   31.0160   39.6650 C   0  0  0  0  0  0  0  0  0  0  0  0
   46.3070   31.3690   40.2890 C   0  0  0  0  0  0  0  0  0  0  0  0
   46.4250   31.2190   41.6550 C   0  0  0  0  0  0  0  0  0  0  0  0
   47.2910   31.4610   42.2360 H   0  0  0  0  0  0  0  0  0  0  0  0
   45.3990   30.7260   42.4250 C   0  0  0  0  0  0  0  0  0  0  0  0
   45.4430   30.5890   43.5060 H   0  0  0  0  0  0  0  0  0  0  0  0
   44.1980   30.3640   41.8080 C   0  0  0  0  0  0  0  0  0  0  0  0
   43.3410   29.9640   42.3700 H   0  0  0  0  0  0  0  0  0  0  0  0
   44.1050   30.5230   40.4440 C   0  0  0  0  0  0  0  0  0  0  0  0
   42.6190   30.0800   39.6430 Cl  0  0  0  0  0  0  0  0  0  0  0  0
  1  6  1  0  0  0  0
  2  3  1  0  0  0  0
  2  1  2  0  0  0  0
  3  4  2  0  0  0  0
  4  5  1  0  0  0  0
  5  8  1  0  0  0  0
  6  5  2  0  0  0  0
  7  3  1  0  0  0  0
  9  1  1  0  0  0  0
  9 12  1  0  0  0  0
 10  9  1  0  0  0  0
 11  9  1  0  0  0  0
 12 14  1  0  0  0  0
 12 13  1  0  0  0  0
 15 12  1  0  0  0  0
 15 16  2  0  0  0  0
 16 20  1  0  0  0  0
 17 16  1  0  0  0  0
 18 19  2  0  0  0  0
 18 17  1  0  0  0  0
 19 15  1  0  0  0  0
 21 18  1  0  0  0  0
 22 23  2  0  0  0  0
 23 24  1  0  0  0  0
 23 21  1  0  0  0  0
 24 25  1  0  0  0  0
 26 23  1  0  0  0  0
 27 26  1  0  0  0  0
 28 31  1  0  0  0  0
 28  2  1  0  0  0  0
 29 30  1  0  0  0  0
 30 31  2  0  0  0  0
 30 38  1  0  0  0  0
 31 32  1  0  0  0  0
 32 33  1  0  0  0  0
 32 34  2  0  0  0  0
 34 35  1  0  0  0  0
 36 37  1  0  0  0  0
 36 34  1  0  0  0  0
 38 36  2  0  0  0  0
 39 38  1  0  0  0  0
M  END
>  <minimizedAffinity>
-4.4641571

>  <minimizedRMSD>
1.30883849

$$$$
