
 OpenBabel03252507463D

 39 41  0  0  0  0  0  0  0  0999 V2000
   48.5540   33.8740   41.3170 C   0  0  0  0  0  0  0  0  0  0  0  0
   48.7220   32.5390   40.9490 C   0  0  0  0  0  0  0  0  0  0  0  0
   49.8670   31.8440   41.3300 C   0  0  0  0  0  0  0  0  0  0  0  0
   50.7980   32.5140   42.0640 N   0  0  0  0  0  0  0  0  0  0  0  0
   50.6000   33.8120   42.4030 C   0  0  0  0  0  0  0  0  0  0  0  0
   49.5010   34.4500   42.0270 N   0  0  0  0  0  0  0  0  0  0  0  0
   49.9840   30.8120   41.0390 H   0  0  0  0  0  0  0  0  0  0  0  0
   51.3930   34.2790   42.9920 H   0  0  0  0  0  0  0  0  0  0  0  0
   47.3200   34.5330   40.8760 C   0  0  0  0  0  0  0  0  0  0  0  0
   46.7350   33.9350   40.1850 H   0  0  0  0  0  0  0  0  0  0  0  0
   47.6530   35.4330   40.2830 H   0  0  0  0  0  0  0  0  0  0  0  0
   46.5010   35.0740   42.0030 C   0  0  0  0  0  0  0  0  0  0  0  0
   46.7650   34.5430   42.9410 H   0  0  0  0  0  0  0  0  0  0  0  0
   46.7080   36.1520   42.2160 H   0  0  0  0  0  0  0  0  0  0  0  0
   45.0320   34.9970   41.7710 C   0  0  0  0  0  0  0  0  0  0  0  0
   44.1390   35.5030   42.7660 C   0  0  0  0  0  0  0  0  0  0  0  0
   42.4820   35.1840   42.0290 S   0  0  0  0  0  0  0  0  0  0  0  0
   43.2890   34.4140   40.4880 C   0  0  0  0  0  0  0  0  0  0  0  0
   44.3960   34.5100   40.7400 N   0  0  0  0  0  0  0  0  0  0  0  0
   44.4000   35.9590   43.7120 H   0  0  0  0  0  0  0  0  0  0  0  0
   42.5470   33.9130   39.4240 O   0  0  0  0  0  0  0  0  0  0  0  0
   40.5770   34.2670   37.6970 O   0  0  0  0  0  0  0  0  0  0  0  0
   41.6360   35.0110   38.5020 P   0  0  0  0  0  0  0  0  0  0  0  0
   40.8690   36.0760   39.5820 O   0  0  0  0  0  0  0  0  0  0  0  0
   40.3330   35.5840   40.2240 H   0  0  0  0  0  0  0  0  0  0  0  0
   42.6630   35.9090   37.5070 O   0  0  0  0  0  0  0  0  0  0  0  0
   42.9120   35.3590   36.7240 H   0  0  0  0  0  0  0  0  0  0  0  0
   47.4600   31.6950   39.9780 S   0  0  0  0  0  0  0  0  0  0  0  0
   44.5940   31.0890   38.6750 Cl  0  0  0  0  0  0  0  0  0  0  0  0
   44.7530   31.0730   40.4180 C   0  0  0  0  0  0  0  0  0  0  0  0
   46.0020   31.3390   40.9430 C   0  0  0  0  0  0  0  0  0  0  0  0
   46.1780   31.3380   42.3110 C   0  0  0  0  0  0  0  0  0  0  0  0
   47.1000   31.5310   42.8190 H   0  0  0  0  0  0  0  0  0  0  0  0
   45.1450   31.0800   43.1780 C   0  0  0  0  0  0  0  0  0  0  0  0
   45.2340   31.0680   44.2660 H   0  0  0  0  0  0  0  0  0  0  0  0
   43.8740   30.8090   42.6630 C   0  0  0  0  0  0  0  0  0  0  0  0
   43.0080   30.5960   43.3060 H   0  0  0  0  0  0  0  0  0  0  0  0
   43.7240   30.8160   41.2940 C   0  0  0  0  0  0  0  0  0  0  0  0
   42.1490   30.4810   40.6190 Cl  0  0  0  0  0  0  0  0  0  0  0  0
  1  6  1  0  0  0  0
  2  1  2  0  0  0  0
  2  3  1  0  0  0  0
  3  4  2  0  0  0  0
  4  5  1  0  0  0  0
  5  8  1  0  0  0  0
  6  5  2  0  0  0  0
  7  3  1  0  0  0  0
  9  1  1  0  0  0  0
  9 12  1  0  0  0  0
 10  9  1  0  0  0  0
 11  9  1  0  0  0  0
 12 14  1  0  0  0  0
 12 13  1  0  0  0  0
 15 12  1  0  0  0  0
 15 16  2  0  0  0  0
 16 20  1  0  0  0  0
 17 16  1  0  0  0  0
 18 19  2  0  0  0  0
 18 17  1  0  0  0  0
 19 15  1  0  0  0  0
 21 18  1  0  0  0  0
 22 23  2  0  0  0  0
 23 21  1  0  0  0  0
 23 24  1  0  0  0  0
 24 25  1  0  0  0  0
 26 23  1  0  0  0  0
 27 26  1  0  0  0  0
 28 31  1  0  0  0  0
 28  2  1  0  0  0  0
 29 30  1  0  0  0  0
 30 31  2  0  0  0  0
 30 38  1  0  0  0  0
 31 32  1  0  0  0  0
 32 33  1  0  0  0  0
 32 34  2  0  0  0  0
 34 35  1  0  0  0  0
 36 34  1  0  0  0  0
 36 37  1  0  0  0  0
 38 36  2  0  0  0  0
 39 38  1  0  0  0  0
M  END
>  <minimizedAffinity>
-4.54366398

>  <minimizedRMSD>
1.11956084

$$$$
