
 OpenBabel03242519253D

 42 45  0  0  0  0  0  0  0  0999 V2000
   47.9050   33.8830   42.8840 C   0  0  0  0  0  0  0  0  0  0  0  0
   48.5480   35.1200   42.6330 C   0  0  0  0  0  0  0  0  0  0  0  0
   49.9090   35.1480   42.3030 C   0  0  0  0  0  0  0  0  0  0  0  0
   50.5500   33.9350   42.2450 N   0  0  0  0  0  0  0  0  0  0  0  0
   49.9000   32.7540   42.4940 C   0  0  0  0  0  0  0  0  0  0  0  0
   48.6070   32.7340   42.8060 N   0  0  0  0  0  0  0  0  0  0  0  0
   48.1150   36.0920   42.6600 H   0  0  0  0  0  0  0  0  0  0  0  0
   50.4490   36.0400   42.1030 H   0  0  0  0  0  0  0  0  0  0  0  0
   46.4770   33.9600   43.2280 C   0  0  0  0  0  0  0  0  0  0  0  0
   45.7440   34.9680   42.4650 C   0  0  0  0  0  0  0  0  0  0  0  0
   45.2720   36.1240   43.2650 C   0  0  0  0  0  0  0  0  0  0  0  0
   44.4930   35.7230   44.5070 C   0  0  0  0  0  0  0  0  0  0  0  0
   44.9790   34.4550   45.1530 C   0  0  0  0  0  0  0  0  0  0  0  0
   46.4220   34.1890   44.7500 C   0  0  0  0  0  0  0  0  0  0  0  0
   46.0360   32.9310   43.0890 H   0  0  0  0  0  0  0  0  0  0  0  0
   44.8300   34.5100   41.9850 H   0  0  0  0  0  0  0  0  0  0  0  0
   46.3310   35.3460   41.6250 H   0  0  0  0  0  0  0  0  0  0  0  0
   44.5170   36.6690   42.6260 H   0  0  0  0  0  0  0  0  0  0  0  0
   46.0020   36.8750   43.5510 H   0  0  0  0  0  0  0  0  0  0  0  0
   44.5590   36.5350   45.2700 H   0  0  0  0  0  0  0  0  0  0  0  0
   43.4000   35.6050   44.2960 H   0  0  0  0  0  0  0  0  0  0  0  0
   44.9270   34.4950   46.2500 H   0  0  0  0  0  0  0  0  0  0  0  0
   44.3830   33.5800   44.7750 H   0  0  0  0  0  0  0  0  0  0  0  0
   46.9600   35.1380   44.9260 H   0  0  0  0  0  0  0  0  0  0  0  0
   46.8190   33.3180   45.2730 H   0  0  0  0  0  0  0  0  0  0  0  0
   50.7250   31.5600   42.3950 C   0  0  0  0  0  0  0  0  0  0  0  0
   51.5050   31.4320   41.2970 N   0  0  0  0  0  0  0  0  0  0  0  0
   52.1970   30.2780   41.3710 C   0  0  0  0  0  0  0  0  0  0  0  0
   51.8340   29.6840   42.5390 N   0  0  0  0  0  0  0  0  0  0  0  0
   50.9430   30.4640   43.1570 N   0  0  0  0  0  0  0  0  0  0  0  0
   52.8960   29.9290   40.6240 H   0  0  0  0  0  0  0  0  0  0  0  0
   50.1290   27.4020   41.8290 Cl  0  0  0  0  0  0  0  0  0  0  0  0
   51.6240   27.2840   42.7570 C   0  0  0  0  0  0  0  0  0  0  0  0
   52.3270   28.4400   43.0180 C   0  0  0  0  0  0  0  0  0  0  0  0
   53.4950   28.3930   43.7360 C   0  0  0  0  0  0  0  0  0  0  0  0
   54.0740   29.2720   43.9620 H   0  0  0  0  0  0  0  0  0  0  0  0
   53.9600   27.1670   44.1970 C   0  0  0  0  0  0  0  0  0  0  0  0
   54.8830   27.1480   44.7610 H   0  0  0  0  0  0  0  0  0  0  0  0
   53.2340   26.0020   43.9230 C   0  0  0  0  0  0  0  0  0  0  0  0
   53.5990   25.0530   44.2810 H   0  0  0  0  0  0  0  0  0  0  0  0
   52.0680   26.0560   43.2040 C   0  0  0  0  0  0  0  0  0  0  0  0
   51.1170   24.6190   42.8310 Cl  0  0  0  0  0  0  0  0  0  0  0  0
  1  9  1  0  0  0  0
  2  7  1  0  0  0  0
  2  1  2  0  0  0  0
  3  2  1  0  0  0  0
  4  3  2  0  0  0  0
  4  5  1  0  0  0  0
  5  6  2  0  0  0  0
  6  1  1  0  0  0  0
  8  3  1  0  0  0  0
  9 14  1  0  0  0  0
 10  9  1  0  0  0  0
 10 11  1  0  0  0  0
 11 19  1  0  0  0  0
 11 12  1  0  0  0  0
 12 13  1  0  0  0  0
 12 20  1  0  0  0  0
 13 22  1  0  0  0  0
 14 24  1  0  0  0  0
 14 13  1  0  0  0  0
 14 25  1  0  0  0  0
 15  9  1  0  0  0  0
 16 10  1  0  0  0  0
 17 10  1  0  0  0  0
 18 11  1  0  0  0  0
 21 12  1  0  0  0  0
 23 13  1  0  0  0  0
 26  5  1  0  0  0  0
 26 30  2  0  0  0  0
 27 28  2  0  0  0  0
 27 26  1  0  0  0  0
 28 29  1  0  0  0  0
 29 34  1  0  0  0  0
 29 30  1  0  0  0  0
 31 28  1  0  0  0  0
 32 33  1  0  0  0  0
 33 34  2  0  0  0  0
 33 41  1  0  0  0  0
 34 35  1  0  0  0  0
 35 36  1  0  0  0  0
 35 37  2  0  0  0  0
 37 38  1  0  0  0  0
 39 37  1  0  0  0  0
 39 40  1  0  0  0  0
 41 39  2  0  0  0  0
 42 41  1  0  0  0  0
M  END
>  <minimizedAffinity>
-4.18825102

>  <minimizedRMSD>
1.3693701

$$$$
