
 OpenBabel03242510223D

 40 43  0  0  1  0  0  0  0  0999 V2000
   47.9900   33.1450   43.0390 N   0  0  0  0  0  0  0  0  0  0  0  0
   49.1840   33.2070   42.3260 C   0  0  0  0  0  0  0  0  0  0  0  0
   50.3260   32.7520   42.5980 O   0  0  0  0  0  0  0  0  0  0  0  0
   47.4720   34.0510   43.0150 H   0  0  0  0  0  0  0  0  0  0  0  0
   46.1750   32.0020   44.2610 C   0  0  1  0  0  0  0  0  0  0  0  0
   46.3020   31.3280   43.0450 C   0  0  0  0  0  0  0  0  0  0  0  0
   47.5520   31.9750   43.7140 C   0  0  1  0  0  0  0  0  0  0  0  0
   45.9740   31.4790   45.2360 H   0  0  0  0  0  0  0  0  0  0  0  0
   46.2720   30.1940   43.0510 H   0  0  0  0  0  0  0  0  0  0  0  0
   46.0380   31.6920   42.0360 H   0  0  0  0  0  0  0  0  0  0  0  0
   48.2920   31.1870   43.9710 H   0  0  0  0  0  0  0  0  0  0  0  0
   44.9480   33.9630   43.0710 C   0  0  0  0  0  0  0  0  0  0  0  0
   45.4860   33.3730   44.2630 C   0  0  0  0  0  0  0  0  0  0  0  0
   45.3840   34.0980   45.4330 C   0  0  0  0  0  0  0  0  0  0  0  0
   44.7920   35.3120   45.4040 N   0  0  0  0  0  0  0  0  0  0  0  0
   44.2880   35.8580   44.2700 C   0  0  0  0  0  0  0  0  0  0  0  0
   44.3740   35.1510   43.0630 N   0  0  0  0  0  0  0  0  0  0  0  0
   45.0060   33.3950   42.1640 H   0  0  0  0  0  0  0  0  0  0  0  0
   45.7670   33.7100   46.3600 H   0  0  0  0  0  0  0  0  0  0  0  0
   43.8130   36.8310   44.2480 H   0  0  0  0  0  0  0  0  0  0  0  0
   49.2140   33.9170   40.9850 C   0  0  2  0  0  0  0  0  0  0  0  0
   48.5980   35.3640   40.9510 C   0  0  0  0  0  0  0  0  0  0  0  0
   47.9750   34.2040   40.2490 C   0  0  1  0  0  0  0  0  0  0  0  0
   50.1720   33.9240   40.4290 H   0  0  0  0  0  0  0  0  0  0  0  0
   48.1490   35.6720   41.9260 H   0  0  0  0  0  0  0  0  0  0  0  0
   49.0710   36.1100   40.3220 H   0  0  0  0  0  0  0  0  0  0  0  0
   47.0500   33.7280   40.6330 H   0  0  0  0  0  0  0  0  0  0  0  0
   48.0450   34.1790   38.7380 C   0  0  0  0  0  0  0  0  0  0  0  0
   48.6670   35.0550   38.1530 O   0  0  0  0  0  0  0  0  0  0  0  0
   49.8980   31.9960   37.9240 Cl  0  0  0  0  0  0  0  0  0  0  0  0
   48.1830   32.0910   37.5370 C   0  0  0  0  0  0  0  0  0  0  0  0
   47.3910   33.1390   37.9530 C   0  0  0  0  0  0  0  0  0  0  0  0
   46.0670   33.0920   37.5840 C   0  0  0  0  0  0  0  0  0  0  0  0
   45.4460   33.9110   37.9090 H   0  0  0  0  0  0  0  0  0  0  0  0
   45.5500   32.0540   36.8360 C   0  0  0  0  0  0  0  0  0  0  0  0
   44.4770   32.1230   36.6000 H   0  0  0  0  0  0  0  0  0  0  0  0
   46.3380   31.0020   36.4170 C   0  0  0  0  0  0  0  0  0  0  0  0
   45.9020   30.2090   35.8340 H   0  0  0  0  0  0  0  0  0  0  0  0
   47.6680   31.0320   36.7790 C   0  0  0  0  0  0  0  0  0  0  0  0
   48.6980   29.7110   36.2620 Cl  0  0  0  0  0  0  0  0  0  0  0  0
  1  7  1  0  0  0  0
  2  3  2  0  0  0  0
  2  1  1  0  0  0  0
  4  1  1  0  0  0  0
  5 13  1  0  0  0  0
  5  8  1  1  0  0  0
  6  9  1  0  0  0  0
  6  7  1  0  0  0  0
  6  5  1  0  0  0  0
  7 11  1  1  0  0  0
  7  5  1  0  0  0  0
 10  6  1  0  0  0  0
 12 13  1  0  0  0  0
 13 14  2  0  0  0  0
 14 19  1  0  0  0  0
 15 14  1  0  0  0  0
 16 15  2  0  0  0  0
 17 12  2  0  0  0  0
 17 16  1  0  0  0  0
 18 12  1  0  0  0  0
 20 16  1  0  0  0  0
 21 24  1  6  0  0  0
 21  2  1  0  0  0  0
 22 21  1  0  0  0  0
 22 25  1  0  0  0  0
 23 27  1  1  0  0  0
 23 22  1  0  0  0  0
 23 21  1  0  0  0  0
 26 22  1  0  0  0  0
 28 23  1  0  0  0  0
 29 28  2  0  0  0  0
 31 30  1  0  0  0  0
 31 32  1  0  0  0  0
 32 28  1  0  0  0  0
 33 34  1  0  0  0  0
 33 32  2  0  0  0  0
 35 33  1  0  0  0  0
 36 35  1  0  0  0  0
 37 39  1  0  0  0  0
 37 35  2  0  0  0  0
 38 37  1  0  0  0  0
 39 31  2  0  0  0  0
 40 39  1  0  0  0  0
M  END
>  <minimizedAffinity>
-4.89256048

>  <minimizedRMSD>
0.991915584

$$$$
