
     RDKit          3D

 42 45  0  0  0  0  0  0  0  0999 V2000
   46.4449   33.8590   43.2480 C   0  0  0  0  0  0  0  0  0  0  0  0
   45.7442   34.8525   42.4360 C   0  0  0  0  0  0  0  0  0  0  0  0
   45.3264   36.0680   43.1746 C   0  0  0  0  0  0  0  0  0  0  0  0
   44.5449   35.7669   44.4441 C   0  0  0  0  0  0  0  0  0  0  0  0
   44.9880   34.5177   45.1551 C   0  0  0  0  0  0  0  0  0  0  0  0
   46.4150   34.1727   44.7549 C   0  0  0  0  0  0  0  0  0  0  0  0
   47.8654   33.7067   42.8968 C   0  0  0  0  0  0  0  0  0  0  0  0
   48.5895   34.9115   42.7178 C   0  0  0  0  0  0  0  0  0  0  0  0
   49.9509   34.8671   42.3876 C   0  0  0  0  0  0  0  0  0  0  0  0
   50.5086   33.6187   42.2558 N   0  0  0  0  0  0  0  0  0  0  0  0
   49.7806   32.4721   42.4358 C   0  0  0  0  0  0  0  0  0  0  0  0
   48.4889   32.5198   42.7488 N   0  0  0  0  0  0  0  0  0  0  0  0
   50.5241   31.2325   42.2648 C   0  0  0  0  0  0  0  0  0  0  0  0
   51.5800   31.2535   41.4196 N   0  0  0  0  0  0  0  0  0  0  0  0
   52.1488   30.0316   41.3839 C   0  0  0  0  0  0  0  0  0  0  0  0
   51.4265   29.2444   42.2249 N   0  0  0  0  0  0  0  0  0  0  0  0
   50.4433   29.9753   42.7565 N   0  0  0  0  0  0  0  0  0  0  0  0
   45.9633   32.8420   43.1698 H   0  0  0  0  0  0  0  0  0  0  0  0
   44.8080   34.4035   41.9900 H   0  0  0  0  0  0  0  0  0  0  0  0
   46.3370   35.1592   41.5719 H   0  0  0  0  0  0  0  0  0  0  0  0
   44.5860   36.6062   42.5125 H   0  0  0  0  0  0  0  0  0  0  0  0
   46.0866   36.8043   43.4134 H   0  0  0  0  0  0  0  0  0  0  0  0
   44.6498   36.6161   45.1599 H   0  0  0  0  0  0  0  0  0  0  0  0
   43.4458   35.6800   44.2482 H   0  0  0  0  0  0  0  0  0  0  0  0
   44.9491   34.6205   46.2483 H   0  0  0  0  0  0  0  0  0  0  0  0
   44.3539   33.6480   44.8313 H   0  0  0  0  0  0  0  0  0  0  0  0
   46.9910   35.1077   44.8741 H   0  0  0  0  0  0  0  0  0  0  0  0
   46.7829   33.3170   45.3224 H   0  0  0  0  0  0  0  0  0  0  0  0
   48.2238   35.9058   42.8037 H   0  0  0  0  0  0  0  0  0  0  0  0
   50.5505   35.7310   42.2396 H   0  0  0  0  0  0  0  0  0  0  0  0
   53.0118   29.7703   40.7880 H   0  0  0  0  0  0  0  0  0  0  0  0
   54.1850   28.7133   43.0766 Cl  0  0  0  0  0  0  0  0  0  0  0  0
   52.9378   27.4793   42.8994 C   0  0  0  0  0  0  0  0  0  0  0  0
   51.6807   27.8713   42.4902 C   0  0  0  0  0  0  0  0  0  0  0  0
   50.6813   26.9446   42.3395 C   0  0  0  0  0  0  0  0  0  0  0  0
   49.6868   27.2078   42.0223 H   0  0  0  0  0  0  0  0  0  0  0  0
   50.9507   25.6058   42.6043 C   0  0  0  0  0  0  0  0  0  0  0  0
   50.1512   24.8889   42.4802 H   0  0  0  0  0  0  0  0  0  0  0  0
   52.2310   25.2251   43.0185 C   0  0  0  0  0  0  0  0  0  0  0  0
   52.4353   24.1862   43.2226 H   0  0  0  0  0  0  0  0  0  0  0  0
   53.2266   26.1570   43.1673 C   0  0  0  0  0  0  0  0  0  0  0  0
   54.8561   25.7292   43.6865 Cl  0  0  0  0  0  0  0  0  0  0  0  0
  1  6  1  0
  2  3  1  0
  2  1  1  0
  3  4  1  0
  4  5  1  0
  6  5  1  0
  7  1  1  0
  8  7  2  0
  9  8  1  0
 10  9  2  0
 10 11  1  0
 11 12  2  0
 12  7  1  0
 13 11  1  0
 13 17  2  0
 14 13  1  0
 15 14  2  0
 15 16  1  0
 16 17  1  0
  1 18  1  0
  2 19  1  0
  2 20  1  0
  3 21  1  0
  3 22  1  0
  4 23  1  0
  4 24  1  0
  5 25  1  0
  5 26  1  0
  6 27  1  0
  6 28  1  0
  8 29  1  0
  9 30  1  0
 15 31  1  0
 32 33  1  0
 33 34  2  0
 34 35  1  0
 35 36  1  0
 35 37  2  0
 37 38  1  0
 37 39  1  0
 39 40  1  0
 39 41  2  0
 41 42  1  0
 41 33  1  0
 16 34  1  0
M  ISO  8  18  13  19  13  20  13  21  13  22  13  23  13  24  13  25  13
M  ISO  8  26  13  27  13  28  13  29  14  30  14  31  14  36  15  38  15
M  ISO  1  40  15
M  END
>  <DihAtoms>  (1) 
14,15,33,32

>  <DihDeg>  (1) 
-171.53266970673025

$$$$
