
 OpenBabel03242516413D

 34 35  0  0  0  0  0  0  0  0999 V2000
   49.2070   33.5750   42.7390 C   0  0  0  0  0  0  0  0  0  0  0  0
   50.0870   34.0890   42.3180 H   0  0  0  0  0  0  0  0  0  0  0  0
   49.2690   33.6740   43.8440 H   0  0  0  0  0  0  0  0  0  0  0  0
   47.8890   34.1180   42.2580 C   0  0  0  0  0  0  0  0  0  0  0  0
   48.0610   35.1640   41.9010 H   0  0  0  0  0  0  0  0  0  0  0  0
   47.5070   33.5670   41.3810 H   0  0  0  0  0  0  0  0  0  0  0  0
   44.9120   35.0560   44.3620 C   0  0  0  0  0  0  0  0  0  0  0  0
   45.8350   34.9920   43.2940 C   0  0  0  0  0  0  0  0  0  0  0  0
   46.9410   34.1700   43.3810 C   0  0  0  0  0  0  0  0  0  0  0  0
   47.0930   33.4520   44.5070 N   0  0  0  0  0  0  0  0  0  0  0  0
   46.2060   33.5190   45.5250 C   0  0  0  0  0  0  0  0  0  0  0  0
   45.1230   34.3140   45.4560 N   0  0  0  0  0  0  0  0  0  0  0  0
   43.7810   35.8950   44.2730 N   0  0  0  0  0  0  0  0  0  0  0  0
   45.6810   35.5870   42.3970 H   0  0  0  0  0  0  0  0  0  0  0  0
   46.3780   32.9230   46.3990 H   0  0  0  0  0  0  0  0  0  0  0  0
   43.4840   36.7400   44.7990 H   0  0  0  0  0  0  0  0  0  0  0  0
   43.2200   35.4780   43.4980 H   0  0  0  0  0  0  0  0  0  0  0  0
   49.2840   32.2170   42.4700 O   0  0  0  0  0  0  0  0  0  0  0  0
   50.5270   30.4280   41.0390 O   0  0  0  0  0  0  0  0  0  0  0  0
   50.2930   31.8960   41.1380 P   0  0  2  0  0  0  0  0  0  0  0  0
   51.7300   32.7650   41.4020 O   0  0  0  0  0  0  0  0  0  0  0  0
   52.3540   32.2890   42.0080 H   0  0  0  0  0  0  0  0  0  0  0  0
   49.6070   32.5610   39.7520 O   0  0  0  0  0  0  0  0  0  0  0  0
   46.7720   32.1730   39.2560 Cl  0  0  0  0  0  0  0  0  0  0  0  0
   48.1430   31.8040   38.2010 C   0  0  0  0  0  0  0  0  0  0  0  0
   49.4950   32.0190   38.5060 C   0  0  0  0  0  0  0  0  0  0  0  0
   50.4220   31.6670   37.5530 C   0  0  0  0  0  0  0  0  0  0  0  0
   51.4190   31.8620   37.8630 H   0  0  0  0  0  0  0  0  0  0  0  0
   50.0370   31.1230   36.3450 C   0  0  0  0  0  0  0  0  0  0  0  0
   50.8590   30.8780   35.6570 H   0  0  0  0  0  0  0  0  0  0  0  0
   48.7130   30.9020   36.0230 C   0  0  0  0  0  0  0  0  0  0  0  0
   48.4490   30.4750   35.0670 H   0  0  0  0  0  0  0  0  0  0  0  0
   47.7700   31.2510   36.9690 C   0  0  0  0  0  0  0  0  0  0  0  0
   46.1030   30.9550   36.5220 Cl  0  0  0  0  0  0  0  0  0  0  0  0
  1  3  1  0  0  0  0
  2  1  1  0  0  0  0
  4  1  1  0  0  0  0
  4  9  1  0  0  0  0
  5  4  1  0  0  0  0
  6  4  1  0  0  0  0
  7 12  1  0  0  0  0
  8  9  1  0  0  0  0
  8  7  2  0  0  0  0
  9 10  2  0  0  0  0
 10 11  1  0  0  0  0
 11 15  1  0  0  0  0
 12 11  2  0  0  0  0
 13  7  1  0  0  0  0
 13 16  1  0  0  0  0
 14  8  1  0  0  0  0
 17 13  1  0  0  0  0
 18  1  1  0  0  0  0
 20 19  2  6  0  0  0
 20 21  1  0  0  0  0
 20 18  1  0  0  0  0
 21 22  1  0  0  0  0
 23 20  1  0  0  0  0
 25 26  1  0  0  0  0
 25 24  1  0  0  0  0
 26 23  1  0  0  0  0
 27 28  1  0  0  0  0
 27 26  2  0  0  0  0
 29 27  1  0  0  0  0
 30 29  1  0  0  0  0
 31 29  2  0  0  0  0
 31 33  1  0  0  0  0
 32 31  1  0  0  0  0
 33 25  2  0  0  0  0
 34 33  1  0  0  0  0
M  END
>  <minimizedAffinity>
-4.59793949

>  <minimizedRMSD>
0.555388391

$$$$
