REMARK  Name = 
REMARK  2 active torsions:
REMARK  status: ('A' for Active; 'I' for Inactive)
REMARK    1  A    between atoms: C_2  and  S_7
REMARK    2  A    between atoms: S_7  and  C_13
REMARK                            x       y       z     vdW  Elec       q    Type
REMARK                         _______ _______ _______ _____ _____    ______ ____
ROOT
ATOM      1 CL   UNL     1      43.299  32.685  40.182  0.00  0.00    +0.000 Cl
ATOM      2  C   UNL     1      41.949  33.691  40.679  0.00  0.00    +0.000 A 
ATOM      3  C   UNL     1      42.119  34.924  41.282  0.00  0.00    +0.000 A 
ATOM      4  C   UNL     1      40.990  35.657  41.645  0.00  0.00    +0.000 A 
ATOM      5  H   UNL     1      41.180  36.624  42.117  0.00  0.00    +0.000 HD
ATOM      6  C   UNL     1      39.722  35.163  41.408  0.00  0.00    +0.000 A 
ATOM      7  H   UNL     1      38.881  35.789  41.717  0.00  0.00    +0.000 HD
ATOM      8  C   UNL     1      39.539  33.930  40.805  0.00  0.00    +0.000 A 
ATOM      9  H   UNL     1      38.522  33.595  40.645  0.00  0.00    +0.000 HD
ATOM     10  C   UNL     1      40.667  33.215  40.451  0.00  0.00    +0.000 A 
ATOM     11 CL   UNL     1      40.340  31.668  39.695  0.00  0.00    +0.000 Cl
ENDROOT
BRANCH   3  12
ATOM     12  S   UNL     1      43.806  35.451  41.534  0.00  0.00    +0.000 S 
BRANCH  12  14
ATOM     13  C   UNL     1      44.263  35.740  44.263  0.00  0.00    +0.000 A 
ATOM     14  C   UNL     1      44.423  34.910  43.123  0.00  0.00    +0.000 A 
ATOM     15  C   UNL     1      45.063  33.689  43.287  0.00  0.00    +0.000 A 
ATOM     16  N   UNL     1      45.511  33.331  44.518  0.00  0.00    +0.000 NA
ATOM     17  C   UNL     1      45.341  34.149  45.585  0.00  0.00    +0.000 A 
ATOM     18  N   UNL     1      44.731  35.329  45.461  0.00  0.00    +0.000 NA
ATOM     19  H   UNL     1      43.767  36.678  44.114  0.00  0.00    +0.000 HD
ATOM     20  H   UNL     1      45.186  33.056  42.424  0.00  0.00    +0.000 HD
ATOM     21  H   UNL     1      45.739  33.747  46.490  0.00  0.00    +0.000 HD
ENDBRANCH  12  14
ENDBRANCH   3  12
TORSDOF 2
