
 OpenBabel03242521443D

 40 42  0  0  1  0  0  0  0  0999 V2000
   45.5250   35.6620   43.7030 C   0  0  0  0  0  0  0  0  0  0  0  0
   46.5610   34.8450   43.2120 C   0  0  0  0  0  0  0  0  0  0  0  0
   46.9440   33.7150   43.9490 C   0  0  0  0  0  0  0  0  0  0  0  0
   46.2930   33.4730   45.0930 N   0  0  0  0  0  0  0  0  0  0  0  0
   45.2960   34.2710   45.5520 C   0  0  0  0  0  0  0  0  0  0  0  0
   44.9160   35.3610   44.8550 N   0  0  0  0  0  0  0  0  0  0  0  0
   46.9970   35.1600   42.2740 H   0  0  0  0  0  0  0  0  0  0  0  0
   44.7840   34.0540   46.4790 H   0  0  0  0  0  0  0  0  0  0  0  0
   49.0150   33.6610   42.5860 C   0  0  2  0  0  0  0  0  0  0  0  0
   48.0150   32.9120   43.3930 C   0  0  2  0  0  0  0  0  0  0  0  0
   47.5830   31.9360   42.4460 O   0  0  0  0  0  0  0  0  0  0  0  0
   48.7960   31.4020   42.0440 C   0  0  0  0  0  0  0  0  0  0  0  0
   49.8520   32.4590   42.0980 C   0  0  1  0  0  0  0  0  0  0  0  0
   48.5480   34.0760   41.6470 H   0  0  0  0  0  0  0  0  0  0  0  0
   48.5210   32.3440   44.2070 H   0  0  0  0  0  0  0  0  0  0  0  0
   49.0480   30.6350   42.8270 H   0  0  0  0  0  0  0  0  0  0  0  0
   48.7440   30.8610   41.0890 H   0  0  0  0  0  0  0  0  0  0  0  0
   50.6670   32.2340   42.7970 H   0  0  0  0  0  0  0  0  0  0  0  0
   49.7350   34.5870   43.2770 O   0  0  0  0  0  0  0  0  0  0  0  0
   49.7800   35.4670   42.8410 H   0  0  0  0  0  0  0  0  0  0  0  0
   50.4140   32.7780   40.8650 O   0  0  0  0  0  0  0  0  0  0  0  0
   51.3970   32.5770   40.8520 H   0  0  0  0  0  0  0  0  0  0  0  0
   45.1330   36.8680   42.9110 C   0  0  0  0  0  0  0  0  0  0  0  0
   44.2870   36.6620   42.2400 H   0  0  0  0  0  0  0  0  0  0  0  0
   45.9930   37.2230   42.3160 H   0  0  0  0  0  0  0  0  0  0  0  0
   45.4980   39.1840   43.9530 C   0  0  0  0  0  0  0  0  0  0  0  0
   46.4360   39.4000   43.1370 O   0  0  0  0  0  0  0  0  0  0  0  0
   44.8590   37.9240   43.8800 N   0  0  0  0  0  0  0  0  0  0  0  0
   44.1060   37.7270   44.6020 H   0  0  0  0  0  0  0  0  0  0  0  0
   44.9160   42.0360   43.0240 Cl  0  0  0  0  0  0  0  0  0  0  0  0
   44.7970   41.5170   44.6900 C   0  0  0  0  0  0  0  0  0  0  0  0
   45.0960   40.1950   44.9230 C   0  0  0  0  0  0  0  0  0  0  0  0
   45.0370   39.6720   46.1920 C   0  0  0  0  0  0  0  0  0  0  0  0
   45.2530   38.6420   46.4910 H   0  0  0  0  0  0  0  0  0  0  0  0
   44.6760   40.4390   47.2990 C   0  0  0  0  0  0  0  0  0  0  0  0
   44.6140   40.0760   48.3160 H   0  0  0  0  0  0  0  0  0  0  0  0
   44.3750   41.7810   47.0410 C   0  0  0  0  0  0  0  0  0  0  0  0
   44.0860   42.4530   47.8300 H   0  0  0  0  0  0  0  0  0  0  0  0
   44.4370   42.3000   45.7640 C   0  0  0  0  0  0  0  0  0  0  0  0
   44.0650   43.9830   45.4060 Cl  0  0  0  0  0  0  0  0  0  0  0  0
  1  6  1  0  0  0  0
  2  1  2  0  0  0  0
  2  3  1  0  0  0  0
  3  4  2  0  0  0  0
  4  5  1  0  0  0  0
  5  8  1  0  0  0  0
  6  5  2  0  0  0  0
  7  2  1  0  0  0  0
  9 14  1  6  0  0  0
  9 19  1  0  0  0  0
  9 10  1  0  0  0  0
 10  3  1  0  0  0  0
 10 15  1  1  0  0  0
 11 10  1  0  0  0  0
 12 13  1  0  0  0  0
 12 11  1  0  0  0  0
 12 16  1  0  0  0  0
 13  9  1  0  0  0  0
 13 18  1  1  0  0  0
 17 12  1  0  0  0  0
 20 19  1  0  0  0  0
 21 13  1  0  0  0  0
 22 21  1  0  0  0  0
 23  1  1  0  0  0  0
 23 28  1  0  0  0  0
 24 23  1  0  0  0  0
 25 23  1  0  0  0  0
 26 32  1  0  0  0  0
 27 26  2  0  0  0  0
 28 26  1  0  0  0  0
 28 29  1  0  0  0  0
 30 31  1  0  0  0  0
 31 32  2  0  0  0  0
 31 39  1  0  0  0  0
 32 33  1  0  0  0  0
 33 34  1  0  0  0  0
 33 35  2  0  0  0  0
 35 36  1  0  0  0  0
 37 35  1  0  0  0  0
 37 38  1  0  0  0  0
 39 37  2  0  0  0  0
 40 39  1  0  0  0  0
M  END
>  <minimizedAffinity>
-2.60670638

>  <minimizedRMSD>
0.807182074

$$$$
