
 OpenBabel03242519253D

 42 45  0  0  0  0  0  0  0  0999 V2000
   47.9190   33.7990   42.8890 C   0  0  0  0  0  0  0  0  0  0  0  0
   48.5890   35.0230   42.6420 C   0  0  0  0  0  0  0  0  0  0  0  0
   49.9540   35.0230   42.3270 C   0  0  0  0  0  0  0  0  0  0  0  0
   50.5720   33.7980   42.2760 N   0  0  0  0  0  0  0  0  0  0  0  0
   49.8960   32.6310   42.5200 C   0  0  0  0  0  0  0  0  0  0  0  0
   48.6000   32.6360   42.8190 N   0  0  0  0  0  0  0  0  0  0  0  0
   48.1760   36.0030   42.6640 H   0  0  0  0  0  0  0  0  0  0  0  0
   50.5140   35.9040   42.1310 H   0  0  0  0  0  0  0  0  0  0  0  0
   46.4900   33.9040   43.2180 C   0  0  0  0  0  0  0  0  0  0  0  0
   45.7780   34.9030   42.4230 C   0  0  0  0  0  0  0  0  0  0  0  0
   45.3160   36.0850   43.1890 C   0  0  0  0  0  0  0  0  0  0  0  0
   44.5210   35.7280   44.4340 C   0  0  0  0  0  0  0  0  0  0  0  0
   44.9840   34.4700   45.1170 C   0  0  0  0  0  0  0  0  0  0  0  0
   46.4260   34.1730   44.7330 C   0  0  0  0  0  0  0  0  0  0  0  0
   46.0360   32.8780   43.1020 H   0  0  0  0  0  0  0  0  0  0  0  0
   44.8620   34.4440   41.9470 H   0  0  0  0  0  0  0  0  0  0  0  0
   46.3780   35.2500   41.5790 H   0  0  0  0  0  0  0  0  0  0  0  0
   44.5730   36.6230   42.5290 H   0  0  0  0  0  0  0  0  0  0  0  0
   46.0530   36.8330   43.4620 H   0  0  0  0  0  0  0  0  0  0  0  0
   44.5910   36.5580   45.1760 H   0  0  0  0  0  0  0  0  0  0  0  0
   43.4280   35.6180   44.2160 H   0  0  0  0  0  0  0  0  0  0  0  0
   44.9230   34.5390   46.2110 H   0  0  0  0  0  0  0  0  0  0  0  0
   44.3780   33.5940   44.7560 H   0  0  0  0  0  0  0  0  0  0  0  0
   46.9750   35.1190   44.8890 H   0  0  0  0  0  0  0  0  0  0  0  0
   46.8060   33.3110   45.2820 H   0  0  0  0  0  0  0  0  0  0  0  0
   50.6980   31.4200   42.4320 C   0  0  0  0  0  0  0  0  0  0  0  0
   51.5150   31.2920   41.3610 N   0  0  0  0  0  0  0  0  0  0  0  0
   52.1790   30.1230   41.4400 C   0  0  0  0  0  0  0  0  0  0  0  0
   51.7610   29.5180   42.5850 N   0  0  0  0  0  0  0  0  0  0  0  0
   50.8650   30.3070   43.1830 N   0  0  0  0  0  0  0  0  0  0  0  0
   52.8970   29.7690   40.7130 H   0  0  0  0  0  0  0  0  0  0  0  0
   53.9210   29.7200   44.5620 Cl  0  0  0  0  0  0  0  0  0  0  0  0
   53.2220   28.2030   43.9950 C   0  0  0  0  0  0  0  0  0  0  0  0
   52.2100   28.2560   43.0610 C   0  0  0  0  0  0  0  0  0  0  0  0
   51.6390   27.1010   42.5930 C   0  0  0  0  0  0  0  0  0  0  0  0
   50.8460   27.0980   41.8640 H   0  0  0  0  0  0  0  0  0  0  0  0
   52.0920   25.8760   43.0720 C   0  0  0  0  0  0  0  0  0  0  0  0
   51.6300   24.9750   42.6920 H   0  0  0  0  0  0  0  0  0  0  0  0
   53.1190   25.8400   44.0190 C   0  0  0  0  0  0  0  0  0  0  0  0
   53.4680   24.8880   44.3880 H   0  0  0  0  0  0  0  0  0  0  0  0
   53.6870   26.9990   44.4840 C   0  0  0  0  0  0  0  0  0  0  0  0
   54.9850   27.0080   45.6770 Cl  0  0  0  0  0  0  0  0  0  0  0  0
  1  9  1  0  0  0  0
  2  7  1  0  0  0  0
  2  1  2  0  0  0  0
  3  2  1  0  0  0  0
  4  3  2  0  0  0  0
  4  5  1  0  0  0  0
  5  6  2  0  0  0  0
  6  1  1  0  0  0  0
  8  3  1  0  0  0  0
  9 14  1  0  0  0  0
 10 11  1  0  0  0  0
 10  9  1  0  0  0  0
 11 19  1  0  0  0  0
 11 12  1  0  0  0  0
 12 13  1  0  0  0  0
 12 20  1  0  0  0  0
 13 22  1  0  0  0  0
 14 24  1  0  0  0  0
 14 13  1  0  0  0  0
 14 25  1  0  0  0  0
 15  9  1  0  0  0  0
 16 10  1  0  0  0  0
 17 10  1  0  0  0  0
 18 11  1  0  0  0  0
 21 12  1  0  0  0  0
 23 13  1  0  0  0  0
 26  5  1  0  0  0  0
 26 30  2  0  0  0  0
 27 28  2  0  0  0  0
 27 26  1  0  0  0  0
 28 29  1  0  0  0  0
 29 34  1  0  0  0  0
 29 30  1  0  0  0  0
 31 28  1  0  0  0  0
 33 41  1  0  0  0  0
 33 32  1  0  0  0  0
 34 33  2  0  0  0  0
 35 34  1  0  0  0  0
 35 37  2  0  0  0  0
 36 35  1  0  0  0  0
 37 39  1  0  0  0  0
 38 37  1  0  0  0  0
 39 40  1  0  0  0  0
 39 41  2  0  0  0  0
 41 42  1  0  0  0  0
M  END
>  <minimizedAffinity>
-4.33075047

>  <minimizedRMSD>
1.65970445

$$$$
