REMARK  Name = 
REMARK  3 active torsions:
REMARK  status: ('A' for Active; 'I' for Inactive)
REMARK    1  A    between atoms: C_1  and  C_7
REMARK    2  A    between atoms: C_11  and  C_13
REMARK    3  A    between atoms: N_16  and  C_34
REMARK                            x       y       z     vdW  Elec       q    Type
REMARK                         _______ _______ _______ _____ _____    ______ ____
ROOT
ATOM      1  C   UNL     1      47.865  33.707  42.897  0.00  0.00    +0.000 A 
ATOM      2  C   UNL     1      48.590  34.911  42.718  0.00  0.00    +0.000 A 
ATOM      3  C   UNL     1      49.951  34.867  42.388  0.00  0.00    +0.000 A 
ATOM      4  N   UNL     1      50.509  33.619  42.256  0.00  0.00    +0.000 NA
ATOM      5  C   UNL     1      49.781  32.472  42.436  0.00  0.00    +0.000 A 
ATOM      6  N   UNL     1      48.489  32.520  42.749  0.00  0.00    +0.000 NA
ATOM      7  H   UNL     1      48.224  35.906  42.804  0.00  0.00    +0.000 HD
ATOM      8  H   UNL     1      50.550  35.731  42.240  0.00  0.00    +0.000 HD
ENDROOT
BRANCH   1   9
ATOM      9  C   UNL     1      46.445  33.859  43.248  0.00  0.00    +0.000 C 
ATOM     10  C   UNL     1      45.744  34.852  42.436  0.00  0.00    +0.000 C 
ATOM     11  C   UNL     1      45.326  36.068  43.175  0.00  0.00    +0.000 C 
ATOM     12  C   UNL     1      44.545  35.767  44.444  0.00  0.00    +0.000 C 
ATOM     13  C   UNL     1      44.988  34.518  45.155  0.00  0.00    +0.000 C 
ATOM     14  C   UNL     1      46.415  34.173  44.755  0.00  0.00    +0.000 C 
ATOM     15  H   UNL     1      45.963  32.842  43.170  0.00  0.00    +0.000 HD
ATOM     16  H   UNL     1      44.808  34.404  41.990  0.00  0.00    +0.000 HD
ATOM     17  H   UNL     1      46.337  35.159  41.572  0.00  0.00    +0.000 HD
ATOM     18  H   UNL     1      44.586  36.606  42.513  0.00  0.00    +0.000 HD
ATOM     19  H   UNL     1      46.087  36.804  43.413  0.00  0.00    +0.000 HD
ATOM     20  H   UNL     1      44.650  36.616  45.160  0.00  0.00    +0.000 HD
ATOM     21  H   UNL     1      43.446  35.680  44.248  0.00  0.00    +0.000 HD
ATOM     22  H   UNL     1      44.949  34.620  46.248  0.00  0.00    +0.000 HD
ATOM     23  H   UNL     1      44.354  33.648  44.831  0.00  0.00    +0.000 HD
ATOM     24  H   UNL     1      46.991  35.108  44.874  0.00  0.00    +0.000 HD
ATOM     25  H   UNL     1      46.783  33.317  45.322  0.00  0.00    +0.000 HD
ENDBRANCH   1   9
BRANCH   5  26
ATOM     26  C   UNL     1      50.524  31.233  42.265  0.00  0.00    +0.000 A 
ATOM     27  N   UNL     1      51.580  31.253  41.420  0.00  0.00    +0.000 NA
ATOM     28  C   UNL     1      52.149  30.032  41.384  0.00  0.00    +0.000 A 
ATOM     29  N   UNL     1      51.426  29.244  42.225  0.00  0.00    +0.000 N 
ATOM     30  N   UNL     1      50.443  29.975  42.757  0.00  0.00    +0.000 NA
ATOM     31  H   UNL     1      53.012  29.770  40.788  0.00  0.00    +0.000 HD
BRANCH  29  34
ATOM     32 CL   UNL     1      52.358  27.756  39.873  0.00  0.00    +0.000 Cl
ATOM     33  C   UNL     1      52.124  27.053  41.473  0.00  0.00    +0.000 A 
ATOM     34  C   UNL     1      51.681  27.871  42.490  0.00  0.00    +0.000 A 
ATOM     35  C   UNL     1      51.485  27.366  43.750  0.00  0.00    +0.000 A 
ATOM     36  H   UNL     1      51.140  27.969  44.572  0.00  0.00    +0.000 HD
ATOM     37  C   UNL     1      51.740  26.019  43.989  0.00  0.00    +0.000 A 
ATOM     38  H   UNL     1      51.580  25.638  44.987  0.00  0.00    +0.000 HD
ATOM     39  C   UNL     1      52.190  25.203  42.946  0.00  0.00    +0.000 A 
ATOM     40  H   UNL     1      52.386  24.160  43.135  0.00  0.00    +0.000 HD
ATOM     41  C   UNL     1      52.383  25.715  41.688  0.00  0.00    +0.000 A 
ATOM     42 CL   UNL     1      52.948  24.729  40.340  0.00  0.00    +0.000 Cl
ENDBRANCH  29  34
ENDBRANCH   5  26
TORSDOF 3
