
 OpenBabel03242519253D

 42 45  0  0  0  0  0  0  0  0999 V2000
   47.8700   33.8810   42.8910 C   0  0  0  0  0  0  0  0  0  0  0  0
   48.5280   35.1060   42.6180 C   0  0  0  0  0  0  0  0  0  0  0  0
   49.8900   35.1120   42.2870 C   0  0  0  0  0  0  0  0  0  0  0  0
   50.5160   33.8900   42.2490 N   0  0  0  0  0  0  0  0  0  0  0  0
   49.8520   32.7220   42.5180 C   0  0  0  0  0  0  0  0  0  0  0  0
   48.5590   32.7220   42.8320 N   0  0  0  0  0  0  0  0  0  0  0  0
   48.1080   36.0830   42.6300 H   0  0  0  0  0  0  0  0  0  0  0  0
   50.4400   35.9930   42.0720 H   0  0  0  0  0  0  0  0  0  0  0  0
   46.4440   33.9810   43.2350 C   0  0  0  0  0  0  0  0  0  0  0  0
   45.7270   35.0000   42.4700 C   0  0  0  0  0  0  0  0  0  0  0  0
   45.2740   36.1640   43.2690 C   0  0  0  0  0  0  0  0  0  0  0  0
   44.4890   35.7780   44.5120 C   0  0  0  0  0  0  0  0  0  0  0  0
   44.9540   34.5030   45.1590 C   0  0  0  0  0  0  0  0  0  0  0  0
   46.3930   34.2130   44.7560 C   0  0  0  0  0  0  0  0  0  0  0  0
   45.9870   32.9590   43.0980 H   0  0  0  0  0  0  0  0  0  0  0  0
   44.8060   34.5550   41.9910 H   0  0  0  0  0  0  0  0  0  0  0  0
   46.3210   35.3670   41.6300 H   0  0  0  0  0  0  0  0  0  0  0  0
   44.5280   36.7200   42.6290 H   0  0  0  0  0  0  0  0  0  0  0  0
   46.0150   36.9040   43.5540 H   0  0  0  0  0  0  0  0  0  0  0  0
   44.5670   36.5890   45.2730 H   0  0  0  0  0  0  0  0  0  0  0  0
   43.3940   35.6760   44.3000 H   0  0  0  0  0  0  0  0  0  0  0  0
   44.9030   34.5450   46.2560 H   0  0  0  0  0  0  0  0  0  0  0  0
   44.3440   33.6370   44.7820 H   0  0  0  0  0  0  0  0  0  0  0  0
   46.9450   35.1530   44.9310 H   0  0  0  0  0  0  0  0  0  0  0  0
   46.7760   33.3360   45.2800 H   0  0  0  0  0  0  0  0  0  0  0  0
   50.6620   31.5160   42.4390 C   0  0  0  0  0  0  0  0  0  0  0  0
   51.5290   31.4160   41.4060 N   0  0  0  0  0  0  0  0  0  0  0  0
   52.1930   30.2460   41.4890 C   0  0  0  0  0  0  0  0  0  0  0  0
   51.7230   29.6130   42.5980 N   0  0  0  0  0  0  0  0  0  0  0  0
   50.7970   30.3850   43.1710 N   0  0  0  0  0  0  0  0  0  0  0  0
   52.9460   29.9130   40.7890 H   0  0  0  0  0  0  0  0  0  0  0  0
   53.7930   29.7710   44.6740 Cl  0  0  0  0  0  0  0  0  0  0  0  0
   53.1230   28.2670   44.0420 C   0  0  0  0  0  0  0  0  0  0  0  0
   52.1540   28.3410   43.0640 C   0  0  0  0  0  0  0  0  0  0  0  0
   51.6050   27.1970   42.5440 C   0  0  0  0  0  0  0  0  0  0  0  0
   50.8460   27.2110   41.7810 H   0  0  0  0  0  0  0  0  0  0  0  0
   52.0390   25.9620   43.0140 C   0  0  0  0  0  0  0  0  0  0  0  0
   51.5970   25.0700   42.5930 H   0  0  0  0  0  0  0  0  0  0  0  0
   53.0230   25.9050   44.0050 C   0  0  0  0  0  0  0  0  0  0  0  0
   53.3570   24.9440   44.3670 H   0  0  0  0  0  0  0  0  0  0  0  0
   53.5680   27.0530   44.5220 C   0  0  0  0  0  0  0  0  0  0  0  0
   54.8110   27.0350   45.7720 Cl  0  0  0  0  0  0  0  0  0  0  0  0
  1  9  1  0  0  0  0
  2  7  1  0  0  0  0
  2  1  2  0  0  0  0
  3  2  1  0  0  0  0
  4  3  2  0  0  0  0
  4  5  1  0  0  0  0
  5  6  2  0  0  0  0
  6  1  1  0  0  0  0
  8  3  1  0  0  0  0
  9 14  1  0  0  0  0
 10  9  1  0  0  0  0
 10 11  1  0  0  0  0
 11 19  1  0  0  0  0
 11 12  1  0  0  0  0
 12 13  1  0  0  0  0
 12 20  1  0  0  0  0
 13 22  1  0  0  0  0
 14 24  1  0  0  0  0
 14 13  1  0  0  0  0
 14 25  1  0  0  0  0
 15  9  1  0  0  0  0
 16 10  1  0  0  0  0
 17 10  1  0  0  0  0
 18 11  1  0  0  0  0
 21 12  1  0  0  0  0
 23 13  1  0  0  0  0
 26  5  1  0  0  0  0
 26 30  2  0  0  0  0
 27 28  2  0  0  0  0
 27 26  1  0  0  0  0
 28 29  1  0  0  0  0
 29 34  1  0  0  0  0
 29 30  1  0  0  0  0
 31 28  1  0  0  0  0
 33 41  1  0  0  0  0
 33 32  1  0  0  0  0
 34 33  2  0  0  0  0
 35 37  2  0  0  0  0
 35 34  1  0  0  0  0
 36 35  1  0  0  0  0
 37 39  1  0  0  0  0
 38 37  1  0  0  0  0
 39 40  1  0  0  0  0
 39 41  2  0  0  0  0
 41 42  1  0  0  0  0
M  END
>  <minimizedAffinity>
-4.34920692

>  <minimizedRMSD>
1.0965035

$$$$
