
 OpenBabel03242510333D

 45 47  0  0  1  0  0  0  0  0999 V2000
   44.5640   32.9180   41.0210 C   0  0  1  0  0  0  0  0  0  0  0  0
   44.0150   33.7460   39.8060 C   0  0  0  0  0  0  0  0  0  0  0  0
   43.6800   32.8440   38.6970 C   0  0  0  0  0  0  0  0  0  0  0  0
   45.0350   32.2790   38.2010 C   0  0  0  0  0  0  0  0  0  0  0  0
   45.6170   31.6080   39.3130 C   0  0  0  0  0  0  0  0  0  0  0  0
   45.7950   32.3470   40.7110 C   0  0  1  0  0  0  0  0  0  0  0  0
   43.7800   32.1780   41.2900 H   0  0  0  0  0  0  0  0  0  0  0  0
   44.7780   34.4800   39.5140 H   0  0  0  0  0  0  0  0  0  0  0  0
   43.0530   34.2160   40.1650 H   0  0  0  0  0  0  0  0  0  0  0  0
   43.2630   33.4160   37.8710 H   0  0  0  0  0  0  0  0  0  0  0  0
   43.1040   31.9510   39.0030 H   0  0  0  0  0  0  0  0  0  0  0  0
   44.7130   31.4970   37.4810 H   0  0  0  0  0  0  0  0  0  0  0  0
   45.5770   33.0470   37.6560 H   0  0  0  0  0  0  0  0  0  0  0  0
   44.6760   31.0230   39.7070 H   0  0  0  0  0  0  0  0  0  0  0  0
   46.1840   30.6950   39.2260 H   0  0  0  0  0  0  0  0  0  0  0  0
   46.1660   31.5160   41.2940 H   0  0  0  0  0  0  0  0  0  0  0  0
   44.8220   36.0610   43.2280 C   0  0  0  0  0  0  0  0  0  0  0  0
   44.5840   35.3020   42.1230 C   0  0  0  0  0  0  0  0  0  0  0  0
   44.7510   33.9040   42.1320 C   0  0  0  0  0  0  0  0  0  0  0  0
   45.1510   33.3860   43.2760 N   0  0  0  0  0  0  0  0  0  0  0  0
   45.3870   34.1120   44.3590 C   0  0  0  0  0  0  0  0  0  0  0  0
   45.2210   35.4730   44.3420 N   0  0  0  0  0  0  0  0  0  0  0  0
   44.6420   37.1220   43.0390 H   0  0  0  0  0  0  0  0  0  0  0  0
   44.2540   35.6750   41.1540 H   0  0  0  0  0  0  0  0  0  0  0  0
   45.7130   33.7010   45.2980 H   0  0  0  0  0  0  0  0  0  0  0  0
   46.7990   33.3230   40.4350 O   0  0  0  0  0  0  0  0  0  0  0  0
   48.0060   32.6810   41.0020 C   0  0  1  0  0  0  0  0  0  0  0  0
   47.4790   31.8630   41.0750 H   0  0  0  0  0  0  0  0  0  0  0  0
   50.6250   31.0760   41.7160 Cl  0  0  0  0  0  0  0  0  0  0  0  0
   50.2890   31.6230   40.0880 C   0  0  0  0  0  0  0  0  0  0  0  0
   49.0700   32.2800   39.9710 C   0  0  0  0  0  0  0  0  0  0  0  0
   48.7990   32.6640   38.6340 C   0  0  0  0  0  0  0  0  0  0  0  0
   47.8490   33.1910   38.4420 H   0  0  0  0  0  0  0  0  0  0  0  0
   49.5740   32.4600   37.5330 C   0  0  0  0  0  0  0  0  0  0  0  0
   49.2680   32.7970   36.5540 H   0  0  0  0  0  0  0  0  0  0  0  0
   50.7600   31.8030   37.7560 C   0  0  0  0  0  0  0  0  0  0  0  0
   51.4510   31.5910   36.9560 H   0  0  0  0  0  0  0  0  0  0  0  0
   51.1160   31.3890   39.0140 C   0  0  0  0  0  0  0  0  0  0  0  0
   52.5930   30.5470   39.4300 Cl  0  0  0  0  0  0  0  0  0  0  0  0
   48.6710   33.9100   41.1040 O   0  0  0  0  0  0  0  0  0  0  0  0
   48.7530   34.8090   42.0440 C   0  0  0  0  0  0  0  0  0  0  0  0
   48.0990   35.8050   42.1220 O   0  0  0  0  0  0  0  0  0  0  0  0
   49.6950   34.5130   43.0020 N   0  0  0  0  0  0  0  0  0  0  0  0
   50.5260   34.6180   43.6360 H   0  0  0  0  0  0  0  0  0  0  0  0
   50.4010   35.2750   43.1520 H   0  0  0  0  0  0  0  0  0  0  0  0
  1  7  1  1  0  0  0
  1 19  1  0  0  0  0
  2  9  1  0  0  0  0
  2  1  1  0  0  0  0
  3 11  1  0  0  0  0
  3  2  1  0  0  0  0
  4  3  1  0  0  0  0
  4  5  1  0  0  0  0
  5 14  1  0  0  0  0
  5  6  1  0  0  0  0
  6  1  1  0  0  0  0
  6 16  1  1  0  0  0
  8  2  1  0  0  0  0
 10  3  1  0  0  0  0
 12  4  1  0  0  0  0
 13  4  1  0  0  0  0
 15  5  1  0  0  0  0
 17 22  1  0  0  0  0
 18 19  1  0  0  0  0
 18 17  2  0  0  0  0
 19 20  2  0  0  0  0
 20 21  1  0  0  0  0
 21 25  1  0  0  0  0
 22 21  2  0  0  0  0
 23 17  1  0  0  0  0
 24 18  1  0  0  0  0
 26  6  1  0  0  0  0
 26 27  1  0  0  0  0
 27 28  1  1  0  0  0
 27 40  1  0  0  0  0
 30 29  1  0  0  0  0
 31 30  1  0  0  0  0
 31 27  1  0  0  0  0
 32 31  2  0  0  0  0
 33 32  1  0  0  0  0
 34 36  2  0  0  0  0
 34 32  1  0  0  0  0
 35 34  1  0  0  0  0
 36 38  1  0  0  0  0
 37 36  1  0  0  0  0
 38 39  1  0  0  0  0
 38 30  2  0  0  0  0
 40 41  1  0  0  0  0
 41 42  2  0  0  0  0
 41 43  1  0  0  0  0
 43 45  1  0  0  0  0
 43 44  1  0  0  0  0
M  END
>  <minimizedAffinity>
-4.54643106

>  <minimizedRMSD>
1.34488904

$$$$
