
 OpenBabel03252503283D

 27 28  0  0  0  0  0  0  0  0999 V2000
   45.2480   34.8270   42.6320 C   0  0  0  0  0  0  0  0  0  0  0  0
   46.3260   35.2550   41.8280 C   0  0  0  0  0  0  0  0  0  0  0  0
   47.6040   34.8730   42.2690 C   0  0  0  0  0  0  0  0  0  0  0  0
   47.6950   34.1380   43.4100 N   0  0  0  0  0  0  0  0  0  0  0  0
   46.6220   33.7600   44.1380 C   0  0  0  0  0  0  0  0  0  0  0  0
   45.3810   34.1120   43.7370 N   0  0  0  0  0  0  0  0  0  0  0  0
   43.4490   34.3820   41.1470 C   0  0  0  0  0  0  0  0  0  0  0  0
   44.2550   33.5410   40.6610 O   0  0  0  0  0  0  0  0  0  0  0  0
   43.9130   35.1820   42.2390 N   0  0  0  0  0  0  0  0  0  0  0  0
   46.1610   35.8380   40.9330 H   0  0  0  0  0  0  0  0  0  0  0  0
   46.7490   33.1700   45.0450 H   0  0  0  0  0  0  0  0  0  0  0  0
   43.3030   35.9280   42.6630 H   0  0  0  0  0  0  0  0  0  0  0  0
   42.3100   32.1660   39.5770 Cl  0  0  0  0  0  0  0  0  0  0  0  0
   41.4270   33.6340   39.9400 C   0  0  0  0  0  0  0  0  0  0  0  0
   42.0630   34.6150   40.6890 C   0  0  0  0  0  0  0  0  0  0  0  0
   41.5000   35.8220   41.0550 C   0  0  0  0  0  0  0  0  0  0  0  0
   42.0100   36.5560   41.6300 H   0  0  0  0  0  0  0  0  0  0  0  0
   40.2090   36.0490   40.6330 C   0  0  0  0  0  0  0  0  0  0  0  0
   39.6490   36.9680   40.8570 H   0  0  0  0  0  0  0  0  0  0  0  0
   39.5320   35.1050   39.8850 C   0  0  0  0  0  0  0  0  0  0  0  0
   38.5100   35.2900   39.5540 H   0  0  0  0  0  0  0  0  0  0  0  0
   40.1310   33.9070   39.5390 C   0  0  0  0  0  0  0  0  0  0  0  0
   39.3210   32.6680   38.5880 Cl  0  0  0  0  0  0  0  0  0  0  0  0
   48.7180   35.3130   41.4420 C   0  0  0  0  0  0  0  0  0  0  0  0
   49.8240   34.4940   41.6860 F   0  0  0  0  0  0  0  0  0  0  0  0
   49.0860   36.5720   41.8810 F   0  0  0  0  0  0  0  0  0  0  0  0
   48.4550   35.2520   40.0990 F   0  0  0  0  0  0  0  0  0  0  0  0
  1  6  1  0  0  0  0
  2  3  1  0  0  0  0
  2  1  2  0  0  0  0
  3  4  2  0  0  0  0
  4  5  1  0  0  0  0
  5 11  1  0  0  0  0
  6  5  2  0  0  0  0
  7  9  1  0  0  0  0
  8  7  2  0  0  0  0
  9  1  1  0  0  0  0
  9 12  1  0  0  0  0
 10  2  1  0  0  0  0
 13 14  1  0  0  0  0
 14 15  1  0  0  0  0
 15 16  2  0  0  0  0
 15  7  1  0  0  0  0
 16 17  1  0  0  0  0
 18 19  1  0  0  0  0
 18 16  1  0  0  0  0
 20 18  2  0  0  0  0
 21 20  1  0  0  0  0
 22 20  1  0  0  0  0
 22 14  2  0  0  0  0
 23 22  1  0  0  0  0
 24 25  1  0  0  0  0
 24 26  1  0  0  0  0
 24  3  1  0  0  0  0
 27 24  1  0  0  0  0
M  END
>  <minimizedAffinity>
-6.59824133

>  <minimizedRMSD>
1.42004871

$$$$
