
     RDKit          3D

 21 22  0  0  0  0  0  0  0  0999 V2000
   44.2634   35.7404   44.2626 C   0  0  0  0  0  0  0  0  0  0  0  0
   44.4233   34.9097   43.1232 C   0  0  0  0  0  0  0  0  0  0  0  0
   45.0628   33.6890   43.2874 C   0  0  0  0  0  0  0  0  0  0  0  0
   45.5108   33.3307   44.5180 N   0  0  0  0  0  0  0  0  0  0  0  0
   45.3413   34.1490   45.5849 C   0  0  0  0  0  0  0  0  0  0  0  0
   44.7307   35.3289   45.4606 N   0  0  0  0  0  0  0  0  0  0  0  0
   43.8057   35.4513   41.5342 S   0  0  0  0  0  0  0  0  0  0  0  0
   43.7671   36.6784   44.1141 H   0  0  0  0  0  0  0  0  0  0  0  0
   45.1856   33.0560   42.4243 H   0  0  0  0  0  0  0  0  0  0  0  0
   45.7393   33.7470   46.4902 H   0  0  0  0  0  0  0  0  0  0  0  0
   42.8577   32.8040   42.8868 Cl  0  0  0  0  0  0  0  0  0  0  0  0
   41.7494   33.7446   41.9026 C   0  0  0  0  0  0  0  0  0  0  0  0
   42.1190   34.9236   41.2820 C   0  0  0  0  0  0  0  0  0  0  0  0
   41.1739   35.6074   40.5180 C   0  0  0  0  0  0  0  0  0  0  0  0
   41.5179   36.5327   40.0496 H   0  0  0  0  0  0  0  0  0  0  0  0
   39.8898   35.1184   40.3814 C   0  0  0  0  0  0  0  0  0  0  0  0
   39.1994   35.7029   39.7693 H   0  0  0  0  0  0  0  0  0  0  0  0
   39.5074   33.9383   40.9983 C   0  0  0  0  0  0  0  0  0  0  0  0
   38.4878   33.6040   40.8556 H   0  0  0  0  0  0  0  0  0  0  0  0
   40.4546   33.2716   41.7521 C   0  0  0  0  0  0  0  0  0  0  0  0
   39.8827   31.7907   42.4943 Cl  0  0  0  0  0  0  0  0  0  0  0  0
  1  6  2  0
  2  3  2  0
  2  1  1  0
  3  4  1  0
  4  5  2  0
  6  5  1  0
  7  2  1  0
  1  8  1  0
  3  9  1  0
  5 10  1  0
 11 12  1  0
 12 13  2  0
 13 14  1  0
 14 15  1  0
 14 16  2  0
 16 17  1  0
 16 18  1  0
 18 19  1  0
 18 20  2  0
 20 21  1  0
 20 12  1  0
  7 13  1  0
M  ISO  6   8  14   9  14  10  14  15  15  17  15  19  15
M  END
>  <DihAtoms>  (1) 
1,6,12,11

>  <DihDeg>  (1) 
-179.9997064237777

$$$$
