REMARK  Name = 
REMARK  5 active torsions:
REMARK  status: ('A' for Active; 'I' for Inactive)
REMARK    1  A    between atoms: C_1  and  C_2
REMARK    2  A    between atoms: C_1  and  C_8
REMARK    3  A    between atoms: C_8  and  C_9
REMARK    4  A    between atoms: C_12  and  O_14
REMARK    5  A    between atoms: O_14  and  C_26
REMARK                            x       y       z     vdW  Elec       q    Type
REMARK                         _______ _______ _______ _____ _____    ______ ____
ROOT
ATOM      1  C   UNL     1      49.094  33.103  41.819  0.00  0.00    +0.000 A 
ATOM      2  C   UNL     1      49.005  32.347  40.627  0.00  0.00    +0.000 A 
ATOM      3  C   UNL     1      50.066  31.727  40.073  0.00  0.00    +0.000 A 
ATOM      4  C   UNL     1      51.310  31.874  40.765  0.00  0.00    +0.000 A 
ATOM      5  S   UNL     1      50.929  32.900  42.195  0.00  0.00    +0.000 S 
ATOM      6  H   UNL     1      48.014  32.352  40.262  0.00  0.00    +0.000 HD
ATOM      7  H   UNL     1      49.990  31.153  39.164  0.00  0.00    +0.000 HD
ENDROOT
BRANCH   1   8
ATOM      8  C   UNL     1      48.225  33.843  42.657  0.00  0.00    +0.000 C 
ATOM      9  H   UNL     1      47.377  33.153  42.959  0.00  0.00    +0.000 HD
ATOM     10  H   UNL     1      48.744  34.008  43.644  0.00  0.00    +0.000 HD
BRANCH   8  11
ATOM     11  C   UNL     1      47.675  35.102  42.124  0.00  0.00    +0.000 C 
ATOM     12  H   UNL     1      48.126  35.347  41.127  0.00  0.00    +0.000 HD
ATOM     13  H   UNL     1      47.986  35.949  42.780  0.00  0.00    +0.000 HD
BRANCH  11  14
ATOM     14  C   UNL     1      46.220  35.055  42.080  0.00  0.00    +0.000 A 
ATOM     15  C   UNL     1      45.464  35.649  43.067  0.00  0.00    +0.000 A 
ATOM     16  C   UNL     1      44.067  35.565  42.965  0.00  0.00    +0.000 A 
ATOM     17  N   UNL     1      43.547  34.901  41.893  0.00  0.00    +0.000 NA
ATOM     18  C   UNL     1      44.333  34.338  40.956  0.00  0.00    +0.000 A 
ATOM     19  N   UNL     1      45.635  34.419  41.056  0.00  0.00    +0.000 NA
ATOM     20  H   UNL     1      45.886  36.171  43.910  0.00  0.00    +0.000 HD
ATOM     21  H   UNL     1      43.388  35.998  43.688  0.00  0.00    +0.000 HD
ATOM     22  H   UNL     1      43.786  33.845  40.163  0.00  0.00    +0.000 HD
ENDBRANCH  11  14
ENDBRANCH   8  11
ENDBRANCH   1   8
BRANCH   4  23
ATOM     23  O   UNL     1      52.456  31.374  40.430  0.00  0.00    +0.000 OA
BRANCH  23  26
ATOM     24 CL   UNL     1      53.400  34.068  41.423  0.00  0.00    +0.000 Cl
ATOM     25  C   UNL     1      54.336  32.575  41.571  0.00  0.00    +0.000 A 
ATOM     26  C   UNL     1      53.681  31.468  41.035  0.00  0.00    +0.000 A 
ATOM     27  C   UNL     1      54.321  30.246  41.095  0.00  0.00    +0.000 A 
ATOM     28  H   UNL     1      53.930  29.291  40.716  0.00  0.00    +0.000 HD
ATOM     29  C   UNL     1      55.581  30.089  41.666  0.00  0.00    +0.000 A 
ATOM     30  H   UNL     1      56.106  29.151  41.729  0.00  0.00    +0.000 HD
ATOM     31  C   UNL     1      56.196  31.224  42.189  0.00  0.00    +0.000 A 
ATOM     32  H   UNL     1      57.180  31.172  42.650  0.00  0.00    +0.000 HD
ATOM     33  C   UNL     1      55.571  32.443  42.135  0.00  0.00    +0.000 A 
ATOM     34 CL   UNL     1      56.280  33.913  42.770  0.00  0.00    +0.000 Cl
ENDBRANCH  23  26
ENDBRANCH   4  23
TORSDOF 5
