
 OpenBabel03252503283D

 27 28  0  0  0  0  0  0  0  0999 V2000
   45.0440   34.6010   42.7990 C   0  0  0  0  0  0  0  0  0  0  0  0
   46.0710   35.0240   41.9290 C   0  0  0  0  0  0  0  0  0  0  0  0
   47.3800   34.7100   42.3330 C   0  0  0  0  0  0  0  0  0  0  0  0
   47.5440   34.0370   43.5030 N   0  0  0  0  0  0  0  0  0  0  0  0
   46.5170   33.6590   44.2950 C   0  0  0  0  0  0  0  0  0  0  0  0
   45.2490   33.9480   43.9310 N   0  0  0  0  0  0  0  0  0  0  0  0
   43.2030   34.0200   41.4170 C   0  0  0  0  0  0  0  0  0  0  0  0
   44.0180   33.1840   40.9380 O   0  0  0  0  0  0  0  0  0  0  0  0
   43.6820   34.8900   42.4470 N   0  0  0  0  0  0  0  0  0  0  0  0
   45.8490   35.5560   41.0140 H   0  0  0  0  0  0  0  0  0  0  0  0
   46.7030   33.1210   45.2230 H   0  0  0  0  0  0  0  0  0  0  0  0
   43.0630   35.6350   42.8600 H   0  0  0  0  0  0  0  0  0  0  0  0
   41.5060   31.6830   41.9930 Cl  0  0  0  0  0  0  0  0  0  0  0  0
   40.9010   33.1400   41.2330 C   0  0  0  0  0  0  0  0  0  0  0  0
   41.7910   34.1810   41.0080 C   0  0  0  0  0  0  0  0  0  0  0  0
   41.4660   35.3890   40.4220 C   0  0  0  0  0  0  0  0  0  0  0  0
   42.1690   36.1710   40.2620 H   0  0  0  0  0  0  0  0  0  0  0  0
   40.1540   35.5500   40.0370 C   0  0  0  0  0  0  0  0  0  0  0  0
   39.7670   36.4620   39.5600 H   0  0  0  0  0  0  0  0  0  0  0  0
   39.2290   34.5430   40.2380 C   0  0  0  0  0  0  0  0  0  0  0  0
   38.1910   34.6760   39.9310 H   0  0  0  0  0  0  0  0  0  0  0  0
   39.5930   33.3480   40.8290 C   0  0  0  0  0  0  0  0  0  0  0  0
   38.4620   32.0310   41.1100 Cl  0  0  0  0  0  0  0  0  0  0  0  0
   48.4420   35.1460   41.4380 C   0  0  0  0  0  0  0  0  0  0  0  0
   49.5620   34.3310   41.6220 F   0  0  0  0  0  0  0  0  0  0  0  0
   48.8320   36.4090   41.8440 F   0  0  0  0  0  0  0  0  0  0  0  0
   48.1000   35.0740   40.1130 F   0  0  0  0  0  0  0  0  0  0  0  0
  1  6  1  0  0  0  0
  2  3  1  0  0  0  0
  2  1  2  0  0  0  0
  3  4  2  0  0  0  0
  4  5  1  0  0  0  0
  5 11  1  0  0  0  0
  6  5  2  0  0  0  0
  7  9  1  0  0  0  0
  8  7  2  0  0  0  0
  9  1  1  0  0  0  0
  9 12  1  0  0  0  0
 10  2  1  0  0  0  0
 14 13  1  0  0  0  0
 15 14  1  0  0  0  0
 15  7  1  0  0  0  0
 16 15  2  0  0  0  0
 17 16  1  0  0  0  0
 18 20  2  0  0  0  0
 18 16  1  0  0  0  0
 19 18  1  0  0  0  0
 20 22  1  0  0  0  0
 21 20  1  0  0  0  0
 22 23  1  0  0  0  0
 22 14  2  0  0  0  0
 24 25  1  0  0  0  0
 24 26  1  0  0  0  0
 24  3  1  0  0  0  0
 27 24  1  0  0  0  0
M  END
>  <minimizedAffinity>
-6.79934454

>  <minimizedRMSD>
1.59903467

$$$$
