
     RDKit          3D

 34 36  0  0  0  0  0  0  0  0999 V2000
   47.6749   35.1018   42.1244 C   0  0  0  0  0  0  0  0  0  0  0  0
   46.2196   35.0551   42.0801 C   0  0  0  0  0  0  0  0  0  0  0  0
   45.4642   35.6486   43.0674 C   0  0  0  0  0  0  0  0  0  0  0  0
   44.0668   35.5649   42.9646 C   0  0  0  0  0  0  0  0  0  0  0  0
   43.5472   34.9010   41.8934 N   0  0  0  0  0  0  0  0  0  0  0  0
   44.3330   34.3382   40.9555 C   0  0  0  0  0  0  0  0  0  0  0  0
   45.6352   34.4189   41.0555 N   0  0  0  0  0  0  0  0  0  0  0  0
   48.2254   33.8430   42.6565 C   0  0  0  0  0  0  0  0  0  0  0  0
   49.0936   33.1026   41.8188 C   0  0  0  0  0  0  0  0  0  0  0  0
   49.0053   32.3474   40.6266 C   0  0  0  0  0  0  0  0  0  0  0  0
   50.0662   31.7268   40.0728 C   0  0  0  0  0  0  0  0  0  0  0  0
   51.3099   31.8739   40.7654 C   0  0  0  0  0  0  0  0  0  0  0  0
   50.9287   32.9000   42.1952 S   0  0  0  0  0  0  0  0  0  0  0  0
   52.4559   31.3739   40.4299 O   0  0  0  0  0  0  0  0  0  0  0  0
   48.1258   35.3475   41.1267 H   0  0  0  0  0  0  0  0  0  0  0  0
   47.9856   35.9490   42.7796 H   0  0  0  0  0  0  0  0  0  0  0  0
   45.8856   36.1708   43.9097 H   0  0  0  0  0  0  0  0  0  0  0  0
   43.3876   35.9978   43.6880 H   0  0  0  0  0  0  0  0  0  0  0  0
   43.7857   33.8449   40.1633 H   0  0  0  0  0  0  0  0  0  0  0  0
   47.3772   33.1532   42.9590 H   0  0  0  0  0  0  0  0  0  0  0  0
   48.7443   34.0078   43.6436 H   0  0  0  0  0  0  0  0  0  0  0  0
   48.0144   32.3523   40.2621 H   0  0  0  0  0  0  0  0  0  0  0  0
   49.9903   31.1532   39.1644 H   0  0  0  0  0  0  0  0  0  0  0  0
   53.3997   34.0677   41.4234 Cl  0  0  0  0  0  0  0  0  0  0  0  0
   54.3357   32.5754   41.5710 C   0  0  0  0  0  0  0  0  0  0  0  0
   53.6806   31.4683   41.0348 C   0  0  0  0  0  0  0  0  0  0  0  0
   54.3205   30.2458   41.0950 C   0  0  0  0  0  0  0  0  0  0  0  0
   53.9304   29.2905   40.7161 H   0  0  0  0  0  0  0  0  0  0  0  0
   55.5805   30.0888   41.6663 C   0  0  0  0  0  0  0  0  0  0  0  0
   56.1058   29.1509   41.7288 H   0  0  0  0  0  0  0  0  0  0  0  0
   56.1963   31.2235   42.1892 C   0  0  0  0  0  0  0  0  0  0  0  0
   57.1804   31.1724   42.6497 H   0  0  0  0  0  0  0  0  0  0  0  0
   55.5712   32.4426   42.1354 C   0  0  0  0  0  0  0  0  0  0  0  0
   56.2796   33.9126   42.7701 Cl  0  0  0  0  0  0  0  0  0  0  0  0
  1  8  1  0
  2  1  1  0
  2  3  2  0
  4  3  1  0
  5  4  2  0
  6  7  2  0
  6  5  1  0
  7  2  1  0
  9 13  1  0
  9  8  1  0
 10  9  2  0
 11 10  1  0
 11 12  2  0
 12 13  1  0
 14 12  1  0
  1 15  1  0
  1 16  1  0
  3 17  1  0
  4 18  1  0
  6 19  1  0
  8 20  1  0
  8 21  1  0
 10 22  1  0
 11 23  1  0
 24 25  1  0
 25 26  2  0
 26 27  1  0
 27 28  1  0
 27 29  2  0
 29 30  1  0
 29 31  1  0
 31 32  1  0
 31 33  2  0
 33 34  1  0
 33 25  1  0
 14 26  1  0
M  ISO  8  15   8  16   8  17  14  18  14  19  14  20   8  21   8  22  14
M  ISO  4  23  14  28  15  30  15  32  15
M  END
>  <DihAtoms>  (1) 
11,13,25,24

>  <DihDeg>  (1) 
-59.999918704755245

$$$$
