
 OpenBabel03242510223D

 40 43  0  0  1  0  0  0  0  0999 V2000
   48.0430   33.2170   43.1170 N   0  0  0  0  0  0  0  0  0  0  0  0
   49.2200   33.2800   42.3760 C   0  0  0  0  0  0  0  0  0  0  0  0
   50.3750   32.8520   42.6360 O   0  0  0  0  0  0  0  0  0  0  0  0
   47.5080   34.1130   43.0790 H   0  0  0  0  0  0  0  0  0  0  0  0
   46.2630   32.0660   44.3820 C   0  0  1  0  0  0  0  0  0  0  0  0
   46.4070   31.3550   43.1900 C   0  0  0  0  0  0  0  0  0  0  0  0
   47.6390   32.0590   43.8320 C   0  0  1  0  0  0  0  0  0  0  0  0
   46.0790   31.5710   45.3760 H   0  0  0  0  0  0  0  0  0  0  0  0
   46.4090   30.2210   43.2340 H   0  0  0  0  0  0  0  0  0  0  0  0
   46.1300   31.6770   42.1700 H   0  0  0  0  0  0  0  0  0  0  0  0
   48.4020   31.3020   44.1140 H   0  0  0  0  0  0  0  0  0  0  0  0
   45.0310   33.9780   43.1200 C   0  0  0  0  0  0  0  0  0  0  0  0
   45.5360   33.4160   44.3400 C   0  0  0  0  0  0  0  0  0  0  0  0
   45.3640   34.1500   45.4960 C   0  0  0  0  0  0  0  0  0  0  0  0
   44.7400   35.3460   45.4280 N   0  0  0  0  0  0  0  0  0  0  0  0
   44.2680   35.8650   44.2680 C   0  0  0  0  0  0  0  0  0  0  0  0
   44.4240   35.1480   43.0740 N   0  0  0  0  0  0  0  0  0  0  0  0
   45.1430   33.4020   42.2230 H   0  0  0  0  0  0  0  0  0  0  0  0
   45.7200   33.7840   46.4430 H   0  0  0  0  0  0  0  0  0  0  0  0
   43.7670   36.8240   44.2150 H   0  0  0  0  0  0  0  0  0  0  0  0
   49.2090   33.9530   41.0160 C   0  0  2  0  0  0  0  0  0  0  0  0
   48.5730   35.3900   40.9580 C   0  0  0  0  0  0  0  0  0  0  0  0
   47.9500   34.2030   40.3010 C   0  0  1  0  0  0  0  0  0  0  0  0
   50.1540   33.9580   40.4390 H   0  0  0  0  0  0  0  0  0  0  0  0
   48.1410   35.7180   41.9340 H   0  0  0  0  0  0  0  0  0  0  0  0
   49.0200   36.1240   40.2970 H   0  0  0  0  0  0  0  0  0  0  0  0
   47.0400   33.7250   40.7200 H   0  0  0  0  0  0  0  0  0  0  0  0
   47.9860   34.1370   38.7910 C   0  0  0  0  0  0  0  0  0  0  0  0
   48.6510   34.9560   38.1710 O   0  0  0  0  0  0  0  0  0  0  0  0
   49.6010   31.7000   38.2270 Cl  0  0  0  0  0  0  0  0  0  0  0  0
   47.9290   31.9640   37.7450 C   0  0  0  0  0  0  0  0  0  0  0  0
   47.2490   33.1240   38.0460 C   0  0  0  0  0  0  0  0  0  0  0  0
   45.9460   33.2020   37.6110 C   0  0  0  0  0  0  0  0  0  0  0  0
   45.4140   34.1100   37.8460 H   0  0  0  0  0  0  0  0  0  0  0  0
   45.3440   32.1790   36.9100 C   0  0  0  0  0  0  0  0  0  0  0  0
   44.2990   32.3520   36.6120 H   0  0  0  0  0  0  0  0  0  0  0  0
   46.0190   31.0150   36.6060 C   0  0  0  0  0  0  0  0  0  0  0  0
   45.5180   30.2360   36.0560 H   0  0  0  0  0  0  0  0  0  0  0  0
   47.3270   30.9180   37.0340 C   0  0  0  0  0  0  0  0  0  0  0  0
   48.2140   29.4530   36.6640 Cl  0  0  0  0  0  0  0  0  0  0  0  0
  1  7  1  0  0  0  0
  2  3  2  0  0  0  0
  2  1  1  0  0  0  0
  4  1  1  0  0  0  0
  5  8  1  1  0  0  0
  6  9  1  0  0  0  0
  6  7  1  0  0  0  0
  6  5  1  0  0  0  0
  7 11  1  1  0  0  0
  7  5  1  0  0  0  0
 10  6  1  0  0  0  0
 12 13  1  0  0  0  0
 13  5  1  0  0  0  0
 13 14  2  0  0  0  0
 14 19  1  0  0  0  0
 15 14  1  0  0  0  0
 16 15  2  0  0  0  0
 17 12  2  0  0  0  0
 17 16  1  0  0  0  0
 18 12  1  0  0  0  0
 20 16  1  0  0  0  0
 21 24  1  6  0  0  0
 21  2  1  0  0  0  0
 22 21  1  0  0  0  0
 22 25  1  0  0  0  0
 23 27  1  1  0  0  0
 23 22  1  0  0  0  0
 23 21  1  0  0  0  0
 26 22  1  0  0  0  0
 28 23  1  0  0  0  0
 29 28  2  0  0  0  0
 31 32  1  0  0  0  0
 31 30  1  0  0  0  0
 32 28  1  0  0  0  0
 33 34  1  0  0  0  0
 33 32  2  0  0  0  0
 35 33  1  0  0  0  0
 36 35  1  0  0  0  0
 37 35  2  0  0  0  0
 37 39  1  0  0  0  0
 38 37  1  0  0  0  0
 39 31  2  0  0  0  0
 40 39  1  0  0  0  0
M  END
>  <minimizedAffinity>
-4.91641331

>  <minimizedRMSD>
0.689617574

$$$$
