
     RDKit          3D

 39 41  0  0  0  0  0  0  0  0999 V2000
   46.3282   34.9980   41.9241 C   0  0  0  0  0  0  0  0  0  0  0  0
   44.8570   34.9408   41.6984 C   0  0  0  0  0  0  0  0  0  0  0  0
   43.9736   35.4309   42.7099 C   0  0  0  0  0  0  0  0  0  0  0  0
   42.3107   35.1463   41.9738 S   0  0  0  0  0  0  0  0  0  0  0  0
   43.1018   34.4068   40.4104 C   0  0  0  0  0  0  0  0  0  0  0  0
   44.2114   34.4857   40.6588 N   0  0  0  0  0  0  0  0  0  0  0  0
   42.3496   33.9402   39.3383 O   0  0  0  0  0  0  0  0  0  0  0  0
   40.3993   34.3819   37.6088 O   0  0  0  0  0  0  0  0  0  0  0  0
   41.4917   35.0767   38.4118 P   0  0  0  0  0  0  0  0  0  0  0  0
   40.7773   36.1824   39.4878 O   0  0  0  0  0  0  0  0  0  0  0  0
   42.5609   35.9225   37.4138 O   0  0  0  0  0  0  0  0  0  0  0  0
   47.1314   34.3477   40.8438 C   0  0  0  0  0  0  0  0  0  0  0  0
   48.4621   33.9176   41.2858 C   0  0  0  0  0  0  0  0  0  0  0  0
   48.9327   32.7056   40.7801 C   0  0  0  0  0  0  0  0  0  0  0  0
   50.1866   32.2305   41.1530 C   0  0  0  0  0  0  0  0  0  0  0  0
   50.9201   32.9856   42.0163 N   0  0  0  0  0  0  0  0  0  0  0  0
   50.4291   34.1589   42.4869 C   0  0  0  0  0  0  0  0  0  0  0  0
   49.2311   34.5896   42.1161 N   0  0  0  0  0  0  0  0  0  0  0  0
   47.9255   31.7413   39.6401 S   0  0  0  0  0  0  0  0  0  0  0  0
   46.5795   34.5352   42.9012 H   0  0  0  0  0  0  0  0  0  0  0  0
   46.5629   36.0831   42.0521 H   0  0  0  0  0  0  0  0  0  0  0  0
   44.2453   35.8597   43.6665 H   0  0  0  0  0  0  0  0  0  0  0  0
   40.2185   35.7177   40.1322 H   0  0  0  0  0  0  0  0  0  0  0  0
   42.7833   35.3581   36.6327 H   0  0  0  0  0  0  0  0  0  0  0  0
   46.5789   33.5735   40.3225 H   0  0  0  0  0  0  0  0  0  0  0  0
   47.3127   35.1543   40.0750 H   0  0  0  0  0  0  0  0  0  0  0  0
   50.5386   31.2908   40.7542 H   0  0  0  0  0  0  0  0  0  0  0  0
   51.0761   34.7070   43.1747 H   0  0  0  0  0  0  0  0  0  0  0  0
   47.8597   31.4482   42.8336 Cl  0  0  0  0  0  0  0  0  0  0  0  0
   46.8135   30.4312   41.8662 C   0  0  0  0  0  0  0  0  0  0  0  0
   46.8690   30.5852   40.4959 C   0  0  0  0  0  0  0  0  0  0  0  0
   46.0634   29.8063   39.6906 C   0  0  0  0  0  0  0  0  0  0  0  0
   46.0285   29.8454   38.6214 H   0  0  0  0  0  0  0  0  0  0  0  0
   45.1993   28.8735   40.2101 C   0  0  0  0  0  0  0  0  0  0  0  0
   44.5436   28.2352   39.6166 H   0  0  0  0  0  0  0  0  0  0  0  0
   45.1313   28.7054   41.5957 C   0  0  0  0  0  0  0  0  0  0  0  0
   44.4592   27.9748   42.0710 H   0  0  0  0  0  0  0  0  0  0  0  0
   45.9446   29.4939   42.3779 C   0  0  0  0  0  0  0  0  0  0  0  0
   45.8833   29.3082   44.1126 Cl  0  0  0  0  0  0  0  0  0  0  0  0
  2  1  1  0
  2  3  2  0
  4  3  1  0
  5  6  2  0
  5  4  1  0
  6  2  1  0
  7  5  1  0
  8  9  2  0
  9  7  1  0
  9 10  1  0
 11  9  1  0
 12 13  1  0
 12  1  1  0
 13 18  2  0
 14 15  2  0
 14 13  1  0
 15 16  1  0
 16 17  2  0
 18 17  1  0
 19 14  1  0
  1 20  1  0
  1 21  1  0
  3 22  1  0
 10 23  1  0
 11 24  1  0
 12 25  1  0
 12 26  1  0
 15 27  1  0
 17 28  1  0
 29 30  1  0
 30 31  2  0
 31 32  1  0
 32 33  1  0
 32 34  2  0
 34 35  1  0
 34 36  1  0
 36 37  1  0
 36 38  2  0
 38 39  1  0
 38 30  1  0
 19 31  1  0
M  ISO  8  20   8  21   8  22  14  23   3  24   3  25   8  26   8  27  14
M  ISO  4  28  14  33  15  35  15  37  15
M  END
>  <DihAtoms>  (1) 
13,18,30,29

>  <DihDeg>  (1) 
0.004529282971046894

$$$$
