
 OpenBabel03242510223D

 40 43  0  0  1  0  0  0  0  0999 V2000
   48.0360   33.0860   43.3200 N   0  0  0  0  0  0  0  0  0  0  0  0
   49.1550   33.0360   42.4920 C   0  0  0  0  0  0  0  0  0  0  0  0
   50.2860   32.5130   42.6750 O   0  0  0  0  0  0  0  0  0  0  0  0
   47.5790   34.0240   43.3030 H   0  0  0  0  0  0  0  0  0  0  0  0
   46.2020   32.0410   44.5980 C   0  0  1  0  0  0  0  0  0  0  0  0
   46.3620   31.2610   43.4520 C   0  0  0  0  0  0  0  0  0  0  0  0
   47.5910   31.9780   44.0870 C   0  0  1  0  0  0  0  0  0  0  0  0
   45.9820   31.6070   45.6130 H   0  0  0  0  0  0  0  0  0  0  0  0
   46.3400   30.1320   43.5600 H   0  0  0  0  0  0  0  0  0  0  0  0
   46.1190   31.5300   42.4090 H   0  0  0  0  0  0  0  0  0  0  0  0
   48.3310   31.2230   44.4320 H   0  0  0  0  0  0  0  0  0  0  0  0
   45.0380   33.8990   43.1990 C   0  0  0  0  0  0  0  0  0  0  0  0
   45.5030   33.4000   44.4610 C   0  0  0  0  0  0  0  0  0  0  0  0
   45.3200   34.2030   45.5690 C   0  0  0  0  0  0  0  0  0  0  0  0
   44.7210   35.4050   45.4170 N   0  0  0  0  0  0  0  0  0  0  0  0
   44.2870   35.8640   44.2180 C   0  0  0  0  0  0  0  0  0  0  0  0
   44.4550   35.0760   43.0720 N   0  0  0  0  0  0  0  0  0  0  0  0
   45.1580   33.2700   42.3400 H   0  0  0  0  0  0  0  0  0  0  0  0
   45.6460   33.8860   46.5430 H   0  0  0  0  0  0  0  0  0  0  0  0
   43.8060   36.8270   44.0980 H   0  0  0  0  0  0  0  0  0  0  0  0
   49.0980   33.6870   41.1230 C   0  0  2  0  0  0  0  0  0  0  0  0
   48.5230   35.1500   41.0730 C   0  0  0  0  0  0  0  0  0  0  0  0
   47.8140   33.9810   40.4740 C   0  0  1  0  0  0  0  0  0  0  0  0
   50.0090   33.6400   40.4950 H   0  0  0  0  0  0  0  0  0  0  0  0
   48.1610   35.5120   42.0650 H   0  0  0  0  0  0  0  0  0  0  0  0
   48.9650   35.8530   40.3760 H   0  0  0  0  0  0  0  0  0  0  0  0
   46.9090   33.5510   40.9500 H   0  0  0  0  0  0  0  0  0  0  0  0
   47.7630   33.8900   38.9650 C   0  0  0  0  0  0  0  0  0  0  0  0
   48.3270   34.7430   38.2940 O   0  0  0  0  0  0  0  0  0  0  0  0
   44.8520   33.8230   39.5820 Cl  0  0  0  0  0  0  0  0  0  0  0  0
   45.7040   32.7140   38.5140 C   0  0  0  0  0  0  0  0  0  0  0  0
   47.0590   32.8120   38.2810 C   0  0  0  0  0  0  0  0  0  0  0  0
   47.6040   31.8820   37.4260 C   0  0  0  0  0  0  0  0  0  0  0  0
   48.6630   31.9590   37.2430 H   0  0  0  0  0  0  0  0  0  0  0  0
   46.8420   30.8990   36.8300 C   0  0  0  0  0  0  0  0  0  0  0  0
   47.3840   30.2100   36.1650 H   0  0  0  0  0  0  0  0  0  0  0  0
   45.4860   30.7950   37.0590 C   0  0  0  0  0  0  0  0  0  0  0  0
   44.9210   30.0160   36.5770 H   0  0  0  0  0  0  0  0  0  0  0  0
   44.9210   31.7200   37.9140 C   0  0  0  0  0  0  0  0  0  0  0  0
   43.2000   31.6170   38.2290 Cl  0  0  0  0  0  0  0  0  0  0  0  0
  1  7  1  0  0  0  0
  2  3  2  0  0  0  0
  2  1  1  0  0  0  0
  4  1  1  0  0  0  0
  5  8  1  1  0  0  0
  6  9  1  0  0  0  0
  6  7  1  0  0  0  0
  6  5  1  0  0  0  0
  7 11  1  1  0  0  0
  7  5  1  0  0  0  0
 10  6  1  0  0  0  0
 12 13  1  0  0  0  0
 13  5  1  0  0  0  0
 13 14  2  0  0  0  0
 14 19  1  0  0  0  0
 15 14  1  0  0  0  0
 16 15  2  0  0  0  0
 17 12  2  0  0  0  0
 17 16  1  0  0  0  0
 18 12  1  0  0  0  0
 20 16  1  0  0  0  0
 21 24  1  6  0  0  0
 21  2  1  0  0  0  0
 22 21  1  0  0  0  0
 22 25  1  0  0  0  0
 23 27  1  1  0  0  0
 23 22  1  0  0  0  0
 23 21  1  0  0  0  0
 26 22  1  0  0  0  0
 28 23  1  0  0  0  0
 29 28  2  0  0  0  0
 31 30  1  0  0  0  0
 32 31  1  0  0  0  0
 32 28  1  0  0  0  0
 33 32  2  0  0  0  0
 34 33  1  0  0  0  0
 35 37  2  0  0  0  0
 35 33  1  0  0  0  0
 36 35  1  0  0  0  0
 37 39  1  0  0  0  0
 38 37  1  0  0  0  0
 39 40  1  0  0  0  0
 39 31  2  0  0  0  0
M  END
>  <minimizedAffinity>
-4.81163359

>  <minimizedRMSD>
0.502889156

$$$$
