
     RDKit          3D

 40 42  0  0  0  0  0  0  0  0999 V2000
   45.2851   35.6196   44.2112 C   0  0  0  0  0  0  0  0  0  0  0  0
   46.2502   34.8661   43.5148 C   0  0  0  0  0  0  0  0  0  0  0  0
   46.7098   33.6657   44.0749 C   0  0  0  0  0  0  0  0  0  0  0  0
   46.1981   33.2984   45.2554 N   0  0  0  0  0  0  0  0  0  0  0  0
   45.2678   34.0364   45.9131 C   0  0  0  0  0  0  0  0  0  0  0  0
   44.8160   35.1931   45.3881 N   0  0  0  0  0  0  0  0  0  0  0  0
   48.6870   33.7748   42.5818 C   0  0  2  0  0  0  0  0  0  0  0  0
   47.7008   32.9341   43.3119 C   0  0  2  0  0  0  0  0  0  0  0  0
   47.1608   32.1611   42.2412 O   0  0  0  0  0  0  0  0  0  0  0  0
   48.3177   31.6603   41.6670 C   0  0  0  0  0  0  0  0  0  0  0  0
   49.4280   32.6471   41.8320 C   0  0  1  0  0  0  0  0  0  0  0  0
   49.4952   34.5325   43.3731 O   0  0  0  0  0  0  0  0  0  0  0  0
   49.9291   33.1601   40.6382 O   0  0  0  0  0  0  0  0  0  0  0  0
   44.8109   36.9018   43.6058 C   0  0  0  0  0  0  0  0  0  0  0  0
   45.3110   39.2680   44.4629 C   0  0  0  0  0  0  0  0  0  0  0  0
   45.6294   39.6214   43.2941 O   0  0  0  0  0  0  0  0  0  0  0  0
   44.9331   37.9175   44.6465 N   0  0  0  0  0  0  0  0  0  0  0  0
   46.5734   35.2829   42.5714 H   0  0  0  0  0  0  0  0  0  0  0  0
   44.8684   33.7184   46.8660 H   0  0  0  0  0  0  0  0  0  0  0  0
   48.1845   34.3698   41.7664 H   0  0  0  0  0  0  0  0  0  0  0  0
   48.2266   32.2095   43.9764 H   0  0  0  0  0  0  0  0  0  0  0  0
   48.5781   30.7564   42.2834 H   0  0  0  0  0  0  0  0  0  0  0  0
   48.1789   31.3021   40.6367 H   0  0  0  0  0  0  0  0  0  0  0  0
   50.2716   32.2681   42.4214 H   0  0  0  0  0  0  0  0  0  0  0  0
   49.5581   35.4740   43.0971 H   0  0  0  0  0  0  0  0  0  0  0  0
   50.8966   32.9248   40.5214 H   0  0  0  0  0  0  0  0  0  0  0  0
   43.7927   36.8129   43.2014 H   0  0  0  0  0  0  0  0  0  0  0  0
   45.4985   37.2155   42.8003 H   0  0  0  0  0  0  0  0  0  0  0  0
   44.7172   37.6117   45.6397 H   0  0  0  0  0  0  0  0  0  0  0  0
   44.8878   42.2451   43.9209 Cl  0  0  0  0  0  0  0  0  0  0  0  0
   45.1643   41.5804   45.5141 C   0  0  0  0  0  0  0  0  0  0  0  0
   45.3345   40.2167   45.5695 C   0  0  0  0  0  0  0  0  0  0  0  0
   45.5580   39.5810   46.7666 C   0  0  0  0  0  0  0  0  0  0  0  0
   45.7061   38.5089   46.9255 H   0  0  0  0  0  0  0  0  0  0  0  0
   45.6243   40.2719   47.9763 C   0  0  0  0  0  0  0  0  0  0  0  0
   45.7979   39.8193   48.9431 H   0  0  0  0  0  0  0  0  0  0  0  0
   45.4489   41.6581   47.8998 C   0  0  0  0  0  0  0  0  0  0  0  0
   45.4833   42.2761   48.7791 H   0  0  0  0  0  0  0  0  0  0  0  0
   45.2249   42.2895   46.6943 C   0  0  0  0  0  0  0  0  0  0  0  0
   45.0007   44.0303   46.5629 Cl  0  0  0  0  0  0  0  0  0  0  0  0
  1  6  2  0
  2  3  2  0
  2  1  1  0
  3  4  1  0
  4  5  2  0
  6  5  1  0
  7  8  1  0
  7 12  1  0
  8  3  1  0
  9  8  1  0
 10 11  1  0
 10  9  1  0
 11  7  1  0
 13 11  1  0
 14  1  1  0
 14 17  1  0
 15 17  1  0
 16 15  2  0
  2 18  1  0
  5 19  1  0
  7 20  1  6
  8 21  1  1
 10 22  1  0
 10 23  1  0
 11 24  1  1
 12 25  1  0
 13 26  1  0
 14 27  1  0
 14 28  1  0
 17 29  1  0
 30 31  1  0
 31 32  2  0
 32 33  1  0
 33 34  1  0
 33 35  2  0
 35 36  1  0
 35 37  1  0
 37 38  1  0
 37 39  2  0
 39 40  1  0
 39 31  1  0
 15 32  1  0
M  ISO  8  18  14  19  14  20  13  21  13  22  13  23  13  24  13  25   3
M  ISO  6  26   3  27   8  28   8  34  15  36  15  38  15
M  END
>  <DihAtoms>  (1) 
16,14,31,30

>  <DihDeg>  (1) 
117.45925376132621

$$$$
