
 OpenBabel03242520043D

 41 44  0  0  1  0  0  0  0  0999 V2000
   47.7910   32.8210   44.2470 N   0  0  0  0  0  0  0  0  0  0  0  0
   48.4700   33.0780   43.0450 C   0  0  1  0  0  0  0  0  0  0  0  0
   49.1360   31.8030   42.5750 C   0  0  0  0  0  0  0  0  0  0  0  0
   48.0330   30.8890   42.2630 N   0  0  0  0  0  0  0  0  0  0  0  0
   47.3280   30.5180   43.4580 C   0  0  0  0  0  0  0  0  0  0  0  0
   47.0390   31.6270   44.3990 C   0  0  1  0  0  0  0  0  0  0  0  0
   47.2480   33.6290   44.5650 H   0  0  0  0  0  0  0  0  0  0  0  0
   49.2930   33.8050   43.2610 H   0  0  0  0  0  0  0  0  0  0  0  0
   49.7580   31.3570   43.3820 H   0  0  0  0  0  0  0  0  0  0  0  0
   49.6840   31.9430   41.6340 H   0  0  0  0  0  0  0  0  0  0  0  0
   48.3780   30.0410   41.7950 H   0  0  0  0  0  0  0  0  0  0  0  0
   46.4150   29.9580   43.1510 H   0  0  0  0  0  0  0  0  0  0  0  0
   47.9660   29.7680   43.9880 H   0  0  0  0  0  0  0  0  0  0  0  0
   45.9580   31.9040   44.2820 H   0  0  0  0  0  0  0  0  0  0  0  0
   45.4720   33.1690   46.3620 Cl  0  0  0  0  0  0  0  0  0  0  0  0
   46.5270   31.8260   46.8220 C   0  0  0  0  0  0  0  0  0  0  0  0
   47.2260   31.1630   45.8080 C   0  0  0  0  0  0  0  0  0  0  0  0
   48.0650   30.1040   46.1270 C   0  0  0  0  0  0  0  0  0  0  0  0
   48.6050   29.5870   45.3590 H   0  0  0  0  0  0  0  0  0  0  0  0
   48.2210   29.6910   47.4470 C   0  0  0  0  0  0  0  0  0  0  0  0
   48.8740   28.8630   47.7210 H   0  0  0  0  0  0  0  0  0  0  0  0
   47.5160   30.3720   48.4000 C   0  0  0  0  0  0  0  0  0  0  0  0
   47.5970   30.0950   49.4500 H   0  0  0  0  0  0  0  0  0  0  0  0
   46.6770   31.4220   48.1440 C   0  0  0  0  0  0  0  0  0  0  0  0
   45.7730   32.2920   49.3820 Cl  0  0  0  0  0  0  0  0  0  0  0  0
   45.7710   34.1080   40.9790 C   0  0  0  0  0  0  0  0  0  0  0  0
   46.7930   34.1610   40.0540 C   0  0  0  0  0  0  0  0  0  0  0  0
   47.9350   33.7880   40.6850 C   0  0  0  0  0  0  0  0  0  0  0  0
   47.6270   33.5120   41.9650 N   0  0  0  0  0  0  0  0  0  0  0  0
   46.3180   33.7090   42.1240 N   0  0  0  0  0  0  0  0  0  0  0  0
   46.6300   34.4600   39.0160 H   0  0  0  0  0  0  0  0  0  0  0  0
   48.9100   33.7250   40.2430 H   0  0  0  0  0  0  0  0  0  0  0  0
   42.3790   35.4800   41.3510 C   0  0  0  0  0  0  0  0  0  0  0  0
   41.7090   34.9760   40.2180 C   0  0  0  0  0  0  0  0  0  0  0  0
   42.4530   34.1730   39.3530 C   0  0  0  0  0  0  0  0  0  0  0  0
   43.7490   33.9290   39.6470 N   0  0  0  0  0  0  0  0  0  0  0  0
   44.3620   34.4270   40.7420 C   0  0  0  0  0  0  0  0  0  0  0  0
   43.6710   35.2010   41.5910 N   0  0  0  0  0  0  0  0  0  0  0  0
   41.9060   36.1120   42.0930 H   0  0  0  0  0  0  0  0  0  0  0  0
   40.6580   35.2410   40.0830 H   0  0  0  0  0  0  0  0  0  0  0  0
   41.9480   33.7830   38.4810 H   0  0  0  0  0  0  0  0  0  0  0  0
  1  6  1  0  0  0  0
  1  7  1  0  0  0  0
  2  8  1  1  0  0  0
  2  1  1  0  0  0  0
  3  2  1  0  0  0  0
  3  9  1  0  0  0  0
  4  3  1  0  0  0  0
  4  5  1  0  0  0  0
  5 13  1  0  0  0  0
  5  6  1  0  0  0  0
  6 14  1  6  0  0  0
  6 17  1  0  0  0  0
 10  3  1  0  0  0  0
 11  4  1  0  0  0  0
 12  5  1  0  0  0  0
 15 16  1  0  0  0  0
 16 24  1  0  0  0  0
 17 18  1  0  0  0  0
 17 16  2  0  0  0  0
 18 20  2  0  0  0  0
 19 18  1  0  0  0  0
 20 21  1  0  0  0  0
 20 22  1  0  0  0  0
 22 23  1  0  0  0  0
 24 22  2  0  0  0  0
 24 25  1  0  0  0  0
 26 30  2  0  0  0  0
 27 28  2  0  0  0  0
 27 26  1  0  0  0  0
 28 29  1  0  0  0  0
 29 30  1  0  0  0  0
 29  2  1  0  0  0  0
 31 27  1  0  0  0  0
 32 28  1  0  0  0  0
 33 38  1  0  0  0  0
 33 39  1  0  0  0  0
 34 33  2  0  0  0  0
 35 36  2  0  0  0  0
 35 34  1  0  0  0  0
 36 37  1  0  0  0  0
 37 26  1  0  0  0  0
 37 38  2  0  0  0  0
 40 34  1  0  0  0  0
 41 35  1  0  0  0  0
M  END
>  <minimizedAffinity>
-5.14092541

>  <minimizedRMSD>
5.22624922

$$$$
