
 OpenBabel03252506353D

 35 37  0  0  1  0  0  0  0  0999 V2000
   44.4630   35.9170   44.9720 C   0  0  0  0  0  0  0  0  0  0  0  0
   45.0730   35.9050   43.7090 C   0  0  0  0  0  0  0  0  0  0  0  0
   45.9330   34.8930   43.4070 C   0  0  0  0  0  0  0  0  0  0  0  0
   46.1410   33.9590   44.3630 N   0  0  0  0  0  0  0  0  0  0  0  0
   45.5510   33.9840   45.5650 C   0  0  0  0  0  0  0  0  0  0  0  0
   44.7100   34.9540   45.8890 N   0  0  0  0  0  0  0  0  0  0  0  0
   45.8580   32.9270   46.4830 N   0  0  0  0  0  0  0  0  0  0  0  0
   45.1050   32.6650   47.6980 C   0  0  0  0  0  0  0  0  0  0  0  0
   46.2070   32.2700   48.6500 C   0  0  0  0  0  0  0  0  0  0  0  0
   47.4550   32.0680   47.8360 C   0  0  0  0  0  0  0  0  0  0  0  0
   46.9250   31.9450   46.4080 C   0  0  1  0  0  0  0  0  0  0  0  0
   43.7640   36.7070   45.2640 H   0  0  0  0  0  0  0  0  0  0  0  0
   46.4010   34.8780   42.4440 H   0  0  0  0  0  0  0  0  0  0  0  0
   44.4570   31.7770   47.5920 H   0  0  0  0  0  0  0  0  0  0  0  0
   44.5410   33.5620   48.0360 H   0  0  0  0  0  0  0  0  0  0  0  0
   45.9570   31.4390   49.3080 H   0  0  0  0  0  0  0  0  0  0  0  0
   46.3620   33.1640   49.3160 H   0  0  0  0  0  0  0  0  0  0  0  0
   48.1070   32.9500   47.9060 H   0  0  0  0  0  0  0  0  0  0  0  0
   47.9730   31.1490   48.1830 H   0  0  0  0  0  0  0  0  0  0  0  0
   47.6120   32.3210   45.6510 H   0  0  0  0  0  0  0  0  0  0  0  0
   44.7270   36.9800   42.8240 N   0  0  0  0  0  0  0  0  0  0  0  0
   43.7900   37.4100   42.7700 H   0  0  0  0  0  0  0  0  0  0  0  0
   45.4760   37.3660   42.1800 H   0  0  0  0  0  0  0  0  0  0  0  0
   46.3010   30.2910   46.1770 S   0  0  0  0  0  0  0  0  0  0  0  0
   45.4470   27.5970   47.8490 Cl  0  0  0  0  0  0  0  0  0  0  0  0
   47.0970   27.8190   47.3730 C   0  0  0  0  0  0  0  0  0  0  0  0
   47.3440   28.9820   46.6830 C   0  0  0  0  0  0  0  0  0  0  0  0
   48.6750   29.2040   46.3020 C   0  0  0  0  0  0  0  0  0  0  0  0
   49.0860   30.0580   45.7500 H   0  0  0  0  0  0  0  0  0  0  0  0
   49.6540   28.2590   46.6330 C   0  0  0  0  0  0  0  0  0  0  0  0
   50.7090   28.3840   46.3590 H   0  0  0  0  0  0  0  0  0  0  0  0
   49.3440   27.0990   47.3320 C   0  0  0  0  0  0  0  0  0  0  0  0
   50.0950   26.3830   47.5810 H   0  0  0  0  0  0  0  0  0  0  0  0
   48.0390   26.8970   47.6990 C   0  0  0  0  0  0  0  0  0  0  0  0
   47.5290   25.4640   48.5880 Cl  0  0  0  0  0  0  0  0  0  0  0  0
  1 12  1  0  0  0  0
  1  6  1  0  0  0  0
  2  1  2  0  0  0  0
  3  2  1  0  0  0  0
  3  4  2  0  0  0  0
  4  5  1  0  0  0  0
  5  6  2  0  0  0  0
  5  7  1  0  0  0  0
  7  8  1  0  0  0  0
  8 15  1  0  0  0  0
  8  9  1  0  0  0  0
  9 16  1  0  0  0  0
  9 17  1  0  0  0  0
 10 18  1  0  0  0  0
 10 19  1  0  0  0  0
 10  9  1  0  0  0  0
 11 20  1  6  0  0  0
 11  7  1  0  0  0  0
 11 10  1  0  0  0  0
 13  3  1  0  0  0  0
 14  8  1  0  0  0  0
 21  2  1  0  0  0  0
 22 21  1  0  0  0  0
 23 21  1  0  0  0  0
 24 11  1  0  0  0  0
 24 27  1  0  0  0  0
 26 34  1  0  0  0  0
 26 25  1  0  0  0  0
 27 26  2  0  0  0  0
 28 30  2  0  0  0  0
 28 27  1  0  0  0  0
 29 28  1  0  0  0  0
 30 32  1  0  0  0  0
 31 30  1  0  0  0  0
 32 33  1  0  0  0  0
 32 34  2  0  0  0  0
 34 35  1  0  0  0  0
M  END
>  <minimizedAffinity>
-5.51682234

>  <minimizedRMSD>
1.17813623

$$$$
