
     RDKit          3D

 44 47  0  0  0  0  0  0  0  0999 V2000
   44.5874   34.4203   42.9450 C   0  0  0  0  0  0  0  0  0  0  0  0
   44.3014   35.6897   43.5588 C   0  0  0  0  0  0  0  0  0  0  0  0
   44.6213   35.8182   44.8970 C   0  0  0  0  0  0  0  0  0  0  0  0
   45.1772   34.7527   45.5375 N   0  0  0  0  0  0  0  0  0  0  0  0
   45.4271   33.5671   44.9016 C   0  0  0  0  0  0  0  0  0  0  0  0
   45.1340   33.4339   43.6541 N   0  0  0  0  0  0  0  0  0  0  0  0
   46.0314   32.4604   45.6794 C   0  0  1  0  0  0  0  0  0  0  0  0
   46.9753   32.7880   46.8131 C   0  0  0  0  0  0  0  0  0  0  0  0
   45.5617   32.3586   47.0785 C   0  0  1  0  0  0  0  0  0  0  0  0
   44.7555   33.4234   47.6575 N   0  0  0  0  0  0  0  0  0  0  0  0
   44.2418   34.3133   41.5474 C   0  0  0  0  0  0  0  0  0  0  0  0
   45.1136   34.1605   40.6417 O   0  0  0  0  0  0  0  0  0  0  0  0
   41.9925   33.3095   41.2968 C   0  0  0  0  0  0  0  0  0  0  0  0
   42.8134   34.4015   41.3054 C   0  0  0  0  0  0  0  0  0  0  0  0
   42.2358   35.6646   41.0673 C   0  0  0  0  0  0  0  0  0  0  0  0
   40.8931   35.8494   40.8294 C   0  0  0  0  0  0  0  0  0  0  0  0
   40.0777   34.7501   40.8237 C   0  0  0  0  0  0  0  0  0  0  0  0
   40.6299   33.5251   41.0523 C   0  0  0  0  0  0  0  0  0  0  0  0
   42.5302   31.7607   41.6745 S   0  0  0  0  0  0  0  0  0  0  0  0
   42.3895   31.0710   40.2776 O   0  0  0  0  0  0  0  0  0  0  0  0
   41.6311   31.0452   42.6144 O   0  0  0  0  0  0  0  0  0  0  0  0
   43.8762   36.5595   43.1340 H   0  0  0  0  0  0  0  0  0  0  0  0
   44.4505   36.7309   45.4651 H   0  0  0  0  0  0  0  0  0  0  0  0
   46.2138   31.5288   45.1426 H   0  0  0  0  0  0  0  0  0  0  0  0
   47.2726   33.8608   46.8859 H   0  0  0  0  0  0  0  0  0  0  0  0
   47.8172   32.0800   46.9644 H   0  0  0  0  0  0  0  0  0  0  0  0
   45.4472   31.3561   47.5542 H   0  0  0  0  0  0  0  0  0  0  0  0
   43.7807   33.1210   47.7782 H   0  0  0  0  0  0  0  0  0  0  0  0
   45.2138   33.8539   48.4744 H   0  0  0  0  0  0  0  0  0  0  0  0
   42.8063   36.5835   41.0450 H   0  0  0  0  0  0  0  0  0  0  0  0
   40.4623   36.7970   40.6511 H   0  0  0  0  0  0  0  0  0  0  0  0
   39.0329   34.8172   40.6477 H   0  0  0  0  0  0  0  0  0  0  0  0
   39.9644   32.6483   41.0446 H   0  0  0  0  0  0  0  0  0  0  0  0
   44.0398   31.8464   39.0227 Cl  0  0  0  0  0  0  0  0  0  0  0  0
   44.7910   31.1985   40.4989 C   0  0  0  0  0  0  0  0  0  0  0  0
   44.0867   31.1219   41.7349 C   0  0  0  0  0  0  0  0  0  0  0  0
   44.9049   30.5802   42.7171 C   0  0  0  0  0  0  0  0  0  0  0  0
   44.3572   30.5820   43.6779 H   0  0  0  0  0  0  0  0  0  0  0  0
   46.2015   30.1285   42.6997 C   0  0  0  0  0  0  0  0  0  0  0  0
   46.6352   29.7417   43.5961 H   0  0  0  0  0  0  0  0  0  0  0  0
   46.7014   30.2815   41.4415 C   0  0  0  0  0  0  0  0  0  0  0  0
   47.7309   29.9476   41.3198 H   0  0  0  0  0  0  0  0  0  0  0  0
   46.0893   30.7879   40.3291 C   0  0  0  0  0  0  0  0  0  0  0  0
   46.9478   30.8992   38.8085 Cl  0  0  0  0  0  0  0  0  0  0  0  0
  1  2  2  0
  1  6  1  0
  2  3  1  0
  3  4  2  0
  5  4  1  0
  5  7  1  0
  6  5  2  0
  7  8  1  0
  7  9  1  0
  8  9  1  0
  9 10  1  0
 11  1  1  0
 12 11  2  0
 13 19  1  0
 14 13  1  0
 14 11  1  0
 15 14  2  0
 16 17  2  0
 16 15  1  0
 17 18  1  0
 18 13  2  0
 19 21  2  0
 20 19  2  0
  2 22  1  0
  3 23  1  0
  7 24  1  6
  8 25  1  0
  8 26  1  0
  9 27  1  1
 10 28  1  0
 10 29  1  0
 15 30  1  0
 16 31  1  0
 17 32  1  0
 18 33  1  0
 34 35  1  0
 35 36  2  0
 36 37  1  0
 37 38  1  0
 37 39  2  0
 39 40  1  0
 39 41  1  0
 41 42  1  0
 41 43  2  0
 43 44  1  0
 43 35  1  0
 19 36  1  0
M  ISO  8  22  14  23  14  24  13  25  13  26  13  27  13  28   5  29   5
M  ISO  7  30  14  31  14  32  14  33  14  38  15  40  15  42  15
M  END
>  <DihAtoms>  (1) 
12,18,35,34

>  <DihDeg>  (1) 
135.45677524100918

$$$$
