REMARK  Name = 
REMARK  3 active torsions:
REMARK  status: ('A' for Active; 'I' for Inactive)
REMARK    1  A    between atoms: C_1  and  C_11
REMARK    2  A    between atoms: C_6  and  N_13
REMARK    3  A    between atoms: C_9  and  C_28
REMARK                            x       y       z     vdW  Elec       q    Type
REMARK                         _______ _______ _______ _____ _____    ______ ____
ROOT
ATOM      1  C   UNL     1      45.018  35.036  44.270  0.00  0.00    +0.000 A 
ATOM      2  C   UNL     1      45.872  34.870  43.175  0.00  0.00    +0.000 A 
ATOM      3  C   UNL     1      46.933  33.984  43.278  0.00  0.00    +0.000 A 
ATOM      4  N   UNL     1      47.056  33.336  44.468  0.00  0.00    +0.000 NA
ATOM      5  C   UNL     1      46.237  33.501  45.506  0.00  0.00    +0.000 A 
ATOM      6  N   UNL     1      45.196  34.366  45.411  0.00  0.00    +0.000 NA
ATOM      7  H   UNL     1      44.208  35.744  44.123  0.00  0.00    +0.000 HD
ATOM      8  H   UNL     1      45.730  35.408  42.289  0.00  0.00    +0.000 HD
ENDROOT
BRANCH   5   9
ATOM      9  C   UNL     1      46.488  32.742  46.756  0.00  0.00    +0.000 C 
ATOM     10  C   UNL     1      47.025  31.416  46.362  0.00  0.00    +0.000 C 
ATOM     11  C   UNL     1      46.079  30.291  46.478  0.00  0.00    +0.000 C 
ATOM     12  C   UNL     1      45.606  30.283  47.918  0.00  0.00    +0.000 C 
ATOM     13  C   UNL     1      44.816  31.478  48.240  0.00  0.00    +0.000 C 
ATOM     14  C   UNL     1      45.308  32.755  47.609  0.00  0.00    +0.000 C 
ATOM     15  H   UNL     1      47.294  33.331  47.286  0.00  0.00    +0.000 HD
ATOM     16  H   UNL     1      47.905  31.185  47.003  0.00  0.00    +0.000 HD
ATOM     17  H   UNL     1      47.463  31.440  45.322  0.00  0.00    +0.000 HD
ATOM     18  H   UNL     1      45.194  30.467  45.831  0.00  0.00    +0.000 HD
ATOM     19  H   UNL     1      46.577  29.350  46.238  0.00  0.00    +0.000 HD
ATOM     20  H   UNL     1      44.875  29.445  47.970  0.00  0.00    +0.000 HD
ATOM     21  H   UNL     1      46.434  30.051  48.581  0.00  0.00    +0.000 HD
ATOM     22  H   UNL     1      43.954  31.622  48.835  0.00  0.00    +0.000 HD
BRANCH  14  23
ATOM     23  N   UNL     1      44.625  33.986  47.837  0.00  0.00    +0.000 N 
ATOM     24  H   UNL     1      44.988  34.695  48.515  0.00  0.00    +0.000 HD
ATOM     25  H   UNL     1      43.813  34.562  47.588  0.00  0.00    +0.000 HD
ENDBRANCH  14  23
ENDBRANCH   5   9
BRANCH   3  28
ATOM     26 CL   UNL     1      49.946  34.854  43.615  0.00  0.00    +0.000 Cl
ATOM     27  C   UNL     1      49.271  33.967  42.302  0.00  0.00    +0.000 A 
ATOM     28  C   UNL     1      47.943  33.664  42.292  0.00  0.00    +0.000 A 
ATOM     29  C   UNL     1      47.559  32.973  41.164  0.00  0.00    +0.000 A 
ATOM     30  H   UNL     1      46.537  32.650  40.987  0.00  0.00    +0.000 HD
ATOM     31  C   UNL     1      48.415  32.618  40.146  0.00  0.00    +0.000 A 
ATOM     32  H   UNL     1      48.083  32.081  39.285  0.00  0.00    +0.000 HD
ATOM     33  C   UNL     1      49.745  32.947  40.207  0.00  0.00    +0.000 A 
ATOM     34  H   UNL     1      50.407  32.663  39.403  0.00  0.00    +0.000 HD
ATOM     35  C   UNL     1      50.166  33.638  41.318  0.00  0.00    +0.000 A 
ATOM     36 CL   UNL     1      51.860  34.059  41.400  0.00  0.00    +0.000 Cl
ENDBRANCH   3  28
TORSDOF 3
