REMARK  Name = 
REMARK  4 active torsions:
REMARK  status: ('A' for Active; 'I' for Inactive)
REMARK    1  A    between atoms: C_1  and  C_11
REMARK    2  A    between atoms: C_6  and  N_19
REMARK    3  A    between atoms: C_9  and  C_13
REMARK    4  A    between atoms: C_17  and  C_37
REMARK                            x       y       z     vdW  Elec       q    Type
REMARK                         _______ _______ _______ _____ _____    ______ ____
ROOT
ATOM      1  C   UNL     1      44.585  35.569  44.613  0.00  0.00    +0.000 A 
ATOM      2  C   UNL     1      45.230  35.579  43.358  0.00  0.00    +0.000 A 
ATOM      3  C   UNL     1      46.309  34.671  43.176  0.00  0.00    +0.000 A 
ATOM      4  N   UNL     1      46.655  33.855  44.206  0.00  0.00    +0.000 NA
ATOM      5  C   UNL     1      46.007  33.884  45.383  0.00  0.00    +0.000 A 
ATOM      6  N   UNL     1      44.969  34.739  45.595  0.00  0.00    +0.000 NA
ATOM      7  H   UNL     1      43.781  36.272  44.691  0.00  0.00    +0.000 HD
ATOM      8  H   UNL     1      44.940  36.236  42.553  0.00  0.00    +0.000 HD
ENDROOT
BRANCH   5   9
ATOM      9  C   UNL     1      46.437  32.967  46.474  0.00  0.00    +0.000 C 
ATOM     10  C   UNL     1      46.981  31.743  45.789  0.00  0.00    +0.000 C 
ATOM     11  C   UNL     1      46.121  30.550  45.812  0.00  0.00    +0.000 C 
ATOM     12  C   UNL     1      45.820  30.292  47.283  0.00  0.00    +0.000 C 
ATOM     13  C   UNL     1      45.022  31.361  47.877  0.00  0.00    +0.000 C 
ATOM     14  C   UNL     1      45.376  32.733  47.429  0.00  0.00    +0.000 C 
ATOM     15  H   UNL     1      47.268  33.507  46.987  0.00  0.00    +0.000 HD
ATOM     16  H   UNL     1      47.945  31.485  46.278  0.00  0.00    +0.000 HD
ATOM     17  H   UNL     1      47.261  31.941  44.721  0.00  0.00    +0.000 HD
ATOM     18  H   UNL     1      45.210  30.656  45.212  0.00  0.00    +0.000 HD
ATOM     19  H   UNL     1      46.697  29.685  45.471  0.00  0.00    +0.000 HD
ATOM     20  H   UNL     1      46.754  30.120  47.817  0.00  0.00    +0.000 HD
ATOM     21  H   UNL     1      45.136  29.406  47.263  0.00  0.00    +0.000 HD
ATOM     22  H   UNL     1      44.221  31.411  48.574  0.00  0.00    +0.000 HD
BRANCH  14  23
ATOM     23  N   UNL     1      44.674  33.852  47.932  0.00  0.00    +0.000 N 
ATOM     24  H   UNL     1      43.826  34.413  47.699  0.00  0.00    +0.000 HD
ATOM     25  H   UNL     1      45.277  34.077  48.758  0.00  0.00    +0.000 HD
ENDBRANCH  14  23
ENDBRANCH   5   9
BRANCH   3  26
ATOM     26  C   UNL     1      46.996  34.650  41.898  0.00  0.00    +0.000 A 
ATOM     27  C   UNL     1      48.135  35.376  41.766  0.00  0.00    +0.000 A 
ATOM     28  C   UNL     1      48.773  35.331  40.516  0.00  0.00    +0.000 A 
ATOM     29  C   UNL     1      48.172  34.551  39.553  0.00  0.00    +0.000 A 
ATOM     30  C   UNL     1      47.035  33.826  39.685  0.00  0.00    +0.000 A 
ATOM     31  N   UNL     1      46.451  33.902  40.919  0.00  0.00    +0.000 NA
ATOM     32  H   UNL     1      48.551  35.968  42.568  0.00  0.00    +0.000 HD
ATOM     33  H   UNL     1      49.685  35.886  40.341  0.00  0.00    +0.000 HD
ATOM     34  H   UNL     1      48.700  34.547  38.608  0.00  0.00    +0.000 HD
BRANCH  30  37
ATOM     35 CL   UNL     1      45.541  31.487  40.696  0.00  0.00    +0.000 Cl
ATOM     36  C   UNL     1      45.704  31.896  38.987  0.00  0.00    +0.000 A 
ATOM     37  C   UNL     1      46.433  33.022  38.662  0.00  0.00    +0.000 A 
ATOM     38  C   UNL     1      46.548  33.324  37.321  0.00  0.00    +0.000 A 
ATOM     39  H   UNL     1      47.101  34.188  36.978  0.00  0.00    +0.000 HD
ATOM     40  C   UNL     1      45.966  32.550  36.314  0.00  0.00    +0.000 A 
ATOM     41  H   UNL     1      46.080  32.823  35.264  0.00  0.00    +0.000 HD
ATOM     42  C   UNL     1      45.248  31.437  36.685  0.00  0.00    +0.000 A 
ATOM     43  H   UNL     1      44.807  30.851  35.898  0.00  0.00    +0.000 HD
ATOM     44  C   UNL     1      45.120  31.117  38.000  0.00  0.00    +0.000 A 
ATOM     45 CL   UNL     1      44.209  29.701  38.508  0.00  0.00    +0.000 Cl
ENDBRANCH  30  37
ENDBRANCH   3  26
TORSDOF 4
