
 OpenBabel03252508033D

 44 47  0  0  1  0  0  0  0  0999 V2000
   42.0810   33.2720   41.0950 C   0  0  0  0  0  0  0  0  0  0  0  0
   42.7980   34.4140   41.3140 C   0  0  0  0  0  0  0  0  0  0  0  0
   42.1060   35.6410   41.3140 C   0  0  0  0  0  0  0  0  0  0  0  0
   40.7490   35.7430   41.1050 C   0  0  0  0  0  0  0  0  0  0  0  0
   40.0380   34.5940   40.8880 C   0  0  0  0  0  0  0  0  0  0  0  0
   40.7020   33.4040   40.8860 C   0  0  0  0  0  0  0  0  0  0  0  0
   42.5890   36.5970   41.4690 H   0  0  0  0  0  0  0  0  0  0  0  0
   40.2310   36.6630   41.1060 H   0  0  0  0  0  0  0  0  0  0  0  0
   38.9890   34.5960   40.7210 H   0  0  0  0  0  0  0  0  0  0  0  0
   40.1190   32.4860   40.7090 H   0  0  0  0  0  0  0  0  0  0  0  0
   42.7620   31.7360   41.1790 S   0  0  0  0  0  0  0  0  0  0  0  0
   41.7120   30.9230   40.3520 O   0  0  0  0  0  0  0  0  0  0  0  0
   42.7710   31.1770   42.5540 O   0  0  0  0  0  0  0  0  0  0  0  0
   42.8590   32.7200   38.2900 Cl  0  0  0  0  0  0  0  0  0  0  0  0
   44.0000   31.4970   38.8940 C   0  0  0  0  0  0  0  0  0  0  0  0
   43.9450   31.0050   40.2290 C   0  0  0  0  0  0  0  0  0  0  0  0
   44.9460   30.0650   40.4330 C   0  0  0  0  0  0  0  0  0  0  0  0
   44.9200   29.7390   41.4890 H   0  0  0  0  0  0  0  0  0  0  0  0
   45.9230   29.5560   39.6120 C   0  0  0  0  0  0  0  0  0  0  0  0
   46.5980   28.8220   39.9920 H   0  0  0  0  0  0  0  0  0  0  0  0
   45.8130   30.1420   38.3860 C   0  0  0  0  0  0  0  0  0  0  0  0
   46.5450   29.8030   37.6560 H   0  0  0  0  0  0  0  0  0  0  0  0
   44.9180   31.0850   37.9610 C   0  0  0  0  0  0  0  0  0  0  0  0
   44.9840   31.7060   36.3270 Cl  0  0  0  0  0  0  0  0  0  0  0  0
   44.2320   34.4130   41.5450 C   0  0  0  0  0  0  0  0  0  0  0  0
   45.1050   34.3630   40.6290 O   0  0  0  0  0  0  0  0  0  0  0  0
   44.5800   34.4800   42.9440 C   0  0  0  0  0  0  0  0  0  0  0  0
   44.3060   35.7350   43.5930 C   0  0  0  0  0  0  0  0  0  0  0  0
   44.6290   35.8250   44.9330 C   0  0  0  0  0  0  0  0  0  0  0  0
   45.1760   34.7380   45.5450 N   0  0  0  0  0  0  0  0  0  0  0  0
   45.4150   33.5670   44.8770 C   0  0  0  0  0  0  0  0  0  0  0  0
   45.1190   33.4700   43.6260 N   0  0  0  0  0  0  0  0  0  0  0  0
   43.8880   36.6190   43.1920 H   0  0  0  0  0  0  0  0  0  0  0  0
   44.4670   36.7230   45.5260 H   0  0  0  0  0  0  0  0  0  0  0  0
   46.0100   32.4340   45.6230 C   0  0  1  0  0  0  0  0  0  0  0  0
   46.9740   32.7230   46.7510 C   0  0  0  0  0  0  0  0  0  0  0  0
   45.5580   32.3120   47.0250 C   0  0  1  0  0  0  0  0  0  0  0  0
   46.1710   31.5120   45.0650 H   0  0  0  0  0  0  0  0  0  0  0  0
   47.2910   33.7890   46.8420 H   0  0  0  0  0  0  0  0  0  0  0  0
   47.8060   31.9980   46.8760 H   0  0  0  0  0  0  0  0  0  0  0  0
   45.4320   31.3020   47.4820 H   0  0  0  0  0  0  0  0  0  0  0  0
   44.7760   33.3770   47.6370 N   0  0  0  0  0  0  0  0  0  0  0  0
   43.7990   33.0890   47.7640 H   0  0  0  0  0  0  0  0  0  0  0  0
   45.2530   33.7830   48.4560 H   0  0  0  0  0  0  0  0  0  0  0  0
  1 11  1  0  0  0  0
  1  2  1  0  0  0  0
  2  3  2  0  0  0  0
  2 25  1  0  0  0  0
  3  7  1  0  0  0  0
  4  8  1  0  0  0  0
  4  3  1  0  0  0  0
  5  4  2  0  0  0  0
  6  5  1  0  0  0  0
  6  1  2  0  0  0  0
  9  5  1  0  0  0  0
 10  6  1  0  0  0  0
 11 13  2  0  0  0  0
 12 11  2  0  0  0  0
 14 15  1  0  0  0  0
 15 16  1  0  0  0  0
 16 17  2  0  0  0  0
 16 11  1  0  0  0  0
 17 18  1  0  0  0  0
 19 20  1  0  0  0  0
 19 17  1  0  0  0  0
 21 19  2  0  0  0  0
 22 21  1  0  0  0  0
 23 21  1  0  0  0  0
 23 15  2  0  0  0  0
 24 23  1  0  0  0  0
 25 27  1  0  0  0  0
 26 25  2  0  0  0  0
 27 28  2  0  0  0  0
 27 32  1  0  0  0  0
 28 29  1  0  0  0  0
 29 34  1  0  0  0  0
 29 30  2  0  0  0  0
 31 30  1  0  0  0  0
 31 35  1  0  0  0  0
 32 31  2  0  0  0  0
 33 28  1  0  0  0  0
 35 38  1  6  0  0  0
 35 36  1  0  0  0  0
 35 37  1  0  0  0  0
 36 39  1  0  0  0  0
 36 40  1  0  0  0  0
 36 37  1  0  0  0  0
 37 41  1  1  0  0  0
 37 42  1  0  0  0  0
 42 43  1  0  0  0  0
 42 44  1  0  0  0  0
M  END
>  <minimizedAffinity>
-6.00071764

>  <minimizedRMSD>
1.56316221

$$$$
