
 OpenBabel03252507203D

 46 49  0  0  1  0  0  0  0  0999 V2000
   47.0500   33.2140   43.1350 C   0  0  0  0  0  0  0  0  0  0  0  0
   48.2150   33.1010   43.6150 O   0  0  0  0  0  0  0  0  0  0  0  0
   46.5700   32.4700   42.0140 N   0  0  0  0  0  0  0  0  0  0  0  0
   45.2950   31.7850   41.8040 C   0  0  0  0  0  0  0  0  0  0  0  0
   44.6810   32.2380   40.4740 C   0  0  0  0  0  0  0  0  0  0  0  0
   45.5800   31.8270   39.3360 C   0  0  0  0  0  0  0  0  0  0  0  0
   46.9230   31.4110   39.8680 C   0  0  0  0  0  0  0  0  0  0  0  0
   47.4620   32.3660   40.8920 C   0  0  2  0  0  0  0  0  0  0  0  0
   45.3720   30.7000   41.8940 H   0  0  0  0  0  0  0  0  0  0  0  0
   44.6300   32.2020   42.6090 H   0  0  0  0  0  0  0  0  0  0  0  0
   43.6560   31.8790   40.4010 H   0  0  0  0  0  0  0  0  0  0  0  0
   44.6330   33.3490   40.5680 H   0  0  0  0  0  0  0  0  0  0  0  0
   45.1220   30.9390   38.8530 H   0  0  0  0  0  0  0  0  0  0  0  0
   45.6600   32.6230   38.5670 H   0  0  0  0  0  0  0  0  0  0  0  0
   47.6650   31.3340   39.0380 H   0  0  0  0  0  0  0  0  0  0  0  0
   46.8180   30.3970   40.3250 H   0  0  0  0  0  0  0  0  0  0  0  0
   47.4930   33.3730   40.4270 H   0  0  0  0  0  0  0  0  0  0  0  0
   47.6980   29.6190   41.9270 Cl  0  0  0  0  0  0  0  0  0  0  0  0
   49.0860   30.6900   41.7390 C   0  0  0  0  0  0  0  0  0  0  0  0
   48.8480   31.9730   41.2310 C   0  0  0  0  0  0  0  0  0  0  0  0
   49.9920   32.7380   41.1190 C   0  0  0  0  0  0  0  0  0  0  0  0
   49.8340   33.7490   40.7260 H   0  0  0  0  0  0  0  0  0  0  0  0
   51.2290   32.2540   41.4810 C   0  0  0  0  0  0  0  0  0  0  0  0
   52.0790   32.9340   41.3550 H   0  0  0  0  0  0  0  0  0  0  0  0
   51.4030   30.9800   41.9740 C   0  0  0  0  0  0  0  0  0  0  0  0
   52.3600   30.5980   42.2560 H   0  0  0  0  0  0  0  0  0  0  0  0
   50.3010   30.1660   42.1110 C   0  0  0  0  0  0  0  0  0  0  0  0
   50.4640   28.5570   42.7260 Cl  0  0  0  0  0  0  0  0  0  0  0  0
   45.7670   35.2970   43.0260 C   0  0  0  0  0  0  0  0  0  0  0  0
   46.1620   34.1540   43.7660 C   0  0  0  0  0  0  0  0  0  0  0  0
   45.6860   33.9880   45.0490 C   0  0  0  0  0  0  0  0  0  0  0  0
   44.8570   34.9270   45.5570 N   0  0  0  0  0  0  0  0  0  0  0  0
   44.4720   36.0240   44.8630 C   0  0  0  0  0  0  0  0  0  0  0  0
   44.9370   36.1870   43.6060 N   0  0  0  0  0  0  0  0  0  0  0  0
   46.1430   35.4130   42.0310 H   0  0  0  0  0  0  0  0  0  0  0  0
   43.8080   36.7640   45.2880 H   0  0  0  0  0  0  0  0  0  0  0  0
   46.1020   32.8210   45.7970 C   0  0  0  0  0  0  0  0  0  0  0  0
   45.6450   31.5840   45.4490 C   0  0  0  0  0  0  0  0  0  0  0  0
   46.0510   30.4850   46.1700 C   0  0  0  0  0  0  0  0  0  0  0  0
   46.9170   30.5700   47.2530 C   0  0  0  0  0  0  0  0  0  0  0  0
   47.3480   31.8490   47.5620 C   0  0  0  0  0  0  0  0  0  0  0  0
   46.9340   32.8970   46.8380 N   0  0  0  0  0  0  0  0  0  0  0  0
   44.9710   31.3310   44.6510 H   0  0  0  0  0  0  0  0  0  0  0  0
   45.7250   29.4590   45.9490 H   0  0  0  0  0  0  0  0  0  0  0  0
   47.2380   29.7210   47.8210 H   0  0  0  0  0  0  0  0  0  0  0  0
   48.0330   31.9950   48.4030 H   0  0  0  0  0  0  0  0  0  0  0  0
  1  2  2  0  0  0  0
  1 30  1  0  0  0  0
  3  1  1  0  0  0  0
  4  9  1  0  0  0  0
  4  3  1  0  0  0  0
  4 10  1  0  0  0  0
  5 12  1  0  0  0  0
  5  4  1  0  0  0  0
  6  7  1  0  0  0  0
  6  5  1  0  0  0  0
  7 16  1  0  0  0  0
  7  8  1  0  0  0  0
  8 17  1  6  0  0  0
  8 20  1  0  0  0  0
  8  3  1  0  0  0  0
 11  5  1  0  0  0  0
 13  6  1  0  0  0  0
 14  6  1  0  0  0  0
 15  7  1  0  0  0  0
 19 18  1  0  0  0  0
 19 27  1  0  0  0  0
 20 19  2  0  0  0  0
 21 20  1  0  0  0  0
 21 23  2  0  0  0  0
 22 21  1  0  0  0  0
 23 25  1  0  0  0  0
 24 23  1  0  0  0  0
 25 27  2  0  0  0  0
 25 26  1  0  0  0  0
 27 28  1  0  0  0  0
 29 34  2  0  0  0  0
 29 30  1  0  0  0  0
 30 31  2  0  0  0  0
 31 32  1  0  0  0  0
 31 37  1  0  0  0  0
 33 36  1  0  0  0  0
 33 32  2  0  0  0  0
 34 33  1  0  0  0  0
 35 29  1  0  0  0  0
 37 42  1  0  0  0  0
 38 37  2  0  0  0  0
 38 39  1  0  0  0  0
 39 40  2  0  0  0  0
 40 41  1  0  0  0  0
 40 45  1  0  0  0  0
 41 46  1  0  0  0  0
 42 41  2  0  0  0  0
 43 38  1  0  0  0  0
 44 39  1  0  0  0  0
M  END
>  <minimizedAffinity>
-5.32811117

>  <minimizedRMSD>
1.1900996

$$$$
