
     RDKit          3D

 36 38  0  0  0  0  0  0  0  0999 V2000
   46.4877   32.7425   46.7557 C   0  0  2  0  0  0  0  0  0  0  0  0
   47.0253   31.4164   46.3621 C   0  0  0  0  0  0  0  0  0  0  0  0
   46.0788   30.2912   46.4781 C   0  0  0  0  0  0  0  0  0  0  0  0
   45.6061   30.2833   47.9178 C   0  0  0  0  0  0  0  0  0  0  0  0
   44.8164   31.4782   48.2404 C   0  0  0  0  0  0  0  0  0  0  0  0
   45.3082   32.7545   47.6089 C   0  0  0  0  0  0  0  0  0  0  0  0
   45.0182   35.0361   44.2700 C   0  0  0  0  0  0  0  0  0  0  0  0
   45.8721   34.8704   43.1745 C   0  0  0  0  0  0  0  0  0  0  0  0
   46.9326   33.9842   43.2784 C   0  0  0  0  0  0  0  0  0  0  0  0
   47.0560   33.3355   44.4684 N   0  0  0  0  0  0  0  0  0  0  0  0
   46.2373   33.5009   45.5064 C   0  0  0  0  0  0  0  0  0  0  0  0
   45.1962   34.3664   45.4112 N   0  0  0  0  0  0  0  0  0  0  0  0
   44.6250   33.9855   47.8371 N   0  0  0  0  0  0  0  0  0  0  0  0
   47.2938   33.3310   47.2859 H   0  0  0  0  0  0  0  0  0  0  0  0
   47.9049   31.1847   47.0026 H   0  0  0  0  0  0  0  0  0  0  0  0
   47.4629   31.4396   45.3217 H   0  0  0  0  0  0  0  0  0  0  0  0
   45.1942   30.4668   45.8306 H   0  0  0  0  0  0  0  0  0  0  0  0
   46.5765   29.3498   46.2381 H   0  0  0  0  0  0  0  0  0  0  0  0
   44.8747   29.4449   47.9700 H   0  0  0  0  0  0  0  0  0  0  0  0
   46.4338   30.0510   48.5814 H   0  0  0  0  0  0  0  0  0  0  0  0
   43.9544   31.6224   48.8354 H   0  0  0  0  0  0  0  0  0  0  0  0
   44.2076   35.7437   44.1232 H   0  0  0  0  0  0  0  0  0  0  0  0
   45.7296   35.4085   42.2890 H   0  0  0  0  0  0  0  0  0  0  0  0
   44.9883   34.6948   48.5152 H   0  0  0  0  0  0  0  0  0  0  0  0
   43.8126   34.5621   47.5884 H   0  0  0  0  0  0  0  0  0  0  0  0
   49.7492   35.4040   43.2350 Cl  0  0  0  0  0  0  0  0  0  0  0  0
   49.1936   34.1860   42.1516 C   0  0  0  0  0  0  0  0  0  0  0  0
   47.9430   33.6643   42.2922 C   0  0  0  0  0  0  0  0  0  0  0  0
   47.6450   32.7203   41.3338 C   0  0  0  0  0  0  0  0  0  0  0  0
   46.6926   32.2002   41.2920 H   0  0  0  0  0  0  0  0  0  0  0  0
   48.5089   32.3338   40.3340 C   0  0  0  0  0  0  0  0  0  0  0  0
   48.2443   31.5981   39.6080 H   0  0  0  0  0  0  0  0  0  0  0  0
   49.7580   32.8908   40.2383 C   0  0  0  0  0  0  0  0  0  0  0  0
   50.4275   32.5802   39.4508 H   0  0  0  0  0  0  0  0  0  0  0  0
   50.0921   33.8378   41.1773 C   0  0  0  0  0  0  0  0  0  0  0  0
   51.6834   34.5511   41.0597 Cl  0  0  0  0  0  0  0  0  0  0  0  0
  1  6  1  0
  2  3  1  0
  2  1  1  0
  3  4  1  0
  4  5  1  0
  6 13  1  0
  6  5  2  0
  7 12  2  0
  8  9  2  0
  8  7  1  0
  9 10  1  0
 10 11  2  0
 11  1  1  0
 12 11  1  0
  1 14  1  1
  2 15  1  0
  2 16  1  0
  3 17  1  0
  3 18  1  0
  4 19  1  0
  4 20  1  0
  5 21  1  0
  7 22  1  0
  8 23  1  0
 13 24  1  0
 13 25  1  0
 26 27  1  0
 27 28  2  0
 28 29  1  0
 29 30  1  0
 29 31  2  0
 31 32  1  0
 31 33  1  0
 33 34  1  0
 33 35  2  0
 35 36  1  0
 35 27  1  0
  9 28  1  0
M  ISO  8  14  13  15  13  16  13  17  13  18  13  19  13  20  13  21  13
M  ISO  5  22  14  23  14  30  15  32  15  34  15
M  END
>  <DihAtoms>  (1) 
7,8,27,26

>  <DihDeg>  (1) 
-9.458767249974798

$$$$
