
 OpenBabel03252507203D

 46 49  0  0  1  0  0  0  0  0999 V2000
   47.0480   33.2150   43.1400 C   0  0  0  0  0  0  0  0  0  0  0  0
   48.2140   33.1020   43.6200 O   0  0  0  0  0  0  0  0  0  0  0  0
   46.5690   32.4720   42.0180 N   0  0  0  0  0  0  0  0  0  0  0  0
   45.2940   31.7860   41.8070 C   0  0  0  0  0  0  0  0  0  0  0  0
   44.6800   32.2410   40.4780 C   0  0  0  0  0  0  0  0  0  0  0  0
   45.5790   31.8310   39.3390 C   0  0  0  0  0  0  0  0  0  0  0  0
   46.9220   31.4150   39.8710 C   0  0  0  0  0  0  0  0  0  0  0  0
   47.4610   32.3690   40.8960 C   0  0  2  0  0  0  0  0  0  0  0  0
   45.3710   30.7010   41.8970 H   0  0  0  0  0  0  0  0  0  0  0  0
   44.6290   32.2030   42.6120 H   0  0  0  0  0  0  0  0  0  0  0  0
   43.6550   31.8820   40.4050 H   0  0  0  0  0  0  0  0  0  0  0  0
   44.6320   33.3520   40.5730 H   0  0  0  0  0  0  0  0  0  0  0  0
   45.1210   30.9430   38.8550 H   0  0  0  0  0  0  0  0  0  0  0  0
   45.6590   32.6280   38.5720 H   0  0  0  0  0  0  0  0  0  0  0  0
   47.6640   31.3390   39.0410 H   0  0  0  0  0  0  0  0  0  0  0  0
   46.8170   30.4010   40.3270 H   0  0  0  0  0  0  0  0  0  0  0  0
   47.4910   33.3770   40.4320 H   0  0  0  0  0  0  0  0  0  0  0  0
   47.6970   29.6200   41.9270 Cl  0  0  0  0  0  0  0  0  0  0  0  0
   49.0850   30.6920   41.7410 C   0  0  0  0  0  0  0  0  0  0  0  0
   48.8470   31.9760   41.2350 C   0  0  0  0  0  0  0  0  0  0  0  0
   49.9890   32.7410   41.1240 C   0  0  0  0  0  0  0  0  0  0  0  0
   49.8330   33.7530   40.7330 H   0  0  0  0  0  0  0  0  0  0  0  0
   51.2280   32.2570   41.4850 C   0  0  0  0  0  0  0  0  0  0  0  0
   52.0770   32.9380   41.3610 H   0  0  0  0  0  0  0  0  0  0  0  0
   51.4030   30.9810   41.9780 C   0  0  0  0  0  0  0  0  0  0  0  0
   52.3590   30.6010   42.2580 H   0  0  0  0  0  0  0  0  0  0  0  0
   50.3010   30.1680   42.1120 C   0  0  0  0  0  0  0  0  0  0  0  0
   50.4640   28.5580   42.7250 Cl  0  0  0  0  0  0  0  0  0  0  0  0
   45.7640   35.2970   43.0330 C   0  0  0  0  0  0  0  0  0  0  0  0
   46.1600   34.1540   43.7720 C   0  0  0  0  0  0  0  0  0  0  0  0
   45.6850   33.9870   45.0550 C   0  0  0  0  0  0  0  0  0  0  0  0
   44.8560   34.9250   45.5630 N   0  0  0  0  0  0  0  0  0  0  0  0
   44.4690   36.0220   44.8700 C   0  0  0  0  0  0  0  0  0  0  0  0
   44.9340   36.1870   43.6130 N   0  0  0  0  0  0  0  0  0  0  0  0
   46.1390   35.4140   42.0380 H   0  0  0  0  0  0  0  0  0  0  0  0
   43.8050   36.7610   45.2960 H   0  0  0  0  0  0  0  0  0  0  0  0
   46.1020   32.8190   45.8020 C   0  0  0  0  0  0  0  0  0  0  0  0
   45.6450   31.5830   45.4550 C   0  0  0  0  0  0  0  0  0  0  0  0
   46.0520   30.4840   46.1750 C   0  0  0  0  0  0  0  0  0  0  0  0
   46.9190   30.5690   47.2570 C   0  0  0  0  0  0  0  0  0  0  0  0
   47.3500   31.8480   47.5650 C   0  0  0  0  0  0  0  0  0  0  0  0
   46.9350   32.8950   46.8420 N   0  0  0  0  0  0  0  0  0  0  0  0
   44.9690   31.3300   44.6570 H   0  0  0  0  0  0  0  0  0  0  0  0
   45.7250   29.4580   45.9540 H   0  0  0  0  0  0  0  0  0  0  0  0
   47.2410   29.7200   47.8240 H   0  0  0  0  0  0  0  0  0  0  0  0
   48.0360   31.9930   48.4050 H   0  0  0  0  0  0  0  0  0  0  0  0
  1  2  2  0  0  0  0
  1 30  1  0  0  0  0
  3  1  1  0  0  0  0
  4  9  1  0  0  0  0
  4  3  1  0  0  0  0
  4 10  1  0  0  0  0
  5 12  1  0  0  0  0
  5  4  1  0  0  0  0
  6  7  1  0  0  0  0
  6  5  1  0  0  0  0
  7 16  1  0  0  0  0
  7  8  1  0  0  0  0
  8 17  1  6  0  0  0
  8 20  1  0  0  0  0
  8  3  1  0  0  0  0
 11  5  1  0  0  0  0
 13  6  1  0  0  0  0
 14  6  1  0  0  0  0
 15  7  1  0  0  0  0
 19 18  1  0  0  0  0
 19 27  1  0  0  0  0
 20 19  2  0  0  0  0
 21 20  1  0  0  0  0
 21 23  2  0  0  0  0
 22 21  1  0  0  0  0
 23 25  1  0  0  0  0
 24 23  1  0  0  0  0
 25 27  2  0  0  0  0
 25 26  1  0  0  0  0
 27 28  1  0  0  0  0
 29 34  2  0  0  0  0
 29 30  1  0  0  0  0
 30 31  2  0  0  0  0
 31 32  1  0  0  0  0
 31 37  1  0  0  0  0
 33 36  1  0  0  0  0
 33 32  2  0  0  0  0
 34 33  1  0  0  0  0
 35 29  1  0  0  0  0
 37 42  1  0  0  0  0
 38 37  2  0  0  0  0
 38 39  1  0  0  0  0
 39 40  2  0  0  0  0
 40 41  1  0  0  0  0
 40 45  1  0  0  0  0
 41 46  1  0  0  0  0
 42 41  2  0  0  0  0
 43 38  1  0  0  0  0
 44 39  1  0  0  0  0
M  END
>  <minimizedAffinity>
-5.33881855

>  <minimizedRMSD>
1.07712972

$$$$
