
     RDKit          3D

 47 49  0  0  0  0  0  0  0  0999 V2000
   47.5302   34.4415   40.7703 C   0  0  0  0  0  0  0  0  0  0  0  0
   48.7793   33.7687   41.1294 C   0  0  0  0  0  0  0  0  0  0  0  0
   49.1066   32.6263   40.4101 C   0  0  0  0  0  0  0  0  0  0  0  0
   50.2635   31.9214   40.6737 C   0  0  0  0  0  0  0  0  0  0  0  0
   51.0710   32.4171   41.6893 N   0  0  0  0  0  0  0  0  0  0  0  0
   50.7099   33.5391   42.3664 C   0  0  0  0  0  0  0  0  0  0  0  0
   49.5846   34.2036   42.0922 N   0  0  0  0  0  0  0  0  0  0  0  0
   48.0145   32.0517   39.1172 S   0  0  0  0  0  0  0  0  0  0  0  0
   48.8273   32.1630   37.5142 C   0  0  0  0  0  0  0  0  0  0  0  0
   48.4958   33.4930   36.8924 C   0  0  0  0  0  0  0  0  0  0  0  0
   48.1964   33.2927   35.5098 N   0  0  0  0  0  0  0  0  0  0  0  0
   46.7449   34.9434   41.9465 C   0  0  0  0  0  0  0  0  0  0  0  0
   45.2833   34.9384   41.7533 C   0  0  0  0  0  0  0  0  0  0  0  0
   44.4346   35.6063   42.6826 C   0  0  0  0  0  0  0  0  0  0  0  0
   42.7613   35.3206   42.0265 S   0  0  0  0  0  0  0  0  0  0  0  0
   43.4860   34.3162   40.5590 C   0  0  0  0  0  0  0  0  0  0  0  0
   44.6000   34.3740   40.7901 N   0  0  0  0  0  0  0  0  0  0  0  0
   42.6991   33.7427   39.5686 O   0  0  0  0  0  0  0  0  0  0  0  0
   40.7506   33.9705   37.8089 O   0  0  0  0  0  0  0  0  0  0  0  0
   41.7749   34.8044   38.5978 P   0  0  1  0  0  0  0  0  0  0  0  0
   40.9307   35.8275   39.6490 O   0  0  0  0  0  0  0  0  0  0  0  0
   42.7895   35.6889   37.6060 O   0  0  0  0  0  0  0  0  0  0  0  0
   46.8479   33.7906   40.1890 H   0  0  0  0  0  0  0  0  0  0  0  0
   47.7682   35.3184   40.1166 H   0  0  0  0  0  0  0  0  0  0  0  0
   50.5405   31.0400   40.1369 H   0  0  0  0  0  0  0  0  0  0  0  0
   51.4202   33.8393   43.1454 H   0  0  0  0  0  0  0  0  0  0  0  0
   48.5113   31.3015   36.8635 H   0  0  0  0  0  0  0  0  0  0  0  0
   49.9323   32.0329   37.6749 H   0  0  0  0  0  0  0  0  0  0  0  0
   47.6095   33.9476   37.3577 H   0  0  0  0  0  0  0  0  0  0  0  0
   49.3392   34.2163   37.0342 H   0  0  0  0  0  0  0  0  0  0  0  0
   48.4849   32.3593   35.1967 H   0  0  0  0  0  0  0  0  0  0  0  0
   48.7224   33.9759   34.8884 H   0  0  0  0  0  0  0  0  0  0  0  0
   47.0959   35.9175   42.3131 H   0  0  0  0  0  0  0  0  0  0  0  0
   46.9614   34.2265   42.7892 H   0  0  0  0  0  0  0  0  0  0  0  0
   44.7058   36.1574   43.5728 H   0  0  0  0  0  0  0  0  0  0  0  0
   41.4826   36.5514   39.9841 H   0  0  0  0  0  0  0  0  0  0  0  0
   44.9532   37.0892   35.9621 Cl  0  0  0  0  0  0  0  0  0  0  0  0
   43.2424   37.4392   35.8483 C   0  0  0  0  0  0  0  0  0  0  0  0
   42.4854   36.6640   36.7001 C   0  0  0  0  0  0  0  0  0  0  0  0
   41.0987   36.8677   36.6852 C   0  0  0  0  0  0  0  0  0  0  0  0
   40.3339   36.3512   37.2872 H   0  0  0  0  0  0  0  0  0  0  0  0
   40.5113   37.8170   35.8417 C   0  0  0  0  0  0  0  0  0  0  0  0
   39.4489   38.0068   35.7977 H   0  0  0  0  0  0  0  0  0  0  0  0
   41.2958   38.5773   35.0007 C   0  0  0  0  0  0  0  0  0  0  0  0
   40.8947   39.3287   34.3245 H   0  0  0  0  0  0  0  0  0  0  0  0
   42.6594   38.3723   35.0197 C   0  0  0  0  0  0  0  0  0  0  0  0
   43.7771   39.2579   34.0133 Cl  0  0  0  0  0  0  0  0  0  0  0  0
  1  2  1  0
  1 12  1  0
  2  7  2  0
  3  4  2  0
  3  2  1  0
  4  5  1  0
  5  6  2  0
  7  6  1  0
  8  3  1  0
  9  8  1  0
 10  9  1  0
 11 10  1  0
 13 12  1  0
 13 14  2  0
 15 14  1  0
 16 17  2  0
 16 15  1  0
 17 13  1  0
 18 16  1  0
 19 20  2  0
 20 18  1  1
 20 21  1  0
 22 20  1  0
  1 23  1  0
  1 24  1  0
  4 25  1  0
  6 26  1  0
  9 27  1  0
  9 28  1  0
 10 29  1  0
 10 30  1  0
 11 31  1  0
 11 32  1  0
 12 33  1  0
 12 34  1  0
 14 35  1  0
 21 36  1  0
 37 38  1  0
 38 39  2  0
 39 40  1  0
 40 41  1  0
 40 42  2  0
 42 43  1  0
 42 44  1  0
 44 45  1  0
 44 46  2  0
 46 47  1  0
 46 38  1  0
 22 39  1  0
M  ISO  8  23   8  24   8  25  14  26  14  27   8  28   8  29   8  30   8
M  ISO  8  31   5  32   5  33   8  34   8  35  14  36   3  41  15  43  15
M  ISO  1  45  15
M  END
>  <DihAtoms>  (1) 
19,21,38,37

>  <DihDeg>  (1) 
0.001404723280128116

$$$$
