
 OpenBabel03252507343D

 51 54  0  0  1  0  0  0  0  0999 V2000
   38.5740   32.2420   40.5110 C   0  0  0  0  0  0  0  0  0  0  0  0
   37.4660   32.4040   39.6940 C   0  0  0  0  0  0  0  0  0  0  0  0
   36.5620   31.3300   39.5180 C   0  0  0  0  0  0  0  0  0  0  0  0
   36.8640   30.1510   40.1970 N   0  0  0  0  0  0  0  0  0  0  0  0
   37.9530   30.0600   40.9690 C   0  0  0  0  0  0  0  0  0  0  0  0
   38.7920   31.0840   41.1240 N   0  0  0  0  0  0  0  0  0  0  0  0
   37.0720   33.1760   39.0700 H   0  0  0  0  0  0  0  0  0  0  0  0
   35.6760   31.2700   38.9450 H   0  0  0  0  0  0  0  0  0  0  0  0
   39.4560   33.3800   40.6790 C   0  0  2  0  0  0  0  0  0  0  0  0
   38.8110   34.6870   40.1270 C   0  0  0  0  0  0  0  0  0  0  0  0
   39.6800   35.8490   40.4570 C   0  0  0  0  0  0  0  0  0  0  0  0
   41.1440   35.6580   40.2400 C   0  0  0  0  0  0  0  0  0  0  0  0
   41.6290   34.3390   40.5640 C   0  0  0  0  0  0  0  0  0  0  0  0
   40.7370   33.1980   40.0270 C   0  0  2  0  0  0  0  0  0  0  0  0
   39.5390   33.6040   41.7680 H   0  0  0  0  0  0  0  0  0  0  0  0
   38.5580   34.5810   39.0630 H   0  0  0  0  0  0  0  0  0  0  0  0
   37.8480   34.7540   40.6750 H   0  0  0  0  0  0  0  0  0  0  0  0
   39.3720   36.6810   39.7580 H   0  0  0  0  0  0  0  0  0  0  0  0
   39.3670   36.2060   41.4560 H   0  0  0  0  0  0  0  0  0  0  0  0
   41.6530   36.3230   39.5400 H   0  0  0  0  0  0  0  0  0  0  0  0
   41.5400   36.2330   41.1700 H   0  0  0  0  0  0  0  0  0  0  0  0
   41.7900   34.0710   41.6360 H   0  0  0  0  0  0  0  0  0  0  0  0
   42.6370   34.1680   40.0950 H   0  0  0  0  0  0  0  0  0  0  0  0
   41.3190   32.3220   40.3190 H   0  0  0  0  0  0  0  0  0  0  0  0
   40.5920   33.3610   38.5790 N   0  0  0  0  0  0  0  0  0  0  0  0
   41.4070   32.9570   37.5080 C   0  0  0  0  0  0  0  0  0  0  0  0
   41.4510   31.7470   37.0800 O   0  0  0  0  0  0  0  0  0  0  0  0
   42.1840   34.0020   36.9210 N   0  0  0  0  0  0  0  0  0  0  0  0
   39.7750   33.9360   38.1460 H   0  0  0  0  0  0  0  0  0  0  0  0
   42.0320   34.8370   36.3150 H   0  0  0  0  0  0  0  0  0  0  0  0
   43.0810   34.5200   36.7180 H   0  0  0  0  0  0  0  0  0  0  0  0
   38.2210   28.7830   41.6400 C   0  0  0  0  0  0  0  0  0  0  0  0
   38.7340   28.7500   42.9170 C   0  0  0  0  0  0  0  0  0  0  0  0
   39.0110   27.5870   43.6100 C   0  0  0  0  0  0  0  0  0  0  0  0
   38.7320   26.4220   42.9220 C   0  0  0  0  0  0  0  0  0  0  0  0
   38.2210   26.4420   41.6480 C   0  0  0  0  0  0  0  0  0  0  0  0
   37.9660   27.6260   41.0110 N   0  0  0  0  0  0  0  0  0  0  0  0
   38.9220   29.7070   43.3810 H   0  0  0  0  0  0  0  0  0  0  0  0
   39.4190   27.6230   44.6240 H   0  0  0  0  0  0  0  0  0  0  0  0
   38.9410   25.5000   43.4450 H   0  0  0  0  0  0  0  0  0  0  0  0
   40.4520   25.3430   39.9990 Cl  0  0  0  0  0  0  0  0  0  0  0  0
   38.8600   24.6060   40.1160 C   0  0  0  0  0  0  0  0  0  0  0  0
   37.9240   25.2190   40.9140 C   0  0  0  0  0  0  0  0  0  0  0  0
   36.7030   24.5790   40.9520 C   0  0  0  0  0  0  0  0  0  0  0  0
   35.9090   24.9700   41.5370 H   0  0  0  0  0  0  0  0  0  0  0  0
   36.4130   23.4310   40.2670 C   0  0  0  0  0  0  0  0  0  0  0  0
   35.4350   22.9440   40.3150 H   0  0  0  0  0  0  0  0  0  0  0  0
   37.3830   22.8430   39.4750 C   0  0  0  0  0  0  0  0  0  0  0  0
   37.2220   21.9400   38.9100 H   0  0  0  0  0  0  0  0  0  0  0  0
   38.6200   23.4480   39.4050 C   0  0  0  0  0  0  0  0  0  0  0  0
   39.9050   22.7510   38.4120 Cl  0  0  0  0  0  0  0  0  0  0  0  0
  1  9  1  0  0  0  0
  1  6  1  0  0  0  0
  2  1  2  0  0  0  0
  3  2  1  0  0  0  0
  3  4  2  0  0  0  0
  4  5  1  0  0  0  0
  5  6  2  0  0  0  0
  5 32  1  0  0  0  0
  7  2  1  0  0  0  0
  8  3  1  0  0  0  0
  9 15  1  1  0  0  0
 10 11  1  0  0  0  0
 10 17  1  0  0  0  0
 10  9  1  0  0  0  0
 11 19  1  0  0  0  0
 12 11  1  0  0  0  0
 12 13  1  0  0  0  0
 12 21  1  0  0  0  0
 13 22  1  0  0  0  0
 14 24  1  1  0  0  0
 14 13  1  0  0  0  0
 14  9  1  0  0  0  0
 16 10  1  0  0  0  0
 18 11  1  0  0  0  0
 20 12  1  0  0  0  0
 23 13  1  0  0  0  0
 25 14  1  0  0  0  0
 26 25  1  0  0  0  0
 27 26  2  0  0  0  0
 28 26  1  0  0  0  0
 29 25  1  0  0  0  0
 30 28  1  0  0  0  0
 31 28  1  0  0  0  0
 32 33  1  0  0  0  0
 33 38  1  0  0  0  0
 33 34  2  0  0  0  0
 34 39  1  0  0  0  0
 35 40  1  0  0  0  0
 35 34  1  0  0  0  0
 36 35  2  0  0  0  0
 37 32  2  0  0  0  0
 37 36  1  0  0  0  0
 41 42  1  0  0  0  0
 42 43  1  0  0  0  0
 43 44  2  0  0  0  0
 43 36  1  0  0  0  0
 44 45  1  0  0  0  0
 46 47  1  0  0  0  0
 46 44  1  0  0  0  0
 48 46  2  0  0  0  0
 49 48  1  0  0  0  0
 50 48  1  0  0  0  0
 50 42  2  0  0  0  0
 51 50  1  0  0  0  0
M  END
>  <minimizedAffinity>
-7.74642658

$$$$

 OpenBabel03252507343D

 51 54  0  0  1  0  0  0  0  0999 V2000
   38.4050   30.2380   41.9290 C   0  0  0  0  0  0  0  0  0  0  0  0
   37.0940   30.1040   41.4990 C   0  0  0  0  0  0  0  0  0  0  0  0
   36.5110   31.1170   40.7020 C   0  0  0  0  0  0  0  0  0  0  0  0
   37.3230   32.2100   40.4020 N   0  0  0  0  0  0  0  0  0  0  0  0
   38.5810   32.2790   40.8510 C   0  0  0  0  0  0  0  0  0  0  0  0
   39.1130   31.3130   41.5990 N   0  0  0  0  0  0  0  0  0  0  0  0
   36.3040   29.3980   41.6340 H   0  0  0  0  0  0  0  0  0  0  0  0
   35.5420   31.1860   40.2870 H   0  0  0  0  0  0  0  0  0  0  0  0
   38.9640   29.1600   42.7210 C   0  0  2  0  0  0  0  0  0  0  0  0
   40.4530   28.8920   42.3480 C   0  0  0  0  0  0  0  0  0  0  0  0
   41.0280   27.8890   43.2860 C   0  0  0  0  0  0  0  0  0  0  0  0
   40.1710   26.7070   43.5910 C   0  0  0  0  0  0  0  0  0  0  0  0
   38.7630   27.0010   43.6980 C   0  0  0  0  0  0  0  0  0  0  0  0
   38.2310   27.9190   42.5750 C   0  0  2  0  0  0  0  0  0  0  0  0
   39.0480   29.5050   43.7780 H   0  0  0  0  0  0  0  0  0  0  0  0
   40.5530   28.6450   41.2830 H   0  0  0  0  0  0  0  0  0  0  0  0
   40.9390   29.8790   42.4910 H   0  0  0  0  0  0  0  0  0  0  0  0
   41.9500   27.4770   42.7800 H   0  0  0  0  0  0  0  0  0  0  0  0
   41.4250   28.4540   44.1510 H   0  0  0  0  0  0  0  0  0  0  0  0
   40.5530   25.7150   43.3450 H   0  0  0  0  0  0  0  0  0  0  0  0
   40.4200   26.5900   44.7210 H   0  0  0  0  0  0  0  0  0  0  0  0
   38.3800   27.4750   44.6340 H   0  0  0  0  0  0  0  0  0  0  0  0
   38.1590   26.0560   43.6140 H   0  0  0  0  0  0  0  0  0  0  0  0
   37.1660   27.9440   42.8120 H   0  0  0  0  0  0  0  0  0  0  0  0
   38.5390   27.3020   41.2840 N   0  0  0  0  0  0  0  0  0  0  0  0
   37.8730   26.3140   40.5380 C   0  0  0  0  0  0  0  0  0  0  0  0
   36.8160   26.5520   39.8500 O   0  0  0  0  0  0  0  0  0  0  0  0
   38.4700   25.0170   40.5960 N   0  0  0  0  0  0  0  0  0  0  0  0
   39.4570   27.5300   40.7440 H   0  0  0  0  0  0  0  0  0  0  0  0
   39.3170   24.5350   40.2280 H   0  0  0  0  0  0  0  0  0  0  0  0
   38.5200   24.0080   40.8990 H   0  0  0  0  0  0  0  0  0  0  0  0
   39.3730   33.4660   40.5150 C   0  0  0  0  0  0  0  0  0  0  0  0
   38.7680   34.6890   40.3230 C   0  0  0  0  0  0  0  0  0  0  0  0
   39.4480   35.8490   40.0060 C   0  0  0  0  0  0  0  0  0  0  0  0
   40.8170   35.7030   39.8880 C   0  0  0  0  0  0  0  0  0  0  0  0
   41.4320   34.4900   40.0760 C   0  0  0  0  0  0  0  0  0  0  0  0
   40.7050   33.3740   40.3890 N   0  0  0  0  0  0  0  0  0  0  0  0
   37.6940   34.7110   40.4360 H   0  0  0  0  0  0  0  0  0  0  0  0
   38.9130   36.7910   39.8660 H   0  0  0  0  0  0  0  0  0  0  0  0
   41.3700   36.5980   39.6400 H   0  0  0  0  0  0  0  0  0  0  0  0
   42.4320   33.7790   37.3550 Cl  0  0  0  0  0  0  0  0  0  0  0  0
   43.4700   33.9990   38.7590 C   0  0  0  0  0  0  0  0  0  0  0  0
   42.8750   34.3270   39.9530 C   0  0  0  0  0  0  0  0  0  0  0  0
   43.7560   34.4820   41.0030 C   0  0  0  0  0  0  0  0  0  0  0  0
   43.4010   34.7340   41.9700 H   0  0  0  0  0  0  0  0  0  0  0  0
   45.1120   34.3300   40.9000 C   0  0  0  0  0  0  0  0  0  0  0  0
   45.7870   34.4600   41.7490 H   0  0  0  0  0  0  0  0  0  0  0  0
   45.6720   34.0020   39.6790 C   0  0  0  0  0  0  0  0  0  0  0  0
   46.7310   33.8680   39.5270 H   0  0  0  0  0  0  0  0  0  0  0  0
   44.8300   33.8360   38.6000 C   0  0  0  0  0  0  0  0  0  0  0  0
   45.4790   33.4160   37.0110 Cl  0  0  0  0  0  0  0  0  0  0  0  0
  1  9  1  0  0  0  0
  2  7  1  0  0  0  0
  2  1  2  0  0  0  0
  3  2  1  0  0  0  0
  4  3  2  0  0  0  0
  4  5  1  0  0  0  0
  5  6  2  0  0  0  0
  6  1  1  0  0  0  0
  8  3  1  0  0  0  0
  9 15  1  1  0  0  0
 10 17  1  0  0  0  0
 10  9  1  0  0  0  0
 10 11  1  0  0  0  0
 11 12  1  0  0  0  0
 11 19  1  0  0  0  0
 12 13  1  0  0  0  0
 12 21  1  0  0  0  0
 13 22  1  0  0  0  0
 14  9  1  0  0  0  0
 14 24  1  1  0  0  0
 14 13  1  0  0  0  0
 16 10  1  0  0  0  0
 18 11  1  0  0  0  0
 20 12  1  0  0  0  0
 23 13  1  0  0  0  0
 25 14  1  0  0  0  0
 26 28  1  0  0  0  0
 26 25  1  0  0  0  0
 27 26  2  0  0  0  0
 28 31  1  0  0  0  0
 29 25  1  0  0  0  0
 30 28  1  0  0  0  0
 32  5  1  0  0  0  0
 33 38  1  0  0  0  0
 33 32  2  0  0  0  0
 34 33  1  0  0  0  0
 35 34  2  0  0  0  0
 35 36  1  0  0  0  0
 36 37  2  0  0  0  0
 37 32  1  0  0  0  0
 39 34  1  0  0  0  0
 40 35  1  0  0  0  0
 41 42  1  0  0  0  0
 42 43  1  0  0  0  0
 43 36  1  0  0  0  0
 43 44  2  0  0  0  0
 44 45  1  0  0  0  0
 46 44  1  0  0  0  0
 46 47  1  0  0  0  0
 48 46  2  0  0  0  0
 49 48  1  0  0  0  0
 50 42  2  0  0  0  0
 50 48  1  0  0  0  0
 51 50  1  0  0  0  0
M  END
>  <minimizedAffinity>
-7.58480358

$$$$

 OpenBabel03252507343D

 51 54  0  0  1  0  0  0  0  0999 V2000
   38.5980   32.2690   40.5790 C   0  0  0  0  0  0  0  0  0  0  0  0
   37.4980   32.4590   39.7580 C   0  0  0  0  0  0  0  0  0  0  0  0
   36.5660   31.4080   39.5820 C   0  0  0  0  0  0  0  0  0  0  0  0
   36.8340   30.2240   40.2660 N   0  0  0  0  0  0  0  0  0  0  0  0
   37.9170   30.1050   41.0420 C   0  0  0  0  0  0  0  0  0  0  0  0
   38.7820   31.1070   41.1970 N   0  0  0  0  0  0  0  0  0  0  0  0
   37.1260   33.2390   39.1310 H   0  0  0  0  0  0  0  0  0  0  0  0
   35.6800   31.3710   39.0060 H   0  0  0  0  0  0  0  0  0  0  0  0
   39.5090   33.3840   40.7470 C   0  0  2  0  0  0  0  0  0  0  0  0
   38.8890   34.7110   40.2170 C   0  0  0  0  0  0  0  0  0  0  0  0
   39.7910   35.8480   40.5480 C   0  0  0  0  0  0  0  0  0  0  0  0
   41.2470   35.6240   40.3090 C   0  0  0  0  0  0  0  0  0  0  0  0
   41.7040   34.2900   40.6140 C   0  0  0  0  0  0  0  0  0  0  0  0
   40.7770   33.1770   40.0770 C   0  0  2  0  0  0  0  0  0  0  0  0
   39.6120   33.5940   41.8370 H   0  0  0  0  0  0  0  0  0  0  0  0
   38.6200   34.6230   39.1560 H   0  0  0  0  0  0  0  0  0  0  0  0
   37.9360   34.7960   40.7790 H   0  0  0  0  0  0  0  0  0  0  0  0
   39.4940   36.6950   39.8620 H   0  0  0  0  0  0  0  0  0  0  0  0
   39.4990   36.2030   41.5550 H   0  0  0  0  0  0  0  0  0  0  0  0
   41.7630   36.2840   39.6100 H   0  0  0  0  0  0  0  0  0  0  0  0
   41.6690   36.1800   41.2400 H   0  0  0  0  0  0  0  0  0  0  0  0
   41.8720   34.0070   41.6800 H   0  0  0  0  0  0  0  0  0  0  0  0
   42.7010   34.1000   40.1290 H   0  0  0  0  0  0  0  0  0  0  0  0
   41.3410   32.2840   40.3520 H   0  0  0  0  0  0  0  0  0  0  0  0
   40.6180   33.3590   38.6330 N   0  0  0  0  0  0  0  0  0  0  0  0
   41.4230   32.9700   37.5480 C   0  0  0  0  0  0  0  0  0  0  0  0
   41.4630   31.7660   37.1040 O   0  0  0  0  0  0  0  0  0  0  0  0
   42.1920   34.0240   36.9670 N   0  0  0  0  0  0  0  0  0  0  0  0
   39.7950   33.9370   38.2160 H   0  0  0  0  0  0  0  0  0  0  0  0
   42.0320   34.8670   36.3740 H   0  0  0  0  0  0  0  0  0  0  0  0
   43.0860   34.5460   36.7620 H   0  0  0  0  0  0  0  0  0  0  0  0
   38.1490   28.8240   41.7170 C   0  0  0  0  0  0  0  0  0  0  0  0
   37.1020   27.9770   42.0040 C   0  0  0  0  0  0  0  0  0  0  0  0
   37.2440   26.7560   42.6360 C   0  0  0  0  0  0  0  0  0  0  0  0
   38.5440   26.4260   42.9720 C   0  0  0  0  0  0  0  0  0  0  0  0
   39.5960   27.2620   42.6910 C   0  0  0  0  0  0  0  0  0  0  0  0
   39.3930   28.4610   42.0620 N   0  0  0  0  0  0  0  0  0  0  0  0
   36.1200   28.3140   41.7060 H   0  0  0  0  0  0  0  0  0  0  0  0
   36.3750   26.1250   42.8380 H   0  0  0  0  0  0  0  0  0  0  0  0
   38.6790   25.4750   43.4670 H   0  0  0  0  0  0  0  0  0  0  0  0
   41.2710   26.1700   40.4750 Cl  0  0  0  0  0  0  0  0  0  0  0  0
   41.8490   26.4100   42.1190 C   0  0  0  0  0  0  0  0  0  0  0  0
   40.9680   26.9230   43.0420 C   0  0  0  0  0  0  0  0  0  0  0  0
   41.4980   27.0820   44.3050 C   0  0  0  0  0  0  0  0  0  0  0  0
   40.9030   27.4700   45.0930 H   0  0  0  0  0  0  0  0  0  0  0  0
   42.7860   26.7670   44.6450 C   0  0  0  0  0  0  0  0  0  0  0  0
   43.1800   26.9030   45.6560 H   0  0  0  0  0  0  0  0  0  0  0  0
   43.6410   26.2540   43.6880 C   0  0  0  0  0  0  0  0  0  0  0  0
   44.6650   25.9850   43.8870 H   0  0  0  0  0  0  0  0  0  0  0  0
   43.1550   26.0770   42.4090 C   0  0  0  0  0  0  0  0  0  0  0  0
   44.1940   25.4260   41.1360 Cl  0  0  0  0  0  0  0  0  0  0  0  0
  1  9  1  0  0  0  0
  1  6  1  0  0  0  0
  2  1  2  0  0  0  0
  3  2  1  0  0  0  0
  3  4  2  0  0  0  0
  4  5  1  0  0  0  0
  5  6  2  0  0  0  0
  5 32  1  0  0  0  0
  7  2  1  0  0  0  0
  8  3  1  0  0  0  0
  9 15  1  1  0  0  0
 10 11  1  0  0  0  0
 10  9  1  0  0  0  0
 10 17  1  0  0  0  0
 11 19  1  0  0  0  0
 12 11  1  0  0  0  0
 12 13  1  0  0  0  0
 12 21  1  0  0  0  0
 13 22  1  0  0  0  0
 14 24  1  1  0  0  0
 14 13  1  0  0  0  0
 14  9  1  0  0  0  0
 16 10  1  0  0  0  0
 18 11  1  0  0  0  0
 20 12  1  0  0  0  0
 23 13  1  0  0  0  0
 25 14  1  0  0  0  0
 26 25  1  0  0  0  0
 27 26  2  0  0  0  0
 28 26  1  0  0  0  0
 29 25  1  0  0  0  0
 30 28  1  0  0  0  0
 31 28  1  0  0  0  0
 32 33  2  0  0  0  0
 32 37  1  0  0  0  0
 33 34  1  0  0  0  0
 34 39  1  0  0  0  0
 34 35  2  0  0  0  0
 35 40  1  0  0  0  0
 36 35  1  0  0  0  0
 36 43  1  0  0  0  0
 37 36  2  0  0  0  0
 38 33  1  0  0  0  0
 41 42  1  0  0  0  0
 42 50  2  0  0  0  0
 42 43  1  0  0  0  0
 43 44  2  0  0  0  0
 44 46  1  0  0  0  0
 44 45  1  0  0  0  0
 46 47  1  0  0  0  0
 48 49  1  0  0  0  0
 48 46  2  0  0  0  0
 50 48  1  0  0  0  0
 51 50  1  0  0  0  0
M  END
>  <minimizedAffinity>
-7.51312637

$$$$

 OpenBabel03252507343D

 51 54  0  0  1  0  0  0  0  0999 V2000
   38.2030   31.7000   40.8860 C   0  0  0  0  0  0  0  0  0  0  0  0
   36.8840   31.7480   40.4610 C   0  0  0  0  0  0  0  0  0  0  0  0
   36.0800   30.5860   40.5410 C   0  0  0  0  0  0  0  0  0  0  0  0
   36.6930   29.4450   41.0550 N   0  0  0  0  0  0  0  0  0  0  0  0
   37.9720   29.4660   41.4460 C   0  0  0  0  0  0  0  0  0  0  0  0
   38.7130   30.5700   41.3640 N   0  0  0  0  0  0  0  0  0  0  0  0
   36.2410   32.4750   40.0160 H   0  0  0  0  0  0  0  0  0  0  0  0
   35.0690   30.4360   40.2710 H   0  0  0  0  0  0  0  0  0  0  0  0
   38.9770   32.9230   40.8070 C   0  0  2  0  0  0  0  0  0  0  0  0
   38.1530   34.0790   40.1650 C   0  0  0  0  0  0  0  0  0  0  0  0
   38.9290   35.3460   40.2440 C   0  0  0  0  0  0  0  0  0  0  0  0
   40.3760   35.2550   39.8930 C   0  0  0  0  0  0  0  0  0  0  0  0
   41.0210   34.0410   40.3300 C   0  0  0  0  0  0  0  0  0  0  0  0
   40.2010   32.7630   40.0470 C   0  0  2  0  0  0  0  0  0  0  0  0
   39.1440   33.3020   41.8420 H   0  0  0  0  0  0  0  0  0  0  0  0
   37.8100   33.8050   39.1590 H   0  0  0  0  0  0  0  0  0  0  0  0
   37.2470   34.1380   40.8030 H   0  0  0  0  0  0  0  0  0  0  0  0
   38.4720   36.0430   39.4820 H   0  0  0  0  0  0  0  0  0  0  0  0
   38.6800   35.8110   41.2170 H   0  0  0  0  0  0  0  0  0  0  0  0
   40.7460   35.8570   39.0620 H   0  0  0  0  0  0  0  0  0  0  0  0
   40.8020   35.9860   40.6920 H   0  0  0  0  0  0  0  0  0  0  0  0
   41.3120   33.9390   41.4030 H   0  0  0  0  0  0  0  0  0  0  0  0
   41.9910   33.8940   39.7790 H   0  0  0  0  0  0  0  0  0  0  0  0
   40.8940   31.9900   40.3840 H   0  0  0  0  0  0  0  0  0  0  0  0
   39.9000   32.7100   38.6150 N   0  0  0  0  0  0  0  0  0  0  0  0
   39.9530   31.6550   37.6880 C   0  0  0  0  0  0  0  0  0  0  0  0
   39.0560   30.7390   37.6200 O   0  0  0  0  0  0  0  0  0  0  0  0
   41.0830   31.6810   36.8150 N   0  0  0  0  0  0  0  0  0  0  0  0
   39.6380   33.6040   38.0510 H   0  0  0  0  0  0  0  0  0  0  0  0
   41.4230   32.2370   36.0010 H   0  0  0  0  0  0  0  0  0  0  0  0
   42.0170   31.3420   36.4590 H   0  0  0  0  0  0  0  0  0  0  0  0
   38.5600   28.2240   41.9580 C   0  0  0  0  0  0  0  0  0  0  0  0
   39.2530   28.2080   43.1470 C   0  0  0  0  0  0  0  0  0  0  0  0
   39.8330   27.0770   43.6920 C   0  0  0  0  0  0  0  0  0  0  0  0
   39.6680   25.9260   42.9450 C   0  0  0  0  0  0  0  0  0  0  0  0
   38.9790   25.9290   41.7570 C   0  0  0  0  0  0  0  0  0  0  0  0
   38.4270   27.0810   41.2680 N   0  0  0  0  0  0  0  0  0  0  0  0
   39.3330   29.1520   43.6660 H   0  0  0  0  0  0  0  0  0  0  0  0
   40.3720   27.1260   44.6410 H   0  0  0  0  0  0  0  0  0  0  0  0
   40.1130   25.0290   43.3510 H   0  0  0  0  0  0  0  0  0  0  0  0
   40.9130   25.5520   39.5150 Cl  0  0  0  0  0  0  0  0  0  0  0  0
   39.6210   24.4220   39.9010 C   0  0  0  0  0  0  0  0  0  0  0  0
   38.8010   24.7210   40.9630 C   0  0  0  0  0  0  0  0  0  0  0  0
   37.8150   23.7860   41.2000 C   0  0  0  0  0  0  0  0  0  0  0  0
   37.1270   23.9200   41.9960 H   0  0  0  0  0  0  0  0  0  0  0  0
   37.6380   22.6480   40.4610 C   0  0  0  0  0  0  0  0  0  0  0  0
   36.8470   21.9240   40.6710 H   0  0  0  0  0  0  0  0  0  0  0  0
   38.4850   22.3830   39.4000 C   0  0  0  0  0  0  0  0  0  0  0  0
   38.4030   21.5070   38.7780 H   0  0  0  0  0  0  0  0  0  0  0  0
   39.4870   23.2900   39.1250 C   0  0  0  0  0  0  0  0  0  0  0  0
   40.6040   23.0140   37.7840 Cl  0  0  0  0  0  0  0  0  0  0  0  0
  1  6  1  0  0  0  0
  2  3  1  0  0  0  0
  2  1  2  0  0  0  0
  3  4  2  0  0  0  0
  4  5  1  0  0  0  0
  5 32  1  0  0  0  0
  6  5  2  0  0  0  0
  7  2  1  0  0  0  0
  8  3  1  0  0  0  0
  9  1  1  0  0  0  0
  9 15  1  1  0  0  0
 10 11  1  0  0  0  0
 10 17  1  0  0  0  0
 10  9  1  0  0  0  0
 11 19  1  0  0  0  0
 12 11  1  0  0  0  0
 12 13  1  0  0  0  0
 12 21  1  0  0  0  0
 13 22  1  0  0  0  0
 14 13  1  0  0  0  0
 14 24  1  1  0  0  0
 14  9  1  0  0  0  0
 16 10  1  0  0  0  0
 18 11  1  0  0  0  0
 20 12  1  0  0  0  0
 23 13  1  0  0  0  0
 25 14  1  0  0  0  0
 26 25  1  0  0  0  0
 27 26  2  0  0  0  0
 28 26  1  0  0  0  0
 29 25  1  0  0  0  0
 30 28  1  0  0  0  0
 31 28  1  0  0  0  0
 32 33  1  0  0  0  0
 33 38  1  0  0  0  0
 33 34  2  0  0  0  0
 34 39  1  0  0  0  0
 35 40  1  0  0  0  0
 35 34  1  0  0  0  0
 36 35  2  0  0  0  0
 37 36  1  0  0  0  0
 37 32  2  0  0  0  0
 41 42  1  0  0  0  0
 42 43  1  0  0  0  0
 43 44  2  0  0  0  0
 43 36  1  0  0  0  0
 44 45  1  0  0  0  0
 46 47  1  0  0  0  0
 46 44  1  0  0  0  0
 48 46  2  0  0  0  0
 49 48  1  0  0  0  0
 50 48  1  0  0  0  0
 50 42  2  0  0  0  0
 51 50  1  0  0  0  0
M  END
>  <minimizedAffinity>
-7.29621696

$$$$

 OpenBabel03252507343D

 51 54  0  0  1  0  0  0  0  0999 V2000
   41.0980   34.1440   40.7860 C   0  0  0  0  0  0  0  0  0  0  0  0
   40.5430   35.4090   40.6810 C   0  0  0  0  0  0  0  0  0  0  0  0
   39.2150   35.5540   40.2130 C   0  0  0  0  0  0  0  0  0  0  0  0
   38.5450   34.3780   39.8810 N   0  0  0  0  0  0  0  0  0  0  0  0
   39.1410   33.1870   40.0040 C   0  0  0  0  0  0  0  0  0  0  0  0
   40.3920   33.0700   40.4480 N   0  0  0  0  0  0  0  0  0  0  0  0
   40.8710   36.4130   40.8380 H   0  0  0  0  0  0  0  0  0  0  0  0
   38.6330   36.4250   40.0700 H   0  0  0  0  0  0  0  0  0  0  0  0
   42.4520   34.0460   41.2950 C   0  0  2  0  0  0  0  0  0  0  0  0
   43.0380   35.4510   41.6290 C   0  0  0  0  0  0  0  0  0  0  0  0
   44.3630   35.2940   42.2880 C   0  0  0  0  0  0  0  0  0  0  0  0
   45.2850   34.2900   41.6800 C   0  0  0  0  0  0  0  0  0  0  0  0
   44.6320   33.1020   41.1860 C   0  0  0  0  0  0  0  0  0  0  0  0
   43.3530   33.3900   40.3690 C   0  0  2  0  0  0  0  0  0  0  0  0
   42.4180   33.5640   42.2990 H   0  0  0  0  0  0  0  0  0  0  0  0
   43.0320   36.1000   40.7430 H   0  0  0  0  0  0  0  0  0  0  0  0
   42.3000   35.8790   42.3390 H   0  0  0  0  0  0  0  0  0  0  0  0
   44.8850   36.2900   42.1860 H   0  0  0  0  0  0  0  0  0  0  0  0
   44.1690   35.2000   43.3730 H   0  0  0  0  0  0  0  0  0  0  0  0
   46.2520   34.6340   41.3110 H   0  0  0  0  0  0  0  0  0  0  0  0
   45.7440   33.8540   42.6560 H   0  0  0  0  0  0  0  0  0  0  0  0
   44.3150   32.3180   41.9130 H   0  0  0  0  0  0  0  0  0  0  0  0
   45.3110   32.5490   40.4800 H   0  0  0  0  0  0  0  0  0  0  0  0
   43.0800   32.3830   40.0460 H   0  0  0  0  0  0  0  0  0  0  0  0
   43.6940   34.2950   39.2710 N   0  0  0  0  0  0  0  0  0  0  0  0
   43.4070   34.2450   37.8960 C   0  0  0  0  0  0  0  0  0  0  0  0
   42.2580   34.5470   37.4100 O   0  0  0  0  0  0  0  0  0  0  0  0
   44.5000   33.8370   37.0720 N   0  0  0  0  0  0  0  0  0  0  0  0
   44.3330   35.1640   39.4220 H   0  0  0  0  0  0  0  0  0  0  0  0
   45.4060   34.2270   36.7330 H   0  0  0  0  0  0  0  0  0  0  0  0
   45.0210   33.1610   36.4510 H   0  0  0  0  0  0  0  0  0  0  0  0
   38.3850   31.9910   39.6170 C   0  0  0  0  0  0  0  0  0  0  0  0
   37.7100   31.9380   38.4180 C   0  0  0  0  0  0  0  0  0  0  0  0
   36.9800   30.8480   37.9880 C   0  0  0  0  0  0  0  0  0  0  0  0
   36.9670   29.7770   38.8620 C   0  0  0  0  0  0  0  0  0  0  0  0
   37.6360   29.8180   40.0600 C   0  0  0  0  0  0  0  0  0  0  0  0
   38.3440   30.9270   40.4340 N   0  0  0  0  0  0  0  0  0  0  0  0
   37.7740   32.8190   37.7960 H   0  0  0  0  0  0  0  0  0  0  0  0
   36.4640   30.8640   37.0240 H   0  0  0  0  0  0  0  0  0  0  0  0
   36.4020   28.9130   38.5460 H   0  0  0  0  0  0  0  0  0  0  0  0
   39.8800   27.8730   39.7640 Cl  0  0  0  0  0  0  0  0  0  0  0  0
   38.6020   27.7250   40.9630 C   0  0  0  0  0  0  0  0  0  0  0  0
   37.6290   28.6950   40.9880 C   0  0  0  0  0  0  0  0  0  0  0  0
   36.6640   28.5070   41.9560 C   0  0  0  0  0  0  0  0  0  0  0  0
   35.8660   29.1970   42.0610 H   0  0  0  0  0  0  0  0  0  0  0  0
   36.6470   27.4560   42.8320 C   0  0  0  0  0  0  0  0  0  0  0  0
   35.8690   27.3320   43.5900 H   0  0  0  0  0  0  0  0  0  0  0  0
   37.6450   26.5010   42.7760 C   0  0  0  0  0  0  0  0  0  0  0  0
   37.6920   25.6500   43.4350 H   0  0  0  0  0  0  0  0  0  0  0  0
   38.6320   26.6470   41.8230 C   0  0  0  0  0  0  0  0  0  0  0  0
   39.9370   25.4630   41.6940 Cl  0  0  0  0  0  0  0  0  0  0  0  0
  1  9  1  0  0  0  0
  2  1  1  0  0  0  0
  2  7  1  0  0  0  0
  3  2  2  0  0  0  0
  4  5  2  0  0  0  0
  4  3  1  0  0  0  0
  5  6  1  0  0  0  0
  6  1  2  0  0  0  0
  8  3  1  0  0  0  0
  9 10  1  0  0  0  0
  9 15  1  1  0  0  0
 10 11  1  0  0  0  0
 10 17  1  0  0  0  0
 11 19  1  0  0  0  0
 12 11  1  0  0  0  0
 12 21  1  0  0  0  0
 13 12  1  0  0  0  0
 13 22  1  0  0  0  0
 14 24  1  6  0  0  0
 14 13  1  0  0  0  0
 14  9  1  0  0  0  0
 16 10  1  0  0  0  0
 18 11  1  0  0  0  0
 20 12  1  0  0  0  0
 23 13  1  0  0  0  0
 25 29  1  0  0  0  0
 25 14  1  0  0  0  0
 26 25  1  0  0  0  0
 27 26  2  0  0  0  0
 28 26  1  0  0  0  0
 30 28  1  0  0  0  0
 31 28  1  0  0  0  0
 32  5  1  0  0  0  0
 32 37  1  0  0  0  0
 33 32  2  0  0  0  0
 34 33  1  0  0  0  0
 34 35  2  0  0  0  0
 35 36  1  0  0  0  0
 36 37  2  0  0  0  0
 36 43  1  0  0  0  0
 38 33  1  0  0  0  0
 39 34  1  0  0  0  0
 40 35  1  0  0  0  0
 41 42  1  0  0  0  0
 42 43  2  0  0  0  0
 42 50  1  0  0  0  0
 43 44  1  0  0  0  0
 44 45  1  0  0  0  0
 44 46  2  0  0  0  0
 46 47  1  0  0  0  0
 48 46  1  0  0  0  0
 48 49  1  0  0  0  0
 50 48  2  0  0  0  0
 51 50  1  0  0  0  0
M  END
>  <minimizedAffinity>
-7.24654675

$$$$

 OpenBabel03252507343D

 51 54  0  0  1  0  0  0  0  0999 V2000
   37.8700   27.1050   41.6800 C   0  0  0  0  0  0  0  0  0  0  0  0
   37.4980   27.0880   43.0150 C   0  0  0  0  0  0  0  0  0  0  0  0
   37.3200   28.3090   43.7070 C   0  0  0  0  0  0  0  0  0  0  0  0
   37.5420   29.4730   42.9740 N   0  0  0  0  0  0  0  0  0  0  0  0
   37.9030   29.4190   41.6870 C   0  0  0  0  0  0  0  0  0  0  0  0
   38.0630   28.2590   41.0510 N   0  0  0  0  0  0  0  0  0  0  0  0
   37.3160   26.3430   43.7580 H   0  0  0  0  0  0  0  0  0  0  0  0
   37.0400   28.4910   44.7110 H   0  0  0  0  0  0  0  0  0  0  0  0
   38.0140   25.8280   41.0090 C   0  0  2  0  0  0  0  0  0  0  0  0
   37.2450   24.6990   41.7590 C   0  0  0  0  0  0  0  0  0  0  0  0
   37.2930   23.4470   40.9570 C   0  0  0  0  0  0  0  0  0  0  0  0
   38.6140   23.0990   40.3580 C   0  0  0  0  0  0  0  0  0  0  0  0
   39.3730   24.2310   39.8860 C   0  0  0  0  0  0  0  0  0  0  0  0
   39.3970   25.4190   40.8730 C   0  0  2  0  0  0  0  0  0  0  0  0
   37.4680   25.8760   40.0380 H   0  0  0  0  0  0  0  0  0  0  0  0
   37.5990   24.6040   42.7940 H   0  0  0  0  0  0  0  0  0  0  0  0
   36.2060   25.0850   41.8150 H   0  0  0  0  0  0  0  0  0  0  0  0
   37.0490   22.6070   41.6710 H   0  0  0  0  0  0  0  0  0  0  0  0
   36.4260   23.4760   40.2700 H   0  0  0  0  0  0  0  0  0  0  0  0
   39.0750   22.1510   40.6390 H   0  0  0  0  0  0  0  0  0  0  0  0
   38.2450   22.6860   39.3350 H   0  0  0  0  0  0  0  0  0  0  0  0
   39.0950   24.6990   38.9120 H   0  0  0  0  0  0  0  0  0  0  0  0
   40.4520   23.9460   39.7440 H   0  0  0  0  0  0  0  0  0  0  0  0
   40.0670   26.1080   40.3550 H   0  0  0  0  0  0  0  0  0  0  0  0
   39.9110   24.9460   42.1600 N   0  0  0  0  0  0  0  0  0  0  0  0
   40.9120   25.4480   43.0080 C   0  0  0  0  0  0  0  0  0  0  0  0
   40.7350   26.4620   43.7760 O   0  0  0  0  0  0  0  0  0  0  0  0
   42.1500   24.7370   42.9590 N   0  0  0  0  0  0  0  0  0  0  0  0
   39.5690   24.0110   42.6040 H   0  0  0  0  0  0  0  0  0  0  0  0
   42.5320   23.8190   43.2720 H   0  0  0  0  0  0  0  0  0  0  0  0
   43.1660   24.6150   42.7010 H   0  0  0  0  0  0  0  0  0  0  0  0
   38.1400   30.6820   40.9800 C   0  0  0  0  0  0  0  0  0  0  0  0
   37.0880   31.4550   40.5410 C   0  0  0  0  0  0  0  0  0  0  0  0
   37.2350   32.6540   39.8700 C   0  0  0  0  0  0  0  0  0  0  0  0
   38.5450   33.0440   39.6610 C   0  0  0  0  0  0  0  0  0  0  0  0
   39.6020   32.2820   40.0940 C   0  0  0  0  0  0  0  0  0  0  0  0
   39.3940   31.1010   40.7540 N   0  0  0  0  0  0  0  0  0  0  0  0
   36.0980   31.0750   40.7480 H   0  0  0  0  0  0  0  0  0  0  0  0
   36.3610   33.2250   39.5450 H   0  0  0  0  0  0  0  0  0  0  0  0
   38.6840   33.9790   39.1380 H   0  0  0  0  0  0  0  0  0  0  0  0
   40.8940   31.2110   37.6260 Cl  0  0  0  0  0  0  0  0  0  0  0  0
   41.7010   32.2630   38.7820 C   0  0  0  0  0  0  0  0  0  0  0  0
   40.9850   32.6840   39.8770 C   0  0  0  0  0  0  0  0  0  0  0  0
   41.6870   33.5060   40.7340 C   0  0  0  0  0  0  0  0  0  0  0  0
   41.2290   33.8860   41.6110 H   0  0  0  0  0  0  0  0  0  0  0  0
   42.9870   33.8890   40.5400 C   0  0  0  0  0  0  0  0  0  0  0  0
   43.5200   34.5420   41.2360 H   0  0  0  0  0  0  0  0  0  0  0  0
   43.6720   33.4460   39.4250 C   0  0  0  0  0  0  0  0  0  0  0  0
   44.6950   33.7090   39.2110 H   0  0  0  0  0  0  0  0  0  0  0  0
   43.0100   32.6210   38.5400 C   0  0  0  0  0  0  0  0  0  0  0  0
   43.8270   32.0170   37.0940 Cl  0  0  0  0  0  0  0  0  0  0  0  0
  1  2  1  0  0  0  0
  2  3  2  0  0  0  0
  2  7  1  0  0  0  0
  3  8  1  0  0  0  0
  4  3  1  0  0  0  0
  5  4  2  0  0  0  0
  6  1  2  0  0  0  0
  6  5  1  0  0  0  0
  9 15  1  6  0  0  0
  9  1  1  0  0  0  0
  9 10  1  0  0  0  0
 10 17  1  0  0  0  0
 10 16  1  0  0  0  0
 11 18  1  0  0  0  0
 11 10  1  0  0  0  0
 12 20  1  0  0  0  0
 12 11  1  0  0  0  0
 13 12  1  0  0  0  0
 13 14  1  0  0  0  0
 14 24  1  6  0  0  0
 14  9  1  0  0  0  0
 14 25  1  0  0  0  0
 19 11  1  0  0  0  0
 21 12  1  0  0  0  0
 22 13  1  0  0  0  0
 23 13  1  0  0  0  0
 25 29  1  0  0  0  0
 25 26  1  0  0  0  0
 26 27  2  0  0  0  0
 28 26  1  0  0  0  0
 28 30  1  0  0  0  0
 31 28  1  0  0  0  0
 32  5  1  0  0  0  0
 33 38  1  0  0  0  0
 33 32  2  0  0  0  0
 34 33  1  0  0  0  0
 35 34  2  0  0  0  0
 35 36  1  0  0  0  0
 36 37  2  0  0  0  0
 37 32  1  0  0  0  0
 39 34  1  0  0  0  0
 40 35  1  0  0  0  0
 41 42  1  0  0  0  0
 42 43  1  0  0  0  0
 43 36  1  0  0  0  0
 43 44  2  0  0  0  0
 44 45  1  0  0  0  0
 46 44  1  0  0  0  0
 46 47  1  0  0  0  0
 48 46  2  0  0  0  0
 49 48  1  0  0  0  0
 50 42  2  0  0  0  0
 50 48  1  0  0  0  0
 51 50  1  0  0  0  0
M  END
>  <minimizedAffinity>
-6.97761583

$$$$

 OpenBabel03252507343D

 51 54  0  0  1  0  0  0  0  0999 V2000
   38.3110   29.8580   41.3910 C   0  0  0  0  0  0  0  0  0  0  0  0
   36.9410   29.8100   41.1840 C   0  0  0  0  0  0  0  0  0  0  0  0
   36.2640   30.9570   40.7090 C   0  0  0  0  0  0  0  0  0  0  0  0
   37.0480   32.0870   40.4790 N   0  0  0  0  0  0  0  0  0  0  0  0
   38.3670   32.0670   40.7020 C   0  0  0  0  0  0  0  0  0  0  0  0
   38.9870   30.9760   41.1490 N   0  0  0  0  0  0  0  0  0  0  0  0
   36.1630   29.0910   41.3220 H   0  0  0  0  0  0  0  0  0  0  0  0
   35.2400   31.1050   40.4930 H   0  0  0  0  0  0  0  0  0  0  0  0
   38.9620   28.6490   41.8540 C   0  0  2  0  0  0  0  0  0  0  0  0
   38.6030   28.3410   43.3390 C   0  0  0  0  0  0  0  0  0  0  0  0
   39.1660   27.0170   43.7220 C   0  0  0  0  0  0  0  0  0  0  0  0
   40.5650   26.7450   43.2820 C   0  0  0  0  0  0  0  0  0  0  0  0
   40.8920   27.2640   41.9760 C   0  0  0  0  0  0  0  0  0  0  0  0
   40.4060   28.7110   41.7420 C   0  0  2  0  0  0  0  0  0  0  0  0
   38.5130   27.7790   41.3210 H   0  0  0  0  0  0  0  0  0  0  0  0
   38.8870   29.1760   43.9930 H   0  0  0  0  0  0  0  0  0  0  0  0
   37.4940   28.3040   43.3360 H   0  0  0  0  0  0  0  0  0  0  0  0
   39.1920   27.0020   44.8510 H   0  0  0  0  0  0  0  0  0  0  0  0
   38.4040   26.2590   43.4600 H   0  0  0  0  0  0  0  0  0  0  0  0
   41.3180   26.5430   44.0450 H   0  0  0  0  0  0  0  0  0  0  0  0
   40.4520   25.6200   43.0080 H   0  0  0  0  0  0  0  0  0  0  0  0
   40.5380   26.7140   41.0720 H   0  0  0  0  0  0  0  0  0  0  0  0
   42.0080   27.3050   41.8400 H   0  0  0  0  0  0  0  0  0  0  0  0
   40.8150   28.9120   40.7500 H   0  0  0  0  0  0  0  0  0  0  0  0
   40.9560   29.5650   42.7970 N   0  0  0  0  0  0  0  0  0  0  0  0
   42.2010   30.2040   42.9270 C   0  0  0  0  0  0  0  0  0  0  0  0
   42.5040   31.2790   42.2940 O   0  0  0  0  0  0  0  0  0  0  0  0
   43.1080   29.5680   43.8290 N   0  0  0  0  0  0  0  0  0  0  0  0
   40.4120   29.7560   43.7210 H   0  0  0  0  0  0  0  0  0  0  0  0
   43.2170   29.4380   44.8580 H   0  0  0  0  0  0  0  0  0  0  0  0
   43.9650   29.0030   44.0740 H   0  0  0  0  0  0  0  0  0  0  0  0
   39.1280   33.2970   40.4590 C   0  0  0  0  0  0  0  0  0  0  0  0
   38.4880   34.5080   40.3130 C   0  0  0  0  0  0  0  0  0  0  0  0
   39.1390   35.7050   40.0840 C   0  0  0  0  0  0  0  0  0  0  0  0
   40.5160   35.6110   40.0080 C   0  0  0  0  0  0  0  0  0  0  0  0
   41.1650   34.4090   40.1510 C   0  0  0  0  0  0  0  0  0  0  0  0
   40.4660   33.2550   40.3770 N   0  0  0  0  0  0  0  0  0  0  0  0
   37.4110   34.4890   40.3880 H   0  0  0  0  0  0  0  0  0  0  0  0
   38.5760   36.6360   39.9760 H   0  0  0  0  0  0  0  0  0  0  0  0
   41.0460   36.5350   39.8280 H   0  0  0  0  0  0  0  0  0  0  0  0
   42.2690   33.7020   37.4700 Cl  0  0  0  0  0  0  0  0  0  0  0  0
   43.2570   33.9800   38.8980 C   0  0  0  0  0  0  0  0  0  0  0  0
   42.6150   34.3000   40.0710 C   0  0  0  0  0  0  0  0  0  0  0  0
   43.4600   34.5030   41.1430 C   0  0  0  0  0  0  0  0  0  0  0  0
   43.0680   34.7540   42.0960 H   0  0  0  0  0  0  0  0  0  0  0  0
   44.8230   34.4020   41.0800 C   0  0  0  0  0  0  0  0  0  0  0  0
   45.4680   34.5680   41.9460 H   0  0  0  0  0  0  0  0  0  0  0  0
   45.4300   34.0800   39.8800 C   0  0  0  0  0  0  0  0  0  0  0  0
   46.4970   33.9850   39.7600 H   0  0  0  0  0  0  0  0  0  0  0  0
   44.6260   33.8670   38.7800 C   0  0  0  0  0  0  0  0  0  0  0  0
   45.3360   33.4510   37.2170 Cl  0  0  0  0  0  0  0  0  0  0  0  0
  1  9  1  0  0  0  0
  2  7  1  0  0  0  0
  2  1  1  0  0  0  0
  3  2  2  0  0  0  0
  4  5  2  0  0  0  0
  4  3  1  0  0  0  0
  5  6  1  0  0  0  0
  6  1  2  0  0  0  0
  8  3  1  0  0  0  0
  9 15  1  6  0  0  0
  9 10  1  0  0  0  0
 10 11  1  0  0  0  0
 10 16  1  0  0  0  0
 11 18  1  0  0  0  0
 12 11  1  0  0  0  0
 12 20  1  0  0  0  0
 13 12  1  0  0  0  0
 14 24  1  6  0  0  0
 14  9  1  0  0  0  0
 14 13  1  0  0  0  0
 14 25  1  0  0  0  0
 17 10  1  0  0  0  0
 19 11  1  0  0  0  0
 21 12  1  0  0  0  0
 22 13  1  0  0  0  0
 23 13  1  0  0  0  0
 25 26  1  0  0  0  0
 25 29  1  0  0  0  0
 26 28  1  0  0  0  0
 27 26  2  0  0  0  0
 28 31  1  0  0  0  0
 28 30  1  0  0  0  0
 32  5  1  0  0  0  0
 33 38  1  0  0  0  0
 33 32  2  0  0  0  0
 34 33  1  0  0  0  0
 35 34  2  0  0  0  0
 35 36  1  0  0  0  0
 36 37  2  0  0  0  0
 37 32  1  0  0  0  0
 39 34  1  0  0  0  0
 40 35  1  0  0  0  0
 41 42  1  0  0  0  0
 42 43  1  0  0  0  0
 43 36  1  0  0  0  0
 43 44  2  0  0  0  0
 44 45  1  0  0  0  0
 46 44  1  0  0  0  0
 46 47  1  0  0  0  0
 48 46  2  0  0  0  0
 49 48  1  0  0  0  0
 50 42  2  0  0  0  0
 50 48  1  0  0  0  0
 51 50  1  0  0  0  0
M  END
>  <minimizedAffinity>
-6.95559359

$$$$

 OpenBabel03252507343D

 51 54  0  0  1  0  0  0  0  0999 V2000
   37.3290   26.9050   41.8730 C   0  0  0  0  0  0  0  0  0  0  0  0
   37.3930   27.2090   43.2240 C   0  0  0  0  0  0  0  0  0  0  0  0
   37.5060   28.5590   43.6330 C   0  0  0  0  0  0  0  0  0  0  0  0
   37.5480   29.5110   42.6170 N   0  0  0  0  0  0  0  0  0  0  0  0
   37.4850   29.1500   41.3300 C   0  0  0  0  0  0  0  0  0  0  0  0
   37.3770   27.8730   40.9640 N   0  0  0  0  0  0  0  0  0  0  0  0
   37.4130   26.6600   44.1400 H   0  0  0  0  0  0  0  0  0  0  0  0
   37.5640   28.9760   44.6030 H   0  0  0  0  0  0  0  0  0  0  0  0
   37.1880   25.5100   41.5050 C   0  0  2  0  0  0  0  0  0  0  0  0
   38.5570   24.7680   41.5480 C   0  0  0  0  0  0  0  0  0  0  0  0
   38.3420   23.3140   41.3150 C   0  0  0  0  0  0  0  0  0  0  0  0
   37.3990   22.9560   40.2160 C   0  0  0  0  0  0  0  0  0  0  0  0
   36.2600   23.8330   40.0970 C   0  0  0  0  0  0  0  0  0  0  0  0
   36.6190   25.3330   40.1850 C   0  0  2  0  0  0  0  0  0  0  0  0
   36.6170   24.9900   42.3090 H   0  0  0  0  0  0  0  0  0  0  0  0
   39.2840   25.2450   40.8770 H   0  0  0  0  0  0  0  0  0  0  0  0
   38.9180   24.9460   42.5820 H   0  0  0  0  0  0  0  0  0  0  0  0
   39.3450   22.8930   41.0090 H   0  0  0  0  0  0  0  0  0  0  0  0
   38.1510   22.8580   42.3060 H   0  0  0  0  0  0  0  0  0  0  0  0
   37.7760   22.3560   39.3870 H   0  0  0  0  0  0  0  0  0  0  0  0
   36.8770   22.0450   40.7170 H   0  0  0  0  0  0  0  0  0  0  0  0
   35.4130   23.7190   40.8140 H   0  0  0  0  0  0  0  0  0  0  0  0
   35.7740   23.7070   39.0910 H   0  0  0  0  0  0  0  0  0  0  0  0
   35.6450   25.7920   40.0020 H   0  0  0  0  0  0  0  0  0  0  0  0
   37.6210   25.6340   39.1610 N   0  0  0  0  0  0  0  0  0  0  0  0
   37.5000   25.9090   37.7880 C   0  0  0  0  0  0  0  0  0  0  0  0
   37.1100   27.0460   37.3350 O   0  0  0  0  0  0  0  0  0  0  0  0
   37.8520   24.8260   36.9270 N   0  0  0  0  0  0  0  0  0  0  0  0
   38.6880   25.6070   39.3780 H   0  0  0  0  0  0  0  0  0  0  0  0
   38.7150   24.3300   36.6160 H   0  0  0  0  0  0  0  0  0  0  0  0
   37.6440   24.0420   36.2510 H   0  0  0  0  0  0  0  0  0  0  0  0
   37.5550   30.2020   40.3110 C   0  0  0  0  0  0  0  0  0  0  0  0
   36.8290   30.1070   39.1450 C   0  0  0  0  0  0  0  0  0  0  0  0
   36.8450   31.0580   38.1430 C   0  0  0  0  0  0  0  0  0  0  0  0
   37.6610   32.1460   38.3900 C   0  0  0  0  0  0  0  0  0  0  0  0
   38.3910   32.2520   39.5480 C   0  0  0  0  0  0  0  0  0  0  0  0
   38.3340   31.2770   40.5060 N   0  0  0  0  0  0  0  0  0  0  0  0
   36.2170   29.2240   39.0350 H   0  0  0  0  0  0  0  0  0  0  0  0
   36.2460   30.9280   37.2380 H   0  0  0  0  0  0  0  0  0  0  0  0
   37.6900   32.9030   37.6190 H   0  0  0  0  0  0  0  0  0  0  0  0
   41.3090   31.8070   39.1110 Cl  0  0  0  0  0  0  0  0  0  0  0  0
   40.6170   33.3280   39.6580 C   0  0  0  0  0  0  0  0  0  0  0  0
   39.2530   33.3950   39.8170 C   0  0  0  0  0  0  0  0  0  0  0  0
   38.7910   34.6210   40.2470 C   0  0  0  0  0  0  0  0  0  0  0  0
   37.7540   34.7790   40.4030 H   0  0  0  0  0  0  0  0  0  0  0  0
   39.5920   35.7000   40.5030 C   0  0  0  0  0  0  0  0  0  0  0  0
   39.1980   36.6610   40.8430 H   0  0  0  0  0  0  0  0  0  0  0  0
   40.9590   35.5940   40.3290 C   0  0  0  0  0  0  0  0  0  0  0  0
   41.6470   36.4030   40.5110 H   0  0  0  0  0  0  0  0  0  0  0  0
   41.4690   34.3860   39.9000 C   0  0  0  0  0  0  0  0  0  0  0  0
   43.2070   34.1800   39.6580 Cl  0  0  0  0  0  0  0  0  0  0  0  0
  1  2  1  0  0  0  0
  2  3  2  0  0  0  0
  2  7  1  0  0  0  0
  3  8  1  0  0  0  0
  4  3  1  0  0  0  0
  5  4  2  0  0  0  0
  6  5  1  0  0  0  0
  6  1  2  0  0  0  0
  9 10  1  0  0  0  0
  9  1  1  0  0  0  0
  9 15  1  1  0  0  0
 10 17  1  0  0  0  0
 11 10  1  0  0  0  0
 11 19  1  0  0  0  0
 12 21  1  0  0  0  0
 12 11  1  0  0  0  0
 13 14  1  0  0  0  0
 13 12  1  0  0  0  0
 13 22  1  0  0  0  0
 14 24  1  6  0  0  0
 14  9  1  0  0  0  0
 16 10  1  0  0  0  0
 18 11  1  0  0  0  0
 20 12  1  0  0  0  0
 23 13  1  0  0  0  0
 25 29  1  0  0  0  0
 25 14  1  0  0  0  0
 26 25  1  0  0  0  0
 27 26  2  0  0  0  0
 28 26  1  0  0  0  0
 30 28  1  0  0  0  0
 31 28  1  0  0  0  0
 32 37  1  0  0  0  0
 32  5  1  0  0  0  0
 33 32  2  0  0  0  0
 34 35  2  0  0  0  0
 34 33  1  0  0  0  0
 35 36  1  0  0  0  0
 36 43  1  0  0  0  0
 36 37  2  0  0  0  0
 38 33  1  0  0  0  0
 39 34  1  0  0  0  0
 40 35  1  0  0  0  0
 41 42  1  0  0  0  0
 42 43  2  0  0  0  0
 42 50  1  0  0  0  0
 43 44  1  0  0  0  0
 44 45  1  0  0  0  0
 44 46  2  0  0  0  0
 46 47  1  0  0  0  0
 48 46  1  0  0  0  0
 48 49  1  0  0  0  0
 50 48  2  0  0  0  0
 51 50  1  0  0  0  0
M  END
>  <minimizedAffinity>
-6.94800186

$$$$

 OpenBabel03252507343D

 51 54  0  0  1  0  0  0  0  0999 V2000
   37.6570   30.4780   40.9710 C   0  0  0  0  0  0  0  0  0  0  0  0
   37.8530   29.7550   42.1370 C   0  0  0  0  0  0  0  0  0  0  0  0
   37.2260   28.4960   42.2940 C   0  0  0  0  0  0  0  0  0  0  0  0
   36.4310   28.0660   41.2330 N   0  0  0  0  0  0  0  0  0  0  0  0
   36.2820   28.8150   40.1350 C   0  0  0  0  0  0  0  0  0  0  0  0
   36.8830   29.9980   40.0050 N   0  0  0  0  0  0  0  0  0  0  0  0
   38.3700   29.9000   43.0610 H   0  0  0  0  0  0  0  0  0  0  0  0
   37.2600   27.8120   43.0990 H   0  0  0  0  0  0  0  0  0  0  0  0
   38.3430   31.7500   40.8490 C   0  0  2  0  0  0  0  0  0  0  0  0
   37.4770   32.7930   40.0800 C   0  0  0  0  0  0  0  0  0  0  0  0
   38.1510   34.1190   40.1120 C   0  0  0  0  0  0  0  0  0  0  0  0
   39.6200   34.1170   39.8500 C   0  0  0  0  0  0  0  0  0  0  0  0
   40.3250   32.9890   40.4090 C   0  0  0  0  0  0  0  0  0  0  0  0
   39.6190   31.6360   40.1720 C   0  0  2  0  0  0  0  0  0  0  0  0
   38.4170   32.2100   41.8610 H   0  0  0  0  0  0  0  0  0  0  0  0
   37.2170   32.4250   39.0780 H   0  0  0  0  0  0  0  0  0  0  0  0
   36.5310   32.8240   40.6600 H   0  0  0  0  0  0  0  0  0  0  0  0
   37.6920   34.7250   39.2770 H   0  0  0  0  0  0  0  0  0  0  0  0
   37.8090   34.6270   41.0340 H   0  0  0  0  0  0  0  0  0  0  0  0
   39.9940   34.6890   39.0000 H   0  0  0  0  0  0  0  0  0  0  0  0
   39.9410   34.9310   40.6170 H   0  0  0  0  0  0  0  0  0  0  0  0
   40.5550   32.9830   41.5010 H   0  0  0  0  0  0  0  0  0  0  0  0
   41.3340   32.8810   39.9250 H   0  0  0  0  0  0  0  0  0  0  0  0
   40.3450   30.9430   40.6020 H   0  0  0  0  0  0  0  0  0  0  0  0
   39.4120   31.4620   38.7330 N   0  0  0  0  0  0  0  0  0  0  0  0
   40.3190   31.3240   37.6690 C   0  0  0  0  0  0  0  0  0  0  0  0
   40.9440   30.2300   37.4210 O   0  0  0  0  0  0  0  0  0  0  0  0
   40.4890   32.4970   36.8720 N   0  0  0  0  0  0  0  0  0  0  0  0
   38.4170   31.4930   38.2900 H   0  0  0  0  0  0  0  0  0  0  0  0
   39.9490   33.0420   36.1660 H   0  0  0  0  0  0  0  0  0  0  0  0
   41.0200   33.3390   36.5220 H   0  0  0  0  0  0  0  0  0  0  0  0
   35.4150   28.3110   39.0650 C   0  0  0  0  0  0  0  0  0  0  0  0
   35.6670   27.0990   38.4630 C   0  0  0  0  0  0  0  0  0  0  0  0
   34.8950   26.5600   37.4520 C   0  0  0  0  0  0  0  0  0  0  0  0
   33.8190   27.3390   37.0680 C   0  0  0  0  0  0  0  0  0  0  0  0
   33.5580   28.5500   37.6600 C   0  0  0  0  0  0  0  0  0  0  0  0
   34.3590   29.0320   38.6580 N   0  0  0  0  0  0  0  0  0  0  0  0
   36.5280   26.5560   38.8260 H   0  0  0  0  0  0  0  0  0  0  0  0
   35.1440   25.5910   37.0120 H   0  0  0  0  0  0  0  0  0  0  0  0
   33.2010   26.9380   36.2770 H   0  0  0  0  0  0  0  0  0  0  0  0
   33.5840   29.5120   34.8350 Cl  0  0  0  0  0  0  0  0  0  0  0  0
   32.3120   29.8880   35.9900 C   0  0  0  0  0  0  0  0  0  0  0  0
   32.4270   29.3770   37.2610 C   0  0  0  0  0  0  0  0  0  0  0  0
   31.3910   29.7170   38.1060 C   0  0  0  0  0  0  0  0  0  0  0  0
   31.3810   29.3760   39.1100 H   0  0  0  0  0  0  0  0  0  0  0  0
   30.3240   30.4940   37.7420 C   0  0  0  0  0  0  0  0  0  0  0  0
   29.5160   30.7470   38.4330 H   0  0  0  0  0  0  0  0  0  0  0  0
   30.2440   30.9870   36.4530 C   0  0  0  0  0  0  0  0  0  0  0  0
   29.4340   31.6040   36.1010 H   0  0  0  0  0  0  0  0  0  0  0  0
   31.2590   30.6740   35.5730 C   0  0  0  0  0  0  0  0  0  0  0  0
   31.2210   31.2720   33.9110 Cl  0  0  0  0  0  0  0  0  0  0  0  0
  1  2  1  0  0  0  0
  2  3  2  0  0  0  0
  2  7  1  0  0  0  0
  3  8  1  0  0  0  0
  4  3  1  0  0  0  0
  5  4  2  0  0  0  0
  6  5  1  0  0  0  0
  6  1  2  0  0  0  0
  9  1  1  0  0  0  0
  9 15  1  1  0  0  0
 10 11  1  0  0  0  0
 10 17  1  0  0  0  0
 10  9  1  0  0  0  0
 11 19  1  0  0  0  0
 12 11  1  0  0  0  0
 12 13  1  0  0  0  0
 12 21  1  0  0  0  0
 13 22  1  0  0  0  0
 14 13  1  0  0  0  0
 14 24  1  1  0  0  0
 14  9  1  0  0  0  0
 16 10  1  0  0  0  0
 18 11  1  0  0  0  0
 20 12  1  0  0  0  0
 23 13  1  0  0  0  0
 25 14  1  0  0  0  0
 26 25  1  0  0  0  0
 27 26  2  0  0  0  0
 28 26  1  0  0  0  0
 29 25  1  0  0  0  0
 30 28  1  0  0  0  0
 31 28  1  0  0  0  0
 32  5  1  0  0  0  0
 33 38  1  0  0  0  0
 33 32  2  0  0  0  0
 34 33  1  0  0  0  0
 35 34  2  0  0  0  0
 35 36  1  0  0  0  0
 36 37  2  0  0  0  0
 37 32  1  0  0  0  0
 39 34  1  0  0  0  0
 40 35  1  0  0  0  0
 41 42  1  0  0  0  0
 42 43  1  0  0  0  0
 43 36  1  0  0  0  0
 43 44  2  0  0  0  0
 44 45  1  0  0  0  0
 46 44  1  0  0  0  0
 46 47  1  0  0  0  0
 48 46  2  0  0  0  0
 49 48  1  0  0  0  0
 50 42  2  0  0  0  0
 50 48  1  0  0  0  0
 51 50  1  0  0  0  0
M  END
>  <minimizedAffinity>
-6.91952753

$$$$
