
 OpenBabel03252507323D

 51 54  0  0  1  0  0  0  0  0999 V2000
   47.0300   32.5870   45.4820 C   0  0  0  0  0  0  0  0  0  0  0  0
   45.9930   33.2940   46.0710 C   0  0  0  0  0  0  0  0  0  0  0  0
   45.3360   34.3120   45.3420 C   0  0  0  0  0  0  0  0  0  0  0  0
   45.7950   34.5390   44.0460 N   0  0  0  0  0  0  0  0  0  0  0  0
   46.8040   33.8220   43.5370 C   0  0  0  0  0  0  0  0  0  0  0  0
   47.4090   32.8650   44.2390 N   0  0  0  0  0  0  0  0  0  0  0  0
   45.5170   33.3140   47.0270 H   0  0  0  0  0  0  0  0  0  0  0  0
   44.5360   34.9450   45.6210 H   0  0  0  0  0  0  0  0  0  0  0  0
   47.6540   31.5360   46.2610 C   0  0  2  0  0  0  0  0  0  0  0  0
   47.3360   30.1280   45.6760 C   0  0  0  0  0  0  0  0  0  0  0  0
   48.1170   29.0960   46.4120 C   0  0  0  0  0  0  0  0  0  0  0  0
   48.1520   29.2330   47.8970 C   0  0  0  0  0  0  0  0  0  0  0  0
   48.2200   30.5940   48.3700 C   0  0  0  0  0  0  0  0  0  0  0  0
   47.2440   31.5520   47.6510 C   0  0  2  0  0  0  0  0  0  0  0  0
   48.7580   31.6020   46.1230 H   0  0  0  0  0  0  0  0  0  0  0  0
   46.2520   29.9530   45.6390 H   0  0  0  0  0  0  0  0  0  0  0  0
   47.6810   30.1980   44.6240 H   0  0  0  0  0  0  0  0  0  0  0  0
   47.6060   28.1100   46.2070 H   0  0  0  0  0  0  0  0  0  0  0  0
   49.0910   29.0070   45.8950 H   0  0  0  0  0  0  0  0  0  0  0  0
   47.7610   28.4130   48.5010 H   0  0  0  0  0  0  0  0  0  0  0  0
   49.2580   28.9200   48.0800 H   0  0  0  0  0  0  0  0  0  0  0  0
   49.1980   31.1310   48.3330 H   0  0  0  0  0  0  0  0  0  0  0  0
   47.9320   30.6440   49.4560 H   0  0  0  0  0  0  0  0  0  0  0  0
   47.4130   32.4770   48.2050 H   0  0  0  0  0  0  0  0  0  0  0  0
   45.8870   31.0200   47.7820 N   0  0  0  0  0  0  0  0  0  0  0  0
   45.1610   30.5750   48.9000 C   0  0  0  0  0  0  0  0  0  0  0  0
   44.6220   31.3760   49.7470 O   0  0  0  0  0  0  0  0  0  0  0  0
   45.0600   29.1550   49.0210 N   0  0  0  0  0  0  0  0  0  0  0  0
   45.2580   30.8350   46.9110 H   0  0  0  0  0  0  0  0  0  0  0  0
   44.5620   28.3690   48.5520 H   0  0  0  0  0  0  0  0  0  0  0  0
   45.2860   28.2200   49.4560 H   0  0  0  0  0  0  0  0  0  0  0  0
   47.2500   34.1260   42.1740 C   0  0  0  0  0  0  0  0  0  0  0  0
   48.1940   35.1010   41.9390 C   0  0  0  0  0  0  0  0  0  0  0  0
   48.6630   35.4400   40.6850 C   0  0  0  0  0  0  0  0  0  0  0  0
   48.1090   34.7180   39.6450 C   0  0  0  0  0  0  0  0  0  0  0  0
   47.1660   33.7440   39.8650 C   0  0  0  0  0  0  0  0  0  0  0  0
   46.7410   33.4510   41.1320 N   0  0  0  0  0  0  0  0  0  0  0  0
   48.5740   35.6150   42.8100 H   0  0  0  0  0  0  0  0  0  0  0  0
   49.4150   36.2240   40.5610 H   0  0  0  0  0  0  0  0  0  0  0  0
   48.4600   34.9670   38.6540 H   0  0  0  0  0  0  0  0  0  0  0  0
   44.1840   33.6330   39.8220 Cl  0  0  0  0  0  0  0  0  0  0  0  0
   45.2150   32.8440   38.6350 C   0  0  0  0  0  0  0  0  0  0  0  0
   46.5760   32.9790   38.7750 C   0  0  0  0  0  0  0  0  0  0  0  0
   47.3120   32.3320   37.8060 C   0  0  0  0  0  0  0  0  0  0  0  0
   48.3740   32.3720   37.8210 H   0  0  0  0  0  0  0  0  0  0  0  0
   46.7690   31.6100   36.7780 C   0  0  0  0  0  0  0  0  0  0  0  0
   47.3780   31.1080   36.0220 H   0  0  0  0  0  0  0  0  0  0  0  0
   45.3950   31.4990   36.6710 C   0  0  0  0  0  0  0  0  0  0  0  0
   44.9030   30.9470   35.8880 H   0  0  0  0  0  0  0  0  0  0  0  0
   44.6170   32.1300   37.6200 C   0  0  0  0  0  0  0  0  0  0  0  0
   42.8540   32.0290   37.5440 Cl  0  0  0  0  0  0  0  0  0  0  0  0
  1  2  1  0  0  0  0
  1  9  1  0  0  0  0
  2  7  1  0  0  0  0
  3  8  1  0  0  0  0
  3  2  2  0  0  0  0
  4  3  1  0  0  0  0
  5  4  2  0  0  0  0
  5  6  1  0  0  0  0
  6  1  2  0  0  0  0
  9 15  1  6  0  0  0
  9 14  1  0  0  0  0
 10  9  1  0  0  0  0
 10 11  1  0  0  0  0
 11 12  1  0  0  0  0
 12 21  1  0  0  0  0
 12 13  1  0  0  0  0
 12 20  1  0  0  0  0
 13 23  1  0  0  0  0
 14 25  1  0  0  0  0
 14 24  1  1  0  0  0
 14 13  1  0  0  0  0
 16 10  1  0  0  0  0
 17 10  1  0  0  0  0
 18 11  1  0  0  0  0
 19 11  1  0  0  0  0
 22 13  1  0  0  0  0
 25 26  1  0  0  0  0
 26 28  1  0  0  0  0
 26 27  2  0  0  0  0
 28 31  1  0  0  0  0
 29 25  1  0  0  0  0
 30 28  1  0  0  0  0
 32  5  1  0  0  0  0
 33 32  1  0  0  0  0
 33 38  1  0  0  0  0
 34 33  2  0  0  0  0
 35 36  2  0  0  0  0
 35 34  1  0  0  0  0
 36 37  1  0  0  0  0
 37 32  2  0  0  0  0
 39 34  1  0  0  0  0
 40 35  1  0  0  0  0
 42 43  1  0  0  0  0
 42 41  1  0  0  0  0
 43 36  1  0  0  0  0
 44 45  1  0  0  0  0
 44 43  2  0  0  0  0
 46 44  1  0  0  0  0
 47 46  1  0  0  0  0
 48 46  2  0  0  0  0
 48 50  1  0  0  0  0
 49 48  1  0  0  0  0
 50 42  2  0  0  0  0
 51 50  1  0  0  0  0
M  END
>  <minimizedAffinity>
-6.50473213

>  <minimizedRMSD>
0.752422214

$$$$
