
 OpenBabel03252506533D

 33 36  0  0  0  0  0  0  0  0999 V2000
   46.0650   30.9060   45.2300 C   0  0  0  0  0  0  0  0  0  0  0  0
   46.4950   32.2230   45.3470 C   0  0  0  0  0  0  0  0  0  0  0  0
   46.4420   32.9300   46.5490 C   0  0  0  0  0  0  0  0  0  0  0  0
   45.9410   32.2990   47.6850 C   0  0  0  0  0  0  0  0  0  0  0  0
   45.7440   32.6630   48.9870 N   0  0  0  0  0  0  0  0  0  0  0  0
   45.2110   31.6050   49.6520 C   0  0  0  0  0  0  0  0  0  0  0  0
   45.0830   30.5910   48.7450 N   0  0  0  0  0  0  0  0  0  0  0  0
   45.5230   30.9990   47.5460 C   0  0  0  0  0  0  0  0  0  0  0  0
   45.5630   30.2830   46.3780 C   0  0  0  0  0  0  0  0  0  0  0  0
   46.1320   30.4130   44.2730 H   0  0  0  0  0  0  0  0  0  0  0  0
   46.7790   33.9540   46.6280 H   0  0  0  0  0  0  0  0  0  0  0  0
   45.9750   33.6030   49.3770 H   0  0  0  0  0  0  0  0  0  0  0  0
   44.9460   31.5820   50.6870 H   0  0  0  0  0  0  0  0  0  0  0  0
   47.6850   28.3420   47.0430 Cl  0  0  0  0  0  0  0  0  0  0  0  0
   46.0430   27.9140   46.5410 C   0  0  0  0  0  0  0  0  0  0  0  0
   45.1140   28.8990   46.2500 C   0  0  0  0  0  0  0  0  0  0  0  0
   43.8390   28.5470   45.8600 C   0  0  0  0  0  0  0  0  0  0  0  0
   43.1200   29.3230   45.6340 H   0  0  0  0  0  0  0  0  0  0  0  0
   43.5500   27.2090   45.7790 C   0  0  0  0  0  0  0  0  0  0  0  0
   42.5260   26.9590   45.4670 H   0  0  0  0  0  0  0  0  0  0  0  0
   44.4400   26.1900   46.0600 C   0  0  0  0  0  0  0  0  0  0  0  0
   44.0720   25.1700   45.9530 H   0  0  0  0  0  0  0  0  0  0  0  0
   45.7080   26.5930   46.4460 C   0  0  0  0  0  0  0  0  0  0  0  0
   46.8510   25.3050   46.8060 Cl  0  0  0  0  0  0  0  0  0  0  0  0
   47.0170   34.7420   42.7230 C   0  0  0  0  0  0  0  0  0  0  0  0
   48.0590   34.1820   41.9720 C   0  0  0  0  0  0  0  0  0  0  0  0
   48.5750   32.9420   42.3720 C   0  0  0  0  0  0  0  0  0  0  0  0
   48.0320   32.3440   43.4780 N   0  0  0  0  0  0  0  0  0  0  0  0
   47.0230   32.9130   44.1840 C   0  0  0  0  0  0  0  0  0  0  0  0
   46.5340   34.0920   43.8020 N   0  0  0  0  0  0  0  0  0  0  0  0
   46.5620   35.6920   42.4850 H   0  0  0  0  0  0  0  0  0  0  0  0
   48.4350   34.7100   41.1130 H   0  0  0  0  0  0  0  0  0  0  0  0
   49.3780   32.4810   41.8160 H   0  0  0  0  0  0  0  0  0  0  0  0
  1  2  2  0  0  0  0
  1  9  1  0  0  0  0
  2  3  1  0  0  0  0
  3 11  1  0  0  0  0
  3  4  2  0  0  0  0
  4  5  1  0  0  0  0
  5 12  1  0  0  0  0
  5  6  1  0  0  0  0
  6 13  1  0  0  0  0
  7  6  2  0  0  0  0
  8  4  1  0  0  0  0
  8  7  1  0  0  0  0
  9  8  2  0  0  0  0
 10  1  1  0  0  0  0
 15 14  1  0  0  0  0
 16  9  1  0  0  0  0
 16 15  2  0  0  0  0
 17 16  1  0  0  0  0
 18 17  1  0  0  0  0
 19 17  2  0  0  0  0
 19 21  1  0  0  0  0
 20 19  1  0  0  0  0
 21 23  2  0  0  0  0
 22 21  1  0  0  0  0
 23 15  1  0  0  0  0
 23 24  1  0  0  0  0
 25 30  1  0  0  0  0
 26 27  1  0  0  0  0
 26 25  2  0  0  0  0
 27 28  2  0  0  0  0
 28 29  1  0  0  0  0
 29  2  1  0  0  0  0
 30 29  2  0  0  0  0
 31 25  1  0  0  0  0
 32 26  1  0  0  0  0
 33 27  1  0  0  0  0
M  END
>  <minimizedAffinity>
-5.43820953

>  <minimizedRMSD>
2.10426307

$$$$
