
 OpenBabel03252507333D

 51 54  0  0  1  0  0  0  0  0999 V2000
   47.0580   32.4720   45.3460 C   0  0  0  0  0  0  0  0  0  0  0  0
   46.0080   33.1470   45.9480 C   0  0  0  0  0  0  0  0  0  0  0  0
   45.3670   34.2030   45.2590 C   0  0  0  0  0  0  0  0  0  0  0  0
   45.8560   34.4980   43.9880 N   0  0  0  0  0  0  0  0  0  0  0  0
   46.8760   33.8080   43.4640 C   0  0  0  0  0  0  0  0  0  0  0  0
   47.4650   32.8150   44.1280 N   0  0  0  0  0  0  0  0  0  0  0  0
   45.5100   33.1170   46.8930 H   0  0  0  0  0  0  0  0  0  0  0  0
   44.5610   34.8210   45.5530 H   0  0  0  0  0  0  0  0  0  0  0  0
   47.6640   31.3800   46.0820 C   0  0  2  0  0  0  0  0  0  0  0  0
   47.2640   29.9980   45.4850 C   0  0  0  0  0  0  0  0  0  0  0  0
   48.0260   28.9200   46.1720 C   0  0  0  0  0  0  0  0  0  0  0  0
   48.1230   29.0270   47.6570 C   0  0  0  0  0  0  0  0  0  0  0  0
   48.2670   30.3740   48.1510 C   0  0  0  0  0  0  0  0  0  0  0  0
   47.3080   31.3860   47.4870 C   0  0  2  0  0  0  0  0  0  0  0  0
   48.7640   31.4020   45.9030 H   0  0  0  0  0  0  0  0  0  0  0  0
   46.1730   29.8710   45.4860 H   0  0  0  0  0  0  0  0  0  0  0  0
   47.5730   30.0740   44.4220 H   0  0  0  0  0  0  0  0  0  0  0  0
   47.4660   27.9610   45.9690 H   0  0  0  0  0  0  0  0  0  0  0  0
   48.9760   28.8000   45.6180 H   0  0  0  0  0  0  0  0  0  0  0  0
   47.7190   28.2130   48.2610 H   0  0  0  0  0  0  0  0  0  0  0  0
   49.2200   28.6640   47.7920 H   0  0  0  0  0  0  0  0  0  0  0  0
   49.2650   30.8700   48.0860 H   0  0  0  0  0  0  0  0  0  0  0  0
   48.0220   30.4160   49.2480 H   0  0  0  0  0  0  0  0  0  0  0  0
   47.5370   32.2930   48.0500 H   0  0  0  0  0  0  0  0  0  0  0  0
   45.9340   30.9100   47.6590 N   0  0  0  0  0  0  0  0  0  0  0  0
   45.2050   30.5580   48.8080 C   0  0  0  0  0  0  0  0  0  0  0  0
   44.7020   31.4260   49.6100 O   0  0  0  0  0  0  0  0  0  0  0  0
   45.0570   29.1530   49.0140 N   0  0  0  0  0  0  0  0  0  0  0  0
   45.2910   30.6970   46.8070 H   0  0  0  0  0  0  0  0  0  0  0  0
   44.5270   28.3570   48.5970 H   0  0  0  0  0  0  0  0  0  0  0  0
   45.2550   28.2380   49.5020 H   0  0  0  0  0  0  0  0  0  0  0  0
   47.3530   34.1840   42.1300 C   0  0  0  0  0  0  0  0  0  0  0  0
   48.3680   35.1020   41.9740 C   0  0  0  0  0  0  0  0  0  0  0  0
   48.8700   35.5030   40.7510 C   0  0  0  0  0  0  0  0  0  0  0  0
   48.2710   34.9070   39.6560 C   0  0  0  0  0  0  0  0  0  0  0  0
   47.2580   33.9910   39.7980 C   0  0  0  0  0  0  0  0  0  0  0  0
   46.8030   33.6330   41.0380 N   0  0  0  0  0  0  0  0  0  0  0  0
   48.7790   35.5170   42.8830 H   0  0  0  0  0  0  0  0  0  0  0  0
   49.6780   36.2360   40.6900 H   0  0  0  0  0  0  0  0  0  0  0  0
   48.6470   35.2060   38.6890 H   0  0  0  0  0  0  0  0  0  0  0  0
   49.0030   33.5660   37.4150 Cl  0  0  0  0  0  0  0  0  0  0  0  0
   47.3080   33.1040   37.4880 C   0  0  0  0  0  0  0  0  0  0  0  0
   46.6210   33.3590   38.6510 C   0  0  0  0  0  0  0  0  0  0  0  0
   45.2990   32.9670   38.6270 C   0  0  0  0  0  0  0  0  0  0  0  0
   44.6780   33.1190   39.4740 H   0  0  0  0  0  0  0  0  0  0  0  0
   44.6900   32.3740   37.5560 C   0  0  0  0  0  0  0  0  0  0  0  0
   43.6390   32.0730   37.5650 H   0  0  0  0  0  0  0  0  0  0  0  0
   45.4160   32.1320   36.4040 C   0  0  0  0  0  0  0  0  0  0  0  0
   45.0000   31.6690   35.5240 H   0  0  0  0  0  0  0  0  0  0  0  0
   46.7430   32.5080   36.3800 C   0  0  0  0  0  0  0  0  0  0  0  0
   47.7280   32.2300   34.9400 Cl  0  0  0  0  0  0  0  0  0  0  0  0
  1  2  1  0  0  0  0
  1  9  1  0  0  0  0
  2  7  1  0  0  0  0
  3  8  1  0  0  0  0
  3  2  2  0  0  0  0
  4  3  1  0  0  0  0
  5  4  2  0  0  0  0
  5  6  1  0  0  0  0
  6  1  2  0  0  0  0
  9 15  1  6  0  0  0
  9 14  1  0  0  0  0
 10 16  1  0  0  0  0
 10  9  1  0  0  0  0
 10 11  1  0  0  0  0
 11 12  1  0  0  0  0
 12 21  1  0  0  0  0
 12 13  1  0  0  0  0
 12 20  1  0  0  0  0
 13 23  1  0  0  0  0
 14 25  1  0  0  0  0
 14 24  1  1  0  0  0
 14 13  1  0  0  0  0
 17 10  1  0  0  0  0
 18 11  1  0  0  0  0
 19 11  1  0  0  0  0
 22 13  1  0  0  0  0
 25 26  1  0  0  0  0
 26 28  1  0  0  0  0
 26 27  2  0  0  0  0
 28 31  1  0  0  0  0
 29 25  1  0  0  0  0
 30 28  1  0  0  0  0
 32  5  1  0  0  0  0
 33 32  1  0  0  0  0
 33 38  1  0  0  0  0
 34 33  2  0  0  0  0
 35 36  2  0  0  0  0
 35 34  1  0  0  0  0
 36 37  1  0  0  0  0
 37 32  2  0  0  0  0
 39 34  1  0  0  0  0
 40 35  1  0  0  0  0
 41 42  1  0  0  0  0
 42 43  1  0  0  0  0
 43 36  1  0  0  0  0
 44 43  2  0  0  0  0
 44 45  1  0  0  0  0
 46 47  1  0  0  0  0
 46 44  1  0  0  0  0
 48 46  2  0  0  0  0
 49 48  1  0  0  0  0
 50 48  1  0  0  0  0
 50 42  2  0  0  0  0
 51 50  1  0  0  0  0
M  END
>  <minimizedAffinity>
-6.72997522

>  <minimizedRMSD>
0.911877096

$$$$
