
 OpenBabel03252506463D

 44 47  0  0  1  0  0  0  0  0999 V2000
   49.2750   33.3080   41.3470 N   0  0  1  0  0  0  0  0  0  0  0  0
   50.5930   33.0980   41.8840 C   0  0  0  0  0  0  0  0  0  0  0  0
   51.1960   31.7830   41.5000 C   0  0  0  0  0  0  0  0  0  0  0  0
   50.4020   30.6700   42.1530 C   0  0  0  0  0  0  0  0  0  0  0  0
   48.9250   31.0030   42.1570 C   0  0  0  0  0  0  0  0  0  0  0  0
   48.6330   32.0460   41.0910 C   0  0  2  0  0  0  0  0  0  0  0  0
   51.2400   33.8870   41.4260 H   0  0  0  0  0  0  0  0  0  0  0  0
   50.6330   33.2030   42.9830 H   0  0  0  0  0  0  0  0  0  0  0  0
   52.1970   31.7540   41.9850 H   0  0  0  0  0  0  0  0  0  0  0  0
   51.3660   31.6520   40.4310 H   0  0  0  0  0  0  0  0  0  0  0  0
   50.5410   29.7760   41.5160 H   0  0  0  0  0  0  0  0  0  0  0  0
   50.7740   30.4110   43.1600 H   0  0  0  0  0  0  0  0  0  0  0  0
   48.5970   31.4440   43.1210 H   0  0  0  0  0  0  0  0  0  0  0  0
   48.3130   30.1140   41.9090 H   0  0  0  0  0  0  0  0  0  0  0  0
   47.5340   32.2260   41.1260 H   0  0  0  0  0  0  0  0  0  0  0  0
   47.1960   34.7110   41.9840 C   0  0  1  0  0  0  0  0  0  0  0  0
   48.3930   35.5720   41.8240 C   0  0  0  0  0  0  0  0  0  0  0  0
   48.5560   34.1600   42.2210 C   0  0  2  0  0  0  0  0  0  0  0  0
   46.6580   34.4020   41.0730 H   0  0  0  0  0  0  0  0  0  0  0  0
   48.6370   35.8810   40.7920 H   0  0  0  0  0  0  0  0  0  0  0  0
   48.5010   36.4160   42.5470 H   0  0  0  0  0  0  0  0  0  0  0  0
   48.8040   34.0170   43.3120 H   0  0  0  0  0  0  0  0  0  0  0  0
   45.4820   36.0910   43.1940 C   0  0  0  0  0  0  0  0  0  0  0  0
   46.2890   34.9340   43.1310 C   0  0  0  0  0  0  0  0  0  0  0  0
   46.1950   34.0080   44.1810 C   0  0  0  0  0  0  0  0  0  0  0  0
   45.3370   34.2750   45.1970 N   0  0  0  0  0  0  0  0  0  0  0  0
   44.5820   35.3900   45.2270 C   0  0  0  0  0  0  0  0  0  0  0  0
   44.6430   36.3110   44.2290 N   0  0  0  0  0  0  0  0  0  0  0  0
   45.5340   36.8190   42.4010 H   0  0  0  0  0  0  0  0  0  0  0  0
   46.7990   33.1180   44.1550 H   0  0  0  0  0  0  0  0  0  0  0  0
   43.9650   35.4140   46.1230 H   0  0  0  0  0  0  0  0  0  0  0  0
   48.9180   31.4880   39.8080 N   0  0  0  0  0  0  0  0  0  0  0  0
   49.6300   30.6980   39.7370 H   0  0  0  0  0  0  0  0  0  0  0  0
   46.2660   30.2770   38.9570 Cl  0  0  0  0  0  0  0  0  0  0  0  0
   47.2370   31.3120   37.9320 C   0  0  0  0  0  0  0  0  0  0  0  0
   48.4280   31.7730   38.5060 C   0  0  0  0  0  0  0  0  0  0  0  0
   49.1980   32.5930   37.6930 C   0  0  0  0  0  0  0  0  0  0  0  0
   50.1160   32.9800   38.0580 H   0  0  0  0  0  0  0  0  0  0  0  0
   48.8830   32.9720   36.4040 C   0  0  0  0  0  0  0  0  0  0  0  0
   49.5140   33.6070   35.8200 H   0  0  0  0  0  0  0  0  0  0  0  0
   47.6970   32.4970   35.8670 C   0  0  0  0  0  0  0  0  0  0  0  0
   47.3650   32.7370   34.8690 H   0  0  0  0  0  0  0  0  0  0  0  0
   46.9080   31.6800   36.6480 C   0  0  0  0  0  0  0  0  0  0  0  0
   45.3830   31.0010   36.1100 Cl  0  0  0  0  0  0  0  0  0  0  0  0
  1  2  1  1  0  0  0
  1 18  1  0  0  0  0
  2  8  1  0  0  0  0
  3  2  1  0  0  0  0
  3  9  1  0  0  0  0
  3  4  1  0  0  0  0
  4  5  1  0  0  0  0
  4 12  1  0  0  0  0
  5 13  1  0  0  0  0
  6 15  1  1  0  0  0
  6  1  1  0  0  0  0
  6  5  1  0  0  0  0
  7  2  1  0  0  0  0
 10  3  1  0  0  0  0
 11  4  1  0  0  0  0
 14  5  1  0  0  0  0
 16 19  1  6  0  0  0
 16 18  1  0  0  0  0
 16 24  1  0  0  0  0
 17 16  1  0  0  0  0
 17 18  1  0  0  0  0
 17 21  1  0  0  0  0
 18 22  1  1  0  0  0
 20 17  1  0  0  0  0
 23 28  1  0  0  0  0
 24 23  2  0  0  0  0
 24 25  1  0  0  0  0
 25 26  2  0  0  0  0
 26 27  1  0  0  0  0
 27 31  1  0  0  0  0
 28 27  2  0  0  0  0
 29 23  1  0  0  0  0
 30 25  1  0  0  0  0
 32  6  1  0  0  0  0
 33 32  1  0  0  0  0
 35 36  1  0  0  0  0
 35 34  1  0  0  0  0
 36 32  1  0  0  0  0
 37 38  1  0  0  0  0
 37 36  2  0  0  0  0
 39 37  1  0  0  0  0
 40 39  1  0  0  0  0
 41 39  2  0  0  0  0
 41 43  1  0  0  0  0
 42 41  1  0  0  0  0
 43 35  2  0  0  0  0
 44 43  1  0  0  0  0
M  END
>  <minimizedAffinity>
-5.13553715

>  <minimizedRMSD>
0.557192445

$$$$
