
 OpenBabel03252508053D

 44 47  0  0  1  0  0  0  0  0999 V2000
   38.9100   26.4620   42.3810 C   0  0  0  0  0  0  0  0  0  0  0  0
   39.4560   27.5590   42.9840 C   0  0  0  0  0  0  0  0  0  0  0  0
   40.7000   27.4100   43.6300 C   0  0  0  0  0  0  0  0  0  0  0  0
   41.3860   26.2180   43.6800 C   0  0  0  0  0  0  0  0  0  0  0  0
   40.8330   25.1240   43.0710 C   0  0  0  0  0  0  0  0  0  0  0  0
   39.6290   25.2620   42.4470 C   0  0  0  0  0  0  0  0  0  0  0  0
   41.2050   28.2180   44.1420 H   0  0  0  0  0  0  0  0  0  0  0  0
   42.3180   26.1070   44.1640 H   0  0  0  0  0  0  0  0  0  0  0  0
   41.3060   24.1740   43.0690 H   0  0  0  0  0  0  0  0  0  0  0  0
   39.1940   24.3750   41.9610 H   0  0  0  0  0  0  0  0  0  0  0  0
   37.4890   26.5270   41.4830 S   0  0  0  0  0  0  0  0  0  0  0  0
   36.4590   26.8370   42.6190 O   0  0  0  0  0  0  0  0  0  0  0  0
   37.1140   25.2200   40.8900 O   0  0  0  0  0  0  0  0  0  0  0  0
   38.9570   27.2840   38.9150 Cl  0  0  0  0  0  0  0  0  0  0  0  0
   37.4660   28.1150   39.4120 C   0  0  0  0  0  0  0  0  0  0  0  0
   36.7890   27.7950   40.6240 C   0  0  0  0  0  0  0  0  0  0  0  0
   35.6600   28.5900   40.7640 C   0  0  0  0  0  0  0  0  0  0  0  0
   35.1210   28.2860   41.6810 H   0  0  0  0  0  0  0  0  0  0  0  0
   35.1170   29.5790   39.9790 C   0  0  0  0  0  0  0  0  0  0  0  0
   34.2210   30.0670   40.2950 H   0  0  0  0  0  0  0  0  0  0  0  0
   35.8990   29.7400   38.8750 C   0  0  0  0  0  0  0  0  0  0  0  0
   35.5550   30.5090   38.1850 H   0  0  0  0  0  0  0  0  0  0  0  0
   37.0430   29.0760   38.5280 C   0  0  0  0  0  0  0  0  0  0  0  0
   37.8760   29.4510   37.0360 Cl  0  0  0  0  0  0  0  0  0  0  0  0
   38.8120   28.8610   42.9870 C   0  0  0  0  0  0  0  0  0  0  0  0
   37.7890   29.1530   43.6730 O   0  0  0  0  0  0  0  0  0  0  0  0
   39.4610   29.8150   42.1200 C   0  0  0  0  0  0  0  0  0  0  0  0
   40.8970   29.8600   42.2110 C   0  0  0  0  0  0  0  0  0  0  0  0
   41.5430   30.7650   41.3900 C   0  0  0  0  0  0  0  0  0  0  0  0
   40.7920   31.5420   40.5610 N   0  0  0  0  0  0  0  0  0  0  0  0
   39.4270   31.4560   40.5160 C   0  0  0  0  0  0  0  0  0  0  0  0
   38.8120   30.6170   41.2770 N   0  0  0  0  0  0  0  0  0  0  0  0
   41.5470   29.2970   42.8240 H   0  0  0  0  0  0  0  0  0  0  0  0
   42.6240   30.8870   41.3730 H   0  0  0  0  0  0  0  0  0  0  0  0
   38.6910   32.3380   39.5810 C   0  0  1  0  0  0  0  0  0  0  0  0
   37.3130   32.8280   39.9630 C   0  0  0  0  0  0  0  0  0  0  0  0
   38.5100   33.7270   40.0560 C   0  0  1  0  0  0  0  0  0  0  0  0
   38.8820   32.1920   38.5180 H   0  0  0  0  0  0  0  0  0  0  0  0
   36.8780   32.3540   40.8760 H   0  0  0  0  0  0  0  0  0  0  0  0
   36.5880   32.9370   39.1290 H   0  0  0  0  0  0  0  0  0  0  0  0
   38.5330   34.5710   39.3250 H   0  0  0  0  0  0  0  0  0  0  0  0
   38.8390   34.0800   41.4290 N   0  0  0  0  0  0  0  0  0  0  0  0
   39.6910   34.6500   41.4680 H   0  0  0  0  0  0  0  0  0  0  0  0
   38.0170   34.4330   41.9440 H   0  0  0  0  0  0  0  0  0  0  0  0
  1  6  2  0  0  0  0
  1  2  1  0  0  0  0
  2 25  1  0  0  0  0
  2  3  2  0  0  0  0
  3  4  1  0  0  0  0
  3  7  1  0  0  0  0
  4  8  1  0  0  0  0
  5  4  2  0  0  0  0
  6  5  1  0  0  0  0
  9  5  1  0  0  0  0
 10  6  1  0  0  0  0
 11  1  1  0  0  0  0
 11 12  2  0  0  0  0
 13 11  2  0  0  0  0
 14 15  1  0  0  0  0
 15 16  1  0  0  0  0
 16 17  2  0  0  0  0
 16 11  1  0  0  0  0
 17 18  1  0  0  0  0
 19 20  1  0  0  0  0
 19 17  1  0  0  0  0
 21 19  2  0  0  0  0
 22 21  1  0  0  0  0
 23 21  1  0  0  0  0
 23 15  2  0  0  0  0
 24 23  1  0  0  0  0
 25 26  2  0  0  0  0
 27 28  1  0  0  0  0
 27 25  1  0  0  0  0
 28 33  1  0  0  0  0
 29 28  2  0  0  0  0
 30 29  1  0  0  0  0
 31 30  2  0  0  0  0
 31 32  1  0  0  0  0
 32 27  2  0  0  0  0
 34 29  1  0  0  0  0
 35 38  1  6  0  0  0
 35 36  1  0  0  0  0
 35 37  1  0  0  0  0
 35 31  1  0  0  0  0
 36 37  1  0  0  0  0
 36 39  1  0  0  0  0
 37 41  1  6  0  0  0
 37 42  1  0  0  0  0
 40 36  1  0  0  0  0
 42 43  1  0  0  0  0
 42 44  1  0  0  0  0
M  END
>  <minimizedAffinity>
-6.53047228

$$$$

 OpenBabel03252508053D

 44 47  0  0  1  0  0  0  0  0999 V2000
   36.6800   29.7600   38.5020 C   0  0  0  0  0  0  0  0  0  0  0  0
   35.8700   29.5710   39.5860 C   0  0  0  0  0  0  0  0  0  0  0  0
   34.6110   28.9740   39.3750 C   0  0  0  0  0  0  0  0  0  0  0  0
   34.1630   28.5740   38.1370 C   0  0  0  0  0  0  0  0  0  0  0  0
   34.9810   28.7660   37.0570 C   0  0  0  0  0  0  0  0  0  0  0  0
   36.1990   29.3440   37.2540 C   0  0  0  0  0  0  0  0  0  0  0  0
   33.8990   28.7920   40.1690 H   0  0  0  0  0  0  0  0  0  0  0  0
   33.2190   28.1260   37.9810 H   0  0  0  0  0  0  0  0  0  0  0  0
   34.7010   28.4820   36.0730 H   0  0  0  0  0  0  0  0  0  0  0  0
   36.8490   29.4940   36.3780 H   0  0  0  0  0  0  0  0  0  0  0  0
   38.2470   30.3580   38.6280 S   0  0  0  0  0  0  0  0  0  0  0  0
   38.4300   30.9580   37.1950 O   0  0  0  0  0  0  0  0  0  0  0  0
   39.2660   29.2910   38.7940 O   0  0  0  0  0  0  0  0  0  0  0  0
   41.2630   30.7470   38.3560 Cl  0  0  0  0  0  0  0  0  0  0  0  0
   40.2230   32.0080   39.0570 C   0  0  0  0  0  0  0  0  0  0  0  0
   38.8190   31.8270   39.2200 C   0  0  0  0  0  0  0  0  0  0  0  0
   38.2550   32.9610   39.7870 C   0  0  0  0  0  0  0  0  0  0  0  0
   37.1600   32.8190   39.8530 H   0  0  0  0  0  0  0  0  0  0  0  0
   38.7880   34.1590   40.1970 C   0  0  0  0  0  0  0  0  0  0  0  0
   38.1470   34.9030   40.6160 H   0  0  0  0  0  0  0  0  0  0  0  0
   40.1310   34.1420   39.9620 C   0  0  0  0  0  0  0  0  0  0  0  0
   40.6530   35.0520   40.2570 H   0  0  0  0  0  0  0  0  0  0  0  0
   40.8960   33.1490   39.4170 C   0  0  0  0  0  0  0  0  0  0  0  0
   42.6180   33.3650   39.1980 Cl  0  0  0  0  0  0  0  0  0  0  0  0
   36.2500   29.9570   40.9330 C   0  0  0  0  0  0  0  0  0  0  0  0
   35.9980   31.0830   41.4540 O   0  0  0  0  0  0  0  0  0  0  0  0
   36.9570   28.9160   41.6420 C   0  0  0  0  0  0  0  0  0  0  0  0
   38.0790   29.3530   42.4300 C   0  0  0  0  0  0  0  0  0  0  0  0
   38.7710   28.3760   43.1190 C   0  0  0  0  0  0  0  0  0  0  0  0
   38.3550   27.0840   43.0100 N   0  0  0  0  0  0  0  0  0  0  0  0
   37.2790   26.7260   42.2450 C   0  0  0  0  0  0  0  0  0  0  0  0
   36.6240   27.6270   41.5960 N   0  0  0  0  0  0  0  0  0  0  0  0
   38.4640   30.3280   42.5640 H   0  0  0  0  0  0  0  0  0  0  0  0
   39.6350   28.5890   43.7460 H   0  0  0  0  0  0  0  0  0  0  0  0
   36.8940   25.2960   42.1870 C   0  0  1  0  0  0  0  0  0  0  0  0
   36.8450   24.6020   40.8460 C   0  0  0  0  0  0  0  0  0  0  0  0
   37.9850   24.3780   41.7950 C   0  0  1  0  0  0  0  0  0  0  0  0
   36.1940   24.9470   42.9460 H   0  0  0  0  0  0  0  0  0  0  0  0
   36.9580   25.2720   39.9610 H   0  0  0  0  0  0  0  0  0  0  0  0
   36.0530   23.8340   40.7260 H   0  0  0  0  0  0  0  0  0  0  0  0
   38.0410   23.3580   42.2450 H   0  0  0  0  0  0  0  0  0  0  0  0
   39.2430   24.9100   41.2920 N   0  0  0  0  0  0  0  0  0  0  0  0
   39.9940   24.7930   41.9820 H   0  0  0  0  0  0  0  0  0  0  0  0
   39.4400   24.5920   40.3310 H   0  0  0  0  0  0  0  0  0  0  0  0
  1 11  1  0  0  0  0
  1  2  1  0  0  0  0
  2 25  1  0  0  0  0
  3  2  2  0  0  0  0
  3  7  1  0  0  0  0
  4  3  1  0  0  0  0
  5  6  1  0  0  0  0
  5  4  2  0  0  0  0
  6  1  2  0  0  0  0
  8  4  1  0  0  0  0
  9  5  1  0  0  0  0
 10  6  1  0  0  0  0
 11 13  2  0  0  0  0
 11 16  1  0  0  0  0
 12 11  2  0  0  0  0
 14 15  1  0  0  0  0
 15 16  2  0  0  0  0
 15 23  1  0  0  0  0
 16 17  1  0  0  0  0
 17 18  1  0  0  0  0
 17 19  2  0  0  0  0
 19 20  1  0  0  0  0
 21 19  1  0  0  0  0
 21 22  1  0  0  0  0
 23 21  2  0  0  0  0
 24 23  1  0  0  0  0
 25 26  2  0  0  0  0
 25 27  1  0  0  0  0
 27 28  1  0  0  0  0
 28 33  1  0  0  0  0
 28 29  2  0  0  0  0
 29 34  1  0  0  0  0
 30 29  1  0  0  0  0
 31 30  2  0  0  0  0
 32 27  2  0  0  0  0
 32 31  1  0  0  0  0
 35 31  1  0  0  0  0
 35 38  1  1  0  0  0
 36 37  1  0  0  0  0
 36 35  1  0  0  0  0
 37 35  1  0  0  0  0
 37 41  1  1  0  0  0
 39 36  1  0  0  0  0
 40 36  1  0  0  0  0
 42 37  1  0  0  0  0
 42 43  1  0  0  0  0
 44 42  1  0  0  0  0
M  END
>  <minimizedAffinity>
-6.5175004

$$$$

 OpenBabel03252508053D

 44 47  0  0  1  0  0  0  0  0999 V2000
   40.2510   28.4280   42.5000 C   0  0  0  0  0  0  0  0  0  0  0  0
   39.2310   29.3290   42.6160 C   0  0  0  0  0  0  0  0  0  0  0  0
   39.5620   30.6940   42.7320 C   0  0  0  0  0  0  0  0  0  0  0  0
   40.8580   31.1590   42.7320 C   0  0  0  0  0  0  0  0  0  0  0  0
   41.8740   30.2500   42.6140 C   0  0  0  0  0  0  0  0  0  0  0  0
   41.5600   28.9290   42.5040 C   0  0  0  0  0  0  0  0  0  0  0  0
   38.8240   31.4780   42.8370 H   0  0  0  0  0  0  0  0  0  0  0  0
   41.1040   32.1830   42.8190 H   0  0  0  0  0  0  0  0  0  0  0  0
   42.8960   30.5370   42.6070 H   0  0  0  0  0  0  0  0  0  0  0  0
   42.3860   28.2070   42.4100 H   0  0  0  0  0  0  0  0  0  0  0  0
   39.9940   26.7860   42.2440 S   0  0  0  0  0  0  0  0  0  0  0  0
   39.5500   26.3490   43.6790 O   0  0  0  0  0  0  0  0  0  0  0  0
   41.2380   26.0450   41.9210 O   0  0  0  0  0  0  0  0  0  0  0  0
   39.4670   27.1330   39.2560 Cl  0  0  0  0  0  0  0  0  0  0  0  0
   38.4280   26.1060   40.2700 C   0  0  0  0  0  0  0  0  0  0  0  0
   38.6420   25.9610   41.6710 C   0  0  0  0  0  0  0  0  0  0  0  0
   37.6920   25.1070   42.2120 C   0  0  0  0  0  0  0  0  0  0  0  0
   37.9110   24.9660   43.2870 H   0  0  0  0  0  0  0  0  0  0  0  0
   36.6390   24.4190   41.6600 C   0  0  0  0  0  0  0  0  0  0  0  0
   36.0250   23.8080   42.2860 H   0  0  0  0  0  0  0  0  0  0  0  0
   36.5970   24.6830   40.3240 C   0  0  0  0  0  0  0  0  0  0  0  0
   35.7890   24.1840   39.7900 H   0  0  0  0  0  0  0  0  0  0  0  0
   37.4200   25.4810   39.5790 C   0  0  0  0  0  0  0  0  0  0  0  0
   37.1750   25.6570   37.8560 Cl  0  0  0  0  0  0  0  0  0  0  0  0
   37.8320   28.9400   42.6240 C   0  0  0  0  0  0  0  0  0  0  0  0
   37.2560   28.3550   43.5890 O   0  0  0  0  0  0  0  0  0  0  0  0
   37.1400   29.2900   41.4070 C   0  0  0  0  0  0  0  0  0  0  0  0
   35.9780   28.4970   41.1030 C   0  0  0  0  0  0  0  0  0  0  0  0
   35.2970   28.8130   39.9430 C   0  0  0  0  0  0  0  0  0  0  0  0
   35.7600   29.8370   39.1750 N   0  0  0  0  0  0  0  0  0  0  0  0
   36.8730   30.5580   39.5130 C   0  0  0  0  0  0  0  0  0  0  0  0
   37.5180   30.2740   40.5920 N   0  0  0  0  0  0  0  0  0  0  0  0
   35.5570   27.6910   41.6420 H   0  0  0  0  0  0  0  0  0  0  0  0
   34.4060   28.2810   39.6130 H   0  0  0  0  0  0  0  0  0  0  0  0
   37.3030   31.6580   38.6190 C   0  0  1  0  0  0  0  0  0  0  0  0
   38.7800   31.9240   38.4400 C   0  0  0  0  0  0  0  0  0  0  0  0
   37.9830   31.2190   37.3820 C   0  0  1  0  0  0  0  0  0  0  0  0
   36.6380   32.5190   38.5480 H   0  0  0  0  0  0  0  0  0  0  0  0
   39.4510   31.3560   39.1280 H   0  0  0  0  0  0  0  0  0  0  0  0
   39.0700   32.9880   38.3120 H   0  0  0  0  0  0  0  0  0  0  0  0
   37.8340   31.7890   36.4340 H   0  0  0  0  0  0  0  0  0  0  0  0
   38.3790   29.8270   37.2200 N   0  0  0  0  0  0  0  0  0  0  0  0
   37.7830   29.3540   36.5300 H   0  0  0  0  0  0  0  0  0  0  0  0
   39.3980   29.7280   37.1010 H   0  0  0  0  0  0  0  0  0  0  0  0
  1  6  2  0  0  0  0
  1  2  1  0  0  0  0
  2 25  1  0  0  0  0
  2  3  2  0  0  0  0
  3  7  1  0  0  0  0
  4  3  1  0  0  0  0
  4  8  1  0  0  0  0
  5  4  2  0  0  0  0
  6  5  1  0  0  0  0
  9  5  1  0  0  0  0
 10  6  1  0  0  0  0
 11  1  1  0  0  0  0
 11 12  2  0  0  0  0
 13 11  2  0  0  0  0
 14 15  1  0  0  0  0
 15 16  1  0  0  0  0
 16 17  2  0  0  0  0
 16 11  1  0  0  0  0
 17 18  1  0  0  0  0
 19 17  1  0  0  0  0
 19 20  1  0  0  0  0
 21 19  2  0  0  0  0
 22 21  1  0  0  0  0
 23 15  2  0  0  0  0
 23 21  1  0  0  0  0
 24 23  1  0  0  0  0
 25 26  2  0  0  0  0
 27 25  1  0  0  0  0
 28 27  1  0  0  0  0
 28 33  1  0  0  0  0
 29 28  2  0  0  0  0
 30 31  2  0  0  0  0
 30 29  1  0  0  0  0
 31 32  1  0  0  0  0
 32 27  2  0  0  0  0
 34 29  1  0  0  0  0
 35 38  1  6  0  0  0
 35 31  1  0  0  0  0
 36 35  1  0  0  0  0
 36 39  1  0  0  0  0
 37 41  1  6  0  0  0
 37 36  1  0  0  0  0
 37 35  1  0  0  0  0
 40 36  1  0  0  0  0
 42 37  1  0  0  0  0
 43 42  1  0  0  0  0
 44 42  1  0  0  0  0
M  END
>  <minimizedAffinity>
-6.12590313

$$$$

 OpenBabel03252508053D

 44 47  0  0  1  0  0  0  0  0999 V2000
   36.8320   28.8000   39.8600 C   0  0  0  0  0  0  0  0  0  0  0  0
   37.6000   28.8770   38.7320 C   0  0  0  0  0  0  0  0  0  0  0  0
   36.9490   29.0830   37.5000 C   0  0  0  0  0  0  0  0  0  0  0  0
   35.5830   29.2090   37.3790 C   0  0  0  0  0  0  0  0  0  0  0  0
   34.8220   29.1310   38.5130 C   0  0  0  0  0  0  0  0  0  0  0  0
   35.4460   28.9310   39.7080 C   0  0  0  0  0  0  0  0  0  0  0  0
   37.4710   29.1490   36.5550 H   0  0  0  0  0  0  0  0  0  0  0  0
   35.0960   29.3630   36.4540 H   0  0  0  0  0  0  0  0  0  0  0  0
   33.7640   29.2200   38.4960 H   0  0  0  0  0  0  0  0  0  0  0  0
   34.8220   28.8700   40.6140 H   0  0  0  0  0  0  0  0  0  0  0  0
   37.4880   28.6680   41.4030 S   0  0  0  0  0  0  0  0  0  0  0  0
   36.2260   28.1990   42.2000 O   0  0  0  0  0  0  0  0  0  0  0  0
   37.9080   29.9740   41.9700 O   0  0  0  0  0  0  0  0  0  0  0  0
   36.8330   25.9030   40.2880 Cl  0  0  0  0  0  0  0  0  0  0  0  0
   38.0260   26.1210   41.5890 C   0  0  0  0  0  0  0  0  0  0  0  0
   38.3160   27.4020   42.1410 C   0  0  0  0  0  0  0  0  0  0  0  0
   39.2780   27.2860   43.1340 C   0  0  0  0  0  0  0  0  0  0  0  0
   39.5280   28.2960   43.5090 H   0  0  0  0  0  0  0  0  0  0  0  0
   39.9570   26.2070   43.6490 C   0  0  0  0  0  0  0  0  0  0  0  0
   40.6690   26.3590   44.4310 H   0  0  0  0  0  0  0  0  0  0  0  0
   39.5460   25.0820   42.9990 C   0  0  0  0  0  0  0  0  0  0  0  0
   40.0250   24.1640   43.3370 H   0  0  0  0  0  0  0  0  0  0  0  0
   38.6230   24.9560   41.9980 C   0  0  0  0  0  0  0  0  0  0  0  0
   38.2670   23.3910   41.3030 Cl  0  0  0  0  0  0  0  0  0  0  0  0
   39.0470   28.7580   38.7530 C   0  0  0  0  0  0  0  0  0  0  0  0
   39.6750   27.6770   38.9560 O   0  0  0  0  0  0  0  0  0  0  0  0
   39.7220   30.0130   38.5150 C   0  0  0  0  0  0  0  0  0  0  0  0
   40.8480   29.9510   37.6200 C   0  0  0  0  0  0  0  0  0  0  0  0
   41.5100   31.1380   37.3740 C   0  0  0  0  0  0  0  0  0  0  0  0
   41.0640   32.2710   37.9840 N   0  0  0  0  0  0  0  0  0  0  0  0
   39.9860   32.2700   38.8280 C   0  0  0  0  0  0  0  0  0  0  0  0
   39.3590   31.1690   39.0660 N   0  0  0  0  0  0  0  0  0  0  0  0
   41.2550   29.1190   37.1120 H   0  0  0  0  0  0  0  0  0  0  0  0
   42.3740   31.2120   36.7160 H   0  0  0  0  0  0  0  0  0  0  0  0
   39.5670   33.5500   39.4440 C   0  0  1  0  0  0  0  0  0  0  0  0
   38.9400   33.5330   40.8200 C   0  0  0  0  0  0  0  0  0  0  0  0
   40.3650   33.9590   40.6210 C   0  0  1  0  0  0  0  0  0  0  0  0
   39.2360   34.3350   38.7650 H   0  0  0  0  0  0  0  0  0  0  0  0
   38.6940   32.5190   41.2150 H   0  0  0  0  0  0  0  0  0  0  0  0
   38.1460   34.2870   41.0010 H   0  0  0  0  0  0  0  0  0  0  0  0
   40.5710   35.0410   40.8030 H   0  0  0  0  0  0  0  0  0  0  0  0
   41.3140   33.0320   41.2190 N   0  0  0  0  0  0  0  0  0  0  0  0
   42.2810   33.3170   41.0220 H   0  0  0  0  0  0  0  0  0  0  0  0
   41.0810   32.8220   42.2010 H   0  0  0  0  0  0  0  0  0  0  0  0
  1 11  1  0  0  0  0
  2 25  1  0  0  0  0
  2  1  2  0  0  0  0
  3  2  1  0  0  0  0
  4  3  2  0  0  0  0
  4  5  1  0  0  0  0
  5  6  2  0  0  0  0
  6  1  1  0  0  0  0
  6 10  1  0  0  0  0
  7  3  1  0  0  0  0
  8  4  1  0  0  0  0
  9  5  1  0  0  0  0
 11 13  2  0  0  0  0
 11 16  1  0  0  0  0
 11 12  2  0  0  0  0
 14 15  1  0  0  0  0
 15 23  2  0  0  0  0
 15 16  1  0  0  0  0
 16 17  2  0  0  0  0
 17 18  1  0  0  0  0
 17 19  1  0  0  0  0
 19 20  1  0  0  0  0
 21 22  1  0  0  0  0
 21 19  2  0  0  0  0
 23 21  1  0  0  0  0
 24 23  1  0  0  0  0
 25 26  2  0  0  0  0
 27 25  1  0  0  0  0
 27 32  1  0  0  0  0
 28 27  2  0  0  0  0
 29 28  1  0  0  0  0
 29 30  2  0  0  0  0
 30 31  1  0  0  0  0
 31 32  2  0  0  0  0
 31 35  1  0  0  0  0
 33 28  1  0  0  0  0
 34 29  1  0  0  0  0
 35 38  1  6  0  0  0
 35 37  1  0  0  0  0
 35 36  1  0  0  0  0
 36 40  1  0  0  0  0
 36 39  1  0  0  0  0
 37 41  1  1  0  0  0
 37 36  1  0  0  0  0
 37 42  1  0  0  0  0
 42 44  1  0  0  0  0
 43 42  1  0  0  0  0
M  END
>  <minimizedAffinity>
-6.0687542

$$$$

 OpenBabel03252508053D

 44 47  0  0  1  0  0  0  0  0999 V2000
   36.6360   29.8540   38.4480 C   0  0  0  0  0  0  0  0  0  0  0  0
   35.9190   29.6300   39.5900 C   0  0  0  0  0  0  0  0  0  0  0  0
   34.6600   29.0070   39.4700 C   0  0  0  0  0  0  0  0  0  0  0  0
   34.1230   28.6170   38.2640 C   0  0  0  0  0  0  0  0  0  0  0  0
   34.8480   28.8440   37.1260 C   0  0  0  0  0  0  0  0  0  0  0  0
   36.0650   29.4470   37.2360 C   0  0  0  0  0  0  0  0  0  0  0  0
   34.0180   28.7970   40.3140 H   0  0  0  0  0  0  0  0  0  0  0  0
   33.1790   28.1500   38.1760 H   0  0  0  0  0  0  0  0  0  0  0  0
   34.4970   28.5690   36.1630 H   0  0  0  0  0  0  0  0  0  0  0  0
   36.6390   29.6250   36.3130 H   0  0  0  0  0  0  0  0  0  0  0  0
   38.1940   30.4860   38.4600 S   0  0  0  0  0  0  0  0  0  0  0  0
   38.1990   31.2320   37.0850 O   0  0  0  0  0  0  0  0  0  0  0  0
   39.2470   29.4410   38.3990 O   0  0  0  0  0  0  0  0  0  0  0  0
   41.1840   30.9210   38.0230 Cl  0  0  0  0  0  0  0  0  0  0  0  0
   40.1900   32.1110   38.8930 C   0  0  0  0  0  0  0  0  0  0  0  0
   38.8010   31.9050   39.1330 C   0  0  0  0  0  0  0  0  0  0  0  0
   38.2720   32.9830   39.8280 C   0  0  0  0  0  0  0  0  0  0  0  0
   37.1840   32.8280   39.9540 H   0  0  0  0  0  0  0  0  0  0  0  0
   38.8290   34.1480   40.3000 C   0  0  0  0  0  0  0  0  0  0  0  0
   38.2150   34.8490   40.8220 H   0  0  0  0  0  0  0  0  0  0  0  0
   40.1530   34.1610   39.9770 C   0  0  0  0  0  0  0  0  0  0  0  0
   40.6910   35.0470   40.3120 H   0  0  0  0  0  0  0  0  0  0  0  0
   40.8820   33.2230   39.3020 C   0  0  0  0  0  0  0  0  0  0  0  0
   42.5860   33.4700   38.9900 Cl  0  0  0  0  0  0  0  0  0  0  0  0
   36.3970   30.0030   40.9090 C   0  0  0  0  0  0  0  0  0  0  0  0
   36.2080   31.1340   41.4470 O   0  0  0  0  0  0  0  0  0  0  0  0
   37.1240   28.9440   41.5680 C   0  0  0  0  0  0  0  0  0  0  0  0
   36.3180   27.8800   42.1070 C   0  0  0  0  0  0  0  0  0  0  0  0
   36.9900   26.8540   42.7420 C   0  0  0  0  0  0  0  0  0  0  0  0
   38.3480   26.9130   42.8170 N   0  0  0  0  0  0  0  0  0  0  0  0
   39.0640   27.9510   42.2850 C   0  0  0  0  0  0  0  0  0  0  0  0
   38.4500   28.9160   41.6910 N   0  0  0  0  0  0  0  0  0  0  0  0
   35.2680   27.7620   42.0920 H   0  0  0  0  0  0  0  0  0  0  0  0
   36.4850   25.9980   43.1870 H   0  0  0  0  0  0  0  0  0  0  0  0
   40.5400   27.9310   42.4100 C   0  0  1  0  0  0  0  0  0  0  0  0
   41.2860   26.6530   42.1050 C   0  0  0  0  0  0  0  0  0  0  0  0
   41.2670   27.7920   41.1290 C   0  0  1  0  0  0  0  0  0  0  0  0
   40.9760   28.5850   43.1650 H   0  0  0  0  0  0  0  0  0  0  0  0
   40.6420   25.7540   41.9520 H   0  0  0  0  0  0  0  0  0  0  0  0
   42.1860   26.4560   42.7250 H   0  0  0  0  0  0  0  0  0  0  0  0
   42.2420   28.3150   40.9850 H   0  0  0  0  0  0  0  0  0  0  0  0
   40.5420   27.4690   39.9090 N   0  0  0  0  0  0  0  0  0  0  0  0
   40.4970   28.2820   39.2830 H   0  0  0  0  0  0  0  0  0  0  0  0
   40.8590   26.5790   39.4960 H   0  0  0  0  0  0  0  0  0  0  0  0
  1 11  1  0  0  0  0
  1  2  1  0  0  0  0
  2 25  1  0  0  0  0
  3  2  2  0  0  0  0
  3  7  1  0  0  0  0
  4  3  1  0  0  0  0
  5  6  1  0  0  0  0
  5  4  2  0  0  0  0
  6  1  2  0  0  0  0
  8  4  1  0  0  0  0
  9  5  1  0  0  0  0
 10  6  1  0  0  0  0
 11 16  1  0  0  0  0
 12 11  2  0  0  0  0
 13 11  2  0  0  0  0
 14 15  1  0  0  0  0
 15 16  2  0  0  0  0
 15 23  1  0  0  0  0
 16 17  1  0  0  0  0
 17 18  1  0  0  0  0
 17 19  2  0  0  0  0
 19 20  1  0  0  0  0
 21 19  1  0  0  0  0
 21 22  1  0  0  0  0
 23 21  2  0  0  0  0
 24 23  1  0  0  0  0
 25 26  2  0  0  0  0
 25 27  1  0  0  0  0
 27 32  2  0  0  0  0
 27 28  1  0  0  0  0
 28 29  2  0  0  0  0
 29 30  1  0  0  0  0
 29 34  1  0  0  0  0
 31 35  1  0  0  0  0
 31 30  2  0  0  0  0
 32 31  1  0  0  0  0
 33 28  1  0  0  0  0
 35 38  1  1  0  0  0
 36 35  1  0  0  0  0
 36 40  1  0  0  0  0
 37 41  1  6  0  0  0
 37 36  1  0  0  0  0
 37 35  1  0  0  0  0
 39 36  1  0  0  0  0
 42 37  1  0  0  0  0
 43 42  1  0  0  0  0
 44 42  1  0  0  0  0
M  END
>  <minimizedAffinity>
-6.01629496

$$$$

 OpenBabel03252508053D

 44 47  0  0  1  0  0  0  0  0999 V2000
   39.2240   26.4570   41.9650 C   0  0  0  0  0  0  0  0  0  0  0  0
   37.9430   26.8120   42.2820 C   0  0  0  0  0  0  0  0  0  0  0  0
   36.9710   25.7930   42.3500 C   0  0  0  0  0  0  0  0  0  0  0  0
   37.2500   24.4660   42.1140 C   0  0  0  0  0  0  0  0  0  0  0  0
   38.5360   24.1190   41.7990 C   0  0  0  0  0  0  0  0  0  0  0  0
   39.4800   25.1000   41.7300 C   0  0  0  0  0  0  0  0  0  0  0  0
   35.9310   25.9780   42.5830 H   0  0  0  0  0  0  0  0  0  0  0  0
   36.5210   23.7040   42.1650 H   0  0  0  0  0  0  0  0  0  0  0  0
   38.8240   23.1160   41.6050 H   0  0  0  0  0  0  0  0  0  0  0  0
   40.5110   24.8090   41.4750 H   0  0  0  0  0  0  0  0  0  0  0  0
   40.4990   27.5530   41.9590 S   0  0  0  0  0  0  0  0  0  0  0  0
   41.6610   26.6220   41.4800 O   0  0  0  0  0  0  0  0  0  0  0  0
   40.8540   28.0410   43.3150 O   0  0  0  0  0  0  0  0  0  0  0  0
   40.3480   30.4860   42.7960 Cl  0  0  0  0  0  0  0  0  0  0  0  0
   40.9610   30.0060   41.1960 C   0  0  0  0  0  0  0  0  0  0  0  0
   41.0050   28.6440   40.7800 C   0  0  0  0  0  0  0  0  0  0  0  0
   41.5240   28.5550   39.4970 C   0  0  0  0  0  0  0  0  0  0  0  0
   41.6020   27.4880   39.2170 H   0  0  0  0  0  0  0  0  0  0  0  0
   41.9740   29.5010   38.6080 C   0  0  0  0  0  0  0  0  0  0  0  0
   42.3370   29.1940   37.6520 H   0  0  0  0  0  0  0  0  0  0  0  0
   41.8520   30.7310   39.1820 C   0  0  0  0  0  0  0  0  0  0  0  0
   42.1810   31.5580   38.5530 H   0  0  0  0  0  0  0  0  0  0  0  0
   41.3760   31.0590   40.4200 C   0  0  0  0  0  0  0  0  0  0  0  0
   41.3280   32.7270   40.9480 Cl  0  0  0  0  0  0  0  0  0  0  0  0
   37.5470   28.1830   42.5490 C   0  0  0  0  0  0  0  0  0  0  0  0
   37.6320   28.7460   43.6790 O   0  0  0  0  0  0  0  0  0  0  0  0
   37.0360   28.8620   41.3820 C   0  0  0  0  0  0  0  0  0  0  0  0
   35.6590   28.5930   41.0600 C   0  0  0  0  0  0  0  0  0  0  0  0
   35.1460   29.2320   39.9480 C   0  0  0  0  0  0  0  0  0  0  0  0
   35.9610   30.0610   39.2390 N   0  0  0  0  0  0  0  0  0  0  0  0
   37.2650   30.2790   39.5920 C   0  0  0  0  0  0  0  0  0  0  0  0
   37.7570   29.6900   40.6270 N   0  0  0  0  0  0  0  0  0  0  0  0
   34.9660   27.9670   41.5540 H   0  0  0  0  0  0  0  0  0  0  0  0
   34.1190   29.1040   39.6100 H   0  0  0  0  0  0  0  0  0  0  0  0
   38.0780   31.2000   38.7650 C   0  0  1  0  0  0  0  0  0  0  0  0
   37.3810   32.2660   37.9500 C   0  0  0  0  0  0  0  0  0  0  0  0
   38.0870   32.6040   39.2300 C   0  0  1  0  0  0  0  0  0  0  0  0
   39.0070   30.8010   38.3570 H   0  0  0  0  0  0  0  0  0  0  0  0
   36.2690   32.1810   37.9130 H   0  0  0  0  0  0  0  0  0  0  0  0
   37.8430   32.5080   36.9700 H   0  0  0  0  0  0  0  0  0  0  0  0
   39.0110   33.2200   39.1190 H   0  0  0  0  0  0  0  0  0  0  0  0
   37.1710   33.0330   40.2760 N   0  0  0  0  0  0  0  0  0  0  0  0
   37.6720   33.2070   41.1550 H   0  0  0  0  0  0  0  0  0  0  0  0
   36.5330   33.7750   39.9500 H   0  0  0  0  0  0  0  0  0  0  0  0
  1  2  1  0  0  0  0
  2  3  2  0  0  0  0
  2 25  1  0  0  0  0
  3  7  1  0  0  0  0
  4  8  1  0  0  0  0
  4  3  1  0  0  0  0
  5  4  2  0  0  0  0
  6  5  1  0  0  0  0
  6  1  2  0  0  0  0
  9  5  1  0  0  0  0
 10  6  1  0  0  0  0
 11  1  1  0  0  0  0
 11 13  2  0  0  0  0
 12 11  2  0  0  0  0
 15 14  1  0  0  0  0
 16 15  1  0  0  0  0
 16 11  1  0  0  0  0
 17 16  2  0  0  0  0
 18 17  1  0  0  0  0
 19 21  2  0  0  0  0
 19 17  1  0  0  0  0
 20 19  1  0  0  0  0
 21 23  1  0  0  0  0
 22 21  1  0  0  0  0
 23 24  1  0  0  0  0
 23 15  2  0  0  0  0
 25 26  2  0  0  0  0
 27 25  1  0  0  0  0
 28 27  1  0  0  0  0
 28 33  1  0  0  0  0
 29 28  2  0  0  0  0
 30 31  2  0  0  0  0
 30 29  1  0  0  0  0
 31 32  1  0  0  0  0
 32 27  2  0  0  0  0
 34 29  1  0  0  0  0
 35 38  1  6  0  0  0
 35 37  1  0  0  0  0
 35 31  1  0  0  0  0
 36 35  1  0  0  0  0
 36 37  1  0  0  0  0
 37 41  1  6  0  0  0
 37 42  1  0  0  0  0
 39 36  1  0  0  0  0
 40 36  1  0  0  0  0
 42 43  1  0  0  0  0
 44 42  1  0  0  0  0
M  END
>  <minimizedAffinity>
-5.99937105

$$$$

 OpenBabel03252508053D

 44 47  0  0  1  0  0  0  0  0999 V2000
   36.7980   27.0230   40.2620 C   0  0  0  0  0  0  0  0  0  0  0  0
   36.5530   28.2140   40.8840 C   0  0  0  0  0  0  0  0  0  0  0  0
   36.7270   28.2790   42.2810 C   0  0  0  0  0  0  0  0  0  0  0  0
   37.1310   27.2060   43.0430 C   0  0  0  0  0  0  0  0  0  0  0  0
   37.3760   26.0170   42.4110 C   0  0  0  0  0  0  0  0  0  0  0  0
   37.2070   25.9480   41.0600 C   0  0  0  0  0  0  0  0  0  0  0  0
   36.5480   29.1740   42.8620 H   0  0  0  0  0  0  0  0  0  0  0  0
   37.2610   27.2570   44.0900 H   0  0  0  0  0  0  0  0  0  0  0  0
   37.6900   25.1490   42.9340 H   0  0  0  0  0  0  0  0  0  0  0  0
   37.4070   24.9850   40.5630 H   0  0  0  0  0  0  0  0  0  0  0  0
   36.7360   26.8370   38.5910 S   0  0  0  0  0  0  0  0  0  0  0  0
   36.4390   25.3040   38.4950 O   0  0  0  0  0  0  0  0  0  0  0  0
   38.0430   27.0760   37.9300 O   0  0  0  0  0  0  0  0  0  0  0  0
   37.1210   29.1670   36.6550 Cl  0  0  0  0  0  0  0  0  0  0  0  0
   35.6770   28.1310   36.5880 C   0  0  0  0  0  0  0  0  0  0  0  0
   35.4680   27.0620   37.5060 C   0  0  0  0  0  0  0  0  0  0  0  0
   34.2690   26.4220   37.2280 C   0  0  0  0  0  0  0  0  0  0  0  0
   34.1560   25.5630   37.9160 H   0  0  0  0  0  0  0  0  0  0  0  0
   33.3020   26.6330   36.2750 C   0  0  0  0  0  0  0  0  0  0  0  0
   32.4410   26.0010   36.2520 H   0  0  0  0  0  0  0  0  0  0  0  0
   33.6770   27.6890   35.5000 C   0  0  0  0  0  0  0  0  0  0  0  0
   32.9700   27.9420   34.7100 H   0  0  0  0  0  0  0  0  0  0  0  0
   34.8010   28.4610   35.5840 C   0  0  0  0  0  0  0  0  0  0  0  0
   35.0750   29.7690   34.4540 Cl  0  0  0  0  0  0  0  0  0  0  0  0
   36.1240   29.4040   40.1710 C   0  0  0  0  0  0  0  0  0  0  0  0
   34.9540   29.5890   39.7240 O   0  0  0  0  0  0  0  0  0  0  0  0
   37.1760   30.3810   40.0150 C   0  0  0  0  0  0  0  0  0  0  0  0
   36.8540   31.7140   40.4510 C   0  0  0  0  0  0  0  0  0  0  0  0
   37.8450   32.6670   40.3140 C   0  0  0  0  0  0  0  0  0  0  0  0
   39.0410   32.2910   39.7840 N   0  0  0  0  0  0  0  0  0  0  0  0
   39.2920   31.0050   39.3860 C   0  0  0  0  0  0  0  0  0  0  0  0
   38.3770   30.1060   39.5080 N   0  0  0  0  0  0  0  0  0  0  0  0
   35.9560   32.0840   40.8680 H   0  0  0  0  0  0  0  0  0  0  0  0
   37.7150   33.7070   40.6090 H   0  0  0  0  0  0  0  0  0  0  0  0
   40.6240   30.6850   38.8240 C   0  0  1  0  0  0  0  0  0  0  0  0
   40.7080   30.0020   37.4780 C   0  0  0  0  0  0  0  0  0  0  0  0
   40.9930   31.4670   37.6240 C   0  0  1  0  0  0  0  0  0  0  0  0
   41.4150   30.4590   39.5380 H   0  0  0  0  0  0  0  0  0  0  0  0
   39.7350   29.6440   37.0670 H   0  0  0  0  0  0  0  0  0  0  0  0
   41.5390   29.2750   37.3540 H   0  0  0  0  0  0  0  0  0  0  0  0
   42.0560   31.7670   37.4630 H   0  0  0  0  0  0  0  0  0  0  0  0
   40.0010   32.2980   36.9590 N   0  0  0  0  0  0  0  0  0  0  0  0
   40.1880   33.2950   37.1200 H   0  0  0  0  0  0  0  0  0  0  0  0
   39.8440   32.0050   35.9830 H   0  0  0  0  0  0  0  0  0  0  0  0
  1  2  2  0  0  0  0
  1  6  1  0  0  0  0
  2  3  1  0  0  0  0
  3  7  1  0  0  0  0
  3  4  2  0  0  0  0
  4  8  1  0  0  0  0
  5  9  1  0  0  0  0
  5  4  1  0  0  0  0
  6  5  2  0  0  0  0
 10  6  1  0  0  0  0
 11  1  1  0  0  0  0
 12 11  2  0  0  0  0
 13 11  2  0  0  0  0
 15 14  1  0  0  0  0
 15 16  1  0  0  0  0
 16 11  1  0  0  0  0
 17 16  2  0  0  0  0
 17 18  1  0  0  0  0
 19 17  1  0  0  0  0
 20 19  1  0  0  0  0
 21 23  1  0  0  0  0
 21 19  2  0  0  0  0
 22 21  1  0  0  0  0
 23 15  2  0  0  0  0
 24 23  1  0  0  0  0
 25  2  1  0  0  0  0
 26 25  2  0  0  0  0
 27 25  1  0  0  0  0
 27 28  1  0  0  0  0
 28 33  1  0  0  0  0
 29 28  2  0  0  0  0
 29 34  1  0  0  0  0
 30 29  1  0  0  0  0
 31 32  1  0  0  0  0
 31 30  2  0  0  0  0
 32 27  2  0  0  0  0
 35 31  1  0  0  0  0
 35 38  1  1  0  0  0
 36 37  1  0  0  0  0
 36 35  1  0  0  0  0
 37 41  1  6  0  0  0
 37 35  1  0  0  0  0
 39 36  1  0  0  0  0
 40 36  1  0  0  0  0
 42 43  1  0  0  0  0
 42 37  1  0  0  0  0
 44 42  1  0  0  0  0
M  END
>  <minimizedAffinity>
-5.96407604

$$$$

 OpenBabel03252508053D

 44 47  0  0  1  0  0  0  0  0999 V2000
   37.3570   30.1090   38.6810 C   0  0  0  0  0  0  0  0  0  0  0  0
   36.6050   30.2600   39.8120 C   0  0  0  0  0  0  0  0  0  0  0  0
   36.5980   31.5230   40.4380 C   0  0  0  0  0  0  0  0  0  0  0  0
   37.3080   32.6040   39.9660 C   0  0  0  0  0  0  0  0  0  0  0  0
   38.0560   32.4430   38.8320 C   0  0  0  0  0  0  0  0  0  0  0  0
   38.0690   31.2240   38.2230 C   0  0  0  0  0  0  0  0  0  0  0  0
   36.0410   31.7360   41.3410 H   0  0  0  0  0  0  0  0  0  0  0  0
   37.3010   33.5500   40.4360 H   0  0  0  0  0  0  0  0  0  0  0  0
   38.6280   33.2330   38.4110 H   0  0  0  0  0  0  0  0  0  0  0  0
   38.6760   31.1070   37.3120 H   0  0  0  0  0  0  0  0  0  0  0  0
   37.3670   28.6910   37.7760 S   0  0  0  0  0  0  0  0  0  0  0  0
   38.3280   27.8150   38.6460 O   0  0  0  0  0  0  0  0  0  0  0  0
   38.0010   28.8540   36.4450 O   0  0  0  0  0  0  0  0  0  0  0  0
   34.6880   29.2140   36.4080 Cl  0  0  0  0  0  0  0  0  0  0  0  0
   35.0790   27.6260   37.1070 C   0  0  0  0  0  0  0  0  0  0  0  0
   36.3120   27.3780   37.7780 C   0  0  0  0  0  0  0  0  0  0  0  0
   36.3560   26.0640   38.2220 C   0  0  0  0  0  0  0  0  0  0  0  0
   37.3420   25.8790   38.6890 H   0  0  0  0  0  0  0  0  0  0  0  0
   35.4650   25.0230   38.1340 C   0  0  0  0  0  0  0  0  0  0  0  0
   35.7180   24.0770   38.5620 H   0  0  0  0  0  0  0  0  0  0  0  0
   34.3570   25.4520   37.4660 C   0  0  0  0  0  0  0  0  0  0  0  0
   33.5820   24.6960   37.3440 H   0  0  0  0  0  0  0  0  0  0  0  0
   34.0950   26.6860   36.9400 C   0  0  0  0  0  0  0  0  0  0  0  0
   32.5910   26.9990   36.1030 Cl  0  0  0  0  0  0  0  0  0  0  0  0
   35.8210   29.1830   40.3900 C   0  0  0  0  0  0  0  0  0  0  0  0
   34.6150   28.9360   40.0930 O   0  0  0  0  0  0  0  0  0  0  0  0
   36.5580   28.4000   41.3530 C   0  0  0  0  0  0  0  0  0  0  0  0
   37.3330   29.1540   42.3020 C   0  0  0  0  0  0  0  0  0  0  0  0
   38.0470   28.4270   43.2360 C   0  0  0  0  0  0  0  0  0  0  0  0
   37.9730   27.0680   43.1990 N   0  0  0  0  0  0  0  0  0  0  0  0
   37.2180   26.4030   42.2710 C   0  0  0  0  0  0  0  0  0  0  0  0
   36.5470   27.0680   41.3940 N   0  0  0  0  0  0  0  0  0  0  0  0
   37.4440   30.2000   42.3960 H   0  0  0  0  0  0  0  0  0  0  0  0
   38.6680   28.8900   44.0020 H   0  0  0  0  0  0  0  0  0  0  0  0
   37.1920   24.9230   42.3070 C   0  0  1  0  0  0  0  0  0  0  0  0
   37.6280   24.1510   41.0830 C   0  0  0  0  0  0  0  0  0  0  0  0
   38.5250   24.2810   42.2780 C   0  0  1  0  0  0  0  0  0  0  0  0
   36.4270   24.4620   42.9300 H   0  0  0  0  0  0  0  0  0  0  0  0
   37.7960   24.7680   40.1680 H   0  0  0  0  0  0  0  0  0  0  0  0
   37.0830   23.2030   40.8870 H   0  0  0  0  0  0  0  0  0  0  0  0
   38.7000   23.3390   42.8510 H   0  0  0  0  0  0  0  0  0  0  0  0
   39.7130   25.0750   42.0010 N   0  0  0  0  0  0  0  0  0  0  0  0
   40.2810   25.1940   42.8480 H   0  0  0  0  0  0  0  0  0  0  0  0
   40.2030   24.7520   41.1530 H   0  0  0  0  0  0  0  0  0  0  0  0
  1  2  1  0  0  0  0
  2 25  1  0  0  0  0
  2  3  2  0  0  0  0
  3  7  1  0  0  0  0
  4  8  1  0  0  0  0
  4  3  1  0  0  0  0
  5  4  2  0  0  0  0
  6  1  2  0  0  0  0
  6  5  1  0  0  0  0
  9  5  1  0  0  0  0
 10  6  1  0  0  0  0
 11 16  1  0  0  0  0
 11 12  2  0  0  0  0
 11  1  1  0  0  0  0
 13 11  2  0  0  0  0
 14 15  1  0  0  0  0
 15 16  1  0  0  0  0
 16 17  2  0  0  0  0
 17 18  1  0  0  0  0
 19 17  1  0  0  0  0
 19 20  1  0  0  0  0
 21 19  2  0  0  0  0
 22 21  1  0  0  0  0
 23 15  2  0  0  0  0
 23 21  1  0  0  0  0
 24 23  1  0  0  0  0
 25 27  1  0  0  0  0
 26 25  2  0  0  0  0
 27 32  2  0  0  0  0
 27 28  1  0  0  0  0
 28 33  1  0  0  0  0
 28 29  2  0  0  0  0
 29 34  1  0  0  0  0
 30 29  1  0  0  0  0
 31 35  1  0  0  0  0
 31 30  2  0  0  0  0
 32 31  1  0  0  0  0
 35 38  1  1  0  0  0
 36 37  1  0  0  0  0
 36 35  1  0  0  0  0
 37 35  1  0  0  0  0
 37 41  1  1  0  0  0
 39 36  1  0  0  0  0
 40 36  1  0  0  0  0
 42 37  1  0  0  0  0
 42 43  1  0  0  0  0
 44 42  1  0  0  0  0
M  END
>  <minimizedAffinity>
-5.91337395

$$$$

 OpenBabel03252508053D

 44 47  0  0  1  0  0  0  0  0999 V2000
   36.6280   29.5680   38.5850 C   0  0  0  0  0  0  0  0  0  0  0  0
   37.1450   30.8310   38.6530 C   0  0  0  0  0  0  0  0  0  0  0  0
   37.4650   31.4810   37.4440 C   0  0  0  0  0  0  0  0  0  0  0  0
   37.2810   30.9080   36.2070 C   0  0  0  0  0  0  0  0  0  0  0  0
   36.7620   29.6430   36.1480 C   0  0  0  0  0  0  0  0  0  0  0  0
   36.4520   29.0080   37.3130 C   0  0  0  0  0  0  0  0  0  0  0  0
   37.8870   32.4760   37.3980 H   0  0  0  0  0  0  0  0  0  0  0  0
   37.5210   31.3960   35.3010 H   0  0  0  0  0  0  0  0  0  0  0  0
   36.5930   29.1390   35.2290 H   0  0  0  0  0  0  0  0  0  0  0  0
   36.0350   27.9910   37.2530 H   0  0  0  0  0  0  0  0  0  0  0  0
   36.1010   28.7240   39.9410 S   0  0  0  0  0  0  0  0  0  0  0  0
   36.1480   27.2610   39.3910 O   0  0  0  0  0  0  0  0  0  0  0  0
   34.6910   29.0180   40.2980 O   0  0  0  0  0  0  0  0  0  0  0  0
   39.0240   28.0340   39.3910 Cl  0  0  0  0  0  0  0  0  0  0  0  0
   38.3200   27.8670   41.0160 C   0  0  0  0  0  0  0  0  0  0  0  0
   36.9500   28.1540   41.2800 C   0  0  0  0  0  0  0  0  0  0  0  0
   36.6680   27.9420   42.6220 C   0  0  0  0  0  0  0  0  0  0  0  0
   35.6160   28.2240   42.8140 H   0  0  0  0  0  0  0  0  0  0  0  0
   37.4400   27.5230   43.6780 C   0  0  0  0  0  0  0  0  0  0  0  0
   36.9990   27.4280   44.6460 H   0  0  0  0  0  0  0  0  0  0  0  0
   38.7080   27.3000   43.2310 C   0  0  0  0  0  0  0  0  0  0  0  0
   39.4040   26.9590   43.9970 H   0  0  0  0  0  0  0  0  0  0  0  0
   39.2120   27.4420   41.9680 C   0  0  0  0  0  0  0  0  0  0  0  0
   40.8960   27.1060   41.6340 Cl  0  0  0  0  0  0  0  0  0  0  0  0
   37.3760   31.5230   39.9080 C   0  0  0  0  0  0  0  0  0  0  0  0
   36.4600   31.9110   40.6920 O   0  0  0  0  0  0  0  0  0  0  0  0
   38.7760   31.7340   40.1900 C   0  0  0  0  0  0  0  0  0  0  0  0
   39.2590   31.1430   41.4100 C   0  0  0  0  0  0  0  0  0  0  0  0
   40.5970   31.3280   41.7020 C   0  0  0  0  0  0  0  0  0  0  0  0
   41.3590   32.0460   40.8320 N   0  0  0  0  0  0  0  0  0  0  0  0
   40.8450   32.5860   39.6840 C   0  0  0  0  0  0  0  0  0  0  0  0
   39.5990   32.4210   39.3990 N   0  0  0  0  0  0  0  0  0  0  0  0
   38.7360   30.5780   42.1340 H   0  0  0  0  0  0  0  0  0  0  0  0
   41.0720   30.9280   42.5960 H   0  0  0  0  0  0  0  0  0  0  0  0
   41.7500   33.3490   38.7930 C   0  0  1  0  0  0  0  0  0  0  0  0
   42.9630   32.6600   38.2120 C   0  0  0  0  0  0  0  0  0  0  0  0
   41.7400   32.9120   37.3800 C   0  0  1  0  0  0  0  0  0  0  0  0
   41.8390   34.4180   38.9870 H   0  0  0  0  0  0  0  0  0  0  0  0
   43.1760   31.6470   38.6280 H   0  0  0  0  0  0  0  0  0  0  0  0
   43.8680   33.2910   38.0900 H   0  0  0  0  0  0  0  0  0  0  0  0
   41.8610   33.6640   36.5650 H   0  0  0  0  0  0  0  0  0  0  0  0
   41.0600   31.6820   37.0010 N   0  0  0  0  0  0  0  0  0  0  0  0
   40.1990   31.8840   36.4790 H   0  0  0  0  0  0  0  0  0  0  0  0
   41.7080   30.9970   36.5830 H   0  0  0  0  0  0  0  0  0  0  0  0
  1  2  1  0  0  0  0
  1 11  1  0  0  0  0
  2 25  1  0  0  0  0
  3  2  2  0  0  0  0
  4  3  1  0  0  0  0
  5  4  2  0  0  0  0
  5  6  1  0  0  0  0
  6  1  2  0  0  0  0
  7  3  1  0  0  0  0
  8  4  1  0  0  0  0
  9  5  1  0  0  0  0
 10  6  1  0  0  0  0
 11 13  2  0  0  0  0
 11 16  1  0  0  0  0
 12 11  2  0  0  0  0
 14 15  1  0  0  0  0
 15 16  2  0  0  0  0
 15 23  1  0  0  0  0
 16 17  1  0  0  0  0
 17 18  1  0  0  0  0
 17 19  2  0  0  0  0
 19 20  1  0  0  0  0
 21 19  1  0  0  0  0
 21 22  1  0  0  0  0
 23 21  2  0  0  0  0
 24 23  1  0  0  0  0
 25 27  1  0  0  0  0
 25 26  2  0  0  0  0
 27 28  1  0  0  0  0
 28 29  2  0  0  0  0
 28 33  1  0  0  0  0
 29 34  1  0  0  0  0
 30 29  1  0  0  0  0
 31 30  2  0  0  0  0
 32 31  1  0  0  0  0
 32 27  2  0  0  0  0
 35 38  1  1  0  0  0
 35 31  1  0  0  0  0
 36 39  1  0  0  0  0
 36 35  1  0  0  0  0
 37 41  1  6  0  0  0
 37 36  1  0  0  0  0
 37 35  1  0  0  0  0
 40 36  1  0  0  0  0
 42 37  1  0  0  0  0
 43 42  1  0  0  0  0
 44 42  1  0  0  0  0
M  END
>  <minimizedAffinity>
-5.90567493

$$$$
