
 OpenBabel03242514103D

 48 51  0  0  1  0  0  0  0  0999 V2000
   47.9060   33.7490   41.9250 C   0  0  0  0  0  0  0  0  0  0  0  0
   48.3700   35.0430   41.9200 C   0  0  0  0  0  0  0  0  0  0  0  0
   48.7710   35.7200   40.7730 C   0  0  0  0  0  0  0  0  0  0  0  0
   48.6610   34.9660   39.6000 C   0  0  0  0  0  0  0  0  0  0  0  0
   48.1860   33.6400   39.6070 C   0  0  0  0  0  0  0  0  0  0  0  0
   47.8150   33.0480   40.7570 N   0  0  0  0  0  0  0  0  0  0  0  0
   48.4190   35.5480   42.8810 H   0  0  0  0  0  0  0  0  0  0  0  0
   49.1220   36.7190   40.8190 H   0  0  0  0  0  0  0  0  0  0  0  0
   48.9860   35.5340   38.7400 H   0  0  0  0  0  0  0  0  0  0  0  0
   48.0800   32.9240   38.3410 C   0  0  1  0  0  0  0  0  0  0  0  0
   47.0230   33.6330   37.3960 C   0  0  0  0  0  0  0  0  0  0  0  0
   46.7210   32.5180   36.3640 C   0  0  0  0  0  0  0  0  0  0  0  0
   47.9720   32.4870   35.4830 C   0  0  0  0  0  0  0  0  0  0  0  0
   49.1700   32.0980   36.2640 C   0  0  0  0  0  0  0  0  0  0  0  0
   49.2950   32.6460   37.6360 C   0  0  2  0  0  0  0  0  0  0  0  0
   47.5080   31.9760   38.5700 H   0  0  0  0  0  0  0  0  0  0  0  0
   47.5330   34.4580   36.8850 H   0  0  0  0  0  0  0  0  0  0  0  0
   46.1380   33.8920   37.9830 H   0  0  0  0  0  0  0  0  0  0  0  0
   45.8920   32.9240   35.7660 H   0  0  0  0  0  0  0  0  0  0  0  0
   46.4990   31.5650   36.8380 H   0  0  0  0  0  0  0  0  0  0  0  0
   48.0370   33.4600   34.9680 H   0  0  0  0  0  0  0  0  0  0  0  0
   47.7490   31.7310   34.7020 H   0  0  0  0  0  0  0  0  0  0  0  0
   49.1870   30.9670   36.2610 H   0  0  0  0  0  0  0  0  0  0  0  0
   50.0670   32.3550   35.6610 H   0  0  0  0  0  0  0  0  0  0  0  0
   49.9110   33.5920   37.5340 H   0  0  0  0  0  0  0  0  0  0  0  0
   50.1850   31.3770   38.6000 S   0  0  0  0  0  0  0  0  0  0  0  0
   51.5610   31.6340   38.4480 H   0  0  0  0  0  0  0  0  0  0  0  0
   47.6300   31.5260   44.8080 C   0  0  0  0  0  0  0  0  0  0  0  0
   46.6090   32.0670   45.5590 C   0  0  0  0  0  0  0  0  0  0  0  0
   46.0210   33.2010   45.0620 C   0  0  0  0  0  0  0  0  0  0  0  0
   46.4780   33.7100   43.8760 N   0  0  0  0  0  0  0  0  0  0  0  0
   47.5050   33.1220   43.1690 C   0  0  0  0  0  0  0  0  0  0  0  0
   48.0600   32.0570   43.6320 N   0  0  0  0  0  0  0  0  0  0  0  0
   44.9710   33.9110   45.6610 N   0  0  0  0  0  0  0  0  0  0  0  0
   48.0860   30.6210   45.2230 H   0  0  0  0  0  0  0  0  0  0  0  0
   44.7670   33.9670   46.6830 H   0  0  0  0  0  0  0  0  0  0  0  0
   44.2800   34.4620   45.1440 H   0  0  0  0  0  0  0  0  0  0  0  0
   45.4900   29.2320   45.5930 Cl  0  0  0  0  0  0  0  0  0  0  0  0
   45.5960   30.2760   46.9950 C   0  0  0  0  0  0  0  0  0  0  0  0
   46.1320   31.5340   46.7980 C   0  0  0  0  0  0  0  0  0  0  0  0
   46.2560   32.4330   47.8550 C   0  0  0  0  0  0  0  0  0  0  0  0
   46.6650   33.4350   47.7830 H   0  0  0  0  0  0  0  0  0  0  0  0
   45.8420   32.0880   49.1450 C   0  0  0  0  0  0  0  0  0  0  0  0
   45.9280   32.7660   49.9770 H   0  0  0  0  0  0  0  0  0  0  0  0
   45.3100   30.8290   49.3220 C   0  0  0  0  0  0  0  0  0  0  0  0
   44.9830   30.5470   50.3160 H   0  0  0  0  0  0  0  0  0  0  0  0
   45.1890   29.9430   48.2720 C   0  0  0  0  0  0  0  0  0  0  0  0
   44.5190   28.3590   48.4990 Cl  0  0  0  0  0  0  0  0  0  0  0  0
  1 32  1  0  0  0  0
  2  1  1  0  0  0  0
  2  7  1  0  0  0  0
  3  8  1  0  0  0  0
  3  2  2  0  0  0  0
  4  5  2  0  0  0  0
  4  3  1  0  0  0  0
  5  6  1  0  0  0  0
  6  1  2  0  0  0  0
  9  4  1  0  0  0  0
 10 16  1  1  0  0  0
 10  5  1  0  0  0  0
 11 18  1  0  0  0  0
 11 10  1  0  0  0  0
 12 20  1  0  0  0  0
 12 11  1  0  0  0  0
 13 14  1  0  0  0  0
 13 12  1  0  0  0  0
 14 15  1  0  0  0  0
 15 25  1  6  0  0  0
 15 10  1  0  0  0  0
 15 26  1  0  0  0  0
 17 11  1  0  0  0  0
 19 12  1  0  0  0  0
 21 13  1  0  0  0  0
 22 13  1  0  0  0  0
 23 14  1  0  0  0  0
 24 14  1  0  0  0  0
 27 26  1  0  0  0  0
 28 35  1  0  0  0  0
 28 29  1  0  0  0  0
 29 40  1  0  0  0  0
 30 29  2  0  0  0  0
 30 34  1  0  0  0  0
 31 30  1  0  0  0  0
 32 33  1  0  0  0  0
 32 31  2  0  0  0  0
 33 28  2  0  0  0  0
 34 36  1  0  0  0  0
 37 34  1  0  0  0  0
 38 39  1  0  0  0  0
 39 47  1  0  0  0  0
 40 39  2  0  0  0  0
 40 41  1  0  0  0  0
 41 43  2  0  0  0  0
 42 41  1  0  0  0  0
 43 45  1  0  0  0  0
 43 44  1  0  0  0  0
 45 46  1  0  0  0  0
 47 48  1  0  0  0  0
 47 45  2  0  0  0  0
M  END
>  <minimizedAffinity>
-6.47881651

>  <minimizedRMSD>
1.79503489

$$$$
