
 OpenBabel03242512033D

 49 52  0  0  1  0  0  0  0  0999 V2000
   36.9580   28.7990   37.0560 C   0  0  2  0  0  0  0  0  0  0  0  0
   37.2160   28.7380   35.5830 C   0  0  0  0  0  0  0  0  0  0  0  0
   36.1720   29.4240   34.7930 C   0  0  0  0  0  0  0  0  0  0  0  0
   34.7730   28.9310   35.0890 C   0  0  0  0  0  0  0  0  0  0  0  0
   34.5390   28.6180   36.5430 C   0  0  0  0  0  0  0  0  0  0  0  0
   35.5890   29.2210   37.4450 C   0  0  1  0  0  0  0  0  0  0  0  0
   37.1080   27.7380   37.4250 H   0  0  0  0  0  0  0  0  0  0  0  0
   37.3020   27.6990   35.2040 H   0  0  0  0  0  0  0  0  0  0  0  0
   38.1870   29.2170   35.3760 H   0  0  0  0  0  0  0  0  0  0  0  0
   36.2550   30.5260   34.8670 H   0  0  0  0  0  0  0  0  0  0  0  0
   36.3390   29.1890   33.7140 H   0  0  0  0  0  0  0  0  0  0  0  0
   34.0880   29.7620   34.7660 H   0  0  0  0  0  0  0  0  0  0  0  0
   34.4850   28.0770   34.4420 H   0  0  0  0  0  0  0  0  0  0  0  0
   33.5620   29.0500   36.8410 H   0  0  0  0  0  0  0  0  0  0  0  0
   34.4620   27.5120   36.7330 H   0  0  0  0  0  0  0  0  0  0  0  0
   35.3820   30.3000   37.4560 H   0  0  0  0  0  0  0  0  0  0  0  0
   37.9680   29.5910   37.7840 C   0  0  0  0  0  0  0  0  0  0  0  0
   37.8460   30.9550   37.5740 C   0  0  0  0  0  0  0  0  0  0  0  0
   38.7340   31.8420   38.2060 C   0  0  0  0  0  0  0  0  0  0  0  0
   39.7020   31.2420   39.0230 N   0  0  0  0  0  0  0  0  0  0  0  0
   39.7790   29.9080   39.1930 C   0  0  0  0  0  0  0  0  0  0  0  0
   38.9050   29.0960   38.5670 N   0  0  0  0  0  0  0  0  0  0  0  0
   37.1980   31.5970   36.9970 H   0  0  0  0  0  0  0  0  0  0  0  0
   38.8050   32.8970   38.1770 H   0  0  0  0  0  0  0  0  0  0  0  0
   40.5550   29.5250   39.8380 H   0  0  0  0  0  0  0  0  0  0  0  0
   35.3300   28.7260   38.8430 C   0  0  2  0  0  0  0  0  0  0  0  0
   34.0650   29.1780   39.5350 C   0  0  0  0  0  0  0  0  0  0  0  0
   35.3860   29.6680   39.9940 C   0  0  1  0  0  0  0  0  0  0  0  0
   35.5510   27.6490   38.9970 H   0  0  0  0  0  0  0  0  0  0  0  0
   33.3750   29.8870   39.0820 H   0  0  0  0  0  0  0  0  0  0  0  0
   33.5640   28.4760   40.2460 H   0  0  0  0  0  0  0  0  0  0  0  0
   35.6190   30.7250   39.7500 H   0  0  0  0  0  0  0  0  0  0  0  0
   36.1020   29.1200   41.1750 C   0  0  0  0  0  0  0  0  0  0  0  0
   36.9450   29.7620   41.4860 H   0  0  0  0  0  0  0  0  0  0  0  0
   35.3720   29.1260   42.0370 H   0  0  0  0  0  0  0  0  0  0  0  0
   36.5460   27.6930   41.0300 C   0  0  0  0  0  0  0  0  0  0  0  0
   35.7520   26.9800   41.3670 H   0  0  0  0  0  0  0  0  0  0  0  0
   36.7200   27.5010   39.9620 H   0  0  0  0  0  0  0  0  0  0  0  0
   37.1260   24.7990   41.5640 Cl  0  0  0  0  0  0  0  0  0  0  0  0
   38.0490   26.1650   42.1260 C   0  0  0  0  0  0  0  0  0  0  0  0
   37.7630   27.5110   41.8660 C   0  0  0  0  0  0  0  0  0  0  0  0
   38.5680   28.5140   42.3650 C   0  0  0  0  0  0  0  0  0  0  0  0
   38.2850   29.5250   42.1240 H   0  0  0  0  0  0  0  0  0  0  0  0
   39.6530   28.1260   43.1210 C   0  0  0  0  0  0  0  0  0  0  0  0
   40.2830   28.9360   43.5100 H   0  0  0  0  0  0  0  0  0  0  0  0
   40.0110   26.8440   43.4270 C   0  0  0  0  0  0  0  0  0  0  0  0
   40.8760   26.6000   44.0270 H   0  0  0  0  0  0  0  0  0  0  0  0
   39.1710   25.8640   42.9030 C   0  0  0  0  0  0  0  0  0  0  0  0
   39.6000   24.1890   43.2750 Cl  0  0  0  0  0  0  0  0  0  0  0  0
  1  7  1  1  0  0  0
  1  6  1  0  0  0  0
  1 17  1  0  0  0  0
  2  1  1  0  0  0  0
  3 10  1  0  0  0  0
  3  4  1  0  0  0  0
  3  2  1  0  0  0  0
  4  5  1  0  0  0  0
  5 15  1  0  0  0  0
  5 14  1  0  0  0  0
  5  6  1  0  0  0  0
  6 16  1  6  0  0  0
  6 26  1  0  0  0  0
  8  2  1  0  0  0  0
  9  2  1  0  0  0  0
 11  3  1  0  0  0  0
 12  4  1  0  0  0  0
 13  4  1  0  0  0  0
 17 22  1  0  0  0  0
 18 17  2  0  0  0  0
 18 19  1  0  0  0  0
 19 20  2  0  0  0  0
 20 21  1  0  0  0  0
 21 25  1  0  0  0  0
 22 21  2  0  0  0  0
 23 18  1  0  0  0  0
 24 19  1  0  0  0  0
 26 29  1  1  0  0  0
 26 27  1  0  0  0  0
 26 28  1  0  0  0  0
 27 28  1  0  0  0  0
 27 31  1  0  0  0  0
 28 32  1  6  0  0  0
 28 33  1  0  0  0  0
 30 27  1  0  0  0  0
 33 34  1  0  0  0  0
 33 35  1  0  0  0  0
 36 33  1  0  0  0  0
 36 37  1  0  0  0  0
 36 41  1  0  0  0  0
 38 36  1  0  0  0  0
 39 40  1  0  0  0  0
 40 48  1  0  0  0  0
 41 40  2  0  0  0  0
 41 42  1  0  0  0  0
 42 44  2  0  0  0  0
 43 42  1  0  0  0  0
 44 46  1  0  0  0  0
 44 45  1  0  0  0  0
 46 47  1  0  0  0  0
 48 49  1  0  0  0  0
 48 46  2  0  0  0  0
M  END
>  <minimizedAffinity>
-5.78095579

$$$$

 OpenBabel03242512033D

 49 52  0  0  1  0  0  0  0  0999 V2000
   38.4390   27.4060   42.5220 C   0  0  2  0  0  0  0  0  0  0  0  0
   39.1050   26.4330   43.4430 C   0  0  0  0  0  0  0  0  0  0  0  0
   39.3160   25.1100   42.8180 C   0  0  0  0  0  0  0  0  0  0  0  0
   38.0500   24.5010   42.2580 C   0  0  0  0  0  0  0  0  0  0  0  0
   37.1300   25.5050   41.6140 C   0  0  0  0  0  0  0  0  0  0  0  0
   37.8200   26.8130   41.3090 C   0  0  1  0  0  0  0  0  0  0  0  0
   37.6090   27.8720   43.1370 H   0  0  0  0  0  0  0  0  0  0  0  0
   38.5420   26.2770   44.3860 H   0  0  0  0  0  0  0  0  0  0  0  0
   40.0850   26.8430   43.7390 H   0  0  0  0  0  0  0  0  0  0  0  0
   40.1370   25.1300   42.0750 H   0  0  0  0  0  0  0  0  0  0  0  0
   39.6540   24.3990   43.6100 H   0  0  0  0  0  0  0  0  0  0  0  0
   38.3900   23.7540   41.4910 H   0  0  0  0  0  0  0  0  0  0  0  0
   37.5120   23.8880   43.0110 H   0  0  0  0  0  0  0  0  0  0  0  0
   36.7770   25.0870   40.6500 H   0  0  0  0  0  0  0  0  0  0  0  0
   36.2080   25.6940   42.2290 H   0  0  0  0  0  0  0  0  0  0  0  0
   38.4850   26.6040   40.4600 H   0  0  0  0  0  0  0  0  0  0  0  0
   39.3100   28.5390   42.1550 C   0  0  0  0  0  0  0  0  0  0  0  0
   38.9780   29.7150   42.8080 C   0  0  0  0  0  0  0  0  0  0  0  0
   39.7220   30.8830   42.5650 C   0  0  0  0  0  0  0  0  0  0  0  0
   40.7740   30.7460   41.6500 N   0  0  0  0  0  0  0  0  0  0  0  0
   41.0550   29.5770   41.0410 C   0  0  0  0  0  0  0  0  0  0  0  0
   40.3150   28.4830   41.3040 N   0  0  0  0  0  0  0  0  0  0  0  0
   38.2270   30.0240   43.5180 H   0  0  0  0  0  0  0  0  0  0  0  0
   39.6310   31.8620   42.9560 H   0  0  0  0  0  0  0  0  0  0  0  0
   41.8820   29.5550   40.3470 H   0  0  0  0  0  0  0  0  0  0  0  0
   36.7760   27.7730   40.8050 C   0  0  2  0  0  0  0  0  0  0  0  0
   36.1740   27.5170   39.4420 C   0  0  0  0  0  0  0  0  0  0  0  0
   37.0780   28.6720   39.6570 C   0  0  1  0  0  0  0  0  0  0  0  0
   36.0260   28.0770   41.5630 H   0  0  0  0  0  0  0  0  0  0  0  0
   36.5100   26.7050   38.8010 H   0  0  0  0  0  0  0  0  0  0  0  0
   35.1060   27.7970   39.2680 H   0  0  0  0  0  0  0  0  0  0  0  0
   38.0910   28.5790   39.2160 H   0  0  0  0  0  0  0  0  0  0  0  0
   36.6000   30.0660   39.8520 C   0  0  0  0  0  0  0  0  0  0  0  0
   35.5440   30.1020   40.1740 H   0  0  0  0  0  0  0  0  0  0  0  0
   37.1980   30.5050   40.7030 H   0  0  0  0  0  0  0  0  0  0  0  0
   36.8300   30.9750   38.6800 C   0  0  0  0  0  0  0  0  0  0  0  0
   37.2760   30.4230   37.8150 H   0  0  0  0  0  0  0  0  0  0  0  0
   35.8530   31.3540   38.3510 H   0  0  0  0  0  0  0  0  0  0  0  0
   39.6390   30.4750   37.7540 Cl  0  0  0  0  0  0  0  0  0  0  0  0
   39.0800   31.8320   38.6930 C   0  0  0  0  0  0  0  0  0  0  0  0
   37.7630   32.0490   39.1170 C   0  0  0  0  0  0  0  0  0  0  0  0
   37.4340   33.1630   39.8600 C   0  0  0  0  0  0  0  0  0  0  0  0
   36.4010   33.2620   40.1500 H   0  0  0  0  0  0  0  0  0  0  0  0
   38.4550   34.0390   40.1580 C   0  0  0  0  0  0  0  0  0  0  0  0
   38.1760   34.9200   40.7500 H   0  0  0  0  0  0  0  0  0  0  0  0
   39.7650   33.9120   39.7910 C   0  0  0  0  0  0  0  0  0  0  0  0
   40.5230   34.6340   40.0550 H   0  0  0  0  0  0  0  0  0  0  0  0
   40.0520   32.7740   39.0430 C   0  0  0  0  0  0  0  0  0  0  0  0
   41.7360   32.5720   38.5450 Cl  0  0  0  0  0  0  0  0  0  0  0  0
  1  7  1  1  0  0  0
  1  2  1  0  0  0  0
  2  9  1  0  0  0  0
  2  8  1  0  0  0  0
  3  2  1  0  0  0  0
  3 11  1  0  0  0  0
  4  3  1  0  0  0  0
  4 13  1  0  0  0  0
  5 15  1  0  0  0  0
  5  4  1  0  0  0  0
  6 16  1  6  0  0  0
  6  5  1  0  0  0  0
  6  1  1  0  0  0  0
 10  3  1  0  0  0  0
 12  4  1  0  0  0  0
 14  5  1  0  0  0  0
 17  1  1  0  0  0  0
 17 18  1  0  0  0  0
 18 23  1  0  0  0  0
 19 18  2  0  0  0  0
 19 24  1  0  0  0  0
 20 19  1  0  0  0  0
 21 22  1  0  0  0  0
 21 20  2  0  0  0  0
 22 17  2  0  0  0  0
 25 21  1  0  0  0  0
 26  6  1  0  0  0  0
 26 29  1  1  0  0  0
 27 28  1  0  0  0  0
 27 26  1  0  0  0  0
 28 32  1  6  0  0  0
 28 33  1  0  0  0  0
 28 26  1  0  0  0  0
 30 27  1  0  0  0  0
 31 27  1  0  0  0  0
 33 34  1  0  0  0  0
 33 35  1  0  0  0  0
 36 41  1  0  0  0  0
 36 33  1  0  0  0  0
 37 36  1  0  0  0  0
 38 36  1  0  0  0  0
 39 40  1  0  0  0  0
 40 48  2  0  0  0  0
 40 41  1  0  0  0  0
 41 42  2  0  0  0  0
 42 43  1  0  0  0  0
 42 44  1  0  0  0  0
 44 45  1  0  0  0  0
 46 47  1  0  0  0  0
 46 44  2  0  0  0  0
 48 46  1  0  0  0  0
 49 48  1  0  0  0  0
M  END
>  <minimizedAffinity>
-5.76329374

$$$$

 OpenBabel03242512033D

 49 52  0  0  1  0  0  0  0  0999 V2000
   38.1700   30.0500   38.7280 C   0  0  2  0  0  0  0  0  0  0  0  0
   38.2600   30.2950   37.2540 C   0  0  0  0  0  0  0  0  0  0  0  0
   36.9340   30.3340   36.6010 C   0  0  0  0  0  0  0  0  0  0  0  0
   36.0970   29.1040   36.8650 C   0  0  0  0  0  0  0  0  0  0  0  0
   36.2350   28.5690   38.2660 C   0  0  0  0  0  0  0  0  0  0  0  0
   36.8510   29.5710   39.2130 C   0  0  1  0  0  0  0  0  0  0  0  0
   38.9290   29.2360   38.9380 H   0  0  0  0  0  0  0  0  0  0  0  0
   38.8750   29.5370   36.7290 H   0  0  0  0  0  0  0  0  0  0  0  0
   38.7640   31.2620   37.0880 H   0  0  0  0  0  0  0  0  0  0  0  0
   36.3890   31.2720   36.8290 H   0  0  0  0  0  0  0  0  0  0  0  0
   37.0900   30.3470   35.4950 H   0  0  0  0  0  0  0  0  0  0  0  0
   35.0340   29.4200   36.6850 H   0  0  0  0  0  0  0  0  0  0  0  0
   36.2740   28.3080   36.1120 H   0  0  0  0  0  0  0  0  0  0  0  0
   35.2230   28.3320   38.6520 H   0  0  0  0  0  0  0  0  0  0  0  0
   36.8150   27.6060   38.2990 H   0  0  0  0  0  0  0  0  0  0  0  0
   36.0750   30.3300   39.3840 H   0  0  0  0  0  0  0  0  0  0  0  0
   38.6280   31.2010   39.5300 C   0  0  0  0  0  0  0  0  0  0  0  0
   37.7650   32.2820   39.4750 C   0  0  0  0  0  0  0  0  0  0  0  0
   38.0630   33.4530   40.1930 C   0  0  0  0  0  0  0  0  0  0  0  0
   39.2550   33.4170   40.9310 N   0  0  0  0  0  0  0  0  0  0  0  0
   40.0610   32.3390   40.9510 C   0  0  0  0  0  0  0  0  0  0  0  0
   39.7350   31.2380   40.2460 N   0  0  0  0  0  0  0  0  0  0  0  0
   36.8340   32.5090   38.9770 H   0  0  0  0  0  0  0  0  0  0  0  0
   37.5430   34.3700   40.2810 H   0  0  0  0  0  0  0  0  0  0  0  0
   40.9620   32.3920   41.5430 H   0  0  0  0  0  0  0  0  0  0  0  0
   37.0660   28.8800   40.5330 C   0  0  2  0  0  0  0  0  0  0  0  0
   35.8700   28.6840   41.4360 C   0  0  0  0  0  0  0  0  0  0  0  0
   36.9390   29.6410   41.8070 C   0  0  1  0  0  0  0  0  0  0  0  0
   37.7260   27.9900   40.4840 H   0  0  0  0  0  0  0  0  0  0  0  0
   34.8850   29.0730   41.1900 H   0  0  0  0  0  0  0  0  0  0  0  0
   35.8300   27.7710   42.0800 H   0  0  0  0  0  0  0  0  0  0  0  0
   36.6780   30.7150   41.7100 H   0  0  0  0  0  0  0  0  0  0  0  0
   38.0120   29.3370   42.7900 C   0  0  0  0  0  0  0  0  0  0  0  0
   39.0100   29.3020   42.3190 H   0  0  0  0  0  0  0  0  0  0  0  0
   38.0430   30.1960   43.5220 H   0  0  0  0  0  0  0  0  0  0  0  0
   37.7700   28.1060   43.6160 C   0  0  0  0  0  0  0  0  0  0  0  0
   37.7450   28.3450   44.7080 H   0  0  0  0  0  0  0  0  0  0  0  0
   36.7810   27.7100   43.3490 H   0  0  0  0  0  0  0  0  0  0  0  0
   36.8190   25.6450   42.1900 Cl  0  0  0  0  0  0  0  0  0  0  0  0
   38.4540   25.9980   42.6760 C   0  0  0  0  0  0  0  0  0  0  0  0
   38.8800   27.1540   43.3420 C   0  0  0  0  0  0  0  0  0  0  0  0
   40.2070   27.3280   43.6790 C   0  0  0  0  0  0  0  0  0  0  0  0
   40.4590   28.2420   44.1900 H   0  0  0  0  0  0  0  0  0  0  0  0
   41.0770   26.3180   43.3300 C   0  0  0  0  0  0  0  0  0  0  0  0
   42.1280   26.4720   43.6060 H   0  0  0  0  0  0  0  0  0  0  0  0
   40.7560   25.1590   42.6830 C   0  0  0  0  0  0  0  0  0  0  0  0
   41.4850   24.4010   42.4360 H   0  0  0  0  0  0  0  0  0  0  0  0
   39.4080   25.0250   42.3620 C   0  0  0  0  0  0  0  0  0  0  0  0
   38.9490   23.5380   41.5220 Cl  0  0  0  0  0  0  0  0  0  0  0  0
  1  7  1  1  0  0  0
  1  6  1  0  0  0  0
  1 17  1  0  0  0  0
  2  1  1  0  0  0  0
  3 10  1  0  0  0  0
  3  4  1  0  0  0  0
  3  2  1  0  0  0  0
  4  5  1  0  0  0  0
  5 15  1  0  0  0  0
  5 14  1  0  0  0  0
  5  6  1  0  0  0  0
  6 16  1  1  0  0  0
  6 26  1  0  0  0  0
  8  2  1  0  0  0  0
  9  2  1  0  0  0  0
 11  3  1  0  0  0  0
 12  4  1  0  0  0  0
 13  4  1  0  0  0  0
 17 22  1  0  0  0  0
 18 17  2  0  0  0  0
 18 19  1  0  0  0  0
 19 24  1  0  0  0  0
 19 20  2  0  0  0  0
 20 21  1  0  0  0  0
 21 25  1  0  0  0  0
 22 21  2  0  0  0  0
 23 18  1  0  0  0  0
 26 29  1  6  0  0  0
 26 27  1  0  0  0  0
 26 28  1  0  0  0  0
 27 28  1  0  0  0  0
 27 31  1  0  0  0  0
 28 32  1  6  0  0  0
 28 33  1  0  0  0  0
 30 27  1  0  0  0  0
 33 35  1  0  0  0  0
 33 36  1  0  0  0  0
 34 33  1  0  0  0  0
 36 37  1  0  0  0  0
 38 36  1  0  0  0  0
 39 40  1  0  0  0  0
 40 41  1  0  0  0  0
 41 36  1  0  0  0  0
 41 42  2  0  0  0  0
 42 43  1  0  0  0  0
 44 45  1  0  0  0  0
 44 42  1  0  0  0  0
 46 44  2  0  0  0  0
 47 46  1  0  0  0  0
 48 40  2  0  0  0  0
 48 46  1  0  0  0  0
 49 48  1  0  0  0  0
M  END
>  <minimizedAffinity>
-5.74846983

$$$$

 OpenBabel03242512033D

 49 52  0  0  1  0  0  0  0  0999 V2000
   39.9290   25.9810   41.0270 C   0  0  2  0  0  0  0  0  0  0  0  0
   41.2650   25.4950   41.4950 C   0  0  0  0  0  0  0  0  0  0  0  0
   41.3510   25.3970   42.9680 C   0  0  0  0  0  0  0  0  0  0  0  0
   40.9960   26.6840   43.6780 C   0  0  0  0  0  0  0  0  0  0  0  0
   39.8600   27.4350   43.0350 C   0  0  0  0  0  0  0  0  0  0  0  0
   39.0660   26.5790   42.0770 C   0  0  1  0  0  0  0  0  0  0  0  0
   40.1590   26.7910   40.2690 H   0  0  0  0  0  0  0  0  0  0  0  0
   42.1010   26.1350   41.1480 H   0  0  0  0  0  0  0  0  0  0  0  0
   41.4470   24.4970   41.0640 H   0  0  0  0  0  0  0  0  0  0  0  0
   40.7830   24.5300   43.3580 H   0  0  0  0  0  0  0  0  0  0  0  0
   42.4150   25.1980   43.2430 H   0  0  0  0  0  0  0  0  0  0  0  0
   40.7060   26.3810   44.7210 H   0  0  0  0  0  0  0  0  0  0  0  0
   41.8800   27.3390   43.8240 H   0  0  0  0  0  0  0  0  0  0  0  0
   39.1650   27.7680   43.8320 H   0  0  0  0  0  0  0  0  0  0  0  0
   40.2080   28.3690   42.5140 H   0  0  0  0  0  0  0  0  0  0  0  0
   38.4920   25.8870   42.7080 H   0  0  0  0  0  0  0  0  0  0  0  0
   39.1820   24.9610   40.2650 C   0  0  0  0  0  0  0  0  0  0  0  0
   38.6860   23.9410   41.0600 C   0  0  0  0  0  0  0  0  0  0  0  0
   37.9470   22.8970   40.4780 C   0  0  0  0  0  0  0  0  0  0  0  0
   37.7710   22.9870   39.0910 N   0  0  0  0  0  0  0  0  0  0  0  0
   38.2750   24.0010   38.3620 C   0  0  0  0  0  0  0  0  0  0  0  0
   38.9770   24.9810   38.9630 N   0  0  0  0  0  0  0  0  0  0  0  0
   38.7170   23.6890   42.1100 H   0  0  0  0  0  0  0  0  0  0  0  0
   37.4910   22.0430   40.9050 H   0  0  0  0  0  0  0  0  0  0  0  0
   38.0950   23.9970   37.2980 H   0  0  0  0  0  0  0  0  0  0  0  0
   38.0580   27.4680   41.3980 C   0  0  2  0  0  0  0  0  0  0  0  0
   36.7720   27.7740   42.1300 C   0  0  0  0  0  0  0  0  0  0  0  0
   36.7620   26.9080   40.9270 C   0  0  1  0  0  0  0  0  0  0  0  0
   38.4950   28.3550   40.8930 H   0  0  0  0  0  0  0  0  0  0  0  0
   36.5310   27.3300   43.0930 H   0  0  0  0  0  0  0  0  0  0  0  0
   36.2950   28.7730   41.9790 H   0  0  0  0  0  0  0  0  0  0  0  0
   36.6000   25.8270   41.1140 H   0  0  0  0  0  0  0  0  0  0  0  0
   36.3660   27.3820   39.5750 C   0  0  0  0  0  0  0  0  0  0  0  0
   37.2350   27.4990   38.9050 H   0  0  0  0  0  0  0  0  0  0  0  0
   35.7250   26.5750   39.1150 H   0  0  0  0  0  0  0  0  0  0  0  0
   35.5210   28.6240   39.5720 C   0  0  0  0  0  0  0  0  0  0  0  0
   34.5150   28.4330   39.1220 H   0  0  0  0  0  0  0  0  0  0  0  0
   35.3570   28.9220   40.6160 H   0  0  0  0  0  0  0  0  0  0  0  0
   36.1840   31.0570   41.1960 Cl  0  0  0  0  0  0  0  0  0  0  0  0
   36.5540   30.7980   39.5130 C   0  0  0  0  0  0  0  0  0  0  0  0
   36.2360   29.6540   38.7710 C   0  0  0  0  0  0  0  0  0  0  0  0
   36.5800   29.5580   37.4380 C   0  0  0  0  0  0  0  0  0  0  0  0
   36.3020   28.6490   36.9330 H   0  0  0  0  0  0  0  0  0  0  0  0
   37.2430   30.6320   36.8850 C   0  0  0  0  0  0  0  0  0  0  0  0
   37.5090   30.5390   35.8250 H   0  0  0  0  0  0  0  0  0  0  0  0
   37.5940   31.7860   37.5270 C   0  0  0  0  0  0  0  0  0  0  0  0
   38.1160   32.5960   37.0390 H   0  0  0  0  0  0  0  0  0  0  0  0
   37.2280   31.8400   38.8700 C   0  0  0  0  0  0  0  0  0  0  0  0
   37.6650   33.3160   39.7390 Cl  0  0  0  0  0  0  0  0  0  0  0  0
  1  7  1  6  0  0  0
  1  2  1  0  0  0  0
  1  6  1  0  0  0  0
  2  3  1  0  0  0  0
  3 11  1  0  0  0  0
  3 10  1  0  0  0  0
  3  4  1  0  0  0  0
  4 13  1  0  0  0  0
  4 12  1  0  0  0  0
  5  4  1  0  0  0  0
  5 14  1  0  0  0  0
  6 16  1  1  0  0  0
  6  5  1  0  0  0  0
  8  2  1  0  0  0  0
  9  2  1  0  0  0  0
 15  5  1  0  0  0  0
 17  1  1  0  0  0  0
 17 18  1  0  0  0  0
 18 23  1  0  0  0  0
 19 24  1  0  0  0  0
 19 18  2  0  0  0  0
 20 19  1  0  0  0  0
 21 22  1  0  0  0  0
 21 20  2  0  0  0  0
 22 17  2  0  0  0  0
 25 21  1  0  0  0  0
 26 29  1  6  0  0  0
 26  6  1  0  0  0  0
 26 27  1  0  0  0  0
 27 30  1  0  0  0  0
 28 32  1  1  0  0  0
 28 26  1  0  0  0  0
 28 27  1  0  0  0  0
 31 27  1  0  0  0  0
 33 28  1  0  0  0  0
 34 33  1  0  0  0  0
 35 33  1  0  0  0  0
 36 33  1  0  0  0  0
 36 38  1  0  0  0  0
 37 36  1  0  0  0  0
 40 39  1  0  0  0  0
 41 40  2  0  0  0  0
 41 36  1  0  0  0  0
 42 41  1  0  0  0  0
 43 42  1  0  0  0  0
 44 42  2  0  0  0  0
 44 46  1  0  0  0  0
 45 44  1  0  0  0  0
 46 48  2  0  0  0  0
 47 46  1  0  0  0  0
 48 40  1  0  0  0  0
 48 49  1  0  0  0  0
M  END
>  <minimizedAffinity>
-5.66338921

$$$$

 OpenBabel03242512033D

 49 52  0  0  1  0  0  0  0  0999 V2000
   37.3370   29.3370   41.6690 C   0  0  2  0  0  0  0  0  0  0  0  0
   38.0630   29.3490   42.9770 C   0  0  0  0  0  0  0  0  0  0  0  0
   38.8760   28.1320   43.1880 C   0  0  0  0  0  0  0  0  0  0  0  0
   38.0870   26.8500   43.0510 C   0  0  0  0  0  0  0  0  0  0  0  0
   37.0550   26.8900   41.9560 C   0  0  0  0  0  0  0  0  0  0  0  0
   37.2840   28.0210   40.9820 C   0  0  1  0  0  0  0  0  0  0  0  0
   36.2730   29.6350   41.9200 H   0  0  0  0  0  0  0  0  0  0  0  0
   37.3820   29.4570   43.8460 H   0  0  0  0  0  0  0  0  0  0  0  0
   38.7280   30.2270   43.0020 H   0  0  0  0  0  0  0  0  0  0  0  0
   39.7900   28.1330   42.5610 H   0  0  0  0  0  0  0  0  0  0  0  0
   39.2440   28.1360   44.2420 H   0  0  0  0  0  0  0  0  0  0  0  0
   38.8470   26.0530   42.8260 H   0  0  0  0  0  0  0  0  0  0  0  0
   37.6390   26.5300   44.0150 H   0  0  0  0  0  0  0  0  0  0  0  0
   37.1190   25.9440   41.3810 H   0  0  0  0  0  0  0  0  0  0  0  0
   36.0070   26.9390   42.3600 H   0  0  0  0  0  0  0  0  0  0  0  0
   38.1630   27.7290   40.3930 H   0  0  0  0  0  0  0  0  0  0  0  0
   37.8070   30.3840   40.7410 C   0  0  0  0  0  0  0  0  0  0  0  0
   36.9440   31.4650   40.6570 C   0  0  0  0  0  0  0  0  0  0  0  0
   37.2580   32.5460   39.8170 C   0  0  0  0  0  0  0  0  0  0  0  0
   38.4640   32.4290   39.1130 N   0  0  0  0  0  0  0  0  0  0  0  0
   39.2690   31.3550   39.2290 C   0  0  0  0  0  0  0  0  0  0  0  0
   38.9260   30.3410   40.0480 N   0  0  0  0  0  0  0  0  0  0  0  0
   35.9950   31.7370   41.0940 H   0  0  0  0  0  0  0  0  0  0  0  0
   36.7420   33.4480   39.6180 H   0  0  0  0  0  0  0  0  0  0  0  0
   40.1800   31.3410   38.6520 H   0  0  0  0  0  0  0  0  0  0  0  0
   36.1210   28.0430   40.0260 C   0  0  2  0  0  0  0  0  0  0  0  0
   36.0790   27.0000   38.9340 C   0  0  0  0  0  0  0  0  0  0  0  0
   36.3300   28.4230   38.6020 C   0  0  1  0  0  0  0  0  0  0  0  0
   35.1350   28.2140   40.5060 H   0  0  0  0  0  0  0  0  0  0  0  0
   36.8810   26.2810   38.7840 H   0  0  0  0  0  0  0  0  0  0  0  0
   35.0840   26.6190   38.5950 H   0  0  0  0  0  0  0  0  0  0  0  0
   37.3700   28.6720   38.3100 H   0  0  0  0  0  0  0  0  0  0  0  0
   35.2870   29.3400   38.0730 C   0  0  0  0  0  0  0  0  0  0  0  0
   35.4310   30.3780   38.4210 H   0  0  0  0  0  0  0  0  0  0  0  0
   35.4100   29.3690   36.9500 H   0  0  0  0  0  0  0  0  0  0  0  0
   33.8760   28.8880   38.3160 C   0  0  0  0  0  0  0  0  0  0  0  0
   33.8450   27.8530   38.7370 H   0  0  0  0  0  0  0  0  0  0  0  0
   33.4340   29.5560   39.0680 H   0  0  0  0  0  0  0  0  0  0  0  0
   31.0880   29.9630   38.5790 Cl  0  0  0  0  0  0  0  0  0  0  0  0
   31.8570   29.4150   37.1150 C   0  0  0  0  0  0  0  0  0  0  0  0
   33.1620   28.9150   37.0120 C   0  0  0  0  0  0  0  0  0  0  0  0
   33.6680   28.5080   35.7950 C   0  0  0  0  0  0  0  0  0  0  0  0
   34.6780   28.1350   35.7930 H   0  0  0  0  0  0  0  0  0  0  0  0
   32.8340   28.6180   34.7030 C   0  0  0  0  0  0  0  0  0  0  0  0
   33.2530   28.2900   33.7430 H   0  0  0  0  0  0  0  0  0  0  0  0
   31.5530   29.0900   34.7060 C   0  0  0  0  0  0  0  0  0  0  0  0
   30.9460   29.1530   33.8150 H   0  0  0  0  0  0  0  0  0  0  0  0
   31.0830   29.4900   35.9540 C   0  0  0  0  0  0  0  0  0  0  0  0
   29.4270   30.1100   36.0020 Cl  0  0  0  0  0  0  0  0  0  0  0  0
  1  7  1  1  0  0  0
  1  2  1  0  0  0  0
  2  9  1  0  0  0  0
  2  3  1  0  0  0  0
  2  8  1  0  0  0  0
  3 11  1  0  0  0  0
  4  3  1  0  0  0  0
  4 13  1  0  0  0  0
  5 15  1  0  0  0  0
  5  4  1  0  0  0  0
  6 16  1  6  0  0  0
  6  1  1  0  0  0  0
  6  5  1  0  0  0  0
 10  3  1  0  0  0  0
 12  4  1  0  0  0  0
 14  5  1  0  0  0  0
 17  1  1  0  0  0  0
 18 17  1  0  0  0  0
 18 23  1  0  0  0  0
 19 18  2  0  0  0  0
 20 21  2  0  0  0  0
 20 19  1  0  0  0  0
 21 22  1  0  0  0  0
 22 17  2  0  0  0  0
 24 19  1  0  0  0  0
 25 21  1  0  0  0  0
 26 29  1  1  0  0  0
 26  6  1  0  0  0  0
 27 26  1  0  0  0  0
 28 32  1  6  0  0  0
 28 27  1  0  0  0  0
 28 26  1  0  0  0  0
 30 27  1  0  0  0  0
 31 27  1  0  0  0  0
 33 36  1  0  0  0  0
 33 34  1  0  0  0  0
 33 28  1  0  0  0  0
 35 33  1  0  0  0  0
 36 37  1  0  0  0  0
 36 38  1  0  0  0  0
 40 39  1  0  0  0  0
 41 40  1  0  0  0  0
 41 36  1  0  0  0  0
 42 41  2  0  0  0  0
 43 42  1  0  0  0  0
 44 46  2  0  0  0  0
 44 42  1  0  0  0  0
 45 44  1  0  0  0  0
 46 48  1  0  0  0  0
 47 46  1  0  0  0  0
 48 49  1  0  0  0  0
 48 40  2  0  0  0  0
M  END
>  <minimizedAffinity>
-5.60316563

$$$$

 OpenBabel03242512033D

 49 52  0  0  1  0  0  0  0  0999 V2000
   37.0060   25.9490   38.8720 C   0  0  2  0  0  0  0  0  0  0  0  0
   36.4900   24.7920   38.0760 C   0  0  0  0  0  0  0  0  0  0  0  0
   35.4980   23.9870   38.8200 C   0  0  0  0  0  0  0  0  0  0  0  0
   36.0010   23.5020   40.1610 C   0  0  0  0  0  0  0  0  0  0  0  0
   36.8540   24.5090   40.8860 C   0  0  0  0  0  0  0  0  0  0  0  0
   36.7090   25.9040   40.3260 C   0  0  1  0  0  0  0  0  0  0  0  0
   38.1320   25.9110   38.7520 H   0  0  0  0  0  0  0  0  0  0  0  0
   37.2960   24.1100   37.7360 H   0  0  0  0  0  0  0  0  0  0  0  0
   36.0150   25.1800   37.1600 H   0  0  0  0  0  0  0  0  0  0  0  0
   34.5210   24.5030   38.8970 H   0  0  0  0  0  0  0  0  0  0  0  0
   35.2930   23.0580   38.2340 H   0  0  0  0  0  0  0  0  0  0  0  0
   35.0790   23.2830   40.7650 H   0  0  0  0  0  0  0  0  0  0  0  0
   36.5130   22.5200   40.0860 H   0  0  0  0  0  0  0  0  0  0  0  0
   36.5300   24.5440   41.9450 H   0  0  0  0  0  0  0  0  0  0  0  0
   37.9390   24.2150   40.9010 H   0  0  0  0  0  0  0  0  0  0  0  0
   35.7140   26.2460   40.6450 H   0  0  0  0  0  0  0  0  0  0  0  0
   36.6170   27.2560   38.3070 C   0  0  0  0  0  0  0  0  0  0  0  0
   37.7010   28.0360   37.9420 C   0  0  0  0  0  0  0  0  0  0  0  0
   37.4900   29.3080   37.3820 C   0  0  0  0  0  0  0  0  0  0  0  0
   36.1480   29.6850   37.2370 N   0  0  0  0  0  0  0  0  0  0  0  0
   35.1280   28.8880   37.6100 C   0  0  0  0  0  0  0  0  0  0  0  0
   35.3790   27.6760   38.1420 N   0  0  0  0  0  0  0  0  0  0  0  0
   38.7760   27.9390   37.9760 H   0  0  0  0  0  0  0  0  0  0  0  0
   38.1720   30.0430   37.0430 H   0  0  0  0  0  0  0  0  0  0  0  0
   34.1230   29.2530   37.4660 H   0  0  0  0  0  0  0  0  0  0  0  0
   37.7050   26.7850   41.0320 C   0  0  2  0  0  0  0  0  0  0  0  0
   39.1290   26.2930   41.1520 C   0  0  0  0  0  0  0  0  0  0  0  0
   38.2620   26.3790   42.3510 C   0  0  1  0  0  0  0  0  0  0  0  0
   37.6360   27.8600   40.7670 H   0  0  0  0  0  0  0  0  0  0  0  0
   39.4370   25.3110   40.8010 H   0  0  0  0  0  0  0  0  0  0  0  0
   39.9580   27.0430   41.1320 H   0  0  0  0  0  0  0  0  0  0  0  0
   37.9040   25.4100   42.7560 H   0  0  0  0  0  0  0  0  0  0  0  0
   38.3280   27.4900   43.3360 C   0  0  0  0  0  0  0  0  0  0  0  0
   38.2520   27.1280   44.3760 H   0  0  0  0  0  0  0  0  0  0  0  0
   39.3520   27.9560   43.2420 H   0  0  0  0  0  0  0  0  0  0  0  0
   37.3500   28.6030   43.0870 C   0  0  0  0  0  0  0  0  0  0  0  0
   36.5260   28.2780   42.4040 H   0  0  0  0  0  0  0  0  0  0  0  0
   36.8880   28.8660   44.0480 H   0  0  0  0  0  0  0  0  0  0  0  0
   35.7800   29.9230   40.8990 Cl  0  0  0  0  0  0  0  0  0  0  0  0
   37.3780   30.3580   41.4400 C   0  0  0  0  0  0  0  0  0  0  0  0
   38.0970   29.7290   42.4640 C   0  0  0  0  0  0  0  0  0  0  0  0
   39.3610   30.1600   42.8090 C   0  0  0  0  0  0  0  0  0  0  0  0
   39.8520   29.6280   43.6060 H   0  0  0  0  0  0  0  0  0  0  0  0
   39.8710   31.2270   42.1020 C   0  0  0  0  0  0  0  0  0  0  0  0
   40.8770   31.5570   42.3890 H   0  0  0  0  0  0  0  0  0  0  0  0
   39.2480   31.9020   41.0900 C   0  0  0  0  0  0  0  0  0  0  0  0
   39.7000   32.7340   40.5710 H   0  0  0  0  0  0  0  0  0  0  0  0
   37.9750   31.4330   40.7760 C   0  0  0  0  0  0  0  0  0  0  0  0
   37.1320   32.2800   39.4720 Cl  0  0  0  0  0  0  0  0  0  0  0  0
  1  7  1  6  0  0  0
  1  6  1  0  0  0  0
  2  3  1  0  0  0  0
  2  1  1  0  0  0  0
  3 10  1  0  0  0  0
  3  4  1  0  0  0  0
  4 12  1  0  0  0  0
  4  5  1  0  0  0  0
  5 15  1  0  0  0  0
  5 14  1  0  0  0  0
  6 16  1  1  0  0  0
  6  5  1  0  0  0  0
  6 26  1  0  0  0  0
  8  2  1  0  0  0  0
  9  2  1  0  0  0  0
 11  3  1  0  0  0  0
 13  4  1  0  0  0  0
 17  1  1  0  0  0  0
 18 23  1  0  0  0  0
 18 17  2  0  0  0  0
 19 18  1  0  0  0  0
 20 19  2  0  0  0  0
 20 21  1  0  0  0  0
 21 22  2  0  0  0  0
 22 17  1  0  0  0  0
 24 19  1  0  0  0  0
 25 21  1  0  0  0  0
 26 29  1  6  0  0  0
 26 27  1  0  0  0  0
 26 28  1  0  0  0  0
 27 28  1  0  0  0  0
 28 32  1  1  0  0  0
 28 33  1  0  0  0  0
 30 27  1  0  0  0  0
 31 27  1  0  0  0  0
 33 34  1  0  0  0  0
 35 33  1  0  0  0  0
 36 33  1  0  0  0  0
 36 38  1  0  0  0  0
 37 36  1  0  0  0  0
 39 40  1  0  0  0  0
 40 41  1  0  0  0  0
 41 42  2  0  0  0  0
 41 36  1  0  0  0  0
 42 43  1  0  0  0  0
 44 45  1  0  0  0  0
 44 42  1  0  0  0  0
 46 44  2  0  0  0  0
 47 46  1  0  0  0  0
 48 46  1  0  0  0  0
 48 40  2  0  0  0  0
 49 48  1  0  0  0  0
M  END
>  <minimizedAffinity>
-5.57330704

$$$$

 OpenBabel03242512033D

 49 52  0  0  1  0  0  0  0  0999 V2000
   36.3520   28.4170   37.8400 C   0  0  2  0  0  0  0  0  0  0  0  0
   35.4390   29.1450   36.9040 C   0  0  0  0  0  0  0  0  0  0  0  0
   34.0250   28.7440   37.0620 C   0  0  0  0  0  0  0  0  0  0  0  0
   33.8040   27.2540   36.9380 C   0  0  0  0  0  0  0  0  0  0  0  0
   34.8990   26.4270   37.5590 C   0  0  0  0  0  0  0  0  0  0  0  0
   35.7650   27.2260   38.5040 C   0  0  1  0  0  0  0  0  0  0  0  0
   37.2120   28.0600   37.1940 H   0  0  0  0  0  0  0  0  0  0  0  0
   35.7140   29.0060   35.8390 H   0  0  0  0  0  0  0  0  0  0  0  0
   35.5230   30.2260   37.1000 H   0  0  0  0  0  0  0  0  0  0  0  0
   33.5790   29.1600   37.9870 H   0  0  0  0  0  0  0  0  0  0  0  0
   33.4380   29.1950   36.2260 H   0  0  0  0  0  0  0  0  0  0  0  0
   32.8320   27.0490   37.4630 H   0  0  0  0  0  0  0  0  0  0  0  0
   33.6140   26.9450   35.8890 H   0  0  0  0  0  0  0  0  0  0  0  0
   34.4310   25.6140   38.1500 H   0  0  0  0  0  0  0  0  0  0  0  0
   35.5410   25.9220   36.7870 H   0  0  0  0  0  0  0  0  0  0  0  0
   35.1440   27.4030   39.3930 H   0  0  0  0  0  0  0  0  0  0  0  0
   36.9800   29.3060   38.8370 C   0  0  0  0  0  0  0  0  0  0  0  0
   36.0630   30.0690   39.5410 C   0  0  0  0  0  0  0  0  0  0  0  0
   36.5100   30.9610   40.5300 C   0  0  0  0  0  0  0  0  0  0  0  0
   37.8970   30.9990   40.7240 N   0  0  0  0  0  0  0  0  0  0  0  0
   38.7480   30.2350   40.0100 C   0  0  0  0  0  0  0  0  0  0  0  0
   38.2740   29.3940   39.0710 N   0  0  0  0  0  0  0  0  0  0  0  0
   34.9910   30.1920   39.5400 H   0  0  0  0  0  0  0  0  0  0  0  0
   35.9800   31.6190   41.1670 H   0  0  0  0  0  0  0  0  0  0  0  0
   39.8030   30.3240   40.2190 H   0  0  0  0  0  0  0  0  0  0  0  0
   36.8960   26.3370   38.9480 C   0  0  2  0  0  0  0  0  0  0  0  0
   37.5610   25.4600   37.9120 C   0  0  0  0  0  0  0  0  0  0  0  0
   36.7220   24.8590   38.9760 C   0  0  1  0  0  0  0  0  0  0  0  0
   37.6180   26.8220   39.6370 H   0  0  0  0  0  0  0  0  0  0  0  0
   37.2120   25.4100   36.8830 H   0  0  0  0  0  0  0  0  0  0  0  0
   38.6530   25.2450   38.0140 H   0  0  0  0  0  0  0  0  0  0  0  0
   35.7320   24.4780   38.6500 H   0  0  0  0  0  0  0  0  0  0  0  0
   37.2760   24.2180   40.1960 C   0  0  0  0  0  0  0  0  0  0  0  0
   37.2020   23.1170   40.1580 H   0  0  0  0  0  0  0  0  0  0  0  0
   38.3790   24.4560   40.2240 H   0  0  0  0  0  0  0  0  0  0  0  0
   36.7140   24.7430   41.4870 C   0  0  0  0  0  0  0  0  0  0  0  0
   35.9200   25.5100   41.3050 H   0  0  0  0  0  0  0  0  0  0  0  0
   36.2390   23.9040   42.0130 H   0  0  0  0  0  0  0  0  0  0  0  0
   36.2350   27.6520   42.0400 Cl  0  0  0  0  0  0  0  0  0  0  0  0
   37.6260   26.7190   42.5170 C   0  0  0  0  0  0  0  0  0  0  0  0
   37.8330   25.3590   42.2490 C   0  0  0  0  0  0  0  0  0  0  0  0
   38.9780   24.7210   42.6770 C   0  0  0  0  0  0  0  0  0  0  0  0
   39.0670   23.6750   42.4340 H   0  0  0  0  0  0  0  0  0  0  0  0
   39.8940   25.4800   43.3720 C   0  0  0  0  0  0  0  0  0  0  0  0
   40.7990   24.9570   43.7050 H   0  0  0  0  0  0  0  0  0  0  0  0
   39.7810   26.8060   43.6800 C   0  0  0  0  0  0  0  0  0  0  0  0
   40.5350   27.3500   44.2290 H   0  0  0  0  0  0  0  0  0  0  0  0
   38.6100   27.4110   43.2280 C   0  0  0  0  0  0  0  0  0  0  0  0
   38.4230   29.1280   43.6070 Cl  0  0  0  0  0  0  0  0  0  0  0  0
  1  7  1  6  0  0  0
  1  6  1  0  0  0  0
  1 17  1  0  0  0  0
  2  3  1  0  0  0  0
  2  9  1  0  0  0  0
  2  1  1  0  0  0  0
  3 10  1  0  0  0  0
  4  3  1  0  0  0  0
  4 12  1  0  0  0  0
  4  5  1  0  0  0  0
  5 14  1  0  0  0  0
  5  6  1  0  0  0  0
  6 26  1  0  0  0  0
  6 16  1  1  0  0  0
  8  2  1  0  0  0  0
 11  3  1  0  0  0  0
 13  4  1  0  0  0  0
 15  5  1  0  0  0  0
 17 22  2  0  0  0  0
 17 18  1  0  0  0  0
 18 19  2  0  0  0  0
 19 20  1  0  0  0  0
 19 24  1  0  0  0  0
 21 25  1  0  0  0  0
 21 20  2  0  0  0  0
 22 21  1  0  0  0  0
 23 18  1  0  0  0  0
 26 28  1  0  0  0  0
 26 29  1  1  0  0  0
 27 31  1  0  0  0  0
 27 26  1  0  0  0  0
 27 28  1  0  0  0  0
 28 32  1  6  0  0  0
 28 33  1  0  0  0  0
 30 27  1  0  0  0  0
 33 35  1  0  0  0  0
 33 36  1  0  0  0  0
 34 33  1  0  0  0  0
 36 38  1  0  0  0  0
 36 41  1  0  0  0  0
 37 36  1  0  0  0  0
 39 40  1  0  0  0  0
 40 48  1  0  0  0  0
 41 40  2  0  0  0  0
 41 42  1  0  0  0  0
 42 44  2  0  0  0  0
 43 42  1  0  0  0  0
 44 46  1  0  0  0  0
 44 45  1  0  0  0  0
 46 47  1  0  0  0  0
 48 49  1  0  0  0  0
 48 46  2  0  0  0  0
M  END
>  <minimizedAffinity>
-5.56073618

$$$$

 OpenBabel03242512033D

 49 52  0  0  1  0  0  0  0  0999 V2000
   39.6710   26.2970   41.4320 C   0  0  2  0  0  0  0  0  0  0  0  0
   40.9310   25.4910   41.4950 C   0  0  0  0  0  0  0  0  0  0  0  0
   41.3910   25.2610   42.8810 C   0  0  0  0  0  0  0  0  0  0  0  0
   41.5570   26.5350   43.6790 C   0  0  0  0  0  0  0  0  0  0  0  0
   40.4990   27.5680   43.3940 C   0  0  0  0  0  0  0  0  0  0  0  0
   39.2950   26.9880   42.6910 C   0  0  1  0  0  0  0  0  0  0  0  0
   39.8700   27.0930   40.6500 H   0  0  0  0  0  0  0  0  0  0  0  0
   41.7670   25.9550   40.9320 H   0  0  0  0  0  0  0  0  0  0  0  0
   40.7480   24.5150   41.0170 H   0  0  0  0  0  0  0  0  0  0  0  0
   40.7630   24.5140   43.4060 H   0  0  0  0  0  0  0  0  0  0  0  0
   42.4120   24.8100   42.8400 H   0  0  0  0  0  0  0  0  0  0  0  0
   41.5000   26.2230   44.7570 H   0  0  0  0  0  0  0  0  0  0  0  0
   42.5750   26.9640   43.5750 H   0  0  0  0  0  0  0  0  0  0  0  0
   40.1470   27.9830   44.3600 H   0  0  0  0  0  0  0  0  0  0  0  0
   40.9010   28.4390   42.8080 H   0  0  0  0  0  0  0  0  0  0  0  0
   38.7690   26.3940   43.4500 H   0  0  0  0  0  0  0  0  0  0  0  0
   38.5260   25.5320   40.9010 C   0  0  0  0  0  0  0  0  0  0  0  0
   38.0750   24.5530   41.7700 C   0  0  0  0  0  0  0  0  0  0  0  0
   36.9850   23.7440   41.4070 C   0  0  0  0  0  0  0  0  0  0  0  0
   36.4310   24.0120   40.1480 N   0  0  0  0  0  0  0  0  0  0  0  0
   36.9090   24.9770   39.3380 C   0  0  0  0  0  0  0  0  0  0  0  0
   37.9560   25.7290   39.7290 N   0  0  0  0  0  0  0  0  0  0  0  0
   38.3580   24.1910   42.7470 H   0  0  0  0  0  0  0  0  0  0  0  0
   36.4980   22.9570   41.9200 H   0  0  0  0  0  0  0  0  0  0  0  0
   36.4260   25.1200   38.3840 H   0  0  0  0  0  0  0  0  0  0  0  0
   38.3790   28.1300   42.3370 C   0  0  2  0  0  0  0  0  0  0  0  0
   37.6570   28.8370   43.4600 C   0  0  0  0  0  0  0  0  0  0  0  0
   36.9060   27.9880   42.5040 C   0  0  1  0  0  0  0  0  0  0  0  0
   38.7850   28.8250   41.5730 H   0  0  0  0  0  0  0  0  0  0  0  0
   37.7330   28.5130   44.4960 H   0  0  0  0  0  0  0  0  0  0  0  0
   37.4520   29.9310   43.3600 H   0  0  0  0  0  0  0  0  0  0  0  0
   36.5510   27.0150   42.9020 H   0  0  0  0  0  0  0  0  0  0  0  0
   36.1240   28.5300   41.3630 C   0  0  0  0  0  0  0  0  0  0  0  0
   36.3740   28.0270   40.4120 H   0  0  0  0  0  0  0  0  0  0  0  0
   35.0380   28.2930   41.5630 H   0  0  0  0  0  0  0  0  0  0  0  0
   36.1930   30.0220   41.2100 C   0  0  0  0  0  0  0  0  0  0  0  0
   35.1720   30.4770   41.1710 H   0  0  0  0  0  0  0  0  0  0  0  0
   36.6940   30.4280   42.0990 H   0  0  0  0  0  0  0  0  0  0  0  0
   34.6790   29.0640   38.8050 Cl  0  0  0  0  0  0  0  0  0  0  0  0
   36.2220   29.8730   38.8080 C   0  0  0  0  0  0  0  0  0  0  0  0
   36.9150   30.3130   39.9430 C   0  0  0  0  0  0  0  0  0  0  0  0
   38.1360   30.9440   39.8240 C   0  0  0  0  0  0  0  0  0  0  0  0
   38.6090   31.2540   40.7410 H   0  0  0  0  0  0  0  0  0  0  0  0
   38.6300   31.1160   38.5490 C   0  0  0  0  0  0  0  0  0  0  0  0
   39.6010   31.6190   38.4730 H   0  0  0  0  0  0  0  0  0  0  0  0
   38.0290   30.7210   37.3880 C   0  0  0  0  0  0  0  0  0  0  0  0
   38.4660   30.8840   36.4130 H   0  0  0  0  0  0  0  0  0  0  0  0
   36.7990   30.0890   37.5530 C   0  0  0  0  0  0  0  0  0  0  0  0
   35.9870   29.5630   36.0740 Cl  0  0  0  0  0  0  0  0  0  0  0  0
  1  7  1  6  0  0  0
  1  2  1  0  0  0  0
  1  6  1  0  0  0  0
  2  3  1  0  0  0  0
  3 10  1  0  0  0  0
  3  4  1  0  0  0  0
  4 12  1  0  0  0  0
  5  4  1  0  0  0  0
  5 14  1  0  0  0  0
  6  5  1  0  0  0  0
  6 16  1  1  0  0  0
  8  2  1  0  0  0  0
  9  2  1  0  0  0  0
 11  3  1  0  0  0  0
 13  4  1  0  0  0  0
 15  5  1  0  0  0  0
 17  1  1  0  0  0  0
 17 18  1  0  0  0  0
 18 23  1  0  0  0  0
 19 18  2  0  0  0  0
 19 24  1  0  0  0  0
 20 19  1  0  0  0  0
 21 22  1  0  0  0  0
 21 20  2  0  0  0  0
 22 17  2  0  0  0  0
 25 21  1  0  0  0  0
 26 29  1  6  0  0  0
 26 28  1  0  0  0  0
 26  6  1  0  0  0  0
 26 27  1  0  0  0  0
 27 30  1  0  0  0  0
 28 32  1  1  0  0  0
 28 27  1  0  0  0  0
 31 27  1  0  0  0  0
 33 35  1  0  0  0  0
 33 28  1  0  0  0  0
 34 33  1  0  0  0  0
 36 33  1  0  0  0  0
 36 38  1  0  0  0  0
 37 36  1  0  0  0  0
 39 40  1  0  0  0  0
 40 41  1  0  0  0  0
 41 36  1  0  0  0  0
 42 41  2  0  0  0  0
 42 43  1  0  0  0  0
 44 42  1  0  0  0  0
 45 44  1  0  0  0  0
 46 48  1  0  0  0  0
 46 44  2  0  0  0  0
 47 46  1  0  0  0  0
 48 40  2  0  0  0  0
 49 48  1  0  0  0  0
M  END
>  <minimizedAffinity>
-5.49600649

$$$$

 OpenBabel03242512033D

 49 52  0  0  1  0  0  0  0  0999 V2000
   37.1820   29.1370   38.1220 C   0  0  2  0  0  0  0  0  0  0  0  0
   36.5270   29.3980   36.8020 C   0  0  0  0  0  0  0  0  0  0  0  0
   35.0570   29.2450   36.8550 C   0  0  0  0  0  0  0  0  0  0  0  0
   34.6110   27.9040   37.3930 C   0  0  0  0  0  0  0  0  0  0  0  0
   35.4670   27.3900   38.5200 C   0  0  0  0  0  0  0  0  0  0  0  0
   36.3270   28.4690   39.1350 C   0  0  1  0  0  0  0  0  0  0  0  0
   38.0460   28.4420   37.8890 H   0  0  0  0  0  0  0  0  0  0  0  0
   36.9070   28.7390   35.9950 H   0  0  0  0  0  0  0  0  0  0  0  0
   36.7630   30.4280   36.4890 H   0  0  0  0  0  0  0  0  0  0  0  0
   34.5730   30.0910   37.3800 H   0  0  0  0  0  0  0  0  0  0  0  0
   34.6630   29.2840   35.8110 H   0  0  0  0  0  0  0  0  0  0  0  0
   33.5600   28.0620   37.7580 H   0  0  0  0  0  0  0  0  0  0  0  0
   34.5060   27.1450   36.5900 H   0  0  0  0  0  0  0  0  0  0  0  0
   34.8000   27.0070   39.3190 H   0  0  0  0  0  0  0  0  0  0  0  0
   36.1090   26.5230   38.2060 H   0  0  0  0  0  0  0  0  0  0  0  0
   35.6370   29.1050   39.7060 H   0  0  0  0  0  0  0  0  0  0  0  0
   37.8170   30.3400   38.6950 C   0  0  0  0  0  0  0  0  0  0  0  0
   36.9120   31.2010   39.2930 C   0  0  0  0  0  0  0  0  0  0  0  0
   37.3680   32.3890   39.8900 C   0  0  0  0  0  0  0  0  0  0  0  0
   38.7520   32.6030   39.8230 N   0  0  0  0  0  0  0  0  0  0  0  0
   39.5900   31.7320   39.2270 C   0  0  0  0  0  0  0  0  0  0  0  0
   39.1080   30.6050   38.6680 N   0  0  0  0  0  0  0  0  0  0  0  0
   35.8430   31.2260   39.4400 H   0  0  0  0  0  0  0  0  0  0  0  0
   36.8480   33.1630   40.3900 H   0  0  0  0  0  0  0  0  0  0  0  0
   40.6420   31.9710   39.2170 H   0  0  0  0  0  0  0  0  0  0  0  0
   37.2310   27.8120   40.1440 C   0  0  2  0  0  0  0  0  0  0  0  0
   38.1440   26.7060   39.6680 C   0  0  0  0  0  0  0  0  0  0  0  0
   36.9960   26.4010   40.5540 C   0  0  1  0  0  0  0  0  0  0  0  0
   37.7270   28.5170   40.8440 H   0  0  0  0  0  0  0  0  0  0  0  0
   38.1250   26.3370   38.6450 H   0  0  0  0  0  0  0  0  0  0  0  0
   39.1430   26.5900   40.1560 H   0  0  0  0  0  0  0  0  0  0  0  0
   36.1390   25.8880   40.0710 H   0  0  0  0  0  0  0  0  0  0  0  0
   37.1230   26.1780   42.0180 C   0  0  0  0  0  0  0  0  0  0  0  0
   36.2220   25.7050   42.4460 H   0  0  0  0  0  0  0  0  0  0  0  0
   37.9640   25.4400   42.1690 H   0  0  0  0  0  0  0  0  0  0  0  0
   37.5070   27.3990   42.8040 C   0  0  0  0  0  0  0  0  0  0  0  0
   37.2820   28.3370   42.2380 H   0  0  0  0  0  0  0  0  0  0  0  0
   36.8960   27.4170   43.7160 H   0  0  0  0  0  0  0  0  0  0  0  0
   38.8790   30.0280   42.3570 Cl  0  0  0  0  0  0  0  0  0  0  0  0
   39.6250   28.5400   42.8710 C   0  0  0  0  0  0  0  0  0  0  0  0
   38.9680   27.3200   43.0740 C   0  0  0  0  0  0  0  0  0  0  0  0
   39.6640   26.2020   43.4840 C   0  0  0  0  0  0  0  0  0  0  0  0
   39.0910   25.3000   43.6190 H   0  0  0  0  0  0  0  0  0  0  0  0
   41.0200   26.3470   43.6790 C   0  0  0  0  0  0  0  0  0  0  0  0
   41.5580   25.4480   44.0040 H   0  0  0  0  0  0  0  0  0  0  0  0
   41.7460   27.4910   43.5060 C   0  0  0  0  0  0  0  0  0  0  0  0
   42.8120   27.5440   43.6750 H   0  0  0  0  0  0  0  0  0  0  0  0
   41.0040   28.5950   43.0930 C   0  0  0  0  0  0  0  0  0  0  0  0
   41.9060   30.0970   42.8580 Cl  0  0  0  0  0  0  0  0  0  0  0  0
  1  7  1  6  0  0  0
  1 17  1  0  0  0  0
  1  6  1  0  0  0  0
  2  3  1  0  0  0  0
  2  1  1  0  0  0  0
  3 10  1  0  0  0  0
  3  4  1  0  0  0  0
  4 12  1  0  0  0  0
  4  5  1  0  0  0  0
  5  6  1  0  0  0  0
  5 14  1  0  0  0  0
  6 16  1  1  0  0  0
  6 26  1  0  0  0  0
  8  2  1  0  0  0  0
  9  2  1  0  0  0  0
 11  3  1  0  0  0  0
 13  4  1  0  0  0  0
 15  5  1  0  0  0  0
 17 18  1  0  0  0  0
 18 23  1  0  0  0  0
 18 19  2  0  0  0  0
 19 24  1  0  0  0  0
 20 19  1  0  0  0  0
 21 20  2  0  0  0  0
 22 17  2  0  0  0  0
 22 21  1  0  0  0  0
 25 21  1  0  0  0  0
 26 28  1  0  0  0  0
 26 29  1  1  0  0  0
 27 26  1  0  0  0  0
 27 31  1  0  0  0  0
 27 28  1  0  0  0  0
 28 32  1  6  0  0  0
 28 33  1  0  0  0  0
 30 27  1  0  0  0  0
 33 35  1  0  0  0  0
 33 34  1  0  0  0  0
 33 36  1  0  0  0  0
 36 41  1  0  0  0  0
 36 38  1  0  0  0  0
 37 36  1  0  0  0  0
 39 40  1  0  0  0  0
 40 41  2  0  0  0  0
 40 48  1  0  0  0  0
 41 42  1  0  0  0  0
 42 43  1  0  0  0  0
 42 44  2  0  0  0  0
 44 45  1  0  0  0  0
 46 47  1  0  0  0  0
 46 44  1  0  0  0  0
 48 46  2  0  0  0  0
 49 48  1  0  0  0  0
M  END
>  <minimizedAffinity>
-5.48598242

$$$$
