REMARK  Name = 
REMARK  3 active torsions:
REMARK  status: ('A' for Active; 'I' for Inactive)
REMARK    1  A    between atoms: C_1  and  C_5
REMARK    2  A    between atoms: C_3  and  N_10
REMARK    3  A    between atoms: C_15  and  C_34
REMARK                            x       y       z     vdW  Elec       q    Type
REMARK                         _______ _______ _______ _____ _____    ______ ____
ROOT
ATOM      1  N   UNL     1      49.313  33.203  41.480  0.00  0.00    +0.000 NA
ATOM      2  C   UNL     1      50.653  33.123  42.003  0.00  0.00    +0.000 C 
ATOM      3  C   UNL     1      51.340  31.816  41.806  0.00  0.00    +0.000 C 
ATOM      4  C   UNL     1      50.611  30.734  42.558  0.00  0.00    +0.000 C 
ATOM      5  C   UNL     1      49.146  30.991  42.549  0.00  0.00    +0.000 C 
ATOM      6  C   UNL     1      48.734  31.872  41.410  0.00  0.00    +0.000 C 
ATOM      7  H   UNL     1      50.591  33.272  43.121  0.00  0.00    +0.000 HD
ATOM      8  H   UNL     1      51.274  33.990  41.666  0.00  0.00    +0.000 HD
ATOM      9  H   UNL     1      51.612  31.540  40.792  0.00  0.00    +0.000 HD
ATOM     10  H   UNL     1      52.334  31.930  42.342  0.00  0.00    +0.000 HD
ATOM     11  H   UNL     1      50.976  30.675  43.599  0.00  0.00    +0.000 HD
ATOM     12  H   UNL     1      50.782  29.737  42.071  0.00  0.00    +0.000 HD
ATOM     13  H   UNL     1      48.522  30.087  42.553  0.00  0.00    +0.000 HD
ATOM     14  H   UNL     1      48.888  31.535  43.484  0.00  0.00    +0.000 HD
ATOM     15  H   UNL     1      47.633  32.076  41.610  0.00  0.00    +0.000 HD
ENDROOT
BRANCH   6  18
ATOM     16 CL   UNL     1      46.946  32.827  38.997  0.00  0.00    +0.000 Cl
ATOM     17  C   UNL     1      48.128  31.570  38.908  0.00  0.00    +0.000 A 
ATOM     18  C   UNL     1      48.781  31.275  40.078  0.00  0.00    +0.000 A 
ATOM     19  C   UNL     1      49.711  30.229  40.025  0.00  0.00    +0.000 A 
ATOM     20  H   UNL     1      50.356  29.796  40.803  0.00  0.00    +0.000 HD
ATOM     21  C   UNL     1      49.936  29.546  38.822  0.00  0.00    +0.000 A 
ATOM     22  H   UNL     1      50.628  28.730  38.678  0.00  0.00    +0.000 HD
ATOM     23  C   UNL     1      49.256  29.881  37.670  0.00  0.00    +0.000 A 
ATOM     24  H   UNL     1      49.399  29.381  36.721  0.00  0.00    +0.000 HD
ATOM     25  C   UNL     1      48.339  30.910  37.721  0.00  0.00    +0.000 A 
ATOM     26 CL   UNL     1      47.440  31.397  36.321  0.00  0.00    +0.000 Cl
ENDBRANCH   6  18
BRANCH   1  29
ATOM     27  C   UNL     1      47.180  34.550  42.012  0.00  0.00    +0.000 C 
ATOM     28  C   UNL     1      48.313  35.451  41.745  0.00  0.00    +0.000 C 
ATOM     29  C   UNL     1      48.580  34.104  42.296  0.00  0.00    +0.000 C 
ATOM     30  H   UNL     1      46.703  34.059  41.136  0.00  0.00    +0.000 HD
ATOM     31  H   UNL     1      48.506  35.717  40.702  0.00  0.00    +0.000 HD
ATOM     32  H   UNL     1      48.422  36.303  42.457  0.00  0.00    +0.000 HD
ATOM     33  H   UNL     1      48.797  34.025  43.383  0.00  0.00    +0.000 HD
BRANCH  27  35
ATOM     34  C   UNL     1      45.495  36.032  43.164  0.00  0.00    +0.000 A 
ATOM     35  C   UNL     1      46.271  34.854  43.148  0.00  0.00    +0.000 A 
ATOM     36  C   UNL     1      46.160  33.973  44.235  0.00  0.00    +0.000 A 
ATOM     37  N   UNL     1      45.307  34.299  45.254  0.00  0.00    +0.000 NA
ATOM     38  C   UNL     1      44.581  35.448  45.220  0.00  0.00    +0.000 A 
ATOM     39  N   UNL     1      44.665  36.328  44.178  0.00  0.00    +0.000 NA
ATOM     40  H   UNL     1      45.584  36.700  42.331  0.00  0.00    +0.000 HD
ATOM     41  H   UNL     1      46.748  33.065  44.238  0.00  0.00    +0.000 HD
ATOM     42  H   UNL     1      43.914  35.673  46.048  0.00  0.00    +0.000 HD
ENDBRANCH  27  35
ENDBRANCH   1  29
TORSDOF 3
