
 OpenBabel03242513103D

 43 47  0  0  0  0  0  0  0  0999 V2000
   36.2020   28.0660   40.2120 C   0  0  0  0  0  0  0  0  0  0  0  0
   36.7550   28.5980   41.3880 C   0  0  0  0  0  0  0  0  0  0  0  0
   37.4470   27.7290   42.2100 C   0  0  0  0  0  0  0  0  0  0  0  0
   37.5420   26.4270   41.8180 N   0  0  0  0  0  0  0  0  0  0  0  0
   37.0080   25.9350   40.6930 C   0  0  0  0  0  0  0  0  0  0  0  0
   36.3330   26.7580   39.8810 N   0  0  0  0  0  0  0  0  0  0  0  0
   35.6620   28.7410   39.5670 H   0  0  0  0  0  0  0  0  0  0  0  0
   38.2970   23.8470   40.7460 C   0  0  0  0  0  0  0  0  0  0  0  0
   37.1700   24.5300   40.3760 C   0  0  0  0  0  0  0  0  0  0  0  0
   36.1090   23.9200   39.6740 C   0  0  0  0  0  0  0  0  0  0  0  0
   36.1860   22.5750   39.3310 C   0  0  0  0  0  0  0  0  0  0  0  0
   35.4050   21.6770   38.6860 N   0  0  0  0  0  0  0  0  0  0  0  0
   36.0610   20.4790   38.6740 C   0  0  0  0  0  0  0  0  0  0  0  0
   37.2280   20.6560   39.3070 N   0  0  0  0  0  0  0  0  0  0  0  0
   37.3330   21.9270   39.7210 C   0  0  0  0  0  0  0  0  0  0  0  0
   38.3940   22.4970   40.4120 C   0  0  0  0  0  0  0  0  0  0  0  0
   39.0880   24.3410   41.2790 H   0  0  0  0  0  0  0  0  0  0  0  0
   35.2140   24.4600   39.3790 H   0  0  0  0  0  0  0  0  0  0  0  0
   34.4840   22.0300   38.3260 H   0  0  0  0  0  0  0  0  0  0  0  0
   35.5480   19.6590   38.1870 H   0  0  0  0  0  0  0  0  0  0  0  0
   39.2650   21.9230   40.6830 H   0  0  0  0  0  0  0  0  0  0  0  0
   38.0520   28.2360   43.4660 C   0  0  0  0  0  0  0  0  0  0  0  0
   38.8110   27.2360   44.0860 F   0  0  0  0  0  0  0  0  0  0  0  0
   38.9240   29.2620   43.1970 F   0  0  0  0  0  0  0  0  0  0  0  0
   37.0380   28.6330   44.3040 F   0  0  0  0  0  0  0  0  0  0  0  0
   36.5860   29.9180   41.6570 O   0  0  0  0  0  0  0  0  0  0  0  0
   37.1400   30.9070   40.8840 C   0  0  0  0  0  0  0  0  0  0  0  0
   36.4990   30.7480   39.6620 C   0  0  0  0  0  0  0  0  0  0  0  0
   37.2410   32.0800   38.6190 S   0  0  0  0  0  0  0  0  0  0  0  0
   38.3120   32.6270   40.0560 C   0  0  0  0  0  0  0  0  0  0  0  0
   37.9730   31.8930   40.8020 N   0  0  0  0  0  0  0  0  0  0  0  0
   35.7120   30.2110   38.8940 H   0  0  0  0  0  0  0  0  0  0  0  0
   40.9210   31.7910   39.0500 Cl  0  0  0  0  0  0  0  0  0  0  0  0
   40.5340   33.4310   39.5170 C   0  0  0  0  0  0  0  0  0  0  0  0
   39.2840   33.7670   39.9850 C   0  0  0  0  0  0  0  0  0  0  0  0
   38.8530   34.9960   40.3800 C   0  0  0  0  0  0  0  0  0  0  0  0
   37.8510   35.1830   40.7380 H   0  0  0  0  0  0  0  0  0  0  0  0
   39.7570   36.0360   40.3100 C   0  0  0  0  0  0  0  0  0  0  0  0
   39.5480   37.0410   40.5870 H   0  0  0  0  0  0  0  0  0  0  0  0
   41.0400   35.7720   39.8470 C   0  0  0  0  0  0  0  0  0  0  0  0
   41.8290   36.5260   39.7540 H   0  0  0  0  0  0  0  0  0  0  0  0
   41.4160   34.4880   39.4580 C   0  0  0  0  0  0  0  0  0  0  0  0
   43.0220   34.1200   38.8710 Cl  0  0  0  0  0  0  0  0  0  0  0  0
  1  2  1  0  0  0  0
  2 26  1  0  0  0  0
  2  3  2  0  0  0  0
  3 22  1  0  0  0  0
  4  3  1  0  0  0  0
  5  4  2  0  0  0  0
  6  1  2  0  0  0  0
  6  5  1  0  0  0  0
  7  1  1  0  0  0  0
  8 17  1  0  0  0  0
  9  5  1  0  0  0  0
  9  8  2  0  0  0  0
 10  9  1  0  0  0  0
 11 10  2  0  0  0  0
 11 15  1  0  0  0  0
 12 11  1  0  0  0  0
 13 12  1  0  0  0  0
 13 14  2  0  0  0  0
 14 15  1  0  0  0  0
 15 16  2  0  0  0  0
 16 21  1  0  0  0  0
 16  8  1  0  0  0  0
 18 10  1  0  0  0  0
 19 12  1  0  0  0  0
 20 13  1  0  0  0  0
 22 23  1  0  0  0  0
 22 25  1  0  0  0  0
 24 22  1  0  0  0  0
 27 26  1  0  0  0  0
 28 27  2  0  0  0  0
 29 28  1  0  0  0  0
 29 30  1  0  0  0  0
 30 31  2  0  0  0  0
 31 27  1  0  0  0  0
 32 28  1  0  0  0  0
 33 34  1  0  0  0  0
 34 35  1  0  0  0  0
 35 30  1  0  0  0  0
 35 36  2  0  0  0  0
 36 37  1  0  0  0  0
 38 36  1  0  0  0  0
 38 39  1  0  0  0  0
 40 38  2  0  0  0  0
 41 40  1  0  0  0  0
 42 34  2  0  0  0  0
 42 40  1  0  0  0  0
 43 42  1  0  0  0  0
M  END
>  <minimizedAffinity>
-7.6412034

$$$$

 OpenBabel03242513103D

 43 47  0  0  0  0  0  0  0  0999 V2000
   38.8320   27.7220   40.3650 C   0  0  0  0  0  0  0  0  0  0  0  0
   38.3750   27.2540   41.6070 C   0  0  0  0  0  0  0  0  0  0  0  0
   37.8800   28.1930   42.4920 C   0  0  0  0  0  0  0  0  0  0  0  0
   37.8730   29.4970   42.0940 N   0  0  0  0  0  0  0  0  0  0  0  0
   38.3130   29.9270   40.9050 C   0  0  0  0  0  0  0  0  0  0  0  0
   38.7970   29.0350   40.0310 N   0  0  0  0  0  0  0  0  0  0  0  0
   39.2180   26.9920   39.6710 H   0  0  0  0  0  0  0  0  0  0  0  0
   37.2110   31.8650   39.8800 C   0  0  0  0  0  0  0  0  0  0  0  0
   38.2600   31.3400   40.5870 C   0  0  0  0  0  0  0  0  0  0  0  0
   39.3370   32.1260   41.0430 C   0  0  0  0  0  0  0  0  0  0  0  0
   39.3620   33.4910   40.7780 C   0  0  0  0  0  0  0  0  0  0  0  0
   40.1890   34.5300   41.0400 N   0  0  0  0  0  0  0  0  0  0  0  0
   39.6380   35.6560   40.4950 C   0  0  0  0  0  0  0  0  0  0  0  0
   38.4870   35.2950   39.9110 N   0  0  0  0  0  0  0  0  0  0  0  0
   38.2910   33.9770   40.0680 C   0  0  0  0  0  0  0  0  0  0  0  0
   37.2160   33.2320   39.6050 C   0  0  0  0  0  0  0  0  0  0  0  0
   36.4050   31.2380   39.5470 H   0  0  0  0  0  0  0  0  0  0  0  0
   40.1710   31.7120   41.6030 H   0  0  0  0  0  0  0  0  0  0  0  0
   41.0600   34.3110   41.5820 H   0  0  0  0  0  0  0  0  0  0  0  0
   40.1970   36.5730   40.6290 H   0  0  0  0  0  0  0  0  0  0  0  0
   36.4100   33.6860   39.0520 H   0  0  0  0  0  0  0  0  0  0  0  0
   37.3830   27.7560   43.8200 C   0  0  0  0  0  0  0  0  0  0  0  0
   37.0280   28.8620   44.6020 F   0  0  0  0  0  0  0  0  0  0  0  0
   36.2400   27.0070   43.6810 F   0  0  0  0  0  0  0  0  0  0  0  0
   38.3840   27.0510   44.4450 F   0  0  0  0  0  0  0  0  0  0  0  0
   38.4380   25.9250   41.8760 O   0  0  0  0  0  0  0  0  0  0  0  0
   37.7480   24.9900   41.1470 C   0  0  0  0  0  0  0  0  0  0  0  0
   38.6340   23.9220   41.0820 C   0  0  0  0  0  0  0  0  0  0  0  0
   37.7080   22.6600   40.1040 S   0  0  0  0  0  0  0  0  0  0  0  0
   36.2510   23.8280   39.9520 C   0  0  0  0  0  0  0  0  0  0  0  0
   36.6630   24.6790   40.5140 N   0  0  0  0  0  0  0  0  0  0  0  0
   39.6940   23.3570   41.3180 H   0  0  0  0  0  0  0  0  0  0  0  0
   36.2680   24.7940   37.1980 Cl  0  0  0  0  0  0  0  0  0  0  0  0
   34.9340   23.9230   37.9180 C   0  0  0  0  0  0  0  0  0  0  0  0
   34.9820   23.4910   39.2250 C   0  0  0  0  0  0  0  0  0  0  0  0
   34.0220   22.8080   39.9050 C   0  0  0  0  0  0  0  0  0  0  0  0
   34.1330   22.5020   40.9350 H   0  0  0  0  0  0  0  0  0  0  0  0
   32.8610   22.5040   39.2240 C   0  0  0  0  0  0  0  0  0  0  0  0
   32.0360   21.9760   39.6390 H   0  0  0  0  0  0  0  0  0  0  0  0
   32.7400   22.9080   37.9010 C   0  0  0  0  0  0  0  0  0  0  0  0
   31.8620   22.7170   37.2760 H   0  0  0  0  0  0  0  0  0  0  0  0
   33.7640   23.6060   37.2640 C   0  0  0  0  0  0  0  0  0  0  0  0
   33.6460   24.1300   35.5990 Cl  0  0  0  0  0  0  0  0  0  0  0  0
  1  2  1  0  0  0  0
  2 26  1  0  0  0  0
  2  3  2  0  0  0  0
  3 22  1  0  0  0  0
  4  3  1  0  0  0  0
  5  4  2  0  0  0  0
  6  1  2  0  0  0  0
  6  5  1  0  0  0  0
  7  1  1  0  0  0  0
  8  9  1  0  0  0  0
  9  5  1  0  0  0  0
  9 10  2  0  0  0  0
 10 18  1  0  0  0  0
 11 12  1  0  0  0  0
 11 10  1  0  0  0  0
 12 19  1  0  0  0  0
 13 20  1  0  0  0  0
 13 12  1  0  0  0  0
 14 15  1  0  0  0  0
 14 13  2  0  0  0  0
 15 11  2  0  0  0  0
 16  8  2  0  0  0  0
 16 15  1  0  0  0  0
 17  8  1  0  0  0  0
 21 16  1  0  0  0  0
 22 25  1  0  0  0  0
 22 23  1  0  0  0  0
 24 22  1  0  0  0  0
 27 26  1  0  0  0  0
 28 27  2  0  0  0  0
 28 32  1  0  0  0  0
 29 28  1  0  0  0  0
 30 29  1  0  0  0  0
 30 31  2  0  0  0  0
 31 27  1  0  0  0  0
 33 34  1  0  0  0  0
 34 35  1  0  0  0  0
 35 36  2  0  0  0  0
 35 30  1  0  0  0  0
 36 37  1  0  0  0  0
 38 39  1  0  0  0  0
 38 36  1  0  0  0  0
 40 38  2  0  0  0  0
 41 40  1  0  0  0  0
 42 40  1  0  0  0  0
 42 34  2  0  0  0  0
 43 42  1  0  0  0  0
M  END
>  <minimizedAffinity>
-7.41553354

$$$$

 OpenBabel03242513103D

 43 47  0  0  0  0  0  0  0  0999 V2000
   40.5080   31.1900   38.1900 C   0  0  0  0  0  0  0  0  0  0  0  0
   39.1990   31.6300   38.4400 C   0  0  0  0  0  0  0  0  0  0  0  0
   39.0470   32.7170   39.2800 C   0  0  0  0  0  0  0  0  0  0  0  0
   40.1760   33.2770   39.8000 N   0  0  0  0  0  0  0  0  0  0  0  0
   41.4180   32.8440   39.5530 C   0  0  0  0  0  0  0  0  0  0  0  0
   41.5900   31.7930   38.7410 N   0  0  0  0  0  0  0  0  0  0  0  0
   40.6300   30.3420   37.5330 H   0  0  0  0  0  0  0  0  0  0  0  0
   43.7950   33.4540   39.5990 C   0  0  0  0  0  0  0  0  0  0  0  0
   42.5480   33.5160   40.1630 C   0  0  0  0  0  0  0  0  0  0  0  0
   42.2880   34.2260   41.3530 C   0  0  0  0  0  0  0  0  0  0  0  0
   43.3190   34.8970   42.0000 C   0  0  0  0  0  0  0  0  0  0  0  0
   43.4540   35.6540   43.1150 N   0  0  0  0  0  0  0  0  0  0  0  0
   44.7620   36.0350   43.2100 C   0  0  0  0  0  0  0  0  0  0  0  0
   45.4090   35.5110   42.1600 N   0  0  0  0  0  0  0  0  0  0  0  0
   44.5530   34.8100   41.4020 C   0  0  0  0  0  0  0  0  0  0  0  0
   44.8420   34.1210   40.2330 C   0  0  0  0  0  0  0  0  0  0  0  0
   43.9600   32.9040   38.6910 H   0  0  0  0  0  0  0  0  0  0  0  0
   41.3000   34.2760   41.8030 H   0  0  0  0  0  0  0  0  0  0  0  0
   42.5850   35.8110   43.6830 H   0  0  0  0  0  0  0  0  0  0  0  0
   45.0190   36.6520   44.0630 H   0  0  0  0  0  0  0  0  0  0  0  0
   45.8390   34.0980   39.8230 H   0  0  0  0  0  0  0  0  0  0  0  0
   37.6860   33.2250   39.5790 C   0  0  0  0  0  0  0  0  0  0  0  0
   37.7500   34.5180   40.1160 F   0  0  0  0  0  0  0  0  0  0  0  0
   36.9490   33.3290   38.4250 F   0  0  0  0  0  0  0  0  0  0  0  0
   37.0990   32.3780   40.4870 F   0  0  0  0  0  0  0  0  0  0  0  0
   38.1610   30.9800   37.8530 O   0  0  0  0  0  0  0  0  0  0  0  0
   37.4930   29.9500   38.4660 C   0  0  0  0  0  0  0  0  0  0  0  0
   36.2140   30.0420   37.9310 C   0  0  0  0  0  0  0  0  0  0  0  0
   35.3110   28.6560   38.7520 S   0  0  0  0  0  0  0  0  0  0  0  0
   36.8610   28.1870   39.6950 C   0  0  0  0  0  0  0  0  0  0  0  0
   37.5350   28.9610   39.2980 N   0  0  0  0  0  0  0  0  0  0  0  0
   35.3540   30.5370   37.2140 H   0  0  0  0  0  0  0  0  0  0  0  0
   37.0930   25.6090   38.3470 Cl  0  0  0  0  0  0  0  0  0  0  0  0
   37.0460   25.8020   40.0840 C   0  0  0  0  0  0  0  0  0  0  0  0
   36.9350   27.0450   40.6650 C   0  0  0  0  0  0  0  0  0  0  0  0
   36.8870   27.3350   41.9940 C   0  0  0  0  0  0  0  0  0  0  0  0
   36.7990   28.3410   42.3750 H   0  0  0  0  0  0  0  0  0  0  0  0
   36.9570   26.2750   42.8750 C   0  0  0  0  0  0  0  0  0  0  0  0
   36.9300   26.3650   43.9340 H   0  0  0  0  0  0  0  0  0  0  0  0
   37.0690   24.9900   42.3610 C   0  0  0  0  0  0  0  0  0  0  0  0
   37.1310   24.0840   42.9740 H   0  0  0  0  0  0  0  0  0  0  0  0
   37.1130   24.7630   40.9870 C   0  0  0  0  0  0  0  0  0  0  0  0
   37.2540   23.1580   40.3060 Cl  0  0  0  0  0  0  0  0  0  0  0  0
  1  2  2  0  0  0  0
  1  6  1  0  0  0  0
  2  3  1  0  0  0  0
  3 22  1  0  0  0  0
  3  4  2  0  0  0  0
  5  4  1  0  0  0  0
  5  9  1  0  0  0  0
  6  5  2  0  0  0  0
  7  1  1  0  0  0  0
  8  9  2  0  0  0  0
  8 16  1  0  0  0  0
  9 10  1  0  0  0  0
 10 18  1  0  0  0  0
 10 11  2  0  0  0  0
 11 12  1  0  0  0  0
 12 13  1  0  0  0  0
 12 19  1  0  0  0  0
 13 20  1  0  0  0  0
 14 13  2  0  0  0  0
 15 11  1  0  0  0  0
 15 14  1  0  0  0  0
 16 15  2  0  0  0  0
 17  8  1  0  0  0  0
 21 16  1  0  0  0  0
 22 23  1  0  0  0  0
 22 25  1  0  0  0  0
 24 22  1  0  0  0  0
 26  2  1  0  0  0  0
 26 27  1  0  0  0  0
 27 31  1  0  0  0  0
 28 27  2  0  0  0  0
 28 29  1  0  0  0  0
 29 30  1  0  0  0  0
 30 35  1  0  0  0  0
 31 30  2  0  0  0  0
 32 28  1  0  0  0  0
 33 34  1  0  0  0  0
 34 35  2  0  0  0  0
 34 42  1  0  0  0  0
 35 36  1  0  0  0  0
 36 37  1  0  0  0  0
 36 38  2  0  0  0  0
 38 39  1  0  0  0  0
 40 38  1  0  0  0  0
 40 41  1  0  0  0  0
 42 40  2  0  0  0  0
 43 42  1  0  0  0  0
M  END
>  <minimizedAffinity>
-7.1072197

$$$$

 OpenBabel03242513103D

 43 47  0  0  0  0  0  0  0  0999 V2000
   37.3300   30.4140   37.5400 C   0  0  0  0  0  0  0  0  0  0  0  0
   36.6920   29.5470   38.4400 C   0  0  0  0  0  0  0  0  0  0  0  0
   36.7620   29.8660   39.7820 C   0  0  0  0  0  0  0  0  0  0  0  0
   37.4430   30.9960   40.1290 N   0  0  0  0  0  0  0  0  0  0  0  0
   38.0470   31.8120   39.2580 C   0  0  0  0  0  0  0  0  0  0  0  0
   37.9920   31.5230   37.9520 N   0  0  0  0  0  0  0  0  0  0  0  0
   37.2770   30.1690   36.4900 H   0  0  0  0  0  0  0  0  0  0  0  0
   38.1190   34.2030   39.8060 C   0  0  0  0  0  0  0  0  0  0  0  0
   38.7460   32.9880   39.7390 C   0  0  0  0  0  0  0  0  0  0  0  0
   40.0880   32.8030   40.1290 C   0  0  0  0  0  0  0  0  0  0  0  0
   40.8280   33.8810   40.6020 C   0  0  0  0  0  0  0  0  0  0  0  0
   42.0880   34.0880   41.0510 N   0  0  0  0  0  0  0  0  0  0  0  0
   42.2070   35.4100   41.3790 C   0  0  0  0  0  0  0  0  0  0  0  0
   41.0260   35.9920   41.1280 N   0  0  0  0  0  0  0  0  0  0  0  0
   40.1630   35.0820   40.6530 C   0  0  0  0  0  0  0  0  0  0  0  0
   38.8440   35.2970   40.2780 C   0  0  0  0  0  0  0  0  0  0  0  0
   37.0950   34.3100   39.5010 H   0  0  0  0  0  0  0  0  0  0  0  0
   40.5880   31.8390   40.0770 H   0  0  0  0  0  0  0  0  0  0  0  0
   42.7230   33.2530   41.0710 H   0  0  0  0  0  0  0  0  0  0  0  0
   43.1720   35.7230   41.7570 H   0  0  0  0  0  0  0  0  0  0  0  0
   38.3890   36.2720   40.3460 H   0  0  0  0  0  0  0  0  0  0  0  0
   36.1060   28.9860   40.7790 C   0  0  0  0  0  0  0  0  0  0  0  0
   36.4860   27.6520   40.5840 F   0  0  0  0  0  0  0  0  0  0  0  0
   36.5120   29.3140   42.0490 F   0  0  0  0  0  0  0  0  0  0  0  0
   34.7450   29.1040   40.6300 F   0  0  0  0  0  0  0  0  0  0  0  0
   36.0460   28.4540   37.9580 O   0  0  0  0  0  0  0  0  0  0  0  0
   34.8350   28.5340   37.3190 C   0  0  0  0  0  0  0  0  0  0  0  0
   34.5110   27.2020   37.0890 C   0  0  0  0  0  0  0  0  0  0  0  0
   32.8800   27.3050   36.2300 S   0  0  0  0  0  0  0  0  0  0  0  0
   32.9260   29.1750   36.3370 C   0  0  0  0  0  0  0  0  0  0  0  0
   33.8910   29.2860   36.8520 N   0  0  0  0  0  0  0  0  0  0  0  0
   34.7130   25.9960   37.1430 H   0  0  0  0  0  0  0  0  0  0  0  0
   31.0010   29.9270   38.3990 Cl  0  0  0  0  0  0  0  0  0  0  0  0
   30.9070   30.4570   36.7350 C   0  0  0  0  0  0  0  0  0  0  0  0
   31.8450   30.0680   35.8050 C   0  0  0  0  0  0  0  0  0  0  0  0
   31.8900   30.4050   34.4860 C   0  0  0  0  0  0  0  0  0  0  0  0
   32.6610   30.0590   33.8160 H   0  0  0  0  0  0  0  0  0  0  0  0
   30.8890   31.2280   34.0100 C   0  0  0  0  0  0  0  0  0  0  0  0
   30.8090   31.5630   33.0040 H   0  0  0  0  0  0  0  0  0  0  0  0
   29.9070   31.6590   34.8920 C   0  0  0  0  0  0  0  0  0  0  0  0
   29.0730   32.3120   34.6130 H   0  0  0  0  0  0  0  0  0  0  0  0
   29.9210   31.2770   36.2310 C   0  0  0  0  0  0  0  0  0  0  0  0
   28.7000   31.8010   37.3690 Cl  0  0  0  0  0  0  0  0  0  0  0  0
  1  6  2  0  0  0  0
  1  2  1  0  0  0  0
  2  3  2  0  0  0  0
  3  4  1  0  0  0  0
  3 22  1  0  0  0  0
  5  9  1  0  0  0  0
  5  4  2  0  0  0  0
  6  5  1  0  0  0  0
  7  1  1  0  0  0  0
  8 16  1  0  0  0  0
  9  8  2  0  0  0  0
  9 10  1  0  0  0  0
 10 11  2  0  0  0  0
 11 15  1  0  0  0  0
 11 12  1  0  0  0  0
 12 19  1  0  0  0  0
 12 13  1  0  0  0  0
 13 20  1  0  0  0  0
 14 13  2  0  0  0  0
 15 14  1  0  0  0  0
 16 21  1  0  0  0  0
 16 15  2  0  0  0  0
 17  8  1  0  0  0  0
 18 10  1  0  0  0  0
 22 24  1  0  0  0  0
 23 22  1  0  0  0  0
 25 22  1  0  0  0  0
 26  2  1  0  0  0  0
 27 26  1  0  0  0  0
 28 32  1  0  0  0  0
 28 27  2  0  0  0  0
 29 30  1  0  0  0  0
 29 28  1  0  0  0  0
 30 31  2  0  0  0  0
 31 27  1  0  0  0  0
 34 33  1  0  0  0  0
 35 30  1  0  0  0  0
 35 34  2  0  0  0  0
 36 35  1  0  0  0  0
 37 36  1  0  0  0  0
 38 36  2  0  0  0  0
 38 40  1  0  0  0  0
 39 38  1  0  0  0  0
 40 42  2  0  0  0  0
 41 40  1  0  0  0  0
 42 34  1  0  0  0  0
 42 43  1  0  0  0  0
M  END
>  <minimizedAffinity>
-6.96057749

$$$$

 OpenBabel03242513103D

 43 47  0  0  0  0  0  0  0  0999 V2000
   36.4190   29.9790   37.6900 C   0  0  0  0  0  0  0  0  0  0  0  0
   36.1680   29.0770   38.7360 C   0  0  0  0  0  0  0  0  0  0  0  0
   36.9850   29.1560   39.8470 C   0  0  0  0  0  0  0  0  0  0  0  0
   37.9680   30.1000   39.8440 N   0  0  0  0  0  0  0  0  0  0  0  0
   38.1960   30.9520   38.8380 C   0  0  0  0  0  0  0  0  0  0  0  0
   37.4160   30.8950   37.7500 N   0  0  0  0  0  0  0  0  0  0  0  0
   35.7830   29.9210   36.8200 H   0  0  0  0  0  0  0  0  0  0  0  0
   39.4690   32.6360   40.0890 C   0  0  0  0  0  0  0  0  0  0  0  0
   39.2730   31.9160   38.9410 C   0  0  0  0  0  0  0  0  0  0  0  0
   40.0940   32.0630   37.8040 C   0  0  0  0  0  0  0  0  0  0  0  0
   41.1500   32.9670   37.8220 C   0  0  0  0  0  0  0  0  0  0  0  0
   42.1150   33.3710   36.9620 N   0  0  0  0  0  0  0  0  0  0  0  0
   42.8720   34.3180   37.5930 C   0  0  0  0  0  0  0  0  0  0  0  0
   42.3650   34.4820   38.8220 N   0  0  0  0  0  0  0  0  0  0  0  0
   41.3110   33.6690   38.9920 C   0  0  0  0  0  0  0  0  0  0  0  0
   40.5220   33.5490   40.1280 C   0  0  0  0  0  0  0  0  0  0  0  0
   38.8250   32.5010   40.9380 H   0  0  0  0  0  0  0  0  0  0  0  0
   39.9400   31.4930   36.8920 H   0  0  0  0  0  0  0  0  0  0  0  0
   42.1200   32.9180   36.0160 H   0  0  0  0  0  0  0  0  0  0  0  0
   43.6910   34.7340   37.0190 H   0  0  0  0  0  0  0  0  0  0  0  0
   40.7110   34.1360   41.0110 H   0  0  0  0  0  0  0  0  0  0  0  0
   36.7650   28.2280   40.9830 C   0  0  0  0  0  0  0  0  0  0  0  0
   37.7130   28.4480   41.9900 F   0  0  0  0  0  0  0  0  0  0  0  0
   35.5400   28.4580   41.5600 F   0  0  0  0  0  0  0  0  0  0  0  0
   36.8780   26.9400   40.5170 F   0  0  0  0  0  0  0  0  0  0  0  0
   35.1510   28.1860   38.6090 O   0  0  0  0  0  0  0  0  0  0  0  0
   34.0180   28.4560   37.8840 C   0  0  0  0  0  0  0  0  0  0  0  0
   33.8430   27.3020   37.1300 C   0  0  0  0  0  0  0  0  0  0  0  0
   32.3170   27.6610   36.1550 S   0  0  0  0  0  0  0  0  0  0  0  0
   32.1830   29.3480   36.9580 C   0  0  0  0  0  0  0  0  0  0  0  0
   33.0700   29.2920   37.6070 N   0  0  0  0  0  0  0  0  0  0  0  0
   34.1440   26.1760   36.7570 H   0  0  0  0  0  0  0  0  0  0  0  0
   32.4910   30.5530   34.3170 Cl  0  0  0  0  0  0  0  0  0  0  0  0
   31.1880   30.9350   35.4190 C   0  0  0  0  0  0  0  0  0  0  0  0
   31.0940   30.3340   36.6540 C   0  0  0  0  0  0  0  0  0  0  0  0
   30.1380   30.5380   37.6020 C   0  0  0  0  0  0  0  0  0  0  0  0
   30.1310   30.0260   38.5520 H   0  0  0  0  0  0  0  0  0  0  0  0
   29.1420   31.4470   37.3080 C   0  0  0  0  0  0  0  0  0  0  0  0
   28.3400   31.6970   37.9600 H   0  0  0  0  0  0  0  0  0  0  0  0
   29.1720   32.0940   36.0800 C   0  0  0  0  0  0  0  0  0  0  0  0
   28.4310   32.8300   35.7530 H   0  0  0  0  0  0  0  0  0  0  0  0
   30.1810   31.8370   35.1540 C   0  0  0  0  0  0  0  0  0  0  0  0
   30.2500   32.6330   33.5980 Cl  0  0  0  0  0  0  0  0  0  0  0  0
  1  6  2  0  0  0  0
  1  2  1  0  0  0  0
  2  3  2  0  0  0  0
  3 22  1  0  0  0  0
  4  3  1  0  0  0  0
  5  9  1  0  0  0  0
  5  4  2  0  0  0  0
  6  5  1  0  0  0  0
  7  1  1  0  0  0  0
  8 16  1  0  0  0  0
  8 17  1  0  0  0  0
  9  8  2  0  0  0  0
 10 11  2  0  0  0  0
 10  9  1  0  0  0  0
 11 15  1  0  0  0  0
 12 13  1  0  0  0  0
 12 11  1  0  0  0  0
 13 14  2  0  0  0  0
 14 15  1  0  0  0  0
 15 16  2  0  0  0  0
 16 21  1  0  0  0  0
 18 10  1  0  0  0  0
 19 12  1  0  0  0  0
 20 13  1  0  0  0  0
 22 24  1  0  0  0  0
 22 23  1  0  0  0  0
 25 22  1  0  0  0  0
 26  2  1  0  0  0  0
 27 26  1  0  0  0  0
 28 27  2  0  0  0  0
 29 30  1  0  0  0  0
 29 28  1  0  0  0  0
 30 31  2  0  0  0  0
 31 27  1  0  0  0  0
 32 28  1  0  0  0  0
 33 34  1  0  0  0  0
 34 35  1  0  0  0  0
 35 30  1  0  0  0  0
 35 36  2  0  0  0  0
 36 37  1  0  0  0  0
 38 36  1  0  0  0  0
 38 39  1  0  0  0  0
 40 38  2  0  0  0  0
 41 40  1  0  0  0  0
 42 34  2  0  0  0  0
 42 40  1  0  0  0  0
 43 42  1  0  0  0  0
M  END
>  <minimizedAffinity>
-6.94727135

$$$$

 OpenBabel03242513103D

 43 47  0  0  0  0  0  0  0  0999 V2000
   36.4390   28.4030   40.1060 C   0  0  0  0  0  0  0  0  0  0  0  0
   37.0070   28.7520   41.3420 C   0  0  0  0  0  0  0  0  0  0  0  0
   37.4860   27.7220   42.1290 C   0  0  0  0  0  0  0  0  0  0  0  0
   37.3720   26.4520   41.6490 N   0  0  0  0  0  0  0  0  0  0  0  0
   36.8270   26.1360   40.4680 C   0  0  0  0  0  0  0  0  0  0  0  0
   36.3560   27.1170   39.6870 N   0  0  0  0  0  0  0  0  0  0  0  0
   36.0640   29.2040   39.4880 H   0  0  0  0  0  0  0  0  0  0  0  0
   35.8620   24.3380   39.1040 C   0  0  0  0  0  0  0  0  0  0  0  0
   36.7560   24.7480   40.0570 C   0  0  0  0  0  0  0  0  0  0  0  0
   37.6510   23.8600   40.6890 C   0  0  0  0  0  0  0  0  0  0  0  0
   37.6470   22.5120   40.3510 C   0  0  0  0  0  0  0  0  0  0  0  0
   38.3260   21.4020   40.7230 N   0  0  0  0  0  0  0  0  0  0  0  0
   37.8410   20.3480   40.0000 C   0  0  0  0  0  0  0  0  0  0  0  0
   36.8770   20.8230   39.2000 N   0  0  0  0  0  0  0  0  0  0  0  0
   36.7350   22.1430   39.3910 C   0  0  0  0  0  0  0  0  0  0  0  0
   35.8420   22.9900   38.7510 C   0  0  0  0  0  0  0  0  0  0  0  0
   35.1930   25.0400   38.6420 H   0  0  0  0  0  0  0  0  0  0  0  0
   38.3610   24.1830   41.4460 H   0  0  0  0  0  0  0  0  0  0  0  0
   39.0650   21.5270   41.4570 H   0  0  0  0  0  0  0  0  0  0  0  0
   38.2970   19.3850   40.1940 H   0  0  0  0  0  0  0  0  0  0  0  0
   35.1530   22.6250   38.0060 H   0  0  0  0  0  0  0  0  0  0  0  0
   38.0970   28.0320   43.4450 C   0  0  0  0  0  0  0  0  0  0  0  0
   38.6830   26.8860   43.9980 F   0  0  0  0  0  0  0  0  0  0  0  0
   39.1130   28.9440   43.2990 F   0  0  0  0  0  0  0  0  0  0  0  0
   37.1100   28.4950   44.2810 F   0  0  0  0  0  0  0  0  0  0  0  0
   37.0590   30.0610   41.6980 O   0  0  0  0  0  0  0  0  0  0  0  0
   37.8630   30.9700   41.0590 C   0  0  0  0  0  0  0  0  0  0  0  0
   36.9550   31.8720   40.5200 C   0  0  0  0  0  0  0  0  0  0  0  0
   38.0350   33.0990   39.6610 S   0  0  0  0  0  0  0  0  0  0  0  0
   39.5600   32.1510   40.1960 C   0  0  0  0  0  0  0  0  0  0  0  0
   39.0640   31.3410   40.7510 N   0  0  0  0  0  0  0  0  0  0  0  0
   35.8300   32.3020   40.3020 H   0  0  0  0  0  0  0  0  0  0  0  0
   40.4700   30.9740   37.6840 Cl  0  0  0  0  0  0  0  0  0  0  0  0
   41.4440   32.0350   38.6750 C   0  0  0  0  0  0  0  0  0  0  0  0
   40.9620   32.5610   39.8520 C   0  0  0  0  0  0  0  0  0  0  0  0
   41.6100   33.3930   40.7120 C   0  0  0  0  0  0  0  0  0  0  0  0
   41.1630   33.7660   41.6210 H   0  0  0  0  0  0  0  0  0  0  0  0
   42.8980   33.7630   40.3830 C   0  0  0  0  0  0  0  0  0  0  0  0
   43.5120   34.4060   40.9680 H   0  0  0  0  0  0  0  0  0  0  0  0
   43.4520   33.2700   39.2090 C   0  0  0  0  0  0  0  0  0  0  0  0
   44.4640   33.5030   38.8600 H   0  0  0  0  0  0  0  0  0  0  0  0
   42.7320   32.4200   38.3730 C   0  0  0  0  0  0  0  0  0  0  0  0
   43.3990   31.7810   36.8870 Cl  0  0  0  0  0  0  0  0  0  0  0  0
  1  2  1  0  0  0  0
  2 26  1  0  0  0  0
  2  3  2  0  0  0  0
  3 22  1  0  0  0  0
  4  3  1  0  0  0  0
  5  4  2  0  0  0  0
  6  1  2  0  0  0  0
  6  5  1  0  0  0  0
  7  1  1  0  0  0  0
  8  9  1  0  0  0  0
  9  5  1  0  0  0  0
  9 10  2  0  0  0  0
 10 18  1  0  0  0  0
 11 10  1  0  0  0  0
 11 12  1  0  0  0  0
 12 19  1  0  0  0  0
 13 20  1  0  0  0  0
 13 12  1  0  0  0  0
 14 15  1  0  0  0  0
 14 13  2  0  0  0  0
 15 11  2  0  0  0  0
 16  8  2  0  0  0  0
 16 15  1  0  0  0  0
 17  8  1  0  0  0  0
 21 16  1  0  0  0  0
 22 23  1  0  0  0  0
 22 25  1  0  0  0  0
 24 22  1  0  0  0  0
 27 26  1  0  0  0  0
 28 27  2  0  0  0  0
 29 30  1  0  0  0  0
 29 28  1  0  0  0  0
 30 31  2  0  0  0  0
 31 27  1  0  0  0  0
 32 28  1  0  0  0  0
 33 34  1  0  0  0  0
 34 35  1  0  0  0  0
 35 30  1  0  0  0  0
 35 36  2  0  0  0  0
 36 37  1  0  0  0  0
 38 36  1  0  0  0  0
 38 39  1  0  0  0  0
 40 38  2  0  0  0  0
 41 40  1  0  0  0  0
 42 34  2  0  0  0  0
 42 40  1  0  0  0  0
 43 42  1  0  0  0  0
M  END
>  <minimizedAffinity>
-6.83763027

$$$$

 OpenBabel03242513103D

 43 47  0  0  0  0  0  0  0  0999 V2000
   37.0320   28.3740   39.5090 C   0  0  0  0  0  0  0  0  0  0  0  0
   37.0000   27.7720   40.7770 C   0  0  0  0  0  0  0  0  0  0  0  0
   37.2800   28.5750   41.8650 C   0  0  0  0  0  0  0  0  0  0  0  0
   37.5650   29.8870   41.6270 N   0  0  0  0  0  0  0  0  0  0  0  0
   37.5920   30.4460   40.4110 C   0  0  0  0  0  0  0  0  0  0  0  0
   37.3230   29.6870   39.3410 N   0  0  0  0  0  0  0  0  0  0  0  0
   36.8120   27.7490   38.6570 H   0  0  0  0  0  0  0  0  0  0  0  0
   37.0400   32.7170   39.6610 C   0  0  0  0  0  0  0  0  0  0  0  0
   37.9090   31.8540   40.2740 C   0  0  0  0  0  0  0  0  0  0  0  0
   39.1480   32.2720   40.8020 C   0  0  0  0  0  0  0  0  0  0  0  0
   39.5270   33.6060   40.7110 C   0  0  0  0  0  0  0  0  0  0  0  0
   40.5910   34.3550   41.0840 N   0  0  0  0  0  0  0  0  0  0  0  0
   40.3560   35.6440   40.6970 C   0  0  0  0  0  0  0  0  0  0  0  0
   39.1590   35.6700   40.0960 N   0  0  0  0  0  0  0  0  0  0  0  0
   38.6270   34.4380   40.0900 C   0  0  0  0  0  0  0  0  0  0  0  0
   37.4020   34.0600   39.5590 C   0  0  0  0  0  0  0  0  0  0  0  0
   36.1040   32.3660   39.2680 H   0  0  0  0  0  0  0  0  0  0  0  0
   39.8390   31.5890   41.2880 H   0  0  0  0  0  0  0  0  0  0  0  0
   41.3690   33.8520   41.5760 H   0  0  0  0  0  0  0  0  0  0  0  0
   41.1320   36.3620   40.9330 H   0  0  0  0  0  0  0  0  0  0  0  0
   36.7470   34.7720   39.0840 H   0  0  0  0  0  0  0  0  0  0  0  0
   37.2610   27.9920   43.2290 C   0  0  0  0  0  0  0  0  0  0  0  0
   36.0340   27.3650   43.4800 F   0  0  0  0  0  0  0  0  0  0  0  0
   38.2180   27.0140   43.3450 F   0  0  0  0  0  0  0  0  0  0  0  0
   37.4540   29.0070   44.1350 F   0  0  0  0  0  0  0  0  0  0  0  0
   36.7000   26.4510   40.8720 O   0  0  0  0  0  0  0  0  0  0  0  0
   37.5530   25.4660   40.4430 C   0  0  0  0  0  0  0  0  0  0  0  0
   37.1920   24.3740   41.2230 C   0  0  0  0  0  0  0  0  0  0  0  0
   38.3360   23.0450   40.6470 S   0  0  0  0  0  0  0  0  0  0  0  0
   39.1190   24.2300   39.4250 C   0  0  0  0  0  0  0  0  0  0  0  0
   38.5170   25.1220   39.6520 N   0  0  0  0  0  0  0  0  0  0  0  0
   36.5300   23.8070   42.0830 H   0  0  0  0  0  0  0  0  0  0  0  0
   41.7160   25.1320   40.4050 Cl  0  0  0  0  0  0  0  0  0  0  0  0
   41.4880   24.2550   38.9100 C   0  0  0  0  0  0  0  0  0  0  0  0
   40.2370   23.8550   38.4970 C   0  0  0  0  0  0  0  0  0  0  0  0
   39.9200   23.1710   37.3640 C   0  0  0  0  0  0  0  0  0  0  0  0
   38.9100   22.8910   37.1070 H   0  0  0  0  0  0  0  0  0  0  0  0
   40.9580   22.8320   36.5200 C   0  0  0  0  0  0  0  0  0  0  0  0
   40.8470   22.3000   35.6060 H   0  0  0  0  0  0  0  0  0  0  0  0
   42.2500   23.2040   36.8710 C   0  0  0  0  0  0  0  0  0  0  0  0
   43.1390   22.9840   36.2710 H   0  0  0  0  0  0  0  0  0  0  0  0
   42.5040   23.9040   38.0480 C   0  0  0  0  0  0  0  0  0  0  0  0
   44.1170   24.3880   38.5200 Cl  0  0  0  0  0  0  0  0  0  0  0  0
  1  2  1  0  0  0  0
  2 26  1  0  0  0  0
  2  3  2  0  0  0  0
  3 22  1  0  0  0  0
  4  3  1  0  0  0  0
  5  4  2  0  0  0  0
  6  1  2  0  0  0  0
  6  5  1  0  0  0  0
  7  1  1  0  0  0  0
  8  9  1  0  0  0  0
  9  5  1  0  0  0  0
  9 10  2  0  0  0  0
 10 18  1  0  0  0  0
 11 10  1  0  0  0  0
 11 12  1  0  0  0  0
 12 19  1  0  0  0  0
 13 20  1  0  0  0  0
 13 12  1  0  0  0  0
 14 13  2  0  0  0  0
 15 14  1  0  0  0  0
 15 11  2  0  0  0  0
 16  8  2  0  0  0  0
 16 15  1  0  0  0  0
 17  8  1  0  0  0  0
 21 16  1  0  0  0  0
 22 24  1  0  0  0  0
 22 23  1  0  0  0  0
 22 25  1  0  0  0  0
 27 26  1  0  0  0  0
 27 28  2  0  0  0  0
 28 32  1  0  0  0  0
 29 28  1  0  0  0  0
 30 31  2  0  0  0  0
 30 29  1  0  0  0  0
 31 27  1  0  0  0  0
 34 33  1  0  0  0  0
 35 34  1  0  0  0  0
 35 30  1  0  0  0  0
 36 35  2  0  0  0  0
 37 36  1  0  0  0  0
 38 40  2  0  0  0  0
 38 36  1  0  0  0  0
 39 38  1  0  0  0  0
 40 42  1  0  0  0  0
 41 40  1  0  0  0  0
 42 43  1  0  0  0  0
 42 34  2  0  0  0  0
M  END
>  <minimizedAffinity>
-6.8151679

$$$$

 OpenBabel03242513103D

 43 47  0  0  0  0  0  0  0  0999 V2000
   38.8140   30.8950   42.0560 C   0  0  0  0  0  0  0  0  0  0  0  0
   38.3950   31.6190   40.9280 C   0  0  0  0  0  0  0  0  0  0  0  0
   37.8800   30.8960   39.8700 C   0  0  0  0  0  0  0  0  0  0  0  0
   37.8170   29.5400   39.9990 N   0  0  0  0  0  0  0  0  0  0  0  0
   38.2220   28.8640   41.0810 C   0  0  0  0  0  0  0  0  0  0  0  0
   38.7250   29.5440   42.1200 N   0  0  0  0  0  0  0  0  0  0  0  0
   39.2170   31.4560   42.8850 H   0  0  0  0  0  0  0  0  0  0  0  0
   37.3680   26.7880   42.0720 C   0  0  0  0  0  0  0  0  0  0  0  0
   38.1100   27.4200   41.1110 C   0  0  0  0  0  0  0  0  0  0  0  0
   38.8020   26.7170   40.1030 C   0  0  0  0  0  0  0  0  0  0  0  0
   38.7460   25.3290   40.0600 C   0  0  0  0  0  0  0  0  0  0  0  0
   39.2540   24.3460   39.2800 N   0  0  0  0  0  0  0  0  0  0  0  0
   38.8180   23.1480   39.7730 C   0  0  0  0  0  0  0  0  0  0  0  0
   38.0550   23.4100   40.8430 N   0  0  0  0  0  0  0  0  0  0  0  0
   37.9900   24.7350   41.0430 C   0  0  0  0  0  0  0  0  0  0  0  0
   37.2980   25.3960   42.0480 C   0  0  0  0  0  0  0  0  0  0  0  0
   36.8530   27.3530   42.8270 H   0  0  0  0  0  0  0  0  0  0  0  0
   39.3920   27.2160   39.3390 H   0  0  0  0  0  0  0  0  0  0  0  0
   39.8590   24.6490   38.4780 H   0  0  0  0  0  0  0  0  0  0  0  0
   39.1500   22.2640   39.2430 H   0  0  0  0  0  0  0  0  0  0  0  0
   36.7250   24.8590   42.7870 H   0  0  0  0  0  0  0  0  0  0  0  0
   37.4210   31.6090   38.6520 C   0  0  0  0  0  0  0  0  0  0  0  0
   36.5880   30.7860   37.8840 F   0  0  0  0  0  0  0  0  0  0  0  0
   36.6640   32.7020   38.9940 F   0  0  0  0  0  0  0  0  0  0  0  0
   38.5270   31.9620   37.9160 F   0  0  0  0  0  0  0  0  0  0  0  0
   38.5130   32.9710   40.9320 O   0  0  0  0  0  0  0  0  0  0  0  0
   39.6740   33.6130   40.5820 C   0  0  0  0  0  0  0  0  0  0  0  0
   39.2430   34.8960   40.2680 C   0  0  0  0  0  0  0  0  0  0  0  0
   40.8040   35.7650   39.7990 S   0  0  0  0  0  0  0  0  0  0  0  0
   41.7850   34.2010   40.1180 C   0  0  0  0  0  0  0  0  0  0  0  0
   40.9560   33.5460   40.4240 N   0  0  0  0  0  0  0  0  0  0  0  0
   38.3960   35.7690   40.1310 H   0  0  0  0  0  0  0  0  0  0  0  0
   42.5290   33.5380   37.3740 Cl  0  0  0  0  0  0  0  0  0  0  0  0
   43.6820   33.7870   38.6650 C   0  0  0  0  0  0  0  0  0  0  0  0
   43.2720   34.0980   39.9420 C   0  0  0  0  0  0  0  0  0  0  0  0
   44.0570   34.3150   41.0320 C   0  0  0  0  0  0  0  0  0  0  0  0
   43.6610   34.5560   42.0070 H   0  0  0  0  0  0  0  0  0  0  0  0
   45.4230   34.2180   40.8560 C   0  0  0  0  0  0  0  0  0  0  0  0
   46.1440   34.3640   41.6240 H   0  0  0  0  0  0  0  0  0  0  0  0
   45.9100   33.9060   39.5940 C   0  0  0  0  0  0  0  0  0  0  0  0
   46.9730   33.8060   39.3510 H   0  0  0  0  0  0  0  0  0  0  0  0
   45.0490   33.6960   38.5200 C   0  0  0  0  0  0  0  0  0  0  0  0
   45.6280   33.3020   36.9170 Cl  0  0  0  0  0  0  0  0  0  0  0  0
  1  6  1  0  0  0  0
  1  7  1  0  0  0  0
  2 26  1  0  0  0  0
  2  1  2  0  0  0  0
  3  4  2  0  0  0  0
  3  2  1  0  0  0  0
  4  5  1  0  0  0  0
  5  9  1  0  0  0  0
  5  6  2  0  0  0  0
  8 17  1  0  0  0  0
  9  8  2  0  0  0  0
 10  9  1  0  0  0  0
 11 10  2  0  0  0  0
 11 15  1  0  0  0  0
 12 13  1  0  0  0  0
 12 11  1  0  0  0  0
 13 14  2  0  0  0  0
 14 15  1  0  0  0  0
 15 16  2  0  0  0  0
 16  8  1  0  0  0  0
 16 21  1  0  0  0  0
 18 10  1  0  0  0  0
 19 12  1  0  0  0  0
 20 13  1  0  0  0  0
 22 24  1  0  0  0  0
 22  3  1  0  0  0  0
 23 22  1  0  0  0  0
 25 22  1  0  0  0  0
 27 26  1  0  0  0  0
 28 27  2  0  0  0  0
 29 30  1  0  0  0  0
 29 28  1  0  0  0  0
 30 31  2  0  0  0  0
 31 27  1  0  0  0  0
 32 28  1  0  0  0  0
 33 34  1  0  0  0  0
 34 35  1  0  0  0  0
 35 30  1  0  0  0  0
 35 36  2  0  0  0  0
 36 37  1  0  0  0  0
 38 36  1  0  0  0  0
 38 39  1  0  0  0  0
 40 38  2  0  0  0  0
 41 40  1  0  0  0  0
 42 34  2  0  0  0  0
 42 40  1  0  0  0  0
 43 42  1  0  0  0  0
M  END
>  <minimizedAffinity>
-6.79236317

$$$$

 OpenBabel03242513103D

 43 47  0  0  0  0  0  0  0  0999 V2000
   36.4370   28.1970   41.0130 C   0  0  0  0  0  0  0  0  0  0  0  0
   37.3710   27.5070   41.8020 C   0  0  0  0  0  0  0  0  0  0  0  0
   38.4930   28.2050   42.2080 C   0  0  0  0  0  0  0  0  0  0  0  0
   38.6060   29.5050   41.8130 N   0  0  0  0  0  0  0  0  0  0  0  0
   37.7060   30.1480   41.0590 C   0  0  0  0  0  0  0  0  0  0  0  0
   36.6110   29.4920   40.6550 N   0  0  0  0  0  0  0  0  0  0  0  0
   35.5590   27.6550   40.6960 H   0  0  0  0  0  0  0  0  0  0  0  0
   37.0220   32.2200   39.9360 C   0  0  0  0  0  0  0  0  0  0  0  0
   37.9300   31.5330   40.6960 C   0  0  0  0  0  0  0  0  0  0  0  0
   39.1220   32.1200   41.1690 C   0  0  0  0  0  0  0  0  0  0  0  0
   39.4110   33.4460   40.8650 C   0  0  0  0  0  0  0  0  0  0  0  0
   40.4110   34.3200   41.1250 N   0  0  0  0  0  0  0  0  0  0  0  0
   40.1000   35.5080   40.5270 C   0  0  0  0  0  0  0  0  0  0  0  0
   38.9210   35.3490   39.9110 N   0  0  0  0  0  0  0  0  0  0  0  0
   38.4740   34.0980   40.1000 C   0  0  0  0  0  0  0  0  0  0  0  0
   37.2930   33.5500   39.6190 C   0  0  0  0  0  0  0  0  0  0  0  0
   36.1230   31.7430   39.5910 H   0  0  0  0  0  0  0  0  0  0  0  0
   39.8450   31.5780   41.7720 H   0  0  0  0  0  0  0  0  0  0  0  0
   41.2080   33.9610   41.7070 H   0  0  0  0  0  0  0  0  0  0  0  0
   40.8180   36.3090   40.6540 H   0  0  0  0  0  0  0  0  0  0  0  0
   36.6050   34.1270   39.0220 H   0  0  0  0  0  0  0  0  0  0  0  0
   39.5130   27.5270   43.0430 C   0  0  0  0  0  0  0  0  0  0  0  0
   40.0810   26.4500   42.3500 F   0  0  0  0  0  0  0  0  0  0  0  0
   40.5480   28.3840   43.3240 F   0  0  0  0  0  0  0  0  0  0  0  0
   38.9020   27.0700   44.1850 F   0  0  0  0  0  0  0  0  0  0  0  0
   37.1320   26.2110   42.1250 O   0  0  0  0  0  0  0  0  0  0  0  0
   37.0280   25.2200   41.1810 C   0  0  0  0  0  0  0  0  0  0  0  0
   37.7870   24.1890   41.7200 C   0  0  0  0  0  0  0  0  0  0  0  0
   37.6480   22.8530   40.4530 S   0  0  0  0  0  0  0  0  0  0  0  0
   36.5620   23.9530   39.3940 C   0  0  0  0  0  0  0  0  0  0  0  0
   36.5450   24.8410   40.0430 N   0  0  0  0  0  0  0  0  0  0  0  0
   38.4990   23.6780   42.5750 H   0  0  0  0  0  0  0  0  0  0  0  0
   33.9330   22.7160   39.6710 Cl  0  0  0  0  0  0  0  0  0  0  0  0
   34.7470   22.9460   38.1410 C   0  0  0  0  0  0  0  0  0  0  0  0
   35.9890   23.5370   38.0710 C   0  0  0  0  0  0  0  0  0  0  0  0
   36.7290   23.7750   36.9540 C   0  0  0  0  0  0  0  0  0  0  0  0
   37.7010   24.2450   36.9790 H   0  0  0  0  0  0  0  0  0  0  0  0
   36.1900   23.3870   35.7440 C   0  0  0  0  0  0  0  0  0  0  0  0
   36.6640   23.5150   34.8010 H   0  0  0  0  0  0  0  0  0  0  0  0
   34.9390   22.7830   35.7370 C   0  0  0  0  0  0  0  0  0  0  0  0
   34.4270   22.4400   34.8320 H   0  0  0  0  0  0  0  0  0  0  0  0
   34.2340   22.5690   36.9190 C   0  0  0  0  0  0  0  0  0  0  0  0
   32.6580   21.8110   36.9460 Cl  0  0  0  0  0  0  0  0  0  0  0  0
  1  2  1  0  0  0  0
  2 26  1  0  0  0  0
  2  3  2  0  0  0  0
  3 22  1  0  0  0  0
  4  3  1  0  0  0  0
  5  4  2  0  0  0  0
  6  1  2  0  0  0  0
  6  5  1  0  0  0  0
  7  1  1  0  0  0  0
  8  9  1  0  0  0  0
  9  5  1  0  0  0  0
  9 10  2  0  0  0  0
 10 18  1  0  0  0  0
 11 12  1  0  0  0  0
 11 10  1  0  0  0  0
 12 19  1  0  0  0  0
 13 20  1  0  0  0  0
 13 12  1  0  0  0  0
 14 15  1  0  0  0  0
 14 13  2  0  0  0  0
 15 11  2  0  0  0  0
 16  8  2  0  0  0  0
 16 15  1  0  0  0  0
 17  8  1  0  0  0  0
 21 16  1  0  0  0  0
 22 24  1  0  0  0  0
 22 25  1  0  0  0  0
 23 22  1  0  0  0  0
 27 28  2  0  0  0  0
 27 26  1  0  0  0  0
 28 32  1  0  0  0  0
 29 28  1  0  0  0  0
 30 31  2  0  0  0  0
 30 29  1  0  0  0  0
 31 27  1  0  0  0  0
 34 33  1  0  0  0  0
 35 34  1  0  0  0  0
 35 30  1  0  0  0  0
 36 37  1  0  0  0  0
 36 35  2  0  0  0  0
 38 36  1  0  0  0  0
 39 38  1  0  0  0  0
 40 38  2  0  0  0  0
 40 42  1  0  0  0  0
 41 40  1  0  0  0  0
 42 43  1  0  0  0  0
 42 34  2  0  0  0  0
M  END
>  <minimizedAffinity>
-6.77901793

$$$$
