
 OpenBabel03242521533D

 38 41  0  0  0  0  0  0  0  0999 V2000
   36.7320   26.8630   39.9020 C   0  0  0  0  0  0  0  0  0  0  0  0
   36.6550   25.4830   39.9100 C   0  0  0  0  0  0  0  0  0  0  0  0
   36.7970   24.7070   41.0680 C   0  0  0  0  0  0  0  0  0  0  0  0
   37.0260   25.3100   42.2920 C   0  0  0  0  0  0  0  0  0  0  0  0
   37.1180   26.7070   42.3180 C   0  0  0  0  0  0  0  0  0  0  0  0
   37.4140   27.2900   43.5180 C   0  0  0  0  0  0  0  0  0  0  0  0
   37.6110   28.6810   43.5520 C   0  0  0  0  0  0  0  0  0  0  0  0
   37.5050   29.4110   42.3390 C   0  0  0  0  0  0  0  0  0  0  0  0
   37.2030   28.7170   41.2040 C   0  0  0  0  0  0  0  0  0  0  0  0
   36.9740   27.3820   41.1230 C   0  0  0  0  0  0  0  0  0  0  0  0
   36.4720   25.0210   38.9330 H   0  0  0  0  0  0  0  0  0  0  0  0
   36.7140   23.6430   40.9150 H   0  0  0  0  0  0  0  0  0  0  0  0
   37.1270   24.7220   43.1670 H   0  0  0  0  0  0  0  0  0  0  0  0
   37.4800   26.6360   44.3850 H   0  0  0  0  0  0  0  0  0  0  0  0
   37.8230   28.9600   44.6020 H   0  0  0  0  0  0  0  0  0  0  0  0
   37.7350   30.3870   42.7430 H   0  0  0  0  0  0  0  0  0  0  0  0
   39.9660   28.6010   39.6780 Cl  0  0  0  0  0  0  0  0  0  0  0  0
   38.7870   29.9330   39.5740 C   0  0  0  0  0  0  0  0  0  0  0  0
   37.6360   29.7810   40.3070 C   0  0  0  0  0  0  0  0  0  0  0  0
   36.7120   30.8560   40.1030 C   0  0  0  0  0  0  0  0  0  0  0  0
   35.7260   30.8980   40.6000 H   0  0  0  0  0  0  0  0  0  0  0  0
   36.8910   31.9490   39.2850 C   0  0  0  0  0  0  0  0  0  0  0  0
   36.1910   32.7300   39.1530 H   0  0  0  0  0  0  0  0  0  0  0  0
   38.0740   32.0280   38.5870 C   0  0  0  0  0  0  0  0  0  0  0  0
   38.3830   32.8060   37.9090 H   0  0  0  0  0  0  0  0  0  0  0  0
   38.9950   31.0180   38.7480 C   0  0  0  0  0  0  0  0  0  0  0  0
   40.5350   31.0260   37.8970 Cl  0  0  0  0  0  0  0  0  0  0  0  0
   34.9050   29.1440   37.5990 C   0  0  0  0  0  0  0  0  0  0  0  0
   35.8570   29.2850   36.5780 C   0  0  0  0  0  0  0  0  0  0  0  0
   37.0460   28.5700   36.7180 C   0  0  0  0  0  0  0  0  0  0  0  0
   37.1380   27.8320   37.8230 N   0  0  0  0  0  0  0  0  0  0  0  0
   36.2740   27.6740   38.7950 C   0  0  0  0  0  0  0  0  0  0  0  0
   35.1440   28.3580   38.6480 N   0  0  0  0  0  0  0  0  0  0  0  0
   33.9650   29.6880   37.5230 H   0  0  0  0  0  0  0  0  0  0  0  0
   35.7070   29.9080   35.7120 H   0  0  0  0  0  0  0  0  0  0  0  0
   38.0450   28.5400   35.7180 N   0  0  0  0  0  0  0  0  0  0  0  0
   38.9550   28.8120   36.1980 H   0  0  0  0  0  0  0  0  0  0  0  0
   38.0240   28.3190   34.7000 H   0  0  0  0  0  0  0  0  0  0  0  0
  1  2  2  0  0  0  0
  1 10  1  0  0  0  0
  2  3  1  0  0  0  0
  3  4  2  0  0  0  0
  4  5  1  0  0  0  0
  4 13  1  0  0  0  0
  5  6  1  0  0  0  0
  6  7  2  0  0  0  0
  6 14  1  0  0  0  0
  7 15  1  0  0  0  0
  8 16  1  0  0  0  0
  8  7  1  0  0  0  0
  9  8  2  0  0  0  0
 10  9  1  0  0  0  0
 10  5  2  0  0  0  0
 11  2  1  0  0  0  0
 12  3  1  0  0  0  0
 18 17  1  0  0  0  0
 18 19  1  0  0  0  0
 19  9  1  0  0  0  0
 20 19  2  0  0  0  0
 20 21  1  0  0  0  0
 22 20  1  0  0  0  0
 23 22  1  0  0  0  0
 24 26  1  0  0  0  0
 24 22  2  0  0  0  0
 25 24  1  0  0  0  0
 26 18  2  0  0  0  0
 27 26  1  0  0  0  0
 28 33  1  0  0  0  0
 29 30  1  0  0  0  0
 29 28  2  0  0  0  0
 30 31  2  0  0  0  0
 31 32  1  0  0  0  0
 32  1  1  0  0  0  0
 33 32  2  0  0  0  0
 34 28  1  0  0  0  0
 35 29  1  0  0  0  0
 36 37  1  0  0  0  0
 36 30  1  0  0  0  0
 38 36  1  0  0  0  0
M  END
>  <minimizedAffinity>
-6.89119625

$$$$

 OpenBabel03242521533D

 38 41  0  0  0  0  0  0  0  0999 V2000
   36.7820   26.8600   39.9050 C   0  0  0  0  0  0  0  0  0  0  0  0
   36.7190   25.4790   39.9080 C   0  0  0  0  0  0  0  0  0  0  0  0
   36.8430   24.7010   41.0670 C   0  0  0  0  0  0  0  0  0  0  0  0
   37.0390   25.3040   42.2970 C   0  0  0  0  0  0  0  0  0  0  0  0
   37.1160   26.7010   42.3280 C   0  0  0  0  0  0  0  0  0  0  0  0
   37.3780   27.2840   43.5360 C   0  0  0  0  0  0  0  0  0  0  0  0
   37.5600   28.6780   43.5780 C   0  0  0  0  0  0  0  0  0  0  0  0
   37.4730   29.4090   42.3650 C   0  0  0  0  0  0  0  0  0  0  0  0
   37.2030   28.7150   41.2220 C   0  0  0  0  0  0  0  0  0  0  0  0
   36.9910   27.3790   41.1320 C   0  0  0  0  0  0  0  0  0  0  0  0
   36.5620   25.0180   38.9250 H   0  0  0  0  0  0  0  0  0  0  0  0
   36.7750   23.6370   40.9100 H   0  0  0  0  0  0  0  0  0  0  0  0
   37.1260   24.7140   43.1720 H   0  0  0  0  0  0  0  0  0  0  0  0
   37.4320   26.6290   44.4030 H   0  0  0  0  0  0  0  0  0  0  0  0
   37.7460   28.9550   44.6320 H   0  0  0  0  0  0  0  0  0  0  0  0
   37.6840   30.3870   42.7760 H   0  0  0  0  0  0  0  0  0  0  0  0
   40.0460   28.6860   39.8440 Cl  0  0  0  0  0  0  0  0  0  0  0  0
   38.8280   29.9730   39.6640 C   0  0  0  0  0  0  0  0  0  0  0  0
   37.6450   29.7860   40.3370 C   0  0  0  0  0  0  0  0  0  0  0  0
   36.6960   30.8250   40.0720 C   0  0  0  0  0  0  0  0  0  0  0  0
   35.6840   30.8360   40.5170 H   0  0  0  0  0  0  0  0  0  0  0  0
   36.8790   31.9170   39.2540 C   0  0  0  0  0  0  0  0  0  0  0  0
   36.1590   32.6710   39.0760 H   0  0  0  0  0  0  0  0  0  0  0  0
   38.0930   32.0320   38.6180 C   0  0  0  0  0  0  0  0  0  0  0  0
   38.4100   32.8140   37.9490 H   0  0  0  0  0  0  0  0  0  0  0  0
   39.0400   31.0580   38.8380 C   0  0  0  0  0  0  0  0  0  0  0  0
   40.6220   31.1140   38.0690 Cl  0  0  0  0  0  0  0  0  0  0  0  0
   36.4270   28.7410   36.7140 C   0  0  0  0  0  0  0  0  0  0  0  0
   35.0600   29.0530   36.7580 C   0  0  0  0  0  0  0  0  0  0  0  0
   34.3510   28.6350   37.8830 C   0  0  0  0  0  0  0  0  0  0  0  0
   35.0670   27.9770   38.7930 N   0  0  0  0  0  0  0  0  0  0  0  0
   36.3390   27.6690   38.7900 C   0  0  0  0  0  0  0  0  0  0  0  0
   37.0040   28.0750   37.7130 N   0  0  0  0  0  0  0  0  0  0  0  0
   37.0120   29.0520   35.8500 H   0  0  0  0  0  0  0  0  0  0  0  0
   34.5500   29.5890   35.9740 H   0  0  0  0  0  0  0  0  0  0  0  0
   32.9940   28.9690   38.1030 N   0  0  0  0  0  0  0  0  0  0  0  0
   32.4890   28.0530   38.2920 H   0  0  0  0  0  0  0  0  0  0  0  0
   32.4780   29.8750   38.1050 H   0  0  0  0  0  0  0  0  0  0  0  0
  1  2  2  0  0  0  0
  1 10  1  0  0  0  0
  2  3  1  0  0  0  0
  3  4  2  0  0  0  0
  4  5  1  0  0  0  0
  4 13  1  0  0  0  0
  5  6  1  0  0  0  0
  6  7  2  0  0  0  0
  6 14  1  0  0  0  0
  7 15  1  0  0  0  0
  8 16  1  0  0  0  0
  8  7  1  0  0  0  0
  9  8  2  0  0  0  0
 10  9  1  0  0  0  0
 10  5  2  0  0  0  0
 11  2  1  0  0  0  0
 12  3  1  0  0  0  0
 18 17  1  0  0  0  0
 18 19  1  0  0  0  0
 19  9  1  0  0  0  0
 20 19  2  0  0  0  0
 20 21  1  0  0  0  0
 22 20  1  0  0  0  0
 23 22  1  0  0  0  0
 24 26  1  0  0  0  0
 24 22  2  0  0  0  0
 25 24  1  0  0  0  0
 26 18  2  0  0  0  0
 27 26  1  0  0  0  0
 28 29  2  0  0  0  0
 28 33  1  0  0  0  0
 29 30  1  0  0  0  0
 30 36  1  0  0  0  0
 30 31  2  0  0  0  0
 32 31  1  0  0  0  0
 32  1  1  0  0  0  0
 33 32  2  0  0  0  0
 34 28  1  0  0  0  0
 35 29  1  0  0  0  0
 36 38  1  0  0  0  0
 36 37  1  0  0  0  0
M  END
>  <minimizedAffinity>
-6.77061987

$$$$

 OpenBabel03242521533D

 38 41  0  0  0  0  0  0  0  0999 V2000
   37.5660   31.7310   40.2760 C   0  0  0  0  0  0  0  0  0  0  0  0
   37.3680   33.0710   40.0030 C   0  0  0  0  0  0  0  0  0  0  0  0
   38.3790   34.0370   40.0970 C   0  0  0  0  0  0  0  0  0  0  0  0
   39.6590   33.6770   40.4790 C   0  0  0  0  0  0  0  0  0  0  0  0
   39.8920   32.3270   40.7710 C   0  0  0  0  0  0  0  0  0  0  0  0
   41.1400   31.9910   41.2140 C   0  0  0  0  0  0  0  0  0  0  0  0
   41.3710   30.6630   41.6090 C   0  0  0  0  0  0  0  0  0  0  0  0
   40.2970   29.7380   41.5400 C   0  0  0  0  0  0  0  0  0  0  0  0
   39.0960   30.1920   41.0790 C   0  0  0  0  0  0  0  0  0  0  0  0
   38.8300   31.4530   40.6580 C   0  0  0  0  0  0  0  0  0  0  0  0
   36.3490   33.3400   39.7010 H   0  0  0  0  0  0  0  0  0  0  0  0
   38.0720   35.0420   39.8550 H   0  0  0  0  0  0  0  0  0  0  0  0
   40.4220   34.4070   40.5430 H   0  0  0  0  0  0  0  0  0  0  0  0
   41.8890   32.7810   41.2340 H   0  0  0  0  0  0  0  0  0  0  0  0
   42.4310   30.5890   41.9170 H   0  0  0  0  0  0  0  0  0  0  0  0
   40.8260   28.8790   41.9290 H   0  0  0  0  0  0  0  0  0  0  0  0
   38.6590   27.5410   39.4160 Cl  0  0  0  0  0  0  0  0  0  0  0  0
   38.0230   27.8480   41.0520 C   0  0  0  0  0  0  0  0  0  0  0  0
   38.3420   29.0630   41.6080 C   0  0  0  0  0  0  0  0  0  0  0  0
   37.8600   29.1920   42.9500 C   0  0  0  0  0  0  0  0  0  0  0  0
   38.0330   30.0970   43.5610 H   0  0  0  0  0  0  0  0  0  0  0  0
   37.1520   28.2520   43.6640 C   0  0  0  0  0  0  0  0  0  0  0  0
   36.8080   28.3740   44.6560 H   0  0  0  0  0  0  0  0  0  0  0  0
   36.8710   27.0620   43.0340 C   0  0  0  0  0  0  0  0  0  0  0  0
   36.3300   26.2210   43.4340 H   0  0  0  0  0  0  0  0  0  0  0  0
   37.3130   26.8870   41.7420 C   0  0  0  0  0  0  0  0  0  0  0  0
   37.0080   25.3990   40.8530 Cl  0  0  0  0  0  0  0  0  0  0  0  0
   34.7860   29.2720   40.0020 C   0  0  0  0  0  0  0  0  0  0  0  0
   34.9440   28.8640   38.6690 C   0  0  0  0  0  0  0  0  0  0  0  0
   36.0040   29.4230   37.9560 C   0  0  0  0  0  0  0  0  0  0  0  0
   36.7480   30.2930   38.6360 N   0  0  0  0  0  0  0  0  0  0  0  0
   36.6350   30.6970   39.8770 C   0  0  0  0  0  0  0  0  0  0  0  0
   35.6220   30.1550   40.5450 N   0  0  0  0  0  0  0  0  0  0  0  0
   33.9690   28.8560   40.5890 H   0  0  0  0  0  0  0  0  0  0  0  0
   34.2920   28.1530   38.1880 H   0  0  0  0  0  0  0  0  0  0  0  0
   36.3370   29.0260   36.6410 N   0  0  0  0  0  0  0  0  0  0  0  0
   36.3780   29.9170   36.0620 H   0  0  0  0  0  0  0  0  0  0  0  0
   36.5250   28.0970   36.2060 H   0  0  0  0  0  0  0  0  0  0  0  0
  1 10  1  0  0  0  0
  2  3  1  0  0  0  0
  2  1  2  0  0  0  0
  3  4  2  0  0  0  0
  4 13  1  0  0  0  0
  4  5  1  0  0  0  0
  5  6  1  0  0  0  0
  6 14  1  0  0  0  0
  6  7  2  0  0  0  0
  7 15  1  0  0  0  0
  8  7  1  0  0  0  0
  8 16  1  0  0  0  0
  9  8  2  0  0  0  0
  9 19  1  0  0  0  0
 10  5  2  0  0  0  0
 10  9  1  0  0  0  0
 11  2  1  0  0  0  0
 12  3  1  0  0  0  0
 17 18  1  0  0  0  0
 18 19  2  0  0  0  0
 18 26  1  0  0  0  0
 19 20  1  0  0  0  0
 20 21  1  0  0  0  0
 20 22  2  0  0  0  0
 22 23  1  0  0  0  0
 24 25  1  0  0  0  0
 24 22  1  0  0  0  0
 26 24  2  0  0  0  0
 27 26  1  0  0  0  0
 28 33  1  0  0  0  0
 28 34  1  0  0  0  0
 29 28  2  0  0  0  0
 30 31  2  0  0  0  0
 30 29  1  0  0  0  0
 31 32  1  0  0  0  0
 32  1  1  0  0  0  0
 32 33  2  0  0  0  0
 35 29  1  0  0  0  0
 36 30  1  0  0  0  0
 37 36  1  0  0  0  0
 38 36  1  0  0  0  0
M  END
>  <minimizedAffinity>
-6.74099588

$$$$

 OpenBabel03242521533D

 38 41  0  0  0  0  0  0  0  0999 V2000
   36.8020   26.6460   39.9420 C   0  0  0  0  0  0  0  0  0  0  0  0
   36.5740   25.2860   39.8470 C   0  0  0  0  0  0  0  0  0  0  0  0
   36.6930   24.4040   40.9290 C   0  0  0  0  0  0  0  0  0  0  0  0
   37.0550   24.8740   42.1800 C   0  0  0  0  0  0  0  0  0  0  0  0
   37.3010   26.2460   42.3090 C   0  0  0  0  0  0  0  0  0  0  0  0
   37.7250   26.6920   43.5300 C   0  0  0  0  0  0  0  0  0  0  0  0
   38.0750   28.0470   43.6590 C   0  0  0  0  0  0  0  0  0  0  0  0
   37.9830   28.8830   42.5170 C   0  0  0  0  0  0  0  0  0  0  0  0
   37.5440   28.3240   41.3530 C   0  0  0  0  0  0  0  0  0  0  0  0
   37.1660   27.0320   41.1820 C   0  0  0  0  0  0  0  0  0  0  0  0
   36.2880   24.9300   38.8500 H   0  0  0  0  0  0  0  0  0  0  0  0
   36.4860   23.3710   40.7000 H   0  0  0  0  0  0  0  0  0  0  0  0
   37.1380   24.2070   42.9970 H   0  0  0  0  0  0  0  0  0  0  0  0
   37.7660   25.9630   44.3370 H   0  0  0  0  0  0  0  0  0  0  0  0
   38.3740   28.2110   44.7120 H   0  0  0  0  0  0  0  0  0  0  0  0
   38.3410   29.7930   42.9790 H   0  0  0  0  0  0  0  0  0  0  0  0
   35.9770   31.0480   41.0340 Cl  0  0  0  0  0  0  0  0  0  0  0  0
   37.5140   30.6440   40.2290 C   0  0  0  0  0  0  0  0  0  0  0  0
   38.0410   29.4080   40.5150 C   0  0  0  0  0  0  0  0  0  0  0  0
   39.3130   29.2000   39.8920 C   0  0  0  0  0  0  0  0  0  0  0  0
   39.8940   28.2670   40.0190 H   0  0  0  0  0  0  0  0  0  0  0  0
   39.9890   30.0860   39.0850 C   0  0  0  0  0  0  0  0  0  0  0  0
   40.9290   29.9060   38.6370 H   0  0  0  0  0  0  0  0  0  0  0  0
   39.3910   31.3020   38.8450 C   0  0  0  0  0  0  0  0  0  0  0  0
   39.7700   32.1100   38.2420 H   0  0  0  0  0  0  0  0  0  0  0  0
   38.1680   31.5530   39.4220 C   0  0  0  0  0  0  0  0  0  0  0  0
   37.3240   33.0780   39.1800 Cl  0  0  0  0  0  0  0  0  0  0  0  0
   35.1050   29.2860   37.9420 C   0  0  0  0  0  0  0  0  0  0  0  0
   36.0170   29.4230   36.8840 C   0  0  0  0  0  0  0  0  0  0  0  0
   37.1320   28.5870   36.8970 C   0  0  0  0  0  0  0  0  0  0  0  0
   37.2020   27.7490   37.9300 N   0  0  0  0  0  0  0  0  0  0  0  0
   36.3750   27.5910   38.9330 C   0  0  0  0  0  0  0  0  0  0  0  0
   35.3140   28.3920   38.9070 N   0  0  0  0  0  0  0  0  0  0  0  0
   34.2230   29.9220   37.9640 H   0  0  0  0  0  0  0  0  0  0  0  0
   35.8890   30.1310   36.0820 H   0  0  0  0  0  0  0  0  0  0  0  0
   38.0740   28.5490   35.8430 N   0  0  0  0  0  0  0  0  0  0  0  0
   39.0290   28.6880   36.2920 H   0  0  0  0  0  0  0  0  0  0  0  0
   37.9820   28.4200   34.8120 H   0  0  0  0  0  0  0  0  0  0  0  0
  1 10  1  0  0  0  0
  2  1  2  0  0  0  0
  2  3  1  0  0  0  0
  3  4  2  0  0  0  0
  4  5  1  0  0  0  0
  4 13  1  0  0  0  0
  5  6  1  0  0  0  0
  6  7  2  0  0  0  0
  6 14  1  0  0  0  0
  7 15  1  0  0  0  0
  8 16  1  0  0  0  0
  8  7  1  0  0  0  0
  9  8  2  0  0  0  0
 10  9  1  0  0  0  0
 10  5  2  0  0  0  0
 11  2  1  0  0  0  0
 12  3  1  0  0  0  0
 18 19  1  0  0  0  0
 18 17  1  0  0  0  0
 19  9  1  0  0  0  0
 20 21  1  0  0  0  0
 20 19  2  0  0  0  0
 22 20  1  0  0  0  0
 23 22  1  0  0  0  0
 24 22  2  0  0  0  0
 24 26  1  0  0  0  0
 25 24  1  0  0  0  0
 26 18  2  0  0  0  0
 27 26  1  0  0  0  0
 28 34  1  0  0  0  0
 28 33  1  0  0  0  0
 29 30  1  0  0  0  0
 29 28  2  0  0  0  0
 30 31  2  0  0  0  0
 31 32  1  0  0  0  0
 32  1  1  0  0  0  0
 33 32  2  0  0  0  0
 35 29  1  0  0  0  0
 36 37  1  0  0  0  0
 36 30  1  0  0  0  0
 38 36  1  0  0  0  0
M  END
>  <minimizedAffinity>
-6.61644125

$$$$

 OpenBabel03242521533D

 38 41  0  0  0  0  0  0  0  0999 V2000
   37.3340   27.2420   38.7550 C   0  0  0  0  0  0  0  0  0  0  0  0
   37.1320   27.4200   37.3990 C   0  0  0  0  0  0  0  0  0  0  0  0
   36.4480   26.5030   36.5910 C   0  0  0  0  0  0  0  0  0  0  0  0
   35.9270   25.3420   37.1360 C   0  0  0  0  0  0  0  0  0  0  0  0
   36.1200   25.1270   38.5060 C   0  0  0  0  0  0  0  0  0  0  0  0
   35.6640   23.9460   39.0220 C   0  0  0  0  0  0  0  0  0  0  0  0
   35.9340   23.6610   40.3720 C   0  0  0  0  0  0  0  0  0  0  0  0
   36.6760   24.6040   41.1290 C   0  0  0  0  0  0  0  0  0  0  0  0
   37.0760   25.7490   40.5030 C   0  0  0  0  0  0  0  0  0  0  0  0
   36.8160   26.0850   39.2150 C   0  0  0  0  0  0  0  0  0  0  0  0
   37.5500   28.3450   36.9830 H   0  0  0  0  0  0  0  0  0  0  0  0
   36.3730   26.7790   35.5520 H   0  0  0  0  0  0  0  0  0  0  0  0
   35.4040   24.6540   36.5250 H   0  0  0  0  0  0  0  0  0  0  0  0
   35.1130   23.2910   38.3510 H   0  0  0  0  0  0  0  0  0  0  0  0
   35.4760   22.6800   40.6000 H   0  0  0  0  0  0  0  0  0  0  0  0
   36.7010   24.0500   42.0570 H   0  0  0  0  0  0  0  0  0  0  0  0
   40.1110   24.9310   40.1890 Cl  0  0  0  0  0  0  0  0  0  0  0  0
   39.4190   25.8080   41.5770 C   0  0  0  0  0  0  0  0  0  0  0  0
   38.0740   26.0810   41.5120 C   0  0  0  0  0  0  0  0  0  0  0  0
   37.6200   26.8560   42.6260 C   0  0  0  0  0  0  0  0  0  0  0  0
   36.5690   27.1820   42.7370 H   0  0  0  0  0  0  0  0  0  0  0  0
   38.3820   27.3070   43.6800 C   0  0  0  0  0  0  0  0  0  0  0  0
   38.0200   27.8790   44.4920 H   0  0  0  0  0  0  0  0  0  0  0  0
   39.7200   26.9880   43.6720 C   0  0  0  0  0  0  0  0  0  0  0  0
   40.4600   27.2520   44.4090 H   0  0  0  0  0  0  0  0  0  0  0  0
   40.2070   26.2450   42.6210 C   0  0  0  0  0  0  0  0  0  0  0  0
   41.9040   25.7900   42.5180 Cl  0  0  0  0  0  0  0  0  0  0  0  0
   39.1850   29.7800   40.7500 C   0  0  0  0  0  0  0  0  0  0  0  0
   38.1160   30.5580   41.2190 C   0  0  0  0  0  0  0  0  0  0  0  0
   36.8320   30.1530   40.8580 C   0  0  0  0  0  0  0  0  0  0  0  0
   36.7730   29.0630   40.0950 N   0  0  0  0  0  0  0  0  0  0  0  0
   37.7440   28.3110   39.6400 C   0  0  0  0  0  0  0  0  0  0  0  0
   38.9630   28.7060   39.9940 N   0  0  0  0  0  0  0  0  0  0  0  0
   40.2020   30.0660   41.0140 H   0  0  0  0  0  0  0  0  0  0  0  0
   38.2470   31.4340   41.8330 H   0  0  0  0  0  0  0  0  0  0  0  0
   35.6630   30.7850   41.3430 N   0  0  0  0  0  0  0  0  0  0  0  0
   35.0820   31.0350   40.4880 H   0  0  0  0  0  0  0  0  0  0  0  0
   35.3280   31.0160   42.3030 H   0  0  0  0  0  0  0  0  0  0  0  0
  1 10  1  0  0  0  0
  1 32  1  0  0  0  0
  2  1  2  0  0  0  0
  3  4  2  0  0  0  0
  3  2  1  0  0  0  0
  4  5  1  0  0  0  0
  5  6  2  0  0  0  0
  5 10  1  0  0  0  0
  6  7  1  0  0  0  0
  7 15  1  0  0  0  0
  7  8  2  0  0  0  0
  8 16  1  0  0  0  0
  9  8  1  0  0  0  0
  9 19  1  0  0  0  0
 10  9  2  0  0  0  0
 11  2  1  0  0  0  0
 12  3  1  0  0  0  0
 13  4  1  0  0  0  0
 14  6  1  0  0  0  0
 17 18  1  0  0  0  0
 18 26  1  0  0  0  0
 19 18  2  0  0  0  0
 19 20  1  0  0  0  0
 20 21  1  0  0  0  0
 20 22  2  0  0  0  0
 22 23  1  0  0  0  0
 24 22  1  0  0  0  0
 24 25  1  0  0  0  0
 26 24  2  0  0  0  0
 27 26  1  0  0  0  0
 28 34  1  0  0  0  0
 28 29  1  0  0  0  0
 29 35  1  0  0  0  0
 30 29  2  0  0  0  0
 30 36  1  0  0  0  0
 31 30  1  0  0  0  0
 32 33  1  0  0  0  0
 32 31  2  0  0  0  0
 33 28  2  0  0  0  0
 36 38  1  0  0  0  0
 37 36  1  0  0  0  0
M  END
>  <minimizedAffinity>
-6.36265182

$$$$

 OpenBabel03242521533D

 38 41  0  0  0  0  0  0  0  0999 V2000
   37.4740   30.6090   40.2000 C   0  0  0  0  0  0  0  0  0  0  0  0
   36.2890   30.4610   39.5050 C   0  0  0  0  0  0  0  0  0  0  0  0
   35.3060   29.5200   39.8420 C   0  0  0  0  0  0  0  0  0  0  0  0
   35.4880   28.6740   40.9220 C   0  0  0  0  0  0  0  0  0  0  0  0
   36.6820   28.7920   41.6430 C   0  0  0  0  0  0  0  0  0  0  0  0
   36.8840   27.9070   42.6640 C   0  0  0  0  0  0  0  0  0  0  0  0
   38.1170   27.9390   43.3390 C   0  0  0  0  0  0  0  0  0  0  0  0
   39.0950   28.8790   42.9220 C   0  0  0  0  0  0  0  0  0  0  0  0
   38.7750   29.7130   41.8910 C   0  0  0  0  0  0  0  0  0  0  0  0
   37.5920   29.7430   41.2270 C   0  0  0  0  0  0  0  0  0  0  0  0
   36.1600   31.1390   38.6530 H   0  0  0  0  0  0  0  0  0  0  0  0
   34.4370   29.5210   39.2040 H   0  0  0  0  0  0  0  0  0  0  0  0
   34.7420   27.9680   41.1780 H   0  0  0  0  0  0  0  0  0  0  0  0
   36.0710   27.2230   42.8960 H   0  0  0  0  0  0  0  0  0  0  0  0
   38.0810   27.1660   44.1300 H   0  0  0  0  0  0  0  0  0  0  0  0
   39.8690   28.5960   43.6210 H   0  0  0  0  0  0  0  0  0  0  0  0
   40.3560   28.6270   39.3800 Cl  0  0  0  0  0  0  0  0  0  0  0  0
   41.0170   29.7240   40.6180 C   0  0  0  0  0  0  0  0  0  0  0  0
   40.1570   30.0920   41.6240 C   0  0  0  0  0  0  0  0  0  0  0  0
   40.7440   31.0360   42.5270 C   0  0  0  0  0  0  0  0  0  0  0  0
   40.1960   31.4540   43.3910 H   0  0  0  0  0  0  0  0  0  0  0  0
   42.0160   31.5560   42.4600 C   0  0  0  0  0  0  0  0  0  0  0  0
   42.4250   32.2530   43.1410 H   0  0  0  0  0  0  0  0  0  0  0  0
   42.8170   31.1340   41.4230 C   0  0  0  0  0  0  0  0  0  0  0  0
   43.8310   31.4310   41.2170 H   0  0  0  0  0  0  0  0  0  0  0  0
   42.2980   30.2280   40.5270 C   0  0  0  0  0  0  0  0  0  0  0  0
   43.2410   29.6300   39.1650 Cl  0  0  0  0  0  0  0  0  0  0  0  0
   39.4570   33.7210   40.6820 C   0  0  0  0  0  0  0  0  0  0  0  0
   40.2180   33.7180   39.5030 C   0  0  0  0  0  0  0  0  0  0  0  0
   39.9860   32.6790   38.6030 C   0  0  0  0  0  0  0  0  0  0  0  0
   39.0600   31.7990   38.9770 N   0  0  0  0  0  0  0  0  0  0  0  0
   38.3300   31.7680   40.0640 C   0  0  0  0  0  0  0  0  0  0  0  0
   38.5580   32.7650   40.9130 N   0  0  0  0  0  0  0  0  0  0  0  0
   39.6110   34.5170   41.4080 H   0  0  0  0  0  0  0  0  0  0  0  0
   40.9550   34.4700   39.2740 H   0  0  0  0  0  0  0  0  0  0  0  0
   40.6080   32.6110   37.3350 N   0  0  0  0  0  0  0  0  0  0  0  0
   41.0530   31.6470   37.2730 H   0  0  0  0  0  0  0  0  0  0  0  0
   40.6870   33.2880   36.5450 H   0  0  0  0  0  0  0  0  0  0  0  0
  1 10  1  0  0  0  0
  2  3  1  0  0  0  0
  2  1  2  0  0  0  0
  3  4  2  0  0  0  0
  4 13  1  0  0  0  0
  4  5  1  0  0  0  0
  5  6  1  0  0  0  0
  6 14  1  0  0  0  0
  6  7  2  0  0  0  0
  7 15  1  0  0  0  0
  8  7  1  0  0  0  0
  8 16  1  0  0  0  0
  9  8  2  0  0  0  0
 10  5  2  0  0  0  0
 10  9  1  0  0  0  0
 11  2  1  0  0  0  0
 12  3  1  0  0  0  0
 17 18  1  0  0  0  0
 18 19  1  0  0  0  0
 19  9  1  0  0  0  0
 19 20  2  0  0  0  0
 20 21  1  0  0  0  0
 22 20  1  0  0  0  0
 22 23  1  0  0  0  0
 24 22  2  0  0  0  0
 25 24  1  0  0  0  0
 26 18  2  0  0  0  0
 26 24  1  0  0  0  0
 27 26  1  0  0  0  0
 28 33  1  0  0  0  0
 28 34  1  0  0  0  0
 29 28  2  0  0  0  0
 30 31  2  0  0  0  0
 30 29  1  0  0  0  0
 31 32  1  0  0  0  0
 32  1  1  0  0  0  0
 32 33  2  0  0  0  0
 35 29  1  0  0  0  0
 36 30  1  0  0  0  0
 37 36  1  0  0  0  0
 38 36  1  0  0  0  0
M  END
>  <minimizedAffinity>
-6.33513546

$$$$

 OpenBabel03242521533D

 38 41  0  0  0  0  0  0  0  0999 V2000
   39.0090   29.0320   42.1740 C   0  0  0  0  0  0  0  0  0  0  0  0
   38.8190   28.2090   43.2680 C   0  0  0  0  0  0  0  0  0  0  0  0
   37.6070   27.5660   43.5520 C   0  0  0  0  0  0  0  0  0  0  0  0
   36.5140   27.7340   42.7210 C   0  0  0  0  0  0  0  0  0  0  0  0
   36.6690   28.5690   41.6080 C   0  0  0  0  0  0  0  0  0  0  0  0
   35.5660   28.7850   40.8310 C   0  0  0  0  0  0  0  0  0  0  0  0
   35.6690   29.6970   39.7660 C   0  0  0  0  0  0  0  0  0  0  0  0
   36.9070   30.3570   39.5560 C   0  0  0  0  0  0  0  0  0  0  0  0
   37.9390   30.0560   40.3970 C   0  0  0  0  0  0  0  0  0  0  0  0
   37.9000   29.1640   41.4180 C   0  0  0  0  0  0  0  0  0  0  0  0
   39.6950   28.0850   43.9160 H   0  0  0  0  0  0  0  0  0  0  0  0
   37.6120   26.9580   44.4420 H   0  0  0  0  0  0  0  0  0  0  0  0
   35.6000   27.2430   42.9340 H   0  0  0  0  0  0  0  0  0  0  0  0
   34.6640   28.2320   41.0850 H   0  0  0  0  0  0  0  0  0  0  0  0
   34.6870   29.7220   39.2560 H   0  0  0  0  0  0  0  0  0  0  0  0
   36.6030   30.9620   38.7130 H   0  0  0  0  0  0  0  0  0  0  0  0
   39.7820   30.1340   37.8320 Cl  0  0  0  0  0  0  0  0  0  0  0  0
   39.5820   31.4660   38.9980 C   0  0  0  0  0  0  0  0  0  0  0  0
   38.7180   31.2350   40.0400 C   0  0  0  0  0  0  0  0  0  0  0  0
   38.5560   32.3830   40.8800 C   0  0  0  0  0  0  0  0  0  0  0  0
   37.8890   32.3880   41.7620 H   0  0  0  0  0  0  0  0  0  0  0  0
   39.1650   33.6080   40.7250 C   0  0  0  0  0  0  0  0  0  0  0  0
   39.0270   34.4410   41.3610 H   0  0  0  0  0  0  0  0  0  0  0  0
   40.0190   33.7570   39.6570 C   0  0  0  0  0  0  0  0  0  0  0  0
   40.5780   34.6360   39.3840 H   0  0  0  0  0  0  0  0  0  0  0  0
   40.2080   32.6830   38.8180 C   0  0  0  0  0  0  0  0  0  0  0  0
   41.2770   32.7750   37.4220 Cl  0  0  0  0  0  0  0  0  0  0  0  0
   42.2230   29.4580   40.3480 C   0  0  0  0  0  0  0  0  0  0  0  0
   42.7080   30.6220   40.9630 C   0  0  0  0  0  0  0  0  0  0  0  0
   41.9310   31.1710   41.9820 C   0  0  0  0  0  0  0  0  0  0  0  0
   40.8030   30.5160   42.2510 N   0  0  0  0  0  0  0  0  0  0  0  0
   40.3180   29.4300   41.7030 C   0  0  0  0  0  0  0  0  0  0  0  0
   41.0700   28.9160   40.7340 N   0  0  0  0  0  0  0  0  0  0  0  0
   42.8040   29.0030   39.5480 H   0  0  0  0  0  0  0  0  0  0  0  0
   43.6350   31.0960   40.6840 H   0  0  0  0  0  0  0  0  0  0  0  0
   42.3490   32.2810   42.7530 N   0  0  0  0  0  0  0  0  0  0  0  0
   41.5590   32.9910   42.7040 H   0  0  0  0  0  0  0  0  0  0  0  0
   43.2160   32.4810   43.2960 H   0  0  0  0  0  0  0  0  0  0  0  0
  1  2  1  0  0  0  0
  2  3  2  0  0  0  0
  2 11  1  0  0  0  0
  3 12  1  0  0  0  0
  4 13  1  0  0  0  0
  4  3  1  0  0  0  0
  5  4  2  0  0  0  0
  6 14  1  0  0  0  0
  6  5  1  0  0  0  0
  7  6  2  0  0  0  0
  8  7  1  0  0  0  0
  8  9  2  0  0  0  0
  9 10  1  0  0  0  0
 10  5  1  0  0  0  0
 10  1  2  0  0  0  0
 15  7  1  0  0  0  0
 16  8  1  0  0  0  0
 17 18  1  0  0  0  0
 18 19  1  0  0  0  0
 19  9  1  0  0  0  0
 19 20  2  0  0  0  0
 20 21  1  0  0  0  0
 22 20  1  0  0  0  0
 22 23  1  0  0  0  0
 24 22  2  0  0  0  0
 25 24  1  0  0  0  0
 26 18  2  0  0  0  0
 26 24  1  0  0  0  0
 27 26  1  0  0  0  0
 28 33  2  0  0  0  0
 28 29  1  0  0  0  0
 29 30  2  0  0  0  0
 30 31  1  0  0  0  0
 30 36  1  0  0  0  0
 32  1  1  0  0  0  0
 32 31  2  0  0  0  0
 33 32  1  0  0  0  0
 34 28  1  0  0  0  0
 35 29  1  0  0  0  0
 36 38  1  0  0  0  0
 37 36  1  0  0  0  0
M  END
>  <minimizedAffinity>
-6.33499193

$$$$

 OpenBabel03242521533D

 38 41  0  0  0  0  0  0  0  0999 V2000
   36.8060   26.4470   39.8420 C   0  0  0  0  0  0  0  0  0  0  0  0
   36.5720   25.0850   39.7980 C   0  0  0  0  0  0  0  0  0  0  0  0
   36.6760   24.2460   40.9160 C   0  0  0  0  0  0  0  0  0  0  0  0
   37.0270   24.7640   42.1500 C   0  0  0  0  0  0  0  0  0  0  0  0
   37.2790   26.1390   42.2270 C   0  0  0  0  0  0  0  0  0  0  0  0
   37.6920   26.6300   43.4340 C   0  0  0  0  0  0  0  0  0  0  0  0
   38.0480   27.9880   43.5130 C   0  0  0  0  0  0  0  0  0  0  0  0
   37.9730   28.7790   42.3380 C   0  0  0  0  0  0  0  0  0  0  0  0
   37.5430   28.1750   41.1920 C   0  0  0  0  0  0  0  0  0  0  0  0
   37.1600   26.8800   41.0690 C   0  0  0  0  0  0  0  0  0  0  0  0
   36.2940   24.6910   38.8130 H   0  0  0  0  0  0  0  0  0  0  0  0
   36.4650   23.2060   40.7250 H   0  0  0  0  0  0  0  0  0  0  0  0
   37.0980   24.1290   42.9940 H   0  0  0  0  0  0  0  0  0  0  0  0
   37.7210   25.9340   44.2700 H   0  0  0  0  0  0  0  0  0  0  0  0
   38.3370   28.1920   44.5610 H   0  0  0  0  0  0  0  0  0  0  0  0
   38.3300   29.7040   42.7680 H   0  0  0  0  0  0  0  0  0  0  0  0
   35.8920   30.7980   40.5760 Cl  0  0  0  0  0  0  0  0  0  0  0  0
   37.4990   30.4120   39.9110 C   0  0  0  0  0  0  0  0  0  0  0  0
   38.0540   29.2230   40.3180 C   0  0  0  0  0  0  0  0  0  0  0  0
   39.3750   29.0320   39.8000 C   0  0  0  0  0  0  0  0  0  0  0  0
   39.9830   28.1380   40.0320 H   0  0  0  0  0  0  0  0  0  0  0  0
   40.0710   29.8930   38.9820 C   0  0  0  0  0  0  0  0  0  0  0  0
   41.0470   29.7270   38.6140 H   0  0  0  0  0  0  0  0  0  0  0  0
   39.4430   31.0620   38.6170 C   0  0  0  0  0  0  0  0  0  0  0  0
   39.8310   31.8440   37.9870 H   0  0  0  0  0  0  0  0  0  0  0  0
   38.1710   31.2940   39.0890 C   0  0  0  0  0  0  0  0  0  0  0  0
   37.2860   32.7600   38.6830 Cl  0  0  0  0  0  0  0  0  0  0  0  0
   36.4890   28.5180   36.7660 C   0  0  0  0  0  0  0  0  0  0  0  0
   35.1650   28.9630   36.9000 C   0  0  0  0  0  0  0  0  0  0  0  0
   34.4740   28.5600   38.0420 C   0  0  0  0  0  0  0  0  0  0  0  0
   35.1620   27.7870   38.8790 N   0  0  0  0  0  0  0  0  0  0  0  0
   36.3950   27.3530   38.7910 C   0  0  0  0  0  0  0  0  0  0  0  0
   37.0430   27.7460   37.7000 N   0  0  0  0  0  0  0  0  0  0  0  0
   37.0590   28.8140   35.8880 H   0  0  0  0  0  0  0  0  0  0  0  0
   34.6750   29.5880   36.1720 H   0  0  0  0  0  0  0  0  0  0  0  0
   33.1720   29.0170   38.3510 N   0  0  0  0  0  0  0  0  0  0  0  0
   32.5840   28.1480   38.5240 H   0  0  0  0  0  0  0  0  0  0  0  0
   32.7520   29.9690   38.4240 H   0  0  0  0  0  0  0  0  0  0  0  0
  1 10  1  0  0  0  0
  2  1  2  0  0  0  0
  2  3  1  0  0  0  0
  3  4  2  0  0  0  0
  4  5  1  0  0  0  0
  4 13  1  0  0  0  0
  5  6  1  0  0  0  0
  6  7  2  0  0  0  0
  6 14  1  0  0  0  0
  7 15  1  0  0  0  0
  8 16  1  0  0  0  0
  8  7  1  0  0  0  0
  9  8  2  0  0  0  0
 10  9  1  0  0  0  0
 10  5  2  0  0  0  0
 11  2  1  0  0  0  0
 12  3  1  0  0  0  0
 18 19  1  0  0  0  0
 18 17  1  0  0  0  0
 19  9  1  0  0  0  0
 20 21  1  0  0  0  0
 20 19  2  0  0  0  0
 22 20  1  0  0  0  0
 23 22  1  0  0  0  0
 24 22  2  0  0  0  0
 24 26  1  0  0  0  0
 25 24  1  0  0  0  0
 26 18  2  0  0  0  0
 27 26  1  0  0  0  0
 28 29  2  0  0  0  0
 28 33  1  0  0  0  0
 29 30  1  0  0  0  0
 30 36  1  0  0  0  0
 30 31  2  0  0  0  0
 32 31  1  0  0  0  0
 32  1  1  0  0  0  0
 33 32  2  0  0  0  0
 34 28  1  0  0  0  0
 35 29  1  0  0  0  0
 36 38  1  0  0  0  0
 36 37  1  0  0  0  0
M  END
>  <minimizedAffinity>
-6.30273962

$$$$

 OpenBabel03242521533D

 38 41  0  0  0  0  0  0  0  0999 V2000
   37.7770   28.9810   41.9150 C   0  0  0  0  0  0  0  0  0  0  0  0
   37.1500   28.6330   43.0970 C   0  0  0  0  0  0  0  0  0  0  0  0
   36.7920   27.3190   43.4260 C   0  0  0  0  0  0  0  0  0  0  0  0
   37.0630   26.2800   42.5520 C   0  0  0  0  0  0  0  0  0  0  0  0
   37.6900   26.5990   41.3420 C   0  0  0  0  0  0  0  0  0  0  0  0
   37.8910   25.5780   40.4560 C   0  0  0  0  0  0  0  0  0  0  0  0
   38.4270   25.8870   39.1940 C   0  0  0  0  0  0  0  0  0  0  0  0
   38.7230   27.2430   38.8960 C   0  0  0  0  0  0  0  0  0  0  0  0
   38.4810   28.1730   39.8640 C   0  0  0  0  0  0  0  0  0  0  0  0
   37.9940   27.9240   41.1060 C   0  0  0  0  0  0  0  0  0  0  0  0
   36.9430   29.4670   43.7780 H   0  0  0  0  0  0  0  0  0  0  0  0
   36.3070   27.2050   44.3820 H   0  0  0  0  0  0  0  0  0  0  0  0
   36.7970   25.2870   42.8060 H   0  0  0  0  0  0  0  0  0  0  0  0
   37.6200   24.5760   40.7830 H   0  0  0  0  0  0  0  0  0  0  0  0
   38.5250   24.9380   38.6350 H   0  0  0  0  0  0  0  0  0  0  0  0
   39.0710   27.0920   37.8850 H   0  0  0  0  0  0  0  0  0  0  0  0
   41.1990   29.5640   39.0520 Cl  0  0  0  0  0  0  0  0  0  0  0  0
   39.5830   30.0510   38.4830 C   0  0  0  0  0  0  0  0  0  0  0  0
   38.5270   29.3030   38.9440 C   0  0  0  0  0  0  0  0  0  0  0  0
   37.2780   29.7120   38.3760 C   0  0  0  0  0  0  0  0  0  0  0  0
   36.3210   29.2160   38.6200 H   0  0  0  0  0  0  0  0  0  0  0  0
   37.0810   30.7290   37.4700 C   0  0  0  0  0  0  0  0  0  0  0  0
   36.1460   31.0110   37.0650 H   0  0  0  0  0  0  0  0  0  0  0  0
   38.1910   31.4330   37.0600 C   0  0  0  0  0  0  0  0  0  0  0  0
   38.2240   32.2540   36.3650 H   0  0  0  0  0  0  0  0  0  0  0  0
   39.4150   31.0780   37.5770 C   0  0  0  0  0  0  0  0  0  0  0  0
   40.8930   31.9130   37.1130 Cl  0  0  0  0  0  0  0  0  0  0  0  0
   40.1690   31.8140   41.6020 C   0  0  0  0  0  0  0  0  0  0  0  0
   39.3440   32.7720   40.9940 C   0  0  0  0  0  0  0  0  0  0  0  0
   38.0190   32.4090   40.7590 C   0  0  0  0  0  0  0  0  0  0  0  0
   37.6910   31.1760   41.1420 N   0  0  0  0  0  0  0  0  0  0  0  0
   38.4290   30.2560   41.7130 C   0  0  0  0  0  0  0  0  0  0  0  0
   39.6890   30.6160   41.9330 N   0  0  0  0  0  0  0  0  0  0  0  0
   41.2100   32.0630   41.8010 H   0  0  0  0  0  0  0  0  0  0  0  0
   39.6880   33.7530   40.7090 H   0  0  0  0  0  0  0  0  0  0  0  0
   37.0560   33.3100   40.2480 N   0  0  0  0  0  0  0  0  0  0  0  0
   36.6170   32.8300   39.4060 H   0  0  0  0  0  0  0  0  0  0  0  0
   36.7510   34.2630   40.5390 H   0  0  0  0  0  0  0  0  0  0  0  0
  1  2  1  0  0  0  0
  2  3  2  0  0  0  0
  2 11  1  0  0  0  0
  3 12  1  0  0  0  0
  4 13  1  0  0  0  0
  4  3  1  0  0  0  0
  5  4  2  0  0  0  0
  6 14  1  0  0  0  0
  6  5  1  0  0  0  0
  7  6  2  0  0  0  0
  8  7  1  0  0  0  0
  8  9  2  0  0  0  0
  9 10  1  0  0  0  0
 10  5  1  0  0  0  0
 10  1  2  0  0  0  0
 15  7  1  0  0  0  0
 16  8  1  0  0  0  0
 18 19  1  0  0  0  0
 18 17  1  0  0  0  0
 19  9  1  0  0  0  0
 20 21  1  0  0  0  0
 20 19  2  0  0  0  0
 22 20  1  0  0  0  0
 23 22  1  0  0  0  0
 24 22  2  0  0  0  0
 24 26  1  0  0  0  0
 25 24  1  0  0  0  0
 26 18  2  0  0  0  0
 27 26  1  0  0  0  0
 28 34  1  0  0  0  0
 28 33  1  0  0  0  0
 29 28  2  0  0  0  0
 30 29  1  0  0  0  0
 30 31  2  0  0  0  0
 31 32  1  0  0  0  0
 32  1  1  0  0  0  0
 32 33  2  0  0  0  0
 35 29  1  0  0  0  0
 36 38  1  0  0  0  0
 36 30  1  0  0  0  0
 37 36  1  0  0  0  0
M  END
>  <minimizedAffinity>
-6.21775103

$$$$
