
 OpenBabel03242520433D

 41 44  0  0  1  0  0  0  0  0999 V2000
   38.4870   28.1300   36.6030 C   0  0  0  0  0  0  0  0  0  0  0  0
   37.3240   28.1570   35.8130 C   0  0  0  0  0  0  0  0  0  0  0  0
   36.5390   29.3480   35.8160 C   0  0  0  0  0  0  0  0  0  0  0  0
   36.9490   30.4060   36.5820 N   0  0  0  0  0  0  0  0  0  0  0  0
   38.0760   30.3220   37.3220 C   0  0  0  0  0  0  0  0  0  0  0  0
   38.8290   29.1970   37.3270 N   0  0  0  0  0  0  0  0  0  0  0  0
   38.4180   31.4500   38.0760 N   0  0  0  0  0  0  0  0  0  0  0  0
   37.5330   31.9610   39.0700 C   0  0  2  0  0  0  0  0  0  0  0  0
   37.9010   33.2980   39.6150 C   0  0  0  0  0  0  0  0  0  0  0  0
   39.2690   33.6380   39.6110 N   0  0  0  0  0  0  0  0  0  0  0  0
   40.1400   32.5970   39.2020 C   0  0  0  0  0  0  0  0  0  0  0  0
   39.6860   32.1110   37.8520 C   0  0  0  0  0  0  0  0  0  0  0  0
   39.1110   27.2570   36.6330 H   0  0  0  0  0  0  0  0  0  0  0  0
   37.0240   27.3160   35.2210 H   0  0  0  0  0  0  0  0  0  0  0  0
   35.6460   29.4190   35.2340 H   0  0  0  0  0  0  0  0  0  0  0  0
   36.5510   32.1540   38.5360 H   0  0  0  0  0  0  0  0  0  0  0  0
   37.3430   34.1410   39.1590 H   0  0  0  0  0  0  0  0  0  0  0  0
   37.5470   33.2980   40.6870 H   0  0  0  0  0  0  0  0  0  0  0  0
   39.6010   34.2160   40.3990 H   0  0  0  0  0  0  0  0  0  0  0  0
   40.3180   31.8050   39.9320 H   0  0  0  0  0  0  0  0  0  0  0  0
   41.1510   33.0710   39.0350 H   0  0  0  0  0  0  0  0  0  0  0  0
   39.5470   33.0150   37.2150 H   0  0  0  0  0  0  0  0  0  0  0  0
   40.3990   31.4170   37.3840 H   0  0  0  0  0  0  0  0  0  0  0  0
   37.2610   30.9650   40.1390 C   0  0  0  0  0  0  0  0  0  0  0  0
   36.1990   30.7860   40.9980 C   0  0  0  0  0  0  0  0  0  0  0  0
   36.3780   29.7370   41.8050 N   0  0  0  0  0  0  0  0  0  0  0  0
   37.5690   29.2330   41.4640 C   0  0  0  0  0  0  0  0  0  0  0  0
   38.0960   29.9660   40.4690 N   0  0  0  0  0  0  0  0  0  0  0  0
   35.3240   31.4200   41.0190 H   0  0  0  0  0  0  0  0  0  0  0  0
   35.7080   29.4160   42.5300 H   0  0  0  0  0  0  0  0  0  0  0  0
   36.6910   26.4860   40.4790 Cl  0  0  0  0  0  0  0  0  0  0  0  0
   37.9130   26.7640   41.7180 C   0  0  0  0  0  0  0  0  0  0  0  0
   38.2150   28.0600   42.0710 C   0  0  0  0  0  0  0  0  0  0  0  0
   39.1770   28.2350   43.0450 C   0  0  0  0  0  0  0  0  0  0  0  0
   39.4540   29.2500   43.3620 H   0  0  0  0  0  0  0  0  0  0  0  0
   39.8470   27.2160   43.6800 C   0  0  0  0  0  0  0  0  0  0  0  0
   40.5940   27.3900   44.4380 H   0  0  0  0  0  0  0  0  0  0  0  0
   39.5060   25.9380   43.2890 C   0  0  0  0  0  0  0  0  0  0  0  0
   39.9880   25.0770   43.7410 H   0  0  0  0  0  0  0  0  0  0  0  0
   38.5440   25.6800   42.3110 C   0  0  0  0  0  0  0  0  0  0  0  0
   38.1000   24.0750   41.8050 Cl  0  0  0  0  0  0  0  0  0  0  0  0
  1 13  1  0  0  0  0
  1  6  1  0  0  0  0
  2  3  1  0  0  0  0
  2  1  2  0  0  0  0
  3  4  2  0  0  0  0
  4  5  1  0  0  0  0
  5  6  2  0  0  0  0
  5  7  1  0  0  0  0
  7  8  1  0  0  0  0
  8 16  1  6  0  0  0
  8  9  1  0  0  0  0
  8 24  1  0  0  0  0
  9 18  1  0  0  0  0
 10  9  1  0  0  0  0
 10 19  1  0  0  0  0
 11 10  1  0  0  0  0
 11 20  1  0  0  0  0
 12  7  1  0  0  0  0
 12 11  1  0  0  0  0
 14  2  1  0  0  0  0
 15  3  1  0  0  0  0
 17  9  1  0  0  0  0
 21 11  1  0  0  0  0
 22 12  1  0  0  0  0
 23 12  1  0  0  0  0
 24 28  1  0  0  0  0
 24 25  2  0  0  0  0
 25 29  1  0  0  0  0
 25 26  1  0  0  0  0
 26 30  1  0  0  0  0
 27 26  1  0  0  0  0
 27 33  1  0  0  0  0
 28 27  2  0  0  0  0
 31 32  1  0  0  0  0
 32 33  2  0  0  0  0
 32 40  1  0  0  0  0
 33 34  1  0  0  0  0
 34 35  1  0  0  0  0
 34 36  2  0  0  0  0
 36 37  1  0  0  0  0
 38 36  1  0  0  0  0
 38 39  1  0  0  0  0
 40 38  2  0  0  0  0
 41 40  1  0  0  0  0
M  END
>  <minimizedAffinity>
-6.63861084

$$$$

 OpenBabel03242520433D

 41 44  0  0  1  0  0  0  0  0999 V2000
   42.4940   27.2520   41.6590 C   0  0  0  0  0  0  0  0  0  0  0  0
   43.0450   26.8260   42.8820 C   0  0  0  0  0  0  0  0  0  0  0  0
   42.2870   25.9170   43.6780 C   0  0  0  0  0  0  0  0  0  0  0  0
   41.0650   25.5010   43.2210 N   0  0  0  0  0  0  0  0  0  0  0  0
   40.5860   25.9440   42.0380 C   0  0  0  0  0  0  0  0  0  0  0  0
   41.2960   26.8070   41.2740 N   0  0  0  0  0  0  0  0  0  0  0  0
   39.3290   25.4690   41.6520 N   0  0  0  0  0  0  0  0  0  0  0  0
   38.1790   25.7010   42.4620 C   0  0  2  0  0  0  0  0  0  0  0  0
   36.9640   24.9310   42.0680 C   0  0  0  0  0  0  0  0  0  0  0  0
   36.8410   24.5790   40.7080 N   0  0  0  0  0  0  0  0  0  0  0  0
   37.8400   25.1210   39.8600 C   0  0  0  0  0  0  0  0  0  0  0  0
   39.1850   24.7340   40.4130 C   0  0  0  0  0  0  0  0  0  0  0  0
   43.0260   27.9350   41.0250 H   0  0  0  0  0  0  0  0  0  0  0  0
   44.0030   27.1650   43.2170 H   0  0  0  0  0  0  0  0  0  0  0  0
   42.6600   25.5640   44.6150 H   0  0  0  0  0  0  0  0  0  0  0  0
   38.4350   25.2840   43.4840 H   0  0  0  0  0  0  0  0  0  0  0  0
   36.7940   24.0150   42.6700 H   0  0  0  0  0  0  0  0  0  0  0  0
   36.0870   25.5890   42.3350 H   0  0  0  0  0  0  0  0  0  0  0  0
   35.8850   24.5650   40.3220 H   0  0  0  0  0  0  0  0  0  0  0  0
   37.7390   26.1800   39.6160 H   0  0  0  0  0  0  0  0  0  0  0  0
   37.7470   24.5840   38.8710 H   0  0  0  0  0  0  0  0  0  0  0  0
   39.1460   23.6380   40.6120 H   0  0  0  0  0  0  0  0  0  0  0  0
   40.0130   24.9720   39.7310 H   0  0  0  0  0  0  0  0  0  0  0  0
   37.9030   27.1500   42.6360 C   0  0  0  0  0  0  0  0  0  0  0  0
   37.3770   27.8800   43.6790 C   0  0  0  0  0  0  0  0  0  0  0  0
   37.3160   29.1840   43.3990 N   0  0  0  0  0  0  0  0  0  0  0  0
   37.8060   29.2990   42.1610 C   0  0  0  0  0  0  0  0  0  0  0  0
   38.1580   28.0850   41.7050 N   0  0  0  0  0  0  0  0  0  0  0  0
   37.0500   27.4490   44.6150 H   0  0  0  0  0  0  0  0  0  0  0  0
   36.9550   29.9200   44.0370 H   0  0  0  0  0  0  0  0  0  0  0  0
   40.4900   30.7340   42.3190 Cl  0  0  0  0  0  0  0  0  0  0  0  0
   39.1060   31.2960   41.3840 C   0  0  0  0  0  0  0  0  0  0  0  0
   37.9490   30.5490   41.4010 C   0  0  0  0  0  0  0  0  0  0  0  0
   36.8880   31.0240   40.6560 C   0  0  0  0  0  0  0  0  0  0  0  0
   35.9430   30.4650   40.6360 H   0  0  0  0  0  0  0  0  0  0  0  0
   36.9070   32.1770   39.9080 C   0  0  0  0  0  0  0  0  0  0  0  0
   36.0580   32.5180   39.3380 H   0  0  0  0  0  0  0  0  0  0  0  0
   38.0900   32.8860   39.9270 C   0  0  0  0  0  0  0  0  0  0  0  0
   38.1880   33.8090   39.3630 H   0  0  0  0  0  0  0  0  0  0  0  0
   39.2060   32.4720   40.6550 C   0  0  0  0  0  0  0  0  0  0  0  0
   40.7060   33.3520   40.6920 Cl  0  0  0  0  0  0  0  0  0  0  0  0
  1  2  1  0  0  0  0
  2 14  1  0  0  0  0
  2  3  2  0  0  0  0
  3 15  1  0  0  0  0
  4  3  1  0  0  0  0
  5  4  2  0  0  0  0
  6  1  2  0  0  0  0
  6  5  1  0  0  0  0
  7  5  1  0  0  0  0
  7  8  1  0  0  0  0
  8 24  1  0  0  0  0
  8 16  1  1  0  0  0
  9 18  1  0  0  0  0
  9  8  1  0  0  0  0
  9 17  1  0  0  0  0
 10  9  1  0  0  0  0
 11 12  1  0  0  0  0
 11 10  1  0  0  0  0
 12 22  1  0  0  0  0
 12  7  1  0  0  0  0
 13  1  1  0  0  0  0
 19 10  1  0  0  0  0
 20 11  1  0  0  0  0
 21 11  1  0  0  0  0
 23 12  1  0  0  0  0
 24 25  2  0  0  0  0
 25 29  1  0  0  0  0
 26 25  1  0  0  0  0
 26 30  1  0  0  0  0
 27 26  1  0  0  0  0
 28 27  2  0  0  0  0
 28 24  1  0  0  0  0
 32 33  1  0  0  0  0
 32 31  1  0  0  0  0
 33 27  1  0  0  0  0
 34 33  2  0  0  0  0
 35 34  1  0  0  0  0
 36 38  2  0  0  0  0
 36 34  1  0  0  0  0
 37 36  1  0  0  0  0
 38 40  1  0  0  0  0
 39 38  1  0  0  0  0
 40 41  1  0  0  0  0
 40 32  2  0  0  0  0
M  END
>  <minimizedAffinity>
-6.21634865

$$$$

 OpenBabel03242520433D

 41 44  0  0  1  0  0  0  0  0999 V2000
   42.0950   29.5410   39.7580 C   0  0  0  0  0  0  0  0  0  0  0  0
   42.0990   28.8540   38.5310 C   0  0  0  0  0  0  0  0  0  0  0  0
   41.0990   29.1930   37.5710 C   0  0  0  0  0  0  0  0  0  0  0  0
   40.1870   30.1640   37.8840 N   0  0  0  0  0  0  0  0  0  0  0  0
   40.2330   30.7910   39.0800 C   0  0  0  0  0  0  0  0  0  0  0  0
   41.1760   30.4780   39.9980 N   0  0  0  0  0  0  0  0  0  0  0  0
   39.2600   31.7690   39.3150 N   0  0  0  0  0  0  0  0  0  0  0  0
   37.8730   31.4420   39.2840 C   0  0  2  0  0  0  0  0  0  0  0  0
   36.9490   32.6120   39.2970 C   0  0  0  0  0  0  0  0  0  0  0  0
   37.4100   33.7860   39.9290 N   0  0  0  0  0  0  0  0  0  0  0  0
   38.6580   33.6560   40.5890 C   0  0  0  0  0  0  0  0  0  0  0  0
   39.6610   33.1310   39.5960 C   0  0  0  0  0  0  0  0  0  0  0  0
   42.8280   29.3220   40.5120 H   0  0  0  0  0  0  0  0  0  0  0  0
   42.8230   28.0980   38.3090 H   0  0  0  0  0  0  0  0  0  0  0  0
   41.0570   28.7000   36.6240 H   0  0  0  0  0  0  0  0  0  0  0  0
   37.6910   30.9730   38.2670 H   0  0  0  0  0  0  0  0  0  0  0  0
   36.5650   32.8970   38.2960 H   0  0  0  0  0  0  0  0  0  0  0  0
   36.0260   32.2650   39.8440 H   0  0  0  0  0  0  0  0  0  0  0  0
   36.7010   34.3520   40.4180 H   0  0  0  0  0  0  0  0  0  0  0  0
   38.6440   33.1240   41.5420 H   0  0  0  0  0  0  0  0  0  0  0  0
   38.9960   34.7020   40.8440 H   0  0  0  0  0  0  0  0  0  0  0  0
   39.5670   33.7620   38.6820 H   0  0  0  0  0  0  0  0  0  0  0  0
   40.6920   33.1540   39.9760 H   0  0  0  0  0  0  0  0  0  0  0  0
   37.5170   30.4240   40.3050 C   0  0  0  0  0  0  0  0  0  0  0  0
   36.7230   30.4710   41.4300 C   0  0  0  0  0  0  0  0  0  0  0  0
   36.6790   29.2950   42.0620 N   0  0  0  0  0  0  0  0  0  0  0  0
   37.4540   28.4800   41.3390 C   0  0  0  0  0  0  0  0  0  0  0  0
   37.9530   29.1540   40.2890 N   0  0  0  0  0  0  0  0  0  0  0  0
   36.1980   31.3540   41.7640 H   0  0  0  0  0  0  0  0  0  0  0  0
   36.1440   29.0990   42.9300 H   0  0  0  0  0  0  0  0  0  0  0  0
   40.0840   27.8170   42.7290 Cl  0  0  0  0  0  0  0  0  0  0  0  0
   38.8730   26.6280   42.2530 C   0  0  0  0  0  0  0  0  0  0  0  0
   37.7260   27.0650   41.6290 C   0  0  0  0  0  0  0  0  0  0  0  0
   36.8030   26.1020   41.2730 C   0  0  0  0  0  0  0  0  0  0  0  0
   35.8710   26.3990   40.7730 H   0  0  0  0  0  0  0  0  0  0  0  0
   36.9490   24.7530   41.4940 C   0  0  0  0  0  0  0  0  0  0  0  0
   36.2060   24.0290   41.2010 H   0  0  0  0  0  0  0  0  0  0  0  0
   38.1160   24.3700   42.1220 C   0  0  0  0  0  0  0  0  0  0  0  0
   38.3100   23.3230   42.3330 H   0  0  0  0  0  0  0  0  0  0  0  0
   39.0970   25.2830   42.5130 C   0  0  0  0  0  0  0  0  0  0  0  0
   40.5750   24.8210   43.3050 Cl  0  0  0  0  0  0  0  0  0  0  0  0
  1  6  1  0  0  0  0
  1 13  1  0  0  0  0
  2  1  2  0  0  0  0
  3  4  2  0  0  0  0
  3  2  1  0  0  0  0
  4  5  1  0  0  0  0
  5  7  1  0  0  0  0
  5  6  2  0  0  0  0
  7 12  1  0  0  0  0
  8 16  1  6  0  0  0
  8  9  1  0  0  0  0
  8  7  1  0  0  0  0
  8 24  1  0  0  0  0
  9 18  1  0  0  0  0
  9 10  1  0  0  0  0
 10 19  1  0  0  0  0
 10 11  1  0  0  0  0
 11 21  1  0  0  0  0
 11 20  1  0  0  0  0
 12 23  1  0  0  0  0
 12 11  1  0  0  0  0
 14  2  1  0  0  0  0
 15  3  1  0  0  0  0
 17  9  1  0  0  0  0
 22 12  1  0  0  0  0
 24 25  2  0  0  0  0
 25 29  1  0  0  0  0
 25 26  1  0  0  0  0
 26 30  1  0  0  0  0
 27 33  1  0  0  0  0
 27 26  1  0  0  0  0
 28 24  1  0  0  0  0
 28 27  2  0  0  0  0
 32 40  1  0  0  0  0
 32 31  1  0  0  0  0
 33 32  2  0  0  0  0
 34 36  2  0  0  0  0
 34 33  1  0  0  0  0
 35 34  1  0  0  0  0
 36 38  1  0  0  0  0
 37 36  1  0  0  0  0
 38 39  1  0  0  0  0
 38 40  2  0  0  0  0
 40 41  1  0  0  0  0
M  END
>  <minimizedAffinity>
-6.21344233

$$$$

 OpenBabel03242520433D

 41 44  0  0  1  0  0  0  0  0999 V2000
   41.9720   29.2690   37.8990 C   0  0  0  0  0  0  0  0  0  0  0  0
   42.2750   29.8360   36.6470 C   0  0  0  0  0  0  0  0  0  0  0  0
   42.7470   31.1830   36.6190 C   0  0  0  0  0  0  0  0  0  0  0  0
   42.8840   31.8580   37.8020 N   0  0  0  0  0  0  0  0  0  0  0  0
   42.5770   31.2610   38.9740 C   0  0  0  0  0  0  0  0  0  0  0  0
   42.1280   29.9850   39.0130 N   0  0  0  0  0  0  0  0  0  0  0  0
   42.7440   32.0270   40.1320 N   0  0  0  0  0  0  0  0  0  0  0  0
   42.0340   33.2510   40.3090 C   0  0  2  0  0  0  0  0  0  0  0  0
   42.4910   34.0850   41.4560 C   0  0  0  0  0  0  0  0  0  0  0  0
   43.0660   33.4090   42.5520 N   0  0  0  0  0  0  0  0  0  0  0  0
   43.0170   31.9950   42.4720 C   0  0  0  0  0  0  0  0  0  0  0  0
   43.6470   31.5770   41.1700 C   0  0  0  0  0  0  0  0  0  0  0  0
   41.6140   28.2590   37.9710 H   0  0  0  0  0  0  0  0  0  0  0  0
   42.1600   29.2870   35.7360 H   0  0  0  0  0  0  0  0  0  0  0  0
   42.9900   31.6600   35.6950 H   0  0  0  0  0  0  0  0  0  0  0  0
   42.2860   33.8850   39.4030 H   0  0  0  0  0  0  0  0  0  0  0  0
   43.1770   34.9100   41.1710 H   0  0  0  0  0  0  0  0  0  0  0  0
   41.5720   34.6240   41.8260 H   0  0  0  0  0  0  0  0  0  0  0  0
   42.8870   33.8120   43.4850 H   0  0  0  0  0  0  0  0  0  0  0  0
   42.0460   31.5370   42.6720 H   0  0  0  0  0  0  0  0  0  0  0  0
   43.6970   31.6040   43.2830 H   0  0  0  0  0  0  0  0  0  0  0  0
   44.6220   32.1140   41.0990 H   0  0  0  0  0  0  0  0  0  0  0  0
   43.8000   30.4910   41.0970 H   0  0  0  0  0  0  0  0  0  0  0  0
   40.5630   33.0470   40.3040 C   0  0  0  0  0  0  0  0  0  0  0  0
   39.5050   33.8960   40.0650 C   0  0  0  0  0  0  0  0  0  0  0  0
   38.3280   33.2710   40.1610 N   0  0  0  0  0  0  0  0  0  0  0  0
   38.6290   32.0050   40.4660 C   0  0  0  0  0  0  0  0  0  0  0  0
   39.9630   31.8700   40.5510 N   0  0  0  0  0  0  0  0  0  0  0  0
   39.6120   34.9450   39.8290 H   0  0  0  0  0  0  0  0  0  0  0  0
   37.3990   33.7140   40.0200 H   0  0  0  0  0  0  0  0  0  0  0  0
   39.0860   30.1740   42.8590 Cl  0  0  0  0  0  0  0  0  0  0  0  0
   37.7520   30.0180   41.7180 C   0  0  0  0  0  0  0  0  0  0  0  0
   37.6640   30.9160   40.6770 C   0  0  0  0  0  0  0  0  0  0  0  0
   36.6050   30.7590   39.8050 C   0  0  0  0  0  0  0  0  0  0  0  0
   36.4890   31.4500   38.9590 H   0  0  0  0  0  0  0  0  0  0  0  0
   35.6440   29.7820   39.9040 C   0  0  0  0  0  0  0  0  0  0  0  0
   34.8290   29.6900   39.2030 H   0  0  0  0  0  0  0  0  0  0  0  0
   35.7800   28.9100   40.9640 C   0  0  0  0  0  0  0  0  0  0  0  0
   35.0630   28.1090   41.1140 H   0  0  0  0  0  0  0  0  0  0  0  0
   36.8230   29.0030   41.8870 C   0  0  0  0  0  0  0  0  0  0  0  0
   37.0120   27.9130   43.2300 Cl  0  0  0  0  0  0  0  0  0  0  0  0
  1 13  1  0  0  0  0
  1  6  1  0  0  0  0
  2  1  2  0  0  0  0
  3  2  1  0  0  0  0
  3  4  2  0  0  0  0
  4  5  1  0  0  0  0
  5  6  2  0  0  0  0
  5  7  1  0  0  0  0
  7  8  1  0  0  0  0
  7 12  1  0  0  0  0
  8 16  1  6  0  0  0
  8  9  1  0  0  0  0
  9 18  1  0  0  0  0
  9 10  1  0  0  0  0
 10 19  1  0  0  0  0
 11 10  1  0  0  0  0
 11 20  1  0  0  0  0
 11 21  1  0  0  0  0
 12 11  1  0  0  0  0
 14  2  1  0  0  0  0
 15  3  1  0  0  0  0
 17  9  1  0  0  0  0
 22 12  1  0  0  0  0
 23 12  1  0  0  0  0
 24  8  1  0  0  0  0
 24 28  1  0  0  0  0
 25 26  1  0  0  0  0
 25 24  2  0  0  0  0
 26 27  1  0  0  0  0
 27 28  2  0  0  0  0
 27 33  1  0  0  0  0
 29 25  1  0  0  0  0
 30 26  1  0  0  0  0
 32 40  1  0  0  0  0
 32 31  1  0  0  0  0
 33 32  2  0  0  0  0
 34 36  2  0  0  0  0
 34 33  1  0  0  0  0
 35 34  1  0  0  0  0
 36 38  1  0  0  0  0
 37 36  1  0  0  0  0
 38 39  1  0  0  0  0
 38 40  2  0  0  0  0
 40 41  1  0  0  0  0
M  END
>  <minimizedAffinity>
-6.17015314

$$$$

 OpenBabel03242520433D

 41 44  0  0  1  0  0  0  0  0999 V2000
   43.6250   32.3430   39.6940 C   0  0  0  0  0  0  0  0  0  0  0  0
   43.8790   31.6700   38.4850 C   0  0  0  0  0  0  0  0  0  0  0  0
   42.7710   31.3800   37.6340 C   0  0  0  0  0  0  0  0  0  0  0  0
   41.5180   31.7660   38.0290 N   0  0  0  0  0  0  0  0  0  0  0  0
   41.3350   32.4100   39.2020 C   0  0  0  0  0  0  0  0  0  0  0  0
   42.3780   32.6900   40.0170 N   0  0  0  0  0  0  0  0  0  0  0  0
   40.0210   32.7640   39.5250 N   0  0  0  0  0  0  0  0  0  0  0  0
   39.0050   31.7720   39.6510 C   0  0  2  0  0  0  0  0  0  0  0  0
   37.6150   32.3010   39.7450 C   0  0  0  0  0  0  0  0  0  0  0  0
   37.4540   33.5860   40.3040 N   0  0  0  0  0  0  0  0  0  0  0  0
   38.6400   34.1610   40.8260 C   0  0  0  0  0  0  0  0  0  0  0  0
   39.6810   34.1550   39.7390 C   0  0  0  0  0  0  0  0  0  0  0  0
   44.4260   32.5840   40.3670 H   0  0  0  0  0  0  0  0  0  0  0  0
   44.8680   31.3780   38.1990 H   0  0  0  0  0  0  0  0  0  0  0  0
   42.9100   30.8700   36.7060 H   0  0  0  0  0  0  0  0  0  0  0  0
   39.0070   31.2060   38.6690 H   0  0  0  0  0  0  0  0  0  0  0  0
   37.0560   32.2770   38.7880 H   0  0  0  0  0  0  0  0  0  0  0  0
   37.0540   31.5690   40.3960 H   0  0  0  0  0  0  0  0  0  0  0  0
   36.5980   33.7410   40.8580 H   0  0  0  0  0  0  0  0  0  0  0  0
   38.9830   33.7650   41.7840 H   0  0  0  0  0  0  0  0  0  0  0  0
   38.4080   35.2470   41.0250 H   0  0  0  0  0  0  0  0  0  0  0  0
   39.1980   34.5830   38.8300 H   0  0  0  0  0  0  0  0  0  0  0  0
   40.5800   34.7300   40.0040 H   0  0  0  0  0  0  0  0  0  0  0  0
   39.3150   30.7900   40.7220 C   0  0  0  0  0  0  0  0  0  0  0  0
   39.7900   30.9320   42.0070 C   0  0  0  0  0  0  0  0  0  0  0  0
   39.9130   29.7560   42.6290 N   0  0  0  0  0  0  0  0  0  0  0  0
   39.5140   28.8450   41.7360 C   0  0  0  0  0  0  0  0  0  0  0  0
   39.1560   29.4620   40.5970 N   0  0  0  0  0  0  0  0  0  0  0  0
   40.0360   31.8820   42.4600 H   0  0  0  0  0  0  0  0  0  0  0  0
   40.2520   29.6230   43.6020 H   0  0  0  0  0  0  0  0  0  0  0  0
   36.7660   27.5270   41.7710 Cl  0  0  0  0  0  0  0  0  0  0  0  0
   38.2920   26.6710   41.9870 C   0  0  0  0  0  0  0  0  0  0  0  0
   39.4650   27.3910   41.9490 C   0  0  0  0  0  0  0  0  0  0  0  0
   40.6380   26.6840   42.1230 C   0  0  0  0  0  0  0  0  0  0  0  0
   41.6010   27.2120   42.1000 H   0  0  0  0  0  0  0  0  0  0  0  0
   40.7140   25.3270   42.3280 C   0  0  0  0  0  0  0  0  0  0  0  0
   41.6500   24.8070   42.4600 H   0  0  0  0  0  0  0  0  0  0  0  0
   39.5100   24.6550   42.3570 C   0  0  0  0  0  0  0  0  0  0  0  0
   39.4820   23.5810   42.5140 H   0  0  0  0  0  0  0  0  0  0  0  0
   38.2830   25.2990   42.1890 C   0  0  0  0  0  0  0  0  0  0  0  0
   36.7540   24.4690   42.2230 Cl  0  0  0  0  0  0  0  0  0  0  0  0
  1  6  1  0  0  0  0
  1 13  1  0  0  0  0
  2  1  2  0  0  0  0
  3  4  2  0  0  0  0
  3  2  1  0  0  0  0
  4  5  1  0  0  0  0
  5  7  1  0  0  0  0
  5  6  2  0  0  0  0
  7  8  1  0  0  0  0
  7 12  1  0  0  0  0
  8 16  1  6  0  0  0
  8  9  1  0  0  0  0
  8 24  1  0  0  0  0
  9 10  1  0  0  0  0
  9 18  1  0  0  0  0
 10 11  1  0  0  0  0
 10 19  1  0  0  0  0
 11 21  1  0  0  0  0
 11 20  1  0  0  0  0
 12 23  1  0  0  0  0
 12 11  1  0  0  0  0
 14  2  1  0  0  0  0
 15  3  1  0  0  0  0
 17  9  1  0  0  0  0
 22 12  1  0  0  0  0
 24 25  2  0  0  0  0
 25 29  1  0  0  0  0
 25 26  1  0  0  0  0
 26 30  1  0  0  0  0
 27 33  1  0  0  0  0
 27 26  1  0  0  0  0
 28 24  1  0  0  0  0
 28 27  2  0  0  0  0
 31 32  1  0  0  0  0
 32 40  1  0  0  0  0
 33 32  2  0  0  0  0
 33 34  1  0  0  0  0
 34 36  2  0  0  0  0
 35 34  1  0  0  0  0
 36 38  1  0  0  0  0
 36 37  1  0  0  0  0
 38 39  1  0  0  0  0
 40 41  1  0  0  0  0
 40 38  2  0  0  0  0
M  END
>  <minimizedAffinity>
-5.89270544

$$$$

 OpenBabel03242520433D

 41 44  0  0  1  0  0  0  0  0999 V2000
   37.3570   32.2170   38.6900 C   0  0  0  0  0  0  0  0  0  0  0  0
   37.1420   33.4750   39.2820 C   0  0  0  0  0  0  0  0  0  0  0  0
   38.2140   34.0580   40.0230 C   0  0  0  0  0  0  0  0  0  0  0  0
   39.3940   33.3720   40.1250 N   0  0  0  0  0  0  0  0  0  0  0  0
   39.5420   32.1670   39.5350 C   0  0  0  0  0  0  0  0  0  0  0  0
   38.5330   31.6040   38.8300 N   0  0  0  0  0  0  0  0  0  0  0  0
   40.7810   31.5370   39.6940 N   0  0  0  0  0  0  0  0  0  0  0  0
   41.2780   31.2160   40.9910 C   0  0  2  0  0  0  0  0  0  0  0  0
   42.7040   30.7860   41.0310 C   0  0  0  0  0  0  0  0  0  0  0  0
   43.2180   30.1600   39.8770 N   0  0  0  0  0  0  0  0  0  0  0  0
   42.2620   29.9050   38.8620 C   0  0  0  0  0  0  0  0  0  0  0  0
   41.5740   31.2020   38.5300 C   0  0  0  0  0  0  0  0  0  0  0  0
   36.5810   31.7380   38.1230 H   0  0  0  0  0  0  0  0  0  0  0  0
   36.2100   33.9920   39.1880 H   0  0  0  0  0  0  0  0  0  0  0  0
   38.1020   35.0110   40.4930 H   0  0  0  0  0  0  0  0  0  0  0  0
   41.2800   32.1920   41.5680 H   0  0  0  0  0  0  0  0  0  0  0  0
   43.4110   31.5890   41.3220 H   0  0  0  0  0  0  0  0  0  0  0  0
   42.7770   30.0500   41.8840 H   0  0  0  0  0  0  0  0  0  0  0  0
   43.9180   29.4180   40.0300 H   0  0  0  0  0  0  0  0  0  0  0  0
   41.5860   29.0660   39.0400 H   0  0  0  0  0  0  0  0  0  0  0  0
   42.8440   29.6190   37.9380 H   0  0  0  0  0  0  0  0  0  0  0  0
   42.3760   31.9600   38.3730 H   0  0  0  0  0  0  0  0  0  0  0  0
   40.9320   31.1310   37.6400 H   0  0  0  0  0  0  0  0  0  0  0  0
   40.3800   30.2810   41.7160 C   0  0  0  0  0  0  0  0  0  0  0  0
   39.3620   30.4800   42.6220 C   0  0  0  0  0  0  0  0  0  0  0  0
   38.8100   29.3300   43.0170 N   0  0  0  0  0  0  0  0  0  0  0  0
   39.4780   28.3770   42.3600 C   0  0  0  0  0  0  0  0  0  0  0  0
   40.4150   28.9440   41.5820 N   0  0  0  0  0  0  0  0  0  0  0  0
   39.0470   31.4520   42.9740 H   0  0  0  0  0  0  0  0  0  0  0  0
   38.0270   29.2410   43.6950 H   0  0  0  0  0  0  0  0  0  0  0  0
   36.9610   27.2830   41.0350 Cl  0  0  0  0  0  0  0  0  0  0  0  0
   38.1420   26.3060   41.9050 C   0  0  0  0  0  0  0  0  0  0  0  0
   39.2380   26.9300   42.4590 C   0  0  0  0  0  0  0  0  0  0  0  0
   40.1390   26.1300   43.1320 C   0  0  0  0  0  0  0  0  0  0  0  0
   41.0300   26.5790   43.5900 H   0  0  0  0  0  0  0  0  0  0  0  0
   40.0190   24.7690   43.2860 C   0  0  0  0  0  0  0  0  0  0  0  0
   40.7430   24.1750   43.8190 H   0  0  0  0  0  0  0  0  0  0  0  0
   38.9030   24.1960   42.7130 C   0  0  0  0  0  0  0  0  0  0  0  0
   38.7330   23.1260   42.7890 H   0  0  0  0  0  0  0  0  0  0  0  0
   37.9470   24.9370   42.0160 C   0  0  0  0  0  0  0  0  0  0  0  0
   36.5330   24.2330   41.2870 Cl  0  0  0  0  0  0  0  0  0  0  0  0
  1  6  2  0  0  0  0
  1  2  1  0  0  0  0
  2  3  2  0  0  0  0
  3  4  1  0  0  0  0
  3 15  1  0  0  0  0
  5  7  1  0  0  0  0
  5  4  2  0  0  0  0
  6  5  1  0  0  0  0
  7  8  1  0  0  0  0
  8  9  1  0  0  0  0
  8 16  1  1  0  0  0
  8 24  1  0  0  0  0
  9 17  1  0  0  0  0
  9 18  1  0  0  0  0
 10 19  1  0  0  0  0
 10  9  1  0  0  0  0
 11 20  1  0  0  0  0
 11 10  1  0  0  0  0
 12 11  1  0  0  0  0
 12  7  1  0  0  0  0
 13  1  1  0  0  0  0
 14  2  1  0  0  0  0
 21 11  1  0  0  0  0
 22 12  1  0  0  0  0
 23 12  1  0  0  0  0
 24 25  2  0  0  0  0
 25 29  1  0  0  0  0
 25 26  1  0  0  0  0
 26 30  1  0  0  0  0
 27 33  1  0  0  0  0
 27 26  1  0  0  0  0
 28 24  1  0  0  0  0
 28 27  2  0  0  0  0
 31 32  1  0  0  0  0
 32 40  2  0  0  0  0
 32 33  1  0  0  0  0
 33 34  2  0  0  0  0
 34 36  1  0  0  0  0
 34 35  1  0  0  0  0
 36 37  1  0  0  0  0
 38 39  1  0  0  0  0
 38 36  2  0  0  0  0
 40 38  1  0  0  0  0
 41 40  1  0  0  0  0
M  END
>  <minimizedAffinity>
-5.83124495

$$$$

 OpenBabel03242520433D

 41 44  0  0  1  0  0  0  0  0999 V2000
   39.0550   25.4250   40.2480 C   0  0  0  0  0  0  0  0  0  0  0  0
   40.1460   25.4000   41.1370 C   0  0  0  0  0  0  0  0  0  0  0  0
   40.3140   26.5080   42.0210 C   0  0  0  0  0  0  0  0  0  0  0  0
   39.4140   27.5370   41.9670 N   0  0  0  0  0  0  0  0  0  0  0  0
   38.3860   27.5060   41.0920 C   0  0  0  0  0  0  0  0  0  0  0  0
   38.2150   26.4620   40.2480 N   0  0  0  0  0  0  0  0  0  0  0  0
   37.5170   28.6030   41.1040 N   0  0  0  0  0  0  0  0  0  0  0  0
   37.9970   29.9190   40.8420 C   0  0  2  0  0  0  0  0  0  0  0  0
   37.0280   31.0140   41.1350 C   0  0  0  0  0  0  0  0  0  0  0  0
   35.6570   30.7010   41.0300 N   0  0  0  0  0  0  0  0  0  0  0  0
   35.3780   29.4050   40.5290 C   0  0  0  0  0  0  0  0  0  0  0  0
   36.1100   28.4050   41.3840 C   0  0  0  0  0  0  0  0  0  0  0  0
   38.8860   24.6150   39.5640 H   0  0  0  0  0  0  0  0  0  0  0  0
   40.8360   24.5830   41.1600 H   0  0  0  0  0  0  0  0  0  0  0  0
   41.1260   26.5380   42.7140 H   0  0  0  0  0  0  0  0  0  0  0  0
   38.8300   30.0960   41.5910 H   0  0  0  0  0  0  0  0  0  0  0  0
   37.1870   31.5090   42.1150 H   0  0  0  0  0  0  0  0  0  0  0  0
   37.2550   31.8290   40.3880 H   0  0  0  0  0  0  0  0  0  0  0  0
   35.0390   31.4550   40.6920 H   0  0  0  0  0  0  0  0  0  0  0  0
   35.5130   29.2670   39.4550 H   0  0  0  0  0  0  0  0  0  0  0  0
   34.2800   29.2200   40.7120 H   0  0  0  0  0  0  0  0  0  0  0  0
   35.8830   28.6630   42.4440 H   0  0  0  0  0  0  0  0  0  0  0  0
   35.8220   27.3660   41.1700 H   0  0  0  0  0  0  0  0  0  0  0  0
   38.5940   30.0350   39.4870 C   0  0  0  0  0  0  0  0  0  0  0  0
   38.0410   30.1010   38.2270 C   0  0  0  0  0  0  0  0  0  0  0  0
   38.9720   30.2100   37.2760 N   0  0  0  0  0  0  0  0  0  0  0  0
   40.1390   30.2150   37.9270 C   0  0  0  0  0  0  0  0  0  0  0  0
   39.9140   30.1110   39.2480 N   0  0  0  0  0  0  0  0  0  0  0  0
   36.9790   30.0660   38.0300 H   0  0  0  0  0  0  0  0  0  0  0  0
   38.7850   30.2750   36.2560 H   0  0  0  0  0  0  0  0  0  0  0  0
   41.7580   32.7300   38.5110 Cl  0  0  0  0  0  0  0  0  0  0  0  0
   42.3050   31.3990   37.4940 C   0  0  0  0  0  0  0  0  0  0  0  0
   41.4700   30.3190   37.3120 C   0  0  0  0  0  0  0  0  0  0  0  0
   41.9360   29.2970   36.5080 C   0  0  0  0  0  0  0  0  0  0  0  0
   41.3090   28.4130   36.3320 H   0  0  0  0  0  0  0  0  0  0  0  0
   43.1610   29.2850   35.8840 C   0  0  0  0  0  0  0  0  0  0  0  0
   43.4920   28.4690   35.2620 H   0  0  0  0  0  0  0  0  0  0  0  0
   43.9560   30.3910   36.0990 C   0  0  0  0  0  0  0  0  0  0  0  0
   44.9380   30.4600   35.6420 H   0  0  0  0  0  0  0  0  0  0  0  0
   43.5570   31.4630   36.8990 C   0  0  0  0  0  0  0  0  0  0  0  0
   44.5450   32.8670   37.1820 Cl  0  0  0  0  0  0  0  0  0  0  0  0
  1  2  1  0  0  0  0
  2 14  1  0  0  0  0
  2  3  2  0  0  0  0
  3 15  1  0  0  0  0
  4  3  1  0  0  0  0
  5  7  1  0  0  0  0
  5  4  2  0  0  0  0
  6  1  2  0  0  0  0
  6  5  1  0  0  0  0
  7 12  1  0  0  0  0
  8  7  1  0  0  0  0
  8  9  1  0  0  0  0
  8 16  1  1  0  0  0
  9 17  1  0  0  0  0
 10  9  1  0  0  0  0
 11 21  1  0  0  0  0
 11 10  1  0  0  0  0
 11 12  1  0  0  0  0
 12 22  1  0  0  0  0
 13  1  1  0  0  0  0
 18  9  1  0  0  0  0
 19 10  1  0  0  0  0
 20 11  1  0  0  0  0
 23 12  1  0  0  0  0
 24  8  1  0  0  0  0
 25 24  2  0  0  0  0
 26 27  1  0  0  0  0
 26 25  1  0  0  0  0
 27 28  2  0  0  0  0
 28 24  1  0  0  0  0
 29 25  1  0  0  0  0
 30 26  1  0  0  0  0
 32 31  1  0  0  0  0
 33 32  1  0  0  0  0
 33 27  1  0  0  0  0
 34 33  2  0  0  0  0
 35 34  1  0  0  0  0
 36 38  2  0  0  0  0
 36 34  1  0  0  0  0
 37 36  1  0  0  0  0
 38 40  1  0  0  0  0
 39 38  1  0  0  0  0
 40 41  1  0  0  0  0
 40 32  2  0  0  0  0
M  END
>  <minimizedAffinity>
-5.8287096

$$$$

 OpenBabel03242520433D

 41 44  0  0  1  0  0  0  0  0999 V2000
   37.6900   31.7950   38.5110 C   0  0  0  0  0  0  0  0  0  0  0  0
   37.2530   32.9820   39.1280 C   0  0  0  0  0  0  0  0  0  0  0  0
   37.9170   33.4010   40.3190 C   0  0  0  0  0  0  0  0  0  0  0  0
   38.9430   32.6370   40.8060 N   0  0  0  0  0  0  0  0  0  0  0  0
   39.3190   31.5060   40.1700 C   0  0  0  0  0  0  0  0  0  0  0  0
   38.6960   31.0970   39.0400 N   0  0  0  0  0  0  0  0  0  0  0  0
   40.3740   30.7860   40.7400 N   0  0  0  0  0  0  0  0  0  0  0  0
   40.2800   30.2780   42.0690 C   0  0  2  0  0  0  0  0  0  0  0  0
   41.5560   29.7580   42.6380 C   0  0  0  0  0  0  0  0  0  0  0  0
   42.5040   29.2490   41.7270 N   0  0  0  0  0  0  0  0  0  0  0  0
   42.0600   29.1800   40.3820 C   0  0  0  0  0  0  0  0  0  0  0  0
   41.5810   30.5480   39.9760 C   0  0  0  0  0  0  0  0  0  0  0  0
   37.2220   31.4380   37.6130 H   0  0  0  0  0  0  0  0  0  0  0  0
   36.4480   33.5620   38.7270 H   0  0  0  0  0  0  0  0  0  0  0  0
   37.6230   34.2940   40.8260 H   0  0  0  0  0  0  0  0  0  0  0  0
   40.0440   31.1730   42.7230 H   0  0  0  0  0  0  0  0  0  0  0  0
   42.0790   30.4750   43.3040 H   0  0  0  0  0  0  0  0  0  0  0  0
   41.2600   28.9200   43.3340 H   0  0  0  0  0  0  0  0  0  0  0  0
   43.0720   28.4520   42.0530 H   0  0  0  0  0  0  0  0  0  0  0  0
   41.3680   28.3690   40.1460 H   0  0  0  0  0  0  0  0  0  0  0  0
   42.9740   28.9740   39.7530 H   0  0  0  0  0  0  0  0  0  0  0  0
   42.3790   31.2680   40.2720 H   0  0  0  0  0  0  0  0  0  0  0  0
   41.3710   30.6260   38.9000 H   0  0  0  0  0  0  0  0  0  0  0  0
   39.1560   29.3180   42.2200 C   0  0  0  0  0  0  0  0  0  0  0  0
   38.0320   29.3160   43.0160 C   0  0  0  0  0  0  0  0  0  0  0  0
   37.2750   28.2350   42.8130 N   0  0  0  0  0  0  0  0  0  0  0  0
   37.9170   27.5300   41.8760 C   0  0  0  0  0  0  0  0  0  0  0  0
   39.0390   28.1760   41.5210 N   0  0  0  0  0  0  0  0  0  0  0  0
   37.7910   30.0960   43.7240 H   0  0  0  0  0  0  0  0  0  0  0  0
   36.3830   28.0250   43.3020 H   0  0  0  0  0  0  0  0  0  0  0  0
   36.3180   27.6210   39.2830 Cl  0  0  0  0  0  0  0  0  0  0  0  0
   36.7500   26.1450   40.1430 C   0  0  0  0  0  0  0  0  0  0  0  0
   37.4760   26.2470   41.3090 C   0  0  0  0  0  0  0  0  0  0  0  0
   37.7940   25.0670   41.9520 C   0  0  0  0  0  0  0  0  0  0  0  0
   38.3730   25.0950   42.8850 H   0  0  0  0  0  0  0  0  0  0  0  0
   37.4380   23.8140   41.5150 C   0  0  0  0  0  0  0  0  0  0  0  0
   37.7040   22.9130   42.0450 H   0  0  0  0  0  0  0  0  0  0  0  0
   36.7110   23.7690   40.3450 C   0  0  0  0  0  0  0  0  0  0  0  0
   36.3900   22.8180   39.9310 H   0  0  0  0  0  0  0  0  0  0  0  0
   36.3510   24.9170   39.6360 C   0  0  0  0  0  0  0  0  0  0  0  0
   35.4340   24.8820   38.1580 Cl  0  0  0  0  0  0  0  0  0  0  0  0
  1  6  2  0  0  0  0
  1  2  1  0  0  0  0
  2  3  2  0  0  0  0
  3  4  1  0  0  0  0
  3 15  1  0  0  0  0
  5  7  1  0  0  0  0
  5  4  2  0  0  0  0
  6  5  1  0  0  0  0
  7  8  1  0  0  0  0
  8 24  1  0  0  0  0
  8  9  1  0  0  0  0
  8 16  1  1  0  0  0
  9 17  1  0  0  0  0
  9 18  1  0  0  0  0
 10 19  1  0  0  0  0
 10  9  1  0  0  0  0
 11 10  1  0  0  0  0
 12 22  1  0  0  0  0
 12 11  1  0  0  0  0
 12  7  1  0  0  0  0
 13  1  1  0  0  0  0
 14  2  1  0  0  0  0
 20 11  1  0  0  0  0
 21 11  1  0  0  0  0
 23 12  1  0  0  0  0
 24 25  2  0  0  0  0
 25 29  1  0  0  0  0
 26 25  1  0  0  0  0
 26 30  1  0  0  0  0
 27 26  1  0  0  0  0
 28 27  2  0  0  0  0
 28 24  1  0  0  0  0
 31 32  1  0  0  0  0
 32 33  1  0  0  0  0
 33 27  1  0  0  0  0
 33 34  2  0  0  0  0
 34 35  1  0  0  0  0
 36 34  1  0  0  0  0
 36 37  1  0  0  0  0
 38 36  2  0  0  0  0
 39 38  1  0  0  0  0
 40 32  2  0  0  0  0
 40 38  1  0  0  0  0
 41 40  1  0  0  0  0
M  END
>  <minimizedAffinity>
-5.69722748

$$$$

 OpenBabel03242520433D

 41 44  0  0  1  0  0  0  0  0999 V2000
   38.8610   25.3000   40.3610 C   0  0  0  0  0  0  0  0  0  0  0  0
   39.9790   25.2730   41.2150 C   0  0  0  0  0  0  0  0  0  0  0  0
   40.2170   26.4090   42.0450 C   0  0  0  0  0  0  0  0  0  0  0  0
   39.3540   27.4690   41.9740 N   0  0  0  0  0  0  0  0  0  0  0  0
   38.2960   27.4390   41.1340 C   0  0  0  0  0  0  0  0  0  0  0  0
   38.0600   26.3670   40.3420 N   0  0  0  0  0  0  0  0  0  0  0  0
   37.4680   28.5670   41.1260 N   0  0  0  0  0  0  0  0  0  0  0  0
   37.9870   29.8520   40.7910 C   0  0  2  0  0  0  0  0  0  0  0  0
   37.0680   30.9940   41.0660 C   0  0  0  0  0  0  0  0  0  0  0  0
   35.6840   30.7290   41.0190 N   0  0  0  0  0  0  0  0  0  0  0  0
   35.3420   29.4240   40.5850 C   0  0  0  0  0  0  0  0  0  0  0  0
   36.0660   28.4340   41.4580 C   0  0  0  0  0  0  0  0  0  0  0  0
   38.6400   24.4690   39.7190 H   0  0  0  0  0  0  0  0  0  0  0  0
   40.6400   24.4310   41.2530 H   0  0  0  0  0  0  0  0  0  0  0  0
   41.0520   26.4380   42.7100 H   0  0  0  0  0  0  0  0  0  0  0  0
   38.8500   30.0300   41.5050 H   0  0  0  0  0  0  0  0  0  0  0  0
   37.2780   31.5230   42.0180 H   0  0  0  0  0  0  0  0  0  0  0  0
   37.2990   31.7680   40.2780 H   0  0  0  0  0  0  0  0  0  0  0  0
   35.0830   31.4900   40.6680 H   0  0  0  0  0  0  0  0  0  0  0  0
   35.4360   29.2350   39.5130 H   0  0  0  0  0  0  0  0  0  0  0  0
   34.2440   29.2880   40.8100 H   0  0  0  0  0  0  0  0  0  0  0  0
   35.8840   28.7450   42.5130 H   0  0  0  0  0  0  0  0  0  0  0  0
   35.7330   27.3990   41.2990 H   0  0  0  0  0  0  0  0  0  0  0  0
   38.5430   29.8880   39.4140 C   0  0  0  0  0  0  0  0  0  0  0  0
   37.9760   30.1530   38.1870 C   0  0  0  0  0  0  0  0  0  0  0  0
   38.8680   30.0790   37.1960 N   0  0  0  0  0  0  0  0  0  0  0  0
   40.0230   29.7630   37.7890 C   0  0  0  0  0  0  0  0  0  0  0  0
   39.8300   29.6490   39.1130 N   0  0  0  0  0  0  0  0  0  0  0  0
   36.9320   30.3910   38.0410 H   0  0  0  0  0  0  0  0  0  0  0  0
   38.6640   30.2410   36.1900 H   0  0  0  0  0  0  0  0  0  0  0  0
   40.8330   26.9030   37.1150 Cl  0  0  0  0  0  0  0  0  0  0  0  0
   41.8000   28.3310   36.7510 C   0  0  0  0  0  0  0  0  0  0  0  0
   41.3150   29.5680   37.1130 C   0  0  0  0  0  0  0  0  0  0  0  0
   42.1030   30.6610   36.8110 C   0  0  0  0  0  0  0  0  0  0  0  0
   41.7600   31.6700   37.0780 H   0  0  0  0  0  0  0  0  0  0  0  0
   43.3230   30.5990   36.1830 C   0  0  0  0  0  0  0  0  0  0  0  0
   43.9120   31.4750   35.9630 H   0  0  0  0  0  0  0  0  0  0  0  0
   43.7620   29.3370   35.8430 C   0  0  0  0  0  0  0  0  0  0  0  0
   44.7160   29.2010   35.3440 H   0  0  0  0  0  0  0  0  0  0  0  0
   43.0230   28.1840   36.1140 C   0  0  0  0  0  0  0  0  0  0  0  0
   43.5590   26.5820   35.6950 Cl  0  0  0  0  0  0  0  0  0  0  0  0
  1  2  1  0  0  0  0
  2 14  1  0  0  0  0
  2  3  2  0  0  0  0
  3 15  1  0  0  0  0
  4  3  1  0  0  0  0
  5  4  2  0  0  0  0
  6  1  2  0  0  0  0
  6  5  1  0  0  0  0
  7  5  1  0  0  0  0
  7 12  1  0  0  0  0
  8  9  1  0  0  0  0
  8  7  1  0  0  0  0
  8 16  1  1  0  0  0
  9 17  1  0  0  0  0
 10  9  1  0  0  0  0
 11 21  1  0  0  0  0
 11 10  1  0  0  0  0
 11 12  1  0  0  0  0
 12 22  1  0  0  0  0
 13  1  1  0  0  0  0
 18  9  1  0  0  0  0
 19 10  1  0  0  0  0
 20 11  1  0  0  0  0
 23 12  1  0  0  0  0
 24  8  1  0  0  0  0
 25 24  2  0  0  0  0
 26 27  1  0  0  0  0
 26 25  1  0  0  0  0
 27 28  2  0  0  0  0
 28 24  1  0  0  0  0
 29 25  1  0  0  0  0
 30 26  1  0  0  0  0
 32 33  1  0  0  0  0
 32 31  1  0  0  0  0
 33 27  1  0  0  0  0
 34 35  1  0  0  0  0
 34 33  2  0  0  0  0
 36 34  1  0  0  0  0
 37 36  1  0  0  0  0
 38 40  1  0  0  0  0
 38 36  2  0  0  0  0
 39 38  1  0  0  0  0
 40 32  2  0  0  0  0
 41 40  1  0  0  0  0
M  END
>  <minimizedAffinity>
-5.68652487

$$$$
