
     RDKit          3D

 21 22  0  0  0  0  0  0  0  0999 V2000
   44.5450   36.0235   44.5287 C   0  0  0  0  0  0  0  0  0  0  0  0
   45.2613   35.8936   43.3168 C   0  0  0  0  0  0  0  0  0  0  0  0
   46.1291   34.7959   43.2082 C   0  0  0  0  0  0  0  0  0  0  0  0
   46.2340   33.9271   44.2594 N   0  0  0  0  0  0  0  0  0  0  0  0
   45.5252   34.1061   45.3855 C   0  0  0  0  0  0  0  0  0  0  0  0
   44.6873   35.1406   45.5271 N   0  0  0  0  0  0  0  0  0  0  0  0
   47.0692   34.5662   41.7033 S   0  0  0  0  0  0  0  0  0  0  0  0
   43.8659   36.8456   44.6669 H   0  0  0  0  0  0  0  0  0  0  0  0
   45.1433   36.6126   42.5079 H   0  0  0  0  0  0  0  0  0  0  0  0
   48.4245   34.4209   42.0484 H   0  0  0  0  0  0  0  0  0  0  0  0
   44.1710   31.4184   44.9251 Cl  0  0  0  0  0  0  0  0  0  0  0  0
   45.1038   31.8632   46.3202 C   0  0  0  0  0  0  0  0  0  0  0  0
   45.7007   33.1205   46.4676 C   0  0  0  0  0  0  0  0  0  0  0  0
   46.4479   33.4960   47.5704 C   0  0  0  0  0  0  0  0  0  0  0  0
   46.8829   34.4613   47.6403 H   0  0  0  0  0  0  0  0  0  0  0  0
   46.6044   32.5509   48.5862 C   0  0  0  0  0  0  0  0  0  0  0  0
   47.1923   32.8694   49.4364 H   0  0  0  0  0  0  0  0  0  0  0  0
   46.0435   31.2861   48.5117 C   0  0  0  0  0  0  0  0  0  0  0  0
   46.1755   30.5669   49.3087 H   0  0  0  0  0  0  0  0  0  0  0  0
   45.3149   30.9995   47.3753 C   0  0  0  0  0  0  0  0  0  0  0  0
   44.6157   29.3725   47.3211 Cl  0  0  0  0  0  0  0  0  0  0  0  0
  1  6  2  0
  2  1  1  0
  3  2  2  0
  3  4  1  0
  4  5  2  0
  5  6  1  0
  7  3  1  0
  1  8  1  0
  2  9  1  0
  7 10  1  0
 11 12  1  0
 12 13  2  0
 13 14  1  0
 14 15  1  0
 14 16  2  0
 16 17  1  0
 16 18  1  0
 18 19  1  0
 18 20  2  0
 20 21  1  0
 20 12  1  0
  5 13  1  0
M  ISO  6   8  14   9  14  10  11  15  15  17  15  19  15
M  END
>  <DihAtoms>  (1) 
3,4,12,11

>  <DihDeg>  (1) 
179.9967464957227

$$$$
