
 OpenBabel03242520423D

 41 44  0  0  1  0  0  0  0  0999 V2000
   45.8810   33.2660   45.6140 C   0  0  0  0  0  0  0  0  0  0  0  0
   46.7910   33.4410   44.5550 C   0  0  0  0  0  0  0  0  0  0  0  0
   47.5590   32.3120   44.1390 C   0  0  0  0  0  0  0  0  0  0  0  0
   47.3780   31.1180   44.7840 N   0  0  0  0  0  0  0  0  0  0  0  0
   46.4900   31.0100   45.7950 C   0  0  0  0  0  0  0  0  0  0  0  0
   45.7550   32.0730   46.1980 N   0  0  0  0  0  0  0  0  0  0  0  0
   46.3720   29.7530   46.3970 N   0  0  0  0  0  0  0  0  0  0  0  0
   47.4960   29.1320   47.0170 C   0  0  2  0  0  0  0  0  0  0  0  0
   47.3000   27.7020   47.3900 C   0  0  0  0  0  0  0  0  0  0  0  0
   45.9830   27.2910   47.6840 N   0  0  0  0  0  0  0  0  0  0  0  0
   45.0240   28.3350   47.7090 C   0  0  0  0  0  0  0  0  0  0  0  0
   45.0960   29.0690   46.3970 C   0  0  0  0  0  0  0  0  0  0  0  0
   45.2800   34.0850   45.9620 H   0  0  0  0  0  0  0  0  0  0  0  0
   46.9140   34.3850   44.0670 H   0  0  0  0  0  0  0  0  0  0  0  0
   48.2640   32.3920   43.3410 H   0  0  0  0  0  0  0  0  0  0  0  0
   48.3010   29.0890   46.2200 H   0  0  0  0  0  0  0  0  0  0  0  0
   47.7230   26.9820   46.6610 H   0  0  0  0  0  0  0  0  0  0  0  0
   47.9260   27.5390   48.3140 H   0  0  0  0  0  0  0  0  0  0  0  0
   45.8790   26.5690   48.4130 H   0  0  0  0  0  0  0  0  0  0  0  0
   45.0410   28.9800   48.5900 H   0  0  0  0  0  0  0  0  0  0  0  0
   44.0110   27.8390   47.7300 H   0  0  0  0  0  0  0  0  0  0  0  0
   45.0680   28.2960   45.5950 H   0  0  0  0  0  0  0  0  0  0  0  0
   44.2780   29.7910   46.2650 H   0  0  0  0  0  0  0  0  0  0  0  0
   48.0340   29.9440   48.1380 C   0  0  0  0  0  0  0  0  0  0  0  0
   47.6530   31.1520   48.6810 C   0  0  0  0  0  0  0  0  0  0  0  0
   48.4320   31.5100   49.7050 N   0  0  0  0  0  0  0  0  0  0  0  0
   49.3260   30.5240   49.8250 C   0  0  0  0  0  0  0  0  0  0  0  0
   49.0890   29.5880   48.8900 N   0  0  0  0  0  0  0  0  0  0  0  0
   46.8230   31.7420   48.3200 H   0  0  0  0  0  0  0  0  0  0  0  0
   48.3290   32.3800   50.2630 H   0  0  0  0  0  0  0  0  0  0  0  0
   51.1620   32.9440   50.0670 Cl  0  0  0  0  0  0  0  0  0  0  0  0
   51.3050   31.4770   51.0330 C   0  0  0  0  0  0  0  0  0  0  0  0
   50.4060   30.4550   50.8200 C   0  0  0  0  0  0  0  0  0  0  0  0
   50.5520   29.3230   51.5970 C   0  0  0  0  0  0  0  0  0  0  0  0
   49.8610   28.4790   51.4660 H   0  0  0  0  0  0  0  0  0  0  0  0
   51.5210   29.1470   52.5560 C   0  0  0  0  0  0  0  0  0  0  0  0
   51.6050   28.2480   53.1440 H   0  0  0  0  0  0  0  0  0  0  0  0
   52.3940   30.2010   52.7280 C   0  0  0  0  0  0  0  0  0  0  0  0
   53.1890   30.1430   53.4650 H   0  0  0  0  0  0  0  0  0  0  0  0
   52.3120   31.3780   51.9820 C   0  0  0  0  0  0  0  0  0  0  0  0
   53.4040   32.7180   52.1830 Cl  0  0  0  0  0  0  0  0  0  0  0  0
  1 13  1  0  0  0  0
  1  6  1  0  0  0  0
  2  1  2  0  0  0  0
  3  2  1  0  0  0  0
  3  4  2  0  0  0  0
  4  5  1  0  0  0  0
  5  6  2  0  0  0  0
  5  7  1  0  0  0  0
  7  8  1  0  0  0  0
  8 16  1  6  0  0  0
  8  9  1  0  0  0  0
  8 24  1  0  0  0  0
  9 10  1  0  0  0  0
  9 18  1  0  0  0  0
 10 11  1  0  0  0  0
 10 19  1  0  0  0  0
 11 21  1  0  0  0  0
 11 20  1  0  0  0  0
 12  7  1  0  0  0  0
 12 11  1  0  0  0  0
 14  2  1  0  0  0  0
 15  3  1  0  0  0  0
 17  9  1  0  0  0  0
 22 12  1  0  0  0  0
 23 12  1  0  0  0  0
 24 25  2  0  0  0  0
 24 28  1  0  0  0  0
 25 26  1  0  0  0  0
 26 27  1  0  0  0  0
 26 30  1  0  0  0  0
 27 33  1  0  0  0  0
 28 27  2  0  0  0  0
 29 25  1  0  0  0  0
 31 32  1  0  0  0  0
 32 40  1  0  0  0  0
 33 32  2  0  0  0  0
 33 34  1  0  0  0  0
 34 36  2  0  0  0  0
 35 34  1  0  0  0  0
 36 38  1  0  0  0  0
 36 37  1  0  0  0  0
 38 39  1  0  0  0  0
 40 41  1  0  0  0  0
 40 38  2  0  0  0  0
M  END
>  <minimizedAffinity>
-5.88601685

>  <minimizedRMSD>
1.88446152

$$$$
