
 OpenBabel03252506403D

 46 49  0  0  1  0  0  0  0  0999 V2000
   39.2210   34.1570   40.5290 C   0  0  0  0  0  0  0  0  0  0  0  0
   38.3070   33.3780   39.7820 C   0  0  0  0  0  0  0  0  0  0  0  0
   38.7440   32.2520   39.1740 C   0  0  0  0  0  0  0  0  0  0  0  0
   40.0550   31.9330   39.3210 N   0  0  0  0  0  0  0  0  0  0  0  0
   40.9070   32.6670   40.0230 C   0  0  0  0  0  0  0  0  0  0  0  0
   40.5060   33.7830   40.6330 N   0  0  0  0  0  0  0  0  0  0  0  0
   42.2780   32.2360   40.1100 N   0  0  0  0  0  0  0  0  0  0  0  0
   43.2320   32.7850   41.0010 C   0  0  0  0  0  0  0  0  0  0  0  0
   44.5140   32.7760   40.1880 C   0  0  0  0  0  0  0  0  0  0  0  0
   44.2010   32.0300   38.9260 C   0  0  0  0  0  0  0  0  0  0  0  0
   42.9550   31.2380   39.3220 C   0  0  1  0  0  0  0  0  0  0  0  0
   38.9020   35.0680   41.0290 H   0  0  0  0  0  0  0  0  0  0  0  0
   38.0700   31.6390   38.6000 H   0  0  0  0  0  0  0  0  0  0  0  0
   42.9920   33.8930   41.0820 H   0  0  0  0  0  0  0  0  0  0  0  0
   43.4280   32.4620   41.9710 H   0  0  0  0  0  0  0  0  0  0  0  0
   44.9830   33.7500   40.0630 H   0  0  0  0  0  0  0  0  0  0  0  0
   45.2810   32.1470   40.7260 H   0  0  0  0  0  0  0  0  0  0  0  0
   43.9600   32.7650   38.1400 H   0  0  0  0  0  0  0  0  0  0  0  0
   45.0090   31.3270   38.6280 H   0  0  0  0  0  0  0  0  0  0  0  0
   42.4350   30.9890   38.3830 H   0  0  0  0  0  0  0  0  0  0  0  0
   36.9490   33.8400   39.7150 N   0  0  0  0  0  0  0  0  0  0  0  0
   36.7350   34.8450   39.6860 H   0  0  0  0  0  0  0  0  0  0  0  0
   36.1440   33.1620   39.6950 H   0  0  0  0  0  0  0  0  0  0  0  0
   43.4520   29.8360   40.2970 S   0  0  0  0  0  0  0  0  0  0  0  0
   40.2580   28.9000   40.1240 O   0  0  0  0  0  0  0  0  0  0  0  0
   41.0010   28.8610   41.1190 C   0  0  0  0  0  0  0  0  0  0  0  0
   42.3510   29.3110   41.5460 C   0  0  1  0  0  0  0  0  0  0  0  0
   42.8150   28.1440   42.3790 C   0  0  0  0  0  0  0  0  0  0  0  0
   41.6010   28.0460   43.3040 C   0  0  0  0  0  0  0  0  0  0  0  0
   40.5370   28.2010   42.3110 N   0  0  0  0  0  0  0  0  0  0  0  0
   42.0630   30.0440   42.3480 H   0  0  0  0  0  0  0  0  0  0  0  0
   42.8830   27.2110   41.8010 H   0  0  0  0  0  0  0  0  0  0  0  0
   43.7340   28.3690   42.9570 H   0  0  0  0  0  0  0  0  0  0  0  0
   41.6030   28.8150   44.0750 H   0  0  0  0  0  0  0  0  0  0  0  0
   41.6240   27.0090   43.7070 H   0  0  0  0  0  0  0  0  0  0  0  0
   39.7970   25.4260   41.3220 Cl  0  0  0  0  0  0  0  0  0  0  0  0
   38.7110   26.4760   42.2220 C   0  0  0  0  0  0  0  0  0  0  0  0
   39.2060   27.7110   42.5990 C   0  0  0  0  0  0  0  0  0  0  0  0
   38.4410   28.6090   43.3050 C   0  0  0  0  0  0  0  0  0  0  0  0
   38.7650   29.5940   43.6330 H   0  0  0  0  0  0  0  0  0  0  0  0
   37.1480   28.2700   43.6470 C   0  0  0  0  0  0  0  0  0  0  0  0
   36.5180   28.9540   44.2020 H   0  0  0  0  0  0  0  0  0  0  0  0
   36.6440   27.0350   43.2730 C   0  0  0  0  0  0  0  0  0  0  0  0
   35.6410   26.6960   43.5030 H   0  0  0  0  0  0  0  0  0  0  0  0
   37.4310   26.1370   42.5580 C   0  0  0  0  0  0  0  0  0  0  0  0
   36.8610   24.5550   42.0500 Cl  0  0  0  0  0  0  0  0  0  0  0  0
  1  6  1  0  0  0  0
  1 12  1  0  0  0  0
  2  1  2  0  0  0  0
  3  4  2  0  0  0  0
  3  2  1  0  0  0  0
  4  5  1  0  0  0  0
  5  7  1  0  0  0  0
  5  6  2  0  0  0  0
  7  8  1  0  0  0  0
  8 14  1  0  0  0  0
  8 15  1  0  0  0  0
  9 17  1  0  0  0  0
  9  8  1  0  0  0  0
 10 11  1  0  0  0  0
 10  9  1  0  0  0  0
 11 20  1  6  0  0  0
 11  7  1  0  0  0  0
 11 24  1  0  0  0  0
 13  3  1  0  0  0  0
 16  9  1  0  0  0  0
 18 10  1  0  0  0  0
 19 10  1  0  0  0  0
 21  2  1  0  0  0  0
 22 21  1  0  0  0  0
 23 21  1  0  0  0  0
 24 27  1  0  0  0  0
 25 26  2  0  0  0  0
 26 27  1  0  0  0  0
 26 30  1  0  0  0  0
 27 31  1  1  0  0  0
 27 28  1  0  0  0  0
 28 33  1  0  0  0  0
 28 29  1  0  0  0  0
 29 35  1  0  0  0  0
 29 34  1  0  0  0  0
 30 38  1  0  0  0  0
 30 29  1  0  0  0  0
 32 28  1  0  0  0  0
 36 37  1  0  0  0  0
 37 45  2  0  0  0  0
 37 38  1  0  0  0  0
 38 39  2  0  0  0  0
 39 40  1  0  0  0  0
 39 41  1  0  0  0  0
 41 42  1  0  0  0  0
 43 44  1  0  0  0  0
 43 41  2  0  0  0  0
 45 43  1  0  0  0  0
 46 45  1  0  0  0  0
M  END
>  <minimizedAffinity>
-6.14739752

$$$$

 OpenBabel03252506403D

 46 49  0  0  1  0  0  0  0  0999 V2000
   38.5570   26.4040   36.1800 C   0  0  0  0  0  0  0  0  0  0  0  0
   37.7000   27.5240   36.2920 C   0  0  0  0  0  0  0  0  0  0  0  0
   37.0110   27.7150   37.4400 C   0  0  0  0  0  0  0  0  0  0  0  0
   37.1860   26.8030   38.4290 N   0  0  0  0  0  0  0  0  0  0  0  0
   37.9900   25.7550   38.3180 C   0  0  0  0  0  0  0  0  0  0  0  0
   38.6830   25.5400   37.1990 N   0  0  0  0  0  0  0  0  0  0  0  0
   38.0980   24.8490   39.4320 N   0  0  0  0  0  0  0  0  0  0  0  0
   39.0790   23.8320   39.5420 C   0  0  0  0  0  0  0  0  0  0  0  0
   38.3260   22.6930   40.2050 C   0  0  0  0  0  0  0  0  0  0  0  0
   36.9880   23.2470   40.5920 C   0  0  0  0  0  0  0  0  0  0  0  0
   37.2520   24.7520   40.5940 C   0  0  1  0  0  0  0  0  0  0  0  0
   39.1240   26.2230   35.2700 H   0  0  0  0  0  0  0  0  0  0  0  0
   36.3530   28.5590   37.5530 H   0  0  0  0  0  0  0  0  0  0  0  0
   39.2510   23.4420   38.4890 H   0  0  0  0  0  0  0  0  0  0  0  0
   40.0220   23.9290   39.9710 H   0  0  0  0  0  0  0  0  0  0  0  0
   38.3130   21.7630   39.6410 H   0  0  0  0  0  0  0  0  0  0  0  0
   38.8370   22.4390   41.1790 H   0  0  0  0  0  0  0  0  0  0  0  0
   36.2630   22.9820   39.8030 H   0  0  0  0  0  0  0  0  0  0  0  0
   36.6620   22.9250   41.6040 H   0  0  0  0  0  0  0  0  0  0  0  0
   36.2720   25.2400   40.4680 H   0  0  0  0  0  0  0  0  0  0  0  0
   37.6160   28.4050   35.1610 N   0  0  0  0  0  0  0  0  0  0  0  0
   37.6710   28.0390   34.2010 H   0  0  0  0  0  0  0  0  0  0  0  0
   37.4970   29.4440   35.2870 H   0  0  0  0  0  0  0  0  0  0  0  0
   38.1150   25.1810   42.0900 S   0  0  0  0  0  0  0  0  0  0  0  0
   39.3760   27.8050   40.4680 O   0  0  0  0  0  0  0  0  0  0  0  0
   38.7120   27.8170   41.5190 C   0  0  0  0  0  0  0  0  0  0  0  0
   38.1580   26.8710   42.5220 C   0  0  1  0  0  0  0  0  0  0  0  0
   36.8250   27.5020   42.8340 C   0  0  0  0  0  0  0  0  0  0  0  0
   37.3240   28.9110   43.1540 C   0  0  0  0  0  0  0  0  0  0  0  0
   38.2720   29.0800   42.0520 N   0  0  0  0  0  0  0  0  0  0  0  0
   38.7550   27.1780   43.4240 H   0  0  0  0  0  0  0  0  0  0  0  0
   36.1680   27.5610   41.9540 H   0  0  0  0  0  0  0  0  0  0  0  0
   36.3330   27.0470   43.7170 H   0  0  0  0  0  0  0  0  0  0  0  0
   37.7770   28.9760   44.1420 H   0  0  0  0  0  0  0  0  0  0  0  0
   36.4380   29.5710   43.0240 H   0  0  0  0  0  0  0  0  0  0  0  0
   36.2960   30.6660   40.3780 Cl  0  0  0  0  0  0  0  0  0  0  0  0
   37.8770   31.2600   40.8650 C   0  0  0  0  0  0  0  0  0  0  0  0
   38.6560   30.4090   41.6290 C   0  0  0  0  0  0  0  0  0  0  0  0
   39.9090   30.7730   42.0620 C   0  0  0  0  0  0  0  0  0  0  0  0
   40.5730   30.1570   42.6640 H   0  0  0  0  0  0  0  0  0  0  0  0
   40.4010   32.0190   41.7290 C   0  0  0  0  0  0  0  0  0  0  0  0
   41.3840   32.3380   42.0540 H   0  0  0  0  0  0  0  0  0  0  0  0
   39.6280   32.8760   40.9650 C   0  0  0  0  0  0  0  0  0  0  0  0
   39.9430   33.8690   40.6630 H   0  0  0  0  0  0  0  0  0  0  0  0
   38.3610   32.4930   40.5330 C   0  0  0  0  0  0  0  0  0  0  0  0
   37.3240   33.5270   39.5630 Cl  0  0  0  0  0  0  0  0  0  0  0  0
  1  2  2  0  0  0  0
  1  6  1  0  0  0  0
  2  3  1  0  0  0  0
  3 13  1  0  0  0  0
  3  4  2  0  0  0  0
  5  4  1  0  0  0  0
  5  7  1  0  0  0  0
  6  5  2  0  0  0  0
  7  8  1  0  0  0  0
  7 11  1  0  0  0  0
  8 15  1  0  0  0  0
  8  9  1  0  0  0  0
  9 10  1  0  0  0  0
  9 17  1  0  0  0  0
 10 11  1  0  0  0  0
 10 19  1  0  0  0  0
 11 20  1  6  0  0  0
 11 24  1  0  0  0  0
 12  1  1  0  0  0  0
 14  8  1  0  0  0  0
 16  9  1  0  0  0  0
 18 10  1  0  0  0  0
 21 23  1  0  0  0  0
 21  2  1  0  0  0  0
 22 21  1  0  0  0  0
 24 27  1  0  0  0  0
 25 26  2  0  0  0  0
 26 30  1  0  0  0  0
 26 27  1  0  0  0  0
 27 28  1  0  0  0  0
 27 31  1  1  0  0  0
 28 29  1  0  0  0  0
 28 33  1  0  0  0  0
 29 34  1  0  0  0  0
 30 29  1  0  0  0  0
 32 28  1  0  0  0  0
 35 29  1  0  0  0  0
 36 37  1  0  0  0  0
 37 38  1  0  0  0  0
 38 30  1  0  0  0  0
 38 39  2  0  0  0  0
 39 40  1  0  0  0  0
 41 42  1  0  0  0  0
 41 39  1  0  0  0  0
 43 41  2  0  0  0  0
 44 43  1  0  0  0  0
 45 37  2  0  0  0  0
 45 43  1  0  0  0  0
 46 45  1  0  0  0  0
M  END
>  <minimizedAffinity>
-5.96401453

$$$$

 OpenBabel03252506403D

 46 49  0  0  1  0  0  0  0  0999 V2000
   37.5400   26.8070   42.9190 C   0  0  0  0  0  0  0  0  0  0  0  0
   38.8900   26.5610   42.5760 C   0  0  0  0  0  0  0  0  0  0  0  0
   39.3680   27.0320   41.4030 C   0  0  0  0  0  0  0  0  0  0  0  0
   38.5080   27.7240   40.6130 N   0  0  0  0  0  0  0  0  0  0  0  0
   37.2440   27.9510   40.9390 C   0  0  0  0  0  0  0  0  0  0  0  0
   36.7430   27.4980   42.0890 N   0  0  0  0  0  0  0  0  0  0  0  0
   36.4190   28.6950   40.0230 N   0  0  0  0  0  0  0  0  0  0  0  0
   35.1360   29.2060   40.3390 C   0  0  0  0  0  0  0  0  0  0  0  0
   34.3630   29.0270   39.0450 C   0  0  0  0  0  0  0  0  0  0  0  0
   35.3620   28.5830   38.0200 C   0  0  0  0  0  0  0  0  0  0  0  0
   36.6830   29.0270   38.6460 C   0  0  1  0  0  0  0  0  0  0  0  0
   37.1250   26.4400   43.8540 H   0  0  0  0  0  0  0  0  0  0  0  0
   40.3920   26.8610   41.1160 H   0  0  0  0  0  0  0  0  0  0  0  0
   34.6520   28.4450   41.0300 H   0  0  0  0  0  0  0  0  0  0  0  0
   34.9270   30.1390   40.7480 H   0  0  0  0  0  0  0  0  0  0  0  0
   33.4630   28.4200   39.1300 H   0  0  0  0  0  0  0  0  0  0  0  0
   34.0030   30.0380   38.6940 H   0  0  0  0  0  0  0  0  0  0  0  0
   35.3180   27.4820   37.9490 H   0  0  0  0  0  0  0  0  0  0  0  0
   35.2280   29.0860   37.0380 H   0  0  0  0  0  0  0  0  0  0  0  0
   37.4690   28.4060   38.1860 H   0  0  0  0  0  0  0  0  0  0  0  0
   39.6820   25.8140   43.5120 N   0  0  0  0  0  0  0  0  0  0  0  0
   39.2660   25.0540   44.0670 H   0  0  0  0  0  0  0  0  0  0  0  0
   40.7030   26.0260   43.6520 H   0  0  0  0  0  0  0  0  0  0  0  0
   36.8720   30.7790   38.4030 S   0  0  0  0  0  0  0  0  0  0  0  0
   40.1450   30.6220   39.0120 O   0  0  0  0  0  0  0  0  0  0  0  0
   39.3240   31.4090   39.5110 C   0  0  0  0  0  0  0  0  0  0  0  0
   37.8560   31.6370   39.5610 C   0  0  1  0  0  0  0  0  0  0  0  0
   37.7770   33.1410   39.5010 C   0  0  0  0  0  0  0  0  0  0  0  0
   38.7430   33.4520   40.6460 C   0  0  0  0  0  0  0  0  0  0  0  0
   39.8030   32.4970   40.3230 N   0  0  0  0  0  0  0  0  0  0  0  0
   37.6730   31.4580   40.6560 H   0  0  0  0  0  0  0  0  0  0  0  0
   38.2000   33.5510   38.5730 H   0  0  0  0  0  0  0  0  0  0  0  0
   36.7610   33.5250   39.7260 H   0  0  0  0  0  0  0  0  0  0  0  0
   38.2900   33.2980   41.6240 H   0  0  0  0  0  0  0  0  0  0  0  0
   39.0780   34.4980   40.4680 H   0  0  0  0  0  0  0  0  0  0  0  0
   40.6930   30.9340   42.7700 Cl  0  0  0  0  0  0  0  0  0  0  0  0
   41.7050   32.0890   41.9150 C   0  0  0  0  0  0  0  0  0  0  0  0
   41.1450   32.7170   40.8170 C   0  0  0  0  0  0  0  0  0  0  0  0
   41.8490   33.6380   40.0770 C   0  0  0  0  0  0  0  0  0  0  0  0
   41.4720   34.1680   39.2050 H   0  0  0  0  0  0  0  0  0  0  0  0
   43.1450   33.9440   40.4380 C   0  0  0  0  0  0  0  0  0  0  0  0
   43.7280   34.6650   39.8780 H   0  0  0  0  0  0  0  0  0  0  0  0
   43.7120   33.3200   41.5370 C   0  0  0  0  0  0  0  0  0  0  0  0
   44.7230   33.5060   41.8830 H   0  0  0  0  0  0  0  0  0  0  0  0
   42.9870   32.3900   42.2760 C   0  0  0  0  0  0  0  0  0  0  0  0
   43.6410   31.5590   43.6790 Cl  0  0  0  0  0  0  0  0  0  0  0  0
  1 12  1  0  0  0  0
  2  1  1  0  0  0  0
  2 21  1  0  0  0  0
  3  2  2  0  0  0  0
  4  5  2  0  0  0  0
  4  3  1  0  0  0  0
  5  6  1  0  0  0  0
  6  1  2  0  0  0  0
  7  8  1  0  0  0  0
  7  5  1  0  0  0  0
  8 15  1  0  0  0  0
  8 14  1  0  0  0  0
  9 16  1  0  0  0  0
  9  8  1  0  0  0  0
 10 11  1  0  0  0  0
 10  9  1  0  0  0  0
 11 20  1  6  0  0  0
 11  7  1  0  0  0  0
 13  3  1  0  0  0  0
 17  9  1  0  0  0  0
 18 10  1  0  0  0  0
 19 10  1  0  0  0  0
 21 23  1  0  0  0  0
 21 22  1  0  0  0  0
 24 11  1  0  0  0  0
 24 27  1  0  0  0  0
 25 26  2  0  0  0  0
 26 27  1  0  0  0  0
 26 30  1  0  0  0  0
 27 31  1  1  0  0  0
 28 27  1  0  0  0  0
 28 33  1  0  0  0  0
 28 29  1  0  0  0  0
 29 34  1  0  0  0  0
 30 29  1  0  0  0  0
 30 38  1  0  0  0  0
 32 28  1  0  0  0  0
 35 29  1  0  0  0  0
 37 45  1  0  0  0  0
 37 36  1  0  0  0  0
 38 37  2  0  0  0  0
 39 41  2  0  0  0  0
 39 38  1  0  0  0  0
 40 39  1  0  0  0  0
 41 43  1  0  0  0  0
 42 41  1  0  0  0  0
 43 44  1  0  0  0  0
 43 45  2  0  0  0  0
 45 46  1  0  0  0  0
M  END
>  <minimizedAffinity>
-5.89001799

$$$$

 OpenBabel03252506403D

 46 49  0  0  1  0  0  0  0  0999 V2000
   35.6090   26.8440   36.8860 C   0  0  0  0  0  0  0  0  0  0  0  0
   35.0660   28.0650   37.3500 C   0  0  0  0  0  0  0  0  0  0  0  0
   35.2400   28.4150   38.6440 C   0  0  0  0  0  0  0  0  0  0  0  0
   35.9370   27.5580   39.4320 N   0  0  0  0  0  0  0  0  0  0  0  0
   36.4440   26.4150   38.9920 C   0  0  0  0  0  0  0  0  0  0  0  0
   36.2880   26.0420   37.7210 N   0  0  0  0  0  0  0  0  0  0  0  0
   37.1640   25.5800   39.9180 N   0  0  0  0  0  0  0  0  0  0  0  0
   37.9480   24.4610   39.5410 C   0  0  0  0  0  0  0  0  0  0  0  0
   37.7010   23.4700   40.6640 C   0  0  0  0  0  0  0  0  0  0  0  0
   36.9170   24.2080   41.7060 C   0  0  0  0  0  0  0  0  0  0  0  0
   37.2090   25.6660   41.3550 C   0  0  1  0  0  0  0  0  0  0  0  0
   35.4850   26.5340   35.8520 H   0  0  0  0  0  0  0  0  0  0  0  0
   34.8390   29.3390   39.0230 H   0  0  0  0  0  0  0  0  0  0  0  0
   37.4130   23.9820   38.6590 H   0  0  0  0  0  0  0  0  0  0  0  0
   38.9580   24.4700   39.2940 H   0  0  0  0  0  0  0  0  0  0  0  0
   37.2930   22.5130   40.3470 H   0  0  0  0  0  0  0  0  0  0  0  0
   38.6890   23.2220   41.1520 H   0  0  0  0  0  0  0  0  0  0  0  0
   35.8470   23.9810   41.5600 H   0  0  0  0  0  0  0  0  0  0  0  0
   37.2670   23.9970   42.7400 H   0  0  0  0  0  0  0  0  0  0  0  0
   36.3870   26.2600   41.7870 H   0  0  0  0  0  0  0  0  0  0  0  0
   34.3520   28.8710   36.3990 N   0  0  0  0  0  0  0  0  0  0  0  0
   33.7840   28.4360   35.6600 H   0  0  0  0  0  0  0  0  0  0  0  0
   34.3930   29.9220   36.4370 H   0  0  0  0  0  0  0  0  0  0  0  0
   38.8310   26.0860   41.9520 S   0  0  0  0  0  0  0  0  0  0  0  0
   39.0950   28.6280   39.8130 O   0  0  0  0  0  0  0  0  0  0  0  0
   39.1090   28.6850   41.0540 C   0  0  0  0  0  0  0  0  0  0  0  0
   39.1580   27.7780   42.2310 C   0  0  1  0  0  0  0  0  0  0  0  0
   38.2300   28.4740   43.1930 C   0  0  0  0  0  0  0  0  0  0  0  0
   38.8690   29.8630   43.1410 C   0  0  0  0  0  0  0  0  0  0  0  0
   39.0720   29.9730   41.6960 N   0  0  0  0  0  0  0  0  0  0  0  0
   40.1590   28.0670   42.6540 H   0  0  0  0  0  0  0  0  0  0  0  0
   37.2030   28.5540   42.8080 H   0  0  0  0  0  0  0  0  0  0  0  0
   38.2820   28.0540   44.2170 H   0  0  0  0  0  0  0  0  0  0  0  0
   39.7880   29.9180   43.7220 H   0  0  0  0  0  0  0  0  0  0  0  0
   38.0770   30.5620   43.4880 H   0  0  0  0  0  0  0  0  0  0  0  0
   36.5630   31.3130   40.6310 Cl  0  0  0  0  0  0  0  0  0  0  0  0
   38.1700   32.0210   40.5520 C   0  0  0  0  0  0  0  0  0  0  0  0
   39.2070   31.2770   41.0850 C   0  0  0  0  0  0  0  0  0  0  0  0
   40.5030   31.7370   41.0740 C   0  0  0  0  0  0  0  0  0  0  0  0
   41.3650   31.2060   41.4750 H   0  0  0  0  0  0  0  0  0  0  0  0
   40.7760   32.9710   40.5200 C   0  0  0  0  0  0  0  0  0  0  0  0
   41.7860   33.3630   40.4960 H   0  0  0  0  0  0  0  0  0  0  0  0
   39.7440   33.7220   39.9840 C   0  0  0  0  0  0  0  0  0  0  0  0
   39.8770   34.6980   39.5330 H   0  0  0  0  0  0  0  0  0  0  0  0
   38.4370   33.2430   40.0020 C   0  0  0  0  0  0  0  0  0  0  0  0
   37.0770   34.1390   39.3420 Cl  0  0  0  0  0  0  0  0  0  0  0  0
  1  2  2  0  0  0  0
  1  6  1  0  0  0  0
  2  3  1  0  0  0  0
  3 13  1  0  0  0  0
  3  4  2  0  0  0  0
  5  4  1  0  0  0  0
  5  7  1  0  0  0  0
  6  5  2  0  0  0  0
  7 11  1  0  0  0  0
  8  7  1  0  0  0  0
  8  9  1  0  0  0  0
  9 17  1  0  0  0  0
  9 10  1  0  0  0  0
 10 19  1  0  0  0  0
 11 10  1  0  0  0  0
 11 20  1  1  0  0  0
 11 24  1  0  0  0  0
 12  1  1  0  0  0  0
 14  8  1  0  0  0  0
 15  8  1  0  0  0  0
 16  9  1  0  0  0  0
 18 10  1  0  0  0  0
 21 23  1  0  0  0  0
 21  2  1  0  0  0  0
 22 21  1  0  0  0  0
 24 27  1  0  0  0  0
 25 26  2  0  0  0  0
 26 30  1  0  0  0  0
 26 27  1  0  0  0  0
 27 31  1  1  0  0  0
 27 28  1  0  0  0  0
 28 33  1  0  0  0  0
 29 28  1  0  0  0  0
 29 35  1  0  0  0  0
 29 34  1  0  0  0  0
 30 29  1  0  0  0  0
 32 28  1  0  0  0  0
 37 36  1  0  0  0  0
 37 38  1  0  0  0  0
 38 30  1  0  0  0  0
 39 38  2  0  0  0  0
 39 40  1  0  0  0  0
 41 39  1  0  0  0  0
 42 41  1  0  0  0  0
 43 45  1  0  0  0  0
 43 41  2  0  0  0  0
 44 43  1  0  0  0  0
 45 37  2  0  0  0  0
 46 45  1  0  0  0  0
M  END
>  <minimizedAffinity>
-5.81032991

$$$$

 OpenBabel03252506403D

 46 49  0  0  1  0  0  0  0  0999 V2000
   39.5010   32.3020   38.4510 C   0  0  0  0  0  0  0  0  0  0  0  0
   38.8450   32.9150   39.5450 C   0  0  0  0  0  0  0  0  0  0  0  0
   37.6270   32.4660   39.9200 C   0  0  0  0  0  0  0  0  0  0  0  0
   37.0980   31.4360   39.2110 N   0  0  0  0  0  0  0  0  0  0  0  0
   37.7160   30.8650   38.1870 C   0  0  0  0  0  0  0  0  0  0  0  0
   38.9190   31.2870   37.7930 N   0  0  0  0  0  0  0  0  0  0  0  0
   37.0600   29.7800   37.5050 N   0  0  0  0  0  0  0  0  0  0  0  0
   37.6900   28.9350   36.5580 C   0  0  0  0  0  0  0  0  0  0  0  0
   36.5970   28.6820   35.5360 C   0  0  0  0  0  0  0  0  0  0  0  0
   35.3460   29.2780   36.1080 C   0  0  0  0  0  0  0  0  0  0  0  0
   35.6840   29.3660   37.5950 C   0  0  1  0  0  0  0  0  0  0  0  0
   40.4800   32.6400   38.1250 H   0  0  0  0  0  0  0  0  0  0  0  0
   37.1060   32.9130   40.7480 H   0  0  0  0  0  0  0  0  0  0  0  0
   38.4230   29.5900   35.9860 H   0  0  0  0  0  0  0  0  0  0  0  0
   38.1950   28.0490   36.7610 H   0  0  0  0  0  0  0  0  0  0  0  0
   36.8450   28.9770   34.5180 H   0  0  0  0  0  0  0  0  0  0  0  0
   36.4010   27.5720   35.4810 H   0  0  0  0  0  0  0  0  0  0  0  0
   35.2170   30.2870   35.6790 H   0  0  0  0  0  0  0  0  0  0  0  0
   34.4540   28.6300   35.9660 H   0  0  0  0  0  0  0  0  0  0  0  0
   35.0180   30.1360   38.0190 H   0  0  0  0  0  0  0  0  0  0  0  0
   39.5290   33.9950   40.1990 N   0  0  0  0  0  0  0  0  0  0  0  0
   40.1140   34.6510   39.6650 H   0  0  0  0  0  0  0  0  0  0  0  0
   39.4470   34.1400   41.2390 H   0  0  0  0  0  0  0  0  0  0  0  0
   35.5150   27.7500   38.3190 S   0  0  0  0  0  0  0  0  0  0  0  0
   38.6740   27.3000   39.2820 O   0  0  0  0  0  0  0  0  0  0  0  0
   37.6780   27.4470   40.0110 C   0  0  0  0  0  0  0  0  0  0  0  0
   36.1970   27.5190   39.9080 C   0  0  1  0  0  0  0  0  0  0  0  0
   35.8720   28.5870   40.9220 C   0  0  0  0  0  0  0  0  0  0  0  0
   36.6310   27.9940   42.1100 C   0  0  0  0  0  0  0  0  0  0  0  0
   37.8680   27.6110   41.4290 N   0  0  0  0  0  0  0  0  0  0  0  0
   35.9200   26.5920   40.4800 H   0  0  0  0  0  0  0  0  0  0  0  0
   36.3240   29.5580   40.6740 H   0  0  0  0  0  0  0  0  0  0  0  0
   34.7870   28.6530   41.1390 H   0  0  0  0  0  0  0  0  0  0  0  0
   36.0990   27.1600   42.5660 H   0  0  0  0  0  0  0  0  0  0  0  0
   36.8020   28.8470   42.8020 H   0  0  0  0  0  0  0  0  0  0  0  0
   39.7680   29.9730   41.6150 Cl  0  0  0  0  0  0  0  0  0  0  0  0
   40.0550   28.4130   42.3740 C   0  0  0  0  0  0  0  0  0  0  0  0
   39.0870   27.4420   42.1900 C   0  0  0  0  0  0  0  0  0  0  0  0
   39.2110   26.1870   42.7390 C   0  0  0  0  0  0  0  0  0  0  0  0
   38.4910   25.3780   42.6360 H   0  0  0  0  0  0  0  0  0  0  0  0
   40.3280   25.8890   43.4920 C   0  0  0  0  0  0  0  0  0  0  0  0
   40.4580   24.9110   43.9390 H   0  0  0  0  0  0  0  0  0  0  0  0
   41.3030   26.8550   43.6800 C   0  0  0  0  0  0  0  0  0  0  0  0
   42.2070   26.6980   44.2570 H   0  0  0  0  0  0  0  0  0  0  0  0
   41.1620   28.1210   43.1170 C   0  0  0  0  0  0  0  0  0  0  0  0
   42.3550   29.3950   43.3130 Cl  0  0  0  0  0  0  0  0  0  0  0  0
  1  2  1  0  0  0  0
  2  3  2  0  0  0  0
  2 21  1  0  0  0  0
  3 13  1  0  0  0  0
  4  3  1  0  0  0  0
  5  4  2  0  0  0  0
  6  5  1  0  0  0  0
  6  1  2  0  0  0  0
  7 11  1  0  0  0  0
  7  5  1  0  0  0  0
  8 15  1  0  0  0  0
  8  7  1  0  0  0  0
  9 10  1  0  0  0  0
  9  8  1  0  0  0  0
 10 11  1  0  0  0  0
 11 20  1  1  0  0  0
 11 24  1  0  0  0  0
 12  1  1  0  0  0  0
 14  8  1  0  0  0  0
 16  9  1  0  0  0  0
 17  9  1  0  0  0  0
 18 10  1  0  0  0  0
 19 10  1  0  0  0  0
 21 23  1  0  0  0  0
 22 21  1  0  0  0  0
 24 27  1  0  0  0  0
 25 26  2  0  0  0  0
 26 30  1  0  0  0  0
 27 26  1  0  0  0  0
 27 31  1  1  0  0  0
 27 28  1  0  0  0  0
 28 33  1  0  0  0  0
 28 29  1  0  0  0  0
 29 34  1  0  0  0  0
 29 35  1  0  0  0  0
 30 29  1  0  0  0  0
 30 38  1  0  0  0  0
 32 28  1  0  0  0  0
 36 37  1  0  0  0  0
 37 45  1  0  0  0  0
 38 37  2  0  0  0  0
 38 39  1  0  0  0  0
 39 41  2  0  0  0  0
 40 39  1  0  0  0  0
 41 43  1  0  0  0  0
 41 42  1  0  0  0  0
 43 44  1  0  0  0  0
 45 46  1  0  0  0  0
 45 43  2  0  0  0  0
M  END
>  <minimizedAffinity>
-5.76071787

$$$$

 OpenBabel03252506403D

 46 49  0  0  1  0  0  0  0  0999 V2000
   37.7280   31.9470   38.4210 C   0  0  0  0  0  0  0  0  0  0  0  0
   37.2040   32.3670   39.6660 C   0  0  0  0  0  0  0  0  0  0  0  0
   36.5370   31.4780   40.4350 C   0  0  0  0  0  0  0  0  0  0  0  0
   36.4090   30.2140   39.9560 N   0  0  0  0  0  0  0  0  0  0  0  0
   36.9020   29.8260   38.7890 C   0  0  0  0  0  0  0  0  0  0  0  0
   37.5630   30.6800   38.0080 N   0  0  0  0  0  0  0  0  0  0  0  0
   36.7040   28.4600   38.3790 N   0  0  0  0  0  0  0  0  0  0  0  0
   37.3640   27.8520   37.2820 C   0  0  0  0  0  0  0  0  0  0  0  0
   36.2980   26.9470   36.6930 C   0  0  0  0  0  0  0  0  0  0  0  0
   35.1450   26.9850   37.6490 C   0  0  0  0  0  0  0  0  0  0  0  0
   35.8080   27.4780   38.9330 C   0  0  1  0  0  0  0  0  0  0  0  0
   38.2680   32.6380   37.7800 H   0  0  0  0  0  0  0  0  0  0  0  0
   36.1290   31.7700   41.3870 H   0  0  0  0  0  0  0  0  0  0  0  0
   37.4750   28.6610   36.4910 H   0  0  0  0  0  0  0  0  0  0  0  0
   38.2760   27.3520   37.3110 H   0  0  0  0  0  0  0  0  0  0  0  0
   36.0610   27.1390   35.6490 H   0  0  0  0  0  0  0  0  0  0  0  0
   36.6720   25.8820   36.7180 H   0  0  0  0  0  0  0  0  0  0  0  0
   34.4140   27.7260   37.2800 H   0  0  0  0  0  0  0  0  0  0  0  0
   34.6940   25.9830   37.8230 H   0  0  0  0  0  0  0  0  0  0  0  0
   35.0040   27.9120   39.5500 H   0  0  0  0  0  0  0  0  0  0  0  0
   37.4180   33.7370   40.0410 N   0  0  0  0  0  0  0  0  0  0  0  0
   37.4180   34.4840   39.3350 H   0  0  0  0  0  0  0  0  0  0  0  0
   37.5800   34.0070   41.0460 H   0  0  0  0  0  0  0  0  0  0  0  0
   36.6800   26.1220   39.6860 S   0  0  0  0  0  0  0  0  0  0  0  0
   39.7200   27.4690   39.9180 O   0  0  0  0  0  0  0  0  0  0  0  0
   38.9470   27.1910   40.8500 C   0  0  0  0  0  0  0  0  0  0  0  0
   37.6580   26.4890   41.0840 C   0  0  1  0  0  0  0  0  0  0  0  0
   37.0120   27.3720   42.1210 C   0  0  0  0  0  0  0  0  0  0  0  0
   38.1710   27.4140   43.1190 C   0  0  0  0  0  0  0  0  0  0  0  0
   39.2770   27.6210   42.1840 N   0  0  0  0  0  0  0  0  0  0  0  0
   38.0170   25.6380   41.7240 H   0  0  0  0  0  0  0  0  0  0  0  0
   36.8350   28.3940   41.7560 H   0  0  0  0  0  0  0  0  0  0  0  0
   36.1140   26.9090   42.5780 H   0  0  0  0  0  0  0  0  0  0  0  0
   38.2480   26.4980   43.7020 H   0  0  0  0  0  0  0  0  0  0  0  0
   37.9920   28.3230   43.7350 H   0  0  0  0  0  0  0  0  0  0  0  0
   39.6610   30.6170   41.8690 Cl  0  0  0  0  0  0  0  0  0  0  0  0
   40.8510   29.5390   42.5840 C   0  0  0  0  0  0  0  0  0  0  0  0
   40.5180   28.1980   42.6530 C   0  0  0  0  0  0  0  0  0  0  0  0
   41.3760   27.2690   43.1920 C   0  0  0  0  0  0  0  0  0  0  0  0
   41.1800   26.2020   43.2770 H   0  0  0  0  0  0  0  0  0  0  0  0
   42.5990   27.6840   43.6790 C   0  0  0  0  0  0  0  0  0  0  0  0
   43.2980   26.9780   44.1110 H   0  0  0  0  0  0  0  0  0  0  0  0
   42.9400   29.0240   43.6140 C   0  0  0  0  0  0  0  0  0  0  0  0
   43.8790   29.4270   43.9750 H   0  0  0  0  0  0  0  0  0  0  0  0
   42.0610   29.9530   43.0650 C   0  0  0  0  0  0  0  0  0  0  0  0
   42.4240   31.6680   42.9500 Cl  0  0  0  0  0  0  0  0  0  0  0  0
  1  2  1  0  0  0  0
  2 21  1  0  0  0  0
  2  3  2  0  0  0  0
  3 13  1  0  0  0  0
  4  3  1  0  0  0  0
  5  4  2  0  0  0  0
  6  1  2  0  0  0  0
  6  5  1  0  0  0  0
  7  5  1  0  0  0  0
  7 11  1  0  0  0  0
  8 15  1  0  0  0  0
  8  7  1  0  0  0  0
  9 17  1  0  0  0  0
  9  8  1  0  0  0  0
  9 10  1  0  0  0  0
 10 19  1  0  0  0  0
 10 11  1  0  0  0  0
 11 20  1  1  0  0  0
 11 24  1  0  0  0  0
 12  1  1  0  0  0  0
 14  8  1  0  0  0  0
 16  9  1  0  0  0  0
 18 10  1  0  0  0  0
 21 23  1  0  0  0  0
 22 21  1  0  0  0  0
 24 27  1  0  0  0  0
 25 26  2  0  0  0  0
 26 27  1  0  0  0  0
 26 30  1  0  0  0  0
 27 31  1  1  0  0  0
 27 28  1  0  0  0  0
 28 33  1  0  0  0  0
 28 29  1  0  0  0  0
 29 34  1  0  0  0  0
 29 35  1  0  0  0  0
 30 38  1  0  0  0  0
 30 29  1  0  0  0  0
 32 28  1  0  0  0  0
 36 37  1  0  0  0  0
 37 38  2  0  0  0  0
 37 45  1  0  0  0  0
 38 39  1  0  0  0  0
 39 40  1  0  0  0  0
 39 41  2  0  0  0  0
 41 42  1  0  0  0  0
 43 41  1  0  0  0  0
 43 44  1  0  0  0  0
 45 43  2  0  0  0  0
 46 45  1  0  0  0  0
M  END
>  <minimizedAffinity>
-5.68613768

$$$$

 OpenBabel03252506403D

 46 49  0  0  1  0  0  0  0  0999 V2000
   39.0300   32.0770   39.0810 C   0  0  0  0  0  0  0  0  0  0  0  0
   39.6720   31.4610   37.9820 C   0  0  0  0  0  0  0  0  0  0  0  0
   39.8610   30.1220   37.9950 C   0  0  0  0  0  0  0  0  0  0  0  0
   39.4150   29.4410   39.0810 N   0  0  0  0  0  0  0  0  0  0  0  0
   38.8140   30.0240   40.1080 C   0  0  0  0  0  0  0  0  0  0  0  0
   38.6140   31.3420   40.1250 N   0  0  0  0  0  0  0  0  0  0  0  0
   38.3830   29.2040   41.2100 N   0  0  0  0  0  0  0  0  0  0  0  0
   37.5330   29.6490   42.2520 C   0  0  0  0  0  0  0  0  0  0  0  0
   38.0870   28.9440   43.4770 C   0  0  0  0  0  0  0  0  0  0  0  0
   39.1240   27.9870   42.9740 C   0  0  0  0  0  0  0  0  0  0  0  0
   38.7380   27.8390   41.5030 C   0  0  1  0  0  0  0  0  0  0  0  0
   38.8640   33.1510   39.1020 H   0  0  0  0  0  0  0  0  0  0  0  0
   40.3460   29.6270   37.1720 H   0  0  0  0  0  0  0  0  0  0  0  0
   37.8050   30.7360   42.4420 H   0  0  0  0  0  0  0  0  0  0  0  0
   36.4940   29.6070   42.2610 H   0  0  0  0  0  0  0  0  0  0  0  0
   38.3970   29.6050   44.2840 H   0  0  0  0  0  0  0  0  0  0  0  0
   37.2750   28.2980   43.9230 H   0  0  0  0  0  0  0  0  0  0  0  0
   40.1130   28.4680   43.0680 H   0  0  0  0  0  0  0  0  0  0  0  0
   39.0760   26.9950   43.4730 H   0  0  0  0  0  0  0  0  0  0  0  0
   39.6430   27.4950   40.9770 H   0  0  0  0  0  0  0  0  0  0  0  0
   40.0900   32.3110   36.9030 N   0  0  0  0  0  0  0  0  0  0  0  0
   40.4330   33.2640   37.0830 H   0  0  0  0  0  0  0  0  0  0  0  0
   40.0550   31.9790   35.9040 H   0  0  0  0  0  0  0  0  0  0  0  0
   37.3420   26.7420   41.3850 S   0  0  0  0  0  0  0  0  0  0  0  0
   35.4300   28.8110   39.6040 O   0  0  0  0  0  0  0  0  0  0  0  0
   35.8940   27.7170   39.2420 C   0  0  0  0  0  0  0  0  0  0  0  0
   36.6190   26.5490   39.8080 C   0  0  1  0  0  0  0  0  0  0  0  0
   37.5700   26.2070   38.6890 C   0  0  0  0  0  0  0  0  0  0  0  0
   36.5460   26.1270   37.5550 C   0  0  0  0  0  0  0  0  0  0  0  0
   35.7600   27.3220   37.8640 N   0  0  0  0  0  0  0  0  0  0  0  0
   35.8360   25.7540   39.6720 H   0  0  0  0  0  0  0  0  0  0  0  0
   38.2700   27.0250   38.4640 H   0  0  0  0  0  0  0  0  0  0  0  0
   38.0710   25.2300   38.8380 H   0  0  0  0  0  0  0  0  0  0  0  0
   35.9740   25.2010   37.5790 H   0  0  0  0  0  0  0  0  0  0  0  0
   37.1340   26.2650   36.6210 H   0  0  0  0  0  0  0  0  0  0  0  0
   37.1490   29.3080   36.0330 Cl  0  0  0  0  0  0  0  0  0  0  0  0
   35.4490   28.8770   35.9150 C   0  0  0  0  0  0  0  0  0  0  0  0
   34.9730   27.9540   36.8280 C   0  0  0  0  0  0  0  0  0  0  0  0
   33.6590   27.5480   36.8250 C   0  0  0  0  0  0  0  0  0  0  0  0
   33.2190   26.8290   37.5110 H   0  0  0  0  0  0  0  0  0  0  0  0
   32.7940   28.0740   35.8860 C   0  0  0  0  0  0  0  0  0  0  0  0
   31.7530   27.7760   35.8550 H   0  0  0  0  0  0  0  0  0  0  0  0
   33.2630   28.9990   34.9690 C   0  0  0  0  0  0  0  0  0  0  0  0
   32.6470   29.4560   34.2030 H   0  0  0  0  0  0  0  0  0  0  0  0
   34.5960   29.4000   34.9850 C   0  0  0  0  0  0  0  0  0  0  0  0
   35.2610   30.5680   33.8530 Cl  0  0  0  0  0  0  0  0  0  0  0  0
  1 12  1  0  0  0  0
  1  6  1  0  0  0  0
  2  3  1  0  0  0  0
  2  1  2  0  0  0  0
  3  4  2  0  0  0  0
  4  5  1  0  0  0  0
  5  6  2  0  0  0  0
  5  7  1  0  0  0  0
  7 11  1  0  0  0  0
  7  8  1  0  0  0  0
  8 15  1  0  0  0  0
  8 14  1  0  0  0  0
  8  9  1  0  0  0  0
  9 17  1  0  0  0  0
  9 16  1  0  0  0  0
 10 18  1  0  0  0  0
 10 19  1  0  0  0  0
 10  9  1  0  0  0  0
 11 20  1  6  0  0  0
 11 10  1  0  0  0  0
 13  3  1  0  0  0  0
 21 22  1  0  0  0  0
 21  2  1  0  0  0  0
 23 21  1  0  0  0  0
 24 11  1  0  0  0  0
 26 25  2  0  0  0  0
 26 27  1  0  0  0  0
 27 31  1  1  0  0  0
 27 24  1  0  0  0  0
 28 33  1  0  0  0  0
 28 27  1  0  0  0  0
 29 34  1  0  0  0  0
 29 30  1  0  0  0  0
 29 28  1  0  0  0  0
 30 26  1  0  0  0  0
 32 28  1  0  0  0  0
 35 29  1  0  0  0  0
 37 36  1  0  0  0  0
 37 38  1  0  0  0  0
 38 30  1  0  0  0  0
 39 38  2  0  0  0  0
 39 40  1  0  0  0  0
 41 39  1  0  0  0  0
 42 41  1  0  0  0  0
 43 45  1  0  0  0  0
 43 41  2  0  0  0  0
 44 43  1  0  0  0  0
 45 37  2  0  0  0  0
 46 45  1  0  0  0  0
M  END
>  <minimizedAffinity>
-5.62085342

$$$$

 OpenBabel03252506403D

 46 49  0  0  1  0  0  0  0  0999 V2000
   38.4870   26.3120   36.9430 C   0  0  0  0  0  0  0  0  0  0  0  0
   37.2740   26.8990   36.5150 C   0  0  0  0  0  0  0  0  0  0  0  0
   36.3090   27.1590   37.4260 C   0  0  0  0  0  0  0  0  0  0  0  0
   36.5690   26.8340   38.7180 N   0  0  0  0  0  0  0  0  0  0  0  0
   37.7080   26.2840   39.1140 C   0  0  0  0  0  0  0  0  0  0  0  0
   38.6780   26.0150   38.2380 N   0  0  0  0  0  0  0  0  0  0  0  0
   37.8760   25.9780   40.5100 N   0  0  0  0  0  0  0  0  0  0  0  0
   39.1080   25.6100   41.1040 C   0  0  0  0  0  0  0  0  0  0  0  0
   38.7010   24.5730   42.1360 C   0  0  0  0  0  0  0  0  0  0  0  0
   37.2030   24.5780   42.1620 C   0  0  0  0  0  0  0  0  0  0  0  0
   36.8750   25.9370   41.5450 C   0  0  1  0  0  0  0  0  0  0  0  0
   39.2810   26.0900   36.2360 H   0  0  0  0  0  0  0  0  0  0  0  0
   35.3760   27.6060   37.1280 H   0  0  0  0  0  0  0  0  0  0  0  0
   39.6620   24.9900   40.3290 H   0  0  0  0  0  0  0  0  0  0  0  0
   39.8140   26.2560   41.5130 H   0  0  0  0  0  0  0  0  0  0  0  0
   39.1740   23.6000   42.0180 H   0  0  0  0  0  0  0  0  0  0  0  0
   39.0200   24.9330   43.1570 H   0  0  0  0  0  0  0  0  0  0  0  0
   36.8430   23.7610   41.5130 H   0  0  0  0  0  0  0  0  0  0  0  0
   36.7880   24.5270   43.1920 H   0  0  0  0  0  0  0  0  0  0  0  0
   35.8450   25.8630   41.1610 H   0  0  0  0  0  0  0  0  0  0  0  0
   37.1410   27.1880   35.1150 N   0  0  0  0  0  0  0  0  0  0  0  0
   37.5580   26.5700   34.4060 H   0  0  0  0  0  0  0  0  0  0  0  0
   36.6150   28.0380   34.7820 H   0  0  0  0  0  0  0  0  0  0  0  0
   37.1270   27.2000   42.7730 S   0  0  0  0  0  0  0  0  0  0  0  0
   39.6250   28.9830   41.4740 O   0  0  0  0  0  0  0  0  0  0  0  0
   38.4350   29.3240   41.5840 C   0  0  0  0  0  0  0  0  0  0  0  0
   37.1730   28.8520   42.2110 C   0  0  1  0  0  0  0  0  0  0  0  0
   36.1550   29.2150   41.1610 C   0  0  0  0  0  0  0  0  0  0  0  0
   36.5400   30.6840   40.9870 C   0  0  0  0  0  0  0  0  0  0  0  0
   37.9960   30.5420   40.9560 N   0  0  0  0  0  0  0  0  0  0  0  0
   37.0110   29.6760   42.9580 H   0  0  0  0  0  0  0  0  0  0  0  0
   36.3290   28.6980   40.2060 H   0  0  0  0  0  0  0  0  0  0  0  0
   35.1120   29.1200   41.5260 H   0  0  0  0  0  0  0  0  0  0  0  0
   36.1730   31.3080   41.8010 H   0  0  0  0  0  0  0  0  0  0  0  0
   36.1450   30.9740   39.9890 H   0  0  0  0  0  0  0  0  0  0  0  0
   39.2190   29.9510   38.2390 Cl  0  0  0  0  0  0  0  0  0  0  0  0
   39.4340   31.4620   39.1110 C   0  0  0  0  0  0  0  0  0  0  0  0
   38.8070   31.5700   40.3390 C   0  0  0  0  0  0  0  0  0  0  0  0
   38.9110   32.7080   41.1040 C   0  0  0  0  0  0  0  0  0  0  0  0
   38.4460   32.8600   42.0760 H   0  0  0  0  0  0  0  0  0  0  0  0
   39.6560   33.7690   40.6350 C   0  0  0  0  0  0  0  0  0  0  0  0
   39.7590   34.6810   41.2110 H   0  0  0  0  0  0  0  0  0  0  0  0
   40.2880   33.6700   39.4060 C   0  0  0  0  0  0  0  0  0  0  0  0
   40.8890   34.4590   38.9700 H   0  0  0  0  0  0  0  0  0  0  0  0
   40.1740   32.5110   38.6430 C   0  0  0  0  0  0  0  0  0  0  0  0
   40.9450   32.3130   37.0770 Cl  0  0  0  0  0  0  0  0  0  0  0  0
  1  6  1  0  0  0  0
  2  1  2  0  0  0  0
  2  3  1  0  0  0  0
  3  4  2  0  0  0  0
  4  5  1  0  0  0  0
  5  7  1  0  0  0  0
  6  5  2  0  0  0  0
  7  8  1  0  0  0  0
  7 11  1  0  0  0  0
  8 15  1  0  0  0  0
  8  9  1  0  0  0  0
  9 10  1  0  0  0  0
  9 17  1  0  0  0  0
 10 19  1  0  0  0  0
 11 20  1  6  0  0  0
 11 10  1  0  0  0  0
 11 24  1  0  0  0  0
 12  1  1  0  0  0  0
 13  3  1  0  0  0  0
 14  8  1  0  0  0  0
 16  9  1  0  0  0  0
 18 10  1  0  0  0  0
 21  2  1  0  0  0  0
 22 21  1  0  0  0  0
 23 21  1  0  0  0  0
 25 26  2  0  0  0  0
 26 27  1  0  0  0  0
 27 24  1  0  0  0  0
 27 31  1  1  0  0  0
 28 33  1  0  0  0  0
 28 27  1  0  0  0  0
 29 28  1  0  0  0  0
 29 34  1  0  0  0  0
 30 29  1  0  0  0  0
 30 26  1  0  0  0  0
 32 28  1  0  0  0  0
 35 29  1  0  0  0  0
 36 37  1  0  0  0  0
 37 38  1  0  0  0  0
 38 30  1  0  0  0  0
 38 39  2  0  0  0  0
 39 40  1  0  0  0  0
 41 39  1  0  0  0  0
 41 42  1  0  0  0  0
 43 41  2  0  0  0  0
 44 43  1  0  0  0  0
 45 37  2  0  0  0  0
 45 43  1  0  0  0  0
 46 45  1  0  0  0  0
M  END
>  <minimizedAffinity>
-5.61431456

$$$$

 OpenBabel03252506403D

 46 49  0  0  1  0  0  0  0  0999 V2000
   39.1020   26.5260   43.3600 C   0  0  0  0  0  0  0  0  0  0  0  0
   39.6500   25.5480   42.4980 C   0  0  0  0  0  0  0  0  0  0  0  0
   39.5980   25.7440   41.1610 C   0  0  0  0  0  0  0  0  0  0  0  0
   39.0110   26.8870   40.7220 N   0  0  0  0  0  0  0  0  0  0  0  0
   38.4990   27.8000   41.5360 C   0  0  0  0  0  0  0  0  0  0  0  0
   38.5360   27.6340   42.8580 N   0  0  0  0  0  0  0  0  0  0  0  0
   37.8980   28.9740   40.9600 N   0  0  0  0  0  0  0  0  0  0  0  0
   37.5250   30.1240   41.6990 C   0  0  0  0  0  0  0  0  0  0  0  0
   36.2440   30.5740   41.0200 C   0  0  0  0  0  0  0  0  0  0  0  0
   36.0960   29.7160   39.8000 C   0  0  0  0  0  0  0  0  0  0  0  0
   37.5220   29.2090   39.5890 C   0  0  1  0  0  0  0  0  0  0  0  0
   39.1280   26.3980   44.4390 H   0  0  0  0  0  0  0  0  0  0  0  0
   40.0080   25.0170   40.4820 H   0  0  0  0  0  0  0  0  0  0  0  0
   37.1580   29.7490   42.7070 H   0  0  0  0  0  0  0  0  0  0  0  0
   38.1260   30.9490   41.9010 H   0  0  0  0  0  0  0  0  0  0  0  0
   35.3760   30.6300   41.6730 H   0  0  0  0  0  0  0  0  0  0  0  0
   36.3880   31.6240   40.6320 H   0  0  0  0  0  0  0  0  0  0  0  0
   35.4190   28.8800   40.0450 H   0  0  0  0  0  0  0  0  0  0  0  0
   35.7690   30.2900   38.9050 H   0  0  0  0  0  0  0  0  0  0  0  0
   37.4380   28.2870   38.9910 H   0  0  0  0  0  0  0  0  0  0  0  0
   40.2400   24.3890   43.1070 N   0  0  0  0  0  0  0  0  0  0  0  0
   39.8450   23.9870   43.9680 H   0  0  0  0  0  0  0  0  0  0  0  0
   41.0870   23.9250   42.6880 H   0  0  0  0  0  0  0  0  0  0  0  0
   38.4860   30.5030   38.8410 S   0  0  0  0  0  0  0  0  0  0  0  0
   40.7970   32.1780   37.1200 O   0  0  0  0  0  0  0  0  0  0  0  0
   40.9770   31.2050   37.8720 C   0  0  0  0  0  0  0  0  0  0  0  0
   40.1920   30.1970   38.6300 C   0  0  1  0  0  0  0  0  0  0  0  0
   40.9960   30.0730   39.8990 C   0  0  0  0  0  0  0  0  0  0  0  0
   42.3620   29.8090   39.2620 C   0  0  0  0  0  0  0  0  0  0  0  0
   42.3230   30.8170   38.2010 N   0  0  0  0  0  0  0  0  0  0  0  0
   40.5050   29.2640   38.0880 H   0  0  0  0  0  0  0  0  0  0  0  0
   41.0540   31.0180   40.4580 H   0  0  0  0  0  0  0  0  0  0  0  0
   40.6790   29.2130   40.5230 H   0  0  0  0  0  0  0  0  0  0  0  0
   42.4590   28.7870   38.8990 H   0  0  0  0  0  0  0  0  0  0  0  0
   43.1050   30.0790   40.0440 H   0  0  0  0  0  0  0  0  0  0  0  0
   43.2450   29.5680   35.5910 Cl  0  0  0  0  0  0  0  0  0  0  0  0
   44.1160   30.8370   36.4400 C   0  0  0  0  0  0  0  0  0  0  0  0
   43.5580   31.2970   37.6190 C   0  0  0  0  0  0  0  0  0  0  0  0
   44.1570   32.2860   38.3630 C   0  0  0  0  0  0  0  0  0  0  0  0
   43.7750   32.6940   39.2960 H   0  0  0  0  0  0  0  0  0  0  0  0
   45.3430   32.8350   37.9210 C   0  0  0  0  0  0  0  0  0  0  0  0
   45.8420   33.6160   38.4820 H   0  0  0  0  0  0  0  0  0  0  0  0
   45.9090   32.3800   36.7420 C   0  0  0  0  0  0  0  0  0  0  0  0
   46.8370   32.7610   36.3300 H   0  0  0  0  0  0  0  0  0  0  0  0
   45.2910   31.3780   36.0010 C   0  0  0  0  0  0  0  0  0  0  0  0
   45.9490   30.7520   34.4970 Cl  0  0  0  0  0  0  0  0  0  0  0  0
  1 12  1  0  0  0  0
  2 21  1  0  0  0  0
  2  1  2  0  0  0  0
  3  2  1  0  0  0  0
  4  3  2  0  0  0  0
  4  5  1  0  0  0  0
  5  6  2  0  0  0  0
  6  1  1  0  0  0  0
  7  5  1  0  0  0  0
  7  8  1  0  0  0  0
  8 15  1  0  0  0  0
  8 14  1  0  0  0  0
  9 16  1  0  0  0  0
  9  8  1  0  0  0  0
 10 18  1  0  0  0  0
 10  9  1  0  0  0  0
 11 20  1  6  0  0  0
 11 10  1  0  0  0  0
 11  7  1  0  0  0  0
 13  3  1  0  0  0  0
 17  9  1  0  0  0  0
 19 10  1  0  0  0  0
 21 22  1  0  0  0  0
 23 21  1  0  0  0  0
 24 11  1  0  0  0  0
 25 26  2  0  0  0  0
 26 30  1  0  0  0  0
 26 27  1  0  0  0  0
 27 31  1  6  0  0  0
 27 24  1  0  0  0  0
 27 28  1  0  0  0  0
 28 32  1  0  0  0  0
 28 33  1  0  0  0  0
 29 28  1  0  0  0  0
 29 35  1  0  0  0  0
 30 29  1  0  0  0  0
 34 29  1  0  0  0  0
 36 37  1  0  0  0  0
 37 38  1  0  0  0  0
 38 30  1  0  0  0  0
 38 39  2  0  0  0  0
 39 40  1  0  0  0  0
 41 39  1  0  0  0  0
 41 42  1  0  0  0  0
 43 41  2  0  0  0  0
 44 43  1  0  0  0  0
 45 37  2  0  0  0  0
 45 43  1  0  0  0  0
 46 45  1  0  0  0  0
M  END
>  <minimizedAffinity>
-5.58960199

$$$$
