
 OpenBabel03252506533D

 33 36  0  0  0  0  0  0  0  0999 V2000
   37.7570   29.0490   39.9120 C   0  0  0  0  0  0  0  0  0  0  0  0
   38.4130   29.3730   41.0940 C   0  0  0  0  0  0  0  0  0  0  0  0
   38.6040   30.6890   41.5150 C   0  0  0  0  0  0  0  0  0  0  0  0
   38.1220   31.7300   40.7250 C   0  0  0  0  0  0  0  0  0  0  0  0
   38.1240   33.0930   40.8140 N   0  0  0  0  0  0  0  0  0  0  0  0
   37.4900   33.5950   39.7220 C   0  0  0  0  0  0  0  0  0  0  0  0
   37.1010   32.5260   38.9650 N   0  0  0  0  0  0  0  0  0  0  0  0
   37.4780   31.3870   39.5630 C   0  0  0  0  0  0  0  0  0  0  0  0
   37.2770   30.1040   39.1270 C   0  0  0  0  0  0  0  0  0  0  0  0
   37.6400   28.0120   39.6400 H   0  0  0  0  0  0  0  0  0  0  0  0
   39.1160   30.9290   42.4360 H   0  0  0  0  0  0  0  0  0  0  0  0
   38.5490   33.6320   41.6010 H   0  0  0  0  0  0  0  0  0  0  0  0
   37.3330   34.6300   39.5070 H   0  0  0  0  0  0  0  0  0  0  0  0
   34.4860   29.2630   39.5840 Cl  0  0  0  0  0  0  0  0  0  0  0  0
   35.2690   29.3500   38.0000 C   0  0  0  0  0  0  0  0  0  0  0  0
   36.5880   29.7580   37.8860 C   0  0  0  0  0  0  0  0  0  0  0  0
   37.1830   29.8210   36.6430 C   0  0  0  0  0  0  0  0  0  0  0  0
   38.2120   30.1400   36.5640 H   0  0  0  0  0  0  0  0  0  0  0  0
   36.4190   29.4670   35.5590 C   0  0  0  0  0  0  0  0  0  0  0  0
   36.9200   29.5280   34.5820 H   0  0  0  0  0  0  0  0  0  0  0  0
   35.1030   29.0550   35.6210 C   0  0  0  0  0  0  0  0  0  0  0  0
   34.6200   28.8050   34.6770 H   0  0  0  0  0  0  0  0  0  0  0  0
   34.5490   29.0080   36.8910 C   0  0  0  0  0  0  0  0  0  0  0  0
   32.8730   28.4840   36.9830 Cl  0  0  0  0  0  0  0  0  0  0  0  0
   40.5130   27.5180   43.4710 C   0  0  0  0  0  0  0  0  0  0  0  0
   39.8690   26.2760   43.5360 C   0  0  0  0  0  0  0  0  0  0  0  0
   38.7170   26.0830   42.7620 C   0  0  0  0  0  0  0  0  0  0  0  0
   38.2830   27.1230   41.9830 N   0  0  0  0  0  0  0  0  0  0  0  0
   38.9290   28.3140   41.9430 C   0  0  0  0  0  0  0  0  0  0  0  0
   40.0250   28.4950   42.6790 N   0  0  0  0  0  0  0  0  0  0  0  0
   41.4060   27.7500   44.0340 H   0  0  0  0  0  0  0  0  0  0  0  0
   40.2690   25.5050   44.1710 H   0  0  0  0  0  0  0  0  0  0  0  0
   38.1950   25.1380   42.7880 H   0  0  0  0  0  0  0  0  0  0  0  0
  1  2  1  0  0  0  0
  2  3  2  0  0  0  0
  2 29  1  0  0  0  0
  3 11  1  0  0  0  0
  4  5  1  0  0  0  0
  4  3  1  0  0  0  0
  5 12  1  0  0  0  0
  6  5  1  0  0  0  0
  7  8  1  0  0  0  0
  7  6  2  0  0  0  0
  8  4  2  0  0  0  0
  9  8  1  0  0  0  0
  9  1  2  0  0  0  0
 10  1  1  0  0  0  0
 13  6  1  0  0  0  0
 15 14  1  0  0  0  0
 16 15  1  0  0  0  0
 16  9  1  0  0  0  0
 17 16  2  0  0  0  0
 18 17  1  0  0  0  0
 19 21  2  0  0  0  0
 19 17  1  0  0  0  0
 20 19  1  0  0  0  0
 21 23  1  0  0  0  0
 22 21  1  0  0  0  0
 23 24  1  0  0  0  0
 23 15  2  0  0  0  0
 25 26  1  0  0  0  0
 25 31  1  0  0  0  0
 26 32  1  0  0  0  0
 27 33  1  0  0  0  0
 27 26  2  0  0  0  0
 28 27  1  0  0  0  0
 29 28  2  0  0  0  0
 29 30  1  0  0  0  0
 30 25  2  0  0  0  0
M  END
>  <minimizedAffinity>
-5.93284798

$$$$

 OpenBabel03252506533D

 33 36  0  0  0  0  0  0  0  0999 V2000
   36.5690   30.5460   38.7700 C   0  0  0  0  0  0  0  0  0  0  0  0
   35.6800   29.4770   38.7970 C   0  0  0  0  0  0  0  0  0  0  0  0
   35.5320   28.6450   39.9060 C   0  0  0  0  0  0  0  0  0  0  0  0
   36.3020   28.8870   41.0420 C   0  0  0  0  0  0  0  0  0  0  0  0
   36.4230   28.3040   42.2710 N   0  0  0  0  0  0  0  0  0  0  0  0
   37.3560   28.9910   42.9820 C   0  0  0  0  0  0  0  0  0  0  0  0
   37.8040   29.9980   42.1750 N   0  0  0  0  0  0  0  0  0  0  0  0
   37.1720   29.9470   40.9940 C   0  0  0  0  0  0  0  0  0  0  0  0
   37.3370   30.7780   39.9170 C   0  0  0  0  0  0  0  0  0  0  0  0
   36.6380   31.1530   37.8820 H   0  0  0  0  0  0  0  0  0  0  0  0
   34.8380   27.8180   39.9160 H   0  0  0  0  0  0  0  0  0  0  0  0
   35.8760   27.4720   42.5850 H   0  0  0  0  0  0  0  0  0  0  0  0
   37.6710   28.7740   43.9790 H   0  0  0  0  0  0  0  0  0  0  0  0
   40.0510   29.9700   39.0890 Cl  0  0  0  0  0  0  0  0  0  0  0  0
   39.5720   31.6200   39.5080 C   0  0  0  0  0  0  0  0  0  0  0  0
   38.2690   31.9030   39.8850 C   0  0  0  0  0  0  0  0  0  0  0  0
   37.9130   33.1960   40.2070 C   0  0  0  0  0  0  0  0  0  0  0  0
   36.8940   33.4070   40.5010 H   0  0  0  0  0  0  0  0  0  0  0  0
   38.8890   34.1570   40.1350 C   0  0  0  0  0  0  0  0  0  0  0  0
   38.5750   35.1780   40.3970 H   0  0  0  0  0  0  0  0  0  0  0  0
   40.1990   33.9260   39.7640 C   0  0  0  0  0  0  0  0  0  0  0  0
   40.8670   34.7860   39.7510 H   0  0  0  0  0  0  0  0  0  0  0  0
   40.5100   32.6120   39.4510 C   0  0  0  0  0  0  0  0  0  0  0  0
   42.1750   32.3040   38.9770 Cl  0  0  0  0  0  0  0  0  0  0  0  0
   32.7940   28.6520   36.6780 C   0  0  0  0  0  0  0  0  0  0  0  0
   33.3500   28.6680   35.3920 C   0  0  0  0  0  0  0  0  0  0  0  0
   34.7140   28.9610   35.2610 C   0  0  0  0  0  0  0  0  0  0  0  0
   35.4300   29.2180   36.4000 N   0  0  0  0  0  0  0  0  0  0  0  0
   34.8620   29.1950   37.6310 C   0  0  0  0  0  0  0  0  0  0  0  0
   33.5640   28.9150   37.7530 N   0  0  0  0  0  0  0  0  0  0  0  0
   31.7530   28.4350   36.8680 H   0  0  0  0  0  0  0  0  0  0  0  0
   32.7250   28.4560   34.5420 H   0  0  0  0  0  0  0  0  0  0  0  0
   35.1760   28.9820   34.2850 H   0  0  0  0  0  0  0  0  0  0  0  0
  1  2  2  0  0  0  0
  1  9  1  0  0  0  0
  2  3  1  0  0  0  0
  3 11  1  0  0  0  0
  3  4  2  0  0  0  0
  4  5  1  0  0  0  0
  5 12  1  0  0  0  0
  5  6  1  0  0  0  0
  6 13  1  0  0  0  0
  7  6  2  0  0  0  0
  8  4  1  0  0  0  0
  8  7  1  0  0  0  0
  9  8  2  0  0  0  0
 10  1  1  0  0  0  0
 14 15  1  0  0  0  0
 15 16  1  0  0  0  0
 16  9  1  0  0  0  0
 16 17  2  0  0  0  0
 17 18  1  0  0  0  0
 19 17  1  0  0  0  0
 19 20  1  0  0  0  0
 21 19  2  0  0  0  0
 22 21  1  0  0  0  0
 23 15  2  0  0  0  0
 23 21  1  0  0  0  0
 24 23  1  0  0  0  0
 25 31  1  0  0  0  0
 25 30  1  0  0  0  0
 26 25  2  0  0  0  0
 27 26  1  0  0  0  0
 27 28  2  0  0  0  0
 28 29  1  0  0  0  0
 29 30  2  0  0  0  0
 29  2  1  0  0  0  0
 32 26  1  0  0  0  0
 33 27  1  0  0  0  0
M  END
>  <minimizedAffinity>
-5.78633881

$$$$

 OpenBabel03252506533D

 33 36  0  0  0  0  0  0  0  0999 V2000
   36.4640   30.4590   38.6260 C   0  0  0  0  0  0  0  0  0  0  0  0
   35.6060   29.3650   38.6290 C   0  0  0  0  0  0  0  0  0  0  0  0
   35.4440   28.5360   39.7380 C   0  0  0  0  0  0  0  0  0  0  0  0
   36.1680   28.8060   40.8970 C   0  0  0  0  0  0  0  0  0  0  0  0
   36.2640   28.2320   42.1330 N   0  0  0  0  0  0  0  0  0  0  0  0
   37.1530   28.9490   42.8710 C   0  0  0  0  0  0  0  0  0  0  0  0
   37.5990   29.9640   42.0730 N   0  0  0  0  0  0  0  0  0  0  0  0
   37.0090   29.8900   40.8720 C   0  0  0  0  0  0  0  0  0  0  0  0
   37.1870   30.7190   39.7960 C   0  0  0  0  0  0  0  0  0  0  0  0
   36.5460   31.0630   37.7360 H   0  0  0  0  0  0  0  0  0  0  0  0
   34.7740   27.6880   39.7290 H   0  0  0  0  0  0  0  0  0  0  0  0
   35.7310   27.3870   42.4340 H   0  0  0  0  0  0  0  0  0  0  0  0
   37.4400   28.7460   43.8790 H   0  0  0  0  0  0  0  0  0  0  0  0
   39.9310   29.9980   38.9900 Cl  0  0  0  0  0  0  0  0  0  0  0  0
   39.4010   31.6290   39.4220 C   0  0  0  0  0  0  0  0  0  0  0  0
   38.0870   31.8700   39.7880 C   0  0  0  0  0  0  0  0  0  0  0  0
   37.6900   33.1480   40.1220 C   0  0  0  0  0  0  0  0  0  0  0  0
   36.6630   33.3270   40.4070 H   0  0  0  0  0  0  0  0  0  0  0  0
   38.6400   34.1370   40.0730 C   0  0  0  0  0  0  0  0  0  0  0  0
   38.2940   35.1460   40.3430 H   0  0  0  0  0  0  0  0  0  0  0  0
   39.9600   33.9480   39.7140 C   0  0  0  0  0  0  0  0  0  0  0  0
   40.6030   34.8270   39.7190 H   0  0  0  0  0  0  0  0  0  0  0  0
   40.3110   32.6470   39.3880 C   0  0  0  0  0  0  0  0  0  0  0  0
   41.9900   32.3920   38.9290 Cl  0  0  0  0  0  0  0  0  0  0  0  0
   34.6400   28.9470   35.1080 C   0  0  0  0  0  0  0  0  0  0  0  0
   33.3350   28.4490   35.2120 C   0  0  0  0  0  0  0  0  0  0  0  0
   32.7940   28.2600   36.4900 C   0  0  0  0  0  0  0  0  0  0  0  0
   33.5740   28.5740   37.5720 N   0  0  0  0  0  0  0  0  0  0  0  0
   34.8350   29.0540   37.4380 C   0  0  0  0  0  0  0  0  0  0  0  0
   35.3470   29.2330   36.2210 N   0  0  0  0  0  0  0  0  0  0  0  0
   35.1320   29.1220   34.1620 H   0  0  0  0  0  0  0  0  0  0  0  0
   32.7810   28.2250   34.3160 H   0  0  0  0  0  0  0  0  0  0  0  0
   31.7910   27.8780   36.6070 H   0  0  0  0  0  0  0  0  0  0  0  0
  1  2  2  0  0  0  0
  1  9  1  0  0  0  0
  2  3  1  0  0  0  0
  3  4  2  0  0  0  0
  4  5  1  0  0  0  0
  5 12  1  0  0  0  0
  5  6  1  0  0  0  0
  6 13  1  0  0  0  0
  7  6  2  0  0  0  0
  8  4  1  0  0  0  0
  8  7  1  0  0  0  0
  9  8  2  0  0  0  0
 10  1  1  0  0  0  0
 11  3  1  0  0  0  0
 14 15  1  0  0  0  0
 15 16  1  0  0  0  0
 16  9  1  0  0  0  0
 16 17  2  0  0  0  0
 17 18  1  0  0  0  0
 19 17  1  0  0  0  0
 19 20  1  0  0  0  0
 21 22  1  0  0  0  0
 21 19  2  0  0  0  0
 23 15  2  0  0  0  0
 23 21  1  0  0  0  0
 24 23  1  0  0  0  0
 25 26  2  0  0  0  0
 25 30  1  0  0  0  0
 26 27  1  0  0  0  0
 27 33  1  0  0  0  0
 27 28  2  0  0  0  0
 29 28  1  0  0  0  0
 29  2  1  0  0  0  0
 30 29  2  0  0  0  0
 31 25  1  0  0  0  0
 32 26  1  0  0  0  0
M  END
>  <minimizedAffinity>
-5.74019241

$$$$

 OpenBabel03252506533D

 33 36  0  0  0  0  0  0  0  0999 V2000
   37.3610   28.6280   40.4620 C   0  0  0  0  0  0  0  0  0  0  0  0
   38.3470   28.9340   41.3930 C   0  0  0  0  0  0  0  0  0  0  0  0
   38.7950   30.2350   41.6190 C   0  0  0  0  0  0  0  0  0  0  0  0
   38.2380   31.2800   40.8860 C   0  0  0  0  0  0  0  0  0  0  0  0
   38.4210   32.6330   40.8380 N   0  0  0  0  0  0  0  0  0  0  0  0
   37.5750   33.1470   39.9060 C   0  0  0  0  0  0  0  0  0  0  0  0
   36.8740   32.0960   39.3860 N   0  0  0  0  0  0  0  0  0  0  0  0
   37.2670   30.9560   39.9720 C   0  0  0  0  0  0  0  0  0  0  0  0
   36.8100   29.6870   39.7310 C   0  0  0  0  0  0  0  0  0  0  0  0
   37.0570   27.6020   40.3330 H   0  0  0  0  0  0  0  0  0  0  0  0
   39.5620   30.4610   42.3460 H   0  0  0  0  0  0  0  0  0  0  0  0
   39.1020   33.1570   41.4300 H   0  0  0  0  0  0  0  0  0  0  0  0
   37.4840   34.1780   39.6410 H   0  0  0  0  0  0  0  0  0  0  0  0
   37.8490   29.6040   36.9710 Cl  0  0  0  0  0  0  0  0  0  0  0  0
   36.1670   29.3000   37.4270 C   0  0  0  0  0  0  0  0  0  0  0  0
   35.7730   29.3610   38.7540 C   0  0  0  0  0  0  0  0  0  0  0  0
   34.4580   29.1210   39.0920 C   0  0  0  0  0  0  0  0  0  0  0  0
   34.1600   29.1710   40.1290 H   0  0  0  0  0  0  0  0  0  0  0  0
   33.5880   28.8260   38.0730 C   0  0  0  0  0  0  0  0  0  0  0  0
   32.5460   28.6380   38.3730 H   0  0  0  0  0  0  0  0  0  0  0  0
   33.9310   28.7520   36.7370 C   0  0  0  0  0  0  0  0  0  0  0  0
   33.1350   28.5080   36.0360 H   0  0  0  0  0  0  0  0  0  0  0  0
   35.2640   29.0020   36.4470 C   0  0  0  0  0  0  0  0  0  0  0  0
   35.7140   28.9120   34.7490 Cl  0  0  0  0  0  0  0  0  0  0  0  0
   38.9900   25.6430   42.8970 C   0  0  0  0  0  0  0  0  0  0  0  0
   40.1290   25.8860   43.6750 C   0  0  0  0  0  0  0  0  0  0  0  0
   40.6690   27.1780   43.6800 C   0  0  0  0  0  0  0  0  0  0  0  0
   40.0520   28.1370   42.9190 N   0  0  0  0  0  0  0  0  0  0  0  0
   38.9500   27.8700   42.1760 C   0  0  0  0  0  0  0  0  0  0  0  0
   38.4380   26.6390   42.1730 N   0  0  0  0  0  0  0  0  0  0  0  0
   38.5100   24.6770   42.8370 H   0  0  0  0  0  0  0  0  0  0  0  0
   40.5590   25.0820   44.2480 H   0  0  0  0  0  0  0  0  0  0  0  0
   41.5460   27.4010   44.2690 H   0  0  0  0  0  0  0  0  0  0  0  0
  1  2  1  0  0  0  0
  2  3  2  0  0  0  0
  2 29  1  0  0  0  0
  3 11  1  0  0  0  0
  4  3  1  0  0  0  0
  5  4  1  0  0  0  0
  5 12  1  0  0  0  0
  6  5  1  0  0  0  0
  7  6  2  0  0  0  0
  7  8  1  0  0  0  0
  8  4  2  0  0  0  0
  9  8  1  0  0  0  0
  9  1  2  0  0  0  0
 10  1  1  0  0  0  0
 13  6  1  0  0  0  0
 14 15  1  0  0  0  0
 15 16  1  0  0  0  0
 16 17  2  0  0  0  0
 16  9  1  0  0  0  0
 17 18  1  0  0  0  0
 19 20  1  0  0  0  0
 19 17  1  0  0  0  0
 21 19  2  0  0  0  0
 22 21  1  0  0  0  0
 23 21  1  0  0  0  0
 23 15  2  0  0  0  0
 24 23  1  0  0  0  0
 25 26  1  0  0  0  0
 26 27  2  0  0  0  0
 26 32  1  0  0  0  0
 27 33  1  0  0  0  0
 28 27  1  0  0  0  0
 29 28  2  0  0  0  0
 30 29  1  0  0  0  0
 30 25  2  0  0  0  0
 31 25  1  0  0  0  0
M  END
>  <minimizedAffinity>
-5.71256208

$$$$

 OpenBabel03252506533D

 33 36  0  0  0  0  0  0  0  0999 V2000
   37.1230   29.4750   39.3510 C   0  0  0  0  0  0  0  0  0  0  0  0
   36.8700   30.2880   38.2520 C   0  0  0  0  0  0  0  0  0  0  0  0
   37.3310   31.6010   38.1630 C   0  0  0  0  0  0  0  0  0  0  0  0
   38.0760   32.1310   39.2140 C   0  0  0  0  0  0  0  0  0  0  0  0
   38.6710   33.3340   39.4690 N   0  0  0  0  0  0  0  0  0  0  0  0
   39.2720   33.2660   40.6870 C   0  0  0  0  0  0  0  0  0  0  0  0
   39.0380   32.0110   41.1730 N   0  0  0  0  0  0  0  0  0  0  0  0
   38.3130   31.3100   40.2890 C   0  0  0  0  0  0  0  0  0  0  0  0
   37.8720   30.0180   40.4010 C   0  0  0  0  0  0  0  0  0  0  0  0
   36.7390   28.4670   39.3610 H   0  0  0  0  0  0  0  0  0  0  0  0
   37.1280   32.2240   37.3040 H   0  0  0  0  0  0  0  0  0  0  0  0
   38.6510   34.1500   38.8190 H   0  0  0  0  0  0  0  0  0  0  0  0
   39.8180   34.0510   41.1610 H   0  0  0  0  0  0  0  0  0  0  0  0
   40.3210   28.4060   40.0700 Cl  0  0  0  0  0  0  0  0  0  0  0  0
   39.2670   28.3620   41.4900 C   0  0  0  0  0  0  0  0  0  0  0  0
   38.1350   29.1590   41.5540 C   0  0  0  0  0  0  0  0  0  0  0  0
   37.3240   29.1130   42.6680 C   0  0  0  0  0  0  0  0  0  0  0  0
   36.4440   29.7380   42.7090 H   0  0  0  0  0  0  0  0  0  0  0  0
   37.6890   28.2610   43.6800 C   0  0  0  0  0  0  0  0  0  0  0  0
   37.0240   28.2460   44.5550 H   0  0  0  0  0  0  0  0  0  0  0  0
   38.8060   27.4480   43.6640 C   0  0  0  0  0  0  0  0  0  0  0  0
   38.9710   26.8210   44.5390 H   0  0  0  0  0  0  0  0  0  0  0  0
   39.5890   27.5290   42.5230 C   0  0  0  0  0  0  0  0  0  0  0  0
   41.0140   26.4990   42.4900 Cl  0  0  0  0  0  0  0  0  0  0  0  0
   35.8680   29.3180   34.8530 C   0  0  0  0  0  0  0  0  0  0  0  0
   34.5930   28.7750   35.0580 C   0  0  0  0  0  0  0  0  0  0  0  0
   34.0850   28.7470   36.3640 C   0  0  0  0  0  0  0  0  0  0  0  0
   34.8650   29.2520   37.3700 N   0  0  0  0  0  0  0  0  0  0  0  0
   36.0970   29.7700   37.1380 C   0  0  0  0  0  0  0  0  0  0  0  0
   36.5780   29.7960   35.8950 N   0  0  0  0  0  0  0  0  0  0  0  0
   36.3340   29.3790   33.8800 H   0  0  0  0  0  0  0  0  0  0  0  0
   34.0370   28.3970   34.2180 H   0  0  0  0  0  0  0  0  0  0  0  0
   33.1050   28.3360   36.5590 H   0  0  0  0  0  0  0  0  0  0  0  0
  1 10  1  0  0  0  0
  1  9  1  0  0  0  0
  2  1  2  0  0  0  0
  3  2  1  0  0  0  0
  3  4  2  0  0  0  0
  4  5  1  0  0  0  0
  4  8  1  0  0  0  0
  5  6  1  0  0  0  0
  6 13  1  0  0  0  0
  6  7  2  0  0  0  0
  8  9  2  0  0  0  0
  8  7  1  0  0  0  0
  9 16  1  0  0  0  0
 11  3  1  0  0  0  0
 12  5  1  0  0  0  0
 14 15  1  0  0  0  0
 15 16  2  0  0  0  0
 15 23  1  0  0  0  0
 16 17  1  0  0  0  0
 17 18  1  0  0  0  0
 17 19  2  0  0  0  0
 19 20  1  0  0  0  0
 21 19  1  0  0  0  0
 21 22  1  0  0  0  0
 23 21  2  0  0  0  0
 24 23  1  0  0  0  0
 25 26  2  0  0  0  0
 25 30  1  0  0  0  0
 26 27  1  0  0  0  0
 27 33  1  0  0  0  0
 27 28  2  0  0  0  0
 29 28  1  0  0  0  0
 29  2  1  0  0  0  0
 30 29  2  0  0  0  0
 31 25  1  0  0  0  0
 32 26  1  0  0  0  0
M  END
>  <minimizedAffinity>
-5.68346357

$$$$

 OpenBabel03252506533D

 33 36  0  0  0  0  0  0  0  0999 V2000
   35.9130   27.2050   39.0640 C   0  0  0  0  0  0  0  0  0  0  0  0
   35.3070   28.4530   38.9720 C   0  0  0  0  0  0  0  0  0  0  0  0
   35.4610   29.4400   39.9450 C   0  0  0  0  0  0  0  0  0  0  0  0
   36.2530   29.1750   41.0600 C   0  0  0  0  0  0  0  0  0  0  0  0
   36.6190   29.8750   42.1750 N   0  0  0  0  0  0  0  0  0  0  0  0
   37.4260   29.0840   42.9310 C   0  0  0  0  0  0  0  0  0  0  0  0
   37.5480   27.8960   42.2690 N   0  0  0  0  0  0  0  0  0  0  0  0
   36.8410   27.9380   41.1300 C   0  0  0  0  0  0  0  0  0  0  0  0
   36.7060   26.9510   40.1890 C   0  0  0  0  0  0  0  0  0  0  0  0
   35.7560   26.4820   38.2790 H   0  0  0  0  0  0  0  0  0  0  0  0
   34.9850   30.4070   39.8630 H   0  0  0  0  0  0  0  0  0  0  0  0
   36.3160   30.8520   42.3830 H   0  0  0  0  0  0  0  0  0  0  0  0
   37.8720   29.3530   43.8640 H   0  0  0  0  0  0  0  0  0  0  0  0
   39.3160   26.8620   38.8170 Cl  0  0  0  0  0  0  0  0  0  0  0  0
   38.5730   25.4990   39.6650 C   0  0  0  0  0  0  0  0  0  0  0  0
   37.3410   25.6380   40.2820 C   0  0  0  0  0  0  0  0  0  0  0  0
   36.7760   24.5640   40.9390 C   0  0  0  0  0  0  0  0  0  0  0  0
   35.8140   24.6820   41.4170 H   0  0  0  0  0  0  0  0  0  0  0  0
   37.4820   23.3880   40.9480 C   0  0  0  0  0  0  0  0  0  0  0  0
   37.0070   22.5500   41.4800 H   0  0  0  0  0  0  0  0  0  0  0  0
   38.7120   23.1990   40.3490 C   0  0  0  0  0  0  0  0  0  0  0  0
   39.1560   22.2090   40.4370 H   0  0  0  0  0  0  0  0  0  0  0  0
   39.2380   24.3060   39.7010 C   0  0  0  0  0  0  0  0  0  0  0  0
   40.8050   24.0800   38.9350 Cl  0  0  0  0  0  0  0  0  0  0  0  0
   32.3890   29.2950   36.9050 C   0  0  0  0  0  0  0  0  0  0  0  0
   32.9380   29.3500   35.6170 C   0  0  0  0  0  0  0  0  0  0  0  0
   34.3080   29.0960   35.4670 C   0  0  0  0  0  0  0  0  0  0  0  0
   35.0370   28.8090   36.5910 N   0  0  0  0  0  0  0  0  0  0  0  0
   34.4750   28.7640   37.8240 C   0  0  0  0  0  0  0  0  0  0  0  0
   33.1710   29.0050   37.9640 N   0  0  0  0  0  0  0  0  0  0  0  0
   31.3430   29.4760   37.1090 H   0  0  0  0  0  0  0  0  0  0  0  0
   32.3020   29.5820   34.7800 H   0  0  0  0  0  0  0  0  0  0  0  0
   34.7650   29.1300   34.4890 H   0  0  0  0  0  0  0  0  0  0  0  0
  1  9  1  0  0  0  0
  2  1  2  0  0  0  0
  2  3  1  0  0  0  0
  3  4  2  0  0  0  0
  4  8  1  0  0  0  0
  4  5  1  0  0  0  0
  5 12  1  0  0  0  0
  5  6  1  0  0  0  0
  6 13  1  0  0  0  0
  7  6  2  0  0  0  0
  8  7  1  0  0  0  0
  9 16  1  0  0  0  0
  9  8  2  0  0  0  0
 10  1  1  0  0  0  0
 11  3  1  0  0  0  0
 14 15  1  0  0  0  0
 15 23  2  0  0  0  0
 15 16  1  0  0  0  0
 16 17  2  0  0  0  0
 17 19  1  0  0  0  0
 17 18  1  0  0  0  0
 19 20  1  0  0  0  0
 21 22  1  0  0  0  0
 21 19  2  0  0  0  0
 23 21  1  0  0  0  0
 24 23  1  0  0  0  0
 25 31  1  0  0  0  0
 25 30  1  0  0  0  0
 26 25  2  0  0  0  0
 27 26  1  0  0  0  0
 27 28  2  0  0  0  0
 28 29  1  0  0  0  0
 29 30  2  0  0  0  0
 29  2  1  0  0  0  0
 32 26  1  0  0  0  0
 33 27  1  0  0  0  0
M  END
>  <minimizedAffinity>
-5.62792063

$$$$

 OpenBabel03252506533D

 33 36  0  0  0  0  0  0  0  0999 V2000
   37.7840   29.3950   38.6150 C   0  0  0  0  0  0  0  0  0  0  0  0
   37.5060   30.2420   37.5480 C   0  0  0  0  0  0  0  0  0  0  0  0
   37.7030   31.6210   37.6070 C   0  0  0  0  0  0  0  0  0  0  0  0
   38.2000   32.1850   38.7800 C   0  0  0  0  0  0  0  0  0  0  0  0
   38.5100   33.4510   39.1900 N   0  0  0  0  0  0  0  0  0  0  0  0
   38.9650   33.3880   40.4690 C   0  0  0  0  0  0  0  0  0  0  0  0
   38.9300   32.0730   40.8370 N   0  0  0  0  0  0  0  0  0  0  0  0
   38.4680   31.3310   39.8210 C   0  0  0  0  0  0  0  0  0  0  0  0
   38.2820   29.9740   39.7880 C   0  0  0  0  0  0  0  0  0  0  0  0
   37.6110   28.3360   38.5080 H   0  0  0  0  0  0  0  0  0  0  0  0
   37.4840   32.2700   36.7710 H   0  0  0  0  0  0  0  0  0  0  0  0
   38.4050   34.3040   38.5980 H   0  0  0  0  0  0  0  0  0  0  0  0
   39.2850   34.2160   41.0630 H   0  0  0  0  0  0  0  0  0  0  0  0
   35.8470   29.1410   41.2300 Cl  0  0  0  0  0  0  0  0  0  0  0  0
   37.4900   28.6350   41.6460 C   0  0  0  0  0  0  0  0  0  0  0  0
   38.5740   29.0800   40.9070 C   0  0  0  0  0  0  0  0  0  0  0  0
   39.8490   28.6750   41.2450 C   0  0  0  0  0  0  0  0  0  0  0  0
   40.6880   29.0280   40.6620 H   0  0  0  0  0  0  0  0  0  0  0  0
   39.9800   27.8330   42.3200 C   0  0  0  0  0  0  0  0  0  0  0  0
   41.0070   27.5270   42.5650 H   0  0  0  0  0  0  0  0  0  0  0  0
   38.9320   27.3620   43.0870 C   0  0  0  0  0  0  0  0  0  0  0  0
   39.1850   26.6990   43.9130 H   0  0  0  0  0  0  0  0  0  0  0  0
   37.6710   27.7970   42.7100 C   0  0  0  0  0  0  0  0  0  0  0  0
   36.3280   27.2050   43.6790 Cl  0  0  0  0  0  0  0  0  0  0  0  0
   36.4150   27.8480   34.9820 C   0  0  0  0  0  0  0  0  0  0  0  0
   35.9970   28.6900   33.9440 C   0  0  0  0  0  0  0  0  0  0  0  0
   36.0930   30.0760   34.1310 C   0  0  0  0  0  0  0  0  0  0  0  0
   36.5910   30.5310   35.3230 N   0  0  0  0  0  0  0  0  0  0  0  0
   36.9870   29.6900   36.3100 C   0  0  0  0  0  0  0  0  0  0  0  0
   36.8950   28.3720   36.1290 N   0  0  0  0  0  0  0  0  0  0  0  0
   36.3760   26.7700   34.9210 H   0  0  0  0  0  0  0  0  0  0  0  0
   35.6160   28.2590   33.0340 H   0  0  0  0  0  0  0  0  0  0  0  0
   35.7800   30.7540   33.3510 H   0  0  0  0  0  0  0  0  0  0  0  0
  1  9  1  0  0  0  0
  2  3  1  0  0  0  0
  2  1  2  0  0  0  0
  3  4  2  0  0  0  0
  4  5  1  0  0  0  0
  4  8  1  0  0  0  0
  5  6  1  0  0  0  0
  6  7  2  0  0  0  0
  6 13  1  0  0  0  0
  8  7  1  0  0  0  0
  9  8  2  0  0  0  0
  9 16  1  0  0  0  0
 10  1  1  0  0  0  0
 11  3  1  0  0  0  0
 12  5  1  0  0  0  0
 14 15  1  0  0  0  0
 15 23  1  0  0  0  0
 16 17  1  0  0  0  0
 16 15  2  0  0  0  0
 17 19  2  0  0  0  0
 18 17  1  0  0  0  0
 19 20  1  0  0  0  0
 19 21  1  0  0  0  0
 21 22  1  0  0  0  0
 23 21  2  0  0  0  0
 23 24  1  0  0  0  0
 25 30  1  0  0  0  0
 26 27  1  0  0  0  0
 26 25  2  0  0  0  0
 27 28  2  0  0  0  0
 28 29  1  0  0  0  0
 29  2  1  0  0  0  0
 30 29  2  0  0  0  0
 31 25  1  0  0  0  0
 32 26  1  0  0  0  0
 33 27  1  0  0  0  0
M  END
>  <minimizedAffinity>
-5.62519741

$$$$

 OpenBabel03252506533D

 33 36  0  0  0  0  0  0  0  0999 V2000
   35.0440   28.0900   38.3380 C   0  0  0  0  0  0  0  0  0  0  0  0
   34.8100   28.7270   37.1250 C   0  0  0  0  0  0  0  0  0  0  0  0
   35.8190   28.9710   36.1930 C   0  0  0  0  0  0  0  0  0  0  0  0
   37.1200   28.5620   36.4800 C   0  0  0  0  0  0  0  0  0  0  0  0
   38.3200   28.6290   35.8320 N   0  0  0  0  0  0  0  0  0  0  0  0
   39.2660   28.0520   36.6190 C   0  0  0  0  0  0  0  0  0  0  0  0
   38.6320   27.6330   37.7540 N   0  0  0  0  0  0  0  0  0  0  0  0
   37.3280   27.9360   37.6830 C   0  0  0  0  0  0  0  0  0  0  0  0
   36.3550   27.6850   38.6150 C   0  0  0  0  0  0  0  0  0  0  0  0
   34.2220   27.9300   39.0180 H   0  0  0  0  0  0  0  0  0  0  0  0
   35.6250   29.4670   35.2530 H   0  0  0  0  0  0  0  0  0  0  0  0
   38.4580   29.0570   34.8900 H   0  0  0  0  0  0  0  0  0  0  0  0
   40.3030   27.9520   36.3840 H   0  0  0  0  0  0  0  0  0  0  0  0
   36.6580   29.5900   40.8480 Cl  0  0  0  0  0  0  0  0  0  0  0  0
   36.7530   27.8300   41.0010 C   0  0  0  0  0  0  0  0  0  0  0  0
   36.5960   27.0160   39.8920 C   0  0  0  0  0  0  0  0  0  0  0  0
   36.6730   25.6460   40.0290 C   0  0  0  0  0  0  0  0  0  0  0  0
   36.5500   25.0180   39.1580 H   0  0  0  0  0  0  0  0  0  0  0  0
   36.9040   25.1490   41.2870 C   0  0  0  0  0  0  0  0  0  0  0  0
   36.9590   24.0530   41.3650 H   0  0  0  0  0  0  0  0  0  0  0  0
   37.0660   25.9180   42.4230 C   0  0  0  0  0  0  0  0  0  0  0  0
   37.2440   25.3870   43.3560 H   0  0  0  0  0  0  0  0  0  0  0  0
   36.9820   27.2890   42.2340 C   0  0  0  0  0  0  0  0  0  0  0  0
   37.1860   28.2800   43.6730 Cl  0  0  0  0  0  0  0  0  0  0  0  0
   31.2940   29.7460   37.4400 C   0  0  0  0  0  0  0  0  0  0  0  0
   30.9340   30.0000   36.1100 C   0  0  0  0  0  0  0  0  0  0  0  0
   31.9020   29.8190   35.1130 C   0  0  0  0  0  0  0  0  0  0  0  0
   33.1500   29.4030   35.4950 N   0  0  0  0  0  0  0  0  0  0  0  0
   33.4670   29.1660   36.7920 C   0  0  0  0  0  0  0  0  0  0  0  0
   32.5450   29.3390   37.7380 N   0  0  0  0  0  0  0  0  0  0  0  0
   30.6100   29.8600   38.2690 H   0  0  0  0  0  0  0  0  0  0  0  0
   29.9330   30.3240   35.8860 H   0  0  0  0  0  0  0  0  0  0  0  0
   31.6590   30.0060   34.0770 H   0  0  0  0  0  0  0  0  0  0  0  0
  1  9  1  0  0  0  0
  1 10  1  0  0  0  0
  2  1  2  0  0  0  0
  3  4  2  0  0  0  0
  3  2  1  0  0  0  0
  4  8  1  0  0  0  0
  5  4  1  0  0  0  0
  5  6  1  0  0  0  0
  6  7  2  0  0  0  0
  8  7  1  0  0  0  0
  8  9  2  0  0  0  0
  9 16  1  0  0  0  0
 11  3  1  0  0  0  0
 12  5  1  0  0  0  0
 13  6  1  0  0  0  0
 14 15  1  0  0  0  0
 15 23  1  0  0  0  0
 16 17  1  0  0  0  0
 16 15  2  0  0  0  0
 17 19  2  0  0  0  0
 18 17  1  0  0  0  0
 19 20  1  0  0  0  0
 19 21  1  0  0  0  0
 21 22  1  0  0  0  0
 23 21  2  0  0  0  0
 23 24  1  0  0  0  0
 25 30  1  0  0  0  0
 25 31  1  0  0  0  0
 26 25  2  0  0  0  0
 27 28  2  0  0  0  0
 27 26  1  0  0  0  0
 28 29  1  0  0  0  0
 29  2  1  0  0  0  0
 29 30  2  0  0  0  0
 32 26  1  0  0  0  0
 33 27  1  0  0  0  0
M  END
>  <minimizedAffinity>
-5.48768759

$$$$

 OpenBabel03252506533D

 33 36  0  0  0  0  0  0  0  0999 V2000
   35.1730   28.3090   38.5860 C   0  0  0  0  0  0  0  0  0  0  0  0
   35.0170   28.9180   37.3460 C   0  0  0  0  0  0  0  0  0  0  0  0
   36.0680   29.5430   36.6740 C   0  0  0  0  0  0  0  0  0  0  0  0
   37.3310   29.5620   37.2610 C   0  0  0  0  0  0  0  0  0  0  0  0
   38.5520   30.0630   36.9110 N   0  0  0  0  0  0  0  0  0  0  0  0
   39.4350   29.7720   37.9030 C   0  0  0  0  0  0  0  0  0  0  0  0
   38.7420   29.0900   38.8610 N   0  0  0  0  0  0  0  0  0  0  0  0
   37.4620   28.9550   38.4850 C   0  0  0  0  0  0  0  0  0  0  0  0
   36.4470   28.3360   39.1650 C   0  0  0  0  0  0  0  0  0  0  0  0
   34.3220   27.8420   39.0560 H   0  0  0  0  0  0  0  0  0  0  0  0
   35.9350   30.0130   35.7110 H   0  0  0  0  0  0  0  0  0  0  0  0
   38.7460   30.5770   36.0240 H   0  0  0  0  0  0  0  0  0  0  0  0
   40.4710   30.0330   37.9180 H   0  0  0  0  0  0  0  0  0  0  0  0
   37.2080   25.4950   38.9360 Cl  0  0  0  0  0  0  0  0  0  0  0  0
   36.9630   26.3550   40.4620 C   0  0  0  0  0  0  0  0  0  0  0  0
   36.6060   27.6930   40.4680 C   0  0  0  0  0  0  0  0  0  0  0  0
   36.4200   28.3490   41.6670 C   0  0  0  0  0  0  0  0  0  0  0  0
   36.1410   29.3940   41.6620 H   0  0  0  0  0  0  0  0  0  0  0  0
   36.6020   27.6250   42.8180 C   0  0  0  0  0  0  0  0  0  0  0  0
   36.4470   28.1750   43.7580 H   0  0  0  0  0  0  0  0  0  0  0  0
   36.9580   26.2910   42.8640 C   0  0  0  0  0  0  0  0  0  0  0  0
   37.0680   25.8450   43.8510 H   0  0  0  0  0  0  0  0  0  0  0  0
   37.1330   25.6760   41.6350 C   0  0  0  0  0  0  0  0  0  0  0  0
   37.5870   23.9770   41.6800 Cl  0  0  0  0  0  0  0  0  0  0  0  0
   31.4060   29.2960   36.7790 C   0  0  0  0  0  0  0  0  0  0  0  0
   31.2680   28.8970   35.4440 C   0  0  0  0  0  0  0  0  0  0  0  0
   32.4160   28.5000   34.7460 C   0  0  0  0  0  0  0  0  0  0  0  0
   33.6140   28.5240   35.4100 N   0  0  0  0  0  0  0  0  0  0  0  0
   33.7150   28.9170   36.7040 C   0  0  0  0  0  0  0  0  0  0  0  0
   32.6210   29.2940   37.3660 N   0  0  0  0  0  0  0  0  0  0  0  0
   30.5740   29.6170   37.3890 H   0  0  0  0  0  0  0  0  0  0  0  0
   30.2930   28.9040   34.9880 H   0  0  0  0  0  0  0  0  0  0  0  0
   32.3460   28.1850   33.7150 H   0  0  0  0  0  0  0  0  0  0  0  0
  1 10  1  0  0  0  0
  1  9  1  0  0  0  0
  2  1  2  0  0  0  0
  3  4  2  0  0  0  0
  3  2  1  0  0  0  0
  4  8  1  0  0  0  0
  5  4  1  0  0  0  0
  5  6  1  0  0  0  0
  6 13  1  0  0  0  0
  6  7  2  0  0  0  0
  8  7  1  0  0  0  0
  8  9  2  0  0  0  0
  9 16  1  0  0  0  0
 11  3  1  0  0  0  0
 12  5  1  0  0  0  0
 14 15  1  0  0  0  0
 15 16  2  0  0  0  0
 15 23  1  0  0  0  0
 16 17  1  0  0  0  0
 17 19  2  0  0  0  0
 18 17  1  0  0  0  0
 19 21  1  0  0  0  0
 19 20  1  0  0  0  0
 21 22  1  0  0  0  0
 23 24  1  0  0  0  0
 23 21  2  0  0  0  0
 25 30  1  0  0  0  0
 25 31  1  0  0  0  0
 26 25  2  0  0  0  0
 27 28  2  0  0  0  0
 27 26  1  0  0  0  0
 28 29  1  0  0  0  0
 29  2  1  0  0  0  0
 29 30  2  0  0  0  0
 32 26  1  0  0  0  0
 33 27  1  0  0  0  0
M  END
>  <minimizedAffinity>
-5.44701338

$$$$
