
 OpenBabel03252507513D

 47 49  0  0  0  0  0  0  0  0999 V2000
   32.9960   28.9850   37.4660 C   0  0  0  0  0  0  0  0  0  0  0  0
   32.6600   27.9430   37.5500 H   0  0  0  0  0  0  0  0  0  0  0  0
   32.6690   29.4680   38.4300 H   0  0  0  0  0  0  0  0  0  0  0  0
   34.4670   29.0740   37.4280 C   0  0  0  0  0  0  0  0  0  0  0  0
   35.1730   28.7460   36.2340 C   0  0  0  0  0  0  0  0  0  0  0  0
   36.9200   29.0060   36.6780 S   0  0  0  0  0  0  0  0  0  0  0  0
   36.4110   29.5300   38.4540 C   0  0  0  0  0  0  0  0  0  0  0  0
   35.2780   29.4320   38.3900 N   0  0  0  0  0  0  0  0  0  0  0  0
   34.7800   28.4190   35.2820 H   0  0  0  0  0  0  0  0  0  0  0  0
   37.3290   29.9000   39.4290 O   0  0  0  0  0  0  0  0  0  0  0  0
   37.9710   30.2740   41.9570 O   0  0  0  0  0  0  0  0  0  0  0  0
   36.8190   29.7960   41.0570 P   0  0  1  0  0  0  0  0  0  0  0  0
   35.5220   30.8690   41.2380 O   0  0  0  0  0  0  0  0  0  0  0  0
   34.6880   30.4990   40.9120 H   0  0  0  0  0  0  0  0  0  0  0  0
   36.3380   28.2320   41.4000 O   0  0  0  0  0  0  0  0  0  0  0  0
   38.1320   27.4670   43.7540 Cl  0  0  0  0  0  0  0  0  0  0  0  0
   37.9360   26.5040   42.3060 C   0  0  0  0  0  0  0  0  0  0  0  0
   37.0690   27.0790   41.4020 C   0  0  0  0  0  0  0  0  0  0  0  0
   36.8430   26.3840   40.2060 C   0  0  0  0  0  0  0  0  0  0  0  0
   36.1900   26.6780   39.3680 H   0  0  0  0  0  0  0  0  0  0  0  0
   37.4700   25.1620   39.9430 C   0  0  0  0  0  0  0  0  0  0  0  0
   37.3250   24.5940   39.0370 H   0  0  0  0  0  0  0  0  0  0  0  0
   38.3320   24.6130   40.8690 C   0  0  0  0  0  0  0  0  0  0  0  0
   38.8480   23.6670   40.7190 H   0  0  0  0  0  0  0  0  0  0  0  0
   38.5510   25.3010   42.0430 C   0  0  0  0  0  0  0  0  0  0  0  0
   39.6140   24.7310   43.3060 Cl  0  0  0  0  0  0  0  0  0  0  0  0
   32.2980   29.7390   36.3720 C   0  0  0  0  0  0  0  0  0  0  0  0
   33.0350   30.4580   35.9640 H   0  0  0  0  0  0  0  0  0  0  0  0
   32.0690   29.0170   35.5490 H   0  0  0  0  0  0  0  0  0  0  0  0
   31.0540   30.3850   36.7910 C   0  0  0  0  0  0  0  0  0  0  0  0
   30.3850   31.1400   35.8360 C   0  0  0  0  0  0  0  0  0  0  0  0
   29.2030   31.7880   36.1340 C   0  0  0  0  0  0  0  0  0  0  0  0
   28.7290   31.6420   37.4310 N   0  0  0  0  0  0  0  0  0  0  0  0
   29.4180   30.8940   38.3320 C   0  0  0  0  0  0  0  0  0  0  0  0
   30.5600   30.2760   38.0200 N   0  0  0  0  0  0  0  0  0  0  0  0
   28.6670   32.3740   35.4190 H   0  0  0  0  0  0  0  0  0  0  0  0
   28.9530   30.8480   39.3240 H   0  0  0  0  0  0  0  0  0  0  0  0
   31.0610   31.2780   34.1860 S   0  0  0  0  0  0  0  0  0  0  0  0
   30.1790   32.5400   33.2510 C   0  0  0  0  0  0  0  0  0  0  0  0
   30.9130   33.2150   32.7330 H   0  0  0  0  0  0  0  0  0  0  0  0
   29.6280   33.1930   33.9820 H   0  0  0  0  0  0  0  0  0  0  0  0
   29.2490   31.8640   32.2800 C   0  0  0  0  0  0  0  0  0  0  0  0
   29.5770   30.8380   32.0540 H   0  0  0  0  0  0  0  0  0  0  0  0
   28.2190   31.7830   32.7110 H   0  0  0  0  0  0  0  0  0  0  0  0
   29.2550   32.5940   31.0530 N   0  0  0  0  0  0  0  0  0  0  0  0
   29.6940   33.5150   31.1690 H   0  0  0  0  0  0  0  0  0  0  0  0
   28.2700   32.7910   30.7050 H   0  0  0  0  0  0  0  0  0  0  0  0
  1  2  1  0  0  0  0
  1  3  1  0  0  0  0
  4  1  1  0  0  0  0
  4  8  1  0  0  0  0
  5  6  1  0  0  0  0
  5  4  2  0  0  0  0
  6  7  1  0  0  0  0
  7 10  1  0  0  0  0
  8  7  2  0  0  0  0
  9  5  1  0  0  0  0
 10 12  1  0  0  0  0
 12 13  1  0  0  0  0
 12 15  1  0  0  0  0
 12 11  2  1  0  0  0
 14 13  1  0  0  0  0
 15 18  1  0  0  0  0
 17 16  1  0  0  0  0
 18 17  2  0  0  0  0
 19 18  1  0  0  0  0
 20 19  1  0  0  0  0
 21 19  2  0  0  0  0
 21 23  1  0  0  0  0
 22 21  1  0  0  0  0
 23 25  2  0  0  0  0
 24 23  1  0  0  0  0
 25 17  1  0  0  0  0
 25 26  1  0  0  0  0
 27 30  1  0  0  0  0
 27  1  1  0  0  0  0
 28 27  1  0  0  0  0
 29 27  1  0  0  0  0
 30 35  1  0  0  0  0
 31 32  1  0  0  0  0
 31 30  2  0  0  0  0
 32 33  2  0  0  0  0
 33 34  1  0  0  0  0
 34 37  1  0  0  0  0
 35 34  2  0  0  0  0
 36 32  1  0  0  0  0
 38 31  1  0  0  0  0
 39 41  1  0  0  0  0
 39 38  1  0  0  0  0
 40 39  1  0  0  0  0
 42 44  1  0  0  0  0
 42 39  1  0  0  0  0
 43 42  1  0  0  0  0
 45 46  1  0  0  0  0
 45 42  1  0  0  0  0
 47 45  1  0  0  0  0
M  END
>  <minimizedAffinity>
-6.10235071

$$$$

 OpenBabel03252507513D

 47 49  0  0  0  0  0  0  0  0999 V2000
   41.9810   29.9790   41.3560 C   0  0  0  0  0  0  0  0  0  0  0  0
   43.0600   29.8990   41.1690 H   0  0  0  0  0  0  0  0  0  0  0  0
   41.5120   29.9710   40.3320 H   0  0  0  0  0  0  0  0  0  0  0  0
   41.4690   28.7910   42.0650 C   0  0  0  0  0  0  0  0  0  0  0  0
   42.2690   27.6170   42.1640 C   0  0  0  0  0  0  0  0  0  0  0  0
   41.2260   26.4590   43.1050 S   0  0  0  0  0  0  0  0  0  0  0  0
   39.8330   27.7760   43.2200 C   0  0  0  0  0  0  0  0  0  0  0  0
   40.3110   28.6430   42.6560 N   0  0  0  0  0  0  0  0  0  0  0  0
   43.2640   27.4390   41.7780 H   0  0  0  0  0  0  0  0  0  0  0  0
   38.6250   27.5490   43.8660 O   0  0  0  0  0  0  0  0  0  0  0  0
   37.2110   26.1510   42.1360 O   0  0  0  0  0  0  0  0  0  0  0  0
   37.2210   27.4910   42.8920 P   0  0  1  0  0  0  0  0  0  0  0  0
   35.8910   27.5210   43.9390 O   0  0  0  0  0  0  0  0  0  0  0  0
   35.6860   28.4160   44.2510 H   0  0  0  0  0  0  0  0  0  0  0  0
   37.1900   28.8110   41.8660 O   0  0  0  0  0  0  0  0  0  0  0  0
   39.0240   28.7680   39.4200 Cl  0  0  0  0  0  0  0  0  0  0  0  0
   37.2820   28.9230   39.3490 C   0  0  0  0  0  0  0  0  0  0  0  0
   36.6980   28.9140   40.5970 C   0  0  0  0  0  0  0  0  0  0  0  0
   35.3030   29.0330   40.6480 C   0  0  0  0  0  0  0  0  0  0  0  0
   34.6590   29.0450   41.5430 H   0  0  0  0  0  0  0  0  0  0  0  0
   34.5380   29.1550   39.4830 C   0  0  0  0  0  0  0  0  0  0  0  0
   33.4630   29.2490   39.4770 H   0  0  0  0  0  0  0  0  0  0  0  0
   35.1530   29.1600   38.2490 C   0  0  0  0  0  0  0  0  0  0  0  0
   34.6100   29.2530   37.3110 H   0  0  0  0  0  0  0  0  0  0  0  0
   36.5260   29.0430   38.2050 C   0  0  0  0  0  0  0  0  0  0  0  0
   37.4400   29.0350   36.7170 Cl  0  0  0  0  0  0  0  0  0  0  0  0
   41.5900   31.2890   41.9760 C   0  0  0  0  0  0  0  0  0  0  0  0
   41.3200   31.0740   43.0280 H   0  0  0  0  0  0  0  0  0  0  0  0
   42.5000   31.9400   42.0070 H   0  0  0  0  0  0  0  0  0  0  0  0
   40.5300   31.9970   41.2570 C   0  0  0  0  0  0  0  0  0  0  0  0
   40.9210   33.0440   40.4320 C   0  0  0  0  0  0  0  0  0  0  0  0
   39.9960   33.7730   39.7120 C   0  0  0  0  0  0  0  0  0  0  0  0
   38.6670   33.4010   39.8600 N   0  0  0  0  0  0  0  0  0  0  0  0
   38.3300   32.3690   40.6790 C   0  0  0  0  0  0  0  0  0  0  0  0
   39.2440   31.6790   41.3650 N   0  0  0  0  0  0  0  0  0  0  0  0
   40.2690   34.5820   39.0700 H   0  0  0  0  0  0  0  0  0  0  0  0
   37.2550   32.1640   40.7200 H   0  0  0  0  0  0  0  0  0  0  0  0
   42.6550   33.4610   40.2960 S   0  0  0  0  0  0  0  0  0  0  0  0
   43.2760   33.0290   38.6620 C   0  0  0  0  0  0  0  0  0  0  0  0
   42.5410   32.3600   38.1370 H   0  0  0  0  0  0  0  0  0  0  0  0
   44.2070   32.4130   38.7950 H   0  0  0  0  0  0  0  0  0  0  0  0
   43.5380   34.2960   37.8910 C   0  0  0  0  0  0  0  0  0  0  0  0
   43.3670   35.1890   38.5110 H   0  0  0  0  0  0  0  0  0  0  0  0
   44.6050   34.3390   37.5540 H   0  0  0  0  0  0  0  0  0  0  0  0
   42.6310   34.3610   36.7900 N   0  0  0  0  0  0  0  0  0  0  0  0
   42.1720   33.4570   36.6310 H   0  0  0  0  0  0  0  0  0  0  0  0
   43.1300   34.5890   35.8790 H   0  0  0  0  0  0  0  0  0  0  0  0
  1 27  1  0  0  0  0
  1  4  1  0  0  0  0
  2  1  1  0  0  0  0
  3  1  1  0  0  0  0
  4  5  2  0  0  0  0
  4  8  1  0  0  0  0
  5  6  1  0  0  0  0
  6  7  1  0  0  0  0
  7 10  1  0  0  0  0
  8  7  2  0  0  0  0
  9  5  1  0  0  0  0
 12 11  2  6  0  0  0
 12 10  1  0  0  0  0
 12 13  1  0  0  0  0
 13 14  1  0  0  0  0
 15 12  1  0  0  0  0
 17 16  1  0  0  0  0
 17 18  1  0  0  0  0
 18 19  2  0  0  0  0
 18 15  1  0  0  0  0
 19 20  1  0  0  0  0
 21 19  1  0  0  0  0
 22 21  1  0  0  0  0
 23 21  2  0  0  0  0
 24 23  1  0  0  0  0
 25 23  1  0  0  0  0
 25 17  2  0  0  0  0
 26 25  1  0  0  0  0
 27 29  1  0  0  0  0
 27 28  1  0  0  0  0
 30 35  1  0  0  0  0
 30 27  1  0  0  0  0
 31 30  2  0  0  0  0
 32 33  2  0  0  0  0
 32 31  1  0  0  0  0
 33 34  1  0  0  0  0
 34 37  1  0  0  0  0
 34 35  2  0  0  0  0
 36 32  1  0  0  0  0
 38 31  1  0  0  0  0
 39 41  1  0  0  0  0
 39 38  1  0  0  0  0
 40 39  1  0  0  0  0
 42 43  1  0  0  0  0
 42 39  1  0  0  0  0
 44 42  1  0  0  0  0
 45 42  1  0  0  0  0
 46 45  1  0  0  0  0
 47 45  1  0  0  0  0
M  END
>  <minimizedAffinity>
-5.63825369

$$$$

 OpenBabel03252507513D

 47 49  0  0  0  0  0  0  0  0999 V2000
   37.8400   27.8800   43.5850 C   0  0  0  0  0  0  0  0  0  0  0  0
   38.2920   27.0360   44.1230 H   0  0  0  0  0  0  0  0  0  0  0  0
   37.3270   28.4860   44.3830 H   0  0  0  0  0  0  0  0  0  0  0  0
   38.8710   28.7520   42.9910 C   0  0  0  0  0  0  0  0  0  0  0  0
   40.1800   28.2460   42.7430 C   0  0  0  0  0  0  0  0  0  0  0  0
   41.0640   29.6660   42.0230 S   0  0  0  0  0  0  0  0  0  0  0  0
   39.4870   30.7510   42.1740 C   0  0  0  0  0  0  0  0  0  0  0  0
   38.7580   30.0050   42.6340 N   0  0  0  0  0  0  0  0  0  0  0  0
   40.5720   27.2560   42.9310 H   0  0  0  0  0  0  0  0  0  0  0  0
   39.4380   32.0790   41.7730 O   0  0  0  0  0  0  0  0  0  0  0  0
   38.5790   31.0770   39.4920 O   0  0  0  0  0  0  0  0  0  0  0  0
   38.7370   32.4070   40.2490 P   0  0  1  0  0  0  0  0  0  0  0  0
   37.1940   33.0400   40.5400 O   0  0  0  0  0  0  0  0  0  0  0  0
   37.2180   33.9790   40.7760 H   0  0  0  0  0  0  0  0  0  0  0  0
   39.6780   33.5130   39.4210 O   0  0  0  0  0  0  0  0  0  0  0  0
   42.0190   34.6600   41.0170 Cl  0  0  0  0  0  0  0  0  0  0  0  0
   42.1800   33.8180   39.4910 C   0  0  0  0  0  0  0  0  0  0  0  0
   40.9660   33.4040   38.9840 C   0  0  0  0  0  0  0  0  0  0  0  0
   40.9860   32.7190   37.7630 C   0  0  0  0  0  0  0  0  0  0  0  0
   40.1280   32.3120   37.2030 H   0  0  0  0  0  0  0  0  0  0  0  0
   42.1850   32.4660   37.0880 C   0  0  0  0  0  0  0  0  0  0  0  0
   42.2470   31.9430   36.1460 H   0  0  0  0  0  0  0  0  0  0  0  0
   43.3830   32.8930   37.6210 C   0  0  0  0  0  0  0  0  0  0  0  0
   44.3450   32.7260   37.1420 H   0  0  0  0  0  0  0  0  0  0  0  0
   43.3580   33.5670   38.8230 C   0  0  0  0  0  0  0  0  0  0  0  0
   44.7920   34.1670   39.6180 Cl  0  0  0  0  0  0  0  0  0  0  0  0
   36.7600   27.4570   42.6320 C   0  0  0  0  0  0  0  0  0  0  0  0
   35.8380   27.3380   43.2320 H   0  0  0  0  0  0  0  0  0  0  0  0
   36.5740   28.3050   41.9250 H   0  0  0  0  0  0  0  0  0  0  0  0
   37.0850   26.2600   41.8550 C   0  0  0  0  0  0  0  0  0  0  0  0
   37.2950   26.4330   40.4920 C   0  0  0  0  0  0  0  0  0  0  0  0
   37.6060   25.3650   39.6740 C   0  0  0  0  0  0  0  0  0  0  0  0
   37.6960   24.1230   40.2880 N   0  0  0  0  0  0  0  0  0  0  0  0
   37.4830   24.0020   41.6250 C   0  0  0  0  0  0  0  0  0  0  0  0
   37.1830   25.0500   42.3960 N   0  0  0  0  0  0  0  0  0  0  0  0
   37.7720   25.4690   38.6240 H   0  0  0  0  0  0  0  0  0  0  0  0
   37.5800   22.9770   42.0020 H   0  0  0  0  0  0  0  0  0  0  0  0
   37.1600   28.0660   39.7780 S   0  0  0  0  0  0  0  0  0  0  0  0
   35.4980   28.3360   39.1400 C   0  0  0  0  0  0  0  0  0  0  0  0
   34.9770   27.3500   39.0000 H   0  0  0  0  0  0  0  0  0  0  0  0
   35.5890   28.7800   38.1110 H   0  0  0  0  0  0  0  0  0  0  0  0
   34.7540   29.2400   40.0860 C   0  0  0  0  0  0  0  0  0  0  0  0
   33.9170   29.7490   39.5850 H   0  0  0  0  0  0  0  0  0  0  0  0
   34.3120   28.6510   40.9290 H   0  0  0  0  0  0  0  0  0  0  0  0
   35.6480   30.2500   40.5550 N   0  0  0  0  0  0  0  0  0  0  0  0
   36.6230   30.0150   40.3380 H   0  0  0  0  0  0  0  0  0  0  0  0
   35.6090   30.3520   41.6130 H   0  0  0  0  0  0  0  0  0  0  0  0
  1  2  1  0  0  0  0
  1  3  1  0  0  0  0
  4  1  1  0  0  0  0
  5  9  1  0  0  0  0
  5  4  2  0  0  0  0
  6  7  1  0  0  0  0
  6  5  1  0  0  0  0
  7  8  2  0  0  0  0
  8  4  1  0  0  0  0
 10  7  1  0  0  0  0
 12 11  2  6  0  0  0
 12 13  1  0  0  0  0
 12 10  1  0  0  0  0
 13 14  1  0  0  0  0
 15 12  1  0  0  0  0
 17 16  1  0  0  0  0
 18 15  1  0  0  0  0
 18 17  1  0  0  0  0
 19 18  2  0  0  0  0
 20 19  1  0  0  0  0
 21 23  2  0  0  0  0
 21 19  1  0  0  0  0
 22 21  1  0  0  0  0
 23 25  1  0  0  0  0
 24 23  1  0  0  0  0
 25 17  2  0  0  0  0
 25 26  1  0  0  0  0
 27 28  1  0  0  0  0
 27  1  1  0  0  0  0
 29 27  1  0  0  0  0
 30 35  1  0  0  0  0
 30 27  1  0  0  0  0
 31 30  2  0  0  0  0
 32 33  2  0  0  0  0
 32 31  1  0  0  0  0
 33 34  1  0  0  0  0
 34 37  1  0  0  0  0
 34 35  2  0  0  0  0
 36 32  1  0  0  0  0
 38 31  1  0  0  0  0
 39 38  1  0  0  0  0
 39 42  1  0  0  0  0
 40 39  1  0  0  0  0
 41 39  1  0  0  0  0
 42 45  1  0  0  0  0
 42 44  1  0  0  0  0
 43 42  1  0  0  0  0
 45 47  1  0  0  0  0
 46 45  1  0  0  0  0
M  END
>  <minimizedAffinity>
-5.63109779

$$$$

 OpenBabel03252507513D

 47 49  0  0  0  0  0  0  0  0999 V2000
   39.5500   30.7670   42.5190 C   0  0  0  0  0  0  0  0  0  0  0  0
   38.4850   30.5140   42.4370 H   0  0  0  0  0  0  0  0  0  0  0  0
   39.6300   31.3610   43.4720 H   0  0  0  0  0  0  0  0  0  0  0  0
   40.3760   29.5590   42.7030 C   0  0  0  0  0  0  0  0  0  0  0  0
   41.7680   29.5900   42.4020 C   0  0  0  0  0  0  0  0  0  0  0  0
   42.3320   27.9020   42.7840 S   0  0  0  0  0  0  0  0  0  0  0  0
   40.5520   27.4020   43.3040 C   0  0  0  0  0  0  0  0  0  0  0  0
   39.9970   28.3820   43.1310 N   0  0  0  0  0  0  0  0  0  0  0  0
   42.3640   30.4140   42.0340 H   0  0  0  0  0  0  0  0  0  0  0  0
   40.2200   26.1300   43.7500 O   0  0  0  0  0  0  0  0  0  0  0  0
   40.2310   25.1720   41.2950 O   0  0  0  0  0  0  0  0  0  0  0  0
   39.4680   25.0840   42.6270 P   0  0  1  0  0  0  0  0  0  0  0  0
   39.6310   23.5110   43.2300 O   0  0  0  0  0  0  0  0  0  0  0  0
   38.9780   23.3080   43.9170 H   0  0  0  0  0  0  0  0  0  0  0  0
   37.8520   25.4880   42.4740 O   0  0  0  0  0  0  0  0  0  0  0  0
   37.2800   24.6140   39.6010 Cl  0  0  0  0  0  0  0  0  0  0  0  0
   36.8780   26.1870   40.2550 C   0  0  0  0  0  0  0  0  0  0  0  0
   37.2460   26.3200   41.5770 C   0  0  0  0  0  0  0  0  0  0  0  0
   36.9670   27.5460   42.1950 C   0  0  0  0  0  0  0  0  0  0  0  0
   37.1820   27.8410   43.2350 H   0  0  0  0  0  0  0  0  0  0  0  0
   36.3430   28.5870   41.5010 C   0  0  0  0  0  0  0  0  0  0  0  0
   36.1100   29.5470   41.9370 H   0  0  0  0  0  0  0  0  0  0  0  0
   35.9880   28.4230   40.1790 C   0  0  0  0  0  0  0  0  0  0  0  0
   35.5020   29.1970   39.5890 H   0  0  0  0  0  0  0  0  0  0  0  0
   36.2650   27.2150   39.5750 C   0  0  0  0  0  0  0  0  0  0  0  0
   35.8740   26.8620   37.9110 Cl  0  0  0  0  0  0  0  0  0  0  0  0
   40.0220   31.6810   41.4260 C   0  0  0  0  0  0  0  0  0  0  0  0
   40.2160   32.6640   41.8970 H   0  0  0  0  0  0  0  0  0  0  0  0
   41.0100   31.3010   41.0630 H   0  0  0  0  0  0  0  0  0  0  0  0
   39.1060   31.7730   40.2880 C   0  0  0  0  0  0  0  0  0  0  0  0
   39.6380   31.5110   39.0310 C   0  0  0  0  0  0  0  0  0  0  0  0
   38.8550   31.5720   37.8960 C   0  0  0  0  0  0  0  0  0  0  0  0
   37.5200   31.9060   38.0830 N   0  0  0  0  0  0  0  0  0  0  0  0
   37.0440   32.1540   39.3320 C   0  0  0  0  0  0  0  0  0  0  0  0
   37.8220   32.0890   40.4160 N   0  0  0  0  0  0  0  0  0  0  0  0
   39.2370   31.3760   36.9170 H   0  0  0  0  0  0  0  0  0  0  0  0
   35.9790   32.4080   39.3620 H   0  0  0  0  0  0  0  0  0  0  0  0
   41.3670   31.0870   38.8740 S   0  0  0  0  0  0  0  0  0  0  0  0
   42.3560   32.5710   38.6210 C   0  0  0  0  0  0  0  0  0  0  0  0
   43.3180   32.4920   39.1960 H   0  0  0  0  0  0  0  0  0  0  0  0
   41.8020   33.4390   39.0720 H   0  0  0  0  0  0  0  0  0  0  0  0
   42.5910   32.7520   37.1450 C   0  0  0  0  0  0  0  0  0  0  0  0
   43.6120   32.4570   36.8590 H   0  0  0  0  0  0  0  0  0  0  0  0
   41.8930   32.1090   36.5520 H   0  0  0  0  0  0  0  0  0  0  0  0
   42.4420   34.1350   36.8220 N   0  0  0  0  0  0  0  0  0  0  0  0
   41.9960   34.6520   37.5890 H   0  0  0  0  0  0  0  0  0  0  0  0
   41.8100   34.2790   35.9790 H   0  0  0  0  0  0  0  0  0  0  0  0
  1  4  1  0  0  0  0
  1  3  1  0  0  0  0
  2  1  1  0  0  0  0
  4  8  1  0  0  0  0
  5  4  2  0  0  0  0
  5  6  1  0  0  0  0
  6  7  1  0  0  0  0
  7 10  1  0  0  0  0
  8  7  2  0  0  0  0
  9  5  1  0  0  0  0
 12 11  2  6  0  0  0
 12 13  1  0  0  0  0
 12 10  1  0  0  0  0
 13 14  1  0  0  0  0
 15 12  1  0  0  0  0
 16 17  1  0  0  0  0
 17 18  1  0  0  0  0
 18 19  2  0  0  0  0
 18 15  1  0  0  0  0
 19 20  1  0  0  0  0
 21 22  1  0  0  0  0
 21 19  1  0  0  0  0
 23 21  2  0  0  0  0
 24 23  1  0  0  0  0
 25 23  1  0  0  0  0
 25 17  2  0  0  0  0
 26 25  1  0  0  0  0
 27 28  1  0  0  0  0
 27  1  1  0  0  0  0
 29 27  1  0  0  0  0
 30 35  1  0  0  0  0
 30 27  1  0  0  0  0
 31 30  2  0  0  0  0
 32 33  2  0  0  0  0
 32 31  1  0  0  0  0
 33 34  1  0  0  0  0
 34 37  1  0  0  0  0
 34 35  2  0  0  0  0
 36 32  1  0  0  0  0
 38 31  1  0  0  0  0
 39 38  1  0  0  0  0
 39 41  1  0  0  0  0
 39 40  1  0  0  0  0
 42 39  1  0  0  0  0
 43 42  1  0  0  0  0
 44 42  1  0  0  0  0
 45 42  1  0  0  0  0
 45 46  1  0  0  0  0
 47 45  1  0  0  0  0
M  END
>  <minimizedAffinity>
-5.60865355

$$$$

 OpenBabel03252507513D

 47 49  0  0  0  0  0  0  0  0999 V2000
   40.5430   28.1800   39.7000 C   0  0  0  0  0  0  0  0  0  0  0  0
   41.1810   27.4130   39.2410 H   0  0  0  0  0  0  0  0  0  0  0  0
   40.9210   28.2690   40.7580 H   0  0  0  0  0  0  0  0  0  0  0  0
   40.7460   29.4960   39.0670 C   0  0  0  0  0  0  0  0  0  0  0  0
   41.4550   29.5970   37.8360 C   0  0  0  0  0  0  0  0  0  0  0  0
   41.4410   31.3810   37.4710 S   0  0  0  0  0  0  0  0  0  0  0  0
   40.4530   31.7230   39.0830 C   0  0  0  0  0  0  0  0  0  0  0  0
   40.3460   30.6660   39.4950 N   0  0  0  0  0  0  0  0  0  0  0  0
   41.9020   28.8100   37.2450 H   0  0  0  0  0  0  0  0  0  0  0  0
   40.0600   32.9950   39.4760 O   0  0  0  0  0  0  0  0  0  0  0  0
   39.2440   32.1310   41.8290 O   0  0  0  0  0  0  0  0  0  0  0  0
   38.8640   33.0970   40.6940 P   0  0  1  0  0  0  0  0  0  0  0  0
   38.9120   34.6770   41.3020 O   0  0  0  0  0  0  0  0  0  0  0  0
   38.4440   35.3060   40.7330 H   0  0  0  0  0  0  0  0  0  0  0  0
   37.3620   32.7660   40.0390 O   0  0  0  0  0  0  0  0  0  0  0  0
   37.6720   31.7420   37.1750 Cl  0  0  0  0  0  0  0  0  0  0  0  0
   36.8210   30.8890   38.4450 C   0  0  0  0  0  0  0  0  0  0  0  0
   36.8310   31.5730   39.6410 C   0  0  0  0  0  0  0  0  0  0  0  0
   36.1750   30.9730   40.7240 C   0  0  0  0  0  0  0  0  0  0  0  0
   36.0740   31.3600   41.7510 H   0  0  0  0  0  0  0  0  0  0  0  0
   35.5370   29.7340   40.5940 C   0  0  0  0  0  0  0  0  0  0  0  0
   35.0200   29.2360   41.4000 H   0  0  0  0  0  0  0  0  0  0  0  0
   35.5450   29.0750   39.3830 C   0  0  0  0  0  0  0  0  0  0  0  0
   35.0670   28.1120   39.2230 H   0  0  0  0  0  0  0  0  0  0  0  0
   36.1930   29.6700   38.3210 C   0  0  0  0  0  0  0  0  0  0  0  0
   36.2850   28.9560   36.7310 Cl  0  0  0  0  0  0  0  0  0  0  0  0
   39.1070   27.7590   39.8120 C   0  0  0  0  0  0  0  0  0  0  0  0
   38.5450   28.3490   39.0630 H   0  0  0  0  0  0  0  0  0  0  0  0
   39.0370   26.6880   39.4920 H   0  0  0  0  0  0  0  0  0  0  0  0
   38.5510   27.8840   41.1590 C   0  0  0  0  0  0  0  0  0  0  0  0
   37.6580   26.9000   41.5650 C   0  0  0  0  0  0  0  0  0  0  0  0
   37.0790   26.9300   42.8180 C   0  0  0  0  0  0  0  0  0  0  0  0
   37.4400   27.9900   43.6390 N   0  0  0  0  0  0  0  0  0  0  0  0
   38.3180   28.9310   43.2000 C   0  0  0  0  0  0  0  0  0  0  0  0
   38.8640   28.8790   41.9820 N   0  0  0  0  0  0  0  0  0  0  0  0
   36.3900   26.1870   43.1560 H   0  0  0  0  0  0  0  0  0  0  0  0
   38.5290   29.7210   43.9290 H   0  0  0  0  0  0  0  0  0  0  0  0
   37.2460   25.5660   40.4480 S   0  0  0  0  0  0  0  0  0  0  0  0
   37.8770   24.0020   41.0800 C   0  0  0  0  0  0  0  0  0  0  0  0
   37.8470   23.2230   40.2700 H   0  0  0  0  0  0  0  0  0  0  0  0
   37.1720   23.6400   41.8770 H   0  0  0  0  0  0  0  0  0  0  0  0
   39.2700   24.2180   41.6070 C   0  0  0  0  0  0  0  0  0  0  0  0
   40.0000   23.5690   41.1000 H   0  0  0  0  0  0  0  0  0  0  0  0
   39.6010   25.2730   41.4300 H   0  0  0  0  0  0  0  0  0  0  0  0
   39.2930   23.8810   42.9950 N   0  0  0  0  0  0  0  0  0  0  0  0
   38.3430   23.7920   43.3740 H   0  0  0  0  0  0  0  0  0  0  0  0
   39.7610   24.6380   43.5780 H   0  0  0  0  0  0  0  0  0  0  0  0
  1 27  1  0  0  0  0
  1  3  1  0  0  0  0
  2  1  1  0  0  0  0
  4  8  1  0  0  0  0
  4  1  1  0  0  0  0
  5  4  2  0  0  0  0
  6  5  1  0  0  0  0
  6  7  1  0  0  0  0
  7 10  1  0  0  0  0
  7  8  2  0  0  0  0
  9  5  1  0  0  0  0
 10 12  1  0  0  0  0
 12 13  1  0  0  0  0
 12 11  2  1  0  0  0
 14 13  1  0  0  0  0
 15 12  1  0  0  0  0
 16 17  1  0  0  0  0
 17 18  1  0  0  0  0
 18 15  1  0  0  0  0
 18 19  2  0  0  0  0
 19 20  1  0  0  0  0
 21 19  1  0  0  0  0
 21 22  1  0  0  0  0
 23 21  2  0  0  0  0
 24 23  1  0  0  0  0
 25 17  2  0  0  0  0
 25 23  1  0  0  0  0
 26 25  1  0  0  0  0
 27 30  1  0  0  0  0
 28 27  1  0  0  0  0
 29 27  1  0  0  0  0
 30 31  2  0  0  0  0
 30 35  1  0  0  0  0
 31 32  1  0  0  0  0
 32 36  1  0  0  0  0
 32 33  2  0  0  0  0
 34 33  1  0  0  0  0
 34 37  1  0  0  0  0
 35 34  2  0  0  0  0
 38 39  1  0  0  0  0
 38 31  1  0  0  0  0
 39 42  1  0  0  0  0
 39 41  1  0  0  0  0
 40 39  1  0  0  0  0
 42 45  1  0  0  0  0
 43 42  1  0  0  0  0
 44 42  1  0  0  0  0
 45 46  1  0  0  0  0
 45 47  1  0  0  0  0
M  END
>  <minimizedAffinity>
-5.60092115

$$$$

 OpenBabel03252507513D

 47 49  0  0  0  0  0  0  0  0999 V2000
   39.8770   30.6820   42.3850 C   0  0  0  0  0  0  0  0  0  0  0  0
   39.5120   31.5550   42.9440 H   0  0  0  0  0  0  0  0  0  0  0  0
   40.9550   30.5770   42.6920 H   0  0  0  0  0  0  0  0  0  0  0  0
   39.1940   29.4470   42.8130 C   0  0  0  0  0  0  0  0  0  0  0  0
   37.7710   29.3810   42.8170 C   0  0  0  0  0  0  0  0  0  0  0  0
   37.4170   27.6960   43.4090 S   0  0  0  0  0  0  0  0  0  0  0  0
   39.2960   27.3340   43.5630 C   0  0  0  0  0  0  0  0  0  0  0  0
   39.7340   28.3260   43.2170 N   0  0  0  0  0  0  0  0  0  0  0  0
   37.0560   30.1420   42.5380 H   0  0  0  0  0  0  0  0  0  0  0  0
   39.8010   26.1170   44.0010 O   0  0  0  0  0  0  0  0  0  0  0  0
   41.7990   24.9490   42.7410 O   0  0  0  0  0  0  0  0  0  0  0  0
   40.2630   24.9890   42.8020 P   0  0  1  0  0  0  0  0  0  0  0  0
   39.7110   23.4720   43.3110 O   0  0  0  0  0  0  0  0  0  0  0  0
   38.7680   23.3400   43.1290 H   0  0  0  0  0  0  0  0  0  0  0  0
   39.5690   25.4040   41.3390 O   0  0  0  0  0  0  0  0  0  0  0  0
   36.6790   24.4600   41.6610 Cl  0  0  0  0  0  0  0  0  0  0  0  0
   37.7070   24.0550   40.3040 C   0  0  0  0  0  0  0  0  0  0  0  0
   38.9640   24.6110   40.4070 C   0  0  0  0  0  0  0  0  0  0  0  0
   39.8660   24.3450   39.3680 C   0  0  0  0  0  0  0  0  0  0  0  0
   40.9060   24.6960   39.2710 H   0  0  0  0  0  0  0  0  0  0  0  0
   39.5050   23.5500   38.2750 C   0  0  0  0  0  0  0  0  0  0  0  0
   40.1670   23.3200   37.4540 H   0  0  0  0  0  0  0  0  0  0  0  0
   38.2390   23.0090   38.2010 C   0  0  0  0  0  0  0  0  0  0  0  0
   37.9030   22.3840   37.3770 H   0  0  0  0  0  0  0  0  0  0  0  0
   37.3560   23.2730   39.2260 C   0  0  0  0  0  0  0  0  0  0  0  0
   35.7230   22.6570   39.2690 Cl  0  0  0  0  0  0  0  0  0  0  0  0
   39.8930   30.9010   40.9000 C   0  0  0  0  0  0  0  0  0  0  0  0
   40.9530   31.0330   40.6110 H   0  0  0  0  0  0  0  0  0  0  0  0
   39.5440   29.9580   40.4100 H   0  0  0  0  0  0  0  0  0  0  0  0
   39.0450   32.0060   40.4510 C   0  0  0  0  0  0  0  0  0  0  0  0
   37.9990   31.6870   39.5940 C   0  0  0  0  0  0  0  0  0  0  0  0
   37.1440   32.6590   39.1150 C   0  0  0  0  0  0  0  0  0  0  0  0
   37.3890   33.9590   39.5360 N   0  0  0  0  0  0  0  0  0  0  0  0
   38.4250   34.2250   40.3760 C   0  0  0  0  0  0  0  0  0  0  0  0
   39.2390   33.2660   40.8260 N   0  0  0  0  0  0  0  0  0  0  0  0
   36.3320   32.4430   38.4560 H   0  0  0  0  0  0  0  0  0  0  0  0
   38.5250   35.2830   40.6420 H   0  0  0  0  0  0  0  0  0  0  0  0
   37.7500   29.9880   39.0980 S   0  0  0  0  0  0  0  0  0  0  0  0
   36.0030   29.6740   38.7920 C   0  0  0  0  0  0  0  0  0  0  0  0
   35.8880   28.9560   37.9350 H   0  0  0  0  0  0  0  0  0  0  0  0
   35.5320   30.6350   38.4490 H   0  0  0  0  0  0  0  0  0  0  0  0
   35.3740   29.1530   40.0560 C   0  0  0  0  0  0  0  0  0  0  0  0
   35.5880   28.0830   40.2030 H   0  0  0  0  0  0  0  0  0  0  0  0
   35.7840   29.6870   40.9510 H   0  0  0  0  0  0  0  0  0  0  0  0
   33.9560   29.2950   39.9570 N   0  0  0  0  0  0  0  0  0  0  0  0
   33.6970   29.9090   39.1770 H   0  0  0  0  0  0  0  0  0  0  0  0
   33.5430   29.7480   40.8250 H   0  0  0  0  0  0  0  0  0  0  0  0
  1  3  1  0  0  0  0
  1  4  1  0  0  0  0
  1  2  1  0  0  0  0
  4  5  2  0  0  0  0
  4  8  1  0  0  0  0
  5  6  1  0  0  0  0
  6  7  1  0  0  0  0
  7 10  1  0  0  0  0
  8  7  2  0  0  0  0
  9  5  1  0  0  0  0
 12 11  2  6  0  0  0
 12 13  1  0  0  0  0
 12 10  1  0  0  0  0
 14 13  1  0  0  0  0
 15 12  1  0  0  0  0
 17 18  1  0  0  0  0
 17 16  1  0  0  0  0
 18 15  1  0  0  0  0
 19 18  2  0  0  0  0
 20 19  1  0  0  0  0
 21 19  1  0  0  0  0
 22 21  1  0  0  0  0
 23 21  2  0  0  0  0
 23 25  1  0  0  0  0
 24 23  1  0  0  0  0
 25 26  1  0  0  0  0
 25 17  2  0  0  0  0
 27  1  1  0  0  0  0
 28 27  1  0  0  0  0
 29 27  1  0  0  0  0
 30 35  1  0  0  0  0
 30 27  1  0  0  0  0
 31 30  2  0  0  0  0
 32 33  2  0  0  0  0
 32 31  1  0  0  0  0
 33 34  1  0  0  0  0
 34 37  1  0  0  0  0
 34 35  2  0  0  0  0
 36 32  1  0  0  0  0
 38 31  1  0  0  0  0
 39 38  1  0  0  0  0
 39 42  1  0  0  0  0
 40 39  1  0  0  0  0
 41 39  1  0  0  0  0
 42 43  1  0  0  0  0
 42 44  1  0  0  0  0
 45 42  1  0  0  0  0
 45 47  1  0  0  0  0
 46 45  1  0  0  0  0
M  END
>  <minimizedAffinity>
-5.58884573

$$$$

 OpenBabel03252507513D

 47 49  0  0  0  0  0  0  0  0999 V2000
   37.0170   24.0940   40.7350 C   0  0  0  0  0  0  0  0  0  0  0  0
   36.4960   23.1270   40.7230 H   0  0  0  0  0  0  0  0  0  0  0  0
   38.1060   23.8330   40.6100 H   0  0  0  0  0  0  0  0  0  0  0  0
   36.6450   24.9180   39.5700 C   0  0  0  0  0  0  0  0  0  0  0  0
   35.7090   24.4260   38.6150 C   0  0  0  0  0  0  0  0  0  0  0  0
   35.5820   25.7750   37.3980 S   0  0  0  0  0  0  0  0  0  0  0  0
   36.8470   26.8210   38.3950 C   0  0  0  0  0  0  0  0  0  0  0  0
   37.0730   26.1150   39.2600 N   0  0  0  0  0  0  0  0  0  0  0  0
   35.1880   23.4790   38.6010 H   0  0  0  0  0  0  0  0  0  0  0  0
   37.2580   28.0890   38.0060 O   0  0  0  0  0  0  0  0  0  0  0  0
   39.3510   26.8360   37.0090 O   0  0  0  0  0  0  0  0  0  0  0  0
   38.6100   28.1830   36.9650 P   0  0  1  0  0  0  0  0  0  0  0  0
   38.0130   28.4100   35.3970 O   0  0  0  0  0  0  0  0  0  0  0  0
   37.7660   29.3320   35.2250 H   0  0  0  0  0  0  0  0  0  0  0  0
   39.5810   29.4680   37.4150 O   0  0  0  0  0  0  0  0  0  0  0  0
   37.5490   31.7350   37.1270 Cl  0  0  0  0  0  0  0  0  0  0  0  0
   38.5690   31.4910   38.5290 C   0  0  0  0  0  0  0  0  0  0  0  0
   39.3940   30.3950   38.3990 C   0  0  0  0  0  0  0  0  0  0  0  0
   40.2520   30.1130   39.4710 C   0  0  0  0  0  0  0  0  0  0  0  0
   40.9780   29.2890   39.5550 H   0  0  0  0  0  0  0  0  0  0  0  0
   40.2690   30.9110   40.6200 C   0  0  0  0  0  0  0  0  0  0  0  0
   40.9120   30.7300   41.4680 H   0  0  0  0  0  0  0  0  0  0  0  0
   39.4300   32.0010   40.7190 C   0  0  0  0  0  0  0  0  0  0  0  0
   39.4000   32.6560   41.5870 H   0  0  0  0  0  0  0  0  0  0  0  0
   38.5890   32.2730   39.6620 C   0  0  0  0  0  0  0  0  0  0  0  0
   37.4740   33.6170   39.6450 Cl  0  0  0  0  0  0  0  0  0  0  0  0
   36.9140   24.8000   42.0550 C   0  0  0  0  0  0  0  0  0  0  0  0
   36.1650   25.6050   41.9250 H   0  0  0  0  0  0  0  0  0  0  0  0
   36.4820   24.0810   42.7960 H   0  0  0  0  0  0  0  0  0  0  0  0
   38.1910   25.2950   42.5690 C   0  0  0  0  0  0  0  0  0  0  0  0
   38.2540   26.6420   42.9040 C   0  0  0  0  0  0  0  0  0  0  0  0
   39.4140   27.2040   43.3970 C   0  0  0  0  0  0  0  0  0  0  0  0
   40.5020   26.3530   43.5350 N   0  0  0  0  0  0  0  0  0  0  0  0
   40.3950   25.0420   43.1940 C   0  0  0  0  0  0  0  0  0  0  0  0
   39.2600   24.5210   42.7200 N   0  0  0  0  0  0  0  0  0  0  0  0
   39.4910   28.2360   43.6630 H   0  0  0  0  0  0  0  0  0  0  0  0
   41.3140   24.4640   43.3440 H   0  0  0  0  0  0  0  0  0  0  0  0
   36.8080   27.6730   42.6970 S   0  0  0  0  0  0  0  0  0  0  0  0
   37.2470   29.2090   41.8660 C   0  0  0  0  0  0  0  0  0  0  0  0
   38.2150   29.0800   41.3090 H   0  0  0  0  0  0  0  0  0  0  0  0
   37.4510   29.9840   42.6550 H   0  0  0  0  0  0  0  0  0  0  0  0
   36.1180   29.6090   40.9550 C   0  0  0  0  0  0  0  0  0  0  0  0
   36.4410   29.6460   39.9030 H   0  0  0  0  0  0  0  0  0  0  0  0
   35.2850   28.8630   41.0070 H   0  0  0  0  0  0  0  0  0  0  0  0
   35.6790   30.9200   41.3130 N   0  0  0  0  0  0  0  0  0  0  0  0
   36.0550   31.2030   42.2250 H   0  0  0  0  0  0  0  0  0  0  0  0
   34.6220   30.9700   41.4140 H   0  0  0  0  0  0  0  0  0  0  0  0
  1 27  1  0  0  0  0
  2  1  1  0  0  0  0
  3  1  1  0  0  0  0
  4  1  1  0  0  0  0
  5  4  2  0  0  0  0
  6  7  1  0  0  0  0
  6  5  1  0  0  0  0
  7  8  2  0  0  0  0
  8  4  1  0  0  0  0
  9  5  1  0  0  0  0
 10  7  1  0  0  0  0
 12 11  2  1  0  0  0
 12 15  1  0  0  0  0
 12 10  1  0  0  0  0
 13 12  1  0  0  0  0
 14 13  1  0  0  0  0
 15 18  1  0  0  0  0
 16 17  1  0  0  0  0
 17 25  1  0  0  0  0
 18 17  2  0  0  0  0
 18 19  1  0  0  0  0
 19 20  1  0  0  0  0
 19 21  2  0  0  0  0
 21 23  1  0  0  0  0
 21 22  1  0  0  0  0
 23 24  1  0  0  0  0
 25 23  2  0  0  0  0
 26 25  1  0  0  0  0
 27 30  1  0  0  0  0
 27 29  1  0  0  0  0
 28 27  1  0  0  0  0
 30 35  2  0  0  0  0
 30 31  1  0  0  0  0
 31 32  2  0  0  0  0
 32 33  1  0  0  0  0
 32 36  1  0  0  0  0
 34 37  1  0  0  0  0
 34 33  2  0  0  0  0
 35 34  1  0  0  0  0
 38 31  1  0  0  0  0
 39 41  1  0  0  0  0
 39 38  1  0  0  0  0
 40 39  1  0  0  0  0
 42 44  1  0  0  0  0
 42 45  1  0  0  0  0
 42 39  1  0  0  0  0
 43 42  1  0  0  0  0
 45 47  1  0  0  0  0
 45 46  1  0  0  0  0
M  END
>  <minimizedAffinity>
-5.56592846

$$$$

 OpenBabel03252507513D

 47 49  0  0  0  0  0  0  0  0999 V2000
   39.3800   30.7170   42.3030 C   0  0  0  0  0  0  0  0  0  0  0  0
   39.0330   31.5370   42.9450 H   0  0  0  0  0  0  0  0  0  0  0  0
   40.4890   30.6580   42.4900 H   0  0  0  0  0  0  0  0  0  0  0  0
   38.8120   29.4240   42.7290 C   0  0  0  0  0  0  0  0  0  0  0  0
   37.4040   29.2110   42.6820 C   0  0  0  0  0  0  0  0  0  0  0  0
   37.2020   27.5080   43.2910 S   0  0  0  0  0  0  0  0  0  0  0  0
   39.1010   27.3440   43.5220 C   0  0  0  0  0  0  0  0  0  0  0  0
   39.4480   28.3720   43.1740 N   0  0  0  0  0  0  0  0  0  0  0  0
   36.6250   29.8910   42.3620 H   0  0  0  0  0  0  0  0  0  0  0  0
   39.7110   26.1920   44.0010 O   0  0  0  0  0  0  0  0  0  0  0  0
   41.7180   24.9720   42.8050 O   0  0  0  0  0  0  0  0  0  0  0  0
   40.1810   25.0230   42.8460 P   0  0  1  0  0  0  0  0  0  0  0  0
   39.6140   23.5260   43.3990 O   0  0  0  0  0  0  0  0  0  0  0  0
   38.6730   23.3940   43.2090 H   0  0  0  0  0  0  0  0  0  0  0  0
   39.5070   25.3930   41.3620 O   0  0  0  0  0  0  0  0  0  0  0  0
   36.6550   24.3120   41.5740 Cl  0  0  0  0  0  0  0  0  0  0  0  0
   37.7580   23.9450   40.2660 C   0  0  0  0  0  0  0  0  0  0  0  0
   38.9810   24.5620   40.4150 C   0  0  0  0  0  0  0  0  0  0  0  0
   39.9370   24.3310   39.4170 C   0  0  0  0  0  0  0  0  0  0  0  0
   40.9620   24.7310   39.3590 H   0  0  0  0  0  0  0  0  0  0  0  0
   39.6610   23.5090   38.3190 C   0  0  0  0  0  0  0  0  0  0  0  0
   40.3670   23.3040   37.5280 H   0  0  0  0  0  0  0  0  0  0  0  0
   38.4270   22.9060   38.1980 C   0  0  0  0  0  0  0  0  0  0  0  0
   38.1560   22.2580   37.3680 H   0  0  0  0  0  0  0  0  0  0  0  0
   37.4900   23.1370   39.1830 C   0  0  0  0  0  0  0  0  0  0  0  0
   35.8880   22.4430   39.1660 Cl  0  0  0  0  0  0  0  0  0  0  0  0
   39.2260   31.0120   40.8390 C   0  0  0  0  0  0  0  0  0  0  0  0
   39.8490   30.2730   40.3000 H   0  0  0  0  0  0  0  0  0  0  0  0
   38.1640   30.8000   40.5570 H   0  0  0  0  0  0  0  0  0  0  0  0
   39.5440   32.3920   40.4720 C   0  0  0  0  0  0  0  0  0  0  0  0
   40.6480   32.5860   39.6510 C   0  0  0  0  0  0  0  0  0  0  0  0
   41.0300   33.8500   39.2500 C   0  0  0  0  0  0  0  0  0  0  0  0
   40.2530   34.9040   39.7110 N   0  0  0  0  0  0  0  0  0  0  0  0
   39.1820   34.6680   40.5130 C   0  0  0  0  0  0  0  0  0  0  0  0
   38.8320   33.4350   40.8870 N   0  0  0  0  0  0  0  0  0  0  0  0
   41.8730   34.0280   38.6190 H   0  0  0  0  0  0  0  0  0  0  0  0
   38.6420   35.5720   40.8170 H   0  0  0  0  0  0  0  0  0  0  0  0
   41.5970   31.1740   39.0990 S   0  0  0  0  0  0  0  0  0  0  0  0
   43.1150   31.7150   38.2970 C   0  0  0  0  0  0  0  0  0  0  0  0
   43.9810   31.0960   38.6590 H   0  0  0  0  0  0  0  0  0  0  0  0
   43.3310   32.7660   38.6320 H   0  0  0  0  0  0  0  0  0  0  0  0
   42.9370   31.6200   36.8050 C   0  0  0  0  0  0  0  0  0  0  0  0
   42.5420   32.5570   36.3840 H   0  0  0  0  0  0  0  0  0  0  0  0
   43.9190   31.4310   36.3010 H   0  0  0  0  0  0  0  0  0  0  0  0
   41.9880   30.5910   36.5190 N   0  0  0  0  0  0  0  0  0  0  0  0
   41.8140   30.0050   37.3440 H   0  0  0  0  0  0  0  0  0  0  0  0
   42.3390   29.9270   35.7680 H   0  0  0  0  0  0  0  0  0  0  0  0
  1  3  1  0  0  0  0
  1  4  1  0  0  0  0
  1  2  1  0  0  0  0
  4  8  1  0  0  0  0
  5  4  2  0  0  0  0
  5  6  1  0  0  0  0
  6  7  1  0  0  0  0
  7 10  1  0  0  0  0
  8  7  2  0  0  0  0
  9  5  1  0  0  0  0
 12 11  2  6  0  0  0
 12 13  1  0  0  0  0
 12 10  1  0  0  0  0
 14 13  1  0  0  0  0
 15 12  1  0  0  0  0
 17 18  1  0  0  0  0
 17 16  1  0  0  0  0
 18 15  1  0  0  0  0
 19 18  2  0  0  0  0
 20 19  1  0  0  0  0
 21 19  1  0  0  0  0
 22 21  1  0  0  0  0
 23 21  2  0  0  0  0
 23 25  1  0  0  0  0
 24 23  1  0  0  0  0
 25 17  2  0  0  0  0
 26 25  1  0  0  0  0
 27  1  1  0  0  0  0
 28 27  1  0  0  0  0
 29 27  1  0  0  0  0
 30 27  1  0  0  0  0
 30 35  1  0  0  0  0
 31 30  2  0  0  0  0
 32 31  1  0  0  0  0
 32 33  2  0  0  0  0
 33 34  1  0  0  0  0
 34 37  1  0  0  0  0
 34 35  2  0  0  0  0
 36 32  1  0  0  0  0
 38 31  1  0  0  0  0
 39 41  1  0  0  0  0
 39 40  1  0  0  0  0
 39 38  1  0  0  0  0
 42 39  1  0  0  0  0
 43 42  1  0  0  0  0
 44 42  1  0  0  0  0
 45 42  1  0  0  0  0
 45 46  1  0  0  0  0
 47 45  1  0  0  0  0
M  END
>  <minimizedAffinity>
-5.52255011

$$$$

 OpenBabel03252507513D

 47 49  0  0  0  0  0  0  0  0999 V2000
   40.3390   28.5450   38.4240 C   0  0  0  0  0  0  0  0  0  0  0  0
   39.9700   28.1000   37.4910 H   0  0  0  0  0  0  0  0  0  0  0  0
   41.2870   27.9820   38.6530 H   0  0  0  0  0  0  0  0  0  0  0  0
   40.7220   29.9560   38.2320 C   0  0  0  0  0  0  0  0  0  0  0  0
   41.6330   30.3170   37.1980 C   0  0  0  0  0  0  0  0  0  0  0  0
   41.7830   32.1240   37.3630 S   0  0  0  0  0  0  0  0  0  0  0  0
   40.5590   32.1110   38.8420 C   0  0  0  0  0  0  0  0  0  0  0  0
   40.3230   30.9990   38.9140 N   0  0  0  0  0  0  0  0  0  0  0  0
   42.1280   29.6800   36.4780 H   0  0  0  0  0  0  0  0  0  0  0  0
   40.1790   33.2600   39.5230 O   0  0  0  0  0  0  0  0  0  0  0  0
   39.2990   32.0040   41.6650 O   0  0  0  0  0  0  0  0  0  0  0  0
   38.9160   33.1070   40.6640 P   0  0  1  0  0  0  0  0  0  0  0  0
   38.8230   34.5760   41.5000 O   0  0  0  0  0  0  0  0  0  0  0  0
   38.3440   35.2550   41.0020 H   0  0  0  0  0  0  0  0  0  0  0  0
   37.4760   32.7900   39.8740 O   0  0  0  0  0  0  0  0  0  0  0  0
   37.5720   31.7230   37.0110 Cl  0  0  0  0  0  0  0  0  0  0  0  0
   36.8170   30.8900   38.3530 C   0  0  0  0  0  0  0  0  0  0  0  0
   36.9160   31.5920   39.5350 C   0  0  0  0  0  0  0  0  0  0  0  0
   36.3420   31.0090   40.6720 C   0  0  0  0  0  0  0  0  0  0  0  0
   36.3180   31.4120   41.6980 H   0  0  0  0  0  0  0  0  0  0  0  0
   35.6950   29.7700   40.6090 C   0  0  0  0  0  0  0  0  0  0  0  0
   35.2390   29.2850   41.4590 H   0  0  0  0  0  0  0  0  0  0  0  0
   35.6120   29.0930   39.4110 C   0  0  0  0  0  0  0  0  0  0  0  0
   35.1220   28.1280   39.3010 H   0  0  0  0  0  0  0  0  0  0  0  0
   36.1800   29.6710   38.2950 C   0  0  0  0  0  0  0  0  0  0  0  0
   36.1530   28.9330   36.7130 Cl  0  0  0  0  0  0  0  0  0  0  0  0
   39.4260   28.3020   39.5910 C   0  0  0  0  0  0  0  0  0  0  0  0
   40.0320   28.4530   40.5040 H   0  0  0  0  0  0  0  0  0  0  0  0
   38.6460   29.1040   39.5890 H   0  0  0  0  0  0  0  0  0  0  0  0
   38.7610   26.9990   39.5660 C   0  0  0  0  0  0  0  0  0  0  0  0
   38.8730   26.2130   40.7070 C   0  0  0  0  0  0  0  0  0  0  0  0
   38.2820   24.9680   40.7800 C   0  0  0  0  0  0  0  0  0  0  0  0
   37.5760   24.5530   39.6600 N   0  0  0  0  0  0  0  0  0  0  0  0
   37.4920   25.3550   38.5650 C   0  0  0  0  0  0  0  0  0  0  0  0
   38.0730   26.5560   38.5180 N   0  0  0  0  0  0  0  0  0  0  0  0
   38.3520   24.3440   41.6440 H   0  0  0  0  0  0  0  0  0  0  0  0
   36.9120   24.9270   37.7400 H   0  0  0  0  0  0  0  0  0  0  0  0
   39.8010   26.8210   42.1090 S   0  0  0  0  0  0  0  0  0  0  0  0
   38.6830   27.3480   43.4190 C   0  0  0  0  0  0  0  0  0  0  0  0
   39.1820   27.2300   44.4190 H   0  0  0  0  0  0  0  0  0  0  0  0
   37.8060   26.6440   43.4320 H   0  0  0  0  0  0  0  0  0  0  0  0
   38.2650   28.7710   43.1580 C   0  0  0  0  0  0  0  0  0  0  0  0
   39.0650   29.4810   43.4190 H   0  0  0  0  0  0  0  0  0  0  0  0
   38.0420   28.9240   42.0720 H   0  0  0  0  0  0  0  0  0  0  0  0
   37.1380   29.0770   43.9800 N   0  0  0  0  0  0  0  0  0  0  0  0
   36.7270   28.2270   44.3820 H   0  0  0  0  0  0  0  0  0  0  0  0
   36.3560   29.5340   43.4240 H   0  0  0  0  0  0  0  0  0  0  0  0
  1  3  1  0  0  0  0
  1 27  1  0  0  0  0
  2  1  1  0  0  0  0
  4  1  1  0  0  0  0
  4  8  1  0  0  0  0
  5  6  1  0  0  0  0
  5  4  2  0  0  0  0
  6  7  1  0  0  0  0
  7  8  2  0  0  0  0
  7 10  1  0  0  0  0
  9  5  1  0  0  0  0
 10 12  1  0  0  0  0
 12 13  1  0  0  0  0
 12 11  2  1  0  0  0
 14 13  1  0  0  0  0
 15 12  1  0  0  0  0
 16 17  1  0  0  0  0
 17 18  1  0  0  0  0
 18 15  1  0  0  0  0
 18 19  2  0  0  0  0
 19 20  1  0  0  0  0
 21 19  1  0  0  0  0
 21 22  1  0  0  0  0
 23 21  2  0  0  0  0
 24 23  1  0  0  0  0
 25 17  2  0  0  0  0
 25 23  1  0  0  0  0
 26 25  1  0  0  0  0
 27 28  1  0  0  0  0
 29 27  1  0  0  0  0
 30 27  1  0  0  0  0
 30 31  1  0  0  0  0
 31 32  2  0  0  0  0
 31 38  1  0  0  0  0
 32 36  1  0  0  0  0
 33 32  1  0  0  0  0
 34 33  2  0  0  0  0
 35 34  1  0  0  0  0
 35 30  2  0  0  0  0
 37 34  1  0  0  0  0
 38 39  1  0  0  0  0
 39 41  1  0  0  0  0
 39 40  1  0  0  0  0
 42 39  1  0  0  0  0
 42 43  1  0  0  0  0
 42 45  1  0  0  0  0
 44 42  1  0  0  0  0
 45 46  1  0  0  0  0
 47 45  1  0  0  0  0
M  END
>  <minimizedAffinity>
-5.50641823

$$$$
