
 OpenBabel03242514123D

 48 51  0  0  1  0  0  0  0  0999 V2000
   39.4780   32.4920   40.5520 C   0  0  0  0  0  0  0  0  0  0  0  0
   38.5270   33.4850   40.5100 C   0  0  0  0  0  0  0  0  0  0  0  0
   38.8240   34.8430   40.4570 C   0  0  0  0  0  0  0  0  0  0  0  0
   40.1940   35.1250   40.4500 C   0  0  0  0  0  0  0  0  0  0  0  0
   41.1670   34.1070   40.4940 C   0  0  0  0  0  0  0  0  0  0  0  0
   40.8060   32.8120   40.5440 N   0  0  0  0  0  0  0  0  0  0  0  0
   37.4880   33.1660   40.5200 H   0  0  0  0  0  0  0  0  0  0  0  0
   38.0570   35.5720   40.4260 H   0  0  0  0  0  0  0  0  0  0  0  0
   40.3720   36.1900   40.4120 H   0  0  0  0  0  0  0  0  0  0  0  0
   42.5770   34.4790   40.4620 C   0  0  1  0  0  0  0  0  0  0  0  0
   43.1850   34.4470   41.9250 C   0  0  0  0  0  0  0  0  0  0  0  0
   44.4750   35.2860   41.7510 C   0  0  0  0  0  0  0  0  0  0  0  0
   45.4190   34.3530   40.9880 C   0  0  0  0  0  0  0  0  0  0  0  0
   44.8810   34.0260   39.6470 C   0  0  0  0  0  0  0  0  0  0  0  0
   43.4230   33.7870   39.5370 C   0  0  2  0  0  0  0  0  0  0  0  0
   42.5960   35.5960   40.2860 H   0  0  0  0  0  0  0  0  0  0  0  0
   43.4660   33.4110   42.1470 H   0  0  0  0  0  0  0  0  0  0  0  0
   42.4830   34.9220   42.6150 H   0  0  0  0  0  0  0  0  0  0  0  0
   44.8610   35.3990   42.7750 H   0  0  0  0  0  0  0  0  0  0  0  0
   44.2900   36.2290   41.2420 H   0  0  0  0  0  0  0  0  0  0  0  0
   45.6250   33.4890   41.6400 H   0  0  0  0  0  0  0  0  0  0  0  0
   46.3700   34.9190   40.9050 H   0  0  0  0  0  0  0  0  0  0  0  0
   45.2210   34.8630   38.9650 H   0  0  0  0  0  0  0  0  0  0  0  0
   45.4480   33.1530   39.2570 H   0  0  0  0  0  0  0  0  0  0  0  0
   43.2860   32.6670   39.6490 H   0  0  0  0  0  0  0  0  0  0  0  0
   42.9490   34.3490   37.8670 S   0  0  0  0  0  0  0  0  0  0  0  0
   43.1220   33.2530   36.9990 H   0  0  0  0  0  0  0  0  0  0  0  0
   39.4030   28.8500   40.3200 C   0  0  0  0  0  0  0  0  0  0  0  0
   38.1440   28.5060   40.7630 C   0  0  0  0  0  0  0  0  0  0  0  0
   37.3270   29.5400   41.1400 C   0  0  0  0  0  0  0  0  0  0  0  0
   37.8060   30.8190   41.0530 N   0  0  0  0  0  0  0  0  0  0  0  0
   39.0780   31.0990   40.6010 C   0  0  0  0  0  0  0  0  0  0  0  0
   39.8490   30.1330   40.2460 N   0  0  0  0  0  0  0  0  0  0  0  0
   36.0150   29.4160   41.6170 N   0  0  0  0  0  0  0  0  0  0  0  0
   40.0400   28.0090   40.0250 H   0  0  0  0  0  0  0  0  0  0  0  0
   35.6200   28.6010   42.1360 H   0  0  0  0  0  0  0  0  0  0  0  0
   35.2910   30.1320   41.5030 H   0  0  0  0  0  0  0  0  0  0  0  0
   36.7330   27.3100   38.3400 Cl  0  0  0  0  0  0  0  0  0  0  0  0
   36.9830   26.4740   39.8580 C   0  0  0  0  0  0  0  0  0  0  0  0
   37.6440   27.1690   40.8530 C   0  0  0  0  0  0  0  0  0  0  0  0
   37.8880   26.5840   42.0930 C   0  0  0  0  0  0  0  0  0  0  0  0
   38.3980   27.0610   42.9230 H   0  0  0  0  0  0  0  0  0  0  0  0
   37.4710   25.2780   42.3670 C   0  0  0  0  0  0  0  0  0  0  0  0
   37.6480   24.8050   43.3180 H   0  0  0  0  0  0  0  0  0  0  0  0
   36.8130   24.6000   41.3630 C   0  0  0  0  0  0  0  0  0  0  0  0
   36.4830   23.5870   41.5600 H   0  0  0  0  0  0  0  0  0  0  0  0
   36.5740   25.1840   40.1370 C   0  0  0  0  0  0  0  0  0  0  0  0
   35.7460   24.3290   38.8750 Cl  0  0  0  0  0  0  0  0  0  0  0  0
  1 32  1  0  0  0  0
  2  7  1  0  0  0  0
  2  1  2  0  0  0  0
  3  2  1  0  0  0  0
  4  3  2  0  0  0  0
  4  5  1  0  0  0  0
  5  6  2  0  0  0  0
  6  1  1  0  0  0  0
  8  3  1  0  0  0  0
  9  4  1  0  0  0  0
 10 16  1  6  0  0  0
 10  5  1  0  0  0  0
 10 11  1  0  0  0  0
 11 17  1  0  0  0  0
 11 18  1  0  0  0  0
 12 11  1  0  0  0  0
 12 19  1  0  0  0  0
 13 21  1  0  0  0  0
 13 12  1  0  0  0  0
 14 13  1  0  0  0  0
 15 14  1  0  0  0  0
 15 25  1  1  0  0  0
 15 10  1  0  0  0  0
 20 12  1  0  0  0  0
 22 13  1  0  0  0  0
 23 14  1  0  0  0  0
 24 14  1  0  0  0  0
 26 15  1  0  0  0  0
 27 26  1  0  0  0  0
 28 29  1  0  0  0  0
 29 40  1  0  0  0  0
 29 30  2  0  0  0  0
 30 34  1  0  0  0  0
 31 30  1  0  0  0  0
 32 31  2  0  0  0  0
 33 28  2  0  0  0  0
 33 32  1  0  0  0  0
 34 36  1  0  0  0  0
 35 28  1  0  0  0  0
 37 34  1  0  0  0  0
 38 39  1  0  0  0  0
 39 47  2  0  0  0  0
 39 40  1  0  0  0  0
 40 41  2  0  0  0  0
 41 43  1  0  0  0  0
 41 42  1  0  0  0  0
 43 44  1  0  0  0  0
 45 46  1  0  0  0  0
 45 43  2  0  0  0  0
 47 45  1  0  0  0  0
 48 47  1  0  0  0  0
M  END
>  <minimizedAffinity>
-6.83798409

$$$$

 OpenBabel03242514123D

 48 51  0  0  1  0  0  0  0  0999 V2000
   39.7110   32.9470   40.3610 C   0  0  0  0  0  0  0  0  0  0  0  0
   38.8270   33.9960   40.2740 C   0  0  0  0  0  0  0  0  0  0  0  0
   39.2020   35.3350   40.3400 C   0  0  0  0  0  0  0  0  0  0  0  0
   40.5770   35.5330   40.5030 C   0  0  0  0  0  0  0  0  0  0  0  0
   41.4810   34.4550   40.5920 C   0  0  0  0  0  0  0  0  0  0  0  0
   41.0460   33.1850   40.5220 N   0  0  0  0  0  0  0  0  0  0  0  0
   37.7780   33.7420   40.1480 H   0  0  0  0  0  0  0  0  0  0  0  0
   38.4840   36.1100   40.2670 H   0  0  0  0  0  0  0  0  0  0  0  0
   40.8160   36.5850   40.5510 H   0  0  0  0  0  0  0  0  0  0  0  0
   42.9030   34.7420   40.7420 C   0  0  1  0  0  0  0  0  0  0  0  0
   43.2690   34.9180   42.2740 C   0  0  0  0  0  0  0  0  0  0  0  0
   44.6330   35.6480   42.1930 C   0  0  0  0  0  0  0  0  0  0  0  0
   45.6080   34.5530   41.7510 C   0  0  0  0  0  0  0  0  0  0  0  0
   45.2640   34.0390   40.4050 C   0  0  0  0  0  0  0  0  0  0  0  0
   43.8270   33.8630   40.0890 C   0  0  2  0  0  0  0  0  0  0  0  0
   43.0390   35.8120   40.4020 H   0  0  0  0  0  0  0  0  0  0  0  0
   43.4280   33.9190   42.6960 H   0  0  0  0  0  0  0  0  0  0  0  0
   42.5070   35.5360   42.7540 H   0  0  0  0  0  0  0  0  0  0  0  0
   44.8610   35.9060   43.2370 H   0  0  0  0  0  0  0  0  0  0  0  0
   44.6060   36.5020   41.5210 H   0  0  0  0  0  0  0  0  0  0  0  0
   45.6400   33.7980   42.5530 H   0  0  0  0  0  0  0  0  0  0  0  0
   46.6020   35.0460   41.7430 H   0  0  0  0  0  0  0  0  0  0  0  0
   45.7730   34.7340   39.6700 H   0  0  0  0  0  0  0  0  0  0  0  0
   45.8140   33.0850   40.2540 H   0  0  0  0  0  0  0  0  0  0  0  0
   43.5850   32.7850   40.3470 H   0  0  0  0  0  0  0  0  0  0  0  0
   43.6680   34.1680   38.2980 S   0  0  0  0  0  0  0  0  0  0  0  0
   43.8880   32.9370   37.6490 H   0  0  0  0  0  0  0  0  0  0  0  0
   39.3580   29.3870   39.6310 C   0  0  0  0  0  0  0  0  0  0  0  0
   38.1670   29.0330   40.2270 C   0  0  0  0  0  0  0  0  0  0  0  0
   37.4920   30.0320   40.8800 C   0  0  0  0  0  0  0  0  0  0  0  0
   38.0350   31.2880   40.8950 N   0  0  0  0  0  0  0  0  0  0  0  0
   39.2330   31.5800   40.2790 C   0  0  0  0  0  0  0  0  0  0  0  0
   39.8710   30.6470   39.6650 N   0  0  0  0  0  0  0  0  0  0  0  0
   36.2690   29.8930   41.5500 N   0  0  0  0  0  0  0  0  0  0  0  0
   39.8820   28.5750   39.1150 H   0  0  0  0  0  0  0  0  0  0  0  0
   35.9100   29.0260   42.0070 H   0  0  0  0  0  0  0  0  0  0  0  0
   35.5850   30.6470   41.6620 H   0  0  0  0  0  0  0  0  0  0  0  0
   38.5860   27.2310   42.6490 Cl  0  0  0  0  0  0  0  0  0  0  0  0
   37.6910   26.7770   41.2140 C   0  0  0  0  0  0  0  0  0  0  0  0
   37.6000   27.7200   40.2090 C   0  0  0  0  0  0  0  0  0  0  0  0
   36.9080   27.4480   39.0310 C   0  0  0  0  0  0  0  0  0  0  0  0
   36.7910   28.1320   38.1980 H   0  0  0  0  0  0  0  0  0  0  0  0
   36.2850   26.2120   38.8320 C   0  0  0  0  0  0  0  0  0  0  0  0
   35.7460   25.9780   37.9310 H   0  0  0  0  0  0  0  0  0  0  0  0
   36.3870   25.2830   39.8450 C   0  0  0  0  0  0  0  0  0  0  0  0
   35.9100   24.3200   39.7060 H   0  0  0  0  0  0  0  0  0  0  0  0
   37.0730   25.5580   41.0090 C   0  0  0  0  0  0  0  0  0  0  0  0
   37.1980   24.3860   42.2830 Cl  0  0  0  0  0  0  0  0  0  0  0  0
  1  6  1  0  0  0  0
  2  3  1  0  0  0  0
  2  1  2  0  0  0  0
  3  4  2  0  0  0  0
  4  9  1  0  0  0  0
  4  5  1  0  0  0  0
  5 10  1  0  0  0  0
  6  5  2  0  0  0  0
  7  2  1  0  0  0  0
  8  3  1  0  0  0  0
 10 16  1  6  0  0  0
 10 11  1  0  0  0  0
 11 17  1  0  0  0  0
 11 18  1  0  0  0  0
 12 11  1  0  0  0  0
 12 19  1  0  0  0  0
 13 12  1  0  0  0  0
 13 21  1  0  0  0  0
 14 13  1  0  0  0  0
 15 25  1  1  0  0  0
 15 14  1  0  0  0  0
 15 10  1  0  0  0  0
 20 12  1  0  0  0  0
 22 13  1  0  0  0  0
 23 14  1  0  0  0  0
 24 14  1  0  0  0  0
 26 15  1  0  0  0  0
 27 26  1  0  0  0  0
 28 33  2  0  0  0  0
 28 29  1  0  0  0  0
 29 30  2  0  0  0  0
 30 31  1  0  0  0  0
 30 34  1  0  0  0  0
 32  1  1  0  0  0  0
 32 31  2  0  0  0  0
 33 32  1  0  0  0  0
 34 37  1  0  0  0  0
 34 36  1  0  0  0  0
 35 28  1  0  0  0  0
 39 38  1  0  0  0  0
 40 29  1  0  0  0  0
 40 39  2  0  0  0  0
 41 40  1  0  0  0  0
 42 41  1  0  0  0  0
 43 41  2  0  0  0  0
 43 45  1  0  0  0  0
 44 43  1  0  0  0  0
 45 47  2  0  0  0  0
 46 45  1  0  0  0  0
 47 39  1  0  0  0  0
 47 48  1  0  0  0  0
M  END
>  <minimizedAffinity>
-6.82730389

$$$$

 OpenBabel03242514123D

 48 51  0  0  1  0  0  0  0  0999 V2000
   37.6530   28.5570   42.1210 C   0  0  0  0  0  0  0  0  0  0  0  0
   37.0020   28.6240   43.3300 C   0  0  0  0  0  0  0  0  0  0  0  0
   36.4380   27.5250   43.9700 C   0  0  0  0  0  0  0  0  0  0  0  0
   36.5890   26.3220   43.2730 C   0  0  0  0  0  0  0  0  0  0  0  0
   37.2560   26.2560   42.0340 C   0  0  0  0  0  0  0  0  0  0  0  0
   37.7770   27.3610   41.4730 N   0  0  0  0  0  0  0  0  0  0  0  0
   36.9350   29.6040   43.7950 H   0  0  0  0  0  0  0  0  0  0  0  0
   35.9460   27.6250   44.9030 H   0  0  0  0  0  0  0  0  0  0  0  0
   36.1320   25.5020   43.8090 H   0  0  0  0  0  0  0  0  0  0  0  0
   37.3910   24.9600   41.3760 C   0  0  1  0  0  0  0  0  0  0  0  0
   36.4250   24.8780   40.1220 C   0  0  0  0  0  0  0  0  0  0  0  0
   36.3660   23.3520   39.8660 C   0  0  0  0  0  0  0  0  0  0  0  0
   37.7290   23.0310   39.2470 C   0  0  0  0  0  0  0  0  0  0  0  0
   38.8300   23.3100   40.1980 C   0  0  0  0  0  0  0  0  0  0  0  0
   38.7130   24.5260   41.0380 C   0  0  2  0  0  0  0  0  0  0  0  0
   36.8700   24.2170   42.0510 H   0  0  0  0  0  0  0  0  0  0  0  0
   36.9340   25.3580   39.2770 H   0  0  0  0  0  0  0  0  0  0  0  0
   35.4480   25.2820   40.3970 H   0  0  0  0  0  0  0  0  0  0  0  0
   35.6010   23.2420   39.0840 H   0  0  0  0  0  0  0  0  0  0  0  0
   36.1570   22.7890   40.7720 H   0  0  0  0  0  0  0  0  0  0  0  0
   37.7870   23.5650   38.2840 H   0  0  0  0  0  0  0  0  0  0  0  0
   37.6810   21.9490   39.0050 H   0  0  0  0  0  0  0  0  0  0  0  0
   38.9390   22.3750   40.8270 H   0  0  0  0  0  0  0  0  0  0  0  0
   39.7800   23.3260   39.6230 H   0  0  0  0  0  0  0  0  0  0  0  0
   39.2580   25.3440   40.4730 H   0  0  0  0  0  0  0  0  0  0  0  0
   39.5550   24.1310   42.6080 S   0  0  0  0  0  0  0  0  0  0  0  0
   40.9140   24.4630   42.4410 H   0  0  0  0  0  0  0  0  0  0  0  0
   38.3060   31.4420   39.9810 C   0  0  0  0  0  0  0  0  0  0  0  0
   39.4210   32.0330   40.5360 C   0  0  0  0  0  0  0  0  0  0  0  0
   39.9400   31.4270   41.6500 C   0  0  0  0  0  0  0  0  0  0  0  0
   39.3300   30.2990   42.1270 N   0  0  0  0  0  0  0  0  0  0  0  0
   38.2150   29.7540   41.5270 C   0  0  0  0  0  0  0  0  0  0  0  0
   37.7230   30.3190   40.4810 N   0  0  0  0  0  0  0  0  0  0  0  0
   41.0640   31.8570   42.3690 N   0  0  0  0  0  0  0  0  0  0  0  0
   37.9060   31.9420   39.0920 H   0  0  0  0  0  0  0  0  0  0  0  0
   41.4050   32.8400   42.4530 H   0  0  0  0  0  0  0  0  0  0  0  0
   41.6820   31.2350   42.8990 H   0  0  0  0  0  0  0  0  0  0  0  0
   41.7410   31.7200   38.5850 Cl  0  0  0  0  0  0  0  0  0  0  0  0
   41.1170   33.2550   39.1500 C   0  0  0  0  0  0  0  0  0  0  0  0
   40.0580   33.2110   40.0360 C   0  0  0  0  0  0  0  0  0  0  0  0
   39.4960   34.3830   40.5380 C   0  0  0  0  0  0  0  0  0  0  0  0
   38.6660   34.4330   41.2350 H   0  0  0  0  0  0  0  0  0  0  0  0
   39.9890   35.6360   40.1620 C   0  0  0  0  0  0  0  0  0  0  0  0
   39.5710   36.5540   40.5380 H   0  0  0  0  0  0  0  0  0  0  0  0
   41.0460   35.6600   39.2780 C   0  0  0  0  0  0  0  0  0  0  0  0
   41.4390   36.6240   38.9770 H   0  0  0  0  0  0  0  0  0  0  0  0
   41.5980   34.4980   38.7830 C   0  0  0  0  0  0  0  0  0  0  0  0
   42.9290   34.5320   37.6710 Cl  0  0  0  0  0  0  0  0  0  0  0  0
  1  2  1  0  0  0  0
  2  7  1  0  0  0  0
  2  3  2  0  0  0  0
  3  8  1  0  0  0  0
  4  9  1  0  0  0  0
  4  3  1  0  0  0  0
  5  4  2  0  0  0  0
  6  5  1  0  0  0  0
  6  1  2  0  0  0  0
 10  5  1  0  0  0  0
 10 16  1  1  0  0  0
 11 18  1  0  0  0  0
 11 10  1  0  0  0  0
 12 11  1  0  0  0  0
 12 20  1  0  0  0  0
 13 12  1  0  0  0  0
 13 14  1  0  0  0  0
 14 23  1  0  0  0  0
 14 15  1  0  0  0  0
 15 25  1  6  0  0  0
 15 10  1  0  0  0  0
 15 26  1  0  0  0  0
 17 11  1  0  0  0  0
 19 12  1  0  0  0  0
 21 13  1  0  0  0  0
 22 13  1  0  0  0  0
 24 14  1  0  0  0  0
 27 26  1  0  0  0  0
 28 33  2  0  0  0  0
 28 29  1  0  0  0  0
 29 30  2  0  0  0  0
 30 31  1  0  0  0  0
 30 34  1  0  0  0  0
 32  1  1  0  0  0  0
 32 31  2  0  0  0  0
 33 32  1  0  0  0  0
 34 36  1  0  0  0  0
 34 37  1  0  0  0  0
 35 28  1  0  0  0  0
 38 39  1  0  0  0  0
 39 40  1  0  0  0  0
 40 29  1  0  0  0  0
 40 41  2  0  0  0  0
 41 42  1  0  0  0  0
 43 44  1  0  0  0  0
 43 41  1  0  0  0  0
 45 43  2  0  0  0  0
 46 45  1  0  0  0  0
 47 39  2  0  0  0  0
 47 45  1  0  0  0  0
 48 47  1  0  0  0  0
M  END
>  <minimizedAffinity>
-6.77747297

$$$$

 OpenBabel03242514123D

 48 51  0  0  1  0  0  0  0  0999 V2000
   37.5790   27.9710   41.5460 C   0  0  0  0  0  0  0  0  0  0  0  0
   37.0440   27.7990   42.8010 C   0  0  0  0  0  0  0  0  0  0  0  0
   36.5740   26.5820   43.2850 C   0  0  0  0  0  0  0  0  0  0  0  0
   36.6920   25.5250   42.3760 C   0  0  0  0  0  0  0  0  0  0  0  0
   37.2400   25.7040   41.0900 C   0  0  0  0  0  0  0  0  0  0  0  0
   37.6750   26.9120   40.6890 N   0  0  0  0  0  0  0  0  0  0  0  0
   36.9940   28.6800   43.4360 H   0  0  0  0  0  0  0  0  0  0  0  0
   36.1700   26.4980   44.2600 H   0  0  0  0  0  0  0  0  0  0  0  0
   36.3120   24.6060   42.7970 H   0  0  0  0  0  0  0  0  0  0  0  0
   37.3490   24.5500   40.2060 C   0  0  1  0  0  0  0  0  0  0  0  0
   38.0110   23.3310   40.9730 C   0  0  0  0  0  0  0  0  0  0  0  0
   38.4530   22.4200   39.8020 C   0  0  0  0  0  0  0  0  0  0  0  0
   37.1430   21.8100   39.2970 C   0  0  0  0  0  0  0  0  0  0  0  0
   36.2330   22.8540   38.7690 C   0  0  0  0  0  0  0  0  0  0  0  0
   36.1680   24.1380   39.5080 C   0  0  2  0  0  0  0  0  0  0  0  0
   38.1910   24.7890   39.4900 H   0  0  0  0  0  0  0  0  0  0  0  0
   37.2200   22.8230   41.5370 H   0  0  0  0  0  0  0  0  0  0  0  0
   38.8660   23.6940   41.5490 H   0  0  0  0  0  0  0  0  0  0  0  0
   39.0360   21.6230   40.2870 H   0  0  0  0  0  0  0  0  0  0  0  0
   39.0010   22.9660   39.0370 H   0  0  0  0  0  0  0  0  0  0  0  0
   36.7320   21.1920   40.1130 H   0  0  0  0  0  0  0  0  0  0  0  0
   37.4480   21.1100   38.4930 H   0  0  0  0  0  0  0  0  0  0  0  0
   36.5330   23.0070   37.6890 H   0  0  0  0  0  0  0  0  0  0  0  0
   35.2200   22.4080   38.6780 H   0  0  0  0  0  0  0  0  0  0  0  0
   35.3040   24.0310   40.2340 H   0  0  0  0  0  0  0  0  0  0  0  0
   35.8250   25.4180   38.2540 S   0  0  0  0  0  0  0  0  0  0  0  0
   34.4250   25.5030   38.1250 H   0  0  0  0  0  0  0  0  0  0  0  0
   38.1050   31.1000   39.7390 C   0  0  0  0  0  0  0  0  0  0  0  0
   39.0580   31.7650   40.4800 C   0  0  0  0  0  0  0  0  0  0  0  0
   39.5140   31.1250   41.6040 C   0  0  0  0  0  0  0  0  0  0  0  0
   39.0020   29.8930   41.9080 N   0  0  0  0  0  0  0  0  0  0  0  0
   38.0480   29.2770   41.1260 C   0  0  0  0  0  0  0  0  0  0  0  0
   37.6170   29.8740   40.0700 N   0  0  0  0  0  0  0  0  0  0  0  0
   40.4760   31.6180   42.4950 N   0  0  0  0  0  0  0  0  0  0  0  0
   37.7550   31.6280   38.8470 H   0  0  0  0  0  0  0  0  0  0  0  0
   40.6730   32.6220   42.6990 H   0  0  0  0  0  0  0  0  0  0  0  0
   41.1010   31.0270   43.0530 H   0  0  0  0  0  0  0  0  0  0  0  0
   41.5600   31.9160   38.7450 Cl  0  0  0  0  0  0  0  0  0  0  0  0
   40.7120   33.3060   39.3910 C   0  0  0  0  0  0  0  0  0  0  0  0
   39.5930   33.0530   40.1600 C   0  0  0  0  0  0  0  0  0  0  0  0
   38.8550   34.0960   40.7160 C   0  0  0  0  0  0  0  0  0  0  0  0
   37.9680   33.9810   41.3290 H   0  0  0  0  0  0  0  0  0  0  0  0
   39.2270   35.4280   40.5110 C   0  0  0  0  0  0  0  0  0  0  0  0
   38.6730   36.2500   40.9310 H   0  0  0  0  0  0  0  0  0  0  0  0
   40.3460   35.6610   39.7420 C   0  0  0  0  0  0  0  0  0  0  0  0
   40.6470   36.6880   39.5750 H   0  0  0  0  0  0  0  0  0  0  0  0
   41.0720   34.6250   39.1950 C   0  0  0  0  0  0  0  0  0  0  0  0
   42.4810   34.9220   38.2260 Cl  0  0  0  0  0  0  0  0  0  0  0  0
  1  2  1  0  0  0  0
  2  3  2  0  0  0  0
  2  7  1  0  0  0  0
  3  8  1  0  0  0  0
  4  9  1  0  0  0  0
  4  3  1  0  0  0  0
  5  4  2  0  0  0  0
  6  5  1  0  0  0  0
  6  1  2  0  0  0  0
 10 16  1  6  0  0  0
 10 11  1  0  0  0  0
 10  5  1  0  0  0  0
 11 17  1  0  0  0  0
 11 18  1  0  0  0  0
 12 19  1  0  0  0  0
 12 11  1  0  0  0  0
 13 12  1  0  0  0  0
 13 21  1  0  0  0  0
 14 13  1  0  0  0  0
 14 15  1  0  0  0  0
 15 10  1  0  0  0  0
 15 25  1  1  0  0  0
 20 12  1  0  0  0  0
 22 13  1  0  0  0  0
 23 14  1  0  0  0  0
 24 14  1  0  0  0  0
 26 15  1  0  0  0  0
 27 26  1  0  0  0  0
 28 33  2  0  0  0  0
 28 29  1  0  0  0  0
 29 30  2  0  0  0  0
 30 31  1  0  0  0  0
 30 34  1  0  0  0  0
 32  1  1  0  0  0  0
 32 31  2  0  0  0  0
 33 32  1  0  0  0  0
 34 36  1  0  0  0  0
 34 37  1  0  0  0  0
 35 28  1  0  0  0  0
 38 39  1  0  0  0  0
 39 40  1  0  0  0  0
 40 29  1  0  0  0  0
 40 41  2  0  0  0  0
 41 42  1  0  0  0  0
 43 41  1  0  0  0  0
 43 44  1  0  0  0  0
 45 43  2  0  0  0  0
 46 45  1  0  0  0  0
 47 39  2  0  0  0  0
 47 45  1  0  0  0  0
 48 47  1  0  0  0  0
M  END
>  <minimizedAffinity>
-6.7414999

$$$$

 OpenBabel03242514123D

 48 51  0  0  1  0  0  0  0  0999 V2000
   33.5660   28.0980   37.1800 C   0  0  0  0  0  0  0  0  0  0  0  0
   33.2260   26.9810   36.4540 C   0  0  0  0  0  0  0  0  0  0  0  0
   32.2570   26.9700   35.4560 C   0  0  0  0  0  0  0  0  0  0  0  0
   31.6440   28.2090   35.2440 C   0  0  0  0  0  0  0  0  0  0  0  0
   31.9940   29.3520   35.9890 C   0  0  0  0  0  0  0  0  0  0  0  0
   32.9420   29.2890   36.9410 N   0  0  0  0  0  0  0  0  0  0  0  0
   33.7570   26.0640   36.6910 H   0  0  0  0  0  0  0  0  0  0  0  0
   32.0280   26.0840   34.9230 H   0  0  0  0  0  0  0  0  0  0  0  0
   30.8990   28.1470   34.4630 H   0  0  0  0  0  0  0  0  0  0  0  0
   31.3250   30.6150   35.6960 C   0  0  1  0  0  0  0  0  0  0  0  0
   31.5160   30.9950   34.1690 C   0  0  0  0  0  0  0  0  0  0  0  0
   31.1690   32.5050   34.1730 C   0  0  0  0  0  0  0  0  0  0  0  0
   29.6460   32.5300   34.3230 C   0  0  0  0  0  0  0  0  0  0  0  0
   29.2250   31.9440   35.6180 C   0  0  0  0  0  0  0  0  0  0  0  0
   29.9540   30.7430   36.0910 C   0  0  2  0  0  0  0  0  0  0  0  0
   31.9680   31.4190   36.1620 H   0  0  0  0  0  0  0  0  0  0  0  0
   30.7530   30.4590   33.5940 H   0  0  0  0  0  0  0  0  0  0  0  0
   32.5570   30.8190   33.8850 H   0  0  0  0  0  0  0  0  0  0  0  0
   31.4170   32.8380   33.1540 H   0  0  0  0  0  0  0  0  0  0  0  0
   31.6930   33.0480   34.9560 H   0  0  0  0  0  0  0  0  0  0  0  0
   29.2180   32.0540   33.4260 H   0  0  0  0  0  0  0  0  0  0  0  0
   29.3750   33.6050   34.2700 H   0  0  0  0  0  0  0  0  0  0  0  0
   29.2750   32.7890   36.3690 H   0  0  0  0  0  0  0  0  0  0  0  0
   28.1350   31.7370   35.5590 H   0  0  0  0  0  0  0  0  0  0  0  0
   29.3570   29.8540   35.7190 H   0  0  0  0  0  0  0  0  0  0  0  0
   29.9380   30.8360   37.9130 S   0  0  0  0  0  0  0  0  0  0  0  0
   28.7570   30.2030   38.3470 H   0  0  0  0  0  0  0  0  0  0  0  0
   36.3860   27.0580   39.2530 C   0  0  0  0  0  0  0  0  0  0  0  0
   36.4800   28.0380   40.2180 C   0  0  0  0  0  0  0  0  0  0  0  0
   35.5640   29.0550   40.1440 C   0  0  0  0  0  0  0  0  0  0  0  0
   34.6360   29.0300   39.1380 N   0  0  0  0  0  0  0  0  0  0  0  0
   34.5930   28.0210   38.2010 C   0  0  0  0  0  0  0  0  0  0  0  0
   35.4500   27.0630   38.2650 N   0  0  0  0  0  0  0  0  0  0  0  0
   35.4790   30.1470   41.0190 N   0  0  0  0  0  0  0  0  0  0  0  0
   37.1270   26.2550   39.3290 H   0  0  0  0  0  0  0  0  0  0  0  0
   36.2680   30.5770   41.5490 H   0  0  0  0  0  0  0  0  0  0  0  0
   34.6110   30.6480   41.2320 H   0  0  0  0  0  0  0  0  0  0  0  0
   39.1160   29.4900   39.7370 Cl  0  0  0  0  0  0  0  0  0  0  0  0
   38.6890   28.6700   41.2240 C   0  0  0  0  0  0  0  0  0  0  0  0
   37.4490   28.0620   41.2690 C   0  0  0  0  0  0  0  0  0  0  0  0
   37.0240   27.3870   42.4100 C   0  0  0  0  0  0  0  0  0  0  0  0
   36.0690   26.8850   42.5250 H   0  0  0  0  0  0  0  0  0  0  0  0
   37.8390   27.3040   43.5430 C   0  0  0  0  0  0  0  0  0  0  0  0
   37.5320   26.7870   44.4360 H   0  0  0  0  0  0  0  0  0  0  0  0
   39.0720   27.9160   43.4800 C   0  0  0  0  0  0  0  0  0  0  0  0
   39.7160   27.8600   44.3500 H   0  0  0  0  0  0  0  0  0  0  0  0
   39.4880   28.5830   42.3480 C   0  0  0  0  0  0  0  0  0  0  0  0
   41.0410   29.3530   42.2720 Cl  0  0  0  0  0  0  0  0  0  0  0  0
  1 32  1  0  0  0  0
  2  7  1  0  0  0  0
  2  1  2  0  0  0  0
  3  2  1  0  0  0  0
  4  3  2  0  0  0  0
  4  5  1  0  0  0  0
  5  6  2  0  0  0  0
  6  1  1  0  0  0  0
  8  3  1  0  0  0  0
  9  4  1  0  0  0  0
 10  5  1  0  0  0  0
 10 15  1  0  0  0  0
 10 16  1  1  0  0  0
 11 12  1  0  0  0  0
 11 10  1  0  0  0  0
 12 13  1  0  0  0  0
 12 20  1  0  0  0  0
 13 14  1  0  0  0  0
 14 15  1  0  0  0  0
 14 23  1  0  0  0  0
 15 25  1  6  0  0  0
 15 26  1  0  0  0  0
 17 11  1  0  0  0  0
 18 11  1  0  0  0  0
 19 12  1  0  0  0  0
 21 13  1  0  0  0  0
 22 13  1  0  0  0  0
 24 14  1  0  0  0  0
 26 27  1  0  0  0  0
 28 35  1  0  0  0  0
 28 29  1  0  0  0  0
 29 40  1  0  0  0  0
 30 29  2  0  0  0  0
 30 34  1  0  0  0  0
 31 30  1  0  0  0  0
 32 33  1  0  0  0  0
 32 31  2  0  0  0  0
 33 28  2  0  0  0  0
 34 37  1  0  0  0  0
 34 36  1  0  0  0  0
 38 39  1  0  0  0  0
 39 40  2  0  0  0  0
 39 47  1  0  0  0  0
 40 41  1  0  0  0  0
 41 42  1  0  0  0  0
 41 43  2  0  0  0  0
 43 44  1  0  0  0  0
 45 43  1  0  0  0  0
 45 46  1  0  0  0  0
 47 45  2  0  0  0  0
 48 47  1  0  0  0  0
M  END
>  <minimizedAffinity>
-6.7153945

$$$$

 OpenBabel03242514123D

 48 51  0  0  1  0  0  0  0  0999 V2000
   35.3390   27.6710   37.7970 C   0  0  0  0  0  0  0  0  0  0  0  0
   36.0430   26.5630   37.3860 C   0  0  0  0  0  0  0  0  0  0  0  0
   36.9310   25.8630   38.1970 C   0  0  0  0  0  0  0  0  0  0  0  0
   37.0520   26.3830   39.4890 C   0  0  0  0  0  0  0  0  0  0  0  0
   36.3300   27.5180   39.9080 C   0  0  0  0  0  0  0  0  0  0  0  0
   35.4880   28.1460   39.0690 N   0  0  0  0  0  0  0  0  0  0  0  0
   35.8820   26.2340   36.3630 H   0  0  0  0  0  0  0  0  0  0  0  0
   37.4510   25.0140   37.8350 H   0  0  0  0  0  0  0  0  0  0  0  0
   37.7530   25.8060   40.0760 H   0  0  0  0  0  0  0  0  0  0  0  0
   36.4940   27.9890   41.2790 C   0  0  1  0  0  0  0  0  0  0  0  0
   36.7780   26.7670   42.2480 C   0  0  0  0  0  0  0  0  0  0  0  0
   36.4610   27.3820   43.6340 C   0  0  0  0  0  0  0  0  0  0  0  0
   37.6550   28.2980   43.9110 C   0  0  0  0  0  0  0  0  0  0  0  0
   37.7350   29.3910   42.9150 C   0  0  0  0  0  0  0  0  0  0  0  0
   37.4260   29.0530   41.5050 C   0  0  2  0  0  0  0  0  0  0  0  0
   35.4580   28.2630   41.6360 H   0  0  0  0  0  0  0  0  0  0  0  0
   37.8500   26.5440   42.1990 H   0  0  0  0  0  0  0  0  0  0  0  0
   36.0960   25.9500   42.0020 H   0  0  0  0  0  0  0  0  0  0  0  0
   36.5180   26.5270   44.3250 H   0  0  0  0  0  0  0  0  0  0  0  0
   35.5040   27.8980   43.6480 H   0  0  0  0  0  0  0  0  0  0  0  0
   38.5500   27.6580   43.9860 H   0  0  0  0  0  0  0  0  0  0  0  0
   37.4710   28.7030   44.9270 H   0  0  0  0  0  0  0  0  0  0  0  0
   37.0640   30.2140   43.3050 H   0  0  0  0  0  0  0  0  0  0  0  0
   38.7450   29.8480   42.9910 H   0  0  0  0  0  0  0  0  0  0  0  0
   38.4220   28.8060   41.0230 H   0  0  0  0  0  0  0  0  0  0  0  0
   36.6940   30.5580   40.7790 S   0  0  0  0  0  0  0  0  0  0  0  0
   37.7580   31.3360   40.2840 H   0  0  0  0  0  0  0  0  0  0  0  0
   33.8660   29.3460   34.9070 C   0  0  0  0  0  0  0  0  0  0  0  0
   32.5640   29.5940   35.2840 C   0  0  0  0  0  0  0  0  0  0  0  0
   32.2030   29.1780   36.5400 C   0  0  0  0  0  0  0  0  0  0  0  0
   33.1410   28.5580   37.3190 N   0  0  0  0  0  0  0  0  0  0  0  0
   34.4310   28.3380   36.8850 C   0  0  0  0  0  0  0  0  0  0  0  0
   34.7750   28.7260   35.7080 N   0  0  0  0  0  0  0  0  0  0  0  0
   30.9370   29.3300   37.1210 N   0  0  0  0  0  0  0  0  0  0  0  0
   34.1340   29.6860   33.9010 H   0  0  0  0  0  0  0  0  0  0  0  0
   30.0250   29.3720   36.6140 H   0  0  0  0  0  0  0  0  0  0  0  0
   30.7720   29.4150   38.1280 H   0  0  0  0  0  0  0  0  0  0  0  0
   30.8320   27.8880   33.4470 Cl  0  0  0  0  0  0  0  0  0  0  0  0
   30.7190   29.6300   33.5840 C   0  0  0  0  0  0  0  0  0  0  0  0
   31.5850   30.2440   34.4690 C   0  0  0  0  0  0  0  0  0  0  0  0
   31.5670   31.6260   34.6450 C   0  0  0  0  0  0  0  0  0  0  0  0
   32.2120   32.1820   35.3170 H   0  0  0  0  0  0  0  0  0  0  0  0
   30.6740   32.4310   33.9310 C   0  0  0  0  0  0  0  0  0  0  0  0
   30.6430   33.5000   34.0490 H   0  0  0  0  0  0  0  0  0  0  0  0
   29.8190   31.8010   33.0520 C   0  0  0  0  0  0  0  0  0  0  0  0
   29.1220   32.4100   32.4910 H   0  0  0  0  0  0  0  0  0  0  0  0
   29.8410   30.4320   32.8830 C   0  0  0  0  0  0  0  0  0  0  0  0
   28.7620   29.6420   31.7760 Cl  0  0  0  0  0  0  0  0  0  0  0  0
  1  6  1  0  0  0  0
  2  1  2  0  0  0  0
  2  3  1  0  0  0  0
  3  4  2  0  0  0  0
  4  5  1  0  0  0  0
  4  9  1  0  0  0  0
  5 10  1  0  0  0  0
  6  5  2  0  0  0  0
  7  2  1  0  0  0  0
  8  3  1  0  0  0  0
 10 15  1  0  0  0  0
 10 16  1  1  0  0  0
 10 11  1  0  0  0  0
 11 12  1  0  0  0  0
 12 20  1  0  0  0  0
 12 13  1  0  0  0  0
 12 19  1  0  0  0  0
 13 21  1  0  0  0  0
 13 22  1  0  0  0  0
 14 24  1  0  0  0  0
 14 23  1  0  0  0  0
 14 13  1  0  0  0  0
 15 25  1  6  0  0  0
 15 14  1  0  0  0  0
 17 11  1  0  0  0  0
 18 11  1  0  0  0  0
 26 15  1  0  0  0  0
 27 26  1  0  0  0  0
 28 29  2  0  0  0  0
 28 33  1  0  0  0  0
 29 30  1  0  0  0  0
 30 34  1  0  0  0  0
 30 31  2  0  0  0  0
 32 31  1  0  0  0  0
 32  1  1  0  0  0  0
 33 32  2  0  0  0  0
 34 37  1  0  0  0  0
 35 28  1  0  0  0  0
 36 34  1  0  0  0  0
 38 39  1  0  0  0  0
 39 40  1  0  0  0  0
 40 41  2  0  0  0  0
 40 29  1  0  0  0  0
 41 42  1  0  0  0  0
 43 44  1  0  0  0  0
 43 41  1  0  0  0  0
 45 43  2  0  0  0  0
 46 45  1  0  0  0  0
 47 45  1  0  0  0  0
 47 39  2  0  0  0  0
 48 47  1  0  0  0  0
M  END
>  <minimizedAffinity>
-6.54774904

$$$$

 OpenBabel03242514123D

 48 51  0  0  1  0  0  0  0  0999 V2000
   38.9190   33.1880   39.6110 C   0  0  0  0  0  0  0  0  0  0  0  0
   38.2800   34.3350   40.0200 C   0  0  0  0  0  0  0  0  0  0  0  0
   38.9410   35.4670   40.4880 C   0  0  0  0  0  0  0  0  0  0  0  0
   40.3340   35.3440   40.5090 C   0  0  0  0  0  0  0  0  0  0  0  0
   40.9860   34.1670   40.0900 C   0  0  0  0  0  0  0  0  0  0  0  0
   40.2820   33.1100   39.6490 N   0  0  0  0  0  0  0  0  0  0  0  0
   37.1950   34.3350   39.9670 H   0  0  0  0  0  0  0  0  0  0  0  0
   38.4060   36.3280   40.7920 H   0  0  0  0  0  0  0  0  0  0  0  0
   40.7990   36.2450   40.8820 H   0  0  0  0  0  0  0  0  0  0  0  0
   42.4440   34.1220   40.1220 C   0  0  1  0  0  0  0  0  0  0  0  0
   42.9510   33.7970   41.5880 C   0  0  0  0  0  0  0  0  0  0  0  0
   44.4320   34.2430   41.5180 C   0  0  0  0  0  0  0  0  0  0  0  0
   45.1070   33.1450   40.6930 C   0  0  0  0  0  0  0  0  0  0  0  0
   44.5610   33.0960   39.3160 C   0  0  0  0  0  0  0  0  0  0  0  0
   43.1000   33.2940   39.1550 C   0  0  2  0  0  0  0  0  0  0  0  0
   42.7870   35.1960   40.0480 H   0  0  0  0  0  0  0  0  0  0  0  0
   42.9160   32.7090   41.7200 H   0  0  0  0  0  0  0  0  0  0  0  0
   42.3810   34.3950   42.3040 H   0  0  0  0  0  0  0  0  0  0  0  0
   44.7870   34.1570   42.5560 H   0  0  0  0  0  0  0  0  0  0  0  0
   44.5450   35.2380   41.0930 H   0  0  0  0  0  0  0  0  0  0  0  0
   45.0300   32.2070   41.2670 H   0  0  0  0  0  0  0  0  0  0  0  0
   46.1820   33.4200   40.6810 H   0  0  0  0  0  0  0  0  0  0  0  0
   45.1550   33.8540   38.7220 H   0  0  0  0  0  0  0  0  0  0  0  0
   44.8740   32.1330   38.8600 H   0  0  0  0  0  0  0  0  0  0  0  0
   42.6470   32.2550   39.1610 H   0  0  0  0  0  0  0  0  0  0  0  0
   42.8820   34.1020   37.5340 S   0  0  0  0  0  0  0  0  0  0  0  0
   42.7780   33.0780   36.5740 H   0  0  0  0  0  0  0  0  0  0  0  0
   37.5770   30.4500   37.6030 C   0  0  0  0  0  0  0  0  0  0  0  0
   36.5880   29.9020   38.3910 C   0  0  0  0  0  0  0  0  0  0  0  0
   36.3910   30.4850   39.6160 C   0  0  0  0  0  0  0  0  0  0  0  0
   37.1740   31.5510   39.9670 N   0  0  0  0  0  0  0  0  0  0  0  0
   38.1500   32.0550   39.1330 C   0  0  0  0  0  0  0  0  0  0  0  0
   38.3390   31.5120   37.9830 N   0  0  0  0  0  0  0  0  0  0  0  0
   35.4440   30.0900   40.5690 N   0  0  0  0  0  0  0  0  0  0  0  0
   37.7180   29.9700   36.6290 H   0  0  0  0  0  0  0  0  0  0  0  0
   35.0660   29.1260   40.7030 H   0  0  0  0  0  0  0  0  0  0  0  0
   35.0150   30.7220   41.2510 H   0  0  0  0  0  0  0  0  0  0  0  0
   37.5050   27.1000   39.1620 Cl  0  0  0  0  0  0  0  0  0  0  0  0
   36.0300   27.4580   38.2890 C   0  0  0  0  0  0  0  0  0  0  0  0
   35.7700   28.7890   38.0220 C   0  0  0  0  0  0  0  0  0  0  0  0
   34.6210   29.1690   37.3320 C   0  0  0  0  0  0  0  0  0  0  0  0
   34.3450   30.1880   37.0840 H   0  0  0  0  0  0  0  0  0  0  0  0
   33.6990   28.2150   36.8900 C   0  0  0  0  0  0  0  0  0  0  0  0
   32.8040   28.4850   36.3550 H   0  0  0  0  0  0  0  0  0  0  0  0
   33.9750   26.8930   37.1650 C   0  0  0  0  0  0  0  0  0  0  0  0
   33.2710   26.1420   36.8280 H   0  0  0  0  0  0  0  0  0  0  0  0
   35.1140   26.5230   37.8480 C   0  0  0  0  0  0  0  0  0  0  0  0
   35.4600   24.8580   38.1920 Cl  0  0  0  0  0  0  0  0  0  0  0  0
  1  6  2  0  0  0  0
  1  2  1  0  0  0  0
  2  3  2  0  0  0  0
  3  4  1  0  0  0  0
  3  8  1  0  0  0  0
  4  9  1  0  0  0  0
  5 10  1  0  0  0  0
  5  4  2  0  0  0  0
  6  5  1  0  0  0  0
  7  2  1  0  0  0  0
 10 16  1  6  0  0  0
 10 11  1  0  0  0  0
 11 17  1  0  0  0  0
 11 18  1  0  0  0  0
 12 11  1  0  0  0  0
 12 19  1  0  0  0  0
 13 21  1  0  0  0  0
 13 12  1  0  0  0  0
 14 13  1  0  0  0  0
 15 25  1  6  0  0  0
 15 14  1  0  0  0  0
 15 10  1  0  0  0  0
 20 12  1  0  0  0  0
 22 13  1  0  0  0  0
 23 14  1  0  0  0  0
 24 14  1  0  0  0  0
 26 15  1  0  0  0  0
 27 26  1  0  0  0  0
 28 33  2  0  0  0  0
 28 29  1  0  0  0  0
 29 30  2  0  0  0  0
 30 31  1  0  0  0  0
 30 34  1  0  0  0  0
 32  1  1  0  0  0  0
 32 31  2  0  0  0  0
 33 32  1  0  0  0  0
 34 36  1  0  0  0  0
 34 37  1  0  0  0  0
 35 28  1  0  0  0  0
 39 38  1  0  0  0  0
 40 39  1  0  0  0  0
 40 29  1  0  0  0  0
 41 40  2  0  0  0  0
 42 41  1  0  0  0  0
 43 45  2  0  0  0  0
 43 41  1  0  0  0  0
 44 43  1  0  0  0  0
 45 47  1  0  0  0  0
 46 45  1  0  0  0  0
 47 48  1  0  0  0  0
 47 39  2  0  0  0  0
M  END
>  <minimizedAffinity>
-6.49783945

$$$$

 OpenBabel03242514123D

 48 51  0  0  1  0  0  0  0  0999 V2000
   33.8540   28.0770   37.2590 C   0  0  0  0  0  0  0  0  0  0  0  0
   33.8250   27.1830   36.2150 C   0  0  0  0  0  0  0  0  0  0  0  0
   32.7920   27.1070   35.2860 C   0  0  0  0  0  0  0  0  0  0  0  0
   31.7640   28.0310   35.5020 C   0  0  0  0  0  0  0  0  0  0  0  0
   31.7960   28.9460   36.5720 C   0  0  0  0  0  0  0  0  0  0  0  0
   32.8290   28.9630   37.4330 N   0  0  0  0  0  0  0  0  0  0  0  0
   34.6690   26.5040   36.1300 H   0  0  0  0  0  0  0  0  0  0  0  0
   32.8140   26.4000   34.4970 H   0  0  0  0  0  0  0  0  0  0  0  0
   30.9870   27.9290   34.7580 H   0  0  0  0  0  0  0  0  0  0  0  0
   30.6970   29.8940   36.7200 C   0  0  1  0  0  0  0  0  0  0  0  0
   30.0720   29.7870   38.1730 C   0  0  0  0  0  0  0  0  0  0  0  0
   28.7010   30.4820   37.9800 C   0  0  0  0  0  0  0  0  0  0  0  0
   29.0540   31.9690   37.8900 C   0  0  0  0  0  0  0  0  0  0  0  0
   29.8980   32.2480   36.7040 C   0  0  0  0  0  0  0  0  0  0  0  0
   30.9490   31.2590   36.3670 C   0  0  2  0  0  0  0  0  0  0  0  0
   29.8380   29.4640   36.1240 H   0  0  0  0  0  0  0  0  0  0  0  0
   30.6860   30.3970   38.8460 H   0  0  0  0  0  0  0  0  0  0  0  0
   29.9580   28.7320   38.4350 H   0  0  0  0  0  0  0  0  0  0  0  0
   28.1800   30.3130   38.9340 H   0  0  0  0  0  0  0  0  0  0  0  0
   28.1660   30.1080   37.1110 H   0  0  0  0  0  0  0  0  0  0  0  0
   29.4860   32.2640   38.8600 H   0  0  0  0  0  0  0  0  0  0  0  0
   28.0770   32.4870   37.8090 H   0  0  0  0  0  0  0  0  0  0  0  0
   29.1800   32.4060   35.8440 H   0  0  0  0  0  0  0  0  0  0  0  0
   30.3440   33.2580   36.8350 H   0  0  0  0  0  0  0  0  0  0  0  0
   31.8920   31.6250   36.8800 H   0  0  0  0  0  0  0  0  0  0  0  0
   31.1200   31.3110   34.5510 S   0  0  0  0  0  0  0  0  0  0  0  0
   32.0660   32.3110   34.2550 H   0  0  0  0  0  0  0  0  0  0  0  0
   37.0340   27.4230   38.9280 C   0  0  0  0  0  0  0  0  0  0  0  0
   37.0140   28.2460   40.0340 C   0  0  0  0  0  0  0  0  0  0  0  0
   35.8980   29.0240   40.1950 C   0  0  0  0  0  0  0  0  0  0  0  0
   34.8970   28.9340   39.2650 N   0  0  0  0  0  0  0  0  0  0  0  0
   34.9750   28.0900   38.1780 C   0  0  0  0  0  0  0  0  0  0  0  0
   36.0210   27.3570   38.0230 N   0  0  0  0  0  0  0  0  0  0  0  0
   35.6710   29.9270   41.2430 N   0  0  0  0  0  0  0  0  0  0  0  0
   37.9350   26.8100   38.8190 H   0  0  0  0  0  0  0  0  0  0  0  0
   36.4000   30.4450   41.7810 H   0  0  0  0  0  0  0  0  0  0  0  0
   34.7430   30.1770   41.5960 H   0  0  0  0  0  0  0  0  0  0  0  0
   37.1300   26.1640   42.2580 Cl  0  0  0  0  0  0  0  0  0  0  0  0
   38.2640   27.4860   42.0730 C   0  0  0  0  0  0  0  0  0  0  0  0
   38.0610   28.3390   41.0050 C   0  0  0  0  0  0  0  0  0  0  0  0
   38.9120   29.4180   40.7780 C   0  0  0  0  0  0  0  0  0  0  0  0
   38.8210   30.1300   39.9650 H   0  0  0  0  0  0  0  0  0  0  0  0
   39.9950   29.6700   41.6260 C   0  0  0  0  0  0  0  0  0  0  0  0
   40.6660   30.4980   41.4710 H   0  0  0  0  0  0  0  0  0  0  0  0
   40.1810   28.8100   42.6860 C   0  0  0  0  0  0  0  0  0  0  0  0
   41.0160   28.9920   43.3530 H   0  0  0  0  0  0  0  0  0  0  0  0
   39.3360   27.7430   42.9050 C   0  0  0  0  0  0  0  0  0  0  0  0
   39.5730   26.6620   44.2420 Cl  0  0  0  0  0  0  0  0  0  0  0  0
  1  6  1  0  0  0  0
  1 32  1  0  0  0  0
  2  1  2  0  0  0  0
  3  4  2  0  0  0  0
  3  2  1  0  0  0  0
  4  5  1  0  0  0  0
  5 10  1  0  0  0  0
  5  6  2  0  0  0  0
  7  2  1  0  0  0  0
  8  3  1  0  0  0  0
  9  4  1  0  0  0  0
 10 16  1  6  0  0  0
 10 11  1  0  0  0  0
 11 18  1  0  0  0  0
 11 17  1  0  0  0  0
 12 11  1  0  0  0  0
 12 19  1  0  0  0  0
 13 12  1  0  0  0  0
 13 21  1  0  0  0  0
 14 24  1  0  0  0  0
 14 13  1  0  0  0  0
 15 14  1  0  0  0  0
 15 10  1  0  0  0  0
 15 25  1  1  0  0  0
 20 12  1  0  0  0  0
 22 13  1  0  0  0  0
 23 14  1  0  0  0  0
 26 15  1  0  0  0  0
 27 26  1  0  0  0  0
 28 29  1  0  0  0  0
 29 30  2  0  0  0  0
 29 40  1  0  0  0  0
 30 34  1  0  0  0  0
 31 30  1  0  0  0  0
 32 31  2  0  0  0  0
 33 32  1  0  0  0  0
 33 28  2  0  0  0  0
 34 37  1  0  0  0  0
 34 36  1  0  0  0  0
 35 28  1  0  0  0  0
 39 38  1  0  0  0  0
 39 47  1  0  0  0  0
 40 39  2  0  0  0  0
 41 40  1  0  0  0  0
 41 43  2  0  0  0  0
 42 41  1  0  0  0  0
 43 45  1  0  0  0  0
 44 43  1  0  0  0  0
 45 47  2  0  0  0  0
 45 46  1  0  0  0  0
 47 48  1  0  0  0  0
M  END
>  <minimizedAffinity>
-6.34787607

$$$$

 OpenBabel03242514123D

 48 51  0  0  1  0  0  0  0  0999 V2000
   39.3050   33.0970   39.9820 C   0  0  0  0  0  0  0  0  0  0  0  0
   38.4960   34.1960   40.1490 C   0  0  0  0  0  0  0  0  0  0  0  0
   38.9710   35.4740   40.4260 C   0  0  0  0  0  0  0  0  0  0  0  0
   40.3640   35.5550   40.5230 C   0  0  0  0  0  0  0  0  0  0  0  0
   41.1910   34.4270   40.3520 C   0  0  0  0  0  0  0  0  0  0  0  0
   40.6610   33.2200   40.0850 N   0  0  0  0  0  0  0  0  0  0  0  0
   37.4260   34.0340   40.0550 H   0  0  0  0  0  0  0  0  0  0  0  0
   38.3090   36.2920   40.5470 H   0  0  0  0  0  0  0  0  0  0  0  0
   40.6810   36.5640   40.7420 H   0  0  0  0  0  0  0  0  0  0  0  0
   42.6370   34.5940   40.4470 C   0  0  1  0  0  0  0  0  0  0  0  0
   43.0910   34.5860   41.9660 C   0  0  0  0  0  0  0  0  0  0  0  0
   44.5010   35.2200   41.8780 C   0  0  0  0  0  0  0  0  0  0  0  0
   45.3660   34.1100   41.2770 C   0  0  0  0  0  0  0  0  0  0  0  0
   44.9170   33.7620   39.9080 C   0  0  0  0  0  0  0  0  0  0  0  0
   43.4560   33.7220   39.6600 C   0  0  2  0  0  0  0  0  0  0  0  0
   42.8370   35.6800   40.2070 H   0  0  0  0  0  0  0  0  0  0  0  0
   43.1930   33.5400   42.2780 H   0  0  0  0  0  0  0  0  0  0  0  0
   42.4030   35.2050   42.5470 H   0  0  0  0  0  0  0  0  0  0  0  0
   44.7990   35.3540   42.9290 H   0  0  0  0  0  0  0  0  0  0  0  0
   44.5060   36.1390   41.2970 H   0  0  0  0  0  0  0  0  0  0  0  0
   45.3790   33.2760   41.9980 H   0  0  0  0  0  0  0  0  0  0  0  0
   46.3930   34.5290   41.2610 H   0  0  0  0  0  0  0  0  0  0  0  0
   45.4400   34.4900   39.2180 H   0  0  0  0  0  0  0  0  0  0  0  0
   45.3830   32.7910   39.6340 H   0  0  0  0  0  0  0  0  0  0  0  0
   43.1450   32.6440   39.8230 H   0  0  0  0  0  0  0  0  0  0  0  0
   43.2320   34.2190   37.9180 S   0  0  0  0  0  0  0  0  0  0  0  0
   43.3250   33.0480   37.1410 H   0  0  0  0  0  0  0  0  0  0  0  0
   38.6350   29.7720   38.6300 C   0  0  0  0  0  0  0  0  0  0  0  0
   37.4770   29.3740   39.2620 C   0  0  0  0  0  0  0  0  0  0  0  0
   36.9340   30.2620   40.1550 C   0  0  0  0  0  0  0  0  0  0  0  0
   37.5650   31.4590   40.3540 N   0  0  0  0  0  0  0  0  0  0  0  0
   38.7240   31.8010   39.6900 C   0  0  0  0  0  0  0  0  0  0  0  0
   39.2380   30.9720   38.8510 N   0  0  0  0  0  0  0  0  0  0  0  0
   35.7660   30.0610   40.9030 N   0  0  0  0  0  0  0  0  0  0  0  0
   39.0520   29.0490   37.9210 H   0  0  0  0  0  0  0  0  0  0  0  0
   35.3860   29.1420   41.2210 H   0  0  0  0  0  0  0  0  0  0  0  0
   35.1500   30.8150   41.2230 H   0  0  0  0  0  0  0  0  0  0  0  0
   35.2030   29.2450   37.2360 Cl  0  0  0  0  0  0  0  0  0  0  0  0
   35.7740   27.8840   38.1780 C   0  0  0  0  0  0  0  0  0  0  0  0
   36.8180   28.1220   39.0520 C   0  0  0  0  0  0  0  0  0  0  0  0
   37.3380   27.1000   39.8420 C   0  0  0  0  0  0  0  0  0  0  0  0
   38.1530   27.2050   40.5500 H   0  0  0  0  0  0  0  0  0  0  0  0
   36.8190   25.8030   39.7740 C   0  0  0  0  0  0  0  0  0  0  0  0
   37.2050   24.9980   40.3750 H   0  0  0  0  0  0  0  0  0  0  0  0
   35.7790   25.5840   38.8970 C   0  0  0  0  0  0  0  0  0  0  0  0
   35.3650   24.5850   38.8330 H   0  0  0  0  0  0  0  0  0  0  0  0
   35.2680   26.6000   38.1170 C   0  0  0  0  0  0  0  0  0  0  0  0
   33.9580   26.3210   37.0150 Cl  0  0  0  0  0  0  0  0  0  0  0  0
  1  6  2  0  0  0  0
  1  2  1  0  0  0  0
  2  3  2  0  0  0  0
  3  4  1  0  0  0  0
  3  8  1  0  0  0  0
  4  9  1  0  0  0  0
  5 10  1  0  0  0  0
  5  4  2  0  0  0  0
  6  5  1  0  0  0  0
  7  2  1  0  0  0  0
 10 16  1  6  0  0  0
 10 11  1  0  0  0  0
 11 17  1  0  0  0  0
 11 18  1  0  0  0  0
 12 11  1  0  0  0  0
 12 19  1  0  0  0  0
 13 12  1  0  0  0  0
 13 21  1  0  0  0  0
 14 13  1  0  0  0  0
 15 25  1  1  0  0  0
 15 14  1  0  0  0  0
 15 10  1  0  0  0  0
 20 12  1  0  0  0  0
 22 13  1  0  0  0  0
 23 14  1  0  0  0  0
 24 14  1  0  0  0  0
 26 15  1  0  0  0  0
 27 26  1  0  0  0  0
 28 33  2  0  0  0  0
 28 29  1  0  0  0  0
 29 30  2  0  0  0  0
 30 31  1  0  0  0  0
 30 34  1  0  0  0  0
 32  1  1  0  0  0  0
 32 31  2  0  0  0  0
 33 32  1  0  0  0  0
 34 36  1  0  0  0  0
 34 37  1  0  0  0  0
 35 28  1  0  0  0  0
 38 39  1  0  0  0  0
 39 40  1  0  0  0  0
 40 29  1  0  0  0  0
 40 41  2  0  0  0  0
 41 42  1  0  0  0  0
 43 41  1  0  0  0  0
 43 44  1  0  0  0  0
 45 43  2  0  0  0  0
 46 45  1  0  0  0  0
 47 39  2  0  0  0  0
 47 45  1  0  0  0  0
 48 47  1  0  0  0  0
M  END
>  <minimizedAffinity>
-6.33847332

$$$$
