REMARK  Name = 
REMARK  4 active torsions:
REMARK  status: ('A' for Active; 'I' for Inactive)
REMARK    1  A    between atoms: C_1  and  O_16
REMARK    2  A    between atoms: C_3  and  C_8
REMARK    3  A    between atoms: O_16  and  C_17
REMARK    4  A    between atoms: C_20  and  C_32
REMARK                            x       y       z     vdW  Elec       q    Type
REMARK                         _______ _______ _______ _____ _____    ______ ____
ROOT
ATOM      1  C   UNL     1      45.499  34.822  43.536  0.00  0.00    +0.000 A 
ATOM      2  C   UNL     1      46.217  33.750  44.116  0.00  0.00    +0.000 A 
ATOM      3  C   UNL     1      46.023  33.519  45.468  0.00  0.00    +0.000 A 
ATOM      4  N   UNL     1      45.176  34.307  46.164  0.00  0.00    +0.000 NA
ATOM      5  C   UNL     1      44.498  35.331  45.580  0.00  0.00    +0.000 A 
ATOM      6  N   UNL     1      44.664  35.574  44.294  0.00  0.00    +0.000 NA
ATOM      7  H   UNL     1      46.887  33.124  43.573  0.00  0.00    +0.000 HD
ATOM      8  H   UNL     1      43.836  35.923  46.196  0.00  0.00    +0.000 HD
ENDROOT
BRANCH   3  10
ATOM      9  C   UNL     1      47.011  32.694  47.536  0.00  0.00    +0.000 A 
ATOM     10  C   UNL     1      46.688  32.452  46.210  0.00  0.00    +0.000 A 
ATOM     11  C   UNL     1      47.010  31.232  45.676  0.00  0.00    +0.000 A 
ATOM     12  C   UNL     1      47.637  30.246  46.407  0.00  0.00    +0.000 A 
ATOM     13  N   UNL     1      48.039  28.987  46.087  0.00  0.00    +0.000 N 
ATOM     14  C   UNL     1      48.614  28.452  47.227  0.00  0.00    +0.000 A 
ATOM     15  N   UNL     1      48.552  29.382  48.207  0.00  0.00    +0.000 NA
ATOM     16  C   UNL     1      47.960  30.471  47.712  0.00  0.00    +0.000 A 
ATOM     17  C   UNL     1      47.648  31.693  48.278  0.00  0.00    +0.000 A 
ATOM     18  H   UNL     1      46.798  33.627  48.046  0.00  0.00    +0.000 HD
ATOM     19  H   UNL     1      46.757  31.044  44.639  0.00  0.00    +0.000 HD
ATOM     20  H   UNL     1      47.950  28.491  45.178  0.00  0.00    +0.000 HD
ATOM     21  H   UNL     1      49.042  27.466  47.333  0.00  0.00    +0.000 HD
ATOM     22  H   UNL     1      47.908  31.866  49.319  0.00  0.00    +0.000 HD
ENDBRANCH   3  10
BRANCH   1  23
ATOM     23  O   UNL     1      45.675  35.075  42.187  0.00  0.00    +0.000 OA
BRANCH  23  24
ATOM     24  C   UNL     1      44.628  34.911  41.288  0.00  0.00    +0.000 A 
ATOM     25  C   UNL     1      44.997  33.788  40.603  0.00  0.00    +0.000 A 
ATOM     26  S   UNL     1      43.548  33.600  39.394  0.00  0.00    +0.000 S 
ATOM     27  C   UNL     1      42.746  35.143  40.122  0.00  0.00    +0.000 A 
ATOM     28  N   UNL     1      43.486  35.422  40.894  0.00  0.00    +0.000 NA
ATOM     29  H   UNL     1      45.709  32.955  40.411  0.00  0.00    +0.000 HD
BRANCH  27  32
ATOM     30 CL   UNL     1      40.485  33.553  41.041  0.00  0.00    +0.000 Cl
ATOM     31  C   UNL     1      40.308  34.979  40.042  0.00  0.00    +0.000 A 
ATOM     32  C   UNL     1      41.412  35.702  39.630  0.00  0.00    +0.000 A 
ATOM     33  C   UNL     1      41.449  36.827  38.857  0.00  0.00    +0.000 A 
ATOM     34  H   UNL     1      42.354  37.317  38.591  0.00  0.00    +0.000 HD
ATOM     35  C   UNL     1      40.206  37.269  38.453  0.00  0.00    +0.000 A 
ATOM     36  H   UNL     1      40.108  38.158  37.831  0.00  0.00    +0.000 HD
ATOM     37  C   UNL     1      39.040  36.623  38.806  0.00  0.00    +0.000 A 
ATOM     38  H   UNL     1      38.044  36.939  38.508  0.00  0.00    +0.000 HD
ATOM     39  C   UNL     1      39.126  35.494  39.592  0.00  0.00    +0.000 A 
ATOM     40 CL   UNL     1      37.690  34.615  40.085  0.00  0.00    +0.000 Cl
ENDBRANCH  27  32
ENDBRANCH  23  24
ENDBRANCH   1  23
TORSDOF 4
