
 OpenBabel03252502243D

 36 38  0  0  1  0  0  0  0  0999 V2000
   46.6870   34.4910   42.2660 N   0  0  0  0  0  0  0  0  0  0  0  0
   48.1480   34.4020   42.2900 C   0  0  0  0  0  0  0  0  0  0  0  0
   48.5610   35.1830   41.0220 C   0  0  0  0  0  0  0  0  0  0  0  0
   48.1140   34.4200   39.8100 C   0  0  0  0  0  0  0  0  0  0  0  0
   46.7360   33.8710   39.9070 C   0  0  0  0  0  0  0  0  0  0  0  0
   45.9010   34.3560   41.0600 C   0  0  1  0  0  0  0  0  0  0  0  0
   48.5180   33.3730   42.2050 H   0  0  0  0  0  0  0  0  0  0  0  0
   48.5230   34.9590   43.1580 H   0  0  0  0  0  0  0  0  0  0  0  0
   49.6590   35.2490   41.0530 H   0  0  0  0  0  0  0  0  0  0  0  0
   48.0840   36.1830   41.1000 H   0  0  0  0  0  0  0  0  0  0  0  0
   48.2570   35.1090   38.9410 H   0  0  0  0  0  0  0  0  0  0  0  0
   48.8440   33.5970   39.6570 H   0  0  0  0  0  0  0  0  0  0  0  0
   46.7580   32.7520   39.9520 H   0  0  0  0  0  0  0  0  0  0  0  0
   46.1890   34.1210   38.9730 H   0  0  0  0  0  0  0  0  0  0  0  0
   45.5870   35.3850   40.8030 H   0  0  0  0  0  0  0  0  0  0  0  0
   44.4800   36.0050   44.8880 C   0  0  0  0  0  0  0  0  0  0  0  0
   45.1420   35.8650   43.6530 C   0  0  0  0  0  0  0  0  0  0  0  0
   45.9720   34.7220   43.4840 C   0  0  0  0  0  0  0  0  0  0  0  0
   46.0600   33.8580   44.5240 N   0  0  0  0  0  0  0  0  0  0  0  0
   45.4090   34.0280   45.6910 C   0  0  0  0  0  0  0  0  0  0  0  0
   44.6140   35.1110   45.8700 N   0  0  0  0  0  0  0  0  0  0  0  0
   43.8380   36.8720   45.0420 H   0  0  0  0  0  0  0  0  0  0  0  0
   45.0500   36.5660   42.8550 H   0  0  0  0  0  0  0  0  0  0  0  0
   45.5880   33.2350   46.4310 H   0  0  0  0  0  0  0  0  0  0  0  0
   44.8930   33.4640   41.2820 O   0  0  0  0  0  0  0  0  0  0  0  0
   42.6880   35.6580   41.1940 Cl  0  0  0  0  0  0  0  0  0  0  0  0
   42.5130   34.0160   40.6880 C   0  0  0  0  0  0  0  0  0  0  0  0
   43.6500   33.2530   40.8350 C   0  0  0  0  0  0  0  0  0  0  0  0
   43.5180   31.9150   40.4250 C   0  0  0  0  0  0  0  0  0  0  0  0
   44.2850   31.1230   40.4480 H   0  0  0  0  0  0  0  0  0  0  0  0
   42.3210   31.4150   39.9120 C   0  0  0  0  0  0  0  0  0  0  0  0
   42.1670   30.3990   39.5850 H   0  0  0  0  0  0  0  0  0  0  0  0
   41.2550   32.2500   39.8080 C   0  0  0  0  0  0  0  0  0  0  0  0
   40.2970   31.9120   39.4150 H   0  0  0  0  0  0  0  0  0  0  0  0
   41.3150   33.5690   40.1900 C   0  0  0  0  0  0  0  0  0  0  0  0
   39.9920   34.7010   40.0870 Cl  0  0  0  0  0  0  0  0  0  0  0  0
  1  2  1  0  0  0  0
  1 18  1  0  0  0  0
  2  8  1  0  0  0  0
  3  9  1  0  0  0  0
  3 10  1  0  0  0  0
  3  2  1  0  0  0  0
  4  5  1  0  0  0  0
  4  3  1  0  0  0  0
  5 13  1  0  0  0  0
  5  6  1  0  0  0  0
  6 15  1  6  0  0  0
  6 25  1  0  0  0  0
  6  1  1  0  0  0  0
  7  2  1  0  0  0  0
 11  4  1  0  0  0  0
 12  4  1  0  0  0  0
 14  5  1  0  0  0  0
 16 22  1  0  0  0  0
 16 21  1  0  0  0  0
 17 16  2  0  0  0  0
 18 17  1  0  0  0  0
 18 19  2  0  0  0  0
 19 20  1  0  0  0  0
 20 21  2  0  0  0  0
 20 24  1  0  0  0  0
 23 17  1  0  0  0  0
 27 28  1  0  0  0  0
 27 26  1  0  0  0  0
 28 25  1  0  0  0  0
 29 30  1  0  0  0  0
 29 28  2  0  0  0  0
 31 29  1  0  0  0  0
 32 31  1  0  0  0  0
 33 31  2  0  0  0  0
 33 35  1  0  0  0  0
 34 33  1  0  0  0  0
 35 27  2  0  0  0  0
 36 35  1  0  0  0  0
M  END
>  <minimizedAffinity>
-5.77319813

>  <minimizedRMSD>
0.956339896

$$$$
