
 OpenBabel03242516103D

 27 29  0  0  0  0  0  0  0  0999 V2000
   37.2170   27.3230   42.3900 C   0  0  0  0  0  0  0  0  0  0  0  0
   36.3520   27.3940   43.6000 C   0  0  0  0  0  0  0  0  0  0  0  0
   37.7810   27.8300   43.6710 C   0  0  0  0  0  0  0  0  0  0  0  0
   36.0530   26.4110   44.0500 H   0  0  0  0  0  0  0  0  0  0  0  0
   35.6120   28.1760   43.7560 H   0  0  0  0  0  0  0  0  0  0  0  0
   38.5220   27.2300   44.2410 H   0  0  0  0  0  0  0  0  0  0  0  0
   37.9830   28.9130   43.7780 H   0  0  0  0  0  0  0  0  0  0  0  0
   39.6070   28.4120   40.7460 Cl  0  0  0  0  0  0  0  0  0  0  0  0
   37.9670   28.8630   40.4520 C   0  0  0  0  0  0  0  0  0  0  0  0
   37.0070   28.3010   41.2590 C   0  0  0  0  0  0  0  0  0  0  0  0
   35.6880   28.6660   41.0210 C   0  0  0  0  0  0  0  0  0  0  0  0
   34.8070   28.3370   41.5400 H   0  0  0  0  0  0  0  0  0  0  0  0
   35.3640   29.5570   40.0130 C   0  0  0  0  0  0  0  0  0  0  0  0
   34.3510   29.8880   39.7690 H   0  0  0  0  0  0  0  0  0  0  0  0
   36.3430   30.1130   39.2120 C   0  0  0  0  0  0  0  0  0  0  0  0
   36.1530   30.8070   38.4170 H   0  0  0  0  0  0  0  0  0  0  0  0
   37.6390   29.7420   39.4610 C   0  0  0  0  0  0  0  0  0  0  0  0
   38.9470   30.3960   38.4950 Cl  0  0  0  0  0  0  0  0  0  0  0  0
   36.9450   25.3290   40.8670 C   0  0  0  0  0  0  0  0  0  0  0  0
   37.6190   25.9940   41.9070 C   0  0  0  0  0  0  0  0  0  0  0  0
   38.7270   25.3070   42.4490 C   0  0  0  0  0  0  0  0  0  0  0  0
   39.0790   24.0880   41.9630 N   0  0  0  0  0  0  0  0  0  0  0  0
   38.3910   23.5050   40.9620 C   0  0  0  0  0  0  0  0  0  0  0  0
   37.3300   24.1310   40.4250 N   0  0  0  0  0  0  0  0  0  0  0  0
   36.0810   25.7870   40.4030 H   0  0  0  0  0  0  0  0  0  0  0  0
   39.2370   25.8250   43.2460 H   0  0  0  0  0  0  0  0  0  0  0  0
   38.8270   22.5470   40.7220 H   0  0  0  0  0  0  0  0  0  0  0  0
  1  2  1  0  0  0  0
  1  3  1  0  0  0  0
  2  3  1  0  0  0  0
  2  5  1  0  0  0  0
  2  4  1  0  0  0  0
  3  7  1  0  0  0  0
  3  6  1  0  0  0  0
  9  8  1  0  0  0  0
  9 10  1  0  0  0  0
 10  1  1  0  0  0  0
 11 10  2  0  0  0  0
 11 12  1  0  0  0  0
 13 11  1  0  0  0  0
 14 13  1  0  0  0  0
 15 17  1  0  0  0  0
 15 13  2  0  0  0  0
 16 15  1  0  0  0  0
 17  9  2  0  0  0  0
 18 17  1  0  0  0  0
 19 20  1  0  0  0  0
 20  1  1  0  0  0  0
 20 21  2  0  0  0  0
 21 26  1  0  0  0  0
 22 21  1  0  0  0  0
 23 22  2  0  0  0  0
 24 19  2  0  0  0  0
 24 23  1  0  0  0  0
 25 19  1  0  0  0  0
 27 23  1  0  0  0  0
M  END
>  <minimizedAffinity>
-4.89565563

$$$$

 OpenBabel03242516103D

 27 29  0  0  0  0  0  0  0  0999 V2000
   37.1960   27.4730   42.4180 C   0  0  0  0  0  0  0  0  0  0  0  0
   37.7340   28.0570   43.6770 C   0  0  0  0  0  0  0  0  0  0  0  0
   36.4030   27.3760   43.6740 C   0  0  0  0  0  0  0  0  0  0  0  0
   37.7800   29.1780   43.7200 H   0  0  0  0  0  0  0  0  0  0  0  0
   38.5090   27.5770   44.2720 H   0  0  0  0  0  0  0  0  0  0  0  0
   35.4710   27.9660   43.8030 H   0  0  0  0  0  0  0  0  0  0  0  0
   36.3250   26.3980   44.1860 H   0  0  0  0  0  0  0  0  0  0  0  0
   39.9370   27.5290   40.9730 Cl  0  0  0  0  0  0  0  0  0  0  0  0
   39.0070   26.0910   41.1930 C   0  0  0  0  0  0  0  0  0  0  0  0
   37.8080   26.2130   41.8550 C   0  0  0  0  0  0  0  0  0  0  0  0
   37.0630   25.0540   42.0300 C   0  0  0  0  0  0  0  0  0  0  0  0
   36.1110   24.9480   42.5160 H   0  0  0  0  0  0  0  0  0  0  0  0
   37.5140   23.8350   41.5570 C   0  0  0  0  0  0  0  0  0  0  0  0
   36.9830   22.8850   41.6600 H   0  0  0  0  0  0  0  0  0  0  0  0
   38.7220   23.7320   40.8940 C   0  0  0  0  0  0  0  0  0  0  0  0
   39.1230   22.8150   40.5060 H   0  0  0  0  0  0  0  0  0  0  0  0
   39.4460   24.8850   40.7290 C   0  0  0  0  0  0  0  0  0  0  0  0
   40.9900   24.8490   39.9000 Cl  0  0  0  0  0  0  0  0  0  0  0  0
   36.1060   27.9580   40.1940 C   0  0  0  0  0  0  0  0  0  0  0  0
   36.7560   28.3960   41.3620 C   0  0  0  0  0  0  0  0  0  0  0  0
   36.9430   29.7910   41.4660 C   0  0  0  0  0  0  0  0  0  0  0  0
   36.5060   30.6150   40.4780 N   0  0  0  0  0  0  0  0  0  0  0  0
   35.8880   30.1310   39.3820 C   0  0  0  0  0  0  0  0  0  0  0  0
   35.6940   28.8080   39.2520 N   0  0  0  0  0  0  0  0  0  0  0  0
   35.9300   26.9020   40.0370 H   0  0  0  0  0  0  0  0  0  0  0  0
   37.4430   30.1170   42.3640 H   0  0  0  0  0  0  0  0  0  0  0  0
   35.6190   30.9410   38.7210 H   0  0  0  0  0  0  0  0  0  0  0  0
  1  3  1  0  0  0  0
  1  2  1  0  0  0  0
  2  4  1  0  0  0  0
  2  5  1  0  0  0  0
  3  2  1  0  0  0  0
  3  6  1  0  0  0  0
  3  7  1  0  0  0  0
  8  9  1  0  0  0  0
  9 10  1  0  0  0  0
 10 11  2  0  0  0  0
 10  1  1  0  0  0  0
 11 12  1  0  0  0  0
 13 14  1  0  0  0  0
 13 11  1  0  0  0  0
 15 13  2  0  0  0  0
 16 15  1  0  0  0  0
 17 15  1  0  0  0  0
 17  9  2  0  0  0  0
 18 17  1  0  0  0  0
 19 20  1  0  0  0  0
 20 21  2  0  0  0  0
 20  1  1  0  0  0  0
 21 26  1  0  0  0  0
 22 21  1  0  0  0  0
 23 22  2  0  0  0  0
 24 23  1  0  0  0  0
 24 19  2  0  0  0  0
 25 19  1  0  0  0  0
 27 23  1  0  0  0  0
M  END
>  <minimizedAffinity>
-4.88943815

$$$$

 OpenBabel03242516103D

 27 29  0  0  0  0  0  0  0  0999 V2000
   38.7440   32.7910   40.0140 C   0  0  0  0  0  0  0  0  0  0  0  0
   38.4990   34.1600   40.5440 C   0  0  0  0  0  0  0  0  0  0  0  0
   37.5150   33.5290   39.6130 C   0  0  0  0  0  0  0  0  0  0  0  0
   39.1810   34.9650   40.1610 H   0  0  0  0  0  0  0  0  0  0  0  0
   38.1390   34.3520   41.5530 H   0  0  0  0  0  0  0  0  0  0  0  0
   37.3970   33.9120   38.5770 H   0  0  0  0  0  0  0  0  0  0  0  0
   36.5390   33.2150   40.0320 H   0  0  0  0  0  0  0  0  0  0  0  0
   36.3710   30.8200   39.7190 Cl  0  0  0  0  0  0  0  0  0  0  0  0
   37.6060   30.6490   40.9120 C   0  0  0  0  0  0  0  0  0  0  0  0
   38.6010   31.5970   40.9270 C   0  0  0  0  0  0  0  0  0  0  0  0
   39.5940   31.4560   41.8890 C   0  0  0  0  0  0  0  0  0  0  0  0
   40.4440   32.0900   42.0580 H   0  0  0  0  0  0  0  0  0  0  0  0
   39.5750   30.4050   42.7880 C   0  0  0  0  0  0  0  0  0  0  0  0
   40.3200   30.2310   43.5670 H   0  0  0  0  0  0  0  0  0  0  0  0
   38.5660   29.4610   42.7570 C   0  0  0  0  0  0  0  0  0  0  0  0
   38.4990   28.6250   43.4260 H   0  0  0  0  0  0  0  0  0  0  0  0
   37.5940   29.6140   41.8020 C   0  0  0  0  0  0  0  0  0  0  0  0
   36.2760   28.4640   41.6890 Cl  0  0  0  0  0  0  0  0  0  0  0  0
   39.8430   31.5550   38.1080 C   0  0  0  0  0  0  0  0  0  0  0  0
   39.8250   32.6130   39.0340 C   0  0  0  0  0  0  0  0  0  0  0  0
   40.9100   33.5130   38.9500 C   0  0  0  0  0  0  0  0  0  0  0  0
   41.8810   33.3260   38.0180 N   0  0  0  0  0  0  0  0  0  0  0  0
   41.8390   32.2900   37.1570 C   0  0  0  0  0  0  0  0  0  0  0  0
   40.8210   31.4150   37.2110 N   0  0  0  0  0  0  0  0  0  0  0  0
   39.0490   30.8190   38.1120 H   0  0  0  0  0  0  0  0  0  0  0  0
   40.8870   34.3200   39.6640 H   0  0  0  0  0  0  0  0  0  0  0  0
   42.6960   32.3190   36.5010 H   0  0  0  0  0  0  0  0  0  0  0  0
  1  2  1  0  0  0  0
  1 10  1  0  0  0  0
  2  5  1  0  0  0  0
  3  1  1  0  0  0  0
  3  7  1  0  0  0  0
  3  2  1  0  0  0  0
  4  2  1  0  0  0  0
  6  3  1  0  0  0  0
  8  9  1  0  0  0  0
  9 10  2  0  0  0  0
  9 17  1  0  0  0  0
 10 11  1  0  0  0  0
 11 12  1  0  0  0  0
 11 13  2  0  0  0  0
 13 14  1  0  0  0  0
 15 13  1  0  0  0  0
 15 16  1  0  0  0  0
 17 15  2  0  0  0  0
 18 17  1  0  0  0  0
 19 25  1  0  0  0  0
 19 20  1  0  0  0  0
 20  1  1  0  0  0  0
 21 20  2  0  0  0  0
 21 26  1  0  0  0  0
 22 21  1  0  0  0  0
 23 24  1  0  0  0  0
 23 22  2  0  0  0  0
 24 19  2  0  0  0  0
 27 23  1  0  0  0  0
M  END
>  <minimizedAffinity>
-4.7957921

$$$$

 OpenBabel03242516103D

 27 29  0  0  0  0  0  0  0  0999 V2000
   37.4740   27.5970   42.2750 C   0  0  0  0  0  0  0  0  0  0  0  0
   36.5460   27.1970   43.3680 C   0  0  0  0  0  0  0  0  0  0  0  0
   37.9660   27.5460   43.6790 C   0  0  0  0  0  0  0  0  0  0  0  0
   36.2290   26.1200   43.3750 H   0  0  0  0  0  0  0  0  0  0  0  0
   35.7940   27.8640   43.7830 H   0  0  0  0  0  0  0  0  0  0  0  0
   38.6800   26.7580   44.0020 H   0  0  0  0  0  0  0  0  0  0  0  0
   38.1560   28.4950   44.2160 H   0  0  0  0  0  0  0  0  0  0  0  0
   39.7250   29.7220   42.4170 Cl  0  0  0  0  0  0  0  0  0  0  0  0
   38.2270   29.9770   41.5980 C   0  0  0  0  0  0  0  0  0  0  0  0
   37.3180   28.9450   41.6150 C   0  0  0  0  0  0  0  0  0  0  0  0
   36.1140   29.1540   40.9550 C   0  0  0  0  0  0  0  0  0  0  0  0
   35.2870   28.4750   40.8590 H   0  0  0  0  0  0  0  0  0  0  0  0
   35.8480   30.3500   40.3130 C   0  0  0  0  0  0  0  0  0  0  0  0
   34.9250   30.5830   39.7750 H   0  0  0  0  0  0  0  0  0  0  0  0
   36.7730   31.3760   40.3080 C   0  0  0  0  0  0  0  0  0  0  0  0
   36.6240   32.3230   39.8270 H   0  0  0  0  0  0  0  0  0  0  0  0
   37.9570   31.1540   40.9630 C   0  0  0  0  0  0  0  0  0  0  0  0
   39.1900   32.3990   41.0080 Cl  0  0  0  0  0  0  0  0  0  0  0  0
   39.1910   26.5530   40.7470 C   0  0  0  0  0  0  0  0  0  0  0  0
   37.9090   26.5610   41.3260 C   0  0  0  0  0  0  0  0  0  0  0  0
   37.0660   25.4930   40.9490 C   0  0  0  0  0  0  0  0  0  0  0  0
   37.5100   24.5450   40.0840 N   0  0  0  0  0  0  0  0  0  0  0  0
   38.7530   24.5940   39.5650 C   0  0  0  0  0  0  0  0  0  0  0  0
   39.5810   25.5980   39.9020 N   0  0  0  0  0  0  0  0  0  0  0  0
   39.8950   27.3420   40.9810 H   0  0  0  0  0  0  0  0  0  0  0  0
   36.0850   25.5090   41.3970 H   0  0  0  0  0  0  0  0  0  0  0  0
   38.9120   23.7550   38.9040 H   0  0  0  0  0  0  0  0  0  0  0  0
  1  2  1  0  0  0  0
  1  3  1  0  0  0  0
  2  4  1  0  0  0  0
  2  3  1  0  0  0  0
  2  5  1  0  0  0  0
  3  6  1  0  0  0  0
  3  7  1  0  0  0  0
  9 10  1  0  0  0  0
  9  8  1  0  0  0  0
 10  1  1  0  0  0  0
 11 10  2  0  0  0  0
 12 11  1  0  0  0  0
 13 11  1  0  0  0  0
 14 13  1  0  0  0  0
 15 13  2  0  0  0  0
 15 17  1  0  0  0  0
 16 15  1  0  0  0  0
 17 18  1  0  0  0  0
 17  9  2  0  0  0  0
 19 25  1  0  0  0  0
 19 20  1  0  0  0  0
 20  1  1  0  0  0  0
 21 20  2  0  0  0  0
 21 26  1  0  0  0  0
 22 21  1  0  0  0  0
 23 24  1  0  0  0  0
 23 22  2  0  0  0  0
 24 19  2  0  0  0  0
 27 23  1  0  0  0  0
M  END
>  <minimizedAffinity>
-4.76476431

$$$$

 OpenBabel03242516103D

 27 29  0  0  0  0  0  0  0  0999 V2000
   38.4300   32.8170   39.9210 C   0  0  0  0  0  0  0  0  0  0  0  0
   38.4800   34.0750   40.7150 C   0  0  0  0  0  0  0  0  0  0  0  0
   37.5160   33.9420   39.5810 C   0  0  0  0  0  0  0  0  0  0  0  0
   39.4010   34.7040   40.5840 H   0  0  0  0  0  0  0  0  0  0  0  0
   38.0370   34.1730   41.7040 H   0  0  0  0  0  0  0  0  0  0  0  0
   37.6610   34.5280   38.6490 H   0  0  0  0  0  0  0  0  0  0  0  0
   36.4400   33.8530   39.8290 H   0  0  0  0  0  0  0  0  0  0  0  0
   39.9200   31.2610   42.1480 Cl  0  0  0  0  0  0  0  0  0  0  0  0
   38.3860   30.7830   41.5180 C   0  0  0  0  0  0  0  0  0  0  0  0
   37.8390   31.5690   40.5310 C   0  0  0  0  0  0  0  0  0  0  0  0
   36.6040   31.1820   40.0260 C   0  0  0  0  0  0  0  0  0  0  0  0
   36.0240   31.6610   39.2610 H   0  0  0  0  0  0  0  0  0  0  0  0
   35.9600   30.0530   40.5010 C   0  0  0  0  0  0  0  0  0  0  0  0
   34.9900   29.6900   40.1530 H   0  0  0  0  0  0  0  0  0  0  0  0
   36.5250   29.2760   41.4940 C   0  0  0  0  0  0  0  0  0  0  0  0
   36.0730   28.3920   41.9010 H   0  0  0  0  0  0  0  0  0  0  0  0
   37.7440   29.6710   41.9810 C   0  0  0  0  0  0  0  0  0  0  0  0
   38.5360   28.7450   43.2410 Cl  0  0  0  0  0  0  0  0  0  0  0  0
   39.5770   31.4010   38.1750 C   0  0  0  0  0  0  0  0  0  0  0  0
   39.5600   32.5180   39.0290 C   0  0  0  0  0  0  0  0  0  0  0  0
   40.6970   33.3520   38.9630 C   0  0  0  0  0  0  0  0  0  0  0  0
   41.7140   33.0520   38.1120 N   0  0  0  0  0  0  0  0  0  0  0  0
   41.6680   31.9650   37.3170 C   0  0  0  0  0  0  0  0  0  0  0  0
   40.6000   31.1500   37.3570 N   0  0  0  0  0  0  0  0  0  0  0  0
   38.7430   30.7100   38.1720 H   0  0  0  0  0  0  0  0  0  0  0  0
   40.6750   34.2050   39.6210 H   0  0  0  0  0  0  0  0  0  0  0  0
   42.5660   31.9050   36.7200 H   0  0  0  0  0  0  0  0  0  0  0  0
  1 10  1  0  0  0  0
  1  2  1  0  0  0  0
  2  5  1  0  0  0  0
  3  7  1  0  0  0  0
  3  1  1  0  0  0  0
  3  2  1  0  0  0  0
  4  2  1  0  0  0  0
  6  3  1  0  0  0  0
  9 17  1  0  0  0  0
  9  8  1  0  0  0  0
 10  9  2  0  0  0  0
 11 13  2  0  0  0  0
 11 10  1  0  0  0  0
 12 11  1  0  0  0  0
 13 15  1  0  0  0  0
 14 13  1  0  0  0  0
 15 16  1  0  0  0  0
 15 17  2  0  0  0  0
 17 18  1  0  0  0  0
 19 20  1  0  0  0  0
 20  1  1  0  0  0  0
 21 20  2  0  0  0  0
 21 26  1  0  0  0  0
 22 21  1  0  0  0  0
 23 24  1  0  0  0  0
 23 22  2  0  0  0  0
 24 19  2  0  0  0  0
 25 19  1  0  0  0  0
 27 23  1  0  0  0  0
M  END
>  <minimizedAffinity>
-4.64865446

$$$$

 OpenBabel03242516103D

 27 29  0  0  0  0  0  0  0  0999 V2000
   35.7540   28.8360   39.4010 C   0  0  0  0  0  0  0  0  0  0  0  0
   34.3310   29.2600   39.5120 C   0  0  0  0  0  0  0  0  0  0  0  0
   34.7590   28.3530   38.4030 C   0  0  0  0  0  0  0  0  0  0  0  0
   34.1210   30.3400   39.2900 H   0  0  0  0  0  0  0  0  0  0  0  0
   33.6370   28.8320   40.2320 H   0  0  0  0  0  0  0  0  0  0  0  0
   34.7840   28.7200   37.3550 H   0  0  0  0  0  0  0  0  0  0  0  0
   34.4260   27.2980   38.4450 H   0  0  0  0  0  0  0  0  0  0  0  0
   36.8990   26.1120   38.4660 Cl  0  0  0  0  0  0  0  0  0  0  0  0
   36.8560   26.6090   40.1190 C   0  0  0  0  0  0  0  0  0  0  0  0
   36.3200   27.8460   40.3890 C   0  0  0  0  0  0  0  0  0  0  0  0
   36.2870   28.2420   41.7200 C   0  0  0  0  0  0  0  0  0  0  0  0
   35.9110   29.1630   42.1260 H   0  0  0  0  0  0  0  0  0  0  0  0
   36.7740   27.4230   42.7230 C   0  0  0  0  0  0  0  0  0  0  0  0
   36.7810   27.6690   43.7880 H   0  0  0  0  0  0  0  0  0  0  0  0
   37.3080   26.1820   42.4320 C   0  0  0  0  0  0  0  0  0  0  0  0
   37.7010   25.5050   43.1650 H   0  0  0  0  0  0  0  0  0  0  0  0
   37.3340   25.8060   41.1140 C   0  0  0  0  0  0  0  0  0  0  0  0
   37.9940   24.2490   40.6510 Cl  0  0  0  0  0  0  0  0  0  0  0  0
   37.7430   29.5830   38.0390 C   0  0  0  0  0  0  0  0  0  0  0  0
   36.7450   29.8430   38.9940 C   0  0  0  0  0  0  0  0  0  0  0  0
   36.7410   31.1500   39.5300 C   0  0  0  0  0  0  0  0  0  0  0  0
   37.6620   32.0590   39.1150 N   0  0  0  0  0  0  0  0  0  0  0  0
   38.5940   31.7460   38.1940 C   0  0  0  0  0  0  0  0  0  0  0  0
   38.6250   30.5110   37.6650 N   0  0  0  0  0  0  0  0  0  0  0  0
   37.8160   28.6020   37.5860 H   0  0  0  0  0  0  0  0  0  0  0  0
   35.9730   31.3390   40.2610 H   0  0  0  0  0  0  0  0  0  0  0  0
   39.2260   32.6000   38.0020 H   0  0  0  0  0  0  0  0  0  0  0  0
  1  2  1  0  0  0  0
  1 10  1  0  0  0  0
  2  5  1  0  0  0  0
  3  7  1  0  0  0  0
  3  1  1  0  0  0  0
  3  2  1  0  0  0  0
  4  2  1  0  0  0  0
  6  3  1  0  0  0  0
  8  9  1  0  0  0  0
  9 10  2  0  0  0  0
  9 17  1  0  0  0  0
 10 11  1  0  0  0  0
 11 12  1  0  0  0  0
 11 13  2  0  0  0  0
 13 14  1  0  0  0  0
 15 13  1  0  0  0  0
 15 16  1  0  0  0  0
 17 15  2  0  0  0  0
 18 17  1  0  0  0  0
 19 20  1  0  0  0  0
 20  1  1  0  0  0  0
 20 21  2  0  0  0  0
 21 26  1  0  0  0  0
 22 21  1  0  0  0  0
 23 22  2  0  0  0  0
 24 19  2  0  0  0  0
 24 23  1  0  0  0  0
 25 19  1  0  0  0  0
 27 23  1  0  0  0  0
M  END
>  <minimizedAffinity>
-4.61837864

$$$$

 OpenBabel03242516103D

 27 29  0  0  0  0  0  0  0  0999 V2000
   38.5370   29.8760   39.6750 C   0  0  0  0  0  0  0  0  0  0  0  0
   37.8120   29.3320   38.4940 C   0  0  0  0  0  0  0  0  0  0  0  0
   39.3060   29.3520   38.5130 C   0  0  0  0  0  0  0  0  0  0  0  0
   37.2580   30.0820   37.8680 H   0  0  0  0  0  0  0  0  0  0  0  0
   37.3520   28.3460   38.4810 H   0  0  0  0  0  0  0  0  0  0  0  0
   39.8660   30.0420   37.8460 H   0  0  0  0  0  0  0  0  0  0  0  0
   39.8320   28.3830   38.6100 H   0  0  0  0  0  0  0  0  0  0  0  0
   35.9120   28.9830   41.0580 Cl  0  0  0  0  0  0  0  0  0  0  0  0
   37.4830   28.6370   41.6850 C   0  0  0  0  0  0  0  0  0  0  0  0
   38.5610   29.0940   40.9660 C   0  0  0  0  0  0  0  0  0  0  0  0
   39.8240   28.8140   41.4730 C   0  0  0  0  0  0  0  0  0  0  0  0
   40.7770   29.0850   41.0590 H   0  0  0  0  0  0  0  0  0  0  0  0
   39.9800   28.1060   42.6510 C   0  0  0  0  0  0  0  0  0  0  0  0
   40.9390   27.8490   43.1080 H   0  0  0  0  0  0  0  0  0  0  0  0
   38.8830   27.6540   43.3610 C   0  0  0  0  0  0  0  0  0  0  0  0
   38.9420   27.1010   44.2780 H   0  0  0  0  0  0  0  0  0  0  0  0
   37.6450   27.9390   42.8470 C   0  0  0  0  0  0  0  0  0  0  0  0
   36.1970   27.4060   43.6800 Cl  0  0  0  0  0  0  0  0  0  0  0  0
   39.5950   32.0580   40.3740 C   0  0  0  0  0  0  0  0  0  0  0  0
   38.4890   31.3280   39.9060 C   0  0  0  0  0  0  0  0  0  0  0  0
   37.3240   32.0840   39.6520 C   0  0  0  0  0  0  0  0  0  0  0  0
   37.3230   33.4270   39.8610 N   0  0  0  0  0  0  0  0  0  0  0  0
   38.4200   34.0690   40.3100 C   0  0  0  0  0  0  0  0  0  0  0  0
   39.5450   33.3780   40.5620 N   0  0  0  0  0  0  0  0  0  0  0  0
   40.5240   31.5490   40.5980 H   0  0  0  0  0  0  0  0  0  0  0  0
   36.4810   31.5150   39.2950 H   0  0  0  0  0  0  0  0  0  0  0  0
   38.2160   35.1240   40.4080 H   0  0  0  0  0  0  0  0  0  0  0  0
  1 20  1  0  0  0  0
  1 10  1  0  0  0  0
  2  3  1  0  0  0  0
  2  1  1  0  0  0  0
  3  7  1  0  0  0  0
  3  1  1  0  0  0  0
  4  2  1  0  0  0  0
  5  2  1  0  0  0  0
  6  3  1  0  0  0  0
  8  9  1  0  0  0  0
  9 17  1  0  0  0  0
 10 11  1  0  0  0  0
 10  9  2  0  0  0  0
 11 13  2  0  0  0  0
 12 11  1  0  0  0  0
 13 14  1  0  0  0  0
 13 15  1  0  0  0  0
 15 16  1  0  0  0  0
 17 15  2  0  0  0  0
 17 18  1  0  0  0  0
 19 24  1  0  0  0  0
 19 25  1  0  0  0  0
 20 19  2  0  0  0  0
 21 22  2  0  0  0  0
 21 20  1  0  0  0  0
 22 23  1  0  0  0  0
 23 27  1  0  0  0  0
 23 24  2  0  0  0  0
 26 21  1  0  0  0  0
M  END
>  <minimizedAffinity>
-4.60158777

$$$$

 OpenBabel03242516103D

 27 29  0  0  0  0  0  0  0  0999 V2000
   37.7610   27.4650   42.4530 C   0  0  0  0  0  0  0  0  0  0  0  0
   36.9880   27.8010   43.6800 C   0  0  0  0  0  0  0  0  0  0  0  0
   37.0270   28.7580   42.5320 C   0  0  0  0  0  0  0  0  0  0  0  0
   37.5940   28.0180   44.5990 H   0  0  0  0  0  0  0  0  0  0  0  0
   36.0130   27.3720   43.9040 H   0  0  0  0  0  0  0  0  0  0  0  0
   37.5790   29.7180   42.6200 H   0  0  0  0  0  0  0  0  0  0  0  0
   36.1020   28.8870   41.9380 H   0  0  0  0  0  0  0  0  0  0  0  0
   37.0920   28.1260   39.5000 Cl  0  0  0  0  0  0  0  0  0  0  0  0
   36.9120   26.5520   40.1860 C   0  0  0  0  0  0  0  0  0  0  0  0
   37.2480   26.4020   41.5110 C   0  0  0  0  0  0  0  0  0  0  0  0
   37.1020   25.1350   42.0600 C   0  0  0  0  0  0  0  0  0  0  0  0
   37.3090   24.8230   43.0670 H   0  0  0  0  0  0  0  0  0  0  0  0
   36.6380   24.0750   41.3010 C   0  0  0  0  0  0  0  0  0  0  0  0
   36.4990   23.0540   41.6650 H   0  0  0  0  0  0  0  0  0  0  0  0
   36.3050   24.2460   39.9700 C   0  0  0  0  0  0  0  0  0  0  0  0
   35.9410   23.4630   39.3330 H   0  0  0  0  0  0  0  0  0  0  0  0
   36.4540   25.5030   39.4440 C   0  0  0  0  0  0  0  0  0  0  0  0
   36.0560   25.8110   37.7650 Cl  0  0  0  0  0  0  0  0  0  0  0  0
   39.9250   26.8930   43.6180 C   0  0  0  0  0  0  0  0  0  0  0  0
   39.2290   27.4670   42.5400 C   0  0  0  0  0  0  0  0  0  0  0  0
   40.0340   28.0350   41.5290 C   0  0  0  0  0  0  0  0  0  0  0  0
   41.3890   28.0020   41.6360 N   0  0  0  0  0  0  0  0  0  0  0  0
   41.9960   27.4330   42.6960 C   0  0  0  0  0  0  0  0  0  0  0  0
   41.2580   26.8850   43.6760 N   0  0  0  0  0  0  0  0  0  0  0  0
   39.3790   26.4420   44.4360 H   0  0  0  0  0  0  0  0  0  0  0  0
   39.4910   28.4740   40.7070 H   0  0  0  0  0  0  0  0  0  0  0  0
   43.0680   27.5090   42.5930 H   0  0  0  0  0  0  0  0  0  0  0  0
  1  3  1  0  0  0  0
  1 20  1  0  0  0  0
  1  2  1  0  0  0  0
  2  5  1  0  0  0  0
  2  4  1  0  0  0  0
  3  6  1  0  0  0  0
  3  2  1  0  0  0  0
  7  3  1  0  0  0  0
  8  9  1  0  0  0  0
  9 10  1  0  0  0  0
 10 11  2  0  0  0  0
 10  1  1  0  0  0  0
 11 12  1  0  0  0  0
 13 14  1  0  0  0  0
 13 11  1  0  0  0  0
 15 13  2  0  0  0  0
 16 15  1  0  0  0  0
 17 15  1  0  0  0  0
 17  9  2  0  0  0  0
 18 17  1  0  0  0  0
 19 24  1  0  0  0  0
 19 25  1  0  0  0  0
 20 19  2  0  0  0  0
 21 22  2  0  0  0  0
 21 20  1  0  0  0  0
 22 23  1  0  0  0  0
 23 24  2  0  0  0  0
 26 21  1  0  0  0  0
 27 23  1  0  0  0  0
M  END
>  <minimizedAffinity>
-4.59546566

$$$$

 OpenBabel03242516103D

 27 29  0  0  0  0  0  0  0  0999 V2000
   36.9770   28.6440   39.7440 C   0  0  0  0  0  0  0  0  0  0  0  0
   35.7980   27.9350   39.1760 C   0  0  0  0  0  0  0  0  0  0  0  0
   37.1580   27.7130   38.5960 C   0  0  0  0  0  0  0  0  0  0  0  0
   35.0600   28.5740   38.6210 H   0  0  0  0  0  0  0  0  0  0  0  0
   35.3390   27.0700   39.6490 H   0  0  0  0  0  0  0  0  0  0  0  0
   37.4070   28.1010   37.5860 H   0  0  0  0  0  0  0  0  0  0  0  0
   37.6370   26.7300   38.7710 H   0  0  0  0  0  0  0  0  0  0  0  0
   40.0160   28.7330   40.3470 Cl  0  0  0  0  0  0  0  0  0  0  0  0
   38.8320   28.2240   41.4970 C   0  0  0  0  0  0  0  0  0  0  0  0
   37.5180   28.2360   41.0930 C   0  0  0  0  0  0  0  0  0  0  0  0
   36.5690   27.8260   42.0200 C   0  0  0  0  0  0  0  0  0  0  0  0
   35.5040   27.7660   41.8930 H   0  0  0  0  0  0  0  0  0  0  0  0
   36.9370   27.4250   43.2920 C   0  0  0  0  0  0  0  0  0  0  0  0
   36.2470   27.0930   44.0710 H   0  0  0  0  0  0  0  0  0  0  0  0
   38.2640   27.4200   43.6800 C   0  0  0  0  0  0  0  0  0  0  0  0
   38.6090   27.1210   44.6510 H   0  0  0  0  0  0  0  0  0  0  0  0
   39.1880   27.8270   42.7530 C   0  0  0  0  0  0  0  0  0  0  0  0
   40.8940   27.8530   43.1570 Cl  0  0  0  0  0  0  0  0  0  0  0  0
   36.8250   31.0400   40.5210 C   0  0  0  0  0  0  0  0  0  0  0  0
   37.0880   30.0920   39.5160 C   0  0  0  0  0  0  0  0  0  0  0  0
   37.4860   30.6220   38.2700 C   0  0  0  0  0  0  0  0  0  0  0  0
   37.5950   31.9660   38.1030 N   0  0  0  0  0  0  0  0  0  0  0  0
   37.3300   32.8230   39.1090 C   0  0  0  0  0  0  0  0  0  0  0  0
   36.9470   32.3510   40.3080 N   0  0  0  0  0  0  0  0  0  0  0  0
   36.5080   30.7130   41.5040 H   0  0  0  0  0  0  0  0  0  0  0  0
   37.6850   29.8880   37.5060 H   0  0  0  0  0  0  0  0  0  0  0  0
   37.4750   33.8400   38.7770 H   0  0  0  0  0  0  0  0  0  0  0  0
  1 10  1  0  0  0  0
  2  5  1  0  0  0  0
  2  1  1  0  0  0  0
  3  7  1  0  0  0  0
  3  2  1  0  0  0  0
  3  1  1  0  0  0  0
  4  2  1  0  0  0  0
  6  3  1  0  0  0  0
  8  9  1  0  0  0  0
  9 17  1  0  0  0  0
 10  9  2  0  0  0  0
 10 11  1  0  0  0  0
 11 13  2  0  0  0  0
 12 11  1  0  0  0  0
 13 15  1  0  0  0  0
 13 14  1  0  0  0  0
 15 16  1  0  0  0  0
 17 18  1  0  0  0  0
 17 15  2  0  0  0  0
 19 25  1  0  0  0  0
 20  1  1  0  0  0  0
 20 19  2  0  0  0  0
 21 20  1  0  0  0  0
 22 21  2  0  0  0  0
 22 23  1  0  0  0  0
 23 24  2  0  0  0  0
 24 19  1  0  0  0  0
 26 21  1  0  0  0  0
 27 23  1  0  0  0  0
M  END
>  <minimizedAffinity>
-4.55541039

$$$$
