
 OpenBabel03252505083D

 45 48  0  0  1  0  0  0  0  0999 V2000
   44.5930   35.5620   44.6370 C   0  0  0  0  0  0  0  0  0  0  0  0
   45.2450   35.5840   43.3850 C   0  0  0  0  0  0  0  0  0  0  0  0
   46.3280   34.6820   43.2030 C   0  0  0  0  0  0  0  0  0  0  0  0
   46.6720   33.8600   44.2280 N   0  0  0  0  0  0  0  0  0  0  0  0
   46.0170   33.8770   45.4020 C   0  0  0  0  0  0  0  0  0  0  0  0
   44.9750   34.7270   45.6150 N   0  0  0  0  0  0  0  0  0  0  0  0
   43.7860   36.2620   44.7150 H   0  0  0  0  0  0  0  0  0  0  0  0
   44.9570   36.2460   42.5840 H   0  0  0  0  0  0  0  0  0  0  0  0
   46.4450   32.9540   46.4890 C   0  0  2  0  0  0  0  0  0  0  0  0
   46.9760   31.7280   45.7980 C   0  0  0  0  0  0  0  0  0  0  0  0
   46.1070   30.5410   45.8220 C   0  0  0  0  0  0  0  0  0  0  0  0
   45.8100   30.2820   47.2930 C   0  0  0  0  0  0  0  0  0  0  0  0
   45.0240   31.3560   47.8940 C   0  0  0  0  0  0  0  0  0  0  0  0
   45.3870   32.7260   47.4480 C   0  0  0  0  0  0  0  0  0  0  0  0
   47.2830   33.4860   46.9990 H   0  0  0  0  0  0  0  0  0  0  0  0
   47.9400   31.4610   46.2820 H   0  0  0  0  0  0  0  0  0  0  0  0
   47.2530   31.9260   44.7290 H   0  0  0  0  0  0  0  0  0  0  0  0
   45.1940   30.6560   45.2260 H   0  0  0  0  0  0  0  0  0  0  0  0
   46.6740   29.6730   45.4760 H   0  0  0  0  0  0  0  0  0  0  0  0
   46.7450   30.1010   47.8220 H   0  0  0  0  0  0  0  0  0  0  0  0
   45.1190   29.4010   47.2740 H   0  0  0  0  0  0  0  0  0  0  0  0
   44.2260   31.4100   48.5950 H   0  0  0  0  0  0  0  0  0  0  0  0
   44.6960   33.8490   47.9570 N   0  0  0  0  0  0  0  0  0  0  0  0
   43.8510   34.4170   47.7290 H   0  0  0  0  0  0  0  0  0  0  0  0
   45.3040   34.0670   48.7810 H   0  0  0  0  0  0  0  0  0  0  0  0
   47.0220   34.6730   41.9280 C   0  0  0  0  0  0  0  0  0  0  0  0
   48.1340   35.4400   41.7940 C   0  0  0  0  0  0  0  0  0  0  0  0
   48.7790   35.4060   40.5470 C   0  0  0  0  0  0  0  0  0  0  0  0
   48.2140   34.5930   39.5900 C   0  0  0  0  0  0  0  0  0  0  0  0
   47.1040   33.8270   39.7250 C   0  0  0  0  0  0  0  0  0  0  0  0
   46.5110   33.8940   40.9550 N   0  0  0  0  0  0  0  0  0  0  0  0
   48.5220   36.0570   42.5910 H   0  0  0  0  0  0  0  0  0  0  0  0
   49.6700   35.9930   40.3700 H   0  0  0  0  0  0  0  0  0  0  0  0
   48.7460   34.5990   38.6480 H   0  0  0  0  0  0  0  0  0  0  0  0
   44.1530   33.7090   39.7470 Cl  0  0  0  0  0  0  0  0  0  0  0  0
   45.1710   32.8380   38.5980 C   0  0  0  0  0  0  0  0  0  0  0  0
   46.5390   32.9890   38.7080 C   0  0  0  0  0  0  0  0  0  0  0  0
   47.3160   32.3000   37.8000 C   0  0  0  0  0  0  0  0  0  0  0  0
   48.3970   32.3620   37.8160 H   0  0  0  0  0  0  0  0  0  0  0  0
   46.7800   31.4810   36.8040 C   0  0  0  0  0  0  0  0  0  0  0  0
   47.4270   30.9530   36.1060 H   0  0  0  0  0  0  0  0  0  0  0  0
   45.4100   31.3620   36.7330 C   0  0  0  0  0  0  0  0  0  0  0  0
   45.0120   30.7270   35.9610 H   0  0  0  0  0  0  0  0  0  0  0  0
   44.6220   32.0300   37.6150 C   0  0  0  0  0  0  0  0  0  0  0  0
   42.8690   31.8980   37.5510 Cl  0  0  0  0  0  0  0  0  0  0  0  0
  1  7  1  0  0  0  0
  1  6  1  0  0  0  0
  2  1  2  0  0  0  0
  3  2  1  0  0  0  0
  3  4  2  0  0  0  0
  4  5  1  0  0  0  0
  5  6  2  0  0  0  0
  5  9  1  0  0  0  0
  8  2  1  0  0  0  0
  9 15  1  1  0  0  0
  9 14  1  0  0  0  0
 10 11  1  0  0  0  0
 10 16  1  0  0  0  0
 10  9  1  0  0  0  0
 11 12  1  0  0  0  0
 12 20  1  0  0  0  0
 12 13  1  0  0  0  0
 13 22  1  0  0  0  0
 14 13  2  0  0  0  0
 14 23  1  0  0  0  0
 17 10  1  0  0  0  0
 18 11  1  0  0  0  0
 19 11  1  0  0  0  0
 21 12  1  0  0  0  0
 23 25  1  0  0  0  0
 24 23  1  0  0  0  0
 26  3  1  0  0  0  0
 27 26  1  0  0  0  0
 27 32  1  0  0  0  0
 28 27  2  0  0  0  0
 29 30  2  0  0  0  0
 29 28  1  0  0  0  0
 30 31  1  0  0  0  0
 31 26  2  0  0  0  0
 33 28  1  0  0  0  0
 34 29  1  0  0  0  0
 36 37  1  0  0  0  0
 36 35  1  0  0  0  0
 37 30  1  0  0  0  0
 38 39  1  0  0  0  0
 38 37  2  0  0  0  0
 40 38  1  0  0  0  0
 41 40  1  0  0  0  0
 42 40  2  0  0  0  0
 42 44  1  0  0  0  0
 43 42  1  0  0  0  0
 44 36  2  0  0  0  0
 45 44  1  0  0  0  0
M  END
>  <minimizedAffinity>
-7.60306692

>  <minimizedRMSD>
0.497274399

$$$$
