
 OpenBabel03252507333D

 51 54  0  0  1  0  0  0  0  0999 V2000
   46.9850   32.7480   45.5480 C   0  0  0  0  0  0  0  0  0  0  0  0
   45.9030   33.4280   46.0850 C   0  0  0  0  0  0  0  0  0  0  0  0
   45.2200   34.3880   45.3020 C   0  0  0  0  0  0  0  0  0  0  0  0
   45.7010   34.5860   44.0090 N   0  0  0  0  0  0  0  0  0  0  0  0
   46.7530   33.8970   43.5520 C   0  0  0  0  0  0  0  0  0  0  0  0
   47.3820   32.9950   44.3050 N   0  0  0  0  0  0  0  0  0  0  0  0
   45.4020   33.4630   47.0280 H   0  0  0  0  0  0  0  0  0  0  0  0
   44.3860   34.9930   45.5380 H   0  0  0  0  0  0  0  0  0  0  0  0
   47.6350   31.7560   46.3820 C   0  0  2  0  0  0  0  0  0  0  0  0
   47.4050   30.3150   45.8370 C   0  0  0  0  0  0  0  0  0  0  0  0
   48.2130   29.3490   46.6310 C   0  0  0  0  0  0  0  0  0  0  0  0
   48.1940   29.5370   48.1110 C   0  0  0  0  0  0  0  0  0  0  0  0
   48.1790   30.9140   48.5380 C   0  0  0  0  0  0  0  0  0  0  0  0
   47.1810   31.7970   47.7570 C   0  0  2  0  0  0  0  0  0  0  0  0
   48.7380   31.8730   46.2740 H   0  0  0  0  0  0  0  0  0  0  0  0
   46.3340   30.0850   45.7730 H   0  0  0  0  0  0  0  0  0  0  0  0
   47.7800   30.3680   44.7940 H   0  0  0  0  0  0  0  0  0  0  0  0
   47.7580   28.3320   46.4450 H   0  0  0  0  0  0  0  0  0  0  0  0
   49.2060   29.2920   46.1480 H   0  0  0  0  0  0  0  0  0  0  0  0
   47.8250   28.7190   48.7310 H   0  0  0  0  0  0  0  0  0  0  0  0
   49.3080   29.2860   48.3380 H   0  0  0  0  0  0  0  0  0  0  0  0
   49.1300   31.4980   48.5120 H   0  0  0  0  0  0  0  0  0  0  0  0
   47.8550   30.9860   49.6130 H   0  0  0  0  0  0  0  0  0  0  0  0
   47.2860   32.7480   48.2830 H   0  0  0  0  0  0  0  0  0  0  0  0
   45.8480   31.2020   47.8660 N   0  0  0  0  0  0  0  0  0  0  0  0
   45.1530   30.6590   48.9600 C   0  0  0  0  0  0  0  0  0  0  0  0
   44.5910   31.3830   49.8590 O   0  0  0  0  0  0  0  0  0  0  0  0
   45.1120   29.2320   48.9940 N   0  0  0  0  0  0  0  0  0  0  0  0
   45.2180   31.0450   46.9910 H   0  0  0  0  0  0  0  0  0  0  0  0
   44.6410   28.4560   48.4810 H   0  0  0  0  0  0  0  0  0  0  0  0
   45.3810   28.2820   49.3680 H   0  0  0  0  0  0  0  0  0  0  0  0
   47.2200   34.1700   42.1890 C   0  0  0  0  0  0  0  0  0  0  0  0
   48.1700   35.1370   41.9470 C   0  0  0  0  0  0  0  0  0  0  0  0
   48.6570   35.4470   40.6920 C   0  0  0  0  0  0  0  0  0  0  0  0
   48.1160   34.7040   39.6600 C   0  0  0  0  0  0  0  0  0  0  0  0
   47.1680   33.7370   39.8880 C   0  0  0  0  0  0  0  0  0  0  0  0
   46.7230   33.4730   41.1550 N   0  0  0  0  0  0  0  0  0  0  0  0
   48.5380   35.6690   42.8110 H   0  0  0  0  0  0  0  0  0  0  0  0
   49.4130   36.2270   40.5610 H   0  0  0  0  0  0  0  0  0  0  0  0
   48.4820   34.9300   38.6690 H   0  0  0  0  0  0  0  0  0  0  0  0
   44.1850   33.6350   39.8030 Cl  0  0  0  0  0  0  0  0  0  0  0  0
   45.2320   32.8160   38.6490 C   0  0  0  0  0  0  0  0  0  0  0  0
   46.5920   32.9490   38.8070 C   0  0  0  0  0  0  0  0  0  0  0  0
   47.3400   32.2780   37.8640 C   0  0  0  0  0  0  0  0  0  0  0  0
   48.4000   32.3140   37.8950 H   0  0  0  0  0  0  0  0  0  0  0  0
   46.8100   31.5350   36.8450 C   0  0  0  0  0  0  0  0  0  0  0  0
   47.4290   31.0120   36.1100 H   0  0  0  0  0  0  0  0  0  0  0  0
   45.4370   31.4260   36.7200 C   0  0  0  0  0  0  0  0  0  0  0  0
   44.9550   30.8580   35.9430 H   0  0  0  0  0  0  0  0  0  0  0  0
   44.6460   32.0800   37.6410 C   0  0  0  0  0  0  0  0  0  0  0  0
   42.8850   31.9840   37.5410 Cl  0  0  0  0  0  0  0  0  0  0  0  0
  1  2  1  0  0  0  0
  1  9  1  0  0  0  0
  2  7  1  0  0  0  0
  3  8  1  0  0  0  0
  3  2  2  0  0  0  0
  4  3  1  0  0  0  0
  5  4  2  0  0  0  0
  5  6  1  0  0  0  0
  6  1  2  0  0  0  0
  9 15  1  6  0  0  0
  9 14  1  0  0  0  0
 10  9  1  0  0  0  0
 10 11  1  0  0  0  0
 11 12  1  0  0  0  0
 12 21  1  0  0  0  0
 12 13  1  0  0  0  0
 12 20  1  0  0  0  0
 13 23  1  0  0  0  0
 14 25  1  0  0  0  0
 14 24  1  1  0  0  0
 14 13  1  0  0  0  0
 16 10  1  0  0  0  0
 17 10  1  0  0  0  0
 18 11  1  0  0  0  0
 19 11  1  0  0  0  0
 22 13  1  0  0  0  0
 25 26  1  0  0  0  0
 26 28  1  0  0  0  0
 26 27  2  0  0  0  0
 28 31  1  0  0  0  0
 29 25  1  0  0  0  0
 30 28  1  0  0  0  0
 32  5  1  0  0  0  0
 33 32  1  0  0  0  0
 33 38  1  0  0  0  0
 34 33  2  0  0  0  0
 35 36  2  0  0  0  0
 35 34  1  0  0  0  0
 36 37  1  0  0  0  0
 37 32  2  0  0  0  0
 39 34  1  0  0  0  0
 40 35  1  0  0  0  0
 42 43  1  0  0  0  0
 42 41  1  0  0  0  0
 43 36  1  0  0  0  0
 44 45  1  0  0  0  0
 44 43  2  0  0  0  0
 46 44  1  0  0  0  0
 47 46  1  0  0  0  0
 48 46  2  0  0  0  0
 48 50  1  0  0  0  0
 49 48  1  0  0  0  0
 50 42  2  0  0  0  0
 51 50  1  0  0  0  0
M  END
>  <minimizedAffinity>
-6.56767607

>  <minimizedRMSD>
0.193743721

$$$$
