REMARK  Name = 
REMARK  4 active torsions:
REMARK  status: ('A' for Active; 'I' for Inactive)
REMARK    1  A    between atoms: N_1  and  C_9
REMARK    2  A    between atoms: C_6  and  N_16
REMARK    3  A    between atoms: C_7  and  C_11
REMARK    4  A    between atoms: N_16  and  C_36
REMARK                            x       y       z     vdW  Elec       q    Type
REMARK                         _______ _______ _______ _____ _____    ______ ____
ROOT
ATOM      1  N   UNL     1      49.343  33.221  41.492  0.00  0.00    +0.000 NA
ATOM      2  C   UNL     1      50.667  33.124  42.046  0.00  0.00    +0.000 C 
ATOM      3  C   UNL     1      51.330  31.806  41.791  0.00  0.00    +0.000 C 
ATOM      4  C   UNL     1      50.584  30.727  42.549  0.00  0.00    +0.000 C 
ATOM      5  C   UNL     1      49.093  30.992  42.521  0.00  0.00    +0.000 C 
ATOM      6  C   UNL     1      48.760  31.913  41.359  0.00  0.00    +0.000 C 
ATOM      7  H   UNL     1      51.280  33.893  41.514  0.00  0.00    +0.000 HD
ATOM      8  H   UNL     1      50.698  33.336  43.130  0.00  0.00    +0.000 HD
ATOM      9  H   UNL     1      52.329  31.869  42.277  0.00  0.00    +0.000 HD
ATOM     10  H   UNL     1      51.510  31.580  40.740  0.00  0.00    +0.000 HD
ATOM     11  H   UNL     1      50.765  29.783  42.002  0.00  0.00    +0.000 HD
ATOM     12  H   UNL     1      50.963  30.584  43.577  0.00  0.00    +0.000 HD
ATOM     13  H   UNL     1      48.742  31.509  43.438  0.00  0.00    +0.000 HD
ATOM     14  H   UNL     1      48.523  30.057  42.361  0.00  0.00    +0.000 HD
ATOM     15  H   UNL     1      47.654  32.046  41.377  0.00  0.00    +0.000 HD
ENDROOT
BRANCH   1  18
ATOM     16  C   UNL     1      47.186  34.551  42.013  0.00  0.00    +0.000 C 
ATOM     17  C   UNL     1      48.319  35.463  41.726  0.00  0.00    +0.000 C 
ATOM     18  C   UNL     1      48.583  34.121  42.279  0.00  0.00    +0.000 C 
ATOM     19  H   UNL     1      46.655  34.104  41.157  0.00  0.00    +0.000 HD
ATOM     20  H   UNL     1      48.525  35.665  40.660  0.00  0.00    +0.000 HD
ATOM     21  H   UNL     1      48.382  36.391  42.344  0.00  0.00    +0.000 HD
ATOM     22  H   UNL     1      48.858  34.122  43.373  0.00  0.00    +0.000 HD
BRANCH  16  24
ATOM     23  C   UNL     1      45.497  36.018  43.154  0.00  0.00    +0.000 A 
ATOM     24  C   UNL     1      46.285  34.847  43.148  0.00  0.00    +0.000 A 
ATOM     25  C   UNL     1      46.178  33.977  44.244  0.00  0.00    +0.000 A 
ATOM     26  N   UNL     1      45.327  34.309  45.247  0.00  0.00    +0.000 NA
ATOM     27  C   UNL     1      44.590  35.436  45.221  0.00  0.00    +0.000 A 
ATOM     28  N   UNL     1      44.664  36.304  44.177  0.00  0.00    +0.000 NA
ATOM     29  H   UNL     1      45.559  36.704  42.325  0.00  0.00    +0.000 HD
ATOM     30  H   UNL     1      46.768  33.077  44.263  0.00  0.00    +0.000 HD
ATOM     31  H   UNL     1      43.975  35.516  46.115  0.00  0.00    +0.000 HD
ENDBRANCH  16  24
ENDBRANCH   1  18
BRANCH   6  32
ATOM     32  N   UNL     1      49.075  31.247  40.136  0.00  0.00    +0.000 N 
ATOM     33  H   UNL     1      49.560  30.299  40.177  0.00  0.00    +0.000 HD
BRANCH  32  36
ATOM     34 CL   UNL     1      49.748  34.069  39.235  0.00  0.00    +0.000 Cl
ATOM     35  C   UNL     1      49.116  32.831  38.170  0.00  0.00    +0.000 A 
ATOM     36  C   UNL     1      48.871  31.592  38.774  0.00  0.00    +0.000 A 
ATOM     37  C   UNL     1      48.369  30.612  37.930  0.00  0.00    +0.000 A 
ATOM     38  H   UNL     1      48.155  29.646  38.315  0.00  0.00    +0.000 HD
ATOM     39  C   UNL     1      48.105  30.768  36.584  0.00  0.00    +0.000 A 
ATOM     40  H   UNL     1      47.718  29.976  35.978  0.00  0.00    +0.000 HD
ATOM     41  C   UNL     1      48.359  32.007  36.019  0.00  0.00    +0.000 A 
ATOM     42  H   UNL     1      48.185  32.226  34.977  0.00  0.00    +0.000 HD
ATOM     43  C   UNL     1      48.858  33.003  36.830  0.00  0.00    +0.000 A 
ATOM     44 CL   UNL     1      49.230  34.622  36.262  0.00  0.00    +0.000 Cl
ENDBRANCH  32  36
ENDBRANCH   6  32
TORSDOF 4
