REMARK  Name = 
REMARK  5 active torsions:
REMARK  status: ('A' for Active; 'I' for Inactive)
REMARK    1  A    between atoms: C_1  and  N_5
REMARK    2  A    between atoms: C_1  and  C_13
REMARK    3  A    between atoms: C_2  and  C_11
REMARK    4  A    between atoms: C_13  and  C_15
REMARK    5  A    between atoms: C_22  and  C_39
REMARK                            x       y       z     vdW  Elec       q    Type
REMARK                         _______ _______ _______ _____ _____    ______ ____
ROOT
ATOM      1  C   UNL     1      45.121  27.546  47.901  0.00  0.00    +0.000 A 
ATOM      2  C   UNL     1      45.192  28.900  47.645  0.00  0.00    +0.000 A 
ATOM      3  C   UNL     1      44.360  29.386  46.635  0.00  0.00    +0.000 A 
ATOM      4  C   UNL     1      43.512  28.563  45.930  0.00  0.00    +0.000 A 
ATOM      5  N   UNL     1      42.620  28.730  44.934  0.00  0.00    +0.000 N 
ATOM      6  C   UNL     1      42.044  27.568  44.603  0.00  0.00    +0.000 A 
ATOM      7  C   UNL     1      42.557  26.562  45.399  0.00  0.00    +0.000 A 
ATOM      8  C   UNL     1      43.457  27.217  46.201  0.00  0.00    +0.000 A 
ATOM      9  C   UNL     1      44.275  26.730  47.196  0.00  0.00    +0.000 A 
ATOM     10  H   UNL     1      45.797  27.238  48.701  0.00  0.00    +0.000 HD
ATOM     11  H   UNL     1      44.306  30.417  46.325  0.00  0.00    +0.000 HD
ATOM     12  H   UNL     1      42.407  29.647  44.481  0.00  0.00    +0.000 HD
ATOM     13  H   UNL     1      41.289  27.433  43.829  0.00  0.00    +0.000 HD
ATOM     14  H   UNL     1      42.300  25.515  45.381  0.00  0.00    +0.000 HD
ENDROOT
BRANCH   9  17
ATOM     15 CL   UNL     1      43.661  24.641  45.060  0.00  0.00    +0.000 Cl
ATOM     16  C   UNL     1      44.051  24.277  46.727  0.00  0.00    +0.000 A 
ATOM     17  C   UNL     1      44.304  25.321  47.574  0.00  0.00    +0.000 A 
ATOM     18  C   UNL     1      44.625  25.134  48.923  0.00  0.00    +0.000 A 
ATOM     19  H   UNL     1      44.831  25.936  49.621  0.00  0.00    +0.000 HD
ATOM     20  C   UNL     1      44.684  23.831  49.399  0.00  0.00    +0.000 A 
ATOM     21  H   UNL     1      44.932  23.667  50.446  0.00  0.00    +0.000 HD
ATOM     22  C   UNL     1      44.429  22.768  48.546  0.00  0.00    +0.000 A 
ATOM     23  H   UNL     1      44.485  21.770  48.958  0.00  0.00    +0.000 HD
ATOM     24  C   UNL     1      44.113  22.969  47.217  0.00  0.00    +0.000 A 
ATOM     25 CL   UNL     1      43.789  21.643  46.133  0.00  0.00    +0.000 Cl
ENDBRANCH   9  17
BRANCH   2  26
ATOM     26  C   UNL     1      46.010  29.941  48.265  0.00  0.00    +0.000 C 
ATOM     27  H   UNL     1      45.444  30.885  48.400  0.00  0.00    +0.000 HD
ATOM     28  H   UNL     1      46.209  29.588  49.316  0.00  0.00    +0.000 HD
BRANCH  26  29
ATOM     29  C   UNL     1      47.331  30.216  47.653  0.00  0.00    +0.000 C 
ATOM     30  H   UNL     1      47.904  29.312  47.440  0.00  0.00    +0.000 HD
ATOM     31  H   UNL     1      47.909  30.830  48.381  0.00  0.00    +0.000 HD
BRANCH  29  35
ATOM     32  C   UNL     1      46.558  32.660  45.169  0.00  0.00    +0.000 A 
ATOM     33  C   UNL     1      47.275  31.709  44.420  0.00  0.00    +0.000 A 
ATOM     34  C   UNL     1      47.647  30.696  45.239  0.00  0.00    +0.000 A 
ATOM     35  N   UNL     1      47.172  31.015  46.454  0.00  0.00    +0.000 N 
ATOM     36  N   UNL     1      46.525  32.184  46.410  0.00  0.00    +0.000 NA
ATOM     37  H   UNL     1      47.542  31.695  43.354  0.00  0.00    +0.000 HD
ATOM     38  H   UNL     1      48.211  29.778  45.040  0.00  0.00    +0.000 HD
BRANCH  32  43
ATOM     39  C   UNL     1      44.574  35.700  44.828  0.00  0.00    +0.000 A 
ATOM     40  C   UNL     1      44.940  36.195  43.579  0.00  0.00    +0.000 A 
ATOM     41  C   UNL     1      45.881  35.463  42.860  0.00  0.00    +0.000 A 
ATOM     42  N   UNL     1      46.373  34.334  43.410  0.00  0.00    +0.000 NA
ATOM     43  C   UNL     1      46.009  33.880  44.605  0.00  0.00    +0.000 A 
ATOM     44  N   UNL     1      45.102  34.573  45.314  0.00  0.00    +0.000 NA
ATOM     45  H   UNL     1      43.835  36.307  45.353  0.00  0.00    +0.000 HD
ATOM     46  H   UNL     1      44.601  37.073  43.077  0.00  0.00    +0.000 HD
ATOM     47  H   UNL     1      46.299  35.662  41.891  0.00  0.00    +0.000 HD
ENDBRANCH  32  43
ENDBRANCH  29  35
ENDBRANCH  26  29
ENDBRANCH   2  26
TORSDOF 5
