REMARK  Name = 
REMARK  4 active torsions:
REMARK  status: ('A' for Active; 'I' for Inactive)
REMARK    1  A    between atoms: C_1  and  C_7
REMARK    2  A    between atoms: C_6  and  N_19
REMARK    3  A    between atoms: C_11  and  C_13
REMARK    4  A    between atoms: C_17  and  C_43
REMARK                            x       y       z     vdW  Elec       q    Type
REMARK                         _______ _______ _______ _____ _____    ______ ____
ROOT
ATOM      1  C   UNL     1      46.913  32.916  45.529  0.00  0.00    +0.000 A 
ATOM      2  C   UNL     1      45.804  33.590  46.016  0.00  0.00    +0.000 A 
ATOM      3  C   UNL     1      45.122  34.509  45.184  0.00  0.00    +0.000 A 
ATOM      4  N   UNL     1      45.633  34.675  43.898  0.00  0.00    +0.000 NA
ATOM      5  C   UNL     1      46.710  33.994  43.491  0.00  0.00    +0.000 A 
ATOM      6  N   UNL     1      47.338  33.131  44.289  0.00  0.00    +0.000 NA
ATOM      7  H   UNL     1      45.278  33.645  46.944  0.00  0.00    +0.000 HD
ATOM      8  H   UNL     1      44.270  35.104  45.378  0.00  0.00    +0.000 HD
ENDROOT
BRANCH   1   9
ATOM      9  C   UNL     1      47.561  31.966  46.412  0.00  0.00    +0.000 C 
ATOM     10  C   UNL     1      47.301  30.498  45.959  0.00  0.00    +0.000 C 
ATOM     11  C   UNL     1      48.106  29.569  46.798  0.00  0.00    +0.000 C 
ATOM     12  C   UNL     1      48.114  29.846  48.264  0.00  0.00    +0.000 C 
ATOM     13  C   UNL     1      48.127  31.247  48.607  0.00  0.00    +0.000 C 
ATOM     14  C   UNL     1      47.130  32.097  47.789  0.00  0.00    +0.000 C 
ATOM     15  H   UNL     1      48.664  32.058  46.281  0.00  0.00    +0.000 HD
ATOM     16  H   UNL     1      46.225  30.282  45.925  0.00  0.00    +0.000 HD
ATOM     17  H   UNL     1      47.660  30.482  44.909  0.00  0.00    +0.000 HD
ATOM     18  H   UNL     1      47.633  28.550  46.681  0.00  0.00    +0.000 HD
ATOM     19  H   UNL     1      49.091  29.467  46.304  0.00  0.00    +0.000 HD
ATOM     20  H   UNL     1      47.742  29.073  48.938  0.00  0.00    +0.000 HD
ATOM     21  H   UNL     1      49.227  29.592  48.489  0.00  0.00    +0.000 HD
ATOM     22  H   UNL     1      49.086  31.813  48.531  0.00  0.00    +0.000 HD
ATOM     23  H   UNL     1      47.821  31.389  49.680  0.00  0.00    +0.000 HD
ATOM     24  H   UNL     1      47.258  33.076  48.255  0.00  0.00    +0.000 HD
BRANCH  14  25
ATOM     25  N   UNL     1      45.790  31.531  47.953  0.00  0.00    +0.000 N 
ATOM     26  C   UNL     1      45.189  30.848  49.024  0.00  0.00    +0.000 C 
ATOM     27  O   UNL     1      44.756  31.442  50.077  0.00  0.00    +0.000 OA
ATOM     28  N   UNL     1      45.087  29.434  48.850  0.00  0.00    +0.000 N 
ATOM     29  H   UNL     1      45.066  31.528  47.139  0.00  0.00    +0.000 HD
ATOM     30  H   UNL     1      44.531  28.759  48.282  0.00  0.00    +0.000 HD
ATOM     31  H   UNL     1      45.350  28.431  49.047  0.00  0.00    +0.000 HD
ENDBRANCH  14  25
ENDBRANCH   1   9
BRANCH   5  32
ATOM     32  C   UNL     1      47.207  34.232  42.132  0.00  0.00    +0.000 A 
ATOM     33  C   UNL     1      48.191  35.165  41.892  0.00  0.00    +0.000 A 
ATOM     34  C   UNL     1      48.708  35.442  40.641  0.00  0.00    +0.000 A 
ATOM     35  C   UNL     1      48.160  34.701  39.611  0.00  0.00    +0.000 A 
ATOM     36  C   UNL     1      47.178  33.768  39.837  0.00  0.00    +0.000 A 
ATOM     37  N   UNL     1      46.705  33.537  41.100  0.00  0.00    +0.000 NA
ATOM     38  H   UNL     1      48.563  35.698  42.755  0.00  0.00    +0.000 HD
ATOM     39  H   UNL     1      49.490  36.195  40.512  0.00  0.00    +0.000 HD
ATOM     40  H   UNL     1      48.549  34.901  38.623  0.00  0.00    +0.000 HD
BRANCH  36  43
ATOM     41 CL   UNL     1      44.235  34.080  39.450  0.00  0.00    +0.000 Cl
ATOM     42  C   UNL     1      45.251  33.031  38.469  0.00  0.00    +0.000 A 
ATOM     43  C   UNL     1      46.594  32.983  38.758  0.00  0.00    +0.000 A 
ATOM     44  C   UNL     1      47.319  32.138  37.945  0.00  0.00    +0.000 A 
ATOM     45  H   UNL     1      48.366  32.027  38.083  0.00  0.00    +0.000 HD
ATOM     46  C   UNL     1      46.781  31.396  36.929  0.00  0.00    +0.000 A 
ATOM     47  H   UNL     1      47.381  30.733  36.300  0.00  0.00    +0.000 HD
ATOM     48  C   UNL     1      45.425  31.472  36.670  0.00  0.00    +0.000 A 
ATOM     49  H   UNL     1      44.938  30.916  35.887  0.00  0.00    +0.000 HD
ATOM     50  C   UNL     1      44.658  32.305  37.458  0.00  0.00    +0.000 A 
ATOM     51 CL   UNL     1      42.919  32.450  37.182  0.00  0.00    +0.000 Cl
ENDBRANCH  36  43
ENDBRANCH   5  32
TORSDOF 4
