
 OpenBabel03252503133D

 36 39  0  0  0  0  0  0  0  0999 V2000
   46.5770   34.7670   41.7510 C   0  0  0  0  0  0  0  0  0  0  0  0
   47.7820   35.1890   41.6990 O   0  0  0  0  0  0  0  0  0  0  0  0
   45.2810   36.1530   43.3060 C   0  0  0  0  0  0  0  0  0  0  0  0
   45.9270   34.9310   43.0060 C   0  0  0  0  0  0  0  0  0  0  0  0
   45.8630   33.9730   43.9960 C   0  0  0  0  0  0  0  0  0  0  0  0
   45.2310   34.1800   45.1680 N   0  0  0  0  0  0  0  0  0  0  0  0
   44.6210   35.3680   45.4220 C   0  0  0  0  0  0  0  0  0  0  0  0
   44.6490   36.3490   44.4890 N   0  0  0  0  0  0  0  0  0  0  0  0
   45.2790   36.9700   42.5840 H   0  0  0  0  0  0  0  0  0  0  0  0
   44.1230   35.5000   46.3730 H   0  0  0  0  0  0  0  0  0  0  0  0
   46.4850   32.7360   43.7740 C   0  0  0  0  0  0  0  0  0  0  0  0
   47.7580   32.2700   43.9250 C   0  0  0  0  0  0  0  0  0  0  0  0
   48.1250   31.0160   43.6470 C   0  0  0  0  0  0  0  0  0  0  0  0
   47.1090   30.1980   43.1840 C   0  0  0  0  0  0  0  0  0  0  0  0
   45.6380   31.2970   43.1710 S   0  0  0  0  0  0  0  0  0  0  0  0
   48.4860   33.0180   44.3040 H   0  0  0  0  0  0  0  0  0  0  0  0
   49.1140   30.5890   43.7470 H   0  0  0  0  0  0  0  0  0  0  0  0
   47.1330   29.1580   42.8910 H   0  0  0  0  0  0  0  0  0  0  0  0
   45.8430   34.1370   40.6070 C   0  0  0  0  0  0  0  0  0  0  0  0
   46.3790   33.6580   39.4430 C   0  0  0  0  0  0  0  0  0  0  0  0
   45.3330   33.1870   38.7490 N   0  0  0  0  0  0  0  0  0  0  0  0
   44.1940   33.3620   39.4430 C   0  0  0  0  0  0  0  0  0  0  0  0
   44.5290   33.9540   40.5940 N   0  0  0  0  0  0  0  0  0  0  0  0
   47.4300   33.6780   39.1850 H   0  0  0  0  0  0  0  0  0  0  0  0
   45.4360   32.7600   37.8170 H   0  0  0  0  0  0  0  0  0  0  0  0
   42.3110   35.5090   38.1590 Cl  0  0  0  0  0  0  0  0  0  0  0  0
   41.8890   33.8850   38.5950 C   0  0  0  0  0  0  0  0  0  0  0  0
   42.8100   33.0360   39.1520 C   0  0  0  0  0  0  0  0  0  0  0  0
   42.2920   31.7920   39.4280 C   0  0  0  0  0  0  0  0  0  0  0  0
   42.9360   31.0190   39.8800 H   0  0  0  0  0  0  0  0  0  0  0  0
   40.9950   31.4130   39.1830 C   0  0  0  0  0  0  0  0  0  0  0  0
   40.6670   30.4240   39.4260 H   0  0  0  0  0  0  0  0  0  0  0  0
   40.1060   32.2970   38.6230 C   0  0  0  0  0  0  0  0  0  0  0  0
   39.0980   31.9540   38.4480 H   0  0  0  0  0  0  0  0  0  0  0  0
   40.5800   33.5560   38.3280 C   0  0  0  0  0  0  0  0  0  0  0  0
   39.4370   34.6700   37.6150 Cl  0  0  0  0  0  0  0  0  0  0  0  0
  1  4  1  0  0  0  0
  2  1  2  0  0  0  0
  3  8  1  0  0  0  0
  4  3  2  0  0  0  0
  4  5  1  0  0  0  0
  5  6  2  0  0  0  0
  6  7  1  0  0  0  0
  7 10  1  0  0  0  0
  8  7  2  0  0  0  0
  9  3  1  0  0  0  0
 11 12  2  0  0  0  0
 11  5  1  0  0  0  0
 12 16  1  0  0  0  0
 13 17  1  0  0  0  0
 13 12  1  0  0  0  0
 14 13  2  0  0  0  0
 15 14  1  0  0  0  0
 15 11  1  0  0  0  0
 18 14  1  0  0  0  0
 19  1  1  0  0  0  0
 20 19  2  0  0  0  0
 21 22  1  0  0  0  0
 21 20  1  0  0  0  0
 22 23  2  0  0  0  0
 23 19  1  0  0  0  0
 24 20  1  0  0  0  0
 25 21  1  0  0  0  0
 26 27  1  0  0  0  0
 27 28  1  0  0  0  0
 28 29  2  0  0  0  0
 28 22  1  0  0  0  0
 29 30  1  0  0  0  0
 31 32  1  0  0  0  0
 31 29  1  0  0  0  0
 33 31  2  0  0  0  0
 34 33  1  0  0  0  0
 35 27  2  0  0  0  0
 35 33  1  0  0  0  0
 36 35  1  0  0  0  0
M  END
>  <minimizedAffinity>
-5.80276728

>  <minimizedRMSD>
3.31696391

$$$$
