
 OpenBabel03252506053D

 45 49  0  0  0  0  0  0  0  0999 V2000
   44.7510   35.9240   43.3940 Cl  0  0  0  0  0  0  0  0  0  0  0  0
   45.5140   34.6780   44.3280 C   0  0  0  0  0  0  0  0  0  0  0  0
   46.5920   33.9860   43.8160 C   0  0  0  0  0  0  0  0  0  0  0  0
   47.1250   33.0140   44.6410 C   0  0  0  0  0  0  0  0  0  0  0  0
   46.6520   32.7090   45.9100 C   0  0  0  0  0  0  0  0  0  0  0  0
   45.5840   33.4190   46.3750 C   0  0  0  0  0  0  0  0  0  0  0  0
   45.0250   32.9930   47.9830 Cl  0  0  0  0  0  0  0  0  0  0  0  0
   45.0180   34.3890   45.6050 C   0  0  0  0  0  0  0  0  0  0  0  0
   47.9790   32.4720   44.2260 H   0  0  0  0  0  0  0  0  0  0  0  0
   44.1720   34.9270   46.0150 H   0  0  0  0  0  0  0  0  0  0  0  0
   47.3640   31.6370   46.6220 C   0  0  0  0  0  0  0  0  0  0  0  0
   47.4870   30.3610   46.1470 C   0  0  0  0  0  0  0  0  0  0  0  0
   48.1540   29.3470   46.8080 C   0  0  0  0  0  0  0  0  0  0  0  0
   48.7400   29.6210   48.0250 C   0  0  0  0  0  0  0  0  0  0  0  0
   49.3840   28.6290   48.6550 N   0  0  0  0  0  0  0  0  0  0  0  0
   49.9890   28.7930   49.8470 C   0  0  0  0  0  0  0  0  0  0  0  0
   49.9080   30.0640   50.3960 C   0  0  0  0  0  0  0  0  0  0  0  0
   49.2540   31.0960   49.7690 C   0  0  0  0  0  0  0  0  0  0  0  0
   48.6440   30.8890   48.5450 C   0  0  0  0  0  0  0  0  0  0  0  0
   47.9710   31.8750   47.8580 C   0  0  0  0  0  0  0  0  0  0  0  0
   47.0350   30.1210   45.1930 H   0  0  0  0  0  0  0  0  0  0  0  0
   48.2340   28.3400   46.4000 H   0  0  0  0  0  0  0  0  0  0  0  0
   50.5130   27.9900   50.3610 H   0  0  0  0  0  0  0  0  0  0  0  0
   50.3670   30.2800   51.3500 H   0  0  0  0  0  0  0  0  0  0  0  0
   49.1870   32.0880   50.1920 H   0  0  0  0  0  0  0  0  0  0  0  0
   47.9150   32.8650   48.2990 H   0  0  0  0  0  0  0  0  0  0  0  0
   48.6970   35.3420   41.1790 C   0  0  0  0  0  0  0  0  0  0  0  0
   48.1630   34.7710   40.0140 C   0  0  0  0  0  0  0  0  0  0  0  0
   47.0590   33.9050   40.1400 C   0  0  0  0  0  0  0  0  0  0  0  0
   46.6160   33.7050   41.3950 N   0  0  0  0  0  0  0  0  0  0  0  0
   47.1370   34.2580   42.4980 C   0  0  0  0  0  0  0  0  0  0  0  0
   48.1820   35.0810   42.3990 N   0  0  0  0  0  0  0  0  0  0  0  0
   49.5410   36.0100   41.1200 H   0  0  0  0  0  0  0  0  0  0  0  0
   48.5700   34.9770   39.0550 H   0  0  0  0  0  0  0  0  0  0  0  0
   44.0370   33.7910   40.2640 Cl  0  0  0  0  0  0  0  0  0  0  0  0
   45.0540   33.1700   38.9820 C   0  0  0  0  0  0  0  0  0  0  0  0
   46.4290   33.2590   38.9980 C   0  0  0  0  0  0  0  0  0  0  0  0
   47.1300   32.7340   37.9350 C   0  0  0  0  0  0  0  0  0  0  0  0
   48.2090   32.7870   37.9150 H   0  0  0  0  0  0  0  0  0  0  0  0
   46.5570   32.1190   36.8420 C   0  0  0  0  0  0  0  0  0  0  0  0
   47.1420   31.7190   36.0250 H   0  0  0  0  0  0  0  0  0  0  0  0
   45.1600   32.0430   36.8520 C   0  0  0  0  0  0  0  0  0  0  0  0
   44.6800   31.5650   36.0090 H   0  0  0  0  0  0  0  0  0  0  0  0
   44.4460   32.5630   37.9100 C   0  0  0  0  0  0  0  0  0  0  0  0
   42.6870   32.4210   37.8380 Cl  0  0  0  0  0  0  0  0  0  0  0  0
  1  2  1  0  0  0  0
  2  8  1  0  0  0  0
  3  2  2  0  0  0  0
  3  4  1  0  0  0  0
  4  5  2  0  0  0  0
  5  6  1  0  0  0  0
  5 11  1  0  0  0  0
  6  7  1  0  0  0  0
  8 10  1  0  0  0  0
  8  6  2  0  0  0  0
  9  4  1  0  0  0  0
 11 20  1  0  0  0  0
 12 11  2  0  0  0  0
 12 13  1  0  0  0  0
 13 14  2  0  0  0  0
 14 19  1  0  0  0  0
 14 15  1  0  0  0  0
 15 16  2  0  0  0  0
 16 23  1  0  0  0  0
 16 17  1  0  0  0  0
 17 24  1  0  0  0  0
 18 25  1  0  0  0  0
 18 17  2  0  0  0  0
 19 18  1  0  0  0  0
 20 26  1  0  0  0  0
 20 19  2  0  0  0  0
 21 12  1  0  0  0  0
 22 13  1  0  0  0  0
 27 32  1  0  0  0  0
 28 29  1  0  0  0  0
 28 27  2  0  0  0  0
 29 30  2  0  0  0  0
 30 31  1  0  0  0  0
 31  3  1  0  0  0  0
 32 31  2  0  0  0  0
 33 27  1  0  0  0  0
 34 28  1  0  0  0  0
 36 37  1  0  0  0  0
 36 35  1  0  0  0  0
 37 29  1  0  0  0  0
 38 37  2  0  0  0  0
 39 38  1  0  0  0  0
 40 42  2  0  0  0  0
 40 38  1  0  0  0  0
 41 40  1  0  0  0  0
 42 44  1  0  0  0  0
 43 42  1  0  0  0  0
 44 36  2  0  0  0  0
 45 44  1  0  0  0  0
M  END
>  <minimizedAffinity>
-7.48701668

>  <minimizedRMSD>
0.585238457

$$$$
