
 OpenBabel03252508033D

 44 47  0  0  1  0  0  0  0  0999 V2000
   42.0100   33.2830   41.1020 C   0  0  0  0  0  0  0  0  0  0  0  0
   42.7690   34.4010   41.3010 C   0  0  0  0  0  0  0  0  0  0  0  0
   42.1200   35.6520   41.2930 C   0  0  0  0  0  0  0  0  0  0  0  0
   40.7660   35.8000   41.0940 C   0  0  0  0  0  0  0  0  0  0  0  0
   40.0130   34.6740   40.8970 C   0  0  0  0  0  0  0  0  0  0  0  0
   40.6350   33.4620   40.9020 C   0  0  0  0  0  0  0  0  0  0  0  0
   42.6380   36.5920   41.4320 H   0  0  0  0  0  0  0  0  0  0  0  0
   40.2820   36.7380   41.0880 H   0  0  0  0  0  0  0  0  0  0  0  0
   38.9640   34.7120   40.7380 H   0  0  0  0  0  0  0  0  0  0  0  0
   40.0180   32.5630   40.7420 H   0  0  0  0  0  0  0  0  0  0  0  0
   42.6370   31.7250   41.1980 S   0  0  0  0  0  0  0  0  0  0  0  0
   41.4990   30.9250   40.4820 O   0  0  0  0  0  0  0  0  0  0  0  0
   42.7250   31.2180   42.5900 O   0  0  0  0  0  0  0  0  0  0  0  0
   42.6650   32.6980   38.3050 Cl  0  0  0  0  0  0  0  0  0  0  0  0
   43.7440   31.3980   38.8580 C   0  0  0  0  0  0  0  0  0  0  0  0
   43.7190   30.9120   40.1970 C   0  0  0  0  0  0  0  0  0  0  0  0
   44.6600   29.9030   40.3560 C   0  0  0  0  0  0  0  0  0  0  0  0
   44.6600   29.5810   41.4140 H   0  0  0  0  0  0  0  0  0  0  0  0
   45.5570   29.3260   39.4930 C   0  0  0  0  0  0  0  0  0  0  0  0
   46.1960   28.5460   39.8430 H   0  0  0  0  0  0  0  0  0  0  0  0
   45.4320   29.9180   38.2710 C   0  0  0  0  0  0  0  0  0  0  0  0
   46.1030   29.5270   37.5080 H   0  0  0  0  0  0  0  0  0  0  0  0
   44.5870   30.9200   37.8850 C   0  0  0  0  0  0  0  0  0  0  0  0
   44.6190   31.5350   36.2470 Cl  0  0  0  0  0  0  0  0  0  0  0  0
   44.2040   34.3520   41.5200 C   0  0  0  0  0  0  0  0  0  0  0  0
   45.0660   34.2440   40.6000 O   0  0  0  0  0  0  0  0  0  0  0  0
   44.5670   34.4430   42.9150 C   0  0  0  0  0  0  0  0  0  0  0  0
   44.3110   35.7130   43.5420 C   0  0  0  0  0  0  0  0  0  0  0  0
   44.6490   35.8250   44.8770 C   0  0  0  0  0  0  0  0  0  0  0  0
   45.1930   34.7450   45.5030 N   0  0  0  0  0  0  0  0  0  0  0  0
   45.4140   33.5600   44.8560 C   0  0  0  0  0  0  0  0  0  0  0  0
   45.1040   33.4410   43.6100 N   0  0  0  0  0  0  0  0  0  0  0  0
   43.8970   36.5930   43.1280 H   0  0  0  0  0  0  0  0  0  0  0  0
   44.5010   36.7360   45.4530 H   0  0  0  0  0  0  0  0  0  0  0  0
   46.0060   32.4360   45.6170 C   0  0  1  0  0  0  0  0  0  0  0  0
   46.9690   32.7380   46.7430 C   0  0  0  0  0  0  0  0  0  0  0  0
   45.5510   32.3330   47.0210 C   0  0  1  0  0  0  0  0  0  0  0  0
   46.1670   31.5060   45.0720 H   0  0  0  0  0  0  0  0  0  0  0  0
   47.2860   33.8050   46.8210 H   0  0  0  0  0  0  0  0  0  0  0  0
   47.7990   32.0140   46.8790 H   0  0  0  0  0  0  0  0  0  0  0  0
   45.4240   31.3280   47.4900 H   0  0  0  0  0  0  0  0  0  0  0  0
   44.7700   33.4060   47.6170 N   0  0  0  0  0  0  0  0  0  0  0  0
   43.7920   33.1210   47.7470 H   0  0  0  0  0  0  0  0  0  0  0  0
   45.2450   33.8220   48.4320 H   0  0  0  0  0  0  0  0  0  0  0  0
  1 11  1  0  0  0  0
  1  2  1  0  0  0  0
  2 25  1  0  0  0  0
  3  2  2  0  0  0  0
  3  7  1  0  0  0  0
  4  3  1  0  0  0  0
  5  6  1  0  0  0  0
  5  4  2  0  0  0  0
  6  1  2  0  0  0  0
  8  4  1  0  0  0  0
  9  5  1  0  0  0  0
 10  6  1  0  0  0  0
 11 13  2  0  0  0  0
 12 11  2  0  0  0  0
 14 15  1  0  0  0  0
 15 16  1  0  0  0  0
 16 17  2  0  0  0  0
 16 11  1  0  0  0  0
 17 18  1  0  0  0  0
 19 20  1  0  0  0  0
 19 17  1  0  0  0  0
 21 19  2  0  0  0  0
 22 21  1  0  0  0  0
 23 21  1  0  0  0  0
 23 15  2  0  0  0  0
 24 23  1  0  0  0  0
 25 27  1  0  0  0  0
 26 25  2  0  0  0  0
 27 28  2  0  0  0  0
 27 32  1  0  0  0  0
 28 29  1  0  0  0  0
 29 34  1  0  0  0  0
 29 30  2  0  0  0  0
 31 30  1  0  0  0  0
 31 35  1  0  0  0  0
 32 31  2  0  0  0  0
 33 28  1  0  0  0  0
 35 38  1  6  0  0  0
 35 36  1  0  0  0  0
 35 37  1  0  0  0  0
 36 39  1  0  0  0  0
 36 40  1  0  0  0  0
 36 37  1  0  0  0  0
 37 41  1  1  0  0  0
 37 42  1  0  0  0  0
 42 43  1  0  0  0  0
 42 44  1  0  0  0  0
M  END
>  <minimizedAffinity>
-6.025383

>  <minimizedRMSD>
1.46530664

$$$$
