
 OpenBabel03252501493D

 35 37  0  0  0  0  0  0  0  0999 V2000
   35.5720   27.6430   38.0480 C   0  0  0  0  0  0  0  0  0  0  0  0
   34.4130   28.4120   37.8720 C   0  0  0  0  0  0  0  0  0  0  0  0
   33.9530   29.2160   38.9420 C   0  0  0  0  0  0  0  0  0  0  0  0
   34.6720   29.1990   40.0970 N   0  0  0  0  0  0  0  0  0  0  0  0
   35.7740   28.4510   40.2250 C   0  0  0  0  0  0  0  0  0  0  0  0
   36.1910   27.7020   39.2140 N   0  0  0  0  0  0  0  0  0  0  0  0
   35.8770   27.0460   37.1910 H   0  0  0  0  0  0  0  0  0  0  0  0
   33.0770   29.8360   38.8950 H   0  0  0  0  0  0  0  0  0  0  0  0
   37.7920   30.2770   40.7140 F   0  0  0  0  0  0  0  0  0  0  0  0
   37.5120   29.4000   41.7000 C   0  0  0  0  0  0  0  0  0  0  0  0
   36.5060   28.4680   41.4890 C   0  0  0  0  0  0  0  0  0  0  0  0
   36.1530   27.5280   42.4490 C   0  0  0  0  0  0  0  0  0  0  0  0
   36.8620   27.5600   43.6490 C   0  0  0  0  0  0  0  0  0  0  0  0
   37.8780   28.4800   43.8950 C   0  0  0  0  0  0  0  0  0  0  0  0
   38.1980   29.4050   42.9030 C   0  0  0  0  0  0  0  0  0  0  0  0
   35.3790   26.7870   42.3270 H   0  0  0  0  0  0  0  0  0  0  0  0
   36.5990   26.8310   44.4100 H   0  0  0  0  0  0  0  0  0  0  0  0
   38.3860   28.4500   44.8440 H   0  0  0  0  0  0  0  0  0  0  0  0
   38.9890   30.1350   43.0750 H   0  0  0  0  0  0  0  0  0  0  0  0
   33.6130   28.4410   36.6300 C   0  0  0  0  0  3  0  0  0  0  0  0
   32.3440   28.8750   36.6270 C   0  0  0  0  0  3  0  0  0  0  0  0
   31.5700   28.8980   35.3420 C   0  0  0  0  0  0  0  0  0  0  0  0
   30.8970   28.0500   35.2200 H   0  0  0  0  0  0  0  0  0  0  0  0
   32.2980   28.9280   34.5050 H   0  0  0  0  0  0  0  0  0  0  0  0
   30.2560   29.7990   32.7290 Cl  0  0  0  0  0  0  0  0  0  0  0  0
   30.2020   30.6850   34.2400 C   0  0  0  0  0  0  0  0  0  0  0  0
   30.8220   30.2050   35.3760 C   0  0  0  0  0  0  0  0  0  0  0  0
   30.7810   30.9030   36.5700 C   0  0  0  0  0  0  0  0  0  0  0  0
   31.2780   30.5090   37.4610 H   0  0  0  0  0  0  0  0  0  0  0  0
   30.1130   32.1150   36.6760 C   0  0  0  0  0  0  0  0  0  0  0  0
   30.0670   32.6720   37.5890 H   0  0  0  0  0  0  0  0  0  0  0  0
   29.4990   32.5760   35.5290 C   0  0  0  0  0  0  0  0  0  0  0  0
   28.9770   33.5370   35.6380 H   0  0  0  0  0  0  0  0  0  0  0  0
   29.5210   31.9010   34.3070 C   0  0  0  0  0  0  0  0  0  0  0  0
   28.7020   32.5800   32.9010 Cl  0  0  0  0  0  0  0  0  0  0  0  0
  1  6  1  0  0  0  0
  2  1  2  0  0  0  0
  2  3  1  0  0  0  0
  3  4  2  0  0  0  0
  4  5  1  0  0  0  0
  5 11  1  0  0  0  0
  6  5  2  0  0  0  0
  7  1  1  0  0  0  0
  8  3  1  0  0  0  0
  9 10  1  0  0  0  0
 10 15  1  0  0  0  0
 11 10  2  0  0  0  0
 11 12  1  0  0  0  0
 12 13  2  0  0  0  0
 13 14  1  0  0  0  0
 13 17  1  0  0  0  0
 14 18  1  0  0  0  0
 15 19  1  0  0  0  0
 15 14  2  0  0  0  0
 16 12  1  0  0  0  0
 20  2  1  0  0  0  0
 21 20  2  0  0  0  0
 22 27  1  0  0  0  0
 22 21  1  0  0  0  0
 23 22  1  0  0  0  0
 24 22  1  0  0  0  0
 25 26  1  0  0  0  0
 26 34  2  0  0  0  0
 26 27  1  0  0  0  0
 27 28  2  0  0  0  0
 28 30  1  0  0  0  0
 28 29  1  0  0  0  0
 30 31  1  0  0  0  0
 32 33  1  0  0  0  0
 32 30  2  0  0  0  0
 34 32  1  0  0  0  0
 35 34  1  0  0  0  0
M  END
>  <minimizedAffinity>
-5.94659758

$$$$

 OpenBabel03252501493D

 35 37  0  0  0  0  0  0  0  0999 V2000
   33.7850   29.1360   35.7520 C   0  0  0  0  0  0  0  0  0  0  0  0
   33.3160   29.0840   37.0720 C   0  0  0  0  0  0  0  0  0  0  0  0
   32.0200   29.5740   37.3620 C   0  0  0  0  0  0  0  0  0  0  0  0
   31.2910   30.0750   36.3270 N   0  0  0  0  0  0  0  0  0  0  0  0
   31.7740   30.1070   35.0810 C   0  0  0  0  0  0  0  0  0  0  0  0
   32.9900   29.6450   34.8260 N   0  0  0  0  0  0  0  0  0  0  0  0
   34.7870   28.7450   35.5900 H   0  0  0  0  0  0  0  0  0  0  0  0
   31.5820   29.5730   38.3420 H   0  0  0  0  0  0  0  0  0  0  0  0
   31.2730   32.8190   34.8760 F   0  0  0  0  0  0  0  0  0  0  0  0
   30.7190   32.0250   33.9370 C   0  0  0  0  0  0  0  0  0  0  0  0
   30.9480   30.6580   34.0090 C   0  0  0  0  0  0  0  0  0  0  0  0
   30.4170   29.7670   33.0850 C   0  0  0  0  0  0  0  0  0  0  0  0
   29.6320   30.3110   32.0690 C   0  0  0  0  0  0  0  0  0  0  0  0
   29.3800   31.6770   31.9660 C   0  0  0  0  0  0  0  0  0  0  0  0
   29.9350   32.5330   32.9160 C   0  0  0  0  0  0  0  0  0  0  0  0
   30.5690   28.7000   33.1030 H   0  0  0  0  0  0  0  0  0  0  0  0
   29.2080   29.6290   31.3390 H   0  0  0  0  0  0  0  0  0  0  0  0
   28.7650   32.0320   31.1570 H   0  0  0  0  0  0  0  0  0  0  0  0
   29.7510   33.6060   32.8530 H   0  0  0  0  0  0  0  0  0  0  0  0
   34.0920   28.5510   38.2110 C   0  0  0  0  0  3  0  0  0  0  0  0
   34.4510   29.3350   39.2380 C   0  0  0  0  0  3  0  0  0  0  0  0
   35.2300   28.7510   40.3800 C   0  0  0  0  0  0  0  0  0  0  0  0
   35.6010   27.7450   40.1900 H   0  0  0  0  0  0  0  0  0  0  0  0
   34.5760   28.7510   41.2760 H   0  0  0  0  0  0  0  0  0  0  0  0
   37.4040   27.9100   42.3650 Cl  0  0  0  0  0  0  0  0  0  0  0  0
   37.3750   29.4270   41.4880 C   0  0  0  0  0  0  0  0  0  0  0  0
   36.3550   29.7270   40.6070 C   0  0  0  0  0  0  0  0  0  0  0  0
   36.3300   30.9250   39.9140 C   0  0  0  0  0  0  0  0  0  0  0  0
   35.5150   31.1480   39.2200 H   0  0  0  0  0  0  0  0  0  0  0  0
   37.3310   31.8740   40.0740 C   0  0  0  0  0  0  0  0  0  0  0  0
   37.3330   32.8060   39.5480 H   0  0  0  0  0  0  0  0  0  0  0  0
   38.3410   31.5530   40.9570 C   0  0  0  0  0  0  0  0  0  0  0  0
   39.1210   32.3180   41.0670 H   0  0  0  0  0  0  0  0  0  0  0  0
   38.3990   30.3560   41.6750 C   0  0  0  0  0  0  0  0  0  0  0  0
   39.7370   30.0450   42.7810 Cl  0  0  0  0  0  0  0  0  0  0  0  0
  1  2  1  0  0  0  0
  2  3  2  0  0  0  0
  2 20  1  0  0  0  0
  3  8  1  0  0  0  0
  4  3  1  0  0  0  0
  5  4  2  0  0  0  0
  6  5  1  0  0  0  0
  6  1  2  0  0  0  0
  7  1  1  0  0  0  0
 10 11  1  0  0  0  0
 10  9  1  0  0  0  0
 11  5  1  0  0  0  0
 12 16  1  0  0  0  0
 12 11  2  0  0  0  0
 13 12  1  0  0  0  0
 14 13  2  0  0  0  0
 14 15  1  0  0  0  0
 15 10  2  0  0  0  0
 17 13  1  0  0  0  0
 18 14  1  0  0  0  0
 19 15  1  0  0  0  0
 20 21  2  0  0  0  0
 21 22  1  0  0  0  0
 22 27  1  0  0  0  0
 22 24  1  0  0  0  0
 23 22  1  0  0  0  0
 26 34  1  0  0  0  0
 26 25  1  0  0  0  0
 27 26  2  0  0  0  0
 28 30  2  0  0  0  0
 28 27  1  0  0  0  0
 29 28  1  0  0  0  0
 30 32  1  0  0  0  0
 31 30  1  0  0  0  0
 32 33  1  0  0  0  0
 32 34  2  0  0  0  0
 34 35  1  0  0  0  0
M  END
>  <minimizedAffinity>
-5.92907572

$$$$

 OpenBabel03252501493D

 35 37  0  0  0  0  0  0  0  0999 V2000
   35.8160   27.3920   38.6660 C   0  0  0  0  0  0  0  0  0  0  0  0
   35.6810   28.7220   38.2440 C   0  0  0  0  0  0  0  0  0  0  0  0
   36.3640   29.7410   38.9500 C   0  0  0  0  0  0  0  0  0  0  0  0
   37.1260   29.3670   40.0150 N   0  0  0  0  0  0  0  0  0  0  0  0
   37.2290   28.0860   40.3860 C   0  0  0  0  0  0  0  0  0  0  0  0
   36.5830   27.1440   39.7150 N   0  0  0  0  0  0  0  0  0  0  0  0
   35.2690   26.6540   38.0850 H   0  0  0  0  0  0  0  0  0  0  0  0
   36.3180   30.7830   38.6970 H   0  0  0  0  0  0  0  0  0  0  0  0
   36.1420   27.7000   42.9000 F   0  0  0  0  0  0  0  0  0  0  0  0
   37.4780   27.5540   42.7840 C   0  0  0  0  0  0  0  0  0  0  0  0
   38.0580   27.7410   41.5380 C   0  0  0  0  0  0  0  0  0  0  0  0
   39.4260   27.6120   41.3300 C   0  0  0  0  0  0  0  0  0  0  0  0
   40.2010   27.2820   42.4400 C   0  0  0  0  0  0  0  0  0  0  0  0
   39.6540   27.0880   43.7060 C   0  0  0  0  0  0  0  0  0  0  0  0
   38.2760   27.2280   43.8680 C   0  0  0  0  0  0  0  0  0  0  0  0
   39.9170   27.7490   40.3800 H   0  0  0  0  0  0  0  0  0  0  0  0
   41.2720   27.1780   42.2950 H   0  0  0  0  0  0  0  0  0  0  0  0
   40.3090   26.8340   44.5210 H   0  0  0  0  0  0  0  0  0  0  0  0
   37.8270   27.0780   44.8490 H   0  0  0  0  0  0  0  0  0  0  0  0
   34.8550   29.1520   37.0960 C   0  0  0  0  0  3  0  0  0  0  0  0
   33.5690   28.7910   36.9880 C   0  0  0  0  0  3  0  0  0  0  0  0
   32.7630   29.2570   35.8120 C   0  0  0  0  0  0  0  0  0  0  0  0
   32.4140   28.4490   35.1710 H   0  0  0  0  0  0  0  0  0  0  0  0
   33.3880   29.9620   35.2270 H   0  0  0  0  0  0  0  0  0  0  0  0
   31.3250   31.2570   33.9930 Cl  0  0  0  0  0  0  0  0  0  0  0  0
   30.9150   30.9460   35.6680 C   0  0  0  0  0  0  0  0  0  0  0  0
   31.6160   30.0230   36.4190 C   0  0  0  0  0  0  0  0  0  0  0  0
   31.2940   29.7760   37.7420 C   0  0  0  0  0  0  0  0  0  0  0  0
   31.8590   29.0420   38.3230 H   0  0  0  0  0  0  0  0  0  0  0  0
   30.2520   30.4440   38.3700 C   0  0  0  0  0  0  0  0  0  0  0  0
   29.9850   30.2690   39.3910 H   0  0  0  0  0  0  0  0  0  0  0  0
   29.5640   31.3610   37.6010 C   0  0  0  0  0  0  0  0  0  0  0  0
   28.7440   31.8770   38.1190 H   0  0  0  0  0  0  0  0  0  0  0  0
   29.8610   31.6380   36.2650 C   0  0  0  0  0  0  0  0  0  0  0  0
   28.9170   32.8300   35.3720 Cl  0  0  0  0  0  0  0  0  0  0  0  0
  1  6  1  0  0  0  0
  2  1  2  0  0  0  0
  2  3  1  0  0  0  0
  3  4  2  0  0  0  0
  4  5  1  0  0  0  0
  5 11  1  0  0  0  0
  6  5  2  0  0  0  0
  7  1  1  0  0  0  0
  8  3  1  0  0  0  0
 10  9  1  0  0  0  0
 10 15  1  0  0  0  0
 11 10  2  0  0  0  0
 12 11  1  0  0  0  0
 12 13  2  0  0  0  0
 13 14  1  0  0  0  0
 14 15  2  0  0  0  0
 14 18  1  0  0  0  0
 15 19  1  0  0  0  0
 16 12  1  0  0  0  0
 17 13  1  0  0  0  0
 20  2  1  0  0  0  0
 21 20  2  0  0  0  0
 22 27  1  0  0  0  0
 22 21  1  0  0  0  0
 23 22  1  0  0  0  0
 24 22  1  0  0  0  0
 25 26  1  0  0  0  0
 26 34  2  0  0  0  0
 26 27  1  0  0  0  0
 27 28  2  0  0  0  0
 28 29  1  0  0  0  0
 28 30  1  0  0  0  0
 30 31  1  0  0  0  0
 32 33  1  0  0  0  0
 32 30  2  0  0  0  0
 34 32  1  0  0  0  0
 35 34  1  0  0  0  0
M  END
>  <minimizedAffinity>
-5.86547375

$$$$

 OpenBabel03252501493D

 35 37  0  0  0  0  0  0  0  0999 V2000
   39.6830   33.8820   39.8970 C   0  0  0  0  0  0  0  0  0  0  0  0
   39.3480   32.6080   40.3790 C   0  0  0  0  0  0  0  0  0  0  0  0
   40.3070   31.8810   41.1240 C   0  0  0  0  0  0  0  0  0  0  0  0
   41.5180   32.4670   41.3340 N   0  0  0  0  0  0  0  0  0  0  0  0
   41.7990   33.6840   40.8570 C   0  0  0  0  0  0  0  0  0  0  0  0
   40.8900   34.3530   40.1610 N   0  0  0  0  0  0  0  0  0  0  0  0
   38.9060   34.3930   39.3330 H   0  0  0  0  0  0  0  0  0  0  0  0
   40.1360   30.9020   41.5300 H   0  0  0  0  0  0  0  0  0  0  0  0
   43.9680   33.1380   39.2310 F   0  0  0  0  0  0  0  0  0  0  0  0
   44.1810   33.9680   40.2720 C   0  0  0  0  0  0  0  0  0  0  0  0
   43.1150   34.2640   41.1100 C   0  0  0  0  0  0  0  0  0  0  0  0
   43.2450   35.1080   42.2060 C   0  0  0  0  0  0  0  0  0  0  0  0
   44.5090   35.6520   42.4310 C   0  0  0  0  0  0  0  0  0  0  0  0
   45.6010   35.3770   41.6120 C   0  0  0  0  0  0  0  0  0  0  0  0
   45.4230   34.5250   40.5240 C   0  0  0  0  0  0  0  0  0  0  0  0
   42.4460   35.3640   42.8820 H   0  0  0  0  0  0  0  0  0  0  0  0
   44.6280   36.3140   43.2850 H   0  0  0  0  0  0  0  0  0  0  0  0
   46.5490   35.8310   41.8430 H   0  0  0  0  0  0  0  0  0  0  0  0
   46.2640   34.2980   39.8700 H   0  0  0  0  0  0  0  0  0  0  0  0
   38.0440   31.9500   40.1580 C   0  0  0  0  0  3  0  0  0  0  0  0
   37.4860   31.1740   41.0980 C   0  0  0  0  0  3  0  0  0  0  0  0
   36.1550   30.5320   40.8370 C   0  0  0  0  0  0  0  0  0  0  0  0
   35.7050   30.8250   39.8890 H   0  0  0  0  0  0  0  0  0  0  0  0
   35.4780   30.7950   41.6760 H   0  0  0  0  0  0  0  0  0  0  0  0
   35.8410   28.9780   38.2180 Cl  0  0  0  0  0  0  0  0  0  0  0  0
   36.3120   28.2770   39.7540 C   0  0  0  0  0  0  0  0  0  0  0  0
   36.4320   29.0530   40.8900 C   0  0  0  0  0  0  0  0  0  0  0  0
   36.8040   28.5010   42.1030 C   0  0  0  0  0  0  0  0  0  0  0  0
   36.8940   29.1290   42.9940 H   0  0  0  0  0  0  0  0  0  0  0  0
   37.0730   27.1450   42.2290 C   0  0  0  0  0  0  0  0  0  0  0  0
   37.3630   26.6970   43.1570 H   0  0  0  0  0  0  0  0  0  0  0  0
   36.9490   26.3890   41.0810 C   0  0  0  0  0  0  0  0  0  0  0  0
   37.1670   25.3200   41.2060 H   0  0  0  0  0  0  0  0  0  0  0  0
   36.5750   26.9100   39.8410 C   0  0  0  0  0  0  0  0  0  0  0  0
   36.4450   25.8540   38.4350 Cl  0  0  0  0  0  0  0  0  0  0  0  0
  1  6  2  0  0  0  0
  1  2  1  0  0  0  0
  2  3  2  0  0  0  0
  3  4  1  0  0  0  0
  3  8  1  0  0  0  0
  5 11  1  0  0  0  0
  5  4  2  0  0  0  0
  6  5  1  0  0  0  0
  7  1  1  0  0  0  0
  9 10  1  0  0  0  0
 10 15  2  0  0  0  0
 10 11  1  0  0  0  0
 11 12  2  0  0  0  0
 12 13  1  0  0  0  0
 12 16  1  0  0  0  0
 13 17  1  0  0  0  0
 14 18  1  0  0  0  0
 14 13  2  0  0  0  0
 15 14  1  0  0  0  0
 19 15  1  0  0  0  0
 20  2  1  0  0  0  0
 20 21  2  0  0  0  0
 22 27  1  0  0  0  0
 22 21  1  0  0  0  0
 22 24  1  0  0  0  0
 23 22  1  0  0  0  0
 25 26  1  0  0  0  0
 26 34  2  0  0  0  0
 26 27  1  0  0  0  0
 27 28  2  0  0  0  0
 28 30  1  0  0  0  0
 28 29  1  0  0  0  0
 30 31  1  0  0  0  0
 32 33  1  0  0  0  0
 32 30  2  0  0  0  0
 34 32  1  0  0  0  0
 35 34  1  0  0  0  0
M  END
>  <minimizedAffinity>
-5.72862196

$$$$

 OpenBabel03252501493D

 35 37  0  0  0  0  0  0  0  0999 V2000
   36.9590   30.4240   41.2100 C   0  0  0  0  0  0  0  0  0  0  0  0
   38.2410   30.8190   40.8040 C   0  0  0  0  0  0  0  0  0  0  0  0
   39.1840   29.8260   40.4440 C   0  0  0  0  0  0  0  0  0  0  0  0
   38.7870   28.5260   40.5130 N   0  0  0  0  0  0  0  0  0  0  0  0
   37.5530   28.1910   40.9060 C   0  0  0  0  0  0  0  0  0  0  0  0
   36.6820   29.1320   41.2400 N   0  0  0  0  0  0  0  0  0  0  0  0
   36.2780   31.2310   41.4740 H   0  0  0  0  0  0  0  0  0  0  0  0
   40.1860   30.0370   40.1210 H   0  0  0  0  0  0  0  0  0  0  0  0
   37.6180   26.7630   43.2730 F   0  0  0  0  0  0  0  0  0  0  0  0
   37.2250   26.0950   42.1700 C   0  0  0  0  0  0  0  0  0  0  0  0
   37.1810   26.7790   40.9640 C   0  0  0  0  0  0  0  0  0  0  0  0
   36.7890   26.1690   39.7790 C   0  0  0  0  0  0  0  0  0  0  0  0
   36.4370   24.8220   39.8540 C   0  0  0  0  0  0  0  0  0  0  0  0
   36.4700   24.1040   41.0460 C   0  0  0  0  0  0  0  0  0  0  0  0
   36.8700   24.7570   42.2100 C   0  0  0  0  0  0  0  0  0  0  0  0
   36.7410   26.6620   38.8210 H   0  0  0  0  0  0  0  0  0  0  0  0
   36.1280   24.3300   38.9360 H   0  0  0  0  0  0  0  0  0  0  0  0
   36.1850   23.0660   41.0340 H   0  0  0  0  0  0  0  0  0  0  0  0
   36.9010   24.2140   43.1540 H   0  0  0  0  0  0  0  0  0  0  0  0
   38.6970   32.2220   40.7280 C   0  0  0  0  0  3  0  0  0  0  0  0
   39.9940   32.5280   40.5860 C   0  0  0  0  0  3  0  0  0  0  0  0
   40.4140   33.9670   40.5030 C   0  0  0  0  0  0  0  0  0  0  0  0
   40.6200   34.4200   41.4720 H   0  0  0  0  0  0  0  0  0  0  0  0
   39.6090   34.5280   39.9860 H   0  0  0  0  0  0  0  0  0  0  0  0
   43.1220   34.2770   41.8950 Cl  0  0  0  0  0  0  0  0  0  0  0  0
   42.8940   34.0900   40.1680 C   0  0  0  0  0  0  0  0  0  0  0  0
   41.6340   33.9540   39.6210 C   0  0  0  0  0  0  0  0  0  0  0  0
   41.4520   33.8060   38.2570 C   0  0  0  0  0  0  0  0  0  0  0  0
   40.4470   33.7000   37.8390 H   0  0  0  0  0  0  0  0  0  0  0  0
   42.5290   33.7870   37.3810 C   0  0  0  0  0  0  0  0  0  0  0  0
   42.4130   33.6730   36.3230 H   0  0  0  0  0  0  0  0  0  0  0  0
   43.7800   33.9230   37.9490 C   0  0  0  0  0  0  0  0  0  0  0  0
   44.6160   33.9060   37.2370 H   0  0  0  0  0  0  0  0  0  0  0  0
   44.0020   34.0760   39.3190 C   0  0  0  0  0  0  0  0  0  0  0  0
   45.6440   34.2420   39.9410 Cl  0  0  0  0  0  0  0  0  0  0  0  0
  1  6  1  0  0  0  0
  1  7  1  0  0  0  0
  2  1  2  0  0  0  0
  3  4  2  0  0  0  0
  3  2  1  0  0  0  0
  4  5  1  0  0  0  0
  5 11  1  0  0  0  0
  5  6  2  0  0  0  0
  8  3  1  0  0  0  0
 10 15  1  0  0  0  0
 10  9  1  0  0  0  0
 11 10  2  0  0  0  0
 12 13  2  0  0  0  0
 12 11  1  0  0  0  0
 13 14  1  0  0  0  0
 14 15  2  0  0  0  0
 15 19  1  0  0  0  0
 16 12  1  0  0  0  0
 17 13  1  0  0  0  0
 18 14  1  0  0  0  0
 20  2  1  0  0  0  0
 21 20  2  0  0  0  0
 22 21  1  0  0  0  0
 22 23  1  0  0  0  0
 24 22  1  0  0  0  0
 26 25  1  0  0  0  0
 27 26  1  0  0  0  0
 27 22  1  0  0  0  0
 28 27  2  0  0  0  0
 29 28  1  0  0  0  0
 30 32  2  0  0  0  0
 30 28  1  0  0  0  0
 31 30  1  0  0  0  0
 32 34  1  0  0  0  0
 33 32  1  0  0  0  0
 34 35  1  0  0  0  0
 34 26  2  0  0  0  0
M  END
>  <minimizedAffinity>
-5.67321157

$$$$

 OpenBabel03252501493D

 35 37  0  0  0  0  0  0  0  0999 V2000
   36.0010   27.0870   38.9460 C   0  0  0  0  0  0  0  0  0  0  0  0
   36.0850   27.8090   40.1450 C   0  0  0  0  0  0  0  0  0  0  0  0
   35.2820   28.9630   40.3100 C   0  0  0  0  0  0  0  0  0  0  0  0
   34.4620   29.3110   39.2820 N   0  0  0  0  0  0  0  0  0  0  0  0
   34.4110   28.5950   38.1530 C   0  0  0  0  0  0  0  0  0  0  0  0
   35.1690   27.5180   38.0130 N   0  0  0  0  0  0  0  0  0  0  0  0
   36.6410   26.2100   38.8780 H   0  0  0  0  0  0  0  0  0  0  0  0
   35.2820   29.5740   41.1930 H   0  0  0  0  0  0  0  0  0  0  0  0
   35.2860   28.8610   35.5430 F   0  0  0  0  0  0  0  0  0  0  0  0
   33.9880   29.1380   35.7820 C   0  0  0  0  0  0  0  0  0  0  0  0
   33.5140   29.0170   37.0800 C   0  0  0  0  0  0  0  0  0  0  0  0
   32.1920   29.2830   37.4150 C   0  0  0  0  0  0  0  0  0  0  0  0
   31.3510   29.6830   36.3770 C   0  0  0  0  0  0  0  0  0  0  0  0
   31.7920   29.8170   35.0630 C   0  0  0  0  0  0  0  0  0  0  0  0
   33.1270   29.5390   34.7740 C   0  0  0  0  0  0  0  0  0  0  0  0
   31.7830   29.2020   38.4090 H   0  0  0  0  0  0  0  0  0  0  0  0
   30.3140   29.8970   36.6220 H   0  0  0  0  0  0  0  0  0  0  0  0
   31.0900   30.1300   34.3100 H   0  0  0  0  0  0  0  0  0  0  0  0
   33.4920   29.6350   33.7520 H   0  0  0  0  0  0  0  0  0  0  0  0
   36.9720   27.4530   41.2720 C   0  0  0  0  0  3  0  0  0  0  0  0
   36.8030   27.9890   42.4890 C   0  0  0  0  0  3  0  0  0  0  0  0
   37.7200   27.5940   43.6090 C   0  0  0  0  0  0  0  0  0  0  0  0
   37.8280   26.5160   43.7270 H   0  0  0  0  0  0  0  0  0  0  0  0
   37.3290   28.0400   44.5460 H   0  0  0  0  0  0  0  0  0  0  0  0
   40.2330   25.8610   43.8440 Cl  0  0  0  0  0  0  0  0  0  0  0  0
   40.2130   27.5440   43.3560 C   0  0  0  0  0  0  0  0  0  0  0  0
   39.0320   28.2530   43.2740 C   0  0  0  0  0  0  0  0  0  0  0  0
   39.0150   29.5820   42.8880 C   0  0  0  0  0  0  0  0  0  0  0  0
   38.0700   30.1310   42.8290 H   0  0  0  0  0  0  0  0  0  0  0  0
   40.1840   30.2580   42.5670 C   0  0  0  0  0  0  0  0  0  0  0  0
   40.1950   31.2840   42.2650 H   0  0  0  0  0  0  0  0  0  0  0  0
   41.3530   29.5290   42.6540 C   0  0  0  0  0  0  0  0  0  0  0  0
   42.2650   30.0840   42.3940 H   0  0  0  0  0  0  0  0  0  0  0  0
   41.4100   28.1880   43.0400 C   0  0  0  0  0  0  0  0  0  0  0  0
   42.9590   27.3500   43.1190 Cl  0  0  0  0  0  0  0  0  0  0  0  0
  1  2  1  0  0  0  0
  2  3  2  0  0  0  0
  2 20  1  0  0  0  0
  3  8  1  0  0  0  0
  4  3  1  0  0  0  0
  5  4  2  0  0  0  0
  6  5  1  0  0  0  0
  6  1  2  0  0  0  0
  7  1  1  0  0  0  0
  9 10  1  0  0  0  0
 10 11  1  0  0  0  0
 11 12  2  0  0  0  0
 11  5  1  0  0  0  0
 12 16  1  0  0  0  0
 13 17  1  0  0  0  0
 13 12  1  0  0  0  0
 14 13  2  0  0  0  0
 15 14  1  0  0  0  0
 15 10  2  0  0  0  0
 18 14  1  0  0  0  0
 19 15  1  0  0  0  0
 20 21  2  0  0  0  0
 21 22  1  0  0  0  0
 22 23  1  0  0  0  0
 22 24  1  0  0  0  0
 26 25  1  0  0  0  0
 27 26  1  0  0  0  0
 27 22  1  0  0  0  0
 28 27  2  0  0  0  0
 29 28  1  0  0  0  0
 30 32  2  0  0  0  0
 30 28  1  0  0  0  0
 31 30  1  0  0  0  0
 32 34  1  0  0  0  0
 33 32  1  0  0  0  0
 34 35  1  0  0  0  0
 34 26  2  0  0  0  0
M  END
>  <minimizedAffinity>
-5.59853601

$$$$

 OpenBabel03252501493D

 35 37  0  0  0  0  0  0  0  0999 V2000
   36.6200   31.0510   40.7360 C   0  0  0  0  0  0  0  0  0  0  0  0
   36.3090   30.5940   39.4480 C   0  0  0  0  0  0  0  0  0  0  0  0
   37.0390   31.0980   38.3450 C   0  0  0  0  0  0  0  0  0  0  0  0
   38.0150   32.0120   38.6010 N   0  0  0  0  0  0  0  0  0  0  0  0
   38.2810   32.4230   39.8450 C   0  0  0  0  0  0  0  0  0  0  0  0
   37.5880   31.9410   40.8680 N   0  0  0  0  0  0  0  0  0  0  0  0
   36.0270   30.6270   41.5440 H   0  0  0  0  0  0  0  0  0  0  0  0
   36.8690   30.8040   37.3260 H   0  0  0  0  0  0  0  0  0  0  0  0
   40.9460   31.6970   39.9590 F   0  0  0  0  0  0  0  0  0  0  0  0
   40.6650   33.0060   40.1120 C   0  0  0  0  0  0  0  0  0  0  0  0
   39.3380   33.4080   40.0620 C   0  0  0  0  0  0  0  0  0  0  0  0
   38.9580   34.7360   40.2100 C   0  0  0  0  0  0  0  0  0  0  0  0
   39.9800   35.6610   40.4150 C   0  0  0  0  0  0  0  0  0  0  0  0
   41.3230   35.2950   40.4730 C   0  0  0  0  0  0  0  0  0  0  0  0
   41.6570   33.9510   40.3180 C   0  0  0  0  0  0  0  0  0  0  0  0
   37.9400   35.0900   40.1780 H   0  0  0  0  0  0  0  0  0  0  0  0
   39.7010   36.7040   40.5340 H   0  0  0  0  0  0  0  0  0  0  0  0
   42.0630   36.0600   40.6340 H   0  0  0  0  0  0  0  0  0  0  0  0
   42.7010   33.6430   40.3580 H   0  0  0  0  0  0  0  0  0  0  0  0
   35.2510   29.6080   39.1460 C   0  0  0  0  0  3  0  0  0  0  0  0
   34.9440   29.2780   37.8830 C   0  0  0  0  0  3  0  0  0  0  0  0
   33.8690   28.2650   37.6200 C   0  0  0  0  0  0  0  0  0  0  0  0
   33.6210   27.6530   38.4870 H   0  0  0  0  0  0  0  0  0  0  0  0
   34.2050   27.6180   36.7840 H   0  0  0  0  0  0  0  0  0  0  0  0
   33.5100   28.5610   34.5950 Cl  0  0  0  0  0  0  0  0  0  0  0  0
   32.4560   29.2630   35.8060 C   0  0  0  0  0  0  0  0  0  0  0  0
   32.6900   29.0780   37.1550 C   0  0  0  0  0  0  0  0  0  0  0  0
   31.8590   29.6310   38.1130 C   0  0  0  0  0  0  0  0  0  0  0  0
   32.0580   29.4750   39.1770 H   0  0  0  0  0  0  0  0  0  0  0  0
   30.7540   30.3940   37.7590 C   0  0  0  0  0  0  0  0  0  0  0  0
   30.0980   30.8310   38.4820 H   0  0  0  0  0  0  0  0  0  0  0  0
   30.5380   30.5650   36.4070 C   0  0  0  0  0  0  0  0  0  0  0  0
   29.6600   31.1720   36.1510 H   0  0  0  0  0  0  0  0  0  0  0  0
   31.3560   30.0240   35.4120 C   0  0  0  0  0  0  0  0  0  0  0  0
   30.9890   30.3040   33.7100 Cl  0  0  0  0  0  0  0  0  0  0  0  0
  1  6  1  0  0  0  0
  1  7  1  0  0  0  0
  2  1  2  0  0  0  0
  3  4  2  0  0  0  0
  3  2  1  0  0  0  0
  4  5  1  0  0  0  0
  5 11  1  0  0  0  0
  5  6  2  0  0  0  0
  8  3  1  0  0  0  0
  9 10  1  0  0  0  0
 10 15  1  0  0  0  0
 11 10  2  0  0  0  0
 11 12  1  0  0  0  0
 12 13  2  0  0  0  0
 13 14  1  0  0  0  0
 13 17  1  0  0  0  0
 14 18  1  0  0  0  0
 15 19  1  0  0  0  0
 15 14  2  0  0  0  0
 16 12  1  0  0  0  0
 20  2  1  0  0  0  0
 21 20  2  0  0  0  0
 22 21  1  0  0  0  0
 22 23  1  0  0  0  0
 24 22  1  0  0  0  0
 25 26  1  0  0  0  0
 26 27  1  0  0  0  0
 27 22  1  0  0  0  0
 27 28  2  0  0  0  0
 28 29  1  0  0  0  0
 30 28  1  0  0  0  0
 30 31  1  0  0  0  0
 32 30  2  0  0  0  0
 33 32  1  0  0  0  0
 34 26  2  0  0  0  0
 34 32  1  0  0  0  0
 35 34  1  0  0  0  0
M  END
>  <minimizedAffinity>
-5.54091311

$$$$

 OpenBabel03252501493D

 35 37  0  0  0  0  0  0  0  0999 V2000
   36.4970   30.8730   40.6850 C   0  0  0  0  0  0  0  0  0  0  0  0
   36.2920   30.3390   39.4040 C   0  0  0  0  0  0  0  0  0  0  0  0
   37.1890   30.6830   38.3640 C   0  0  0  0  0  0  0  0  0  0  0  0
   38.2150   31.5220   38.6710 N   0  0  0  0  0  0  0  0  0  0  0  0
   38.3770   32.0100   39.9050 C   0  0  0  0  0  0  0  0  0  0  0  0
   37.5280   31.6800   40.8680 N   0  0  0  0  0  0  0  0  0  0  0  0
   35.7770   30.5730   41.4420 H   0  0  0  0  0  0  0  0  0  0  0  0
   37.1080   30.3210   37.3570 H   0  0  0  0  0  0  0  0  0  0  0  0
   38.0750   34.7590   39.8780 F   0  0  0  0  0  0  0  0  0  0  0  0
   39.3060   34.2840   40.1560 C   0  0  0  0  0  0  0  0  0  0  0  0
   39.4950   32.9100   40.1770 C   0  0  0  0  0  0  0  0  0  0  0  0
   40.7300   32.3350   40.4520 C   0  0  0  0  0  0  0  0  0  0  0  0
   41.7850   33.2100   40.7100 C   0  0  0  0  0  0  0  0  0  0  0  0
   41.6320   34.5940   40.6960 C   0  0  0  0  0  0  0  0  0  0  0  0
   40.3750   35.1250   40.4150 C   0  0  0  0  0  0  0  0  0  0  0  0
   40.9210   31.2750   40.4790 H   0  0  0  0  0  0  0  0  0  0  0  0
   42.7570   32.7770   40.9260 H   0  0  0  0  0  0  0  0  0  0  0  0
   42.4880   35.2120   40.9040 H   0  0  0  0  0  0  0  0  0  0  0  0
   40.2330   36.2060   40.4010 H   0  0  0  0  0  0  0  0  0  0  0  0
   35.1820   29.4320   39.0480 C   0  0  0  0  0  3  0  0  0  0  0  0
   34.7170   29.3580   37.7920 C   0  0  0  0  0  3  0  0  0  0  0  0
   33.5940   28.4150   37.4700 C   0  0  0  0  0  0  0  0  0  0  0  0
   33.1120   27.9910   38.3500 H   0  0  0  0  0  0  0  0  0  0  0  0
   34.0010   27.6040   36.8330 H   0  0  0  0  0  0  0  0  0  0  0  0
   31.2860   29.7490   38.9750 Cl  0  0  0  0  0  0  0  0  0  0  0  0
   31.5660   29.8700   37.2500 C   0  0  0  0  0  0  0  0  0  0  0  0
   32.6350   29.2370   36.6500 C   0  0  0  0  0  0  0  0  0  0  0  0
   32.8580   29.3320   35.2870 C   0  0  0  0  0  0  0  0  0  0  0  0
   33.7090   28.8230   34.8270 H   0  0  0  0  0  0  0  0  0  0  0  0
   32.0150   30.0690   34.4660 C   0  0  0  0  0  0  0  0  0  0  0  0
   32.1670   30.1570   33.4110 H   0  0  0  0  0  0  0  0  0  0  0  0
   30.9530   30.6950   35.0870 C   0  0  0  0  0  0  0  0  0  0  0  0
   30.3010   31.2720   34.4170 H   0  0  0  0  0  0  0  0  0  0  0  0
   30.6960   30.6210   36.4570 C   0  0  0  0  0  0  0  0  0  0  0  0
   29.3090   31.4610   37.1500 Cl  0  0  0  0  0  0  0  0  0  0  0  0
  1  6  1  0  0  0  0
  1  7  1  0  0  0  0
  2  1  2  0  0  0  0
  3  4  2  0  0  0  0
  3  2  1  0  0  0  0
  4  5  1  0  0  0  0
  5 11  1  0  0  0  0
  5  6  2  0  0  0  0
  8  3  1  0  0  0  0
  9 10  1  0  0  0  0
 10 11  2  0  0  0  0
 10 15  1  0  0  0  0
 11 12  1  0  0  0  0
 12 16  1  0  0  0  0
 12 13  2  0  0  0  0
 13 17  1  0  0  0  0
 14 13  1  0  0  0  0
 14 18  1  0  0  0  0
 15 14  2  0  0  0  0
 19 15  1  0  0  0  0
 20  2  1  0  0  0  0
 21 20  2  0  0  0  0
 22 21  1  0  0  0  0
 22 23  1  0  0  0  0
 24 22  1  0  0  0  0
 26 25  1  0  0  0  0
 27 26  1  0  0  0  0
 27 22  1  0  0  0  0
 28 27  2  0  0  0  0
 29 28  1  0  0  0  0
 30 32  2  0  0  0  0
 30 28  1  0  0  0  0
 31 30  1  0  0  0  0
 32 34  1  0  0  0  0
 33 32  1  0  0  0  0
 34 35  1  0  0  0  0
 34 26  2  0  0  0  0
M  END
>  <minimizedAffinity>
-5.49540949

$$$$

 OpenBabel03252501493D

 35 37  0  0  0  0  0  0  0  0999 V2000
   38.3220   29.1850   40.5080 C   0  0  0  0  0  0  0  0  0  0  0  0
   38.5510   28.7280   41.8130 C   0  0  0  0  0  0  0  0  0  0  0  0
   39.0960   29.6200   42.7680 C   0  0  0  0  0  0  0  0  0  0  0  0
   39.3690   30.8890   42.3590 N   0  0  0  0  0  0  0  0  0  0  0  0
   39.1360   31.2870   41.1040 C   0  0  0  0  0  0  0  0  0  0  0  0
   38.6260   30.4390   40.2210 N   0  0  0  0  0  0  0  0  0  0  0  0
   37.9020   28.4550   39.8190 H   0  0  0  0  0  0  0  0  0  0  0  0
   39.3020   29.3560   43.7880 H   0  0  0  0  0  0  0  0  0  0  0  0
   41.7330   32.1020   40.6150 F   0  0  0  0  0  0  0  0  0  0  0  0
   40.7660   33.0330   40.4810 C   0  0  0  0  0  0  0  0  0  0  0  0
   39.4510   32.6600   40.7190 C   0  0  0  0  0  0  0  0  0  0  0  0
   38.3940   33.5540   40.6050 C   0  0  0  0  0  0  0  0  0  0  0  0
   38.7140   34.8600   40.2360 C   0  0  0  0  0  0  0  0  0  0  0  0
   40.0220   35.2700   39.9900 C   0  0  0  0  0  0  0  0  0  0  0  0
   41.0510   34.3390   40.1170 C   0  0  0  0  0  0  0  0  0  0  0  0
   37.3600   33.3070   40.7800 H   0  0  0  0  0  0  0  0  0  0  0  0
   37.8990   35.5720   40.1430 H   0  0  0  0  0  0  0  0  0  0  0  0
   40.2000   36.2940   39.7080 H   0  0  0  0  0  0  0  0  0  0  0  0
   42.0810   34.6380   39.9270 H   0  0  0  0  0  0  0  0  0  0  0  0
   38.2680   27.3540   42.2770 C   0  0  0  0  0  3  0  0  0  0  0  0
   37.3310   26.5980   41.6870 C   0  0  0  0  0  3  0  0  0  0  0  0
   37.0810   25.2040   42.1830 C   0  0  0  0  0  0  0  0  0  0  0  0
   36.1350   25.0880   42.7100 H   0  0  0  0  0  0  0  0  0  0  0  0
   37.9230   24.9220   42.8490 H   0  0  0  0  0  0  0  0  0  0  0  0
   39.8670   24.4870   41.1350 Cl  0  0  0  0  0  0  0  0  0  0  0  0
   38.3560   23.9790   40.4060 C   0  0  0  0  0  0  0  0  0  0  0  0
   37.1400   24.3470   40.9460 C   0  0  0  0  0  0  0  0  0  0  0  0
   35.9460   23.9470   40.3720 C   0  0  0  0  0  0  0  0  0  0  0  0
   34.9900   24.2470   40.8110 H   0  0  0  0  0  0  0  0  0  0  0  0
   35.9210   23.1580   39.2290 C   0  0  0  0  0  0  0  0  0  0  0  0
   35.0100   22.8370   38.7680 H   0  0  0  0  0  0  0  0  0  0  0  0
   37.1480   22.8010   38.7070 C   0  0  0  0  0  0  0  0  0  0  0  0
   37.1020   22.1780   37.8040 H   0  0  0  0  0  0  0  0  0  0  0  0
   38.3710   23.1870   39.2580 C   0  0  0  0  0  0  0  0  0  0  0  0
   39.8840   22.6750   38.5100 Cl  0  0  0  0  0  0  0  0  0  0  0  0
  1  2  1  0  0  0  0
  2 20  1  0  0  0  0
  2  3  2  0  0  0  0
  3  8  1  0  0  0  0
  4  3  1  0  0  0  0
  5  4  2  0  0  0  0
  6  1  2  0  0  0  0
  6  5  1  0  0  0  0
  7  1  1  0  0  0  0
 10  9  1  0  0  0  0
 10 11  1  0  0  0  0
 11  5  1  0  0  0  0
 12 11  2  0  0  0  0
 12 16  1  0  0  0  0
 13 12  1  0  0  0  0
 14 15  1  0  0  0  0
 14 13  2  0  0  0  0
 15 10  2  0  0  0  0
 17 13  1  0  0  0  0
 18 14  1  0  0  0  0
 19 15  1  0  0  0  0
 21 22  1  0  0  0  0
 21 20  2  0  0  0  0
 22 23  1  0  0  0  0
 22 24  1  0  0  0  0
 26 27  1  0  0  0  0
 26 25  1  0  0  0  0
 27 22  1  0  0  0  0
 28 29  1  0  0  0  0
 28 27  2  0  0  0  0
 30 28  1  0  0  0  0
 31 30  1  0  0  0  0
 32 30  2  0  0  0  0
 32 34  1  0  0  0  0
 33 32  1  0  0  0  0
 34 26  2  0  0  0  0
 35 34  1  0  0  0  0
M  END
>  <minimizedAffinity>
-5.48180389

$$$$
