REMARK  Name = 
REMARK  12 active torsions:
REMARK  status: ('A' for Active; 'I' for Inactive)
REMARK    1  A    between atoms: C_1  and  C_2
REMARK    2  A    between atoms: C_1  and  C_12
REMARK    3  A    between atoms: C_3  and  S_8
REMARK    4  A    between atoms: S_8  and  C_9
REMARK    5  A    between atoms: C_9  and  C_10
REMARK    6  A    between atoms: C_10  and  N_11
REMARK    7  A    between atoms: C_12  and  C_13
REMARK    8  A    between atoms: C_16  and  O_18
REMARK    9  A    between atoms: O_18  and  P_20
REMARK   10  A    between atoms: P_20  and  O_21
REMARK   11  A    between atoms: P_20  and  O_22
REMARK   12  A    between atoms: O_22  and  C_39
REMARK                            x       y       z     vdW  Elec       q    Type
REMARK                         _______ _______ _______ _____ _____    ______ ____
ROOT
ATOM      1  C   UNL     1      46.745  34.943  41.947  0.00  0.00    +0.000 C 
ATOM      2  H   UNL     1      47.096  35.917  42.313  0.00  0.00    +0.000 HD
ATOM      3  H   UNL     1      46.961  34.227  42.789  0.00  0.00    +0.000 HD
ENDROOT
BRANCH   1   4
ATOM      4  C   UNL     1      45.283  34.938  41.753  0.00  0.00    +0.000 A 
ATOM      5  C   UNL     1      44.435  35.606  42.683  0.00  0.00    +0.000 A 
ATOM      6  S   UNL     1      42.761  35.321  42.026  0.00  0.00    +0.000 S 
ATOM      7  C   UNL     1      43.486  34.316  40.559  0.00  0.00    +0.000 A 
ATOM      8  N   UNL     1      44.600  34.374  40.790  0.00  0.00    +0.000 NA
ATOM      9  H   UNL     1      44.706  36.157  43.573  0.00  0.00    +0.000 HD
BRANCH   7  10
ATOM     10  O   UNL     1      42.699  33.743  39.569  0.00  0.00    +0.000 OA
BRANCH  10  12
ATOM     11  O   UNL     1      40.751  33.971  37.809  0.00  0.00    +0.000 OA
ATOM     12  P   UNL     1      41.775  34.804  38.598  0.00  0.00    +0.000 P 
BRANCH  12  13
ATOM     13  O   UNL     1      40.931  35.828  39.649  0.00  0.00    +0.000 OA
ATOM     14  H   UNL     1      41.483  36.551  39.984  0.00  0.00    +0.000 HD
ENDBRANCH  12  13
BRANCH  12  15
ATOM     15  O   UNL     1      42.789  35.689  37.606  0.00  0.00    +0.000 OA
BRANCH  15  18
ATOM     16 CL   UNL     1      40.058  37.062  37.576  0.00  0.00    +0.000 Cl
ATOM     17  C   UNL     1      41.362  37.429  36.468  0.00  0.00    +0.000 A 
ATOM     18  C   UNL     1      42.485  36.664  36.700  0.00  0.00    +0.000 A 
ATOM     19  C   UNL     1      43.589  36.882  35.864  0.00  0.00    +0.000 A 
ATOM     20  H   UNL     1      44.567  36.375  35.892  0.00  0.00    +0.000 HD
ATOM     21  C   UNL     1      43.550  37.834  34.840  0.00  0.00    +0.000 A 
ATOM     22  H   UNL     1      44.376  38.035  34.173  0.00  0.00    +0.000 HD
ATOM     23  C   UNL     1      42.412  38.584  34.633  0.00  0.00    +0.000 A 
ATOM     24  H   UNL     1      42.325  39.337  33.853  0.00  0.00    +0.000 HD
ATOM     25  C   UNL     1      41.329  38.365  35.458  0.00  0.00    +0.000 A 
ATOM     26 CL   UNL     1      39.823  39.236  35.317  0.00  0.00    +0.000 Cl
ENDBRANCH  15  18
ENDBRANCH  12  15
ENDBRANCH  10  12
ENDBRANCH   7  10
ENDBRANCH   1   4
BRANCH   1  27
ATOM     27  C   UNL     1      47.530  34.441  40.770  0.00  0.00    +0.000 C 
ATOM     28  H   UNL     1      46.848  33.791  40.189  0.00  0.00    +0.000 HD
ATOM     29  H   UNL     1      47.768  35.318  40.117  0.00  0.00    +0.000 HD
BRANCH  27  30
ATOM     30  C   UNL     1      48.779  33.769  41.129  0.00  0.00    +0.000 A 
ATOM     31  C   UNL     1      49.107  32.626  40.410  0.00  0.00    +0.000 A 
ATOM     32  C   UNL     1      50.264  31.921  40.674  0.00  0.00    +0.000 A 
ATOM     33  N   UNL     1      51.071  32.417  41.689  0.00  0.00    +0.000 NA
ATOM     34  C   UNL     1      50.710  33.539  42.366  0.00  0.00    +0.000 A 
ATOM     35  N   UNL     1      49.585  34.204  42.092  0.00  0.00    +0.000 NA
ATOM     36  H   UNL     1      50.541  31.040  40.137  0.00  0.00    +0.000 HD
ATOM     37  H   UNL     1      51.420  33.839  43.145  0.00  0.00    +0.000 HD
BRANCH  31  38
ATOM     38  S   UNL     1      48.014  32.052  39.117  0.00  0.00    +0.000 S 
BRANCH  38  39
ATOM     39  C   UNL     1      48.827  32.163  37.514  0.00  0.00    +0.000 C 
ATOM     40  H   UNL     1      48.511  31.302  36.864  0.00  0.00    +0.000 HD
ATOM     41  H   UNL     1      49.932  32.033  37.675  0.00  0.00    +0.000 HD
BRANCH  39  42
ATOM     42  C   UNL     1      48.496  33.493  36.892  0.00  0.00    +0.000 C 
ATOM     43  H   UNL     1      47.609  33.948  37.358  0.00  0.00    +0.000 HD
ATOM     44  H   UNL     1      49.339  34.216  37.034  0.00  0.00    +0.000 HD
BRANCH  42  45
ATOM     45  N   UNL     1      48.196  33.293  35.510  0.00  0.00    +0.000 NA
ATOM     46  H   UNL     1      48.485  32.359  35.197  0.00  0.00    +0.000 HD
ATOM     47  H   UNL     1      48.722  33.976  34.888  0.00  0.00    +0.000 HD
ENDBRANCH  42  45
ENDBRANCH  39  42
ENDBRANCH  38  39
ENDBRANCH  31  38
ENDBRANCH  27  30
ENDBRANCH   1  27
TORSDOF 12
