
 OpenBabel03252503143D

 36 39  0  0  0  0  0  0  0  0999 V2000
   39.5420   32.7730   40.5460 C   0  0  0  0  0  0  0  0  0  0  0  0
   38.6680   33.6830   40.7460 O   0  0  0  0  0  0  0  0  0  0  0  0
   41.5110   33.9100   39.6240 C   0  0  0  0  0  0  0  0  0  0  0  0
   40.4310   33.0100   39.4610 C   0  0  0  0  0  0  0  0  0  0  0  0
   40.3380   32.4220   38.2170 C   0  0  0  0  0  0  0  0  0  0  0  0
   41.2110   32.6800   37.2230 N   0  0  0  0  0  0  0  0  0  0  0  0
   42.2370   33.5510   37.4160 C   0  0  0  0  0  0  0  0  0  0  0  0
   42.3820   34.1610   38.6160 N   0  0  0  0  0  0  0  0  0  0  0  0
   41.6650   34.4230   40.5730 H   0  0  0  0  0  0  0  0  0  0  0  0
   42.9190   33.7350   36.5970 H   0  0  0  0  0  0  0  0  0  0  0  0
   39.2910   31.5210   37.9770 C   0  0  0  0  0  0  0  0  0  0  0  0
   37.9550   31.6590   37.7330 C   0  0  0  0  0  0  0  0  0  0  0  0
   37.1320   30.6280   37.5230 C   0  0  0  0  0  0  0  0  0  0  0  0
   37.7310   29.3810   37.5700 C   0  0  0  0  0  0  0  0  0  0  0  0
   39.4940   29.7590   37.9220 S   0  0  0  0  0  0  0  0  0  0  0  0
   37.5890   32.7070   37.7200 H   0  0  0  0  0  0  0  0  0  0  0  0
   36.0700   30.6720   37.3250 H   0  0  0  0  0  0  0  0  0  0  0  0
   37.3030   28.3980   37.4370 H   0  0  0  0  0  0  0  0  0  0  0  0
   39.6750   31.5230   41.3610 C   0  0  0  0  0  0  0  0  0  0  0  0
   40.7230   31.1660   42.1640 C   0  0  0  0  0  0  0  0  0  0  0  0
   40.3720   29.9800   42.6820 N   0  0  0  0  0  0  0  0  0  0  0  0
   39.1620   29.6090   42.2260 C   0  0  0  0  0  0  0  0  0  0  0  0
   38.7440   30.5780   41.4060 N   0  0  0  0  0  0  0  0  0  0  0  0
   41.6210   31.7510   42.3160 H   0  0  0  0  0  0  0  0  0  0  0  0
   40.9780   29.4620   43.3350 H   0  0  0  0  0  0  0  0  0  0  0  0
   39.6810   26.9650   40.6320 Cl  0  0  0  0  0  0  0  0  0  0  0  0
   38.4650   27.2280   41.8400 C   0  0  0  0  0  0  0  0  0  0  0  0
   38.3400   28.4390   42.4700 C   0  0  0  0  0  0  0  0  0  0  0  0
   37.3230   28.4560   43.3960 C   0  0  0  0  0  0  0  0  0  0  0  0
   37.1210   29.3760   43.9710 H   0  0  0  0  0  0  0  0  0  0  0  0
   36.5040   27.3910   43.6800 C   0  0  0  0  0  0  0  0  0  0  0  0
   35.7330   27.4830   44.4160 H   0  0  0  0  0  0  0  0  0  0  0  0
   36.6660   26.1950   43.0220 C   0  0  0  0  0  0  0  0  0  0  0  0
   36.0000   25.3870   43.2780 H   0  0  0  0  0  0  0  0  0  0  0  0
   37.6730   26.1300   42.0860 C   0  0  0  0  0  0  0  0  0  0  0  0
   37.8680   24.6020   41.2580 Cl  0  0  0  0  0  0  0  0  0  0  0  0
  1  2  2  0  0  0  0
  1 19  1  0  0  0  0
  3  9  1  0  0  0  0
  4  3  1  0  0  0  0
  4  1  1  0  0  0  0
  5  4  2  0  0  0  0
  6  7  2  0  0  0  0
  6  5  1  0  0  0  0
  7  8  1  0  0  0  0
  8  3  2  0  0  0  0
 10  7  1  0  0  0  0
 11  5  1  0  0  0  0
 12 11  2  0  0  0  0
 13 14  2  0  0  0  0
 13 12  1  0  0  0  0
 14 15  1  0  0  0  0
 15 11  1  0  0  0  0
 16 12  1  0  0  0  0
 17 13  1  0  0  0  0
 18 14  1  0  0  0  0
 19 23  1  0  0  0  0
 19 20  2  0  0  0  0
 20 24  1  0  0  0  0
 20 21  1  0  0  0  0
 21 25  1  0  0  0  0
 22 28  1  0  0  0  0
 22 21  1  0  0  0  0
 23 22  2  0  0  0  0
 26 27  1  0  0  0  0
 27 35  2  0  0  0  0
 27 28  1  0  0  0  0
 28 29  2  0  0  0  0
 29 31  1  0  0  0  0
 29 30  1  0  0  0  0
 31 32  1  0  0  0  0
 33 34  1  0  0  0  0
 33 31  2  0  0  0  0
 35 33  1  0  0  0  0
 36 35  1  0  0  0  0
M  END
>  <minimizedAffinity>
-5.99722767

$$$$

 OpenBabel03252503143D

 36 39  0  0  0  0  0  0  0  0999 V2000
   36.9650   27.7960   42.5200 C   0  0  0  0  0  0  0  0  0  0  0  0
   36.2290   27.3480   43.4640 O   0  0  0  0  0  0  0  0  0  0  0  0
   39.2850   28.1400   43.2380 C   0  0  0  0  0  0  0  0  0  0  0  0
   38.3200   27.3680   42.5480 C   0  0  0  0  0  0  0  0  0  0  0  0
   38.8040   26.2260   41.9440 C   0  0  0  0  0  0  0  0  0  0  0  0
   40.1010   25.8650   42.0040 N   0  0  0  0  0  0  0  0  0  0  0  0
   40.9990   26.6320   42.6770 C   0  0  0  0  0  0  0  0  0  0  0  0
   40.5860   27.7660   43.2910 N   0  0  0  0  0  0  0  0  0  0  0  0
   38.9960   29.0600   43.7460 H   0  0  0  0  0  0  0  0  0  0  0  0
   42.0330   26.3120   42.7050 H   0  0  0  0  0  0  0  0  0  0  0  0
   37.9090   25.4110   41.2370 C   0  0  0  0  0  0  0  0  0  0  0  0
   36.9580   24.5030   41.6010 C   0  0  0  0  0  0  0  0  0  0  0  0
   36.2010   23.8330   40.7260 C   0  0  0  0  0  0  0  0  0  0  0  0
   36.4500   24.1220   39.3960 C   0  0  0  0  0  0  0  0  0  0  0  0
   37.7910   25.3750   39.4660 S   0  0  0  0  0  0  0  0  0  0  0  0
   36.8490   24.3550   42.6960 H   0  0  0  0  0  0  0  0  0  0  0  0
   35.4340   23.1050   40.9520 H   0  0  0  0  0  0  0  0  0  0  0  0
   35.9890   23.7290   38.5010 H   0  0  0  0  0  0  0  0  0  0  0  0
   36.4920   28.7110   41.4310 C   0  0  0  0  0  0  0  0  0  0  0  0
   36.5440   30.0780   41.4170 C   0  0  0  0  0  0  0  0  0  0  0  0
   36.0170   30.4310   40.2370 N   0  0  0  0  0  0  0  0  0  0  0  0
   35.6500   29.3390   39.5410 C   0  0  0  0  0  0  0  0  0  0  0  0
   35.9520   28.2800   40.2980 N   0  0  0  0  0  0  0  0  0  0  0  0
   36.9380   30.6960   42.2140 H   0  0  0  0  0  0  0  0  0  0  0  0
   35.9250   31.4150   39.9460 H   0  0  0  0  0  0  0  0  0  0  0  0
   37.3790   29.6730   36.9520 Cl  0  0  0  0  0  0  0  0  0  0  0  0
   35.6900   29.2890   37.0310 C   0  0  0  0  0  0  0  0  0  0  0  0
   35.0440   29.1680   38.2350 C   0  0  0  0  0  0  0  0  0  0  0  0
   33.7100   28.8590   38.0960 C   0  0  0  0  0  0  0  0  0  0  0  0
   33.0810   28.7360   38.9940 H   0  0  0  0  0  0  0  0  0  0  0  0
   33.0680   28.6850   36.8950 C   0  0  0  0  0  0  0  0  0  0  0  0
   32.0260   28.4440   36.8700 H   0  0  0  0  0  0  0  0  0  0  0  0
   33.7560   28.8150   35.7130 C   0  0  0  0  0  0  0  0  0  0  0  0
   33.2100   28.6690   34.7950 H   0  0  0  0  0  0  0  0  0  0  0  0
   35.0950   29.1240   35.8010 C   0  0  0  0  0  0  0  0  0  0  0  0
   35.9570   29.2870   34.2890 Cl  0  0  0  0  0  0  0  0  0  0  0  0
  1  4  1  0  0  0  0
  1  2  2  0  0  0  0
  3  8  1  0  0  0  0
  3  9  1  0  0  0  0
  4  3  2  0  0  0  0
  5  6  2  0  0  0  0
  5  4  1  0  0  0  0
  6  7  1  0  0  0  0
  7 10  1  0  0  0  0
  7  8  2  0  0  0  0
 11 12  2  0  0  0  0
 11  5  1  0  0  0  0
 12 16  1  0  0  0  0
 13 17  1  0  0  0  0
 13 12  1  0  0  0  0
 14 15  1  0  0  0  0
 14 13  2  0  0  0  0
 15 11  1  0  0  0  0
 18 14  1  0  0  0  0
 19  1  1  0  0  0  0
 20 19  2  0  0  0  0
 20 24  1  0  0  0  0
 21 20  1  0  0  0  0
 22 21  1  0  0  0  0
 22 23  2  0  0  0  0
 23 19  1  0  0  0  0
 25 21  1  0  0  0  0
 26 27  1  0  0  0  0
 27 28  1  0  0  0  0
 28 22  1  0  0  0  0
 29 28  2  0  0  0  0
 29 30  1  0  0  0  0
 31 29  1  0  0  0  0
 32 31  1  0  0  0  0
 33 35  1  0  0  0  0
 33 31  2  0  0  0  0
 34 33  1  0  0  0  0
 35 27  2  0  0  0  0
 36 35  1  0  0  0  0
M  END
>  <minimizedAffinity>
-5.91730785

$$$$

 OpenBabel03252503143D

 36 39  0  0  0  0  0  0  0  0999 V2000
   38.6900   26.0750   42.6810 C   0  0  0  0  0  0  0  0  0  0  0  0
   39.5310   25.5870   43.5090 O   0  0  0  0  0  0  0  0  0  0  0  0
   37.0060   24.5460   41.7620 C   0  0  0  0  0  0  0  0  0  0  0  0
   38.2620   25.1890   41.6540 C   0  0  0  0  0  0  0  0  0  0  0  0
   38.9810   24.8860   40.5170 C   0  0  0  0  0  0  0  0  0  0  0  0
   38.5250   24.0400   39.5720 N   0  0  0  0  0  0  0  0  0  0  0  0
   37.3140   23.4400   39.7100 C   0  0  0  0  0  0  0  0  0  0  0  0
   36.5590   23.6970   40.8050 N   0  0  0  0  0  0  0  0  0  0  0  0
   36.3670   24.7240   42.6270 H   0  0  0  0  0  0  0  0  0  0  0  0
   36.9790   22.7660   38.9330 H   0  0  0  0  0  0  0  0  0  0  0  0
   40.2380   25.4810   40.3400 C   0  0  0  0  0  0  0  0  0  0  0  0
   41.4990   25.1880   40.7720 C   0  0  0  0  0  0  0  0  0  0  0  0
   42.5750   25.9160   40.4630 C   0  0  0  0  0  0  0  0  0  0  0  0
   42.3270   27.0150   39.6580 C   0  0  0  0  0  0  0  0  0  0  0  0
   40.5130   26.9460   39.3760 S   0  0  0  0  0  0  0  0  0  0  0  0
   41.5740   24.2830   41.4120 H   0  0  0  0  0  0  0  0  0  0  0  0
   43.5950   25.7350   40.7730 H   0  0  0  0  0  0  0  0  0  0  0  0
   43.0070   27.7580   39.2670 H   0  0  0  0  0  0  0  0  0  0  0  0
   38.1540   27.4730   42.7320 C   0  0  0  0  0  0  0  0  0  0  0  0
   37.3240   28.0070   43.6790 C   0  0  0  0  0  0  0  0  0  0  0  0
   37.1390   29.2790   43.2980 N   0  0  0  0  0  0  0  0  0  0  0  0
   37.8190   29.5330   42.1660 C   0  0  0  0  0  0  0  0  0  0  0  0
   38.4440   28.4000   41.8280 N   0  0  0  0  0  0  0  0  0  0  0  0
   36.9290   27.4740   44.5350 H   0  0  0  0  0  0  0  0  0  0  0  0
   36.5480   29.9340   43.8310 H   0  0  0  0  0  0  0  0  0  0  0  0
   40.4380   31.2430   42.3170 Cl  0  0  0  0  0  0  0  0  0  0  0  0
   39.0480   31.5570   41.3290 C   0  0  0  0  0  0  0  0  0  0  0  0
   37.9560   30.7260   41.3530 C   0  0  0  0  0  0  0  0  0  0  0  0
   36.9550   31.1360   40.5030 C   0  0  0  0  0  0  0  0  0  0  0  0
   36.0240   30.5500   40.4320 H   0  0  0  0  0  0  0  0  0  0  0  0
   37.0130   32.2530   39.7060 C   0  0  0  0  0  0  0  0  0  0  0  0
   36.1910   32.5060   39.0700 H   0  0  0  0  0  0  0  0  0  0  0  0
   38.1270   33.0570   39.7160 C   0  0  0  0  0  0  0  0  0  0  0  0
   38.1270   33.9230   39.0730 H   0  0  0  0  0  0  0  0  0  0  0  0
   39.1570   32.6860   40.5500 C   0  0  0  0  0  0  0  0  0  0  0  0
   40.5690   33.7180   40.5510 Cl  0  0  0  0  0  0  0  0  0  0  0  0
  1 19  1  0  0  0  0
  1  2  2  0  0  0  0
  3  9  1  0  0  0  0
  4  3  1  0  0  0  0
  4  1  1  0  0  0  0
  5  4  2  0  0  0  0
  6  7  2  0  0  0  0
  6  5  1  0  0  0  0
  7  8  1  0  0  0  0
  8  3  2  0  0  0  0
 10  7  1  0  0  0  0
 11  5  1  0  0  0  0
 11 12  2  0  0  0  0
 12 16  1  0  0  0  0
 13 12  1  0  0  0  0
 13 17  1  0  0  0  0
 14 13  2  0  0  0  0
 15 14  1  0  0  0  0
 15 11  1  0  0  0  0
 18 14  1  0  0  0  0
 19 20  2  0  0  0  0
 20 24  1  0  0  0  0
 21 20  1  0  0  0  0
 21 25  1  0  0  0  0
 22 21  1  0  0  0  0
 23 22  2  0  0  0  0
 23 19  1  0  0  0  0
 27 28  1  0  0  0  0
 27 26  1  0  0  0  0
 28 22  1  0  0  0  0
 29 28  2  0  0  0  0
 30 29  1  0  0  0  0
 31 33  2  0  0  0  0
 31 29  1  0  0  0  0
 32 31  1  0  0  0  0
 33 35  1  0  0  0  0
 34 33  1  0  0  0  0
 35 36  1  0  0  0  0
 35 27  2  0  0  0  0
M  END
>  <minimizedAffinity>
-5.86432505

$$$$

 OpenBabel03252503143D

 36 39  0  0  0  0  0  0  0  0999 V2000
   36.7530   27.4990   42.4500 C   0  0  0  0  0  0  0  0  0  0  0  0
   36.4070   27.5910   43.6770 O   0  0  0  0  0  0  0  0  0  0  0  0
   36.9510   25.0780   42.1070 C   0  0  0  0  0  0  0  0  0  0  0  0
   37.5440   26.3630   42.1240 C   0  0  0  0  0  0  0  0  0  0  0  0
   38.8860   26.3960   41.8080 C   0  0  0  0  0  0  0  0  0  0  0  0
   39.5880   25.2870   41.5030 N   0  0  0  0  0  0  0  0  0  0  0  0
   38.9850   24.0690   41.4970 C   0  0  0  0  0  0  0  0  0  0  0  0
   37.6690   23.9710   41.7980 N   0  0  0  0  0  0  0  0  0  0  0  0
   35.8940   24.9540   42.3430 H   0  0  0  0  0  0  0  0  0  0  0  0
   39.5790   23.2000   41.2470 H   0  0  0  0  0  0  0  0  0  0  0  0
   39.5450   27.6330   41.8080 C   0  0  0  0  0  0  0  0  0  0  0  0
   40.0470   28.4440   42.7850 C   0  0  0  0  0  0  0  0  0  0  0  0
   40.6560   29.6070   42.5400 C   0  0  0  0  0  0  0  0  0  0  0  0
   40.7480   29.9490   41.2020 C   0  0  0  0  0  0  0  0  0  0  0  0
   39.9360   28.5470   40.3380 S   0  0  0  0  0  0  0  0  0  0  0  0
   39.9140   28.0640   43.8200 H   0  0  0  0  0  0  0  0  0  0  0  0
   41.0740   30.2900   43.2670 H   0  0  0  0  0  0  0  0  0  0  0  0
   41.1850   30.8210   40.7350 H   0  0  0  0  0  0  0  0  0  0  0  0
   36.3830   28.4830   41.3830 C   0  0  0  0  0  0  0  0  0  0  0  0
   36.4600   29.8480   41.4520 C   0  0  0  0  0  0  0  0  0  0  0  0
   36.0330   30.2790   40.2580 N   0  0  0  0  0  0  0  0  0  0  0  0
   35.7020   29.2360   39.4740 C   0  0  0  0  0  0  0  0  0  0  0  0
   35.9250   28.1290   40.1890 N   0  0  0  0  0  0  0  0  0  0  0  0
   36.8020   30.4110   42.3120 H   0  0  0  0  0  0  0  0  0  0  0  0
   35.9820   31.2800   40.0180 H   0  0  0  0  0  0  0  0  0  0  0  0
   37.6420   29.6260   37.0480 Cl  0  0  0  0  0  0  0  0  0  0  0  0
   35.9390   29.3050   36.9750 C   0  0  0  0  0  0  0  0  0  0  0  0
   35.1950   29.1530   38.1170 C   0  0  0  0  0  0  0  0  0  0  0  0
   33.8670   28.9040   37.8600 C   0  0  0  0  0  0  0  0  0  0  0  0
   33.1640   28.7620   38.6980 H   0  0  0  0  0  0  0  0  0  0  0  0
   33.3170   28.8130   36.6050 C   0  0  0  0  0  0  0  0  0  0  0  0
   32.2720   28.6160   36.4860 H   0  0  0  0  0  0  0  0  0  0  0  0
   34.1010   28.9730   35.4890 C   0  0  0  0  0  0  0  0  0  0  0  0
   33.6250   28.8930   34.5240 H   0  0  0  0  0  0  0  0  0  0  0  0
   35.4390   29.2240   35.6960 C   0  0  0  0  0  0  0  0  0  0  0  0
   36.4240   29.4250   34.2660 Cl  0  0  0  0  0  0  0  0  0  0  0  0
  1  2  2  0  0  0  0
  3  4  1  0  0  0  0
  3  9  1  0  0  0  0
  4  1  1  0  0  0  0
  5  4  2  0  0  0  0
  6  5  1  0  0  0  0
  7  6  2  0  0  0  0
  7  8  1  0  0  0  0
  8  3  2  0  0  0  0
 10  7  1  0  0  0  0
 11  5  1  0  0  0  0
 11 12  2  0  0  0  0
 12 16  1  0  0  0  0
 13 12  1  0  0  0  0
 13 17  1  0  0  0  0
 14 13  2  0  0  0  0
 15 14  1  0  0  0  0
 15 11  1  0  0  0  0
 18 14  1  0  0  0  0
 19 20  2  0  0  0  0
 19  1  1  0  0  0  0
 20 24  1  0  0  0  0
 21 20  1  0  0  0  0
 22 23  2  0  0  0  0
 22 21  1  0  0  0  0
 23 19  1  0  0  0  0
 25 21  1  0  0  0  0
 27 26  1  0  0  0  0
 27 28  1  0  0  0  0
 28 22  1  0  0  0  0
 29 28  2  0  0  0  0
 29 30  1  0  0  0  0
 31 29  1  0  0  0  0
 32 31  1  0  0  0  0
 33 35  1  0  0  0  0
 33 31  2  0  0  0  0
 34 33  1  0  0  0  0
 35 27  2  0  0  0  0
 36 35  1  0  0  0  0
M  END
>  <minimizedAffinity>
-5.79116869

$$$$

 OpenBabel03252503143D

 36 39  0  0  0  0  0  0  0  0999 V2000
   37.9290   31.5590   40.0690 C   0  0  0  0  0  0  0  0  0  0  0  0
   36.9210   32.2760   40.3890 O   0  0  0  0  0  0  0  0  0  0  0  0
   39.0820   30.5630   41.9930 C   0  0  0  0  0  0  0  0  0  0  0  0
   38.1740   30.4410   40.9140 C   0  0  0  0  0  0  0  0  0  0  0  0
   37.5860   29.2010   40.7790 C   0  0  0  0  0  0  0  0  0  0  0  0
   37.8520   28.1750   41.6110 N   0  0  0  0  0  0  0  0  0  0  0  0
   38.7310   28.3290   42.6360 C   0  0  0  0  0  0  0  0  0  0  0  0
   39.3410   29.5240   42.8220 N   0  0  0  0  0  0  0  0  0  0  0  0
   39.5950   31.5070   42.1780 H   0  0  0  0  0  0  0  0  0  0  0  0
   38.9210   27.4850   43.2860 H   0  0  0  0  0  0  0  0  0  0  0  0
   36.6770   29.0000   39.7300 C   0  0  0  0  0  0  0  0  0  0  0  0
   35.3320   29.1770   39.5890 C   0  0  0  0  0  0  0  0  0  0  0  0
   34.6650   28.9160   38.4610 C   0  0  0  0  0  0  0  0  0  0  0  0
   35.4410   28.4410   37.4190 C   0  0  0  0  0  0  0  0  0  0  0  0
   37.1360   28.3920   38.1270 S   0  0  0  0  0  0  0  0  0  0  0  0
   34.8160   29.5630   40.4940 H   0  0  0  0  0  0  0  0  0  0  0  0
   33.6040   29.0360   38.2890 H   0  0  0  0  0  0  0  0  0  0  0  0
   35.1600   28.1560   36.4150 H   0  0  0  0  0  0  0  0  0  0  0  0
   38.8280   31.8220   38.9000 C   0  0  0  0  0  0  0  0  0  0  0  0
   38.4690   31.9120   37.5830 C   0  0  0  0  0  0  0  0  0  0  0  0
   39.6110   32.1670   36.9310 N   0  0  0  0  0  0  0  0  0  0  0  0
   40.6400   32.2350   37.7950 C   0  0  0  0  0  0  0  0  0  0  0  0
   40.1360   32.0170   39.0140 N   0  0  0  0  0  0  0  0  0  0  0  0
   37.4630   31.7940   37.2010 H   0  0  0  0  0  0  0  0  0  0  0  0
   39.6480   32.2870   35.9080 H   0  0  0  0  0  0  0  0  0  0  0  0
   42.4400   30.0920   36.3900 Cl  0  0  0  0  0  0  0  0  0  0  0  0
   42.9490   31.6270   37.0170 C   0  0  0  0  0  0  0  0  0  0  0  0
   42.0580   32.4820   37.6130 C   0  0  0  0  0  0  0  0  0  0  0  0
   42.6450   33.6480   38.0460 C   0  0  0  0  0  0  0  0  0  0  0  0
   42.0310   34.4180   38.5430 H   0  0  0  0  0  0  0  0  0  0  0  0
   43.9780   33.9510   37.9090 C   0  0  0  0  0  0  0  0  0  0  0  0
   44.3600   34.8820   38.2730 H   0  0  0  0  0  0  0  0  0  0  0  0
   44.8340   33.0630   37.3050 C   0  0  0  0  0  0  0  0  0  0  0  0
   45.8720   33.3440   37.2210 H   0  0  0  0  0  0  0  0  0  0  0  0
   44.2910   31.8810   36.8540 C   0  0  0  0  0  0  0  0  0  0  0  0
   45.3930   30.7610   36.0880 Cl  0  0  0  0  0  0  0  0  0  0  0  0
  1  2  2  0  0  0  0
  1  4  1  0  0  0  0
  3  9  1  0  0  0  0
  3  8  1  0  0  0  0
  4  3  2  0  0  0  0
  5  4  1  0  0  0  0
  5  6  2  0  0  0  0
  6  7  1  0  0  0  0
  7  8  2  0  0  0  0
  7 10  1  0  0  0  0
 11  5  1  0  0  0  0
 12 11  2  0  0  0  0
 12 16  1  0  0  0  0
 13 12  1  0  0  0  0
 14 15  1  0  0  0  0
 14 13  2  0  0  0  0
 15 11  1  0  0  0  0
 17 13  1  0  0  0  0
 18 14  1  0  0  0  0
 19 23  1  0  0  0  0
 19  1  1  0  0  0  0
 20 19  2  0  0  0  0
 21 20  1  0  0  0  0
 21 22  1  0  0  0  0
 22 23  2  0  0  0  0
 24 20  1  0  0  0  0
 25 21  1  0  0  0  0
 26 27  1  0  0  0  0
 27 28  1  0  0  0  0
 28 22  1  0  0  0  0
 28 29  2  0  0  0  0
 29 30  1  0  0  0  0
 31 29  1  0  0  0  0
 31 32  1  0  0  0  0
 33 31  2  0  0  0  0
 34 33  1  0  0  0  0
 35 27  2  0  0  0  0
 35 33  1  0  0  0  0
 36 35  1  0  0  0  0
M  END
>  <minimizedAffinity>
-5.64850473

$$$$

 OpenBabel03252503143D

 36 39  0  0  0  0  0  0  0  0999 V2000
   38.4880   31.8770   40.5960 C   0  0  0  0  0  0  0  0  0  0  0  0
   37.3910   32.5320   40.6120 O   0  0  0  0  0  0  0  0  0  0  0  0
   40.4010   33.3860   40.3110 C   0  0  0  0  0  0  0  0  0  0  0  0
   39.5120   32.4240   39.7760 C   0  0  0  0  0  0  0  0  0  0  0  0
   39.7320   32.0910   38.4550 C   0  0  0  0  0  0  0  0  0  0  0  0
   40.7220   32.6390   37.7230 N   0  0  0  0  0  0  0  0  0  0  0  0
   41.5570   33.5610   38.2710 C   0  0  0  0  0  0  0  0  0  0  0  0
   41.3920   33.9290   39.5640 N   0  0  0  0  0  0  0  0  0  0  0  0
   40.3040   33.7110   41.3470 H   0  0  0  0  0  0  0  0  0  0  0  0
   42.3410   33.9800   37.6550 H   0  0  0  0  0  0  0  0  0  0  0  0
   38.8890   31.1470   37.8510 C   0  0  0  0  0  0  0  0  0  0  0  0
   37.6410   31.2000   37.3020 C   0  0  0  0  0  0  0  0  0  0  0  0
   37.0230   30.1440   36.7660 C   0  0  0  0  0  0  0  0  0  0  0  0
   37.7440   28.9630   36.8040 C   0  0  0  0  0  0  0  0  0  0  0  0
   39.3150   29.4390   37.6280 S   0  0  0  0  0  0  0  0  0  0  0  0
   37.1620   32.2010   37.3300 H   0  0  0  0  0  0  0  0  0  0  0  0
   36.0400   30.1230   36.3170 H   0  0  0  0  0  0  0  0  0  0  0  0
   37.4840   27.9770   36.4470 H   0  0  0  0  0  0  0  0  0  0  0  0
   38.7400   30.6160   41.3650 C   0  0  0  0  0  0  0  0  0  0  0  0
   39.4660   30.4800   42.5170 C   0  0  0  0  0  0  0  0  0  0  0  0
   39.3910   29.1760   42.8200 N   0  0  0  0  0  0  0  0  0  0  0  0
   38.6540   28.5240   41.9030 C   0  0  0  0  0  0  0  0  0  0  0  0
   38.2580   29.4330   41.0070 N   0  0  0  0  0  0  0  0  0  0  0  0
   39.9730   31.2850   43.0340 H   0  0  0  0  0  0  0  0  0  0  0  0
   39.8510   28.7750   43.6500 H   0  0  0  0  0  0  0  0  0  0  0  0
   40.2450   26.6420   39.9720 Cl  0  0  0  0  0  0  0  0  0  0  0  0
   38.8840   26.2100   40.9550 C   0  0  0  0  0  0  0  0  0  0  0  0
   38.2710   27.1310   41.7650 C   0  0  0  0  0  0  0  0  0  0  0  0
   37.2120   26.6040   42.4680 C   0  0  0  0  0  0  0  0  0  0  0  0
   36.6370   27.2470   43.1550 H   0  0  0  0  0  0  0  0  0  0  0  0
   36.7920   25.3000   42.3880 C   0  0  0  0  0  0  0  0  0  0  0  0
   35.9580   24.9640   42.9680 H   0  0  0  0  0  0  0  0  0  0  0  0
   37.4360   24.4110   41.5620 C   0  0  0  0  0  0  0  0  0  0  0  0
   37.0700   23.3960   41.5320 H   0  0  0  0  0  0  0  0  0  0  0  0
   38.5040   24.8930   40.8380 C   0  0  0  0  0  0  0  0  0  0  0  0
   39.3140   23.7500   39.7920 Cl  0  0  0  0  0  0  0  0  0  0  0  0
  1  2  2  0  0  0  0
  1 19  1  0  0  0  0
  3  9  1  0  0  0  0
  4  3  1  0  0  0  0
  4  1  1  0  0  0  0
  5  4  2  0  0  0  0
  6  7  2  0  0  0  0
  6  5  1  0  0  0  0
  7  8  1  0  0  0  0
  8  3  2  0  0  0  0
 10  7  1  0  0  0  0
 11  5  1  0  0  0  0
 12 16  1  0  0  0  0
 12 11  2  0  0  0  0
 13 14  2  0  0  0  0
 13 12  1  0  0  0  0
 14 15  1  0  0  0  0
 15 11  1  0  0  0  0
 17 13  1  0  0  0  0
 18 14  1  0  0  0  0
 19 20  2  0  0  0  0
 20 21  1  0  0  0  0
 20 24  1  0  0  0  0
 21 25  1  0  0  0  0
 22 21  1  0  0  0  0
 23 19  1  0  0  0  0
 23 22  2  0  0  0  0
 26 27  1  0  0  0  0
 27 28  1  0  0  0  0
 28 22  1  0  0  0  0
 28 29  2  0  0  0  0
 29 30  1  0  0  0  0
 31 29  1  0  0  0  0
 31 32  1  0  0  0  0
 33 31  2  0  0  0  0
 34 33  1  0  0  0  0
 35 27  2  0  0  0  0
 35 33  1  0  0  0  0
 36 35  1  0  0  0  0
M  END
>  <minimizedAffinity>
-5.63996506

$$$$

 OpenBabel03252503143D

 36 39  0  0  0  0  0  0  0  0999 V2000
   37.4900   30.7810   38.6520 C   0  0  0  0  0  0  0  0  0  0  0  0
   37.4260   30.7830   37.3760 O   0  0  0  0  0  0  0  0  0  0  0  0
   37.3950   33.0660   39.5390 C   0  0  0  0  0  0  0  0  0  0  0  0
   38.1420   31.9040   39.2320 C   0  0  0  0  0  0  0  0  0  0  0  0
   39.4860   31.9720   39.5360 C   0  0  0  0  0  0  0  0  0  0  0  0
   40.0530   33.0630   40.0890 N   0  0  0  0  0  0  0  0  0  0  0  0
   39.3030   34.1610   40.3700 C   0  0  0  0  0  0  0  0  0  0  0  0
   37.9770   34.1570   40.0950 N   0  0  0  0  0  0  0  0  0  0  0  0
   36.3250   33.1060   39.3330 H   0  0  0  0  0  0  0  0  0  0  0  0
   39.7900   35.0190   40.8130 H   0  0  0  0  0  0  0  0  0  0  0  0
   40.2940   30.8600   39.2560 C   0  0  0  0  0  0  0  0  0  0  0  0
   40.6770   29.7600   39.9660 C   0  0  0  0  0  0  0  0  0  0  0  0
   41.4710   28.8030   39.4760 C   0  0  0  0  0  0  0  0  0  0  0  0
   41.8910   29.0020   38.1720 C   0  0  0  0  0  0  0  0  0  0  0  0
   41.1050   30.5940   37.7010 S   0  0  0  0  0  0  0  0  0  0  0  0
   40.2780   29.7100   41.0010 H   0  0  0  0  0  0  0  0  0  0  0  0
   41.8080   27.9120   39.9860 H   0  0  0  0  0  0  0  0  0  0  0  0
   42.5270   28.3930   37.5460 H   0  0  0  0  0  0  0  0  0  0  0  0
   36.9380   29.7020   39.5320 C   0  0  0  0  0  0  0  0  0  0  0  0
   35.8080   29.7590   40.3020 C   0  0  0  0  0  0  0  0  0  0  0  0
   35.7300   28.5570   40.8900 N   0  0  0  0  0  0  0  0  0  0  0  0
   36.7610   27.7810   40.5090 C   0  0  0  0  0  0  0  0  0  0  0  0
   37.5020   28.5080   39.6670 N   0  0  0  0  0  0  0  0  0  0  0  0
   35.1510   30.6160   40.3840 H   0  0  0  0  0  0  0  0  0  0  0  0
   34.9670   28.3080   41.5370 H   0  0  0  0  0  0  0  0  0  0  0  0
   38.9300   27.2530   42.7050 Cl  0  0  0  0  0  0  0  0  0  0  0  0
   38.0720   26.0600   41.7830 C   0  0  0  0  0  0  0  0  0  0  0  0
   37.1400   26.4220   40.8450 C   0  0  0  0  0  0  0  0  0  0  0  0
   36.5660   25.3400   40.2180 C   0  0  0  0  0  0  0  0  0  0  0  0
   35.7990   25.5010   39.4420 H   0  0  0  0  0  0  0  0  0  0  0  0
   36.8740   24.0280   40.4810 C   0  0  0  0  0  0  0  0  0  0  0  0
   36.3820   23.2400   39.9500 H   0  0  0  0  0  0  0  0  0  0  0  0
   37.8170   23.7130   41.4300 C   0  0  0  0  0  0  0  0  0  0  0  0
   38.0250   22.6680   41.6030 H   0  0  0  0  0  0  0  0  0  0  0  0
   38.4180   24.7630   42.0860 C   0  0  0  0  0  0  0  0  0  0  0  0
   39.6150   24.3460   43.2900 Cl  0  0  0  0  0  0  0  0  0  0  0  0
  1  4  1  0  0  0  0
  1 19  1  0  0  0  0
  2  1  2  0  0  0  0
  3  8  1  0  0  0  0
  4  5  1  0  0  0  0
  4  3  2  0  0  0  0
  5  6  2  0  0  0  0
  6  7  1  0  0  0  0
  7 10  1  0  0  0  0
  8  7  2  0  0  0  0
  9  3  1  0  0  0  0
 11  5  1  0  0  0  0
 11 12  2  0  0  0  0
 12 16  1  0  0  0  0
 13 12  1  0  0  0  0
 13 17  1  0  0  0  0
 14 13  2  0  0  0  0
 15 14  1  0  0  0  0
 15 11  1  0  0  0  0
 18 14  1  0  0  0  0
 19 23  1  0  0  0  0
 19 20  2  0  0  0  0
 20 24  1  0  0  0  0
 20 21  1  0  0  0  0
 21 25  1  0  0  0  0
 22 28  1  0  0  0  0
 22 21  1  0  0  0  0
 23 22  2  0  0  0  0
 27 35  1  0  0  0  0
 27 26  1  0  0  0  0
 28 27  2  0  0  0  0
 29 31  2  0  0  0  0
 29 28  1  0  0  0  0
 30 29  1  0  0  0  0
 31 33  1  0  0  0  0
 32 31  1  0  0  0  0
 33 34  1  0  0  0  0
 33 35  2  0  0  0  0
 35 36  1  0  0  0  0
M  END
>  <minimizedAffinity>
-5.63480568

$$$$

 OpenBabel03252503143D

 36 39  0  0  0  0  0  0  0  0999 V2000
   40.0540   33.0040   40.1180 C   0  0  0  0  0  0  0  0  0  0  0  0
   40.3150   34.1600   40.5970 O   0  0  0  0  0  0  0  0  0  0  0  0
   40.8080   32.6480   37.8110 C   0  0  0  0  0  0  0  0  0  0  0  0
   41.0150   32.4930   39.2030 C   0  0  0  0  0  0  0  0  0  0  0  0
   42.1750   31.8370   39.5550 C   0  0  0  0  0  0  0  0  0  0  0  0
   43.0550   31.3740   38.6440 N   0  0  0  0  0  0  0  0  0  0  0  0
   42.8220   31.5420   37.3150 C   0  0  0  0  0  0  0  0  0  0  0  0
   41.7000   32.1790   36.9050 N   0  0  0  0  0  0  0  0  0  0  0  0
   39.9180   33.1550   37.4380 H   0  0  0  0  0  0  0  0  0  0  0  0
   43.5490   31.1590   36.6110 H   0  0  0  0  0  0  0  0  0  0  0  0
   42.4480   31.6390   40.9160 C   0  0  0  0  0  0  0  0  0  0  0  0
   42.1430   30.6600   41.8150 C   0  0  0  0  0  0  0  0  0  0  0  0
   42.5260   30.6850   43.0950 C   0  0  0  0  0  0  0  0  0  0  0  0
   43.2710   31.7930   43.4610 C   0  0  0  0  0  0  0  0  0  0  0  0
   43.3870   32.7700   41.9100 S   0  0  0  0  0  0  0  0  0  0  0  0
   41.5410   29.8220   41.4050 H   0  0  0  0  0  0  0  0  0  0  0  0
   42.3170   29.9420   43.8520 H   0  0  0  0  0  0  0  0  0  0  0  0
   43.7000   32.0580   44.4170 H   0  0  0  0  0  0  0  0  0  0  0  0
   38.8410   32.1930   40.4580 C   0  0  0  0  0  0  0  0  0  0  0  0
   37.5320   32.5680   40.3270 C   0  0  0  0  0  0  0  0  0  0  0  0
   36.8260   31.5090   40.7470 N   0  0  0  0  0  0  0  0  0  0  0  0
   37.6510   30.5150   41.1240 C   0  0  0  0  0  0  0  0  0  0  0  0
   38.8990   30.9580   40.9390 N   0  0  0  0  0  0  0  0  0  0  0  0
   37.1910   33.5270   39.9570 H   0  0  0  0  0  0  0  0  0  0  0  0
   35.7960   31.5020   40.7610 H   0  0  0  0  0  0  0  0  0  0  0  0
   37.2120   28.1190   39.1570 Cl  0  0  0  0  0  0  0  0  0  0  0  0
   37.1990   28.0570   40.8900 C   0  0  0  0  0  0  0  0  0  0  0  0
   37.4070   29.1830   41.6440 C   0  0  0  0  0  0  0  0  0  0  0  0
   37.3610   28.9370   42.9970 C   0  0  0  0  0  0  0  0  0  0  0  0
   37.5130   29.7650   43.7090 H   0  0  0  0  0  0  0  0  0  0  0  0
   37.1330   27.7060   43.5600 C   0  0  0  0  0  0  0  0  0  0  0  0
   37.1130   27.5940   44.6240 H   0  0  0  0  0  0  0  0  0  0  0  0
   36.9290   26.6040   42.7650 C   0  0  0  0  0  0  0  0  0  0  0  0
   36.7550   25.6580   43.2530 H   0  0  0  0  0  0  0  0  0  0  0  0
   36.9670   26.8010   41.4030 C   0  0  0  0  0  0  0  0  0  0  0  0
   36.7070   25.3900   40.4050 Cl  0  0  0  0  0  0  0  0  0  0  0  0
  1 19  1  0  0  0  0
  1  2  2  0  0  0  0
  3  4  1  0  0  0  0
  4  5  2  0  0  0  0
  4  1  1  0  0  0  0
  5 11  1  0  0  0  0
  6  5  1  0  0  0  0
  7  6  2  0  0  0  0
  8  7  1  0  0  0  0
  8  3  2  0  0  0  0
  9  3  1  0  0  0  0
 10  7  1  0  0  0  0
 11 12  2  0  0  0  0
 11 15  1  0  0  0  0
 12 13  1  0  0  0  0
 13 14  2  0  0  0  0
 13 17  1  0  0  0  0
 14 18  1  0  0  0  0
 15 14  1  0  0  0  0
 16 12  1  0  0  0  0
 19 23  1  0  0  0  0
 20 19  2  0  0  0  0
 20 21  1  0  0  0  0
 21 25  1  0  0  0  0
 21 22  1  0  0  0  0
 22 28  1  0  0  0  0
 23 22  2  0  0  0  0
 24 20  1  0  0  0  0
 26 27  1  0  0  0  0
 27 35  2  0  0  0  0
 27 28  1  0  0  0  0
 28 29  2  0  0  0  0
 29 31  1  0  0  0  0
 29 30  1  0  0  0  0
 31 32  1  0  0  0  0
 33 34  1  0  0  0  0
 33 31  2  0  0  0  0
 35 33  1  0  0  0  0
 36 35  1  0  0  0  0
M  END
>  <minimizedAffinity>
-5.61526442

$$$$

 OpenBabel03252503143D

 36 39  0  0  0  0  0  0  0  0999 V2000
   37.7410   25.9750   41.8480 C   0  0  0  0  0  0  0  0  0  0  0  0
   36.9980   25.0280   42.2760 O   0  0  0  0  0  0  0  0  0  0  0  0
   40.1310   25.4730   41.6130 C   0  0  0  0  0  0  0  0  0  0  0  0
   38.8400   25.5700   41.0410 C   0  0  0  0  0  0  0  0  0  0  0  0
   38.7650   25.2480   39.7020 C   0  0  0  0  0  0  0  0  0  0  0  0
   39.8390   24.8670   38.9840 N   0  0  0  0  0  0  0  0  0  0  0  0
   41.0640   24.7850   39.5670 C   0  0  0  0  0  0  0  0  0  0  0  0
   41.2040   25.0880   40.8790 N   0  0  0  0  0  0  0  0  0  0  0  0
   40.2890   25.7080   42.6660 H   0  0  0  0  0  0  0  0  0  0  0  0
   41.9060   24.4760   38.9610 H   0  0  0  0  0  0  0  0  0  0  0  0
   37.5190   25.3250   39.0630 C   0  0  0  0  0  0  0  0  0  0  0  0
   36.8100   26.3340   38.4790 C   0  0  0  0  0  0  0  0  0  0  0  0
   35.6110   26.1640   37.9130 C   0  0  0  0  0  0  0  0  0  0  0  0
   35.1210   24.8710   37.9570 C   0  0  0  0  0  0  0  0  0  0  0  0
   36.4390   23.9360   38.8310 S   0  0  0  0  0  0  0  0  0  0  0  0
   37.3050   27.3270   38.5050 H   0  0  0  0  0  0  0  0  0  0  0  0
   35.0040   26.9210   37.4360 H   0  0  0  0  0  0  0  0  0  0  0  0
   34.1930   24.4650   37.5800 H   0  0  0  0  0  0  0  0  0  0  0  0
   37.5250   27.4280   42.1400 C   0  0  0  0  0  0  0  0  0  0  0  0
   36.9920   27.9740   43.2760 C   0  0  0  0  0  0  0  0  0  0  0  0
   37.0160   29.2970   43.0670 N   0  0  0  0  0  0  0  0  0  0  0  0
   37.5380   29.5720   41.8570 C   0  0  0  0  0  0  0  0  0  0  0  0
   37.8480   28.3990   41.2950 N   0  0  0  0  0  0  0  0  0  0  0  0
   36.6420   27.4130   44.1330 H   0  0  0  0  0  0  0  0  0  0  0  0
   36.6710   29.9730   43.7650 H   0  0  0  0  0  0  0  0  0  0  0  0
   40.2650   31.0640   42.2230 Cl  0  0  0  0  0  0  0  0  0  0  0  0
   38.9320   31.5650   41.2340 C   0  0  0  0  0  0  0  0  0  0  0  0
   37.7840   30.8180   41.1570 C   0  0  0  0  0  0  0  0  0  0  0  0
   36.8410   31.3730   40.3240 C   0  0  0  0  0  0  0  0  0  0  0  0
   35.8730   30.8650   40.1780 H   0  0  0  0  0  0  0  0  0  0  0  0
   37.0030   32.5470   39.6310 C   0  0  0  0  0  0  0  0  0  0  0  0
   36.2200   32.9140   39.0000 H   0  0  0  0  0  0  0  0  0  0  0  0
   38.1700   33.2630   39.7380 C   0  0  0  0  0  0  0  0  0  0  0  0
   38.2520   34.1790   39.1750 H   0  0  0  0  0  0  0  0  0  0  0  0
   39.1450   32.7460   40.5610 C   0  0  0  0  0  0  0  0  0  0  0  0
   40.6260   33.6670   40.6880 Cl  0  0  0  0  0  0  0  0  0  0  0  0
  1 19  1  0  0  0  0
  1  2  2  0  0  0  0
  3  9  1  0  0  0  0
  4  3  1  0  0  0  0
  4  1  1  0  0  0  0
  5  4  2  0  0  0  0
  6  7  2  0  0  0  0
  6  5  1  0  0  0  0
  7  8  1  0  0  0  0
  8  3  2  0  0  0  0
 10  7  1  0  0  0  0
 11  5  1  0  0  0  0
 12 16  1  0  0  0  0
 12 11  2  0  0  0  0
 13 14  2  0  0  0  0
 13 12  1  0  0  0  0
 14 15  1  0  0  0  0
 15 11  1  0  0  0  0
 17 13  1  0  0  0  0
 18 14  1  0  0  0  0
 19 20  2  0  0  0  0
 20 24  1  0  0  0  0
 21 20  1  0  0  0  0
 21 25  1  0  0  0  0
 22 21  1  0  0  0  0
 23 22  2  0  0  0  0
 23 19  1  0  0  0  0
 27 26  1  0  0  0  0
 28 27  1  0  0  0  0
 28 22  1  0  0  0  0
 29 28  2  0  0  0  0
 30 29  1  0  0  0  0
 31 33  2  0  0  0  0
 31 29  1  0  0  0  0
 32 31  1  0  0  0  0
 33 35  1  0  0  0  0
 34 33  1  0  0  0  0
 35 36  1  0  0  0  0
 35 27  2  0  0  0  0
M  END
>  <minimizedAffinity>
-5.60993767

$$$$
