
 OpenBabel03252506533D

 33 36  0  0  0  0  0  0  0  0999 V2000
   47.0200   31.2530   45.0880 C   0  0  0  0  0  0  0  0  0  0  0  0
   46.8260   32.6290   45.1150 C   0  0  0  0  0  0  0  0  0  0  0  0
   46.3190   33.2990   46.2280 C   0  0  0  0  0  0  0  0  0  0  0  0
   45.9900   32.5670   47.3670 C   0  0  0  0  0  0  0  0  0  0  0  0
   45.4870   32.8700   48.6000 N   0  0  0  0  0  0  0  0  0  0  0  0
   45.3740   31.7180   49.3130 C   0  0  0  0  0  0  0  0  0  0  0  0
   45.8120   30.7090   48.5030 N   0  0  0  0  0  0  0  0  0  0  0  0
   46.1890   31.2100   47.3180 C   0  0  0  0  0  0  0  0  0  0  0  0
   46.6850   30.5290   46.2380 C   0  0  0  0  0  0  0  0  0  0  0  0
   47.4160   30.7930   44.1960 H   0  0  0  0  0  0  0  0  0  0  0  0
   46.1720   34.3690   46.2380 H   0  0  0  0  0  0  0  0  0  0  0  0
   45.2410   33.8340   48.9150 H   0  0  0  0  0  0  0  0  0  0  0  0
   45.0100   31.6320   50.3130 H   0  0  0  0  0  0  0  0  0  0  0  0
   49.2590   29.7280   47.4400 Cl  0  0  0  0  0  0  0  0  0  0  0  0
   48.0750   28.6110   46.7470 C   0  0  0  0  0  0  0  0  0  0  0  0
   46.8910   29.0830   46.2050 C   0  0  0  0  0  0  0  0  0  0  0  0
   45.9800   28.1970   45.6690 C   0  0  0  0  0  0  0  0  0  0  0  0
   45.0580   28.5740   45.2480 H   0  0  0  0  0  0  0  0  0  0  0  0
   46.3000   26.8630   45.7030 C   0  0  0  0  0  0  0  0  0  0  0  0
   45.5540   26.1810   45.2690 H   0  0  0  0  0  0  0  0  0  0  0  0
   47.4650   26.3430   46.2320 C   0  0  0  0  0  0  0  0  0  0  0  0
   47.5860   25.2620   46.1900 H   0  0  0  0  0  0  0  0  0  0  0  0
   48.3490   27.2720   46.7580 C   0  0  0  0  0  0  0  0  0  0  0  0
   49.8370   26.6240   47.4360 Cl  0  0  0  0  0  0  0  0  0  0  0  0
   46.6470   35.1390   42.4370 C   0  0  0  0  0  0  0  0  0  0  0  0
   47.8310   34.9050   41.7260 C   0  0  0  0  0  0  0  0  0  0  0  0
   48.6840   33.8850   42.1700 C   0  0  0  0  0  0  0  0  0  0  0  0
   48.3120   33.1720   43.2790 N   0  0  0  0  0  0  0  0  0  0  0  0
   47.1580   33.4240   43.9460 C   0  0  0  0  0  0  0  0  0  0  0  0
   46.3490   34.3940   43.5210 N   0  0  0  0  0  0  0  0  0  0  0  0
   45.9350   35.9030   42.1620 H   0  0  0  0  0  0  0  0  0  0  0  0
   48.0570   35.5060   40.8620 H   0  0  0  0  0  0  0  0  0  0  0  0
   49.6050   33.6770   41.6460 H   0  0  0  0  0  0  0  0  0  0  0  0
  1  2  2  0  0  0  0
  1  9  1  0  0  0  0
  2  3  1  0  0  0  0
  3 11  1  0  0  0  0
  3  4  2  0  0  0  0
  4  5  1  0  0  0  0
  5 12  1  0  0  0  0
  5  6  1  0  0  0  0
  6 13  1  0  0  0  0
  7  6  2  0  0  0  0
  8  4  1  0  0  0  0
  8  7  1  0  0  0  0
  9  8  2  0  0  0  0
 10  1  1  0  0  0  0
 15 23  1  0  0  0  0
 15 14  1  0  0  0  0
 16  9  1  0  0  0  0
 16 15  2  0  0  0  0
 17 19  2  0  0  0  0
 17 16  1  0  0  0  0
 18 17  1  0  0  0  0
 19 21  1  0  0  0  0
 20 19  1  0  0  0  0
 21 23  2  0  0  0  0
 22 21  1  0  0  0  0
 23 24  1  0  0  0  0
 25 30  1  0  0  0  0
 26 27  1  0  0  0  0
 26 25  2  0  0  0  0
 27 28  2  0  0  0  0
 28 29  1  0  0  0  0
 29  2  1  0  0  0  0
 30 29  2  0  0  0  0
 31 25  1  0  0  0  0
 32 26  1  0  0  0  0
 33 27  1  0  0  0  0
M  END
>  <minimizedAffinity>
-5.36375856

>  <minimizedRMSD>
1.25833082

$$$$
