
 OpenBabel03242511103D

 45 49  0  0  1  0  0  0  0  0999 V2000
   37.2000   28.9470   41.3030 C   0  0  0  0  0  0  0  0  0  0  0  0
   37.8170   29.3590   42.4740 C   0  0  0  0  0  0  0  0  0  0  0  0
   38.2810   28.4750   43.4460 C   0  0  0  0  0  0  0  0  0  0  0  0
   38.1320   27.1100   43.2560 C   0  0  0  0  0  0  0  0  0  0  0  0
   37.5350   26.6720   42.1230 C   0  0  0  0  0  0  0  0  0  0  0  0
   37.3950   25.3220   41.8980 C   0  0  0  0  0  0  0  0  0  0  0  0
   36.8180   24.8120   40.7530 C   0  0  0  0  0  0  0  0  0  0  0  0
   36.3710   25.7340   39.8130 C   0  0  0  0  0  0  0  0  0  0  0  0
   36.5160   27.0890   40.0520 C   0  0  0  0  0  0  0  0  0  0  0  0
   37.0880   27.5890   41.1820 C   0  0  0  0  0  0  0  0  0  0  0  0
   38.0190   30.3780   42.7600 H   0  0  0  0  0  0  0  0  0  0  0  0
   38.7640   28.7690   44.3670 H   0  0  0  0  0  0  0  0  0  0  0  0
   38.4790   26.4060   43.9860 H   0  0  0  0  0  0  0  0  0  0  0  0
   37.7610   24.6530   42.6650 H   0  0  0  0  0  0  0  0  0  0  0  0
   36.7640   23.7250   40.6910 H   0  0  0  0  0  0  0  0  0  0  0  0
   35.9370   25.2220   38.9580 H   0  0  0  0  0  0  0  0  0  0  0  0
   38.4520   27.1850   37.8500 Cl  0  0  0  0  0  0  0  0  0  0  0  0
   36.8000   27.8340   37.8410 C   0  0  0  0  0  0  0  0  0  0  0  0
   35.9150   27.7880   38.9330 C   0  0  0  0  0  0  0  0  0  0  0  0
   34.7080   28.4060   38.7040 C   0  0  0  0  0  0  0  0  0  0  0  0
   34.0950   28.3170   39.6060 H   0  0  0  0  0  0  0  0  0  0  0  0
   34.3870   29.0140   37.5230 C   0  0  0  0  0  0  0  0  0  0  0  0
   33.3940   29.4390   37.5470 H   0  0  0  0  0  0  0  0  0  0  0  0
   35.2680   29.0480   36.4640 C   0  0  0  0  0  0  0  0  0  0  0  0
   34.8720   29.5590   35.6060 H   0  0  0  0  0  0  0  0  0  0  0  0
   36.5070   28.4380   36.6370 C   0  0  0  0  0  0  0  0  0  0  0  0
   37.5530   28.5250   35.2580 Cl  0  0  0  0  0  0  0  0  0  0  0  0
   36.7730   29.9240   40.3950 N   0  0  0  0  0  0  0  0  0  0  0  0
   35.7730   29.7400   40.5890 H   0  0  0  0  0  0  0  0  0  0  0  0
   37.8860   32.1200   39.8030 C   0  0  1  0  0  0  0  0  0  0  0  0
   37.1330   31.6490   38.5800 C   0  0  0  0  0  0  0  0  0  0  0  0
   37.7010   30.6910   39.6150 C   0  0  2  0  0  0  0  0  0  0  0  0
   37.2740   32.6760   40.5390 H   0  0  0  0  0  0  0  0  0  0  0  0
   36.0430   31.8330   38.5900 H   0  0  0  0  0  0  0  0  0  0  0  0
   37.6620   31.7420   37.5930 H   0  0  0  0  0  0  0  0  0  0  0  0
   38.5730   30.0810   39.2590 H   0  0  0  0  0  0  0  0  0  0  0  0
   40.9130   34.1600   40.4110 C   0  0  0  0  0  0  0  0  0  0  0  0
   41.6530   33.9360   39.2120 C   0  0  0  0  0  0  0  0  0  0  0  0
   41.0950   33.0790   38.2290 C   0  0  0  0  0  0  0  0  0  0  0  0
   39.9060   32.5130   38.4570 N   0  0  0  0  0  0  0  0  0  0  0  0
   39.2300   32.7520   39.6170 C   0  0  0  0  0  0  0  0  0  0  0  0
   39.7230   33.5720   40.6010 N   0  0  0  0  0  0  0  0  0  0  0  0
   41.3790   34.8290   41.1450 H   0  0  0  0  0  0  0  0  0  0  0  0
   42.6030   34.3700   38.9940 H   0  0  0  0  0  0  0  0  0  0  0  0
   41.6580   32.9110   37.3210 H   0  0  0  0  0  0  0  0  0  0  0  0
  1  2  1  0  0  0  0
  2 11  1  0  0  0  0
  2  3  2  0  0  0  0
  3 12  1  0  0  0  0
  4  3  1  0  0  0  0
  4 13  1  0  0  0  0
  5  4  2  0  0  0  0
  6  5  1  0  0  0  0
  6 14  1  0  0  0  0
  7  6  2  0  0  0  0
  8  9  2  0  0  0  0
  8  7  1  0  0  0  0
  9 10  1  0  0  0  0
 10  1  2  0  0  0  0
 10  5  1  0  0  0  0
 15  7  1  0  0  0  0
 16  8  1  0  0  0  0
 18 17  1  0  0  0  0
 18 19  1  0  0  0  0
 19  9  1  0  0  0  0
 20 19  2  0  0  0  0
 20 21  1  0  0  0  0
 22 23  1  0  0  0  0
 22 20  1  0  0  0  0
 24 26  1  0  0  0  0
 24 22  2  0  0  0  0
 25 24  1  0  0  0  0
 26 18  2  0  0  0  0
 27 26  1  0  0  0  0
 28 29  1  0  0  0  0
 28  1  1  0  0  0  0
 30 33  1  1  0  0  0
 31 34  1  0  0  0  0
 31 32  1  0  0  0  0
 31 30  1  0  0  0  0
 32 36  1  6  0  0  0
 32 30  1  0  0  0  0
 32 28  1  0  0  0  0
 35 31  1  0  0  0  0
 37 42  1  0  0  0  0
 37 43  1  0  0  0  0
 38 37  2  0  0  0  0
 39 40  2  0  0  0  0
 39 38  1  0  0  0  0
 40 41  1  0  0  0  0
 41 30  1  0  0  0  0
 41 42  2  0  0  0  0
 44 38  1  0  0  0  0
 45 39  1  0  0  0  0
M  END
>  <minimizedAffinity>
-6.52229309

$$$$

 OpenBabel03242511103D

 45 49  0  0  1  0  0  0  0  0999 V2000
   36.3160   26.5080   39.2460 C   0  0  0  0  0  0  0  0  0  0  0  0
   35.8520   26.3620   37.9480 C   0  0  0  0  0  0  0  0  0  0  0  0
   35.9170   25.1620   37.2420 C   0  0  0  0  0  0  0  0  0  0  0  0
   36.4670   24.0420   37.8470 C   0  0  0  0  0  0  0  0  0  0  0  0
   36.9300   24.1480   39.1140 C   0  0  0  0  0  0  0  0  0  0  0  0
   37.4600   23.0470   39.7460 C   0  0  0  0  0  0  0  0  0  0  0  0
   37.9250   23.0840   41.0450 C   0  0  0  0  0  0  0  0  0  0  0  0
   37.8390   24.3030   41.7060 C   0  0  0  0  0  0  0  0  0  0  0  0
   37.3050   25.4040   41.0600 C   0  0  0  0  0  0  0  0  0  0  0  0
   36.8450   25.3640   39.7780 C   0  0  0  0  0  0  0  0  0  0  0  0
   35.3870   27.1290   37.3510 H   0  0  0  0  0  0  0  0  0  0  0  0
   35.5630   25.0210   36.2310 H   0  0  0  0  0  0  0  0  0  0  0  0
   36.5310   23.1060   37.3300 H   0  0  0  0  0  0  0  0  0  0  0  0
   37.5010   22.1250   39.1810 H   0  0  0  0  0  0  0  0  0  0  0  0
   38.3220   22.1460   41.4350 H   0  0  0  0  0  0  0  0  0  0  0  0
   38.2320   24.2150   42.7160 H   0  0  0  0  0  0  0  0  0  0  0  0
   39.9330   26.6660   40.7380 Cl  0  0  0  0  0  0  0  0  0  0  0  0
   38.6350   27.1790   41.8350 C   0  0  0  0  0  0  0  0  0  0  0  0
   37.3980   26.5250   41.9740 C   0  0  0  0  0  0  0  0  0  0  0  0
   36.5740   27.0770   42.9280 C   0  0  0  0  0  0  0  0  0  0  0  0
   35.6450   26.5010   42.9600 H   0  0  0  0  0  0  0  0  0  0  0  0
   36.9190   28.1660   43.6790 C   0  0  0  0  0  0  0  0  0  0  0  0
   36.1350   28.4420   44.3690 H   0  0  0  0  0  0  0  0  0  0  0  0
   38.1370   28.7930   43.5260 C   0  0  0  0  0  0  0  0  0  0  0  0
   38.2590   29.6330   44.1850 H   0  0  0  0  0  0  0  0  0  0  0  0
   39.0130   28.2790   42.5750 C   0  0  0  0  0  0  0  0  0  0  0  0
   40.5190   29.1270   42.4470 Cl  0  0  0  0  0  0  0  0  0  0  0  0
   36.2000   27.7620   39.8590 N   0  0  0  0  0  0  0  0  0  0  0  0
   35.5040   27.4180   40.5440 H   0  0  0  0  0  0  0  0  0  0  0  0
   36.8850   30.1910   40.0650 C   0  0  1  0  0  0  0  0  0  0  0  0
   36.1390   30.0390   38.7590 C   0  0  0  0  0  0  0  0  0  0  0  0
   36.9300   28.9040   39.3910 C   0  0  2  0  0  0  0  0  0  0  0  0
   36.2400   30.3400   40.9520 H   0  0  0  0  0  0  0  0  0  0  0  0
   35.0370   30.0070   38.8390 H   0  0  0  0  0  0  0  0  0  0  0  0
   36.5760   30.5580   37.8640 H   0  0  0  0  0  0  0  0  0  0  0  0
   37.8650   28.6220   38.8390 H   0  0  0  0  0  0  0  0  0  0  0  0
   39.0530   33.1250   40.6800 C   0  0  0  0  0  0  0  0  0  0  0  0
   40.2820   32.6990   40.0940 C   0  0  0  0  0  0  0  0  0  0  0  0
   40.3350   31.4060   39.5140 C   0  0  0  0  0  0  0  0  0  0  0  0
   39.2430   30.6370   39.5330 N   0  0  0  0  0  0  0  0  0  0  0  0
   38.0870   31.0800   40.1030 C   0  0  0  0  0  0  0  0  0  0  0  0
   37.9790   32.3220   40.6800 N   0  0  0  0  0  0  0  0  0  0  0  0
   39.0530   34.1310   41.1180 H   0  0  0  0  0  0  0  0  0  0  0  0
   41.1740   33.2830   40.0590 H   0  0  0  0  0  0  0  0  0  0  0  0
   41.2690   31.0850   39.0710 H   0  0  0  0  0  0  0  0  0  0  0  0
  1 10  1  0  0  0  0
  1 28  1  0  0  0  0
  2  1  2  0  0  0  0
  3  4  2  0  0  0  0
  3  2  1  0  0  0  0
  4  5  1  0  0  0  0
  5  6  2  0  0  0  0
  5 10  1  0  0  0  0
  6  7  1  0  0  0  0
  7 15  1  0  0  0  0
  7  8  2  0  0  0  0
  8 16  1  0  0  0  0
  9  8  1  0  0  0  0
  9 19  1  0  0  0  0
 10  9  2  0  0  0  0
 11  2  1  0  0  0  0
 12  3  1  0  0  0  0
 13  4  1  0  0  0  0
 14  6  1  0  0  0  0
 17 18  1  0  0  0  0
 18 19  2  0  0  0  0
 18 26  1  0  0  0  0
 19 20  1  0  0  0  0
 20 21  1  0  0  0  0
 20 22  2  0  0  0  0
 22 23  1  0  0  0  0
 24 22  1  0  0  0  0
 24 25  1  0  0  0  0
 26 24  2  0  0  0  0
 27 26  1  0  0  0  0
 28 29  1  0  0  0  0
 30 41  1  0  0  0  0
 30 33  1  1  0  0  0
 31 34  1  0  0  0  0
 31 32  1  0  0  0  0
 31 30  1  0  0  0  0
 32 36  1  6  0  0  0
 32 28  1  0  0  0  0
 32 30  1  0  0  0  0
 35 31  1  0  0  0  0
 37 43  1  0  0  0  0
 38 37  2  0  0  0  0
 39 40  2  0  0  0  0
 39 38  1  0  0  0  0
 40 41  1  0  0  0  0
 41 42  2  0  0  0  0
 42 37  1  0  0  0  0
 44 38  1  0  0  0  0
 45 39  1  0  0  0  0
M  END
>  <minimizedAffinity>
-6.30093002

$$$$

 OpenBabel03242511103D

 45 49  0  0  1  0  0  0  0  0999 V2000
   38.9340   28.0450   42.1770 C   0  0  0  0  0  0  0  0  0  0  0  0
   40.0070   28.0740   43.0540 C   0  0  0  0  0  0  0  0  0  0  0  0
   40.5150   26.9380   43.6800 C   0  0  0  0  0  0  0  0  0  0  0  0
   39.9360   25.7030   43.4290 C   0  0  0  0  0  0  0  0  0  0  0  0
   38.8870   25.6370   42.5770 C   0  0  0  0  0  0  0  0  0  0  0  0
   38.3090   24.4210   42.2910 C   0  0  0  0  0  0  0  0  0  0  0  0
   37.2530   24.2850   41.4130 C   0  0  0  0  0  0  0  0  0  0  0  0
   36.7830   25.4470   40.8140 C   0  0  0  0  0  0  0  0  0  0  0  0
   37.3720   26.6640   41.1100 C   0  0  0  0  0  0  0  0  0  0  0  0
   38.4140   26.7950   41.9760 C   0  0  0  0  0  0  0  0  0  0  0  0
   40.5690   28.9480   43.3380 H   0  0  0  0  0  0  0  0  0  0  0  0
   41.3490   26.9320   44.3670 H   0  0  0  0  0  0  0  0  0  0  0  0
   40.3050   24.8110   43.8950 H   0  0  0  0  0  0  0  0  0  0  0  0
   38.7180   23.5510   42.7880 H   0  0  0  0  0  0  0  0  0  0  0  0
   36.8820   23.2690   41.2700 H   0  0  0  0  0  0  0  0  0  0  0  0
   35.9550   25.2210   40.1460 H   0  0  0  0  0  0  0  0  0  0  0  0
   38.4890   26.8830   38.4070 Cl  0  0  0  0  0  0  0  0  0  0  0  0
   37.1230   27.8030   39.0700 C   0  0  0  0  0  0  0  0  0  0  0  0
   36.6380   27.6820   40.3850 C   0  0  0  0  0  0  0  0  0  0  0  0
   35.6060   28.5410   40.6840 C   0  0  0  0  0  0  0  0  0  0  0  0
   35.3020   28.3700   41.7210 H   0  0  0  0  0  0  0  0  0  0  0  0
   35.0890   29.4350   39.7890 C   0  0  0  0  0  0  0  0  0  0  0  0
   34.2860   30.0150   40.2190 H   0  0  0  0  0  0  0  0  0  0  0  0
   35.5780   29.5380   38.5040 C   0  0  0  0  0  0  0  0  0  0  0  0
   35.0690   30.2840   37.9220 H   0  0  0  0  0  0  0  0  0  0  0  0
   36.6240   28.6940   38.1430 C   0  0  0  0  0  0  0  0  0  0  0  0
   37.1780   28.8870   36.5120 Cl  0  0  0  0  0  0  0  0  0  0  0  0
   38.5070   29.2500   41.6050 N   0  0  0  0  0  0  0  0  0  0  0  0
   37.5230   29.0930   41.8860 H   0  0  0  0  0  0  0  0  0  0  0  0
   39.4270   31.5600   41.1280 C   0  0  1  0  0  0  0  0  0  0  0  0
   38.8360   31.0330   39.8410 C   0  0  0  0  0  0  0  0  0  0  0  0
   39.4110   30.1230   40.9140 C   0  0  2  0  0  0  0  0  0  0  0  0
   38.6990   32.0360   41.8120 H   0  0  0  0  0  0  0  0  0  0  0  0
   37.7350   31.1010   39.7570 H   0  0  0  0  0  0  0  0  0  0  0  0
   39.4350   31.1970   38.9050 H   0  0  0  0  0  0  0  0  0  0  0  0
   40.3700   29.6130   40.6310 H   0  0  0  0  0  0  0  0  0  0  0  0
   42.8930   32.6600   41.8130 C   0  0  0  0  0  0  0  0  0  0  0  0
   43.0010   33.8040   40.9690 C   0  0  0  0  0  0  0  0  0  0  0  0
   41.8800   34.1610   40.1760 C   0  0  0  0  0  0  0  0  0  0  0  0
   40.7710   33.4200   40.2450 N   0  0  0  0  0  0  0  0  0  0  0  0
   40.7070   32.3320   41.0640 C   0  0  0  0  0  0  0  0  0  0  0  0
   41.7610   31.9420   41.8520 N   0  0  0  0  0  0  0  0  0  0  0  0
   43.7810   32.4170   42.4100 H   0  0  0  0  0  0  0  0  0  0  0  0
   43.8690   34.4200   40.8880 H   0  0  0  0  0  0  0  0  0  0  0  0
   41.9660   35.0290   39.5360 H   0  0  0  0  0  0  0  0  0  0  0  0
  1  2  1  0  0  0  0
  2 11  1  0  0  0  0
  2  3  2  0  0  0  0
  3 12  1  0  0  0  0
  4  3  1  0  0  0  0
  4 13  1  0  0  0  0
  5  4  2  0  0  0  0
  6  5  1  0  0  0  0
  6 14  1  0  0  0  0
  7  6  2  0  0  0  0
  8  9  2  0  0  0  0
  8  7  1  0  0  0  0
  9 10  1  0  0  0  0
 10  1  2  0  0  0  0
 10  5  1  0  0  0  0
 15  7  1  0  0  0  0
 16  8  1  0  0  0  0
 17 18  1  0  0  0  0
 18 19  1  0  0  0  0
 19 20  2  0  0  0  0
 19  9  1  0  0  0  0
 20 21  1  0  0  0  0
 22 23  1  0  0  0  0
 22 20  1  0  0  0  0
 24 22  2  0  0  0  0
 25 24  1  0  0  0  0
 26 24  1  0  0  0  0
 26 18  2  0  0  0  0
 27 26  1  0  0  0  0
 28 29  1  0  0  0  0
 28  1  1  0  0  0  0
 30 33  1  1  0  0  0
 31 32  1  0  0  0  0
 31 30  1  0  0  0  0
 32 36  1  6  0  0  0
 32 30  1  0  0  0  0
 32 28  1  0  0  0  0
 34 31  1  0  0  0  0
 35 31  1  0  0  0  0
 37 42  1  0  0  0  0
 37 43  1  0  0  0  0
 38 37  2  0  0  0  0
 39 40  2  0  0  0  0
 39 38  1  0  0  0  0
 40 41  1  0  0  0  0
 41 30  1  0  0  0  0
 41 42  2  0  0  0  0
 44 38  1  0  0  0  0
 45 39  1  0  0  0  0
M  END
>  <minimizedAffinity>
-6.26541615

$$$$

 OpenBabel03242511103D

 45 49  0  0  1  0  0  0  0  0999 V2000
   37.2300   26.1660   41.2170 C   0  0  0  0  0  0  0  0  0  0  0  0
   37.5480   24.9290   41.7550 C   0  0  0  0  0  0  0  0  0  0  0  0
   37.2280   23.7210   41.1380 C   0  0  0  0  0  0  0  0  0  0  0  0
   36.5590   23.7300   39.9240 C   0  0  0  0  0  0  0  0  0  0  0  0
   36.2340   24.9200   39.3690 C   0  0  0  0  0  0  0  0  0  0  0  0
   35.5900   24.9590   38.1530 C   0  0  0  0  0  0  0  0  0  0  0  0
   35.2530   26.1400   37.5240 C   0  0  0  0  0  0  0  0  0  0  0  0
   35.5940   27.3170   38.1790 C   0  0  0  0  0  0  0  0  0  0  0  0
   36.2400   27.2660   39.4010 C   0  0  0  0  0  0  0  0  0  0  0  0
   36.5730   26.0980   40.0190 C   0  0  0  0  0  0  0  0  0  0  0  0
   38.0770   24.7560   42.6780 H   0  0  0  0  0  0  0  0  0  0  0  0
   37.4630   22.7440   41.5350 H   0  0  0  0  0  0  0  0  0  0  0  0
   36.2990   22.8170   39.4260 H   0  0  0  0  0  0  0  0  0  0  0  0
   35.3500   24.0100   37.6910 H   0  0  0  0  0  0  0  0  0  0  0  0
   34.7460   26.0400   36.5640 H   0  0  0  0  0  0  0  0  0  0  0  0
   35.2830   28.1790   37.5950 H   0  0  0  0  0  0  0  0  0  0  0  0
   38.7300   28.3280   38.2720 Cl  0  0  0  0  0  0  0  0  0  0  0  0
   37.5820   29.1930   39.3130 C   0  0  0  0  0  0  0  0  0  0  0  0
   36.4110   28.6320   39.8540 C   0  0  0  0  0  0  0  0  0  0  0  0
   35.7090   29.4830   40.6760 C   0  0  0  0  0  0  0  0  0  0  0  0
   34.8230   28.9570   41.0440 H   0  0  0  0  0  0  0  0  0  0  0  0
   36.1060   30.7620   40.9490 C   0  0  0  0  0  0  0  0  0  0  0  0
   35.4180   31.2620   41.6160 H   0  0  0  0  0  0  0  0  0  0  0  0
   37.2570   31.2930   40.4080 C   0  0  0  0  0  0  0  0  0  0  0  0
   37.4330   32.3070   40.7150 H   0  0  0  0  0  0  0  0  0  0  0  0
   38.0100   30.4790   39.5670 C   0  0  0  0  0  0  0  0  0  0  0  0
   39.4390   31.2240   38.9300 Cl  0  0  0  0  0  0  0  0  0  0  0  0
   37.6020   27.3170   41.9250 N   0  0  0  0  0  0  0  0  0  0  0  0
   36.6180   27.5970   42.0830 H   0  0  0  0  0  0  0  0  0  0  0  0
   39.6320   27.5650   43.4180 C   0  0  1  0  0  0  0  0  0  0  0  0
   39.2730   28.9410   42.9070 C   0  0  0  0  0  0  0  0  0  0  0  0
   38.9770   27.6710   42.1250 C   0  0  2  0  0  0  0  0  0  0  0  0
   39.0650   27.2400   44.3110 H   0  0  0  0  0  0  0  0  0  0  0  0
   38.4310   29.4380   43.4220 H   0  0  0  0  0  0  0  0  0  0  0  0
   40.1240   29.5910   42.5650 H   0  0  0  0  0  0  0  0  0  0  0  0
   39.5960   27.5360   41.1990 H   0  0  0  0  0  0  0  0  0  0  0  0
   43.3130   27.8460   43.6560 C   0  0  0  0  0  0  0  0  0  0  0  0
   43.7060   26.4740   43.6340 C   0  0  0  0  0  0  0  0  0  0  0  0
   42.6900   25.4880   43.5490 C   0  0  0  0  0  0  0  0  0  0  0  0
   41.4120   25.8710   43.4940 N   0  0  0  0  0  0  0  0  0  0  0  0
   41.0770   27.1920   43.5190 C   0  0  0  0  0  0  0  0  0  0  0  0
   42.0180   28.1890   43.6000 N   0  0  0  0  0  0  0  0  0  0  0  0
   44.1280   28.5780   43.7220 H   0  0  0  0  0  0  0  0  0  0  0  0
   44.7150   26.1300   43.6750 H   0  0  0  0  0  0  0  0  0  0  0  0
   42.9910   24.4490   43.5330 H   0  0  0  0  0  0  0  0  0  0  0  0
  1  2  1  0  0  0  0
  1 28  1  0  0  0  0
  2 11  1  0  0  0  0
  3 12  1  0  0  0  0
  3  2  2  0  0  0  0
  4  3  1  0  0  0  0
  5  4  2  0  0  0  0
  5 10  1  0  0  0  0
  6  5  1  0  0  0  0
  7  6  2  0  0  0  0
  7  8  1  0  0  0  0
  8  9  2  0  0  0  0
  9 19  1  0  0  0  0
  9 10  1  0  0  0  0
 10  1  2  0  0  0  0
 13  4  1  0  0  0  0
 14  6  1  0  0  0  0
 15  7  1  0  0  0  0
 16  8  1  0  0  0  0
 17 18  1  0  0  0  0
 18 26  2  0  0  0  0
 18 19  1  0  0  0  0
 19 20  2  0  0  0  0
 20 22  1  0  0  0  0
 20 21  1  0  0  0  0
 22 23  1  0  0  0  0
 24 25  1  0  0  0  0
 24 22  2  0  0  0  0
 26 24  1  0  0  0  0
 27 26  1  0  0  0  0
 28 29  1  0  0  0  0
 28 32  1  0  0  0  0
 30 41  1  0  0  0  0
 30 33  1  1  0  0  0
 31 30  1  0  0  0  0
 31 34  1  0  0  0  0
 32 36  1  6  0  0  0
 32 31  1  0  0  0  0
 32 30  1  0  0  0  0
 35 31  1  0  0  0  0
 37 43  1  0  0  0  0
 38 37  1  0  0  0  0
 38 44  1  0  0  0  0
 39 38  2  0  0  0  0
 40 41  2  0  0  0  0
 40 39  1  0  0  0  0
 41 42  1  0  0  0  0
 42 37  2  0  0  0  0
 45 39  1  0  0  0  0
M  END
>  <minimizedAffinity>
-6.16627502

$$$$

 OpenBabel03242511103D

 45 49  0  0  1  0  0  0  0  0999 V2000
   37.3150   30.9300   40.4150 C   0  0  0  0  0  0  0  0  0  0  0  0
   37.0210   32.0730   39.6890 C   0  0  0  0  0  0  0  0  0  0  0  0
   37.8350   33.2030   39.6750 C   0  0  0  0  0  0  0  0  0  0  0  0
   39.0070   33.2100   40.4160 C   0  0  0  0  0  0  0  0  0  0  0  0
   39.3270   32.1100   41.1370 C   0  0  0  0  0  0  0  0  0  0  0  0
   40.4960   32.0810   41.8630 C   0  0  0  0  0  0  0  0  0  0  0  0
   40.8900   30.9810   42.5990 C   0  0  0  0  0  0  0  0  0  0  0  0
   40.0430   29.8790   42.5800 C   0  0  0  0  0  0  0  0  0  0  0  0
   38.8710   29.9220   41.8470 C   0  0  0  0  0  0  0  0  0  0  0  0
   38.4850   31.0080   41.1210 C   0  0  0  0  0  0  0  0  0  0  0  0
   36.1600   32.2180   39.0560 H   0  0  0  0  0  0  0  0  0  0  0  0
   37.6300   34.1060   39.1190 H   0  0  0  0  0  0  0  0  0  0  0  0
   39.6540   34.0640   40.4260 H   0  0  0  0  0  0  0  0  0  0  0  0
   41.1140   32.9680   41.8400 H   0  0  0  0  0  0  0  0  0  0  0  0
   41.8360   31.0800   43.1310 H   0  0  0  0  0  0  0  0  0  0  0  0
   40.4520   29.0780   43.1890 H   0  0  0  0  0  0  0  0  0  0  0  0
   39.9060   27.9410   39.9470 Cl  0  0  0  0  0  0  0  0  0  0  0  0
   38.6690   27.6740   41.1920 C   0  0  0  0  0  0  0  0  0  0  0  0
   38.1840   28.6640   42.0650 C   0  0  0  0  0  0  0  0  0  0  0  0
   37.1850   28.2300   42.9060 C   0  0  0  0  0  0  0  0  0  0  0  0
   36.8780   29.0670   43.5390 H   0  0  0  0  0  0  0  0  0  0  0  0
   36.7010   26.9520   42.9020 C   0  0  0  0  0  0  0  0  0  0  0  0
   35.9220   26.8150   43.6370 H   0  0  0  0  0  0  0  0  0  0  0  0
   37.1920   25.9960   42.0380 C   0  0  0  0  0  0  0  0  0  0  0  0
   36.7120   25.0420   42.1570 H   0  0  0  0  0  0  0  0  0  0  0  0
   38.2040   26.3760   41.1620 C   0  0  0  0  0  0  0  0  0  0  0  0
   38.7620   25.1150   40.1130 Cl  0  0  0  0  0  0  0  0  0  0  0  0
   36.4230   29.8530   40.3550 N   0  0  0  0  0  0  0  0  0  0  0  0
   36.3720   29.7720   41.3850 H   0  0  0  0  0  0  0  0  0  0  0  0
   34.6190   28.8570   38.8810 C   0  0  1  0  0  0  0  0  0  0  0  0
   35.6940   27.8090   39.0540 C   0  0  0  0  0  0  0  0  0  0  0  0
   35.9860   29.3010   39.1050 C   0  0  2  0  0  0  0  0  0  0  0  0
   33.8740   28.8960   39.6980 H   0  0  0  0  0  0  0  0  0  0  0  0
   35.6720   27.2540   40.0100 H   0  0  0  0  0  0  0  0  0  0  0  0
   35.9970   27.2390   38.1340 H   0  0  0  0  0  0  0  0  0  0  0  0
   36.5700   29.6940   38.2320 H   0  0  0  0  0  0  0  0  0  0  0  0
   34.1700   29.0940   35.2160 C   0  0  0  0  0  0  0  0  0  0  0  0
   32.7710   29.3510   35.1170 C   0  0  0  0  0  0  0  0  0  0  0  0
   32.0150   29.4240   36.3150 C   0  0  0  0  0  0  0  0  0  0  0  0
   32.6330   29.2510   37.4870 N   0  0  0  0  0  0  0  0  0  0  0  0
   33.9740   29.0070   37.5400 C   0  0  0  0  0  0  0  0  0  0  0  0
   34.7530   28.9260   36.4130 N   0  0  0  0  0  0  0  0  0  0  0  0
   34.7190   29.0460   34.2670 H   0  0  0  0  0  0  0  0  0  0  0  0
   32.2420   29.4950   34.2010 H   0  0  0  0  0  0  0  0  0  0  0  0
   30.9540   29.6180   36.2360 H   0  0  0  0  0  0  0  0  0  0  0  0
  1 10  1  0  0  0  0
  2  1  2  0  0  0  0
  3  2  1  0  0  0  0
  3  4  2  0  0  0  0
  4 13  1  0  0  0  0
  4  5  1  0  0  0  0
  5  6  1  0  0  0  0
  6  7  2  0  0  0  0
  7 15  1  0  0  0  0
  8  7  1  0  0  0  0
  8 16  1  0  0  0  0
  9 19  1  0  0  0  0
  9  8  2  0  0  0  0
 10  5  2  0  0  0  0
 10  9  1  0  0  0  0
 11  2  1  0  0  0  0
 12  3  1  0  0  0  0
 14  6  1  0  0  0  0
 17 18  1  0  0  0  0
 18 19  1  0  0  0  0
 19 20  2  0  0  0  0
 20 21  1  0  0  0  0
 22 20  1  0  0  0  0
 22 23  1  0  0  0  0
 24 25  1  0  0  0  0
 24 22  2  0  0  0  0
 26 18  2  0  0  0  0
 26 24  1  0  0  0  0
 27 26  1  0  0  0  0
 28  1  1  0  0  0  0
 28 29  1  0  0  0  0
 30 31  1  0  0  0  0
 30 32  1  0  0  0  0
 30 33  1  1  0  0  0
 31 32  1  0  0  0  0
 31 34  1  0  0  0  0
 32 36  1  6  0  0  0
 32 28  1  0  0  0  0
 35 31  1  0  0  0  0
 37 42  1  0  0  0  0
 38 37  2  0  0  0  0
 38 39  1  0  0  0  0
 39 40  2  0  0  0  0
 40 41  1  0  0  0  0
 41 30  1  0  0  0  0
 42 41  2  0  0  0  0
 43 37  1  0  0  0  0
 44 38  1  0  0  0  0
 45 39  1  0  0  0  0
M  END
>  <minimizedAffinity>
-6.15917683

$$$$

 OpenBabel03242511103D

 45 49  0  0  1  0  0  0  0  0999 V2000
   36.3280   28.9480   39.1870 C   0  0  0  0  0  0  0  0  0  0  0  0
   35.9110   29.7000   38.1000 C   0  0  0  0  0  0  0  0  0  0  0  0
   35.4510   29.1370   36.9120 C   0  0  0  0  0  0  0  0  0  0  0  0
   35.3970   27.7570   36.7850 C   0  0  0  0  0  0  0  0  0  0  0  0
   35.7950   26.9920   37.8270 C   0  0  0  0  0  0  0  0  0  0  0  0
   35.7290   25.6200   37.7360 C   0  0  0  0  0  0  0  0  0  0  0  0
   36.0970   24.7860   38.7720 C   0  0  0  0  0  0  0  0  0  0  0  0
   36.5490   25.3950   39.9370 C   0  0  0  0  0  0  0  0  0  0  0  0
   36.6120   26.7750   40.0150 C   0  0  0  0  0  0  0  0  0  0  0  0
   36.2460   27.5960   38.9920 C   0  0  0  0  0  0  0  0  0  0  0  0
   35.8800   30.7760   38.0480 H   0  0  0  0  0  0  0  0  0  0  0  0
   35.1210   29.6990   36.0500 H   0  0  0  0  0  0  0  0  0  0  0  0
   35.0480   27.2960   35.8830 H   0  0  0  0  0  0  0  0  0  0  0  0
   35.3700   25.2030   36.8050 H   0  0  0  0  0  0  0  0  0  0  0  0
   36.0000   23.7170   38.5790 H   0  0  0  0  0  0  0  0  0  0  0  0
   36.8090   24.6460   40.6800 H   0  0  0  0  0  0  0  0  0  0  0  0
   39.5380   26.6730   39.8440 Cl  0  0  0  0  0  0  0  0  0  0  0  0
   38.5710   27.0960   41.2720 C   0  0  0  0  0  0  0  0  0  0  0  0
   37.1650   27.1060   41.3130 C   0  0  0  0  0  0  0  0  0  0  0  0
   36.6420   27.4130   42.5480 C   0  0  0  0  0  0  0  0  0  0  0  0
   35.5510   27.3940   42.4760 H   0  0  0  0  0  0  0  0  0  0  0  0
   37.4120   27.6870   43.6430 C   0  0  0  0  0  0  0  0  0  0  0  0
   36.8100   27.9030   44.5130 H   0  0  0  0  0  0  0  0  0  0  0  0
   38.7890   27.6730   43.5810 C   0  0  0  0  0  0  0  0  0  0  0  0
   39.2510   27.9100   44.5220 H   0  0  0  0  0  0  0  0  0  0  0  0
   39.3760   27.3680   42.3570 C   0  0  0  0  0  0  0  0  0  0  0  0
   41.1090   27.3740   42.3670 Cl  0  0  0  0  0  0  0  0  0  0  0  0
   36.7720   29.6200   40.3330 N   0  0  0  0  0  0  0  0  0  0  0  0
   36.1670   29.0590   40.9580 H   0  0  0  0  0  0  0  0  0  0  0  0
   39.1310   30.4740   39.9890 C   0  0  1  0  0  0  0  0  0  0  0  0
   38.7200   30.8310   41.3980 C   0  0  0  0  0  0  0  0  0  0  0  0
   37.7200   30.6940   40.2610 C   0  0  2  0  0  0  0  0  0  0  0  0
   39.5280   29.4480   39.8670 H   0  0  0  0  0  0  0  0  0  0  0  0
   38.7790   30.0100   42.1360 H   0  0  0  0  0  0  0  0  0  0  0  0
   38.9830   31.8640   41.7550 H   0  0  0  0  0  0  0  0  0  0  0  0
   37.2550   31.6590   39.9280 H   0  0  0  0  0  0  0  0  0  0  0  0
   41.0660   32.0240   37.2420 C   0  0  0  0  0  0  0  0  0  0  0  0
   41.4270   33.2770   37.8200 C   0  0  0  0  0  0  0  0  0  0  0  0
   40.9840   33.5600   39.1370 C   0  0  0  0  0  0  0  0  0  0  0  0
   40.2500   32.6530   39.7870 N   0  0  0  0  0  0  0  0  0  0  0  0
   39.9250   31.4670   39.2000 C   0  0  0  0  0  0  0  0  0  0  0  0
   40.3260   31.1400   37.9280 N   0  0  0  0  0  0  0  0  0  0  0  0
   41.4280   31.8420   36.2220 H   0  0  0  0  0  0  0  0  0  0  0  0
   42.0110   34.0250   37.3330 H   0  0  0  0  0  0  0  0  0  0  0  0
   41.2590   34.5120   39.5720 H   0  0  0  0  0  0  0  0  0  0  0  0
  1 28  1  0  0  0  0
  2  1  2  0  0  0  0
  3  2  1  0  0  0  0
  4  3  2  0  0  0  0
  4  5  1  0  0  0  0
  5 10  1  0  0  0  0
  6  5  2  0  0  0  0
  6  7  1  0  0  0  0
  7  8  2  0  0  0  0
  8  9  1  0  0  0  0
  8 16  1  0  0  0  0
  9 19  1  0  0  0  0
 10  1  1  0  0  0  0
 10  9  2  0  0  0  0
 11  2  1  0  0  0  0
 12  3  1  0  0  0  0
 13  4  1  0  0  0  0
 14  6  1  0  0  0  0
 15  7  1  0  0  0  0
 17 18  1  0  0  0  0
 18 19  2  0  0  0  0
 18 26  1  0  0  0  0
 19 20  1  0  0  0  0
 20 22  2  0  0  0  0
 21 20  1  0  0  0  0
 22 23  1  0  0  0  0
 24 22  1  0  0  0  0
 24 25  1  0  0  0  0
 26 27  1  0  0  0  0
 26 24  2  0  0  0  0
 28 29  1  0  0  0  0
 30 33  1  6  0  0  0
 30 32  1  0  0  0  0
 30 31  1  0  0  0  0
 31 35  1  0  0  0  0
 31 34  1  0  0  0  0
 32 36  1  6  0  0  0
 32 28  1  0  0  0  0
 32 31  1  0  0  0  0
 37 38  2  0  0  0  0
 37 42  1  0  0  0  0
 38 39  1  0  0  0  0
 39 45  1  0  0  0  0
 39 40  2  0  0  0  0
 41 40  1  0  0  0  0
 41 30  1  0  0  0  0
 42 41  2  0  0  0  0
 43 37  1  0  0  0  0
 44 38  1  0  0  0  0
M  END
>  <minimizedAffinity>
-6.12828827

$$$$

 OpenBabel03242511103D

 45 49  0  0  1  0  0  0  0  0999 V2000
   37.6150   30.4890   39.6080 C   0  0  0  0  0  0  0  0  0  0  0  0
   37.7570   31.5880   38.7750 C   0  0  0  0  0  0  0  0  0  0  0  0
   37.4780   31.5560   37.4110 C   0  0  0  0  0  0  0  0  0  0  0  0
   37.0320   30.3770   36.8320 C   0  0  0  0  0  0  0  0  0  0  0  0
   36.8810   29.2840   37.6150 C   0  0  0  0  0  0  0  0  0  0  0  0
   36.4180   28.1080   37.0710 C   0  0  0  0  0  0  0  0  0  0  0  0
   36.2200   26.9660   37.8210 C   0  0  0  0  0  0  0  0  0  0  0  0
   36.5130   27.0490   39.1770 C   0  0  0  0  0  0  0  0  0  0  0  0
   36.9780   28.2370   39.7120 C   0  0  0  0  0  0  0  0  0  0  0  0
   37.1720   29.3630   38.9690 C   0  0  0  0  0  0  0  0  0  0  0  0
   38.0770   32.5720   39.0740 H   0  0  0  0  0  0  0  0  0  0  0  0
   37.5800   32.3960   36.7390 H   0  0  0  0  0  0  0  0  0  0  0  0
   36.8090   30.3220   35.7850 H   0  0  0  0  0  0  0  0  0  0  0  0
   36.2070   28.1030   36.0100 H   0  0  0  0  0  0  0  0  0  0  0  0
   35.8500   26.0980   37.2760 H   0  0  0  0  0  0  0  0  0  0  0  0
   36.3190   26.0970   39.6650 H   0  0  0  0  0  0  0  0  0  0  0  0
   39.7620   27.3640   40.0130 Cl  0  0  0  0  0  0  0  0  0  0  0  0
   38.5770   27.6040   41.3130 C   0  0  0  0  0  0  0  0  0  0  0  0
   37.2420   28.0000   41.1170 C   0  0  0  0  0  0  0  0  0  0  0  0
   36.5010   28.0650   42.2740 C   0  0  0  0  0  0  0  0  0  0  0  0
   35.4850   28.3780   42.0170 H   0  0  0  0  0  0  0  0  0  0  0  0
   37.0080   27.7740   43.5090 C   0  0  0  0  0  0  0  0  0  0  0  0
   36.2650   27.8860   44.2850 H   0  0  0  0  0  0  0  0  0  0  0  0
   38.3210   27.3890   43.6800 C   0  0  0  0  0  0  0  0  0  0  0  0
   38.5690   27.1970   44.7070 H   0  0  0  0  0  0  0  0  0  0  0  0
   39.1210   27.3050   42.5440 C   0  0  0  0  0  0  0  0  0  0  0  0
   40.7550   26.8160   42.8480 Cl  0  0  0  0  0  0  0  0  0  0  0  0
   37.9260   30.6360   40.9650 N   0  0  0  0  0  0  0  0  0  0  0  0
   37.1070   30.0780   41.2650 H   0  0  0  0  0  0  0  0  0  0  0  0
   40.4240   30.9460   41.2400 C   0  0  1  0  0  0  0  0  0  0  0  0
   39.8160   30.9070   42.6230 C   0  0  0  0  0  0  0  0  0  0  0  0
   39.0540   31.4040   41.4050 C   0  0  2  0  0  0  0  0  0  0  0  0
   40.6370   29.9530   40.7990 H   0  0  0  0  0  0  0  0  0  0  0  0
   39.5720   29.9010   43.0100 H   0  0  0  0  0  0  0  0  0  0  0  0
   40.1920   31.6660   43.3620 H   0  0  0  0  0  0  0  0  0  0  0  0
   38.8550   32.5080   41.3960 H   0  0  0  0  0  0  0  0  0  0  0  0
   42.2200   34.0980   40.5120 C   0  0  0  0  0  0  0  0  0  0  0  0
   43.5680   33.6420   40.4170 C   0  0  0  0  0  0  0  0  0  0  0  0
   43.8250   32.2610   40.6180 C   0  0  0  0  0  0  0  0  0  0  0  0
   42.8060   31.4410   40.8880 N   0  0  0  0  0  0  0  0  0  0  0  0
   41.5310   31.9160   40.9710 C   0  0  0  0  0  0  0  0  0  0  0  0
   41.2250   33.2410   40.7860 N   0  0  0  0  0  0  0  0  0  0  0  0
   42.0630   35.1720   40.3500 H   0  0  0  0  0  0  0  0  0  0  0  0
   44.4070   34.2650   40.2030 H   0  0  0  0  0  0  0  0  0  0  0  0
   44.8490   31.9190   40.5450 H   0  0  0  0  0  0  0  0  0  0  0  0
  1 28  1  0  0  0  0
  2 11  1  0  0  0  0
  2  1  2  0  0  0  0
  3  2  1  0  0  0  0
  4  3  2  0  0  0  0
  4  5  1  0  0  0  0
  5 10  1  0  0  0  0
  6  5  2  0  0  0  0
  6  7  1  0  0  0  0
  7  8  2  0  0  0  0
  8 16  1  0  0  0  0
  8  9  1  0  0  0  0
  9 19  1  0  0  0  0
 10  1  1  0  0  0  0
 10  9  2  0  0  0  0
 12  3  1  0  0  0  0
 13  4  1  0  0  0  0
 14  6  1  0  0  0  0
 15  7  1  0  0  0  0
 17 18  1  0  0  0  0
 18 26  1  0  0  0  0
 19 18  2  0  0  0  0
 19 20  1  0  0  0  0
 20 22  2  0  0  0  0
 21 20  1  0  0  0  0
 22 24  1  0  0  0  0
 22 23  1  0  0  0  0
 24 25  1  0  0  0  0
 26 27  1  0  0  0  0
 26 24  2  0  0  0  0
 28 29  1  0  0  0  0
 28 32  1  0  0  0  0
 30 33  1  6  0  0  0
 30 32  1  0  0  0  0
 30 31  1  0  0  0  0
 31 34  1  0  0  0  0
 31 35  1  0  0  0  0
 32 36  1  6  0  0  0
 32 31  1  0  0  0  0
 37 42  1  0  0  0  0
 38 37  2  0  0  0  0
 38 39  1  0  0  0  0
 39 40  2  0  0  0  0
 40 41  1  0  0  0  0
 41 30  1  0  0  0  0
 42 41  2  0  0  0  0
 43 37  1  0  0  0  0
 44 38  1  0  0  0  0
 45 39  1  0  0  0  0
M  END
>  <minimizedAffinity>
-6.03535652

$$$$

 OpenBabel03242511103D

 45 49  0  0  1  0  0  0  0  0999 V2000
   37.7900   29.4800   41.8680 C   0  0  0  0  0  0  0  0  0  0  0  0
   36.6380   28.7850   42.2020 C   0  0  0  0  0  0  0  0  0  0  0  0
   36.6410   27.6130   42.9530 C   0  0  0  0  0  0  0  0  0  0  0  0
   37.8450   27.0930   43.4040 C   0  0  0  0  0  0  0  0  0  0  0  0
   38.9900   27.7450   43.0980 C   0  0  0  0  0  0  0  0  0  0  0  0
   40.1970   27.2650   43.5530 C   0  0  0  0  0  0  0  0  0  0  0  0
   41.3970   27.8970   43.2950 C   0  0  0  0  0  0  0  0  0  0  0  0
   41.3400   29.0630   42.5410 C   0  0  0  0  0  0  0  0  0  0  0  0
   40.1210   29.5360   42.0890 C   0  0  0  0  0  0  0  0  0  0  0  0
   38.9390   28.9100   42.3460 C   0  0  0  0  0  0  0  0  0  0  0  0
   35.6300   29.0660   41.9400 H   0  0  0  0  0  0  0  0  0  0  0  0
   35.7590   27.0520   43.2270 H   0  0  0  0  0  0  0  0  0  0  0  0
   37.8800   26.1930   43.9850 H   0  0  0  0  0  0  0  0  0  0  0  0
   40.1780   26.3530   44.1340 H   0  0  0  0  0  0  0  0  0  0  0  0
   42.2850   27.4190   43.7090 H   0  0  0  0  0  0  0  0  0  0  0  0
   42.3380   29.4730   42.4020 H   0  0  0  0  0  0  0  0  0  0  0  0
   40.6240   28.7220   39.3170 Cl  0  0  0  0  0  0  0  0  0  0  0  0
   40.6080   30.3800   39.9510 C   0  0  0  0  0  0  0  0  0  0  0  0
   40.3880   30.7200   41.2980 C   0  0  0  0  0  0  0  0  0  0  0  0
   40.4780   32.0680   41.5580 C   0  0  0  0  0  0  0  0  0  0  0  0
   40.2930   32.2290   42.6240 H   0  0  0  0  0  0  0  0  0  0  0  0
   40.7570   33.0020   40.6000 C   0  0  0  0  0  0  0  0  0  0  0  0
   40.7830   34.0020   41.0090 H   0  0  0  0  0  0  0  0  0  0  0  0
   40.9690   32.6480   39.2850 C   0  0  0  0  0  0  0  0  0  0  0  0
   41.1750   33.4920   38.6530 H   0  0  0  0  0  0  0  0  0  0  0  0
   40.8900   31.2960   38.9600 C   0  0  0  0  0  0  0  0  0  0  0  0
   41.1680   30.9380   37.2880 Cl  0  0  0  0  0  0  0  0  0  0  0  0
   37.6680   30.6490   41.1070 N   0  0  0  0  0  0  0  0  0  0  0  0
   38.3540   31.1600   41.6890 H   0  0  0  0  0  0  0  0  0  0  0  0
   37.0600   30.1460   38.7010 C   0  0  1  0  0  0  0  0  0  0  0  0
   37.1550   31.6470   38.8400 C   0  0  0  0  0  0  0  0  0  0  0  0
   36.7660   30.7380   39.9950 C   0  0  2  0  0  0  0  0  0  0  0  0
   38.0260   29.6350   38.5210 H   0  0  0  0  0  0  0  0  0  0  0  0
   38.1790   32.0650   38.8340 H   0  0  0  0  0  0  0  0  0  0  0  0
   36.3480   32.2530   38.3450 H   0  0  0  0  0  0  0  0  0  0  0  0
   35.6940   30.8190   40.3150 H   0  0  0  0  0  0  0  0  0  0  0  0
   35.1380   29.0470   35.7360 C   0  0  0  0  0  0  0  0  0  0  0  0
   33.9310   28.5820   36.3360 C   0  0  0  0  0  0  0  0  0  0  0  0
   33.8150   28.6480   37.7480 C   0  0  0  0  0  0  0  0  0  0  0  0
   34.8310   29.1380   38.4630 N   0  0  0  0  0  0  0  0  0  0  0  0
   35.9690   29.5730   37.8530 C   0  0  0  0  0  0  0  0  0  0  0  0
   36.1360   29.5320   36.4900 N   0  0  0  0  0  0  0  0  0  0  0  0
   35.1890   28.9800   34.6420 H   0  0  0  0  0  0  0  0  0  0  0  0
   33.0990   28.1850   35.7980 H   0  0  0  0  0  0  0  0  0  0  0  0
   32.8970   28.2940   38.2000 H   0  0  0  0  0  0  0  0  0  0  0  0
  1  2  2  0  0  0  0
  1 10  1  0  0  0  0
  2  3  1  0  0  0  0
  3 12  1  0  0  0  0
  3  4  2  0  0  0  0
  4 13  1  0  0  0  0
  5  4  1  0  0  0  0
  5  6  1  0  0  0  0
  6 14  1  0  0  0  0
  7  6  2  0  0  0  0
  7 15  1  0  0  0  0
  8  7  1  0  0  0  0
  9 10  1  0  0  0  0
  9  8  2  0  0  0  0
 10  5  2  0  0  0  0
 11  2  1  0  0  0  0
 16  8  1  0  0  0  0
 17 18  1  0  0  0  0
 18 19  1  0  0  0  0
 19 20  2  0  0  0  0
 19  9  1  0  0  0  0
 20 21  1  0  0  0  0
 22 23  1  0  0  0  0
 22 20  1  0  0  0  0
 24 22  2  0  0  0  0
 25 24  1  0  0  0  0
 26 24  1  0  0  0  0
 26 18  2  0  0  0  0
 27 26  1  0  0  0  0
 28 29  1  0  0  0  0
 28  1  1  0  0  0  0
 30 33  1  6  0  0  0
 30 31  1  0  0  0  0
 30 32  1  0  0  0  0
 31 32  1  0  0  0  0
 32 36  1  1  0  0  0
 32 28  1  0  0  0  0
 34 31  1  0  0  0  0
 35 31  1  0  0  0  0
 37 38  2  0  0  0  0
 37 42  1  0  0  0  0
 38 39  1  0  0  0  0
 39 45  1  0  0  0  0
 39 40  2  0  0  0  0
 41 40  1  0  0  0  0
 41 30  1  0  0  0  0
 42 41  2  0  0  0  0
 43 37  1  0  0  0  0
 44 38  1  0  0  0  0
M  END
>  <minimizedAffinity>
-6.03050995

$$$$

 OpenBabel03242511103D

 45 49  0  0  1  0  0  0  0  0999 V2000
   37.0240   26.0950   40.6960 C   0  0  0  0  0  0  0  0  0  0  0  0
   36.8480   24.7310   40.5200 C   0  0  0  0  0  0  0  0  0  0  0  0
   37.5790   23.7690   41.2130 C   0  0  0  0  0  0  0  0  0  0  0  0
   38.5360   24.1690   42.1330 C   0  0  0  0  0  0  0  0  0  0  0  0
   38.7340   25.4930   42.3320 C   0  0  0  0  0  0  0  0  0  0  0  0
   39.6610   25.9180   43.2560 C   0  0  0  0  0  0  0  0  0  0  0  0
   39.8920   27.2520   43.5210 C   0  0  0  0  0  0  0  0  0  0  0  0
   39.1380   28.1730   42.8040 C   0  0  0  0  0  0  0  0  0  0  0  0
   38.2100   27.7340   41.8770 C   0  0  0  0  0  0  0  0  0  0  0  0
   37.9830   26.4160   41.6180 C   0  0  0  0  0  0  0  0  0  0  0  0
   36.1380   24.2650   39.8570 H   0  0  0  0  0  0  0  0  0  0  0  0
   37.4620   22.7010   41.0950 H   0  0  0  0  0  0  0  0  0  0  0  0
   39.1130   23.4520   42.6820 H   0  0  0  0  0  0  0  0  0  0  0  0
   40.2180   25.1550   43.7830 H   0  0  0  0  0  0  0  0  0  0  0  0
   40.6520   27.4620   44.2750 H   0  0  0  0  0  0  0  0  0  0  0  0
   39.4030   29.1870   43.0940 H   0  0  0  0  0  0  0  0  0  0  0  0
   39.8670   28.5120   39.5860 Cl  0  0  0  0  0  0  0  0  0  0  0  0
   38.3780   29.3050   40.1380 C   0  0  0  0  0  0  0  0  0  0  0  0
   37.6300   28.9100   41.2610 C   0  0  0  0  0  0  0  0  0  0  0  0
   36.5430   29.7140   41.5220 C   0  0  0  0  0  0  0  0  0  0  0  0
   36.0310   29.3270   42.4080 H   0  0  0  0  0  0  0  0  0  0  0  0
   36.2130   30.8000   40.7630 C   0  0  0  0  0  0  0  0  0  0  0  0
   35.3280   31.2960   41.1340 H   0  0  0  0  0  0  0  0  0  0  0  0
   36.9590   31.1700   39.6640 C   0  0  0  0  0  0  0  0  0  0  0  0
   36.5730   32.0420   39.1710 H   0  0  0  0  0  0  0  0  0  0  0  0
   38.0720   30.3940   39.3500 C   0  0  0  0  0  0  0  0  0  0  0  0
   38.9530   30.9270   37.9560 Cl  0  0  0  0  0  0  0  0  0  0  0  0
   36.2330   26.9730   39.9440 N   0  0  0  0  0  0  0  0  0  0  0  0
   35.8460   27.4280   40.7900 H   0  0  0  0  0  0  0  0  0  0  0  0
   35.2310   27.6670   37.7250 C   0  0  1  0  0  0  0  0  0  0  0  0
   35.0660   26.1700   37.8490 C   0  0  0  0  0  0  0  0  0  0  0  0
   36.2050   26.9280   38.5110 C   0  0  2  0  0  0  0  0  0  0  0  0
   34.4420   28.2630   38.2210 H   0  0  0  0  0  0  0  0  0  0  0  0
   34.2300   25.8330   38.4880 H   0  0  0  0  0  0  0  0  0  0  0  0
   35.2940   25.5590   36.9340 H   0  0  0  0  0  0  0  0  0  0  0  0
   37.2170   26.7360   38.0660 H   0  0  0  0  0  0  0  0  0  0  0  0
   35.7440   27.9940   34.0750 C   0  0  0  0  0  0  0  0  0  0  0  0
   36.3340   29.2900   33.9850 C   0  0  0  0  0  0  0  0  0  0  0  0
   36.5290   30.0220   35.1840 C   0  0  0  0  0  0  0  0  0  0  0  0
   36.1570   29.4800   36.3470 N   0  0  0  0  0  0  0  0  0  0  0  0
   35.5960   28.2390   36.3910 C   0  0  0  0  0  0  0  0  0  0  0  0
   35.3830   27.4860   35.2630 N   0  0  0  0  0  0  0  0  0  0  0  0
   35.6100   27.4600   33.1260 H   0  0  0  0  0  0  0  0  0  0  0  0
   36.6450   29.7550   33.0760 H   0  0  0  0  0  0  0  0  0  0  0  0
   36.9770   31.0040   35.1130 H   0  0  0  0  0  0  0  0  0  0  0  0
  1 10  1  0  0  0  0
  2  1  2  0  0  0  0
  2  3  1  0  0  0  0
  3  4  2  0  0  0  0
  4  5  1  0  0  0  0
  4 13  1  0  0  0  0
  5  6  1  0  0  0  0
  6  7  2  0  0  0  0
  6 14  1  0  0  0  0
  7 15  1  0  0  0  0
  8 16  1  0  0  0  0
  8  7  1  0  0  0  0
  9  8  2  0  0  0  0
 10  9  1  0  0  0  0
 10  5  2  0  0  0  0
 11  2  1  0  0  0  0
 12  3  1  0  0  0  0
 17 18  1  0  0  0  0
 18 19  1  0  0  0  0
 19 20  2  0  0  0  0
 19  9  1  0  0  0  0
 20 21  1  0  0  0  0
 22 23  1  0  0  0  0
 22 20  1  0  0  0  0
 24 22  2  0  0  0  0
 25 24  1  0  0  0  0
 26 24  1  0  0  0  0
 26 18  2  0  0  0  0
 27 26  1  0  0  0  0
 28  1  1  0  0  0  0
 28 29  1  0  0  0  0
 30 31  1  0  0  0  0
 30 33  1  1  0  0  0
 30 32  1  0  0  0  0
 31 34  1  0  0  0  0
 31 32  1  0  0  0  0
 32 36  1  6  0  0  0
 32 28  1  0  0  0  0
 35 31  1  0  0  0  0
 37 42  1  0  0  0  0
 38 37  2  0  0  0  0
 38 39  1  0  0  0  0
 39 40  2  0  0  0  0
 40 41  1  0  0  0  0
 41 30  1  0  0  0  0
 42 41  2  0  0  0  0
 43 37  1  0  0  0  0
 44 38  1  0  0  0  0
 45 39  1  0  0  0  0
M  END
>  <minimizedAffinity>
-6.01507616

$$$$
