
     RDKit          3D

 35 37  0  0  0  0  0  0  0  0999 V2000
   44.4812   35.7356   44.9956 C   0  0  0  0  0  0  0  0  0  0  0  0
   45.1232   35.7126   43.7489 C   0  0  0  0  0  0  0  0  0  0  0  0
   46.0243   34.7251   43.4937 C   0  0  0  0  0  0  0  0  0  0  0  0
   46.2388   33.8219   44.4789 N   0  0  0  0  0  0  0  0  0  0  0  0
   45.6180   33.8566   45.6648 C   0  0  0  0  0  0  0  0  0  0  0  0
   44.7366   34.8048   45.9427 N   0  0  0  0  0  0  0  0  0  0  0  0
   45.9372   32.8342   46.6175 N   0  0  0  0  0  0  0  0  0  0  0  0
   45.1629   32.5762   47.8187 C   0  0  0  0  0  0  0  0  0  0  0  0
   46.2528   32.2429   48.8077 C   0  0  0  0  0  0  0  0  0  0  0  0
   47.5266   32.0636   48.0313 C   0  0  0  0  0  0  0  0  0  0  0  0
   47.0387   31.8878   46.5936 C   0  0  1  0  0  0  0  0  0  0  0  0
   44.7645   36.7544   42.8275 N   0  0  0  0  0  0  0  0  0  0  0  0
   46.4772   30.2083   46.3901 S   0  0  0  0  0  0  0  0  0  0  0  0
   43.7476   36.5084   45.2502 H   0  0  0  0  0  0  0  0  0  0  0  0
   46.5173   34.7021   42.5444 H   0  0  0  0  0  0  0  0  0  0  0  0
   44.5479   31.6641   47.7200 H   0  0  0  0  0  0  0  0  0  0  0  0
   44.5604   33.4611   48.1197 H   0  0  0  0  0  0  0  0  0  0  0  0
   46.0136   31.4214   49.4806 H   0  0  0  0  0  0  0  0  0  0  0  0
   46.3597   33.1585   49.4546 H   0  0  0  0  0  0  0  0  0  0  0  0
   48.1469   32.9702   48.0936 H   0  0  0  0  0  0  0  0  0  0  0  0
   48.0667   31.1731   48.4139 H   0  0  0  0  0  0  0  0  0  0  0  0
   47.7317   32.2690   45.8438 H   0  0  0  0  0  0  0  0  0  0  0  0
   43.8141   37.1495   42.7396 H   0  0  0  0  0  0  0  0  0  0  0  0
   45.5151   37.1493   42.1926 H   0  0  0  0  0  0  0  0  0  0  0  0
   46.0429   27.0590   45.5674 Cl  0  0  0  0  0  0  0  0  0  0  0  0
   47.6463   27.6610   45.8240 C   0  0  0  0  0  0  0  0  0  0  0  0
   47.7124   28.9900   46.1677 C   0  0  0  0  0  0  0  0  0  0  0  0
   48.9953   29.5053   46.4047 C   0  0  0  0  0  0  0  0  0  0  0  0
   49.2702   30.5276   46.6884 H   0  0  0  0  0  0  0  0  0  0  0  0
   50.1085   28.6649   46.2815 C   0  0  0  0  0  0  0  0  0  0  0  0
   51.1334   29.0174   46.4558 H   0  0  0  0  0  0  0  0  0  0  0  0
   49.9796   27.3273   45.9291 C   0  0  0  0  0  0  0  0  0  0  0  0
   50.8332   26.6931   45.8368 H   0  0  0  0  0  0  0  0  0  0  0  0
   48.7196   26.8387   45.7016 C   0  0  0  0  0  0  0  0  0  0  0  0
   48.4348   25.1596   45.2491 Cl  0  0  0  0  0  0  0  0  0  0  0  0
  1  6  2  0
  2  1  1  0
  3  2  2  0
  3  4  1  0
  4  5  2  0
  5  6  1  0
  5  7  1  0
  7 11  1  0
  7  8  1  0
  8  9  1  0
 10  9  1  0
 11 10  1  0
 12  2  1  0
 13 11  1  0
  1 14  1  0
  3 15  1  0
  8 16  1  0
  8 17  1  0
  9 18  1  0
  9 19  1  0
 10 20  1  0
 10 21  1  0
 11 22  1  6
 12 23  1  0
 12 24  1  0
 25 26  1  0
 26 27  2  0
 27 28  1  0
 28 29  1  0
 28 30  2  0
 30 31  1  0
 30 32  1  0
 32 33  1  0
 32 34  2  0
 34 35  1  0
 34 26  1  0
 13 27  1  0
M  ISO  8  14  14  15  14  16  13  17  13  18  13  19  13  20  13  21  13
M  ISO  4  22  13  29  15  31  15  33  15
M  END
>  <DihAtoms>  (1) 
10,12,26,25

>  <DihDeg>  (1) 
-5.748037875881592

$$$$
