
 OpenBabel03252506383D

 46 49  0  0  1  0  0  0  0  0999 V2000
   44.5180   35.4980   45.1430 C   0  0  0  0  0  0  0  0  0  0  0  0
   45.1740   35.4790   43.8900 C   0  0  0  0  0  0  0  0  0  0  0  0
   46.0890   34.5170   43.6390 C   0  0  0  0  0  0  0  0  0  0  0  0
   46.3280   33.6130   44.6240 N   0  0  0  0  0  0  0  0  0  0  0  0
   45.7110   33.6350   45.7970 C   0  0  0  0  0  0  0  0  0  0  0  0
   44.8030   34.5720   46.0730 N   0  0  0  0  0  0  0  0  0  0  0  0
   46.0440   32.6280   46.7690 N   0  0  0  0  0  0  0  0  0  0  0  0
   45.3100   32.3910   47.9570 C   0  0  0  0  0  0  0  0  0  0  0  0
   46.3880   32.0490   48.9700 C   0  0  0  0  0  0  0  0  0  0  0  0
   47.6660   31.9390   48.1960 C   0  0  0  0  0  0  0  0  0  0  0  0
   47.1610   31.7180   46.7710 C   0  0  1  0  0  0  0  0  0  0  0  0
   43.7780   36.2580   45.3760 H   0  0  0  0  0  0  0  0  0  0  0  0
   46.6030   34.4770   42.6940 H   0  0  0  0  0  0  0  0  0  0  0  0
   44.9440   33.4080   48.3120 H   0  0  0  0  0  0  0  0  0  0  0  0
   44.5050   31.7420   48.0660 H   0  0  0  0  0  0  0  0  0  0  0  0
   46.4130   32.6920   49.8460 H   0  0  0  0  0  0  0  0  0  0  0  0
   46.1910   31.0120   49.3720 H   0  0  0  0  0  0  0  0  0  0  0  0
   48.2010   32.9010   48.2730 H   0  0  0  0  0  0  0  0  0  0  0  0
   48.2890   31.0720   48.5090 H   0  0  0  0  0  0  0  0  0  0  0  0
   47.9810   32.0250   46.1010 H   0  0  0  0  0  0  0  0  0  0  0  0
   44.8180   36.5000   42.9460 N   0  0  0  0  0  0  0  0  0  0  0  0
   44.5830   37.4510   43.2600 H   0  0  0  0  0  0  0  0  0  0  0  0
   44.7880   36.3000   41.9130 H   0  0  0  0  0  0  0  0  0  0  0  0
   46.6480   30.0240   46.6000 S   0  0  0  0  0  0  0  0  0  0  0  0
   45.6230   30.3930   43.4500 O   0  0  0  0  0  0  0  0  0  0  0  0
   44.9830   29.9070   44.3980 C   0  0  0  0  0  0  0  0  0  0  0  0
   45.0880   29.7400   45.8710 C   0  0  1  0  0  0  0  0  0  0  0  0
   44.5160   28.3580   46.0640 C   0  0  0  0  0  0  0  0  0  0  0  0
   43.2040   28.5610   45.3050 C   0  0  0  0  0  0  0  0  0  0  0  0
   43.7180   29.2720   44.1340 N   0  0  0  0  0  0  0  0  0  0  0  0
   44.2200   30.3760   46.1980 H   0  0  0  0  0  0  0  0  0  0  0  0
   45.0980   27.5830   45.5440 H   0  0  0  0  0  0  0  0  0  0  0  0
   44.3240   28.1200   47.1290 H   0  0  0  0  0  0  0  0  0  0  0  0
   42.4750   29.1280   45.8820 H   0  0  0  0  0  0  0  0  0  0  0  0
   42.8620   27.5380   45.0340 H   0  0  0  0  0  0  0  0  0  0  0  0
   41.1120   27.7140   44.0650 Cl  0  0  0  0  0  0  0  0  0  0  0  0
   41.7590   28.6160   42.7020 C   0  0  0  0  0  0  0  0  0  0  0  0
   42.9610   29.2720   42.9010 C   0  0  0  0  0  0  0  0  0  0  0  0
   43.5550   30.0060   41.9010 C   0  0  0  0  0  0  0  0  0  0  0  0
   44.4960   30.5460   41.9890 H   0  0  0  0  0  0  0  0  0  0  0  0
   42.9390   30.0910   40.6700 C   0  0  0  0  0  0  0  0  0  0  0  0
   43.3800   30.6610   39.8610 H   0  0  0  0  0  0  0  0  0  0  0  0
   41.7350   29.4380   40.4630 C   0  0  0  0  0  0  0  0  0  0  0  0
   41.1910   29.4560   39.5260 H   0  0  0  0  0  0  0  0  0  0  0  0
   41.1460   28.6980   41.4840 C   0  0  0  0  0  0  0  0  0  0  0  0
   39.6240   27.8440   41.2940 Cl  0  0  0  0  0  0  0  0  0  0  0  0
  1 12  1  0  0  0  0
  1  6  1  0  0  0  0
  2  1  2  0  0  0  0
  3  2  1  0  0  0  0
  3  4  2  0  0  0  0
  4  5  1  0  0  0  0
  5  6  2  0  0  0  0
  5  7  1  0  0  0  0
  7 11  1  0  0  0  0
  7  8  1  0  0  0  0
  8 15  1  0  0  0  0
  8 14  1  0  0  0  0
  8  9  1  0  0  0  0
  9 17  1  0  0  0  0
  9 16  1  0  0  0  0
 10 18  1  0  0  0  0
 10 19  1  0  0  0  0
 10  9  1  0  0  0  0
 11 20  1  6  0  0  0
 11 10  1  0  0  0  0
 13  3  1  0  0  0  0
 21 22  1  0  0  0  0
 21  2  1  0  0  0  0
 23 21  1  0  0  0  0
 24 11  1  0  0  0  0
 25 26  2  0  0  0  0
 26 27  1  0  0  0  0
 27 28  1  0  0  0  0
 27 31  1  1  0  0  0
 27 24  1  0  0  0  0
 28 33  1  0  0  0  0
 29 34  1  0  0  0  0
 29 28  1  0  0  0  0
 30 26  1  0  0  0  0
 30 29  1  0  0  0  0
 32 28  1  0  0  0  0
 35 29  1  0  0  0  0
 37 38  1  0  0  0  0
 37 36  1  0  0  0  0
 38 30  1  0  0  0  0
 39 40  1  0  0  0  0
 39 38  2  0  0  0  0
 41 39  1  0  0  0  0
 42 41  1  0  0  0  0
 43 41  2  0  0  0  0
 43 45  1  0  0  0  0
 44 43  1  0  0  0  0
 45 37  2  0  0  0  0
 46 45  1  0  0  0  0
M  END
>  <minimizedAffinity>
-5.46460152

>  <minimizedRMSD>
0.0814749077

$$$$
