
 OpenBabel03252507203D

 46 49  0  0  1  0  0  0  0  0999 V2000
   46.9160   32.2840   44.2020 C   0  0  0  0  0  0  0  0  0  0  0  0
   48.1530   32.3810   44.4490 O   0  0  0  0  0  0  0  0  0  0  0  0
   46.3040   31.1360   43.6120 N   0  0  0  0  0  0  0  0  0  0  0  0
   45.0700   30.4320   43.9600 C   0  0  0  0  0  0  0  0  0  0  0  0
   44.1940   30.2790   42.7110 C   0  0  0  0  0  0  0  0  0  0  0  0
   44.9060   29.4190   41.6980 C   0  0  0  0  0  0  0  0  0  0  0  0
   46.3510   29.2630   42.0830 C   0  0  0  0  0  0  0  0  0  0  0  0
   46.9870   30.5600   42.4860 C   0  0  2  0  0  0  0  0  0  0  0  0
   45.2460   29.4890   44.4800 H   0  0  0  0  0  0  0  0  0  0  0  0
   44.5280   31.1560   44.6300 H   0  0  0  0  0  0  0  0  0  0  0  0
   43.2040   29.9290   42.9960 H   0  0  0  0  0  0  0  0  0  0  0  0
   44.0770   31.3250   42.3390 H   0  0  0  0  0  0  0  0  0  0  0  0
   44.4400   28.4120   41.7300 H   0  0  0  0  0  0  0  0  0  0  0  0
   44.7850   29.8120   40.6670 H   0  0  0  0  0  0  0  0  0  0  0  0
   46.9360   28.8370   41.2330 H   0  0  0  0  0  0  0  0  0  0  0  0
   46.4090   28.5400   42.9320 H   0  0  0  0  0  0  0  0  0  0  0  0
   46.8550   31.2730   41.6470 H   0  0  0  0  0  0  0  0  0  0  0  0
   48.6820   32.2070   40.7300 Cl  0  0  0  0  0  0  0  0  0  0  0  0
   49.3450   31.0670   41.8990 C   0  0  0  0  0  0  0  0  0  0  0  0
   48.4370   30.3420   42.6820 C   0  0  0  0  0  0  0  0  0  0  0  0
   49.0480   29.4770   43.5660 C   0  0  0  0  0  0  0  0  0  0  0  0
   48.3600   28.8940   44.1920 H   0  0  0  0  0  0  0  0  0  0  0  0
   50.4180   29.3600   43.6450 C   0  0  0  0  0  0  0  0  0  0  0  0
   50.8100   28.6470   44.3780 H   0  0  0  0  0  0  0  0  0  0  0  0
   51.2630   30.1000   42.8470 C   0  0  0  0  0  0  0  0  0  0  0  0
   52.3250   30.0150   42.9020 H   0  0  0  0  0  0  0  0  0  0  0  0
   50.7170   30.9840   41.9430 C   0  0  0  0  0  0  0  0  0  0  0  0
   51.7340   31.9360   40.9170 Cl  0  0  0  0  0  0  0  0  0  0  0  0
   45.7120   34.2990   43.5050 C   0  0  0  0  0  0  0  0  0  0  0  0
   46.0830   33.4070   44.5420 C   0  0  0  0  0  0  0  0  0  0  0  0
   45.6380   33.6480   45.8240 C   0  0  0  0  0  0  0  0  0  0  0  0
   44.8610   34.7310   46.0460 N   0  0  0  0  0  0  0  0  0  0  0  0
   44.4990   35.5920   45.0650 C   0  0  0  0  0  0  0  0  0  0  0  0
   44.9340   35.3570   43.8090 N   0  0  0  0  0  0  0  0  0  0  0  0
   46.0640   34.1000   42.5140 H   0  0  0  0  0  0  0  0  0  0  0  0
   43.8760   36.4530   45.2640 H   0  0  0  0  0  0  0  0  0  0  0  0
   46.0290   32.7330   46.8760 C   0  0  0  0  0  0  0  0  0  0  0  0
   45.1520   31.7930   47.3300 C   0  0  0  0  0  0  0  0  0  0  0  0
   45.5410   30.9320   48.3300 C   0  0  0  0  0  0  0  0  0  0  0  0
   46.8010   30.9710   48.9120 C   0  0  0  0  0  0  0  0  0  0  0  0
   47.6490   31.9450   48.4140 C   0  0  0  0  0  0  0  0  0  0  0  0
   47.2390   32.7670   47.4390 N   0  0  0  0  0  0  0  0  0  0  0  0
   44.1420   31.6220   47.0040 H   0  0  0  0  0  0  0  0  0  0  0  0
   44.8900   30.1500   48.7460 H   0  0  0  0  0  0  0  0  0  0  0  0
   47.1130   30.3060   49.6920 H   0  0  0  0  0  0  0  0  0  0  0  0
   48.6600   32.0360   48.8240 H   0  0  0  0  0  0  0  0  0  0  0  0
  1  2  2  0  0  0  0
  1 30  1  0  0  0  0
  3  4  1  0  0  0  0
  3  1  1  0  0  0  0
  4  9  1  0  0  0  0
  4 10  1  0  0  0  0
  5 11  1  0  0  0  0
  5  4  1  0  0  0  0
  6 13  1  0  0  0  0
  6  7  1  0  0  0  0
  6  5  1  0  0  0  0
  7  8  1  0  0  0  0
  7 16  1  0  0  0  0
  8 17  1  6  0  0  0
  8 20  1  0  0  0  0
  8  3  1  0  0  0  0
 12  5  1  0  0  0  0
 14  6  1  0  0  0  0
 15  7  1  0  0  0  0
 18 19  1  0  0  0  0
 19 27  2  0  0  0  0
 19 20  1  0  0  0  0
 20 21  2  0  0  0  0
 21 23  1  0  0  0  0
 21 22  1  0  0  0  0
 23 24  1  0  0  0  0
 25 26  1  0  0  0  0
 25 23  2  0  0  0  0
 27 25  1  0  0  0  0
 28 27  1  0  0  0  0
 29 34  2  0  0  0  0
 29 30  1  0  0  0  0
 30 31  2  0  0  0  0
 31 32  1  0  0  0  0
 31 37  1  0  0  0  0
 33 36  1  0  0  0  0
 33 32  2  0  0  0  0
 34 33  1  0  0  0  0
 35 29  1  0  0  0  0
 37 38  2  0  0  0  0
 37 42  1  0  0  0  0
 38 39  1  0  0  0  0
 39 44  1  0  0  0  0
 39 40  2  0  0  0  0
 40 45  1  0  0  0  0
 41 46  1  0  0  0  0
 41 40  1  0  0  0  0
 42 41  2  0  0  0  0
 43 38  1  0  0  0  0
M  END
>  <minimizedAffinity>
-4.99935007

>  <minimizedRMSD>
2.93401861

$$$$
