
     RDKit          3D

 51 54  0  0  0  0  0  0  0  0999 V2000
   47.5607   31.9664   46.4124 C   0  0  2  0  0  0  0  0  0  0  0  0
   47.3006   30.4977   45.9585 C   0  0  0  0  0  0  0  0  0  0  0  0
   48.1059   29.5685   46.7981 C   0  0  0  0  0  0  0  0  0  0  0  0
   48.1145   29.8458   48.2641 C   0  0  0  0  0  0  0  0  0  0  0  0
   48.1265   31.2469   48.6068 C   0  0  0  0  0  0  0  0  0  0  0  0
   47.1298   32.0974   47.7891 C   0  0  2  0  0  0  0  0  0  0  0  0
   46.9130   32.9156   45.5285 C   0  0  0  0  0  0  0  0  0  0  0  0
   45.8039   33.5901   46.0158 C   0  0  0  0  0  0  0  0  0  0  0  0
   45.1220   34.5088   45.1842 C   0  0  0  0  0  0  0  0  0  0  0  0
   45.6327   34.6752   43.8982 N   0  0  0  0  0  0  0  0  0  0  0  0
   46.7100   33.9937   43.4911 C   0  0  0  0  0  0  0  0  0  0  0  0
   47.3377   33.1308   44.2888 N   0  0  0  0  0  0  0  0  0  0  0  0
   47.2071   34.2319   42.1323 C   0  0  0  0  0  0  0  0  0  0  0  0
   48.1914   35.1651   41.8919 C   0  0  0  0  0  0  0  0  0  0  0  0
   48.7080   35.4416   40.6410 C   0  0  0  0  0  0  0  0  0  0  0  0
   48.1596   34.7011   39.6107 C   0  0  0  0  0  0  0  0  0  0  0  0
   47.1778   33.7679   39.8373 C   0  0  0  0  0  0  0  0  0  0  0  0
   46.7050   33.5372   41.1003 N   0  0  0  0  0  0  0  0  0  0  0  0
   45.7897   31.5307   47.9528 N   0  0  0  0  0  0  0  0  0  0  0  0
   45.1888   30.8481   49.0244 C   0  0  0  0  0  0  0  0  0  0  0  0
   44.7563   31.4421   50.0767 O   0  0  0  0  0  0  0  0  0  0  0  0
   45.0871   29.4345   48.8502 N   0  0  0  0  0  0  0  0  0  0  0  0
   48.6645   32.0582   46.2809 H   0  0  0  0  0  0  0  0  0  0  0  0
   46.2254   30.2824   45.9245 H   0  0  0  0  0  0  0  0  0  0  0  0
   47.6595   30.4821   44.9090 H   0  0  0  0  0  0  0  0  0  0  0  0
   47.6328   28.5503   46.6805 H   0  0  0  0  0  0  0  0  0  0  0  0
   49.0911   29.4672   46.3044 H   0  0  0  0  0  0  0  0  0  0  0  0
   47.7422   29.0732   48.9377 H   0  0  0  0  0  0  0  0  0  0  0  0
   49.2274   29.5918   48.4893 H   0  0  0  0  0  0  0  0  0  0  0  0
   49.0860   31.8128   48.5314 H   0  0  0  0  0  0  0  0  0  0  0  0
   47.8212   31.3885   49.6804 H   0  0  0  0  0  0  0  0  0  0  0  0
   47.2585   33.0758   48.2549 H   0  0  0  0  0  0  0  0  0  0  0  0
   45.2781   33.6449   46.9438 H   0  0  0  0  0  0  0  0  0  0  0  0
   44.2699   35.1042   45.3783 H   0  0  0  0  0  0  0  0  0  0  0  0
   48.5634   35.6984   42.7547 H   0  0  0  0  0  0  0  0  0  0  0  0
   49.4905   36.1952   40.5124 H   0  0  0  0  0  0  0  0  0  0  0  0
   48.5490   34.9009   38.6226 H   0  0  0  0  0  0  0  0  0  0  0  0
   45.0656   31.5278   47.1389 H   0  0  0  0  0  0  0  0  0  0  0  0
   44.5313   28.7590   48.2820 H   0  0  0  0  0  0  0  0  0  0  0  0
   45.3496   28.4315   49.0466 H   0  0  0  0  0  0  0  0  0  0  0  0
   46.4555   35.2861   37.3712 Cl  0  0  0  0  0  0  0  0  0  0  0  0
   46.2147   33.5543   37.5666 C   0  0  0  0  0  0  0  0  0  0  0  0
   46.5936   32.9825   38.7578 C   0  0  0  0  0  0  0  0  0  0  0  0
   46.3725   31.6242   38.8315 C   0  0  0  0  0  0  0  0  0  0  0  0
   46.6294   31.0843   39.7087 H   0  0  0  0  0  0  0  0  0  0  0  0
   45.8248   30.8771   37.8246 C   0  0  0  0  0  0  0  0  0  0  0  0
   45.6604   29.7993   37.9104 H   0  0  0  0  0  0  0  0  0  0  0  0
   45.4565   31.4892   36.6409 C   0  0  0  0  0  0  0  0  0  0  0  0
   45.0206   30.9610   35.8091 H   0  0  0  0  0  0  0  0  0  0  0  0
   45.6591   32.8481   36.5214 C   0  0  0  0  0  0  0  0  0  0  0  0
   45.2115   33.6944   35.0360 Cl  0  0  0  0  0  0  0  0  0  0  0  0
  1  6  1  0
  2  1  1  0
  2  3  1  0
  3  4  1  0
  4  5  1  0
  6 19  1  0
  6  5  1  0
  7  8  2  0
  7  1  1  0
  9  8  1  0
 10  9  2  0
 11 10  1  0
 11 12  2  0
 12  7  1  0
 13 11  1  0
 14 13  2  0
 15 14  1  0
 16 17  1  0
 16 15  2  0
 17 18  2  0
 18 13  1  0
 19 20  1  0
 20 21  2  0
 22 20  1  0
  1 23  1  1
  2 24  1  0
  2 25  1  0
  3 26  1  0
  3 27  1  0
  4 28  1  0
  4 29  1  0
  5 30  1  0
  5 31  1  0
  6 32  1  1
  8 33  1  0
  9 34  1  0
 14 35  1  0
 15 36  1  0
 16 37  1  0
 19 38  1  0
 22 39  1  0
 22 40  1  0
 41 42  1  0
 42 43  2  0
 43 44  1  0
 44 45  1  0
 44 46  2  0
 46 47  1  0
 46 48  1  0
 48 49  1  0
 48 50  2  0
 50 51  1  0
 50 42  1  0
 17 43  1  0
M  ISO  8  23  13  24  13  25  13  26  13  27  13  28  13  29  13  30  13
M  ISO  8  31  13  32  13  33  14  34  14  35  14  36  14  37  14  45  15
M  ISO  2  47  15  49  15
M  END
>  <DihAtoms>  (1) 
15,16,42,41

>  <DihDeg>  (1) 
179.99971739895355

$$$$
