
 OpenBabel03252505043D

 36 38  0  0  1  0  0  0  0  0999 V2000
   44.5280   35.5910   44.8800 C   0  0  0  0  0  0  0  0  0  0  0  0
   45.0760   35.6860   43.5960 C   0  0  0  0  0  0  0  0  0  0  0  0
   46.1000   34.8240   43.2370 C   0  0  0  0  0  0  0  0  0  0  0  0
   46.4970   33.9380   44.1900 N   0  0  0  0  0  0  0  0  0  0  0  0
   45.9690   33.8550   45.4110 C   0  0  0  0  0  0  0  0  0  0  0  0
   44.9650   34.6950   45.7680 N   0  0  0  0  0  0  0  0  0  0  0  0
   43.7300   36.2940   45.0970 H   0  0  0  0  0  0  0  0  0  0  0  0
   44.7340   36.3990   42.9110 H   0  0  0  0  0  0  0  0  0  0  0  0
   46.5000   32.8500   46.3640 C   0  0  2  0  0  0  0  0  0  0  0  0
   46.9930   31.7030   45.5620 C   0  0  0  0  0  0  0  0  0  0  0  0
   46.1330   30.5050   45.5780 C   0  0  0  0  0  0  0  0  0  0  0  0
   45.9690   30.1220   47.0350 C   0  0  0  0  0  0  0  0  0  0  0  0
   45.2190   31.1370   47.7850 C   0  0  0  0  0  0  0  0  0  0  0  0
   45.5220   32.5630   47.4040 C   0  0  0  0  0  0  0  0  0  0  0  0
   47.3760   33.3670   46.8580 H   0  0  0  0  0  0  0  0  0  0  0  0
   47.9940   31.4060   45.9460 H   0  0  0  0  0  0  0  0  0  0  0  0
   47.2050   32.0060   44.4960 H   0  0  0  0  0  0  0  0  0  0  0  0
   45.1280   30.7510   45.1750 H   0  0  0  0  0  0  0  0  0  0  0  0
   46.6050   29.6920   45.0230 H   0  0  0  0  0  0  0  0  0  0  0  0
   45.2960   29.2360   47.0190 H   0  0  0  0  0  0  0  0  0  0  0  0
   46.9240   29.8140   47.4490 H   0  0  0  0  0  0  0  0  0  0  0  0
   44.4940   31.0640   48.5510 H   0  0  0  0  0  0  0  0  0  0  0  0
   44.8560   33.6440   48.0540 N   0  0  0  0  0  0  0  0  0  0  0  0
   45.3250   34.2040   48.8020 H   0  0  0  0  0  0  0  0  0  0  0  0
   43.9900   34.1910   48.1140 H   0  0  0  0  0  0  0  0  0  0  0  0
   45.0370   33.1520   40.7840 Cl  0  0  0  0  0  0  0  0  0  0  0  0
   46.4890   34.0770   40.8470 C   0  0  0  0  0  0  0  0  0  0  0  0
   46.8210   34.7490   41.9840 C   0  0  0  0  0  0  0  0  0  0  0  0
   48.0200   35.4200   41.8790 C   0  0  0  0  0  0  0  0  0  0  0  0
   48.4420   36.0070   42.6890 H   0  0  0  0  0  0  0  0  0  0  0  0
   48.8100   35.4200   40.7510 C   0  0  0  0  0  0  0  0  0  0  0  0
   49.7340   35.9510   40.7060 H   0  0  0  0  0  0  0  0  0  0  0  0
   48.4270   34.7260   39.6320 C   0  0  0  0  0  0  0  0  0  0  0  0
   49.0540   34.7340   38.7530 H   0  0  0  0  0  0  0  0  0  0  0  0
   47.2350   34.0440   39.6990 C   0  0  0  0  0  0  0  0  0  0  0  0
   46.7430   33.1580   38.2750 Cl  0  0  0  0  0  0  0  0  0  0  0  0
  1  7  1  0  0  0  0
  1  6  1  0  0  0  0
  2  1  2  0  0  0  0
  3  2  1  0  0  0  0
  3  4  2  0  0  0  0
  4  5  1  0  0  0  0
  5  6  2  0  0  0  0
  5  9  1  0  0  0  0
  8  2  1  0  0  0  0
  9 15  1  1  0  0  0
  9 14  1  0  0  0  0
 10 11  1  0  0  0  0
 10 16  1  0  0  0  0
 10  9  1  0  0  0  0
 11 12  1  0  0  0  0
 12 21  1  0  0  0  0
 12 13  1  0  0  0  0
 13 22  1  0  0  0  0
 14 13  2  0  0  0  0
 14 23  1  0  0  0  0
 17 10  1  0  0  0  0
 18 11  1  0  0  0  0
 19 11  1  0  0  0  0
 20 12  1  0  0  0  0
 23 25  1  0  0  0  0
 23 24  1  0  0  0  0
 26 27  1  0  0  0  0
 27 28  1  0  0  0  0
 28  3  1  0  0  0  0
 29 28  2  0  0  0  0
 29 30  1  0  0  0  0
 31 29  1  0  0  0  0
 32 31  1  0  0  0  0
 33 35  1  0  0  0  0
 33 31  2  0  0  0  0
 34 33  1  0  0  0  0
 35 27  2  0  0  0  0
 36 35  1  0  0  0  0
M  END
>  <minimizedAffinity>
-7.15364742

>  <minimizedRMSD>
1.8174721

$$$$
