
 OpenBabel03242516103D

 27 29  0  0  0  0  0  0  0  0999 V2000
   48.5930   34.7650   41.8560 C   0  0  0  0  0  0  0  0  0  0  0  0
   49.2260   36.1090   41.7600 C   0  0  0  0  0  0  0  0  0  0  0  0
   49.9210   35.0020   42.4850 C   0  0  0  0  0  0  0  0  0  0  0  0
   48.7330   36.9280   42.3480 H   0  0  0  0  0  0  0  0  0  0  0  0
   49.7210   36.4700   40.8610 H   0  0  0  0  0  0  0  0  0  0  0  0
   50.0270   35.0340   43.5900 H   0  0  0  0  0  0  0  0  0  0  0  0
   50.8230   34.5660   42.0140 H   0  0  0  0  0  0  0  0  0  0  0  0
   49.4970   31.8030   41.9650 Cl  0  0  0  0  0  0  0  0  0  0  0  0
   48.8870   32.5590   40.5380 C   0  0  0  0  0  0  0  0  0  0  0  0
   48.5220   33.8810   40.6340 C   0  0  0  0  0  0  0  0  0  0  0  0
   48.0320   34.4870   39.4840 C   0  0  0  0  0  0  0  0  0  0  0  0
   47.7000   35.5000   39.3620 H   0  0  0  0  0  0  0  0  0  0  0  0
   47.9200   33.7840   38.2980 C   0  0  0  0  0  0  0  0  0  0  0  0
   47.5440   34.1930   37.3570 H   0  0  0  0  0  0  0  0  0  0  0  0
   48.2930   32.4550   38.2200 C   0  0  0  0  0  0  0  0  0  0  0  0
   48.2280   31.8600   37.3300 H   0  0  0  0  0  0  0  0  0  0  0  0
   48.7740   31.8720   39.3640 C   0  0  0  0  0  0  0  0  0  0  0  0
   49.2710   30.1920   39.3590 Cl  0  0  0  0  0  0  0  0  0  0  0  0
   46.2250   35.3500   42.5060 C   0  0  0  0  0  0  0  0  0  0  0  0
   47.4090   34.6200   42.7160 C   0  0  0  0  0  0  0  0  0  0  0  0
   47.3820   33.7170   43.8010 C   0  0  0  0  0  0  0  0  0  0  0  0
   46.2620   33.5970   44.5620 N   0  0  0  0  0  0  0  0  0  0  0  0
   45.1580   34.3270   44.3060 C   0  0  0  0  0  0  0  0  0  0  0  0
   45.1510   35.1960   43.2810 N   0  0  0  0  0  0  0  0  0  0  0  0
   46.1680   36.0670   41.6970 H   0  0  0  0  0  0  0  0  0  0  0  0
   48.2940   33.1630   43.9540 H   0  0  0  0  0  0  0  0  0  0  0  0
   44.3830   34.0860   45.0180 H   0  0  0  0  0  0  0  0  0  0  0  0
  1  3  1  0  0  0  0
  1 20  1  0  0  0  0
  2  1  1  0  0  0  0
  2  4  1  0  0  0  0
  2  3  1  0  0  0  0
  3  6  1  0  0  0  0
  5  2  1  0  0  0  0
  7  3  1  0  0  0  0
  9 10  1  0  0  0  0
  9  8  1  0  0  0  0
 10  1  1  0  0  0  0
 11 10  2  0  0  0  0
 12 11  1  0  0  0  0
 13 11  1  0  0  0  0
 14 13  1  0  0  0  0
 15 13  2  0  0  0  0
 15 17  1  0  0  0  0
 16 15  1  0  0  0  0
 17  9  2  0  0  0  0
 18 17  1  0  0  0  0
 19 20  2  0  0  0  0
 19 24  1  0  0  0  0
 20 21  1  0  0  0  0
 21 26  1  0  0  0  0
 21 22  2  0  0  0  0
 23 22  1  0  0  0  0
 23 27  1  0  0  0  0
 24 23  2  0  0  0  0
 25 19  1  0  0  0  0
M  END
>  <minimizedAffinity>
-5.0336957

>  <minimizedRMSD>
1.46297431

$$$$
