
 OpenBabel03252507493D

 47 49  0  0  0  0  0  0  0  0999 V2000
   47.2710   35.2850   42.0190 C   0  0  0  0  0  0  0  0  0  0  0  0
   47.4150   36.3730   42.0740 H   0  0  0  0  0  0  0  0  0  0  0  0
   47.8100   34.8800   42.9210 H   0  0  0  0  0  0  0  0  0  0  0  0
   45.8500   34.9240   42.1790 C   0  0  0  0  0  0  0  0  0  0  0  0
   44.8590   35.9430   42.2790 C   0  0  0  0  0  0  0  0  0  0  0  0
   43.3020   35.0170   42.4590 S   0  0  0  0  0  0  0  0  0  0  0  0
   44.2570   33.3540   42.3720 C   0  0  0  0  0  0  0  0  0  0  0  0
   45.3260   33.7270   42.2490 N   0  0  0  0  0  0  0  0  0  0  0  0
   44.9850   37.0170   42.2540 H   0  0  0  0  0  0  0  0  0  0  0  0
   43.6340   32.1160   42.4530 O   0  0  0  0  0  0  0  0  0  0  0  0
   42.0740   30.3310   41.3020 O   0  0  0  0  0  0  0  0  0  0  0  0
   42.2970   31.8480   41.4210 P   0  0  1  0  0  0  0  0  0  0  0  0
   40.9440   32.5260   42.1780 O   0  0  0  0  0  0  0  0  0  0  0  0
   40.8950   33.4870   42.0580 H   0  0  0  0  0  0  0  0  0  0  0  0
   42.5700   32.5790   39.9430 O   0  0  0  0  0  0  0  0  0  0  0  0
   39.8310   31.5650   39.0400 Cl  0  0  0  0  0  0  0  0  0  0  0  0
   40.4780   33.1450   38.6550 C   0  0  0  0  0  0  0  0  0  0  0  0
   41.7330   33.3470   39.1850 C   0  0  0  0  0  0  0  0  0  0  0  0
   42.3410   34.5850   38.9330 C   0  0  0  0  0  0  0  0  0  0  0  0
   43.3320   34.9320   39.2690 H   0  0  0  0  0  0  0  0  0  0  0  0
   41.6980   35.5710   38.1750 C   0  0  0  0  0  0  0  0  0  0  0  0
   42.1290   36.5370   37.9580 H   0  0  0  0  0  0  0  0  0  0  0  0
   40.4420   35.3380   37.6580 C   0  0  0  0  0  0  0  0  0  0  0  0
   39.8950   36.0660   37.0630 H   0  0  0  0  0  0  0  0  0  0  0  0
   39.8490   34.1180   37.9090 C   0  0  0  0  0  0  0  0  0  0  0  0
   38.2650   33.6810   37.3200 Cl  0  0  0  0  0  0  0  0  0  0  0  0
   47.9390   34.6640   40.8270 C   0  0  0  0  0  0  0  0  0  0  0  0
   47.1470   34.1450   40.2550 H   0  0  0  0  0  0  0  0  0  0  0  0
   48.3140   35.4920   40.1730 H   0  0  0  0  0  0  0  0  0  0  0  0
   49.0610   33.7860   41.1620 C   0  0  0  0  0  0  0  0  0  0  0  0
   49.1780   32.6100   40.4320 C   0  0  0  0  0  0  0  0  0  0  0  0
   50.2020   31.7160   40.6730 C   0  0  0  0  0  0  0  0  0  0  0  0
   51.0960   32.0580   41.6780 N   0  0  0  0  0  0  0  0  0  0  0  0
   50.9420   33.2200   42.3670 C   0  0  0  0  0  0  0  0  0  0  0  0
   49.9430   34.0690   42.1150 N   0  0  0  0  0  0  0  0  0  0  0  0
   50.3160   30.8050   40.1270 H   0  0  0  0  0  0  0  0  0  0  0  0
   51.7040   33.3870   43.1370 H   0  0  0  0  0  0  0  0  0  0  0  0
   47.9850   32.2420   39.1520 S   0  0  0  0  0  0  0  0  0  0  0  0
   48.7710   32.2760   37.5330 C   0  0  0  0  0  0  0  0  0  0  0  0
   48.3940   31.4230   36.9060 H   0  0  0  0  0  0  0  0  0  0  0  0
   49.8700   32.0860   37.6760 H   0  0  0  0  0  0  0  0  0  0  0  0
   48.5040   33.6110   36.8910 C   0  0  0  0  0  0  0  0  0  0  0  0
   47.7090   34.1610   37.4170 H   0  0  0  0  0  0  0  0  0  0  0  0
   49.4190   34.2570   36.9280 H   0  0  0  0  0  0  0  0  0  0  0  0
   48.0600   33.3970   35.5510 N   0  0  0  0  0  0  0  0  0  0  0  0
   48.2330   32.4310   35.2500 H   0  0  0  0  0  0  0  0  0  0  0  0
   48.5850   34.0090   34.8570 H   0  0  0  0  0  0  0  0  0  0  0  0
  1  2  1  0  0  0  0
  1  4  1  0  0  0  0
  1  3  1  0  0  0  0
  4  8  1  0  0  0  0
  4  5  2  0  0  0  0
  5  6  1  0  0  0  0
  7 10  1  0  0  0  0
  7  6  1  0  0  0  0
  8  7  2  0  0  0  0
  9  5  1  0  0  0  0
 12 11  2  6  0  0  0
 12 13  1  0  0  0  0
 12 10  1  0  0  0  0
 14 13  1  0  0  0  0
 15 12  1  0  0  0  0
 17 16  1  0  0  0  0
 17 18  1  0  0  0  0
 18 15  1  0  0  0  0
 19 18  2  0  0  0  0
 19 20  1  0  0  0  0
 21 19  1  0  0  0  0
 22 21  1  0  0  0  0
 23 25  1  0  0  0  0
 23 21  2  0  0  0  0
 24 23  1  0  0  0  0
 25 17  2  0  0  0  0
 26 25  1  0  0  0  0
 27 30  1  0  0  0  0
 27  1  1  0  0  0  0
 28 27  1  0  0  0  0
 29 27  1  0  0  0  0
 30 35  1  0  0  0  0
 31 32  1  0  0  0  0
 31 30  2  0  0  0  0
 32 33  2  0  0  0  0
 33 34  1  0  0  0  0
 34 37  1  0  0  0  0
 35 34  2  0  0  0  0
 36 32  1  0  0  0  0
 38 31  1  0  0  0  0
 39 41  1  0  0  0  0
 39 38  1  0  0  0  0
 40 39  1  0  0  0  0
 42 44  1  0  0  0  0
 42 43  1  0  0  0  0
 42 39  1  0  0  0  0
 45 42  1  0  0  0  0
 46 45  1  0  0  0  0
 47 45  1  0  0  0  0
M  END
>  <minimizedAffinity>
-5.37381506

>  <minimizedRMSD>
3.10229707

$$$$
