
 OpenBabel03252502243D

 36 38  0  0  1  0  0  0  0  0999 V2000
   46.6540   34.4750   42.2540 N   0  0  0  0  0  0  0  0  0  0  0  0
   48.1010   34.2550   42.3030 C   0  0  0  0  0  0  0  0  0  0  0  0
   48.6080   35.0230   41.0620 C   0  0  0  0  0  0  0  0  0  0  0  0
   48.1180   34.3300   39.8240 C   0  0  0  0  0  0  0  0  0  0  0  0
   46.6960   33.9050   39.8820 C   0  0  0  0  0  0  0  0  0  0  0  0
   45.8840   34.4380   41.0310 C   0  0  1  0  0  0  0  0  0  0  0  0
   48.3780   33.1990   42.2010 H   0  0  0  0  0  0  0  0  0  0  0  0
   48.5050   34.7570   43.1910 H   0  0  0  0  0  0  0  0  0  0  0  0
   49.7060   34.9890   41.1150 H   0  0  0  0  0  0  0  0  0  0  0  0
   48.2210   36.0600   41.1540 H   0  0  0  0  0  0  0  0  0  0  0  0
   48.3410   35.0220   38.9750 H   0  0  0  0  0  0  0  0  0  0  0  0
   48.7750   33.4480   39.6650 H   0  0  0  0  0  0  0  0  0  0  0  0
   46.6160   32.7890   39.9010 H   0  0  0  0  0  0  0  0  0  0  0  0
   46.1920   34.2240   38.9450 H   0  0  0  0  0  0  0  0  0  0  0  0
   45.6680   35.4970   40.7920 H   0  0  0  0  0  0  0  0  0  0  0  0
   44.4680   36.0850   44.8380 C   0  0  0  0  0  0  0  0  0  0  0  0
   45.1330   35.9090   43.6090 C   0  0  0  0  0  0  0  0  0  0  0  0
   45.9370   34.7440   43.4640 C   0  0  0  0  0  0  0  0  0  0  0  0
   46.0000   33.8950   44.5190 N   0  0  0  0  0  0  0  0  0  0  0  0
   45.3460   34.1000   45.6790 C   0  0  0  0  0  0  0  0  0  0  0  0
   44.5760   35.2040   45.8360 N   0  0  0  0  0  0  0  0  0  0  0  0
   43.8460   36.9690   44.9740 H   0  0  0  0  0  0  0  0  0  0  0  0
   45.0630   36.5980   42.7990 H   0  0  0  0  0  0  0  0  0  0  0  0
   45.5020   33.3150   46.4330 H   0  0  0  0  0  0  0  0  0  0  0  0
   44.7950   33.6360   41.2130 O   0  0  0  0  0  0  0  0  0  0  0  0
   42.7780   31.5090   42.2550 Cl  0  0  0  0  0  0  0  0  0  0  0  0
   42.3820   32.9590   41.4030 C   0  0  0  0  0  0  0  0  0  0  0  0
   43.4700   33.7260   41.0560 C   0  0  0  0  0  0  0  0  0  0  0  0
   43.1580   34.9090   40.3620 C   0  0  0  0  0  0  0  0  0  0  0  0
   43.8570   35.6750   39.9850 H   0  0  0  0  0  0  0  0  0  0  0  0
   41.8430   35.2610   40.0570 C   0  0  0  0  0  0  0  0  0  0  0  0
   41.5510   36.1540   39.5280 H   0  0  0  0  0  0  0  0  0  0  0  0
   40.8390   34.4330   40.4440 C   0  0  0  0  0  0  0  0  0  0  0  0
   39.7950   34.6590   40.2320 H   0  0  0  0  0  0  0  0  0  0  0  0
   41.0730   33.2630   41.1250 C   0  0  0  0  0  0  0  0  0  0  0  0
   39.8380   32.1500   41.6550 Cl  0  0  0  0  0  0  0  0  0  0  0  0
  1  2  1  0  0  0  0
  1 18  1  0  0  0  0
  2  8  1  0  0  0  0
  3  9  1  0  0  0  0
  3 10  1  0  0  0  0
  3  2  1  0  0  0  0
  4  5  1  0  0  0  0
  4  3  1  0  0  0  0
  5 13  1  0  0  0  0
  5  6  1  0  0  0  0
  6 15  1  6  0  0  0
  6 25  1  0  0  0  0
  6  1  1  0  0  0  0
  7  2  1  0  0  0  0
 11  4  1  0  0  0  0
 12  4  1  0  0  0  0
 14  5  1  0  0  0  0
 16 22  1  0  0  0  0
 16 21  1  0  0  0  0
 17 16  2  0  0  0  0
 18 17  1  0  0  0  0
 18 19  2  0  0  0  0
 19 20  1  0  0  0  0
 20 21  2  0  0  0  0
 20 24  1  0  0  0  0
 23 17  1  0  0  0  0
 27 26  1  0  0  0  0
 28 25  1  0  0  0  0
 28 27  2  0  0  0  0
 29 28  1  0  0  0  0
 30 29  1  0  0  0  0
 31 29  2  0  0  0  0
 31 33  1  0  0  0  0
 32 31  1  0  0  0  0
 33 35  2  0  0  0  0
 34 33  1  0  0  0  0
 35 27  1  0  0  0  0
 35 36  1  0  0  0  0
M  END
>  <minimizedAffinity>
-6.04281092

>  <minimizedRMSD>
1.22396171

$$$$
